Mass spectrum: Malformin A1; LC-ESI-ITFT; MS2; CE: 40%; R=7500; [M+H]+
Name: Malformin A1
Name: Malformin A
Name: 4-butan-2-yl-7-(2-methylpropyl)-10-propan-2-yl-15,16-dithia-2,5,8,11,19-pentazabicyclo[11.4.2]nonadecane-3,6,9,12,18-pentone
Formula: C23H39N5O5S2
Exact mass: 529.2393
SMILES: CCC(C)C1C(=O)NC2CSSCC(C(=O)NC(C(=O)NC(C(=O)N1)CC(C)C)C(C)C)NC2=O
InChI: InChI=1S/C23H39N5O5S2/c1-7-13(6)18-23(33)26-15-9-34-35-10-16(25-20(15)30)21(31)27-17(12(4)5)22(32)24-14(8-11(2)3)19(29)28-18/h11-18H,7-10H2,1-6H3,(H,24,32)(H,25,30)(H,26,33)(H,27,31)(H,28,29)
Instrument: LTQ Orbitrap XL Thermo Scientific
Instrument type: LC-ESI-ITFT
Ms type: MS2
Ion mode: POSITIVE
Ionization: ESI
Fragmentation mode: HCD
Collision energy: 40 % (nominal)
Resolution: 7500
Column name: Hypersil GOLD C18 1.9 um 100 x 2.1 mm Thermo Fisher Scientific
Retention time: 21.536 min
Base peak: 530.2473
Precursor m/z: 530.2465
Precursor type: [M+H]+
Precursor intensity: 8766828.852051
m/z	relative intensity	assigned
72.0808	222	C4H10N+
86.0964	595	C5H12N+
96.248	24	CH36OS+
140.144	24	C9H18N+
173.0731	16	C5H11N5S+
175.0899	40	C7H15N2OS+
183.1128	31	C9H15N2O2+
185.1651	297	C10H21N2O+
199.1807	403	C11H23N2O+
201.1185	26	C10H19NOS+
205.0104	56	C6H9N2O2S2+
213.1601	94	C5H27NO5S+
231.0622	999	C3H13N5O5S+
253.2279	41	C15H29N2O+
259.0572	248	C10H15N2O2S2+
304.0788	175	C19H14NOS+
318.0944	111	C12H20N3O3S2+
372.1414	53	C16H26N3O3S2+
