Mass spectrum: Dixyrazine; LC-ESI-ITFT; MS2; CE: 70%; R=15000; [M+H]+
Name: Dixyrazine
Name: 2-[2-[4-(2-methyl-3-phenothiazin-10-ylpropyl)piperazin-1-yl]ethoxy]ethanol
Formula: C24H33N3O2S
Exact mass: 427.2293
SMILES: CC(CN1CCN(CC1)CCOCCO)CN2C3=CC=CC=C3SC4=CC=CC=C42
InChI: InChI=1S/C24H33N3O2S/c1-20(18-26-12-10-25(11-13-26)14-16-29-17-15-28)19-27-21-6-2-4-8-23(21)30-24-9-5-3-7-22(24)27/h2-9,20,28H,10-19H2,1H3
Instrument: LTQ Orbitrap XL Thermo Scientific
Instrument type: LC-ESI-ITFT
Ms type: MS2
Ion mode: POSITIVE
Ionization: ESI
Fragmentation mode: HCD
Collision energy: 70% (nominal)
Resolution: 15000
Column name: Kinetex Evo C18 2.6 um 50 x 2.1 mm
Retention time: 8.957 min
Base peak: 428.2363
Precursor m/z: 428.2366
Precursor type: [M+H]+
m/z	relative intensity	assigned
68.0493	5	C4H6N+
69.0332	3	C4H5O+
70.065	266	C4H8N+
72.0806	6	C4H10N+
73.0283	7	C3H5O2+
82.0651	65	C5H8N+
83.0603	9	C4H7N2+
84.0808	52	C5H10N+
86.0601	10	C4H8NO+
87.0441	142	C4H7O2+
94.0652	7	C6H8N+
96.0809	7	C6H10N+
97.0761	330	C5H9N2+
98.0839	999	C5H10N2+
99.0809	7	C6H11O+
99.0916	54	C5H11N2+
100.0756	15	C5H10NO+
101.1073	488	C5H13N2+
110.0839	25	C6H10N2+
111.0917	8	C6H11N2+
112.0995	31	C6H12N2+
112.1121	30	C7H14N+
113.1074	23	C6H13N2+
118.0865	16	C5H12NO2+
124.0215	4	C6H6NS+
125.1074	100	C7H13N2+
130.0863	12	C6H12NO2+
140.1308	16	C8H16N2+
144.1019	100	C7H14NO2+
145.1048	4	C8H17S+
155.1543	13	C9H19N2+
172.1207	111	C8H16N2O2+
178.0654	5	C13H8N+
179.073	47	C13H9N+
180.0808	436	C13H10N+
181.084	48	C8H11N3O2+
187.1441	153	C9H19N2O2+
188.1475	13	C10H22NS+
196.0752	5	C13H10NO+
198.0374	10	C12H8NS+
199.0452	38	C12H9NS+
206.0964	9	C15H12N+
212.0529	377	C13H10NS+
213.0562	42	C8H11N3O2S+
220.112	13	C16H14N+
221.1198	9	C16H15N+
224.0531	3	C14H10NS+
229.1912	48	C12H25N2O2+
230.1936	4	C13H28NS+
238.0691	5	C15H12NS+
254.1	4	C16H16NS+
