Mass spectrum: Chaetoglobosin A; LC-ESI-ITFT; MS2; CE: 60%; R=7500; [M-H]-
Name: Chaetoglobosin A
Name: 6-hydroxy-19-(1H-indol-3-ylmethyl)-7,9,16,17-tetramethyl-15-oxa-20-azatetracyclo[11.8.0.01,18.014,16]henicosa-3,7,11-triene-2,5,21-trione
Formula: C32H36N2O5
Exact mass: 528.26242
SMILES: CC1CC=CC2C3C(O3)(C(C4C2(C(=O)C=CC(=O)C(C(=C1)C)O)C(=O)NC4CC5=CNC6=CC=CC=C65)C)C
InChI: InChI=1S/C32H36N2O5/c1-17-8-7-10-22-29-31(4,39-29)19(3)27-24(15-20-16-33-23-11-6-5-9-21(20)23)34-30(38)32(22,27)26(36)13-12-25(35)28(37)18(2)14-17/h5-7,9-14,16-17,19,22,24,27-29,33,37H,8,15H2,1-4H3,(H,34,38)
Instrument: LTQ Orbitrap XL Thermo Scientific
Instrument type: LC-ESI-ITFT
Ms type: MS2
Ion mode: NEGATIVE
Ionization: ESI
Fragmentation mode: HCD
Collision energy: 60 % (nominal)
Resolution: 7500
Column name: Hypersil GOLD C18 1.9 um 100 x 2.1 mm Thermo Fisher Scientific
Retention time: 22.086 min
Base peak: 527.2557
Precursor m/z: 527.2551
Precursor type: [M-H]-
Precursor intensity: 4468676.772949
m/z	relative intensity	assigned
55.9905	42	C2O2-
83.0138	166	C4H3O2-
116.0504	442	C8H6N-
135.0818	153	C9H11O-
139.0402	254	C7H7O3-
142.0665	468	C10H8N-
148.0768	608	C9H10NO-
153.0914	139	C9H13O2-
178.0636	434	C10H10O3-
179.0714	201	C10H11O3-
191.0585	241	C10H9NO3-
200.1079	182	C13H14NO-
201.0305	116	C10H5N2O3-
278.118	270	C18H16NO2-
282.1512	93	C18H20NO2-
320.1156	230	C19H16N2O3-
380.188	151	C23H26NO4-
398.1975	231	C23H28NO5-
483.2666	197	C31H35N2O3-
527.2543	999	C32H35N2O5-
