Mass spectrum: Aspercolorin; LC-ESI-ITFT; MS2; CE: 50%; R=7500; [M+H]+
Name: Aspercolorin
Name: 14-benzyl-19-methoxy-2,8,12,15-tetrazatricyclo[15.4.0.04,8]henicosa-1(17),18,20-triene-3,9,13,16-tetrone
Formula: C25H28N4O5
Exact mass: 464.2060
SMILES: COC1=CC2=C(C=C1)NC(=O)C3CCCN3C(=O)CCNC(=O)C(NC2=O)CC4=CC=CC=C4
InChI: InChI=1S/C25H28N4O5/c1-34-17-9-10-19-18(15-17)23(31)28-20(14-16-6-3-2-4-7-16)24(32)26-12-11-22(30)29-13-5-8-21(29)25(33)27-19/h2-4,6-7,9-10,15,20-21H,5,8,11-14H2,1H3,(H,26,32)(H,27,33)(H,28,31)
Instrument: LTQ Orbitrap XL Thermo Scientific
Instrument type: LC-ESI-ITFT
Ms type: MS2
Ion mode: POSITIVE
Ionization: ESI
Fragmentation mode: HCD
Collision energy: 50 % (nominal)
Resolution: 7500
Column name: Hypersil GOLD C18 1.9 um 100 x 2.1 mm Thermo Fisher Scientific
Retention time: 19.757 min
Base peak: 465.2133
Precursor m/z: 465.2132
Precursor type: [M+H]+
Precursor intensity: 7982286.074951
m/z	relative intensity	assigned
57.1273	26	C2H17O+
70.065	262	C4H8N+
120.0806	999	C8H10N+
124.0755	111	C7H10NO+
130.0651	34	C9H8N+
132.0807	52	C9H10N+
141.1022	147	C7H13N2O+
150.0548	209	C8H8NO2+
174.0911	167	C11H12NO+
177.1022	73	C10H13N2O+
178.0497	173	C9H8NO3+
191.1177	74	C11H15N2O+
192.065	32	C10H10NO3+
219.1126	406	C12H15N2O2+
221.092	68	C11H13N2O3+
247.1072	89	C13H15N2O3+
269.1276	12	C16H17N2O2+
279.1125	41	C17H15N2O2+
289.1197	19	C15H17N2O4+
301.1195	39	C16H17N2O4+
318.1453	34	C16H20N3O4+
