Mass spectrum: Antipyrine; LC-ESI-ITFT; MS2; CE: 90%; R=15000; [M+H]+
Name: Antipyrine
Name: 1,5-dimethyl-2-phenylpyrazol-3-one
Formula: C11H12N2O
Exact mass: 188.0950
SMILES: CC1=CC(=O)N(N1C)C2=CC=CC=C2
InChI: InChI=1S/C11H12N2O/c1-9-8-11(14)13(12(9)2)10-6-4-3-5-7-10/h3-8H,1-2H3
Instrument: LTQ Orbitrap XL Thermo Scientific
Instrument type: LC-ESI-ITFT
Ms type: MS2
Ion mode: POSITIVE
Ionization: ESI
Fragmentation mode: CID
Collision energy: 90% (nominal)
Resolution: 15000
Column name: Kinetex Evo C18 2.6 um 50 x 2.1 mm
Retention time: 5.710 min
Base peak: 189.1023
Precursor m/z: 189.1022
Precursor type: [M+H]+
m/z	relative intensity	assigned
56.0493	15	C3H6N+
58.0649	21	C3H8N+
70.065	11	C4H8N+
91.0544	32	C7H7+
96.0444	23	C5H6NO+
96.0682	25	C5H8N2+
103.0545	15	C8H7+
104.0495	74	C7H6N+
105.0698	25	C8H9+
106.0647	22	C7H8N+
111.0554	22	C5H7N2O+
115.0541	15	C9H7+
117.0573	25	C8H7N+
117.07	26	C9H9+
118.0651	222	C8H8N+
120.0808	232	C8H10N+
129.0699	25	C10H9+
130.0652	327	C9H8N+
131.0729	999	C9H9N+
132.0684	14	C8H8N2+
132.0808	248	C9H10N+
133.0525	22	C8H7NO+
133.076	128	C8H9N2+
134.0967	19	C9H12N+
135.0555	43	C7H7N2O+
144.0808	836	C10H10N+
145.0648	83	C10H9O+
145.0888	13	C10H11N+
146.0838	622	C9H10N2+
146.0964	510	C10H12N+
147.0916	623	C9H11N2+
148.0757	133	C9H10NO+
149.0705	30	C8H9N2O+
158.0601	54	C10H8NO+
159.0913	14	C10H11N2+
161.1073	922	C10H13N2+
162.0915	41	C10H12NO+
172.0757	399	C11H10NO+
174.0787	359	C10H10N2O+
