Mass spectrum: Dothiepin; LC-ESI-ITFT; MS2; CE: 45%; R=7500; [M+H]+
Name: Dothiepin
Name: 3-(Dibenzo[b,e]thiepin-11(6H)-ylidene)-N,N-dimethylpropan-1-amine
Formula: C19H21NS
Exact mass: 295.1395
SMILES: CN(C)CCC=C1C2=CC=CC=C2CSC2=C1C=CC=C2
InChI: InChI=1S/C19H21NS/c1-20(2)13-7-11-17-16-9-4-3-8-15(16)14-21-19-12-6-5-10-18(17)19/h3-6,8-12H,7,13-14H2,1-2H3
Instrument: LTQ Orbitrap XL Thermo Fisher Scientific
Instrument type: LC-ESI-ITFT
Ms type: MS2
Ion mode: POSITIVE
Ionization: ESI
Fragmentation mode: HCD
Collision energy: 45% (nominal)
Resolution: 7500
Column name: Hypersil GOLD C18 1.9 um 100 x 2.1 mm Thermo Fisher Scientific
Precursor m/z: 296.1468
Precursor type: [M+H]+
m/z	relative intensity
57.048	2
57.0539	5
57.0557	3
57.0688	4
57.0721	6
57.0779	5
58.065	107
84.0806	18
91.0542	115
115.0549	3
117.0699	363
123.0264	171
129.0698	18
135.0263	19
137.0425	4
141.0699	40
142.0778	38
147.0264	266
159.0271	4
165.0701	5
173.0421	68
178.0778	28
179.0857	16
191.0857	107
192.0935	51
202.0774	8
203.0858	39
204.0936	21
205.1013	17
209.0423	271
210.0501	29
211.0578	15
217.1015	216
218.1094	999
221.0423	49
222.0503	260
223.0581	956
225.0736	834
236.0658	202
249.0735	28
251.0894	709
253.1048	24
273.8044	10
296.1468	776
