Mass spectrum: Mefruside; LC-ESI-ITFT; MS2; CE: 120%; R=15000; [M+H]+
Name: Mefruside
Name: 4-chloro-1-N-methyl-1-N-[(2-methyloxolan-2-yl)methyl]benzene-1,3-disulfonamide
Formula: C13H19ClN2O5S2
Exact mass: 382.0424
SMILES: CC1(CCCO1)CN(C)S(=O)(=O)C2=CC(=C(C=C2)Cl)S(=O)(=O)N
InChI: InChI=1S/C13H19ClN2O5S2/c1-13(6-3-7-21-13)9-16(2)23(19,20)10-4-5-11(14)12(8-10)22(15,17)18/h4-5,8H,3,6-7,9H2,1-2H3,(H2,15,17,18)
Instrument: LTQ Orbitrap XL Thermo Scientific
Instrument type: LC-ESI-ITFT
Ms type: MS2
Ion mode: POSITIVE
Ionization: ESI
Fragmentation mode: HCD
Collision energy: 120% (nominal)
Resolution: 15000
Column name: Kinetex Evo C18 2.6 um 50 x 2.1 mm
Retention time: 9.006 min
Base peak: 428.2361
Precursor m/z: 383.0497
Precursor type: [M+H]+
m/z	relative intensity	assigned
55.054	188	C4H7+
57.0333	100	C3H5O+
72.9839	70	C3H2Cl+
79.0541	381	C6H7+
81.0699	292	C6H9+
84.0807	999	C5H10N+
86.9999	90	C4H4Cl+
91.0178	188	C6H3O+
94.0652	94	C6H8N+
96.0806	73	C6H10N+
98.9996	257	C5H4Cl+
108.9839	595	C6H2Cl+
114.9946	126	C5H4ClO+
168.9914	81	C2H5N2O5S+
