Mass spectrum: Fumigaclavine C; LC-ESI-ITFT; MS2; CE: 60%; R=7500; [M+H]+
Name: Fumigaclavine C
Name: CID 75144606
Name: [7,9-dimethyl-5-(2-methylbut-3-en-2-yl)-6,6a,8,9,10,10a-hexahydro-4H-indolo[4,3-fg]quinolin-10-yl] acetate
Formula: C23H30N2O2
Exact mass: 366.2307
SMILES: CC1CN(C2CC3=C(NC4=CC=CC(=C34)C2C1OC(=O)C)C(C)(C)C=C)C
InChI: InChI=1S/C23H30N2O2/c1-7-23(4,5)22-16-11-18-20(15-9-8-10-17(24-22)19(15)16)21(27-14(3)26)13(2)12-25(18)6/h7-10,13,18,20-21,24H,1,11-12H2,2-6H3
Instrument: LTQ Orbitrap XL Thermo Scientific
Instrument type: LC-ESI-ITFT
Ms type: MS2
Ion mode: POSITIVE
Ionization: ESI
Fragmentation mode: HCD
Collision energy: 60 % (nominal)
Resolution: 7500
Column name: Hypersil GOLD C18 1.9 um 100 x 2.1 mm Thermo Fisher Scientific
Retention time: 13.208 min
Base peak: 367.2377
Precursor m/z: 367.238
Precursor type: [M+H]+
Precursor intensity: 49259323.36621
m/z	relative intensity	assigned
56.9969	19	C2HO2+
69.0697	40	C5H9+
154.0648	63	C11H8N+
156.1017	112	C8H14NO2+
167.0727	222	C12H9N+
168.0809	169	C12H10N+
180.0805	194	C13H10N+
182.0962	42	C13H12N+
183.0913	50	C12H11N2+
192.0804	283	C14H10N+
194.096	343	C14H12N+
195.1038	318	C14H13N+
197.1196	72	C14H15N+
198.1275	90	C14H16N+
206.0964	376	C15H12N+
207.104	655	C15H13N+
208.1117	422	C15H14N+
212.1433	28	C15H18N+
218.0962	67	C16H12N+
221.1193	254	C16H15N+
222.1274	242	C16H16N+
223.123	150	C15H15N2+
224.1425	90	C16H18N+
232.1119	117	C17H14N+
234.1273	181	C17H16N+
235.1349	240	C17H17N+
236.1427	351	C17H18N+
237.1383	334	C16H17N2+
238.1461	919	C16H18N2+
239.1534	117	C16H19N2+
240.1378	30	C16H18NO+
246.1275	315	C18H16N+
248.1427	271	C18H18N+
249.1508	146	C18H19N+
251.1534	116	C17H19N2+
252.1625	38	C17H20N2+
261.1507	756	C19H19N+
262.1594	74	C19H20N+
264.1743	465	C19H22N+
265.1697	129	C18H21N2+
276.1744	999	C20H22N+
277.1692	159	C19H21N2+
291.1848	154	C20H23N2+
292.1928	438	C20H24N2+
307.2166	284	C21H27N2+
367.2376	510	C23H31N2O2+
