Mass spectrum: Mefruside; LC-ESI-ITFT; MS2; CE: 65%; R=15000; [M+H]+
Name: Mefruside
Name: 4-chloro-1-N-methyl-1-N-[(2-methyloxolan-2-yl)methyl]benzene-1,3-disulfonamide
Formula: C13H19ClN2O5S2
Exact mass: 382.0424
SMILES: CC1(CCCO1)CN(C)S(=O)(=O)C2=CC(=C(C=C2)Cl)S(=O)(=O)N
InChI: InChI=1S/C13H19ClN2O5S2/c1-13(6-3-7-21-13)9-16(2)23(19,20)10-4-5-11(14)12(8-10)22(15,17)18/h4-5,8H,3,6-7,9H2,1-2H3,(H2,15,17,18)
Instrument: LTQ Orbitrap XL Thermo Scientific
Instrument type: LC-ESI-ITFT
Ms type: MS2
Ion mode: POSITIVE
Ionization: ESI
Fragmentation mode: HCD
Collision energy: 65% (nominal)
Resolution: 15000
Column name: Kinetex Evo C18 2.6 um 50 x 2.1 mm
Retention time: 9.023 min
Base peak: 428.2363
Precursor m/z: 383.0497
Precursor type: [M+H]+
m/z	relative intensity	assigned
55.054	32	C4H7+
57.0333	100	C3H5O+
69.0697	72	C5H9+
71.0489	20	C4H7O+
79.0541	150	C6H7+
81.0698	999	C6H9+
84.0807	980	C5H10N+
86.06	112	C4H8NO+
96.0807	61	C6H10N+
99.0804	150	C6H11O+
110.0962	39	C7H12N+
112.1121	20	C7H14N+
128.1072	47	C7H14NO+
129.1148	59	C7H15NO+
142.0053	74	C6H5ClNO+
142.9893	211	C6H4ClO2+
203.988	30	C7H7ClNO2S+
217.9785	333	C9H2N2O3S+
253.9351	27	C6H5ClNO4S2+
