Mass spectrum: Fipronil-OH (TENTATIVE); LC-ESI-QFT; MS2; CE: 30%; R=70000; [M-H]-
Name: Fipronil-OH
Name: 5-amino-1-[2,6-dichloro-3-hydroxy-4-(trifluoromethyl)phenyl]-4-trifluoromethanesulfinyl-1H-pyrazole-3-carbonitrile
Formula: C12H4Cl2F6N4O2S
Exact mass: 451.9336
SMILES: C1=C(C(O)=C(C(=C1Cl)N2C(=C(C(=N2)C#N)S(=O)C(F)(F)F)N)Cl)C(F)(F)F
InChI: InChI=1S/C12H4Cl2F6N4O2S/c13-4-1-3(11(15,16)17)8(25)6(14)7(4)24-10(22)9(5(2-21)23-24)27(26)12(18,19)20/h1,25H,22H2
Instrument: Q Exactive Plus Orbitrap Thermo Scientific
Instrument type: LC-ESI-QFT
Ms type: MS2
Ion mode: NEGATIVE
Ionization: ESI
Fragmentation mode: HCD
Collision energy: 30% (nominal)
Resolution: 70000
Column name: Waters UPLC BEH C18 1.7 um 2.1 mm x 100 mm with pre-column
Retention time: 15.92 min
Precursor m/z: 450.9258
Precursor type: [M-H]-
m/z	relative intensity
65.9983	1
76.0067	1
82.9608	16
108.9601	1
121.0106	1
132.9575	45
148.991	2
150.0032	6
158.0099	1
170.0096	28
182.0096	25
183.0173	163
200.9968	1
206.0094	1
207.0169	1
208.0121	1
216.9785	6
216.9912	4
217.9861	86
219.9777	1
227.0185	1
233.981	88
235.023	4
243.9891	68
245.981	9
246.0155	15
246.9892	1
251.0184	6
253.9861	1
257.9805	2
257.9924	5
259.984	10
261.986	15
271.9839	8
281.9922	999
283	81
283.9846	2
284.9793	4
287.9796	1
297.9871	60
300.9905	12
345.9539	43
348.9582	2
350.9873	1
414.9493	426
