Mass spectrum: Sulfamoxole; ESI-QTOF; MS2; CE: 20eV; R=15000; [M+H]+
Name: Sulfamoxole
Name: 4-Amino-N-(4,5-dimethyl-1,3-oxazol-2-yl)benzene-1-sulfonamide
Formula: C11H13N3O3S
Exact mass: 267.0678
SMILES: CC1=C(C)N=C(NS(=O)(=O)C2=CC=C(N)C=C2)O1
InChI: InChI=1S/C11H13N3O3S/c1-7-8(2)17-11(13-7)14-18(15,16)10-5-3-9(12)4-6-10/h3-6H,12H2,1-2H3,(H,13,14)
Instrument: TripleTOF 5600+SCIEX
Instrument type: ESI-QTOF
Ms type: MS2
Ion mode: POSITIVE
Ionization: ESI
Fragmentation mode: CID
Collision energy: 20 eV
Resolution: 15000
Precursor m/z: 268.0751
Precursor type: [M+H]+
m/z	relative intensity
54.0365	1
65.0406	6
69.0591	1
70.0671	3
80.051	2
92.0507	77
93.0581	1
94.0663	2
108.0452	189
111.0561	19
112.0639	57
113.0717	288
129.0663	1
140.0169	98
156.012	999
158.0276	13
160.0473	1
161.1077	1
162.092	1
175.0177	9
186.0091	1
204.1141	1
227.0598	2
268.0751	930
