Mass spectrum: Pendimethalin-OH (TENTATIVE); LC-ESI-QFT; MS2; CE: 42%; R=70000; [M+H]+
Name: Pendimethalin-OH
Formula: C13H19N3O5
Exact mass: 297.1315
SMILES: C(*)C(*)C(CC)NC1=C(C(*)=C(C(=C1[N+](=O)[O-])C(*))C(*))[N+](=O)[O-] *=[OH (n=1) & H (n=4)]
Instrument: Q Exactive Plus Orbitrap Thermo Scientific
Instrument type: LC-ESI-QFT
Ms type: MS2
Ion mode: POSITIVE
Ionization: ESI
Fragmentation mode: HCD
Collision energy: 42% (nominal) with stepped collision energies 30% and 55%
Resolution: 70000
Column name: Phenomenex Synergi Polar-RP 2.5 um 100 mm x 3 mm with pre-column
Retention time: 9.91 min
Precursor m/z: 298.1393
Precursor type: [M+H]+
m/z	relative intensity
53.0389	22
55.0181	40
55.0546	280
57.0338	35
57.0702	169
67.0544	546
69.0336	280
69.07	514
71.0493	115
71.0856	302
78.0338	21
79.0543	221
80.0496	23
81.0336	31
81.07	887
83.0492	187
83.0855	296
85.0284	98
85.0649	95
85.1013	108
87.044	37
90.0338	33
91.0418	47
91.0542	151
93.07	272
95.0492	21
95.0856	842
97.0648	97
97.1013	216
99.0804	146
103.0389	27
104.0495	133
105.045	52
105.07	194
107.0856	489
109.1013	404
111.0443	74
111.0806	46
111.1167	63
113.0961	61
116.0368	30
117.045	41
117.0698	34
118.0525	70
119.0856	124
120.0885	22
121.0653	22
121.1012	259
123.0804	53
123.117	179
125.0961	95
125.1323	21
129.0545	148
129.0698	35
131.0856	84
133.0647	341
133.1015	139
134.0471	52
134.0688	28
135.0553	134
135.0805	305
135.1168	171
137.096	47
137.1324	95
141.1271	40
143.085	24
145.0399	83
145.1013	68
147.0555	26
147.1168	152
148.1203	26
149.0964	36
149.1323	76
151.0756	25
151.1111	51
153.1275	27
155.1425	26
159.1172	29
161.1327	88
163.0504	54
163.1115	35
163.1481	70
164.0454	50
165.0533	45
165.1271	48
167.1426	43
169.1011	25
171.1167	47
173.1325	56
174.0302	55
175.1484	28
177.1276	24
179.1433	23
183.139	30
187.1468	23
192.0403	279
194.0563	49
195.0616	21
210.0513	259
211.0583	97
212.0666	161
215.1428	28
228.0615	999
