Mass spectrum: Sulfamethoxazole; LC-ESI-ITFT; MS2; CE: 30%; R=15000; [M+H]+
Name: Sulfamethoxazole
Name: 4-amino-N-(5-methyl-1,2-oxazol-3-yl)benzenesulfonamide
Formula: C10H11N3O3S
Exact mass: 253.0521
SMILES: CC1=CC(=NO1)NS(=O)(=O)C2=CC=C(C=C2)N
InChI: InChI=1S/C10H11N3O3S/c1-7-6-10(12-16-7)13-17(14,15)9-4-2-8(11)3-5-9/h2-6H,11H2,1H3,(H,12,13)
Instrument: LTQ Orbitrap XL Thermo Scientific
Instrument type: LC-ESI-ITFT
Ms type: MS2
Ion mode: POSITIVE
Ionization: ESI
Fragmentation mode: CID
Collision energy: 30% (nominal)
Resolution: 15000
Column name: Kinetex Evo C18 2.6 um 50 x 2.1 mm
Retention time: 5.487 min
Base peak: 189.102
Precursor m/z: 254.0594
Precursor type: [M+H]+
m/z	relative intensity	assigned
65.0385	2	C5H5+
80.0496	2	C5H6N+
92.0495	58	C6H6N+
93.0574	14	C6H7N+
94.0652	16	C6H8N+
99.0554	11	C4H7N2O+
107.0605	15	C6H7N2+
108.0444	128	C6H6NO+
121.0762	2	C7H9N2+
131.0604	4	C8H7N2+
132.0684	1	C8H8N2+
145.0764	1	C9H9N2+
146.0714	82	C8H8N3+
147.0792	336	C8H9N3+
148.0869	80	C8H10N3+
156.0115	554	C6H6NO2S+
160.087	236	C9H10N3+
161.0015	4	C4H5N2O3S+
161.071	7	C9H9N2O+
161.0949	2	C9H11N3+
163.0866	3	C9H11N2O+
172.087	9	C10H10N3+
176.0278	20	C8H6N3S+
177.0117	3	C8H5N2OS+
188.082	514	C10H10N3O+
190.0975	185	C10H12N3O+
194.0383	206	C8H8N3OS+
236.049	17	C10H10N3O2S+
254.0595	999	C10H12N3O3S+
