Mass spectrum: Eremofortin B; LC-ESI-ITFT; MS2; CE: 60%; R=7500; [M+H]+
Name: Eremofortin B
Name: 2-hydroxy-3,3a-dimethyl-5-prop-1-en-2-yl-1a,2,3,4,5,7b-hexahydronaphtho[1,2-b]oxiren-6-one
Formula: C15H20O3
Exact mass: 248.1412
SMILES: C=C(C)C1CC2(C)C(C)C(O)C3OC3C2=CC1=O
InChI: InChI=1S/C15H20O3/c1-7(2)9-6-15(4)8(3)12(17)14-13(18-14)10(15)5-11(9)16/h5,8-9,12-14,17H,1,6H2,2-4H3
Instrument: LTQ Orbitrap XL Thermo Scientific
Instrument type: LC-ESI-ITFT
Ms type: MS2
Ion mode: POSITIVE
Ionization: ESI
Fragmentation mode: HCD
Collision energy: 60 % (nominal)
Resolution: 7500
Column name: Hypersil GOLD C18 1.9 um 100 x 2.1 mm Thermo Fisher Scientific
Retention time: 15.198 min
Base peak: 249.1495
Precursor m/z: 249.1485
Precursor type: [M+H]+
Precursor intensity: 14756959.1958
m/z	relative intensity	assigned
67.0543	45	C5H7+
69.07	241	C5H9+
71.0492	40	C4H7O+
79.0544	50	C6H7+
81.07	90	C6H9+
83.0494	26	C5H7O+
83.0857	18	C6H11+
91.0544	75	C7H7+
93.0701	146	C7H9+
95.0494	60	C6H7O+
95.0858	204	C7H11+
97.0288	39	C5H5O2+
97.0651	83	C6H9O+
105.0703	252	C8H9+
107.0859	365	C8H11+
109.0651	248	C7H9O+
109.1016	163	C8H13+
111.0809	90	C7H11O+
119.0859	602	C9H11+
121.0652	228	C8H9O+
121.1016	278	C9H13+
123.0809	321	C8H11O+
123.1172	133	C9H15+
124.0888	18	C8H12O+
125.0598	44	C7H9O2+
129.0704	28	C10H9+
131.086	170	C10H11+
133.0654	115	C9H9O+
133.1017	588	C10H13+
135.0809	382	C9H11O+
135.1171	143	C10H15+
137.0601	92	C8H9O2+
137.0965	111	C9H13O+
139.0756	63	C8H11O2+
143.086	176	C11H11+
145.1016	293	C11H13+
147.0809	496	C10H11O+
147.1173	163	C11H15+
149.0601	115	C9H9O2+
149.0966	225	C10H13O+
150.1033	13	C10H14O+
151.0758	135	C9H11O2+
151.1122	139	C10H15O+
157.1016	115	C12H13+
159.0809	125	C11H11O+
159.1173	137	C12H15+
160.0885	26	C11H12O+
161.0966	999	C11H13O+
161.133	259	C12H17+
163.0758	177	C10H11O2+
163.1123	324	C11H15O+
165.0914	51	C10H13O2+
165.1268	21	C11H17O+
170.1094	126	C13H14+
172.0891	52	C12H12O+
173.0964	108	C12H13O+
173.1329	133	C13H17+
174.0677	30	C11H10O2+
174.1047	31	C12H14O+
175.0762	50	C11H11O2+
175.1124	98	C12H15O+
175.1486	272	C13H19+
177.1282	82	C12H17O+
179.0707	34	C10H11O3+
179.1074	144	C11H15O2+
185.133	107	C14H17+
187.1123	43	C13H15O+
189.091	41	C12H13O2+
189.1278	135	C13H17O+
191.1072	201	C12H15O2+
193.0866	115	C11H13O3+
195.1174	16	C15H15+
198.1045	43	C14H14O+
201.1284	29	C14H17O+
202.1355	12	C14H18O+
203.1436	170	C14H19O+
213.1273	40	C15H17O+
221.1543	55	C14H21O2+
231.1387	50	C15H19O2+
249.1496	253	C15H21O3+
