Mass spectrum: Etilefrine; LC-ESI-ITFT; MS2; CE: 155%; R=15000; [M+H]+
Name: Etilefrine
Name: 3-[2-(ethylamino)-1-hydroxyethyl]phenol
Formula: C10H15NO2
Exact mass: 181.1103
SMILES: CCNCC(C1=CC(=CC=C1)O)O
InChI: InChI=1S/C10H15NO2/c1-2-11-7-10(13)8-4-3-5-9(12)6-8/h3-6,10-13H,2,7H2,1H3
Instrument: LTQ Orbitrap XL Thermo Scientific
Instrument type: LC-ESI-ITFT
Ms type: MS2
Ion mode: POSITIVE
Ionization: ESI
Fragmentation mode: HCD
Collision energy: 155% (nominal)
Resolution: 15000
Column name: Kinetex Evo C18 2.6 um 50 x 2.1 mm
Retention time: 0.619 min
Base peak: 182.1175
Precursor m/z: 182.1176
Precursor type: [M+H]+
m/z	relative intensity	assigned
65.0384	573	C5H5+
66.0463	25	C5H6+
77.0385	129	C6H5+
79.0542	128	C6H7+
80.0495	29	C5H6N+
89.0388	22	C7H5+
90.0464	53	C7H6+
91.0543	999	C7H7+
92.0495	33	C6H6N+
94.0413	101	C6H6O+
95.0489	23	C6H7O+
105.0448	142	C6H5N2+
106.0652	77	C7H8N+
107.0492	248	C7H7O+
117.0576	44	C8H7N+
118.0653	55	C8H8N+
120.0442	40	C7H6NO+
133.0519	20	C8H7NO+
134.06	88	C8H8NO+
