Mass spectrum: Dothiepin; LC-ESI-ITFT; MS2; CE: 70%; R=7500; [M+H]+
Name: Dothiepin
Name: 3-(Dibenzo[b,e]thiepin-11(6H)-ylidene)-N,N-dimethylpropan-1-amine
Formula: C19H21NS
Exact mass: 295.1395
SMILES: CN(C)CCC=C1C2=CC=CC=C2CSC2=C1C=CC=C2
InChI: InChI=1S/C19H21NS/c1-20(2)13-7-11-17-16-9-4-3-8-15(16)14-21-19-12-6-5-10-18(17)19/h3-6,8-12H,7,13-14H2,1-2H3
Instrument: LTQ Orbitrap XL Thermo Fisher Scientific
Instrument type: LC-ESI-ITFT
Ms type: MS2
Ion mode: POSITIVE
Ionization: ESI
Fragmentation mode: HCD
Collision energy: 70% (nominal)
Resolution: 7500
Column name: Hypersil GOLD C18 1.9 um 100 x 2.1 mm Thermo Fisher Scientific
Precursor m/z: 296.1468
Precursor type: [M+H]+
m/z	relative intensity
57.1478	4
58.065	57
70.065	3
84.0806	22
85.0887	2
91.0541	197
103.0546	7
115.0542	80
117.0699	515
123.0263	238
128.0621	7
129.0698	75
135.0262	36
137.0419	2
141.0699	62
142.0777	47
147.0264	218
159.026	4
165.0699	152
173.0421	66
178.0779	226
179.0856	100
181.1012	6
189.0695	4
190.0777	15
191.0856	162
192.0935	230
197.0421	13
202.0778	136
203.0858	676
204.0935	48
205.1014	18
208.0341	20
209.0422	182
210.05	260
211.0575	12
215.0857	27
216.0937	22
217.1015	546
218.1093	894
221.0423	444
222.0501	354
223.0579	999
224.0653	4
225.0735	158
234.0501	41
235.058	128
236.0656	160
249.0734	25
251.089	27
