Mass spectrum: Rubratoxin A; LC-ESI-ITFT; MS2; CE: 50%; R=7500; [M-H]-
Name: Rubratoxin A
Name: 3,13-dihydroxy-2-(1-hydroxyheptyl)-10-[hydroxy-(6-oxo-2,3-dihydropyran-2-yl)methyl]-6,14-dioxatricyclo[10.3.0.04,8]pentadeca-1(12),4(8)-diene-5,7,15-trione
Formula: C26H32O11
Exact mass: 520.19446
SMILES: CCCCCCC(C1C(C2=C(CC(CC3=C1C(=O)OC3O)C(C4CC=CC(=O)O4)O)C(=O)OC2=O)O)O
InChI: InChI=1S/C26H32O11/c1-2-3-4-5-7-15(27)20-18-13(23(31)36-25(18)33)10-12(21(29)16-8-6-9-17(28)35-16)11-14-19(22(20)30)26(34)37-24(14)32/h6,9,12,15-16,20-23,27,29-31H,2-5,7-8,10-11H2,1H3
Instrument: LTQ Orbitrap XL Thermo Scientific
Instrument type: LC-ESI-ITFT
Ms type: MS2
Ion mode: NEGATIVE
Ionization: ESI
Fragmentation mode: HCD
Collision energy: 50 % (nominal)
Resolution: 7500
Column name: Hypersil GOLD C18 1.9 um 100 x 2.1 mm Thermo Fisher Scientific
Retention time: 15.758 min
Base peak: 519.1877
Precursor m/z: 519.1872
Precursor type: [M-H]-
Precursor intensity: 9952376.424805
m/z	relative intensity	assigned
59.0139	59	C2H3O2-
65.0398	47	C5H5-
127.1124	64	C8H15O-
145.0661	56	C10H9O-
167.1078	48	C10H15O2-
175.0768	36	C11H11O2-
185.098	71	C13H13O-
209.1179	61	C12H17O3-
211.1125	218	C15H15O-
213.0914	67	C14H13O2-
227.1076	88	C15H15O2-
229.1233	144	C15H17O2-
245.1191	140	C15H17O3-
255.1025	120	C16H15O3-
259.0974	91	C15H15O4-
271.0985	66	C16H15O4-
273.1136	190	C16H17O4-
275.0915	45	C15H15O5-
281.1907	276	C20H25O-
289.1082	136	C16H17O5-
297.1871	53	C20H25O2-
297.2226	51	C21H29O-
299.2021	94	C20H27O2-
301.1458	37	C18H21O4-
303.0877	85	C16H15O6-
305.0677	98	C15H13O7-
307.1696	65	C21H23O2-
307.2063	241	C22H27O-
309.1848	108	C21H25O2-
317.1027	425	C17H17O6-
323.2014	161	C22H27O2-
325.2177	203	C22H29O2-
333.0989	94	C17H17O7-
341.2132	110	C22H29O3-
343.2284	89	C22H31O3-
346.1072	47	C18H18O7-
351.1609	107	C22H23O4-
359.078	207	C18H15O8-
361.0941	82	C18H17O8-
367.1925	123	C23H27O4-
369.2078	295	C23H29O4-
385.2019	256	C23H29O5-
401.1965	55	C23H29O6-
403.2135	65	C23H31O6-
413.1983	267	C24H29O6-
429.1922	355	C24H29O7-
431.2082	999	C24H31O7-
447.203	201	C24H31O8-
475.1982	828	C25H31O9-
519.1873	149	C26H31O11-
