Mass spectrum: Terbuthylazine-deschloro (PROBABLE); LC-ESI-QFT; MS2; CE: 30%; R=70000; [M+H]+
Name: Terbuthylazine-deschloro
Name: 4-(tert-butylamino)-6-(ethylamino)-1,3,5-triazin-2-ol
Formula: C9H17N5O
Exact mass: 211.1424
SMILES: CCNC1=NC(=NC(=N1)O)NC(C)(C)C
InChI: InChI=1S/C9H17N5O/c1-5-10-6-11-7(13-8(15)12-6)14-9(2,3)4/h5H2,1-4H3,(H3,10,11,12,13,14,15)
Instrument: Q Exactive Plus Orbitrap Thermo Scientific
Instrument type: LC-ESI-QFT
Ms type: MS2
Ion mode: POSITIVE
Ionization: ESI
Fragmentation mode: HCD
Collision energy: 30% (nominal)
Resolution: 70000
Column name: Waters UPLC BEH C18 1.7 um 2.1 mm x 100 mm with pre-column
Retention time: 9.75 min
Precursor m/z: 212.1502
Precursor type: [M+H]+
m/z	relative intensity
55.0182	73
55.0545	69
57.0701	126
67.0544	54
69.0084	498
69.0336	47
70.0652	39
71.0492	50
71.0604	158
79.0541	37
81.0698	45
83.0855	43
85.0508	32
86.0349	999
91.0543	52
93.07	49
96.0555	44
97.0397	522
97.0648	114
114.0662	635
128.0566	64
156.088	748
