Mass spectrum: Dibucaine; LC-ESI-ITFT; MS2; CE: 115%; R=15000; [M+H]+
Name: Dibucaine
Name: 2-butoxy-N-[2-(diethylamino)ethyl]quinoline-4-carboxamide
Formula: C20H29N3O2
Exact mass: 343.2260
SMILES: CCCCOC1=NC2=CC=CC=C2C(=C1)C(=O)NCCN(CC)CC
InChI: InChI=1S/C20H29N3O2/c1-4-7-14-25-19-15-17(16-10-8-9-11-18(16)22-19)20(24)21-12-13-23(5-2)6-3/h8-11,15H,4-7,12-14H2,1-3H3,(H,21,24)
Instrument: LTQ Orbitrap XL Thermo Scientific
Instrument type: LC-ESI-ITFT
Ms type: MS2
Ion mode: POSITIVE
Ionization: ESI
Fragmentation mode: HCD
Collision energy: 115% (nominal)
Resolution: 15000
Column name: Kinetex Evo C18 2.6 um 50 x 2.1 mm
Retention time: 8.735 min
Base peak: 344.233
Precursor m/z: 344.2333
Precursor type: [M+H]+
m/z	relative intensity	assigned
72.0806	11	C4H10N+
74.0963	5	C4H12N+
86.096	2	C5H12N+
89.0385	69	C7H5+
100.1122	4	C6H14N+
115.0543	4	C9H7+
116.0494	999	C8H6N+
117.057	4	C8H7N+
118.0651	2	C8H8N+
128.0495	12	C9H6N+
130.065	8	C9H8N+
132.0447	2	C8H6NO+
134.06	16	C8H8NO+
142.0656	2	C10H8N+
143.0364	2	C9H5NO+
143.0603	3	C9H7N2+
143.0729	3	C10H9N+
144.0443	67	C9H6NO+
145.0522	13	C9H7NO+
146.0599	4	C9H8NO+
153.0446	17	C10H5N2+
154.04	3	C9H4N3+
169.0073	2	C14H+
170.06	3	C11H8NO+
171.0553	18	C10H7N2O+
172.0394	4	C10H6NO2+
