Mass spectrum: Sulochrin; LC-ESI-ITFT; MS2; CE: 40%; R=7500; [M+H]+
Name: Sulochrin
Name: methyl 2-(2,6-dihydroxy-4-methylbenzoyl)-5-hydroxy-3-methoxybenzoate
Formula: C17H16O7
Exact mass: 332.0896
SMILES: CC1=CC(=C(C(=C1)O)C(=O)C2=C(C=C(C=C2OC)O)C(=O)OC)O
InChI: InChI=1S/C17H16O7/c1-8-4-11(19)15(12(20)5-8)16(21)14-10(17(22)24-3)6-9(18)7-13(14)23-2/h4-7,18-20H,1-3H3
Instrument: LTQ Orbitrap XL Thermo Scientific
Instrument type: LC-ESI-ITFT
Ms type: MS2
Ion mode: POSITIVE
Ionization: ESI
Fragmentation mode: HCD
Collision energy: 40 % (nominal)
Resolution: 7500
Column name: Hypersil GOLD C18 1.9 um 100 x 2.1 mm Thermo Fisher Scientific
Retention time: 15.120 min
Base peak: 209.0449
Precursor m/z: 333.0969
Precursor type: [M+H]+
Precursor intensity: 12161224.88794
m/z	relative intensity	assigned
139.0751	10	C8H11O2+
151.039	291	C8H7O3+
169.0496	62	C8H9O4+
183.065	34	C9H11O4+
209.0444	999	C10H9O5+
219.0288	211	C11H7O5+
237.0386	10	C11H9O6+
301.071	44	C16H13O6+
