Mass spectrum: Nylidrin; LC-ESI-ITFT; MS2; CE: 95%; R=15000; [M+H]+
Name: Nylidrin
Name: 4-[1-hydroxy-2-(4-phenylbutan-2-ylamino)propyl]phenol
Formula: C19H25NO2
Exact mass: 299.1885
SMILES: CC(CCC1=CC=CC=C1)NC(C)C(C2=CC=C(C=C2)O)O
InChI: InChI=1S/C19H25NO2/c1-14(8-9-16-6-4-3-5-7-16)20-15(2)19(22)17-10-12-18(21)13-11-17/h3-7,10-15,19-22H,8-9H2,1-2H3
Instrument: LTQ Orbitrap XL Thermo Scientific
Instrument type: LC-ESI-ITFT
Ms type: MS2
Ion mode: POSITIVE
Ionization: ESI
Fragmentation mode: HCD
Collision energy: 95% (nominal)
Resolution: 15000
Column name: Kinetex Evo C18 2.6 um 50 x 2.1 mm
Retention time: 6.871 min
Base peak: 300.1959
Precursor m/z: 300.1958
Precursor type: [M+H]+
m/z	relative intensity	assigned
55.0176	12	C3H3O+
56.0493	32	C3H6N+
57.0333	7	C3H5O+
65.0384	10	C5H5+
77.0385	16	C6H5+
79.0542	89	C6H7+
81.0699	7	C6H9+
91.0542	999	C7H7+
95.0491	11	C6H7O+
103.0542	62	C8H7+
105.0698	512	C8H9+
107.0491	53	C7H7O+
109.0648	21	C7H9O+
115.0542	37	C9H7+
117.0573	5	C8H7N+
131.0492	12	C9H7O+
132.0572	3	C9H8O+
133.0648	108	C9H9O+
134.0602	4	C8H8NO+
135.0678	61	C8H9NO+
143.0605	3	C9H7N2+
150.0913	27	C9H12NO+
