Mass spectrum: Amiloride; LC-ESI-QFT; MS2; CE: 40%; R=30000; [M+H]+
Name: Amiloride
Name: 3,5-Diamino-N-carbamimidoyl-6-chloropyrazine-2-carboxamide
Formula: C6H8ClN7O
Exact mass: 229.0479
SMILES: NC(=N)NC(=O)C1=NC(Cl)=C(N)N=C1N
InChI: InChI=1S/C6H8ClN7O/c7-2-4(9)13-3(8)1(12-2)5(15)14-6(10)11/h(H4,8,9,13)(H4,10,11,14,15)
Instrument: Orbitrap Fusion Tribrid Thermo Fisher Scientific
Instrument type: LC-ESI-QFT
Ms type: MS2
Ion mode: POSITIVE
Ionization: ESI
Fragmentation mode: HCD
Collision energy: 40% (nominal)
Resolution: 30000
Precursor m/z: 230.0552
Precursor type: [M+H]+
m/z	relative intensity
60.0558	999
61.0398	3
61.9794	2
63.995	11
86.0351	22
88.9903	8
100.9903	12
108.0432	30
116.0012	345
125.046	16
143.012	131
145.0276	2
161.0226	503
170.0229	2
171.0069	931
189.0174	204
230.0552	5
