Mass spectrum: Metamitron-metabolite (TENTATIVE); LC-ESI-QFT; MS2; CE: 42%; R=70000; [M+H]+
Name: Metamitron-metabolite
Name: 3-methyl-5-phenyl-4H-1,2,4-triazole
Formula: C9H9N3
Exact mass: 159.0789
SMILES: CC1=NN=C(N1)C2=CC=CC=C2
InChI: InChI=1S/C9H9N3/c1-7-10-9(12-11-7)8-5-3-2-4-6-8/h2-6H,1H3,(H,10,11,12)
Instrument: Q Exactive Plus Orbitrap Thermo Scientific
Instrument type: LC-ESI-QFT
Ms type: MS2
Ion mode: POSITIVE
Ionization: ESI
Fragmentation mode: HCD
Collision energy: 42% (nominal) with stepped collision energies 30% and 55%
Resolution: 70000
Column name: Phenomenex Synergi Polar-RP 2.5 um 100 mm x 3 mm with pre-column
Retention time: 8.99 min
Precursor m/z: 160.0867
Precursor type: [M+H]+
m/z	relative intensity
55.0545	2
57.045	5
57.0701	2
58.0654	2
67.0542	1
69.0699	2
71.049	3
77.0387	2
81.07	11
85.0647	4
91.054	5
92.0493	5
95.0491	2
97.0645	2
99.0804	4
104.0495	28
105.0334	2
115.0146	31
118.0648	2
119.0604	27
123.0803	1
129.0302	37
160.0869	999
