Mass spectrum: (R)Semivioxanthin; LC-ESI-ITFT; MS2; CE: 60%; R=7500; [M+H]+
Name: (R)Semivioxanthin
Name: 3-Methyl-7-methoxy-9,10-dihydroxy-3,4-dihydro-1H-naphtho[2,3-c]pyran-1-one
Name: 9,10-dihydroxy-7-methoxy-3-methyl-3,4-dihydrobenzo[g]isochromen-1-one
Formula: C15H14O5
Exact mass: 274.0841
SMILES: CC1CC2=CC3=CC(=CC(=C3C(=C2C(=O)O1)O)O)OC
InChI: InChI=1S/C15H14O5/c1-7-3-8-4-9-5-10(19-2)6-11(16)12(9)14(17)13(8)15(18)20-7/h4-7,16-17H,3H2,1-2H3
Instrument: LTQ Orbitrap XL Thermo Scientific
Instrument type: LC-ESI-ITFT
Ms type: MS2
Ion mode: POSITIVE
Ionization: ESI
Fragmentation mode: HCD
Collision energy: 60 % (nominal)
Resolution: 7500
Column name: Hypersil GOLD C18 1.9 um 100 x 2.1 mm Thermo Fisher Scientific
Retention time: 21.708 min
Base peak: 275.0918
Precursor m/z: 275.0914
Precursor type: [M+H]+
Precursor intensity: 3798762.154297
m/z	relative intensity	assigned
183.0805	123	C13H11O+
190.0628	18	C11H10O3+
197.0599	148	C13H9O2+
198.0672	46	C13H10O2+
201.0912	107	C13H13O2+
205.0864	29	C12H13O3+
211.0755	104	C14H11O2+
214.0625	84	C13H10O3+
225.0551	47	C14H9O3+
226.0623	27	C14H10O3+
229.0859	621	C14H13O3+
239.0697	19	C15H11O3+
242.0572	94	C14H10O4+
247.0953	15	C14H15O4+
257.0808	999	C15H13O4+
275.0916	22	C15H15O5+
