Mass spectrum: Chlorotoluron-OH-desmethyl (TENTATIVE); LC-ESI-QFT; MS2; CE: 30%; R=70000; [M+H]+
Name: Chlorotoluron-OH-desmethyl
Formula: C9H11ClN2O2
Exact mass: 214.0499
SMILES: C(*)C1=C(c(*)=C(C(*)=C(*)1)NC(=O)N(C(*)))Cl  * = [OH (n=1) & H (n=4)]
Instrument: Q Exactive Plus Orbitrap Thermo Scientific
Instrument type: LC-ESI-QFT
Ms type: MS2
Ion mode: POSITIVE
Ionization: ESI
Fragmentation mode: HCD
Collision energy: 30% (nominal)
Resolution: 70000
Column name: Waters UPLC BEH C18 1.7 um 2.1 mm x 100 mm with pre-column
Retention time: 8.45 min
Precursor m/z: 215.0577
Precursor type: [M+H]+
m/z	relative intensity
51.0234	1
58.029	72
65.0387	6
66.0466	3
82.9696	1
86.9996	1
91.0542	1
92.0495	17
93.0573	999
95.049	2
95.0856	1
101.0153	2
104.0495	4
105.0447	1
105.0572	5
110.06	2
110.9992	1
113.0152	4
122.9996	24
126.0106	9
127.0182	1
128.0261	569
129.0103	2
139.0057	3
140.0261	162
154.0055	4
158.0367	74
166.0057	3
169.0158	1
184.0158	1
185.0476	3
