Mass spectrum: Dibucaine; LC-ESI-ITFT; MS2; CE: 90%; R=15000; [M+H]+
Name: Dibucaine
Name: 2-butoxy-N-[2-(diethylamino)ethyl]quinoline-4-carboxamide
Formula: C20H29N3O2
Exact mass: 343.2260
SMILES: CCCCOC1=NC2=CC=CC=C2C(=C1)C(=O)NCCN(CC)CC
InChI: InChI=1S/C20H29N3O2/c1-4-7-14-25-19-15-17(16-10-8-9-11-18(16)22-19)20(24)21-12-13-23(5-2)6-3/h8-11,15H,4-7,12-14H2,1-3H3,(H,21,24)
Instrument: LTQ Orbitrap XL Thermo Scientific
Instrument type: LC-ESI-ITFT
Ms type: MS2
Ion mode: POSITIVE
Ionization: ESI
Fragmentation mode: HCD
Collision energy: 90% (nominal)
Resolution: 15000
Column name: Kinetex Evo C18 2.6 um 50 x 2.1 mm
Retention time: 8.748 min
Base peak: 344.2335
Precursor m/z: 344.2333
Precursor type: [M+H]+
m/z	relative intensity	assigned
70.0285	2	C3H4NO+
72.0806	23	C4H10N+
74.0963	17	C4H12N+
86.0963	3	C5H12N+
100.1121	31	C6H14N+
116.0494	999	C8H6N+
128.0494	12	C9H6N+
130.065	12	C9H8N+
132.0444	4	C8H6NO+
143.0605	6	C9H7N2+
143.0732	3	C10H9N+
144.0444	373	C9H6NO+
145.0521	17	C9H7NO+
146.06	13	C9H8NO+
153.0447	11	C10H5N2+
156.0445	2	C10H6NO+
157.0886	3	C11H11N+
158.0599	7	C10H8NO+
159.0678	2	C10H9NO+
160.0755	5	C10H10NO+
167.0727	3	C12H9N+
169.0762	4	C11H9N2+
170.0602	5	C11H8NO+
171.0552	88	C10H7N2O+
172.0392	147	C10H6NO2+
176.0704	2	C10H10NO2+
182.096	2	C13H12N+
183.1048	3	C13H13N+
185.0701	1	C11H9N2O+
186.0784	2	C11H10N2O+
187.0866	14	C11H11N2O+
200.1069	5	C13H14NO+
215.0815	79	C12H11N2O2+
