Mass spectrum: Amiloride; LC-ESI-QFT; MS2; CE: 50%; R=17500; [M+H]+
Name: Amiloride
Name: 3,5-Diamino-N-carbamimidoyl-6-chloropyrazine-2-carboxamide
Formula: C6H8ClN7O
Exact mass: 229.0479
SMILES: NC(=N)NC(=O)C1=NC(Cl)=C(N)N=C1N
InChI: InChI=1S/C6H8ClN7O/c7-2-4(9)13-3(8)1(12-2)5(15)14-6(10)11/h(H4,8,9,13)(H4,10,11,14,15)
Instrument: Q Exactive Thermo Fisher Scientific
Instrument type: LC-ESI-QFT
Ms type: MS2
Ion mode: POSITIVE
Ionization: ESI
Fragmentation mode: HCD
Collision energy: 50% (nominal)
Resolution: 17500
Column name: Hypersil GOLD 1.9 um 2.1 x 100 mm Thermo Fisher Scientific
Precursor m/z: 230.0552
Precursor type: [M+H]+
m/z	relative intensity
60.0565	999
61.0405	3
61.9801	3
63.9957	11
86.0356	25
88.9908	9
91.0064	4
100.9905	13
108.0436	25
116.0013	292
125.046	8
143.012	31
145.0276	1
161.0224	549
170.0226	1
171.0068	535
189.0175	780
230.0552	11
