Mass spectrum: Aspochalasin 1; LC-ESI-ITFT; MS2; CE: 50%; R=7500; [M+H]+
Name: Aspochalasin 1
Formula: C24H35NO5
Exact mass: 417.2515
SMILES: CC(C)C[C@@H]1NC(=O)[C@]23OC(=O)C=C[C@@H](O)[C@@H](O)CCC(C)=C[C@H]3C=C(C)[C@@H](C)[C@@H]12
InChI: InChI=1S/C24H35NO5/c1-13(2)10-18-22-16(5)15(4)12-17-11-14(3)6-7-19(26)20(27)8-9-21(28)30-24(17,22)23(29)25-18/h8-9,11-13,16-20,22,26-27H,6-7,10H2,1-5H3,(H,25,29)/t16-,17+,18+,19+,20-,22+,24-/m1/s1
Instrument: LTQ Orbitrap XL Thermo Scientific
Instrument type: LC-ESI-ITFT
Ms type: MS2
Ion mode: POSITIVE
Ionization: ESI
Fragmentation mode: HCD
Collision energy: 50 % (nominal)
Resolution: 7500
Column name: Hypersil GOLD C18 1.9 um 100 x 2.1 mm Thermo Fisher Scientific
Retention time: 23.512 min
Base peak: 835.5124
Precursor m/z: 418.2588
Precursor type: [M+H]+
Precursor intensity: 8816957.579102
m/z	relative intensity	assigned
81.07	16	C6H9+
86.0964	193	C5H12N+
91.0545	21	C7H7+
93.0699	73	C7H9+
95.0859	20	C7H11+
105.0697	35	C8H9+
107.0857	79	C8H11+
117.0701	22	C9H9+
119.0856	819	C9H11+
121.0649	209	C8H9O+
121.1015	51	C9H13+
131.0856	100	C10H11+
133.0649	35	C9H9O+
133.1014	119	C10H13+
135.0802	26	C9H11O+
138.0911	75	C8H12NO+
145.1016	73	C11H13+
147.0804	63	C10H11O+
147.117	195	C11H15+
148.1121	48	C10H14N+
149.0964	87	C10H13O+
157.1017	68	C12H13+
159.0808	34	C11H11O+
159.1168	217	C12H15+
161.0968	14	C11H13O+
161.1326	190	C12H17+
162.0916	64	C10H12NO+
163.0756	21	C10H11O2+
167.0703	17	C9H11O3+
167.0861	12	C13H11+
169.1019	27	C13H13+
171.1165	51	C13H15+
173.0958	37	C12H13O+
173.1325	312	C13H17+
175.1482	129	C13H19+
176.1072	209	C11H14NO+
178.1592	53	C12H20N+
181.1013	20	C14H13+
183.117	41	C14H15+
185.1326	302	C14H17+
186.1045	40	C13H14O+
186.1395	14	C14H18+
187.1118	80	C13H15O+
187.1479	75	C14H19+
188.1201	16	C13H16O+
190.1229	14	C12H16NO+
195.08	16	C14H11O+
197.1317	18	C15H17+
199.1118	27	C14H15O+
199.148	42	C15H19+
201.1276	192	C14H17O+
203.1429	210	C14H19O+
205.1594	27	C14H21O+
206.1542	59	C13H20NO+
207.1619	14	C13H21NO+
209.1321	52	C16H17+
213.1276	40	C15H17O+
213.1633	27	C16H21+
214.1232	39	C14H16NO+
215.1427	47	C15H19O+
217.1596	22	C15H21O+
218.154	85	C14H20NO+
220.1698	122	C14H22NO+
223.1481	99	C17H19+
232.1697	999	C15H22NO+
233.1325	28	C18H17+
241.1594	35	C17H21O+
251.1433	242	C18H19O+
258.1859	28	C17H24NO+
260.2011	170	C17H26NO+
269.1537	113	C18H21O2+
271.1924	85	C18H25NO+
272.2014	119	C18H26NO+
273.2222	64	C19H29O+
274.2164	43	C18H28NO+
279.1386	34	C19H19O2+
286.2169	184	C19H28NO+
287.1639	58	C18H23O3+
288.2319	53	C19H30NO+
297.1495	27	C19H21O3+
298.2166	121	C20H28NO+
300.2327	34	C20H30NO+
316.2274	628	C20H30NO2+
336.233	26	C23H30NO+
364.2284	65	C24H30NO2+
382.2381	48	C24H32NO3+
418.2607	25	C24H36NO5+
