Mass spectrum: Antipyrine; LC-ESI-ITFT; MS2; CE: 160%; R=15000; [M+H]+
Name: Antipyrine
Name: 1,5-dimethyl-2-phenylpyrazol-3-one
Formula: C11H12N2O
Exact mass: 188.0950
SMILES: CC1=CC(=O)N(N1C)C2=CC=CC=C2
InChI: InChI=1S/C11H12N2O/c1-9-8-11(14)13(12(9)2)10-6-4-3-5-7-10/h3-8H,1-2H3
Instrument: LTQ Orbitrap XL Thermo Scientific
Instrument type: LC-ESI-ITFT
Ms type: MS2
Ion mode: POSITIVE
Ionization: ESI
Fragmentation mode: HCD
Collision energy: 160% (nominal)
Resolution: 15000
Column name: Kinetex Evo C18 2.6 um 50 x 2.1 mm
Retention time: 5.555 min
Base peak: 189.1023
Precursor m/z: 189.1022
Precursor type: [M+H]+
m/z	relative intensity	assigned
54.0336	28	C3H4N+
58.0649	101	C3H8N+
65.0384	237	C5H5+
68.0493	24	C4H6N+
77.0385	999	C6H5+
78.0464	88	C6H6+
79.0417	17	C5H5N+
79.0542	103	C6H7+
81.0447	33	C4H5N2+
82.0288	25	C4H4NO+
89.0386	57	C7H5+
90.0465	59	C7H6+
91.0542	223	C7H7+
92.0493	40	C6H6N+
93.0573	31	C6H7N+
95.0491	212	C6H7O+
95.0605	25	C5H7N2+
98.06	22	C5H8NO+
102.0464	66	C8H6+
103.0542	77	C8H7+
104.0495	264	C7H6N+
105.0447	887	C6H5N2+
106.0651	110	C7H8N+
115.0542	170	C9H7+
117.0573	82	C8H7N+
118.0651	53	C8H8N+
128.0495	32	C9H6N+
130.0651	171	C9H8N+
131.0602	159	C8H7N2+
132.0682	22	C8H8N2+
144.0803	17	C10H10N+
145.0759	43	C9H9N2+
