Mass spectrum: Deoxynivalenol; LC-ESI-ITFT; MS2; CE: 50%; R=7500; [M+H]+
Name: Deoxynivalenol
Name: Vomitoxin
Name: 3,10-dihydroxy-2-(hydroxymethyl)-1,5-dimethylspiro[8-oxatricyclo[7.2.1.02,7]dodec-5-ene-12,2`-oxirane]-4-one
Formula: C15H20O6
Exact mass: 296.1260
SMILES: CC1=CC2C(C(C1=O)O)(C3(CC(C(C34CO4)O2)O)C)CO
InChI: InChI=1S/C15H20O6/c1-7-3-9-14(5-16,11(19)10(7)18)13(2)4-8(17)12(21-9)15(13)6-20-15/h3,8-9,11-12,16-17,19H,4-6H2,1-2H3
Instrument: LTQ Orbitrap XL Thermo Scientific
Instrument type: LC-ESI-ITFT
Ms type: MS2
Ion mode: POSITIVE
Ionization: ESI
Fragmentation mode: HCD
Collision energy: 50 % (nominal)
Resolution: 7500
Column name: Hypersil GOLD C18 1.9 um 100 x 2.1 mm Thermo Fisher Scientific
Retention time: 5.939 min
Base peak: 297.1327
Precursor m/z: 297.1333
Precursor type: [M+H]+
Precursor intensity: 2931854.051514
m/z	relative intensity	assigned
105.0701	80	C8H9+
109.0643	83	C7H9O+
121.0645	106	C8H9O+
125.0595	368	C7H9O2+
137.0594	232	C8H9O2+
143.085	78	C11H11+
157.1006	254	C12H13+
159.1167	99	C12H15+
161.0594	253	C10H9O2+
161.0958	266	C11H13O+
163.0749	149	C10H11O2+
173.0957	296	C12H13O+
175.075	526	C11H11O2+
175.1124	206	C12H15O+
177.0906	329	C11H13O2+
185.0952	227	C13H13O+
187.1112	321	C13H15O+
189.0905	448	C12H13O2+
201.0912	291	C13H13O2+
203.0705	61	C12H11O3+
203.106	999	C13H15O2+
213.0914	210	C14H13O2+
215.1062	111	C14H15O2+
219.1011	253	C13H15O3+
231.1008	635	C14H15O3+
249.1122	387	C14H17O4+
261.1127	177	C15H17O4+
279.1231	67	C15H19O5+
