Mass spectrum: Sulfamethoxazole; LC-ESI-ITFT; MS2; CE: 20%; R=7500; [M+H]+
Name: Sulfamethoxazole
Name: 4-Amino-N-(5-methyl-1,2-oxazol-3-yl)benzene-1-sulfonamide
Formula: C10H11N3O3S
Exact mass: 253.0521
SMILES: CC1=CC(NS(=O)(=O)C2=CC=C(N)C=C2)=NO1
InChI: InChI=1S/C10H11N3O3S/c1-7-6-10(12-16-7)13-17(14,15)9-4-2-8(11)3-5-9/h2-6H,11H2,1H3,(H,12,13)
Instrument: LTQ Orbitrap XL Thermo Fisher Scientific
Instrument type: LC-ESI-ITFT
Ms type: MS2
Ion mode: POSITIVE
Ionization: ESI
Fragmentation mode: HCD
Collision energy: 20% (nominal)
Resolution: 7500
Column name: Hypersil GOLD C18 1.9 um 100 x 2.1 mm Thermo Fisher Scientific
Precursor m/z: 254.0594
Precursor type: [M+H]+
m/z	relative intensity
92.0491	7
93.0571	5
94.0649	2
99.0551	5
107.0603	2
108.0443	12
146.0712	3
147.079	15
148.0867	5
156.0112	86
160.0867	12
176.0281	1
188.0817	26
190.0974	20
194.038	9
254.0594	999
