Mass spectrum: Sulfamoxole; LC-ESI-QFT; MS2; CE: CE45; R=17500; [M+H]+
Name: Sulfamoxole
Name: 4-amino-N-(4,5-dimethyl-1,3-oxazol-2-yl)benzenesulfonamide
Formula: C11H13N3O3S
Exact mass: 267.0678
SMILES: CC1=C(C)N=C(NS(=O)(=O)C2=CC=C(N)C=C2)O1
InChI: InChI=1S/C11H13N3O3S/c1-7-8(2)17-11(13-7)14-18(15,16)10-5-3-9(12)4-6-10/h3-6H,12H2,1-2H3,(H,13,14)
Instrument: Q Exactive Thermo Fisher Scientific
Instrument type: LC-ESI-QFT
Ms type: MS2
Ion mode: POSITIVE
Ionization: ESI
Fragmentation mode: HCD
Collision energy: CE45
Resolution: 17500
Column name: Acquity UPLC BEH C18 1.7 um, 2.1 x 150 mm, Waters
Retention time: 13.974 min
Base peak: 223.0628
Precursor m/z: 268.075
Precursor type: [M+H]+
m/z	relative intensity	assigned
53.0025	21	C3HO+
53.0388	8	C4H5+
54.0342	73	C3H4N+
55.0181	5	C3H3O+
55.0549	5	C4H7+
65.0387	999	C5H5+
68.0495	56	C4H6N+
69.0336	5	C4H5O+
69.0575	38	C4H7N+
70.0652	295	C4H8N+
79.0183	5	C5H3O+
80.0497	263	C5H6N+
83.0489	9	C5H7O+
83.0604	5	C4H7N2+
92.0498	617	C6H6N+
93.0575	6	C6H7N+
96.0441	10	C5H6NO+
108.0438	575	C6H6NO+
110.0596	205	C6H8NO+
111.0553	58	C5H7N2O+
112.0636	32	C5H8N2O+
113.0708	236	C5H9N2O+
140.0169	31	C6H6NOS+
