Mass spectrum: Dixyrazine; LC-ESI-ITFT; MS2; CE: 60%; R=15000; [M+H]+
Name: Dixyrazine
Name: 2-[2-[4-(2-methyl-3-phenothiazin-10-ylpropyl)piperazin-1-yl]ethoxy]ethanol
Formula: C24H33N3O2S
Exact mass: 427.2293
SMILES: CC(CN1CCN(CC1)CCOCCO)CN2C3=CC=CC=C3SC4=CC=CC=C42
InChI: InChI=1S/C24H33N3O2S/c1-20(18-26-12-10-25(11-13-26)14-16-29-17-15-28)19-27-21-6-2-4-8-23(21)30-24-9-5-3-7-22(24)27/h2-9,20,28H,10-19H2,1H3
Instrument: LTQ Orbitrap XL Thermo Scientific
Instrument type: LC-ESI-ITFT
Ms type: MS2
Ion mode: POSITIVE
Ionization: ESI
Fragmentation mode: HCD
Collision energy: 60% (nominal)
Resolution: 15000
Column name: Kinetex Evo C18 2.6 um 50 x 2.1 mm
Retention time: 8.968 min
Base peak: 428.2362
Precursor m/z: 428.2366
Precursor type: [M+H]+
m/z	relative intensity	assigned
70.0649	206	C4H8N+
82.065	38	C5H8N+
84.0807	38	C5H10N+
87.044	176	C4H7O2+
97.076	277	C5H9N2+
98.0838	999	C5H10N2+
98.0964	61	C6H12N+
99.0916	63	C5H11N2+
100.0758	12	C5H10NO+
100.1118	8	C6H14N+
101.1072	696	C5H13N2+
110.0838	19	C6H10N2+
112.0993	28	C6H12N2+
112.112	34	C7H14N+
113.1072	15	C6H13N2+
118.0862	24	C5H12NO2+
125.1072	155	C7H13N2+
127.1235	5	C7H15N2+
132.1018	7	C6H14NO2+
140.1306	33	C8H16N2+
144.1018	121	C7H14NO2+
155.154	18	C9H19N2+
172.1204	176	C8H16N2O2+
180.0806	267	C13H10N+
187.144	501	C9H19N2O2+
198.0378	10	C12H8NS+
199.0447	30	C12H9NS+
212.0527	568	C13H10NS+
220.1127	9	C16H14N+
229.1909	273	C12H25N2O2+
254.0996	15	C16H16NS+
