Mass spectrum: Aspochalasin 1; LC-ESI-ITFT; MS2; CE: 30%; R=7500; [M+H]+
Name: Aspochalasin 1
Formula: C24H35NO5
Exact mass: 417.2515
SMILES: CC(C)C[C@@H]1NC(=O)[C@]23OC(=O)C=C[C@@H](O)[C@@H](O)CCC(C)=C[C@H]3C=C(C)[C@@H](C)[C@@H]12
InChI: InChI=1S/C24H35NO5/c1-13(2)10-18-22-16(5)15(4)12-17-11-14(3)6-7-19(26)20(27)8-9-21(28)30-24(17,22)23(29)25-18/h8-9,11-13,16-20,22,26-27H,6-7,10H2,1-5H3,(H,25,29)/t16-,17+,18+,19+,20-,22+,24-/m1/s1
Instrument: LTQ Orbitrap XL Thermo Scientific
Instrument type: LC-ESI-ITFT
Ms type: MS2
Ion mode: POSITIVE
Ionization: ESI
Fragmentation mode: HCD
Collision energy: 30 % (nominal)
Resolution: 7500
Column name: Hypersil GOLD C18 1.9 um 100 x 2.1 mm Thermo Fisher Scientific
Retention time: 23.512 min
Base peak: 835.5124
Precursor m/z: 418.2588
Precursor type: [M+H]+
Precursor intensity: 8816957.579102
m/z	relative intensity	assigned
86.0963	12	C5H12N+
119.0851	9	C9H11+
121.0649	10	C8H9O+
161.1322	11	C12H17+
162.0917	8	C10H12NO+
173.1326	7	C13H17+
175.1475	8	C13H19+
176.1068	10	C11H14NO+
178.1593	5	C12H20N+
206.1537	18	C13H20NO+
218.1537	27	C14H20NO+
220.1699	18	C14H22NO+
223.1476	5	C17H19+
232.1695	145	C15H22NO+
251.1426	15	C18H19O+
260.2013	25	C17H26NO+
269.1537	13	C18H21O2+
271.1924	9	C18H25NO+
272.201	15	C18H26NO+
273.2213	25	C19H29O+
286.2164	51	C19H28NO+
287.1641	15	C18H23O3+
288.2319	29	C19H30NO+
297.1493	16	C19H21O3+
298.2167	19	C20H28NO+
300.2331	8	C20H30NO+
316.2269	718	C20H30NO2+
320.2381	9	C23H30N+
336.2312	12	C23H30NO+
339.2316	4	C23H31O2+
356.2581	39	C23H34NO2+
364.2274	84	C24H30NO2+
372.252	4	C23H34NO3+
382.2379	239	C24H32NO3+
400.2483	308	C24H34NO4+
418.2585	999	C24H36NO5+
