Mass spectrum: Dixyrazine; LC-ESI-ITFT; MS2; CE: 150%; R=15000; [M+H]+
Name: Dixyrazine
Name: 2-[2-[4-(2-methyl-3-phenothiazin-10-ylpropyl)piperazin-1-yl]ethoxy]ethanol
Formula: C24H33N3O2S
Exact mass: 427.2293
SMILES: CC(CN1CCN(CC1)CCOCCO)CN2C3=CC=CC=C3SC4=CC=CC=C42
InChI: InChI=1S/C24H33N3O2S/c1-20(18-26-12-10-25(11-13-26)14-16-29-17-15-28)19-27-21-6-2-4-8-23(21)30-24-9-5-3-7-22(24)27/h2-9,20,28H,10-19H2,1H3
Instrument: LTQ Orbitrap XL Thermo Scientific
Instrument type: LC-ESI-ITFT
Ms type: MS2
Ion mode: POSITIVE
Ionization: ESI
Fragmentation mode: HCD
Collision energy: 150% (nominal)
Resolution: 15000
Column name: Kinetex Evo C18 2.6 um 50 x 2.1 mm
Retention time: 8.961 min
Base peak: 428.2364
Precursor m/z: 428.2366
Precursor type: [M+H]+
m/z	relative intensity	assigned
97.0758	283	C5H9N2+
98.0837	203	C5H10N2+
151.0542	331	C12H7+
152.062	999	C12H8+
178.0651	272	C13H8N+
179.0728	157	C13H9N+
180.0809	562	C13H10N+
