Mass spectrum: Dixyrazine ; ESI-QTOF; MS2; CE: 45eV; R=15000; [M+H]+
Name: Dixyrazine
Name: 2-(2-{4-[2-Methyl-3-(10H-phenothiazin-10-yl)propyl]piperazin-1-yl}ethoxy)ethan-1-ol
Formula: C24H33N3O2S
Exact mass: 427.2293
SMILES: CC(CN1CCN(CCOCCO)CC1)CN1C2=CC=CC=C2SC2=CC=CC=C12
InChI: InChI=1S/C24H33N3O2S/c1-20(18-26-12-10-25(11-13-26)14-16-29-17-15-28)19-27-21-6-2-4-8-23(21)30-24-9-5-3-7-22(24)27/h2-9,20,28H,10-19H2,1H3
Instrument: TripleTOF 5600+SCIEX
Instrument type: ESI-QTOF
Ms type: MS2
Ion mode: POSITIVE
Ionization: ESI
Fragmentation mode: CID
Collision energy: 45 eV
Resolution: 15000
Precursor m/z: 428.2367
Precursor type: [M+H]+
m/z	relative intensity
56.0521	4
57.0597	1
58.0675	10
59.0514	1
68.0513	1
69.0353	1
70.067	31
72.0822	1
73.0299	1
81.0711	1
82.0663	8
83.0615	5
84.0819	5
86.0611	1
87.0451	33
94.0659	2
96.0815	1
97.0768	95
98.0849	388
99.0922	24
100.0763	4
101.1082	389
106.0656	1
108.0814	1
109.0763	1
110.0842	14
111.0919	3
112.1121	9
113.1077	4
114.0917	1
118.0864	5
124.0217	2
125.1076	103
127.123	3
129.0699	1
130.0862	4
131.0856	2
132.1019	3
136.0215	1
138.1151	1
139.1229	3
140.1307	21
141.1384	1
142.0861	1
143.1177	1
144.1019	45
146.1174	2
150.046	1
151.0541	3
152.0619	4
153.0693	1
155.154	9
156.1017	1
158.1174	1
159.1129	1
166.0649	1
167.0728	2
168.0805	1
169.1696	1
171.1126	1
172.1204	109
173.1285	1
175.144	1
178.0648	5
179.0727	16
180.0807	222
181.0882	1
184.0338	1
185.1282	2
187.1443	726
193.0886	1
194.0964	1
198.0371	6
199.0449	15
200.0527	1
206.0964	4
211.0448	1
212.053	510
213.1597	1
214.0684	1
215.1755	1
220.112	7
221.1198	12
222.1274	1
224.0527	2
225.0606	2
226.0683	1
229.1916	999
238.0686	2
239.0763	2
240.0843	1
252.0842	1
253.0921	1
254.1	25
380.2334	1
428.2367	42
