Mass spectrum: Dothiepin; ESI-QTOF; MS2; CE: 30eV; R=15000; [M+H]+
Name: Dothiepin
Name: 3-(Dibenzo[b,e]thiepin-11(6H)-ylidene)-N,N-dimethylpropan-1-amine
Formula: C19H21NS
Exact mass: 295.1395
SMILES: CN(C)CCC=C1C2=CC=CC=C2CSC2=C1C=CC=C2
InChI: InChI=1S/C19H21NS/c1-20(2)13-7-11-17-16-9-4-3-8-15(16)14-21-19-12-6-5-10-18(17)19/h3-6,8-12H,7,13-14H2,1-2H3
Instrument: TripleTOF 5600+SCIEX
Instrument type: ESI-QTOF
Ms type: MS2
Ion mode: POSITIVE
Ionization: ESI
Fragmentation mode: CID
Collision energy: 30 eV
Resolution: 15000
Precursor m/z: 296.1468
Precursor type: [M+H]+
m/z	relative intensity
58.0675	91
58.9972	1
65.0407	1
70.0668	1
72.0825	1
73.0122	2
84.082	9
85.0899	1
91.0552	72
103.055	3
105.0705	3
115.0547	52
116.0624	1
117.0705	254
119.086	2
121.0108	2
123.0268	114
127.0546	1
128.0624	6
129.0701	23
131.086	2
135.0266	16
137.0422	3
139.0547	1
141.0702	41
142.078	33
143.0858	2
147.0267	214
149.0418	1
150.0468	1
151.0548	1
152.0624	3
153.0701	1
159.0266	4
160.0346	1
161.0421	2
163.0547	1
164.0623	1
165.0703	53
166.077	1
167.086	2
171.0266	1
172.0344	1
173.0422	53
175.0563	1
176.0624	3
177.0706	1
178.0781	89
179.0859	34
181.1014	2
184.0344	1
185.0418	1
186.1281	2
187.0544	1
189.0704	8
190.078	6
191.086	120
192.0938	96
193.1014	1
197.0423	4
199.0573	1
200.0626	3
201.0703	4
202.0782	79
203.086	203
204.0939	25
205.1017	16
206.1095	1
207.1171	1
209.0425	226
210.0503	82
211.0581	13
213.0717	1
215.086	16
216.0941	9
217.1019	260
218.1097	904
219.1175	2
220.1258	1
221.0425	166
222.0503	264
223.0582	999
224.0659	2
225.0739	572
232.1253	1
234.0504	15
235.0583	33
236.066	171
239.0898	1
249.074	24
251.0897	372
253.1054	14
296.1468	787
