Mass spectrum: Antipyrine; LC-ESI-ITFT; MS2; CE: 165%; R=15000; [M+H]+
Name: Antipyrine
Name: 1,5-dimethyl-2-phenylpyrazol-3-one
Formula: C11H12N2O
Exact mass: 188.0950
SMILES: CC1=CC(=O)N(N1C)C2=CC=CC=C2
InChI: InChI=1S/C11H12N2O/c1-9-8-11(14)13(12(9)2)10-6-4-3-5-7-10/h3-8H,1-2H3
Instrument: LTQ Orbitrap XL Thermo Scientific
Instrument type: LC-ESI-ITFT
Ms type: MS2
Ion mode: POSITIVE
Ionization: ESI
Fragmentation mode: HCD
Collision energy: 165% (nominal)
Resolution: 15000
Column name: Kinetex Evo C18 2.6 um 50 x 2.1 mm
Retention time: 5.733 min
Base peak: 189.1023
Precursor m/z: 189.1022
Precursor type: [M+H]+
m/z	relative intensity	assigned
53.0384	11	C4H5+
55.0414	6	C3H5N+
56.0492	948	C3H6N+
58.0649	88	C3H8N+
65.0384	235	C5H5+
66.0461	10	C5H6+
67.0177	11	C4H3O+
68.0494	17	C4H6N+
77.0385	999	C6H5+
78.0339	9	C5H4N+
78.0463	96	C6H6+
79.0542	80	C6H7+
80.0496	16	C5H6N+
81.0448	30	C4H5N2+
82.0287	24	C4H4NO+
83.0604	9	C4H7N2+
89.0386	67	C7H5+
90.034	10	C6H4N+
90.0465	51	C7H6+
91.0543	209	C7H7+
92.0495	33	C6H6N+
93.0573	32	C6H7N+
95.0492	220	C6H7O+
95.0605	30	C5H7N2+
98.06	12	C5H8NO+
102.0465	64	C8H6+
103.0417	9	C7H5N+
103.0543	93	C8H7+
104.0495	257	C7H6N+
105.0448	838	C6H5N2+
106.0652	81	C7H8N+
115.0543	186	C9H7+
116.0495	10	C8H6N+
116.0625	15	C9H8+
117.0574	63	C8H7N+
118.0651	49	C8H8N+
128.0496	39	C9H6N+
129.0446	15	C8H5N2+
130.0652	152	C9H8N+
131.0604	143	C8H7N2+
132.0683	25	C8H8N2+
144.0807	12	C10H10N+
145.0762	37	C9H9N2+
