Mass spectrum: Pendimethalin-diOH-desaturated (TENTATIVE); LC-ESI-QFT; MS2; CE: 55%; R=70000; [M+H]+
Name: Pendimethalin-diOH-desaturated
Formula: C13H17N3O6
Exact mass: 311.1098
SMILES: C(*)=C(*)C(C(*)C(*))NC1=C(C(*)=C(C(=C1[N+](=O)[O-])C(*))C(*))[N+](=O)[O-] *=[OH (n=2) & H (n=5)]
Instrument: Q Exactive Plus Orbitrap Thermo Scientific
Instrument type: LC-ESI-QFT
Ms type: MS2
Ion mode: POSITIVE
Ionization: ESI
Fragmentation mode: HCD
Collision energy: 55% (nominal)
Resolution: 70000
Column name: Waters UPLC BEH C18 1.7 um 2.1 mm x 100 mm with pre-column
Retention time: 13.64 min
Precursor m/z: 312.1176
Precursor type: [M+H]+
m/z	relative intensity
55.0545	5
69.0448	999
79.0542	8
81.07	9
91.0542	7
