Mass spectrum: Cyclopenin; LC-ESI-ITFT; MS2; CE: 15%; R=7500; [M+H]+
Name: Cyclopenin
Name: 4-methyl-3`-phenylspiro[1H-1,4-benzodiazepine-3,2`-oxirane]-2,5-dione
Formula: C17H14N2O3
Exact mass: 294.1004
SMILES: CN1C(=O)C2=CC=CC=C2NC(=O)C13C(O3)C4=CC=CC=C4
InChI: InChI=1S/C17H14N2O3/c1-19-15(20)12-9-5-6-10-13(12)18-16(21)17(19)14(22-17)11-7-3-2-4-8-11/h2-10,14H,1H3,(H,18,21)
Instrument: LTQ Orbitrap XL Thermo Scientific
Instrument type: LC-ESI-ITFT
Ms type: MS2
Ion mode: POSITIVE
Ionization: ESI
Fragmentation mode: HCD
Collision energy: 15 % (nominal)
Resolution: 7500
Column name: Hypersil GOLD C18 1.9 um 100 x 2.1 mm Thermo Fisher Scientific
Retention time: 15.046 min
Base peak: 295.1086
Precursor m/z: 295.1077
Precursor type: [M+H]+
Precursor intensity: 25511948.48047
m/z	relative intensity	assigned
120.0446	42	C7H6NO+
120.081	5	C8H10N+
132.0447	1	C8H6NO+
132.081	5	C9H10N+
146.0239	46	C8H4NO2+
161.0717	2	C9H9N2O+
177.0661	458	C9H9N2O2+
182.0966	9	C13H12N+
208.0761	2	C14H10NO+
210.0919	18	C14H12NO+
223.1234	9	C15H15N2+
236.0711	28	C15H10NO2+
238.0868	16	C15H12NO2+
239.1184	38	C15H15N2O+
251.1183	17	C16H15N2O+
264.0659	52	C16H10NO3+
267.1134	18	C16H15N2O2+
277.0971	1	C17H13N2O2+
295.1082	999	C17H15N2O3+
