Mass spectrum: Nylidrin; LC-ESI-ITFT; MS2; CE: 60%; R=15000; [M+H]+
Name: Nylidrin
Name: 4-[1-hydroxy-2-(4-phenylbutan-2-ylamino)propyl]phenol
Formula: C19H25NO2
Exact mass: 299.1885
SMILES: CC(CCC1=CC=CC=C1)NC(C)C(C2=CC=C(C=C2)O)O
InChI: InChI=1S/C19H25NO2/c1-14(8-9-16-6-4-3-5-7-16)20-15(2)19(22)17-10-12-18(21)13-11-17/h3-7,10-15,19-22H,8-9H2,1-2H3
Instrument: LTQ Orbitrap XL Thermo Scientific
Instrument type: LC-ESI-ITFT
Ms type: MS2
Ion mode: POSITIVE
Ionization: ESI
Fragmentation mode: HCD
Collision energy: 60% (nominal)
Resolution: 15000
Column name: Kinetex Evo C18 2.6 um 50 x 2.1 mm
Retention time: 6.895 min
Base peak: 300.1959
Precursor m/z: 300.1958
Precursor type: [M+H]+
m/z	relative intensity	assigned
57.0332	9	C3H5O+
91.0542	999	C7H7+
105.0698	279	C8H9+
107.0491	24	C7H7O+
109.0648	26	C7H9O+
132.0804	6	C9H10N+
133.0647	502	C9H9O+
135.0678	14	C8H9NO+
135.0804	35	C9H11O+
150.0913	835	C9H12NO+
151.0753	19	C9H11O2+
168.9927	3	C10HO3+
282.1846	8	C19H24NO+
