Mass spectrum: Sulfamethoxazole; LC-ESI-ITFT; MS2; CE: 50%; R=7500; [M+H]+
Name: Sulfamethoxazole
Name: 4-Amino-N-(5-methyl-1,2-oxazol-3-yl)benzene-1-sulfonamide
Formula: C10H11N3O3S
Exact mass: 253.0521
SMILES: CC1=CC(NS(=O)(=O)C2=CC=C(N)C=C2)=NO1
InChI: InChI=1S/C10H11N3O3S/c1-7-6-10(12-16-7)13-17(14,15)9-4-2-8(11)3-5-9/h2-6H,11H2,1H3,(H,12,13)
Instrument: LTQ Orbitrap XL Thermo Fisher Scientific
Instrument type: LC-ESI-ITFT
Ms type: MS2
Ion mode: POSITIVE
Ionization: ESI
Fragmentation mode: HCD
Collision energy: 50% (nominal)
Resolution: 7500
Column name: Hypersil GOLD C18 1.9 um 100 x 2.1 mm Thermo Fisher Scientific
Precursor m/z: 254.0594
Precursor type: [M+H]+
m/z	relative intensity
65.0385	30
80.0495	3
92.0495	538
93.0572	170
94.065	14
99.0554	196
107.0606	22
108.0445	782
110.0601	18
120.0557	13
121.076	4
131.0603	6
132.0684	3
133.0635	1
146.0715	36
147.0793	127
148.0871	24
156.0115	999
160.087	187
161.0017	14
163.0866	2
173.0587	2
176.0278	11
188.0821	34
190.0977	7
194.0385	9
254.0594	26
