Mass spectrum: Nylidrin; LC-ESI-ITFT; MS2; CE: 115%; R=15000; [M+H]+
Name: Nylidrin
Name: 4-[1-hydroxy-2-(4-phenylbutan-2-ylamino)propyl]phenol
Formula: C19H25NO2
Exact mass: 299.1885
SMILES: CC(CCC1=CC=CC=C1)NC(C)C(C2=CC=C(C=C2)O)O
InChI: InChI=1S/C19H25NO2/c1-14(8-9-16-6-4-3-5-7-16)20-15(2)19(22)17-10-12-18(21)13-11-17/h3-7,10-15,19-22H,8-9H2,1-2H3
Instrument: LTQ Orbitrap XL Thermo Scientific
Instrument type: LC-ESI-ITFT
Ms type: MS2
Ion mode: POSITIVE
Ionization: ESI
Fragmentation mode: HCD
Collision energy: 115% (nominal)
Resolution: 15000
Column name: Kinetex Evo C18 2.6 um 50 x 2.1 mm
Retention time: 6.861 min
Base peak: 300.1958
Precursor m/z: 300.1958
Precursor type: [M+H]+
m/z	relative intensity	assigned
65.0384	46	C5H5+
77.0385	42	C6H5+
79.0541	129	C6H7+
81.0698	7	C6H9+
89.0388	3	C7H5+
91.0542	999	C7H7+
94.0413	11	C6H6O+
95.0491	14	C6H7O+
103.0542	94	C8H7+
105.0447	53	C6H5N2+
105.0698	253	C8H9+
107.049	79	C7H7O+
108.0572	3	C7H8O+
109.0648	8	C7H9O+
115.0541	39	C9H7+
117.0577	4	C8H7N+
120.0444	11	C7H6NO+
131.0493	12	C9H7O+
132.0567	6	C9H8O+
133.0647	19	C9H9O+
134.06	15	C8H8NO+
135.0678	37	C8H9NO+
