Mass spectrum: Dothiepin; LC-ESI-QFT; MS2; CE: 80%; R=30000; [M+H]+
Name: Dothiepin
Name: 3-(Dibenzo[b,e]thiepin-11(6H)-ylidene)-N,N-dimethylpropan-1-amine
Formula: C19H21NS
Exact mass: 295.1395
SMILES: CN(C)CCC=C1C2=CC=CC=C2CSC2=C1C=CC=C2
InChI: InChI=1S/C19H21NS/c1-20(2)13-7-11-17-16-9-4-3-8-15(16)14-21-19-12-6-5-10-18(17)19/h3-6,8-12H,7,13-14H2,1-2H3
Instrument: Orbitrap Fusion Tribrid Thermo Fisher Scientific
Instrument type: LC-ESI-QFT
Ms type: MS2
Ion mode: POSITIVE
Ionization: ESI
Fragmentation mode: HCD
Collision energy: 80% (nominal)
Resolution: 30000
Precursor m/z: 296.1468
Precursor type: [M+H]+
m/z	relative intensity
70.0653	18
77.0388	19
79.0544	17
84.081	19
91.0544	426
103.0544	21
115.0544	370
116.0621	19
117.07	108
121.0108	12
123.0265	27
128.0622	65
129.07	43
135.0263	15
141.07	86
142.0779	8
147.0264	120
152.0622	13
155.0603	11
165.07	298
166.0777	13
173.0424	14
177.0697	12
178.0777	657
179.0856	80
189.07	80
190.0778	58
191.0856	223
192.0934	33
197.042	17
201.0701	12
202.0778	999
203.0856	544
204.0933	11
208.0341	79
209.042	44
210.0498	129
215.0855	183
216.0933	65
217.1011	281
218.109	13
221.0419	798
222.0498	82
223.0575	37
234.0498	116
235.0575	117
