Mass spectrum: Dothiepin; ESI-QTOF; MS2; CE: 20eV; R=15000; [M+H]+
Name: Dothiepin
Name: 3-(Dibenzo[b,e]thiepin-11(6H)-ylidene)-N,N-dimethylpropan-1-amine
Formula: C19H21NS
Exact mass: 295.1395
SMILES: CN(C)CCC=C1C2=CC=CC=C2CSC2=C1C=CC=C2
InChI: InChI=1S/C19H21NS/c1-20(2)13-7-11-17-16-9-4-3-8-15(16)14-21-19-12-6-5-10-18(17)19/h3-6,8-12H,7,13-14H2,1-2H3
Instrument: TripleTOF 5600+SCIEX
Instrument type: ESI-QTOF
Ms type: MS2
Ion mode: POSITIVE
Ionization: ESI
Fragmentation mode: CID
Collision energy: 20 eV
Resolution: 15000
Precursor m/z: 296.1468
Precursor type: [M+H]+
m/z	relative intensity
58.0675	9
91.0552	3
115.0546	1
117.0704	10
123.0267	4
129.0702	1
135.0265	1
141.0702	2
142.0781	2
147.0266	11
165.0702	1
173.0422	3
178.0781	2
179.0859	1
191.0861	5
192.0938	2
202.0782	2
203.086	4
204.0939	1
205.1016	1
209.0425	11
210.0503	2
211.0582	1
217.1019	10
218.1097	34
222.0503	10
223.0582	37
225.074	53
251.0897	62
253.1053	2
296.1468	999
