Mass spectrum: Geodin; LC-ESI-ITFT; MS2; CE: 50%; R=7500; [M+H]+
Name: Geodin
Name: methyl 5,7-dichloro-4-hydroxy-5`-methoxy-6-methyl-3,3`-dioxospiro[1-benzofuran-2,6`-cyclohexa-1,4-diene]-1`-carboxylate
Formula: C17H12Cl2O7
Exact mass: 397.9960
SMILES: CC1=C(C(=C2C(=C1Cl)OC3(C2=O)C(=CC(=O)C=C3OC)C(=O)OC)O)Cl
InChI: InChI=1S/C17H12Cl2O7/c1-6-11(18)13(21)10-14(12(6)19)26-17(15(10)22)8(16(23)25-3)4-7(20)5-9(17)24-2/h4-5,21H,1-3H3
Instrument: LTQ Orbitrap XL Thermo Scientific
Instrument type: LC-ESI-ITFT
Ms type: MS2
Ion mode: POSITIVE
Ionization: ESI
Fragmentation mode: HCD
Collision energy: 50 % (nominal)
Resolution: 7500
Column name: Hypersil GOLD C18 1.9 um 100 x 2.1 mm Thermo Fisher Scientific
Retention time: 19.820 min
Base peak: 417.0152
Precursor m/z: 399.0033
Precursor type: [M+H]+
Precursor intensity: 846597.609375
m/z	relative intensity	assigned
296.9729	45	C13H7Cl2O4+
320.0448	35	C16H13ClO5+
324.9662	249	C14H7Cl2O5+
339.9898	999	C15H10Cl2O5+
366.9774	153	C16H9Cl2O6+
