Mass spectrum: Nylidrin; ESI-QTOF; MS2; CE: 30eV; R=15000; [M+H]+
Name: Nylidrin
Name: 4-{1-Hydroxy-2-[(4-phenylbutan-2-yl)amino]propyl}phenol
Formula: C19H25NO2
Exact mass: 299.1885
SMILES: CC(CCC1=CC=CC=C1)NC(C)C(O)C1=CC=C(O)C=C1
InChI: InChI=1S/C19H25NO2/c1-14(8-9-16-6-4-3-5-7-16)20-15(2)19(22)17-10-12-18(21)13-11-17/h3-7,10-15,19-22H,8-9H2,1-2H3
Instrument: TripleTOF 5600+SCIEX
Instrument type: ESI-QTOF
Ms type: MS2
Ion mode: POSITIVE
Ionization: ESI
Fragmentation mode: CID
Collision energy: 30 eV
Resolution: 15000
Precursor m/z: 300.1959
Precursor type: [M+H]+
m/z	relative intensity
55.0199	1
56.0515	3
57.0354	2
65.0399	3
77.0394	2
79.0548	3
91.0546	253
95.0493	1
103.054	8
105.0697	108
107.0488	15
108.0806	1
109.0645	8
115.0537	5
117.0568	1
121.064	1
131.0483	2
132.0801	2
133.064	248
134.0591	1
135.0795	48
148.1112	4
149.0827	1
150.0906	999
151.0742	19
162.0901	1
178.1216	33
282.1841	463
300.1959	24
