Mass spectrum: Dothiepin; LC-ESI-QTOF; MS2; CE: 50 eV; R=3600; [M+H]+
Name: Dothiepin
Name: 3-(Dibenzo[b,e]thiepin-11(6H)-ylidene)-N,N-dimethylpropan-1-amine
Formula: C19H21NS
Exact mass: 295.1395
SMILES: CN(C)CCC=C1C2=CC=CC=C2CSC2=C1C=CC=C2
InChI: InChI=1S/C19H21NS/c1-20(2)13-7-11-17-16-9-4-3-8-15(16)14-21-19-12-6-5-10-18(17)19/h3-6,8-12H,7,13-14H2,1-2H3
Instrument: 6588 QTOF Agilent
Instrument type: LC-ESI-QTOF
Ms type: MS2
Ion mode: POSITIVE
Ionization: ESI
Fragmentation mode: CID
Collision energy: 50 eV
Resolution: 3600
Precursor m/z: 296.1468
Precursor type: [M+H]+
m/z	relative intensity
44.9803	94
58.0658	141
65.039	63
77.0394	53
91.0549	310
115.0546	302
117.0708	56
128.0624	72
141.0701	59
147.0271	58
152.0625	64
165.0699	236
176.0627	78
178.078	491
189.0707	152
190.0773	55
191.086	123
201.0703	81
202.0783	999
203.0852	313
208.0349	61
210.0509	53
215.0859	242
216.0924	73
217.1019	134
221.0429	672
234.051	116
235.0578	67
