Mass spectrum: Amiloride; ESI-QTOF; MS2; CE: 50eV; R=15000; [M+H]+
Name: Amiloride
Name: 3,5-Diamino-N-carbamimidoyl-6-chloropyrazine-2-carboxamide
Formula: C6H8ClN7O
Exact mass: 229.0479
SMILES: NC(=N)NC(=O)C1=NC(Cl)=C(N)N=C1N
InChI: InChI=1S/C6H8ClN7O/c7-2-4(9)13-3(8)1(12-2)5(15)14-6(10)11/h(H4,8,9,13)(H4,10,11,14,15)
Instrument: TripleTOF 5600+SCIEX
Instrument type: ESI-QTOF
Ms type: MS2
Ion mode: POSITIVE
Ionization: ESI
Fragmentation mode: CID
Collision energy: 50 eV
Resolution: 15000
Precursor m/z: 230.0552
Precursor type: [M+H]+
m/z	relative intensity
53.0157	15
54.0235	1
55.0311	10
56.0389	3
60.0573	146
61.9807	41
63.9963	84
66.0225	18
69.0091	2
73.98	27
80.0249	4
81.0327	2
82.0406	2
86.0355	2
88.9904	93
91.0058	5
100.99	90
107.0349	6
108.0427	158
116.0006	999
125.0443	1
140.9954	2
143.0109	203
161.0212	17
171.0056	72
