Mass spectrum: Radicicol; LC-ESI-ITFT; MS2; CE: 50%; R=7500; [M-H]-
Name: Radicicol
Name: 16-chloro-17,19-dihydroxy-4-methyl-3,7-dioxatricyclo[13.4.0.06,8]nonadeca-1(15),9,11,16,18-pentaene-2,13-dione
Formula: C18H17ClO6
Exact mass: 364.07137
SMILES: CC1CC2C(O2)C=CC=CC(=O)CC3=C(C(=CC(=C3Cl)O)O)C(=O)O1
InChI: InChI=1S/C18H17ClO6/c1-9-6-15-14(25-15)5-3-2-4-10(20)7-11-16(18(23)24-9)12(21)8-13(22)17(11)19/h2-5,8-9,14-15,21-22H,6-7H2,1H3
Instrument: LTQ Orbitrap XL Thermo Scientific
Instrument type: LC-ESI-ITFT
Ms type: MS2
Ion mode: NEGATIVE
Ionization: ESI
Fragmentation mode: HCD
Collision energy: 50 % (nominal)
Resolution: 7500
Column name: Hypersil GOLD C18 1.9 um 100 x 2.1 mm Thermo Fisher Scientific
Retention time: 16.243 min
Base peak: 363.0646
Precursor m/z: 363.0641
Precursor type: [M-H]-
Precursor intensity: 45533339.33105
m/z	relative intensity	assigned
149.0243	2	C8H5O3-
157.0064	8	C7H6ClO2-
159.0454	2	C10H7O2-
161.0245	6	C9H5O3-
161.0615	2	C10H9O2-
165.0194	2	C8H5O4-
169.0663	3	C12H9O-
171.0452	3	C11H7O2-
171.0809	1	C12H11O-
174.0324	5	C10H6O3-
175.04	5	C10H7O3-
179.9986	2	C9H5ClO2-
182.9858	30	C8H4ClO3-
194.9856	19	C9H4ClO3-
195.045	3	C13H7O2-
195.082	2	C14H11O-
195.9935	6	C9H5ClO3-
197.0605	2	C13H9O2-
197.0969	2	C14H13O-
199.0405	5	C12H7O3-
200.0122	6	C11H4O4-
207.0219	7	C11H8ClO2-
207.9936	4	C10H5ClO3-
209.0016	5	C10H6ClO3-
211.04	11	C13H7O3-
211.0764	3	C14H11O2-
212.0475	3	C13H8O3-
213.0556	6	C13H9O3-
214.0636	3	C13H10O3-
215.072	6	C13H11O3-
223.9885	48	C10H5ClO4-
224.9964	20	C10H6ClO4-
227.0349	2	C13H7O4-
233.001	4	C12H6ClO3-
233.0384	1	C13H10ClO2-
237.0929	3	C16H13O2-
239.0354	9	C14H7O4-
239.0721	6	C15H11O3-
239.1082	3	C16H15O2-
240.0433	6	C14H8O4-
241.0509	6	C14H9O4-
241.0869	5	C15H13O3-
247.0164	11	C13H8ClO3-
248.9971	3	C12H6ClO4-
249.0326	3	C13H10ClO3-
255.103	10	C16H15O3-
259.0178	6	C14H8ClO3-
260.9966	6	C13H6ClO4-
262.0042	3	C13H7ClO4-
263.012	2	C13H8ClO4-
265.0488	2	C10H14ClO6-
265.0878	2	C17H13O3-
273.0324	4	C15H10ClO3-
275.012	40	C14H8ClO4-
275.0493	2	C15H12ClO3-
276.0203	7	C14H9ClO4-
277.0267	8	C14H10ClO4-
281.082	3	C17H13O4-
283.0617	7	C16H11O5-
283.0981	19	C17H15O4-
299.0921	8	C17H15O5-
301.0275	4	C16H10ClO4-
304.014	6	C15H9ClO5-
309.0775	3	C18H13O5-
317.0594	2	C17H14ClO4-
319.0378	41	C16H12ClO5-
319.0757	10	C17H16ClO4-
327.088	13	C18H15O6-
335.07	12	C17H16ClO5-
345.0541	54	C18H14ClO5-
363.0647	999	C18H16ClO6-
