Mass spectrum: Dothiepin; LC-ESI-QTOF; MS2; CE: 25 eV; R=3600; [M+H]+
Name: Dothiepin
Name: 3-(Dibenzo[b,e]thiepin-11(6H)-ylidene)-N,N-dimethylpropan-1-amine
Formula: C19H21NS
Exact mass: 295.1395
SMILES: CN(C)CCC=C1C2=CC=CC=C2CSC2=C1C=CC=C2
InChI: InChI=1S/C19H21NS/c1-20(2)13-7-11-17-16-9-4-3-8-15(16)14-21-19-12-6-5-10-18(17)19/h3-6,8-12H,7,13-14H2,1-2H3
Instrument: 6583 QTOF Agilent
Instrument type: LC-ESI-QTOF
Ms type: MS2
Ion mode: POSITIVE
Ionization: ESI
Fragmentation mode: CID
Collision energy: 25 eV
Resolution: 3600
Precursor m/z: 296.1468
Precursor type: [M+H]+
m/z	relative intensity
58.0653	379
91.0539	408
115.0525	190
117.069	529
123.0255	168
129.0693	68
141.0685	81
142.0766	61
147.0247	265
165.0673	202
173.0409	71
178.0757	316
179.0836	105
191.0838	212
192.0907	187
202.0753	307
203.0829	846
209.0397	204
210.0475	220
215.0834	48
217.0986	570
218.106	840
221.0386	580
222.0466	409
223.0545	999
225.071	296
234.0483	52
235.055	148
236.0634	154
251.0849	107
296.1468	74
