Mass spectrum: Fumagillin; LC-ESI-ITFT; MS2; CE: 30%; R=7500; [M-H]-
Name: Fumagillin
Name: 10-[[5-methoxy-4-[2-methyl-3-(3-methylbut-2-enyl)oxiran-2-yl]-1-oxaspiro[2.5]octan-6-yl]oxy]-10-oxodeca-2,4,6,8-tetraenoic acid
Formula: C26H34O7
Exact mass: 458.23045
SMILES: CC(=CCC1C(O1)(C)C2C(C(CCC23CO3)OC(=O)C=CC=CC=CC=CC(=O)O)OC)C
InChI: InChI=1S/C26H34O7/c1-18(2)13-14-20-25(3,33-20)24-23(30-4)19(15-16-26(24)17-31-26)32-22(29)12-10-8-6-5-7-9-11-21(27)28/h5-13,19-20,23-24H,14-17H2,1-4H3,(H,27,28)
Instrument: LTQ Orbitrap XL Thermo Scientific
Instrument type: LC-ESI-ITFT
Ms type: MS2
Ion mode: NEGATIVE
Ionization: ESI
Fragmentation mode: HCD
Collision energy: 30 % (nominal)
Resolution: 7500
Column name: Hypersil GOLD C18 1.9 um 100 x 2.1 mm Thermo Fisher Scientific
Retention time: 24.079 min
Base peak: 457.2218
Precursor m/z: 457.2232
Precursor type: [M-H]-
Precursor intensity: 2232744.341553
m/z	relative intensity	assigned
103.0551	97	C8H7-
105.0708	32	C8H9-
123.0809	70	C8H11O-
131.0499	372	C9H7O-
147.0453	44	C9H7O2-
149.0601	49	C9H9O2-
157.0287	62	C10H5O2-
239.1066	20	C16H15O2-
457.2215	999	C26H33O7-
