Mass spectrum: Chrysazin; LC-ESI-ITFT; MS2; CE: 15%; R=7500; [M-H]-
Name: Chrysazin
Name: Danthron
Name: 1,8-dihydroxyanthracene-9,10-dione
Formula: C14H8O4
Exact mass: 240.0423
SMILES: C1=CC2=C(C(=C1)O)C(=O)C3=C(C2=O)C=CC=C3O
InChI: InChI=1S/C14H8O4/c15-9-5-1-3-7-11(9)14(18)12-8(13(7)17)4-2-6-10(12)16/h1-6,15-16H
Instrument: LTQ Orbitrap XL Thermo Scientific
Instrument type: LC-ESI-ITFT
Ms type: MS2
Ion mode: NEGATIVE
Ionization: ESI
Fragmentation mode: HCD
Collision energy: 15 % (nominal)
Resolution: 7500
Column name: Hypersil GOLD C18 1.9 um 100 x 2.1 mm Thermo Fisher Scientific
Retention time: 23.124 min
Base peak: 239.035
Precursor m/z: 239.035
Precursor type: [M-H]-
Precursor intensity: 1753441.896484
m/z	relative intensity	assigned
239.035	999	C14H7O4-
