Mass spectrum: Mefruside; LC-ESI-QFT; MS2; CE: 65%; R=17500; [M+H]+
Name: Mefruside
Name: 4-Chloro-N1-methyl-N1-[(2-methyloxolan-2-yl)methyl]benzene-1,3-disulfonamide
Formula: C13H19ClN2O5S2
Exact mass: 382.0424
SMILES: CN(CC1(C)CCCO1)S(=O)(=O)C1=CC=C(Cl)C(=C1)S(N)(=O)=O
InChI: InChI=1S/C13H19ClN2O5S2/c1-13(6-3-7-21-13)9-16(2)23(19,20)10-4-5-11(14)12(8-10)22(15,17)18/h4-5,8H,3,6-7,9H2,1-2H3,(H2,15,17,18)
Instrument: Q Exactive Thermo Fisher Scientific
Instrument type: LC-ESI-QFT
Ms type: MS2
Ion mode: POSITIVE
Ionization: ESI
Fragmentation mode: HCD
Collision energy: 65% (nominal)
Resolution: 17500
Column name: Hypersil GOLD 1.9 um 2.1 x 100 mm Thermo Fisher Scientific
Precursor m/z: 383.0497
Precursor type: [M+H]+
m/z	relative intensity
57.0344	86
69.0708	69
79.055	339
81.0706	611
84.0815	999
86.0607	114
91.0185	64
95.0736	21
96.0814	88
99.081	59
114.9949	35
116.9564	27
128.1072	20
140.974	46
142.0057	105
142.9897	288
156.0212	20
172.946	52
217.9789	73
