Mass spectrum: Mycophenolic Acid; LC-ESI-ITFT; MS2; CE: 40%; R=7500; [M-H]-
Name: Mycophenolic Acid
Name: 6-(4-Hydroxy-6-methoxy-7-methyl-3-oxo-1H-isobenzofuran-5-yl)-4-methyl-4-hexenoic acid
Name: 6-(4-hydroxy-6-methoxy-7-methyl-3-oxo-1H-2-benzofuran-5-yl)-4-methylhex-4-enoic acid
Formula: C17H20O6
Exact mass: 320.12599
SMILES: CC1=C2COC(=O)C2=C(C(=C1OC)CC=C(C)CCC(=O)O)O
InChI: InChI=1S/C17H20O6/c1-9(5-7-13(18)19)4-6-11-15(20)14-12(8-23-17(14)21)10(2)16(11)22-3/h4,20H,5-8H2,1-3H3,(H,18,19)
Instrument: LTQ Orbitrap XL Thermo Scientific
Instrument type: LC-ESI-ITFT
Ms type: MS2
Ion mode: NEGATIVE
Ionization: ESI
Fragmentation mode: HCD
Collision energy: 40 % (nominal)
Resolution: 7500
Column name: Hypersil GOLD C18 1.9 um 100 x 2.1 mm Thermo Fisher Scientific
Retention time: 19.389 min
Base peak: 319.1191
Precursor m/z: 319.1187
Precursor type: [M-H]-
Precursor intensity: 25437503.6377
m/z	relative intensity	assigned
179.0353	4	C9H7O4-
191.0353	6	C10H7O4-
192.0436	1	C10H8O4-
199.1137	1	C14H15O-
207.0665	12	C11H11O4-
243.1029	21	C15H15O3-
275.1293	137	C16H19O4-
287.0932	25	C16H15O5-
301.109	3	C17H17O5-
319.1191	999	C17H19O6-
