Mass spectrum: Nylidrin; LC-ESI-QFT; MS2; CE: CE90; R=17500; [M+H]+
Name: Nylidrin
Name: 4-[1-hydroxy-2-(4-phenylbutan-2-ylamino)propyl]phenol
Formula: C19H25NO2
Exact mass: 299.1885
SMILES: CC(CCC1=CC=CC=C1)NC(C)C(O)C1=CC=C(O)C=C1
InChI: InChI=1S/C19H25NO2/c1-14(8-9-16-6-4-3-5-7-16)20-15(2)19(22)17-10-12-18(21)13-11-17/h3-7,10-15,19-22H,8-9H2,1-2H3
Instrument: Q Exactive Thermo Fisher Scientific
Instrument type: LC-ESI-QFT
Ms type: MS2
Ion mode: POSITIVE
Ionization: ESI
Fragmentation mode: HCD
Collision energy: CE90
Resolution: 17500
Column name: Acquity UPLC BEH C18 1.7 um, 2.1 x 150 mm, Waters
Retention time: 17.136 min
Base peak: 223.0629
Precursor m/z: 300.1958
Precursor type: [M+H]+
m/z	relative intensity	assigned
50.0156	46	C4H2+
51.0234	91	C4H3+
53.0025	47	C3HO+
53.0388	43	C4H5+
53.9977	5	C2NO+
55.0181	22	C3H3O+
56.0497	7	C3H6N+
62.0152	10	C5H2+
63.0233	78	C5H3+
65.0387	999	C5H5+
66.0463	23	C5H6+
67.0542	4	C5H7+
77.0386	64	C6H5+
78.0464	6	C6H6+
79.0543	151	C6H7+
80.0497	5	C5H6N+
81.0336	10	C5H5O+
83.0488	2	C5H7O+
89.0386	53	C7H5+
90.0464	11	C7H6+
91.0543	765	C7H7+
92.0498	6	C6H6N+
94.0411	50	C6H6O+
95.0492	333	C6H7O+
102.0456	4	C8H6+
103.0544	89	C8H7+
104.0621	2	C8H8+
105.0692	19	C8H9+
106.0652	10	C7H8N+
107.0493	110	C7H7O+
110.0596	2	C6H8NO+
115.0539	31	C9H7+
117.0569	4	C8H7N+
118.041	4	C8H6O+
118.0653	3	C8H8N+
120.0443	20	C7H6NO+
131.0498	13	C9H7O+
134.0593	12	C8H8NO+
170.0356	6	C11H6O2+
171.0306	5	C10H5NO2+
172.0322	2	C14H4+
