Mass spectrum: Fulvic acid; LC-ESI-ITFT; MS2; CE: 15%; R=7500; [M+H]+
Name: Fulvic acid
Name: 3,7,8-trihydroxy-3-methyl-10-oxo-1,4-dihydropyrano[4,3-b]chromene-9-carboxylic acid
Formula: C14H12O8
Exact mass: 308.0532
SMILES: CC1(CC2=C(CO1)C(=O)C3=C(O2)C=C(C(=C3C(=O)O)O)O)O
InChI: InChI=1S/C14H12O8/c1-14(20)3-8-5(4-21-14)11(16)9-7(22-8)2-6(15)12(17)10(9)13(18)19/h2,15,17,20H,3-4H2,1H3,(H,18,19)
Instrument: LTQ Orbitrap XL Thermo Scientific
Instrument type: LC-ESI-ITFT
Ms type: MS2
Ion mode: POSITIVE
Ionization: ESI
Fragmentation mode: HCD
Collision energy: 15 % (nominal)
Resolution: 7500
Column name: Hypersil GOLD C18 1.9 um 100 x 2.1 mm Thermo Fisher Scientific
Retention time: 11.339 min
Base peak: 309.0599
Precursor m/z: 309.0605
Precursor type: [M+H]+
Precursor intensity: 4191851.664062
m/z	relative intensity	assigned
231.0286	25	C12H7O5+
291.0495	121	C14H11O7+
309.0599	999	C14H13O8+
