Mass spectrum: Dixyrazine; LC-ESI-ITFT; MS2; CE: 45%; R=15000; [M+H]+
Name: Dixyrazine
Name: 2-[2-[4-(2-methyl-3-phenothiazin-10-ylpropyl)piperazin-1-yl]ethoxy]ethanol
Formula: C24H33N3O2S
Exact mass: 427.2293
SMILES: CC(CN1CCN(CC1)CCOCCO)CN2C3=CC=CC=C3SC4=CC=CC=C42
InChI: InChI=1S/C24H33N3O2S/c1-20(18-26-12-10-25(11-13-26)14-16-29-17-15-28)19-27-21-6-2-4-8-23(21)30-24-9-5-3-7-22(24)27/h2-9,20,28H,10-19H2,1H3
Instrument: LTQ Orbitrap XL Thermo Scientific
Instrument type: LC-ESI-ITFT
Ms type: MS2
Ion mode: POSITIVE
Ionization: ESI
Fragmentation mode: HCD
Collision energy: 45% (nominal)
Resolution: 15000
Column name: Kinetex Evo C18 2.6 um 50 x 2.1 mm
Retention time: 8.979 min
Base peak: 428.2364
Precursor m/z: 428.2366
Precursor type: [M+H]+
m/z	relative intensity	assigned
58.0649	5	C3H8N+
70.065	37	C4H8N+
82.0651	6	C5H8N+
84.0806	3	C5H10N+
87.0441	40	C4H7O2+
97.076	48	C5H9N2+
98.0838	234	C5H10N2+
98.0964	29	C6H12N+
99.0916	22	C5H11N2+
100.0758	4	C5H10NO+
100.112	7	C6H14N+
101.1073	339	C5H13N2+
112.0994	4	C6H12N2+
112.1121	12	C7H14N+
113.1073	4	C6H13N2+
118.0862	11	C5H12NO2+
125.1073	95	C7H13N2+
127.1228	3	C7H15N2+
132.1016	6	C6H14NO2+
140.1307	26	C8H16N2+
144.1019	36	C7H14NO2+
155.1546	16	C9H19N2+
172.1206	84	C8H16N2O2+
180.0807	27	C13H10N+
187.1441	861	C9H19N2O2+
199.0448	10	C12H9NS+
212.0529	336	C13H10NS+
221.12	13	C16H15N+
229.191	999	C12H25N2O2+
230.1938	4	C13H28NS+
254.0998	47	C16H16NS+
428.2362	21	C24H34N3O2S+
