Mass spectrum: Dosulepin; LC-ESI-ITFT; MS2; CE: 50%; R=15000; [M+H]+
Name: Dosulepin
Name: Dothiepin
Name: 3-(6H-benzo[c][1]benzothiepin-11-ylidene)-N,N-dimethylpropan-1-amine
Formula: C19H21NS
Exact mass: 295.1395
SMILES: CN(C)CCC=C1C2=CC=CC=C2CSC3=CC=CC=C31
InChI: InChI=1S/C19H21NS/c1-20(2)13-7-11-17-16-9-4-3-8-15(16)14-21-19-12-6-5-10-18(17)19/h3-6,8-12H,7,13-14H2,1-2H3
Instrument: LTQ Orbitrap XL Thermo Scientific
Instrument type: LC-ESI-ITFT
Ms type: MS2
Ion mode: POSITIVE
Ionization: ESI
Fragmentation mode: HCD
Collision energy: 50% (nominal)
Resolution: 15000
Column name: Kinetex Evo C18 2.6 um 50 x 2.1 mm
Retention time: 8.351 min
Base peak: 296.1467
Precursor m/z: 296.1467
Precursor type: [M+H]+
m/z	relative intensity	assigned
58.0648	242	C3H8N+
73.0107	5	C3H5S+
84.0807	33	C5H10N+
91.0542	208	C7H7+
105.0694	5	C8H9+
115.0544	11	C9H7+
117.0698	463	C9H9+
123.0262	227	C7H7S+
129.0697	32	C10H9+
135.0262	26	C8H7S+
141.0698	42	C11H9+
142.0776	46	C11H10+
147.0262	227	C9H7S+
159.0262	7	C10H7S+
165.0702	13	C13H9+
173.0418	72	C11H9S+
178.0776	45	C14H10+
179.0854	25	C14H11+
191.0855	112	C15H11+
192.0933	98	C15H12+
202.0777	21	C16H10+
203.0854	110	C16H11+
204.0935	24	C16H12+
205.1013	16	C16H13+
209.0419	253	C14H9S+
210.0497	55	C14H10S+
211.0574	18	C14H11S+
217.1012	222	C17H13+
218.1089	999	C17H14+
221.0418	84	C15H9S+
222.0497	264	C15H10S+
223.0575	910	C15H11S+
225.0731	507	C15H13S+
235.0573	10	C16H11S+
236.0653	204	C16H12S+
249.073	21	C17H13S+
251.0888	290	C17H15S+
253.1054	6	C17H17S+
296.1468	126	C19H22NS+
