Mass spectrum: Andrastin A; LC-ESI-ITFT; MS2; CE: 30%; R=7500; [M+H]+
Name: Andrastin A
Name: methyl 3-acetyloxy-10-formyl-4,4,8,12,13,16-hexamethyl-15,17-dioxo-2,3,5,6,7,9-hexahydro-1H-cyclopenta[a]phenanthrene-14-carboxylate
Formula: C28H38O7
Exact mass: 486.2618
SMILES: CC1C(=O)C2(C(=CC3C(C2(C1=O)C(=O)OC)(CCC4C3(CCC(C4(C)C)OC(=O)C)C=O)C)C)C
InChI: InChI=1S/C28H38O7/c1-15-13-19-25(6,28(23(33)34-8)22(32)16(2)21(31)26(15,28)7)11-9-18-24(4,5)20(35-17(3)30)10-12-27(18,19)14-29/h13-14,16,18-20H,9-12H2,1-8H3
Instrument: LTQ Orbitrap XL Thermo Scientific
Instrument type: LC-ESI-ITFT
Ms type: MS2
Ion mode: POSITIVE
Ionization: ESI
Fragmentation mode: HCD
Collision energy: 30 % (nominal)
Resolution: 7500
Column name: Hypersil GOLD C18 1.9 um 100 x 2.1 mm Thermo Fisher Scientific
Retention time: 23.422 min
Base peak: 487.2703
Precursor m/z: 487.269
Precursor type: [M+H]+
Precursor intensity: 8750042.074951
m/z	relative intensity	assigned
151.0395	296	C8H7O3+
175.1485	83	C13H19+
185.1326	114	C14H17+
215.179	142	C16H23+
225.1638	243	C17H21+
243.1746	999	C17H23O+
377.2108	135	C25H29O3+
