Mass spectrum: Norlichexanthone; LC-ESI-ITFT; MS2; CE: 15%; R=7500; [M-H]-
Name: Norlichexanthone
Name: 1,3,6-trihydroxy-8-methylxanthen-9-one
Formula: C14H10O5
Exact mass: 258.0528
SMILES: CC1=CC(=CC2=C1C(=O)C3=C(C=C(C=C3O2)O)O)O
InChI: InChI=1S/C14H10O5/c1-6-2-7(15)4-10-12(6)14(18)13-9(17)3-8(16)5-11(13)19-10/h2-5,15-17H,1H3
Instrument: LTQ Orbitrap XL Thermo Scientific
Instrument type: LC-ESI-ITFT
Ms type: MS2
Ion mode: NEGATIVE
Ionization: ESI
Fragmentation mode: HCD
Collision energy: 15 % (nominal)
Resolution: 7500
Column name: Hypersil GOLD C18 1.9 um 100 x 2.1 mm Thermo Fisher Scientific
Retention time: 20.422 min
Base peak: 257.0459
Precursor m/z: 257.0455
Precursor type: [M-H]-
Precursor intensity: 9316596.968018
m/z	relative intensity	assigned
257.0458	999	C14H9O5-
