Mass spectrum: Cyclizine; LC-ESI-ITFT; MS2; CE: 140%; R=15000; [M+H]+
Name: Cyclizine
Name: 1-benzhydryl-4-methylpiperazine
Formula: C18H22N2
Exact mass: 266.1783
SMILES: CN1CCN(CC1)C(C2=CC=CC=C2)C3=CC=CC=C3
InChI: InChI=1S/C18H22N2/c1-19-12-14-20(15-13-19)18(16-8-4-2-5-9-16)17-10-6-3-7-11-17/h2-11,18H,12-15H2,1H3
Instrument: LTQ Orbitrap XL Thermo Scientific
Instrument type: LC-ESI-ITFT
Ms type: MS2
Ion mode: POSITIVE
Ionization: ESI
Fragmentation mode: HCD
Collision energy: 140% (nominal)
Resolution: 15000
Column name: Kinetex Evo C18 2.6 um 50 x 2.1 mm
Retention time: 7.482 min
Base peak: 267.1856
Precursor m/z: 267.1856
Precursor type: [M+H]+
m/z	relative intensity	assigned
63.0228	2	C5H3+
65.0384	20	C5H5+
78.0464	6	C6H6+
89.0387	7	C7H5+
91.0542	12	C7H7+
102.0465	17	C8H6+
115.0543	179	C9H7+
126.0464	16	C10H6+
127.0544	7	C10H7+
128.0621	169	C10H8+
139.0542	40	C11H7+
141.0699	74	C11H9+
150.0464	16	C12H6+
151.0543	44	C12H7+
152.0621	671	C12H8+
155.0603	11	C10H7N2+
163.0546	15	C13H7+
164.0621	81	C13H8+
165.0699	999	C13H9+
166.0777	55	C13H10+
167.085	3	C13H11+
169.0647	21	C12H9O+
179.0605	27	C12H7N2+
