Mass spectrum: Fusarenon X; LC-ESI-ITFT; MS2; CE: 50%; R=7500; [M+H]+
Name: Fusarenon X
Name: [3,10-dihydroxy-2-(hydroxymethyl)-1,5-dimethyl-4-oxospiro[8-oxatricyclo[7.2.1.02,7]dodec-5-ene-12,2`-oxirane]-11-yl] acetate
Formula: C17H22O8
Exact mass: 354.1315
SMILES: CC1=CC2C(C(C1=O)O)(C3(C(C(C(C34CO4)O2)O)OC(=O)C)C)CO
InChI: InChI=1S/C17H22O8/c1-7-4-9-16(5-18,12(22)10(7)20)15(3)13(24-8(2)19)11(21)14(25-9)17(15)6-23-17/h4,9,11-14,18,21-22H,5-6H2,1-3H3
Instrument: LTQ Orbitrap XL Thermo Scientific
Instrument type: LC-ESI-ITFT
Ms type: MS2
Ion mode: POSITIVE
Ionization: ESI
Fragmentation mode: HCD
Collision energy: 50 % (nominal)
Resolution: 7500
Column name: Hypersil GOLD C18 1.9 um 100 x 2.1 mm Thermo Fisher Scientific
Retention time: 8.411 min
Base peak: 355.1384
Precursor m/z: 355.1387
Precursor type: [M+H]+
Precursor intensity: 12422497.94141
m/z	relative intensity	assigned
99.0438	57	C5H7O2+
107.049	29	C7H7O+
109.0643	56	C7H9O+
119.0852	31	C9H11+
123.0438	109	C7H7O2+
125.0596	86	C7H9O2+
131.0857	33	C10H11+
137.0593	848	C8H9O2+
141.0543	32	C7H9O3+
145.1006	29	C11H13+
147.08	190	C10H11O+
149.0595	84	C9H9O2+
151.0756	23	C9H11O2+
153.0546	79	C8H9O3+
155.0858	19	C12H11+
157.1014	36	C12H13+
159.08	195	C11H11O+
161.0594	111	C10H9O2+
161.096	41	C11H13O+
163.075	229	C10H11O2+
165.0906	352	C10H13O2+
171.0804	42	C12H11O+
173.0957	133	C12H13O+
175.0748	999	C11H11O2+
177.0905	458	C11H13O2+
179.0698	69	C10H11O3+
185.0955	115	C13H13O+
187.0751	183	C12H11O2+
188.0826	22	C12H12O2+
189.0906	259	C12H13O2+
191.0698	187	C11H11O3+
191.1063	42	C12H15O2+
193.0855	88	C11H13O3+
199.0751	66	C13H11O2+
201.0906	538	C13H13O2+
203.1061	71	C13H15O2+
205.0853	627	C12H13O3+
211.0751	85	C14H11O2+
213.0906	161	C14H13O2+
214.0632	27	C13H10O3+
217.0853	314	C13H13O3+
219.101	166	C13H15O3+
229.0853	879	C14H13O3+
231.1011	108	C14H15O3+
233.0802	15	C13H13O4+
235.0963	22	C13H15O4+
241.0849	45	C15H13O3+
247.0956	473	C14H15O4+
259.0962	118	C15H15O4+
277.1072	83	C15H17O5+
337.1279	47	C17H21O7+
