Mass spectrum: Antipyrine; LC-ESI-ITFT; MS2; CE: 155%; R=15000; [M+H]+
Name: Antipyrine
Name: 1,5-dimethyl-2-phenylpyrazol-3-one
Formula: C11H12N2O
Exact mass: 188.0950
SMILES: CC1=CC(=O)N(N1C)C2=CC=CC=C2
InChI: InChI=1S/C11H12N2O/c1-9-8-11(14)13(12(9)2)10-6-4-3-5-7-10/h3-8H,1-2H3
Instrument: LTQ Orbitrap XL Thermo Scientific
Instrument type: LC-ESI-ITFT
Ms type: MS2
Ion mode: POSITIVE
Ionization: ESI
Fragmentation mode: HCD
Collision energy: 155% (nominal)
Resolution: 15000
Column name: Kinetex Evo C18 2.6 um 50 x 2.1 mm
Retention time: 5.674 min
Base peak: 189.1022
Precursor m/z: 189.1022
Precursor type: [M+H]+
m/z	relative intensity	assigned
54.0336	20	C3H4N+
55.0414	12	C3H5N+
58.0648	125	C3H8N+
65.0383	222	C5H5+
67.0176	17	C4H3O+
68.0493	18	C4H6N+
69.0571	9	C4H7N+
77.0384	999	C6H5+
78.0462	91	C6H6+
79.0541	103	C6H7+
80.0494	14	C5H6N+
81.0447	37	C4H5N2+
82.0287	18	C4H4NO+
89.0385	49	C7H5+
90.0338	24	C6H4N+
90.0463	54	C7H6+
91.0541	227	C7H7+
92.0494	38	C6H6N+
93.0572	42	C6H7N+
94.065	11	C6H8N+
95.0491	210	C6H7O+
95.0602	37	C5H7N2+
98.06	24	C5H8NO+
102.0464	59	C8H6+
103.0542	99	C8H7+
104.0494	282	C7H6N+
105.0446	819	C6H5N2+
106.065	152	C7H8N+
115.0541	166	C9H7+
116.0492	14	C8H6N+
116.0621	9	C9H8+
117.0572	81	C8H7N+
117.07	13	C9H9+
118.065	59	C8H8N+
119.0603	12	C7H7N2+
128.0494	35	C9H6N+
129.0572	17	C9H7N+
130.065	171	C9H8N+
131.0603	169	C8H7N2+
131.0728	12	C9H9N+
132.044	8	C8H6NO+
132.0681	34	C8H8N2+
144.0808	17	C10H10N+
145.0759	52	C9H9N2+
