Mass spectrum: PR toxin; LC-ESI-ITFT; MS2; CE: 40%; R=7500; [M+H]+
Name: PR toxin
Name: Spiro(naphthalene-2(1H),2`-oxirane)-3`-carboxaldehyde, 3,5,6,7,8,8a-hexahydro-7-acetoxy-5,6-epoxy-3`,8,8a-trimethyl-3-oxo-
Name: (3`-formyl-3,3`,3a-trimethyl-6-oxospiro[2,3,4,7b-tetrahydro-1aH-naphtho[1,2-b]oxirene-5,2`-oxirane]-2-yl) acetate
Formula: C17H20O6
Exact mass: 320.1260
SMILES: CC1C(C2C(O2)C3=CC(=O)C4(CC13C)C(O4)(C)C=O)OC(=O)C
InChI: InChI=1S/C17H20O6/c1-8-12(21-9(2)19)14-13(22-14)10-5-11(20)17(6-15(8,10)3)16(4,7-18)23-17/h5,7-8,12-14H,6H2,1-4H3
Instrument: LTQ Orbitrap XL Thermo Scientific
Instrument type: LC-ESI-ITFT
Ms type: MS2
Ion mode: POSITIVE
Ionization: ESI
Fragmentation mode: HCD
Collision energy: 40 % (nominal)
Resolution: 7500
Column name: Hypersil GOLD C18 1.9 um 100 x 2.1 mm Thermo Fisher Scientific
Retention time: 15.775 min
Base peak: 321.1335
Precursor m/z: 321.1333
Precursor type: [M+H]+
Precursor intensity: 3327179.880859
m/z	relative intensity	assigned
107.0488	61	C7H7O+
109.065	104	C7H9O+
117.0695	87	C9H9+
119.0858	51	C9H11+
121.0646	156	C8H9O+
121.1006	56	C9H13+
125.0594	66	C7H9O2+
131.0849	103	C10H11+
133.1008	41	C10H13+
135.0443	118	C8H7O2+
135.0804	211	C9H11O+
137.0603	67	C8H9O2+
143.086	62	C11H11+
145.0646	93	C10H9O+
145.101	398	C11H13+
147.0807	190	C10H11O+
149.0593	130	C9H9O2+
149.0957	85	C10H13O+
155.0852	67	C12H11+
157.0642	67	C11H9O+
158.0729	147	C11H10O+
159.0803	257	C11H11O+
159.1164	129	C12H15+
161.0591	74	C10H9O2+
161.0959	752	C11H13O+
163.0752	247	C10H11O2+
163.1114	113	C11H15O+
167.0699	123	C9H11O3+
169.1012	182	C13H13+
173.0958	999	C12H13O+
175.0752	404	C11H11O2+
177.0902	142	C11H13O2+
187.1116	382	C13H15O+
189.091	245	C12H13O2+
191.0703	70	C11H11O3+
191.1065	493	C12H15O2+
193.0852	56	C11H13O3+
197.0957	154	C14H13O+
201.0705	52	C16H9+
201.0905	407	C13H13O2+
203.0702	102	C12H11O3+
205.0849	76	C12H13O3+
205.1222	56	C13H17O2+
209.0818	55	C11H13O4+
215.1071	287	C14H15O2+
219.1012	413	C13H15O3+
233.1174	172	C14H17O3+
237.1125	115	C13H17O4+
261.1118	126	C15H17O4+
279.122	391	C15H19O5+
293.1383	58	C16H21O5+
