Mass spectrum: Terbutryn-diOH (TENTATIVE); LC-ESI-QFT; MS2; CE: 30%; R=70000; [M+H]+
Name: Terbutryn-diOH
Formula: C10H19N5O2S
Exact mass: 273.1249
SMILES: C(*)C(*)NC1=NC(=NC(=N1)SC(*))NC(C)(C(*))C(*)  *=[OH (n=1)& H (n=4)]
Instrument: Q Exactive Plus Orbitrap Thermo Scientific
Instrument type: LC-ESI-QFT
Ms type: MS2
Ion mode: POSITIVE
Ionization: ESI
Fragmentation mode: HCD
Collision energy: 30% (nominal)
Resolution: 70000
Column name: Waters UPLC BEH C18 1.7 um 2.1 mm x 100 mm with pre-column
Retention time: 12.11 min
Precursor m/z: 274.1327
Precursor type: [M+H]+
m/z	relative intensity
56.0498	100
57.0702	27
67.0543	35
69.0085	34
69.0448	60
70.0288	35
77.9775	19
83.0855	25
85.0509	57
86.035	187
89.0168	89
90.0372	24
95.0238	28
95.0856	30
98.0714	43
111.0302	79
112.0506	999
114.0124	46
115.0324	33
128.0568	102
132.0226	38
136.062	34
140.0274	30
141.0229	61
152.0565	24
154.0724	759
156.034	33
157.0181	227
158.0496	38
168.0101	41
172.0457	42
182.0494	52
183.0334	81
185.0366	53
200.0599	60
225.0427	20
