Mass spectrum: Isoproturon-OH (TENTATIVE); LC-ESI-QFT; MS2; CE: 30%; R=70000; [M+H]+
Name: Isoproturon-OH
Formula: C12H18N2O2
Exact mass: 222.137
SMILES: C(*)C(C)C1=C(*)C(*)=C(C=C1)NC(=O)N(C)C(*) *=[OH (n=1) & H (n=3)] 
Instrument: Q Exactive Plus Orbitrap Thermo Scientific
Instrument type: LC-ESI-QFT
Ms type: MS2
Ion mode: POSITIVE
Ionization: ESI
Fragmentation mode: HCD
Collision energy: 30% (nominal)
Resolution: 70000
Column name: Waters UPLC BEH C18 1.7 um 2.1 mm x 100 mm with pre-column
Retention time: 10.85 min
Precursor m/z: 223.1448
Precursor type: [M+H]+
m/z	relative intensity
55.0545	25
57.07	23
59.0494	726
72.0444	874
73.0648	999
79.0542	43
81.0698	39
85.0285	25
91.0542	46
93.0699	42
94.0651	72
95.0492	23
105.0699	31
106.0652	119
107.0489	20
117.07	28
120.0448	28
121.0285	31
121.1014	22
132.0444	42
134.0966	168
160.076	49
