Mass spectrum: Dibucaine; LC-ESI-QTOF; MS2; CE: 40 eV; R=3600; [M+H]+
Name: Dibucaine
Name: 2-Butoxy-N-[2-(diethylamino)ethyl]quinoline-4-carboxamide
Formula: C20H29N3O2
Exact mass: 343.226
SMILES: CCCCOC1=CC(C(=O)NCCN(CC)CC)=C2C=CC=CC2=N1
InChI: InChI=1S/C20H29N3O2/c1-4-7-14-25-19-15-17(16-10-8-9-11-18(16)22-19)20(24)21-12-13-23(5-2)6-3/h8-11,15H,4-7,12-14H2,1-3H3,(H,21,24)
Instrument: 6566 QTOF Agilent
Instrument type: LC-ESI-QTOF
Ms type: MS2
Ion mode: POSITIVE
Ionization: ESI
Fragmentation mode: CID
Collision energy: 40 eV
Resolution: 3600
Precursor m/z: 344.2333
Precursor type: [M+H]+
m/z	relative intensity
57.0733	54
89.0409	65
116.0522	999
144.0471	353
171.0576	68
172.0423	188
215.0855	178
