Mass spectrum: Phentermine; LC-ESI-QFT; MS2; CE: CE60; R=17500; [M+H]+
Name: Phentermine
Name: 2-methyl-1-phenylpropan-2-amine
Formula: C10H15N
Exact mass: 149.1204
SMILES: CC(C)(N)CC1=CC=CC=C1
InChI: InChI=1S/C10H15N/c1-10(2,11)8-9-6-4-3-5-7-9/h3-7H,8,11H2,1-2H3
Instrument: Q Exactive Thermo Fisher Scientific
Instrument type: LC-ESI-QFT
Ms type: MS2
Ion mode: POSITIVE
Ionization: ESI
Fragmentation mode: HCD
Collision energy: CE60
Resolution: 17500
Column name: Acquity UPLC BEH C18 1.7 um, 2.1 x 150 mm, Waters
Retention time: 15.505 min
Base peak: 223.0628
Precursor m/z: 150.1277
Precursor type: [M+H]+
m/z	relative intensity	assigned
50.0156	93	C4H2+
51.0235	169	C4H3+
53.0392	19	C4H5+
58.0654	14	C3H8N+
62.0153	51	C5H2+
63.0233	173	C5H3+
65.0387	999	C5H5+
77.0386	13	C6H5+
91.0543	282	C7H7+
97.0076	30	C8H+
115.0538	16	C9H7+
