Mass spectrum: Sulfamethoxazole; LC-ESI-ITFT; MS2; CE: 105%; R=15000; [M+H]+
Name: Sulfamethoxazole
Name: 4-amino-N-(5-methyl-1,2-oxazol-3-yl)benzenesulfonamide
Formula: C10H11N3O3S
Exact mass: 253.0521
SMILES: CC1=CC(=NO1)NS(=O)(=O)C2=CC=C(C=C2)N
InChI: InChI=1S/C10H11N3O3S/c1-7-6-10(12-16-7)13-17(14,15)9-4-2-8(11)3-5-9/h2-6H,11H2,1H3,(H,12,13)
Instrument: LTQ Orbitrap XL Thermo Scientific
Instrument type: LC-ESI-ITFT
Ms type: MS2
Ion mode: POSITIVE
Ionization: ESI
Fragmentation mode: HCD
Collision energy: 105% (nominal)
Resolution: 15000
Column name: Kinetex Evo C18 2.6 um 50 x 2.1 mm
Retention time: 5.629 min
Base peak: 189.1022
Precursor m/z: 254.0594
Precursor type: [M+H]+
m/z	relative intensity	assigned
65.0383	993	C5H5+
66.0336	10	C4H4N+
66.0462	7	C5H6+
72.0442	13	C3H6NO+
79.0413	2	C5H5N+
80.0494	341	C5H6N+
92.0494	999	C6H6N+
93.0572	253	C6H7N+
94.065	7	C6H8N+
99.0552	60	C4H7N2O+
105.0448	6	C6H5N2+
106.0526	6	C6H6N2+
107.0603	19	C6H7N2+
108.0443	652	C6H6NO+
110.0599	95	C6H8NO+
118.0522	4	C7H6N2+
119.0601	9	C7H7N2+
131.0601	4	C8H7N2+
132.0682	5	C8H8N2+
133.063	3	C7H7N3+
143.0607	5	C9H7N2+
146.0712	28	C8H8N3+
147.079	10	C8H9N3+
169.0049	3	C4H3N5OS+
