Mass spectrum: Azoxystrobin-OH (TENTATIVE); LC-ESI-QFT; MS2; CE: 30%; R=70000; [M+H]+
Name: Azoxystrobin-OH
Formula: C22H17N3O6
Exact mass: 419.1102
SMILES: C(*)OC=C(C1=C(*)C(*)=C(*)C(*)=C1OC2=NC(*)=NC(=C(*)2)OC3=C(*)C(*)=C(*)C(*)=C3C#N)C(=O)OC(*) *= [OH (n=1) & H(n=11)]
Instrument: Q Exactive Plus Orbitrap Thermo Scientific
Instrument type: LC-ESI-QFT
Ms type: MS2
Ion mode: POSITIVE
Ionization: ESI
Fragmentation mode: HCD
Collision energy: 30% (nominal)
Resolution: 70000
Column name: Waters UPLC BEH C18 1.7 um 2.1 mm x 100 mm with pre-column
Retention time: 12.36 min
Precursor m/z: 420.118
Precursor type: [M+H]+
m/z	relative intensity
107.0491	5
129.0445	7
134.0601	36
143.06	20
161.0227	8
162.0545	13
172.0387	7
187.0499	14
188.034	45
193.0497	10
199.0497	11
201.0659	39
202.0494	10
210.0665	29
213.0654	10
217.0358	9
226.0365	8
232.0603	60
252.0759	22
290.0799	6
300.0765	7
301.0842	21
303.0761	33
304.0595	7
304.1073	7
305.0915	15
314.0922	7
316.0713	11
317.0777	30
319.0709	42
328.0712	14
329.0556	13
331.0713	12
331.095	18
332.1029	93
333.087	29
342.0866	13
344.0661	9
344.1028	5
345.0741	435
356.0657	9
360.0974	999
388.0924	690
