Mass spectrum: Tetracycline; LC-ESI-ITFT; MS2; CE: 95%; R=15000; [M+H]+
Name: Tetracycline
Name: 2-[amino(hydroxy)methylidene]-4-(dimethylamino)-6,10,11,12a-tetrahydroxy-6-methyl-4,4a,5,5a-tetrahydrotetracene-1,3,12-trione
Formula: C22H24N2O8
Exact mass: 444.1533
SMILES: [H][C@@]12C[C@@]3([H])C(=C(O)[C@]1(O)C(=O)C(C(N)=O)=C(O)[C@H]2N(C)C)C(=O)C1=C(C=CC=C1O)[C@@]3(C)O
InChI: InChI=1S/C22H24N2O8/c1-21(31)8-5-4-6-11(25)12(8)16(26)13-9(21)7-10-15(24(2)3)17(27)14(20(23)30)19(29)22(10,32)18(13)28/h4-6,9-10,15,25,27-28,31-32H,7H2,1-3H3,(H2,23,30)/t9-,10-,15-,21+,22-/m0/s1
Instrument: LTQ Orbitrap XL Thermo Scientific
Instrument type: LC-ESI-ITFT
Ms type: MS2
Ion mode: POSITIVE
Ionization: ESI
Fragmentation mode: HCD
Collision energy: 95% (nominal)
Resolution: 15000
Column name: Kinetex Evo C18 2.6 um 50 x 2.1 mm
Retention time: 2.884 min
Base peak: 300.1475
Precursor m/z: 445.1605
Precursor type: [M+H]+
m/z	relative intensity	assigned
58.0649	48	C3H8N+
68.9972	25	C3HO2+
70.065	161	C4H8N+
86.0599	46	C4H8NO+
98.06	487	C5H8NO+
131.0492	28	C9H7O+
152.0621	108	C12H8+
165.0698	85	C13H9+
167.0855	82	C13H11+
168.0569	232	C12H8O+
177.0698	60	C14H9+
178.0782	27	C14H10+
180.0569	106	C13H8O+
181.0647	40	C13H9O+
195.0804	193	C14H11O+
196.0519	276	C13H8O2+
197.0593	71	C13H9O2+
198.0672	99	C13H10O2+
205.0647	53	C15H9O+
207.0797	36	C15H11O+
208.0522	47	C14H8O2+
211.0758	78	C14H11O2+
220.0525	46	C15H8O2+
221.0591	21	C15H9O2+
223.0752	117	C15H11O2+
224.0468	138	C14H8O3+
226.0624	999	C14H10O3+
236.0471	21	C15H8O3+
238.0616	44	C15H10O3+
239.0699	28	C15H11O3+
241.0853	34	C15H13O3+
242.0575	86	C14H10O4+
250.0631	28	C16H10O3+
252.0418	249	C15H8O4+
254.0565	37	C15H10O4+
278.0575	79	C17H10O4+
