Mass spectrum: Dehydrocyclopeptine; LC-ESI-ITFT; MS2; CE: 50%; R=7500; [M+H]+
Name: Dehydrocyclopeptine
Name: 1H-1,4-Benzodiazepine-2,5-dione, 3-benzylidene-3,4-dihydro-4-methyl-
Name: 3-benzylidene-4-methyl-1H-1,4-benzodiazepine-2,5-dione
Formula: C17H14N2O2
Exact mass: 278.1055
SMILES: CN1C(=CC2=CC=CC=C2)C(=O)NC3=CC=CC=C3C1=O
InChI: InChI=1S/C17H14N2O2/c1-19-15(11-12-7-3-2-4-8-12)16(20)18-14-10-6-5-9-13(14)17(19)21/h2-11H,1H3,(H,18,20)
Instrument: LTQ Orbitrap XL Thermo Scientific
Instrument type: LC-ESI-ITFT
Ms type: MS2
Ion mode: POSITIVE
Ionization: ESI
Fragmentation mode: HCD
Collision energy: 50 % (nominal)
Resolution: 7500
Column name: Hypersil GOLD C18 1.9 um 100 x 2.1 mm Thermo Fisher Scientific
Retention time: 17.696 min
Base peak: 279.1136
Precursor m/z: 279.1128
Precursor type: [M+H]+
Precursor intensity: 9269127.76416
m/z	relative intensity	assigned
91.0544	101	C7H7+
105.0702	3	C8H9+
115.0544	6	C9H7+
117.0576	4	C8H7N+
120.0447	284	C7H6NO+
130.0654	17	C9H8N+
132.081	372	C9H10N+
148.0397	21	C8H6NO2+
158.0601	13	C10H8NO+
160.076	7	C10H10NO+
161.0713	62	C9H9N2O+
173.0709	2	C10H9N2O+
175.0505	10	C9H7N2O2+
186.0553	4	C11H8NO2+
187.0502	4	C10H7N2O2+
194.0969	14	C14H12N+
220.0763	9	C15H10NO+
222.092	18	C15H12NO+
232.0755	5	C16H10NO+
233.1082	3	C16H13N2+
234.0909	2	C16H12NO+
238.0867	10	C15H12NO2+
246.0777	1	C16H10N2O+
248.0717	7	C16H10NO2+
251.1183	48	C16H15N2O+
261.1025	64	C17H13N2O+
264.0906	1	C16H12N2O2+
279.1133	999	C17H15N2O2+
