Mass spectrum: Tetracycline; LC-ESI-ITFT; MS2; CE: 115%; R=15000; [M+H]+
Name: Tetracycline
Name: 2-[amino(hydroxy)methylidene]-4-(dimethylamino)-6,10,11,12a-tetrahydroxy-6-methyl-4,4a,5,5a-tetrahydrotetracene-1,3,12-trione
Formula: C22H24N2O8
Exact mass: 444.1533
SMILES: [H][C@@]12C[C@@]3([H])C(=C(O)[C@]1(O)C(=O)C(C(N)=O)=C(O)[C@H]2N(C)C)C(=O)C1=C(C=CC=C1O)[C@@]3(C)O
InChI: InChI=1S/C22H24N2O8/c1-21(31)8-5-4-6-11(25)12(8)16(26)13-9(21)7-10-15(24(2)3)17(27)14(20(23)30)19(29)22(10,32)18(13)28/h4-6,9-10,15,25,27-28,31-32H,7H2,1-3H3,(H2,23,30)/t9-,10-,15-,21+,22-/m0/s1
Instrument: LTQ Orbitrap XL Thermo Scientific
Instrument type: LC-ESI-ITFT
Ms type: MS2
Ion mode: POSITIVE
Ionization: ESI
Fragmentation mode: HCD
Collision energy: 115% (nominal)
Resolution: 15000
Column name: Kinetex Evo C18 2.6 um 50 x 2.1 mm
Retention time: 2.884 min
Base peak: 300.1476
Precursor m/z: 445.1605
Precursor type: [M+H]+
m/z	relative intensity	assigned
58.0649	101	C3H8N+
70.0649	191	C4H8N+
98.06	277	C5H8NO+
115.0543	99	C9H7+
140.062	113	C11H8+
141.0698	67	C11H9+
152.062	722	C12H8+
165.0698	307	C13H9+
167.0863	93	C13H11+
168.0569	999	C12H8O+
169.0649	99	C12H9O+
170.0729	59	C12H10O+
176.0622	261	C14H8+
177.0704	97	C14H9+
180.0571	438	C13H8O+
181.0645	115	C13H9O+
189.0699	152	C15H9+
192.0569	87	C14H8O+
195.0811	87	C14H11O+
196.0519	321	C13H8O2+
197.0594	232	C13H9O2+
198.0674	136	C13H10O2+
204.0569	108	C15H8O+
208.0512	79	C14H8O2+
224.0457	64	C14H8O3+
226.0623	754	C14H10O3+
