Mass spectrum: Deoxynivalenol; LC-ESI-ITFT; MS2; CE: 20%; R=7500; [M+H]+
Name: Deoxynivalenol
Name: Vomitoxin
Name: 3,10-dihydroxy-2-(hydroxymethyl)-1,5-dimethylspiro[8-oxatricyclo[7.2.1.02,7]dodec-5-ene-12,2`-oxirane]-4-one
Formula: C15H20O6
Exact mass: 296.1260
SMILES: CC1=CC2C(C(C1=O)O)(C3(CC(C(C34CO4)O2)O)C)CO
InChI: InChI=1S/C15H20O6/c1-7-3-9-14(5-16,11(19)10(7)18)13(2)4-8(17)12(21-9)15(13)6-20-15/h3,8-9,11-12,16-17,19H,4-6H2,1-2H3
Instrument: LTQ Orbitrap XL Thermo Scientific
Instrument type: LC-ESI-ITFT
Ms type: MS2
Ion mode: POSITIVE
Ionization: ESI
Fragmentation mode: HCD
Collision energy: 20 % (nominal)
Resolution: 7500
Column name: Hypersil GOLD C18 1.9 um 100 x 2.1 mm Thermo Fisher Scientific
Retention time: 5.905 min
Base peak: 297.1329
Precursor m/z: 297.1333
Precursor type: [M+H]+
Precursor intensity: 2430230.662842
m/z	relative intensity	assigned
203.1067	67	C13H15O2+
219.1012	39	C13H15O3+
231.1009	144	C14H15O3+
249.1114	276	C14H17O4+
251.1278	43	C14H19O4+
261.1127	96	C15H17O4+
279.1219	107	C15H19O5+
297.1329	999	C15H21O6+
