Mass spectrum: Etofylline; LC-ESI-QTOF; MS2; CE: 5 eV; R=3600; [M+H]+
Name: Etofylline
Name: 7-(2-Hydroxyethyl)-1,3-dimethyl-3,7-dihydro-1H-purine-2,6-dione
Formula: C9H12N4O3
Exact mass: 224.0909
SMILES: CN1C2=C(N(CCO)C=N2)C(=O)N(C)C1=O
InChI: InChI=1S/C9H12N4O3/c1-11-7-6(8(15)12(2)9(11)16)13(3-4-14)5-10-7/h5,14H,3-4H2,1-2H3
Instrument: 6610 QTOF Agilent
Instrument type: LC-ESI-QTOF
Ms type: MS2
Ion mode: POSITIVE
Ionization: ESI
Fragmentation mode: CID
Collision energy: 5 eV
Resolution: 3600
Precursor m/z: 225.0983
Precursor type: [M+H]+
m/z	relative intensity
54.018	11
54.0474	2
56.0496	4
66.0286	3
68.0465	12
69.0395	123
72.0411	80
73.0499	20
80.0458	3
81.0418	11
92.0579	15
94.0396	28
95.055	49
96.0526	156
106.0296	12
110.0645	10
113.0668	26
120.0481	6
122.0536	22
124.0441	685
125.0476	32
137.0731	16
140.077	79
150.0609	18
163.0869	19
168.0676	112
169.0719	12
181.0641	881
182.0649	47
207.0804	58
209.0233	19
225.0983	999
