Mass spectrum: Desipramine; LC-ESI-ITFT; MS2; CE: 45%; R=7500; [M+H]+
Name: Desipramine
Name: 3-(10,11-Dihydro-5H-dibenzo[b,f]azepin-5-yl)-N-methylpropan-1-amine
Formula: C18H22N2
Exact mass: 266.1783
SMILES: CNCCCN1C2=C(CCC3=C1C=CC=C3)C=CC=C2
InChI: InChI=1S/C18H22N2/c1-19-13-6-14-20-17-9-4-2-7-15(17)11-12-16-8-3-5-10-18(16)20/h2-5,7-10,19H,6,11-14H2,1H3
Instrument: LTQ Orbitrap XL Thermo Fisher Scientific
Instrument type: LC-ESI-ITFT
Ms type: MS2
Ion mode: POSITIVE
Ionization: ESI
Fragmentation mode: HCD
Collision energy: 45% (nominal)
Resolution: 7500
Column name: Hypersil GOLD C18 1.9 um 100 x 2.1 mm Thermo Fisher Scientific
Precursor m/z: 267.1856
Precursor type: [M+H]+
m/z	relative intensity
57.0666	1
57.0703	2
57.0787	2
57.1408	2
57.1496	2
72.0806	999
89.0226	1
195.1045	11
196.1121	18
208.1122	201
236.1438	88
267.1856	27
