Mass spectrum: Sulfamethoxazole; LC-ESI-ITFT; MS2; CE: 130%; R=15000; [M+H]+
Name: Sulfamethoxazole
Name: 4-amino-N-(5-methyl-1,2-oxazol-3-yl)benzenesulfonamide
Formula: C10H11N3O3S
Exact mass: 253.0521
SMILES: CC1=CC(=NO1)NS(=O)(=O)C2=CC=C(C=C2)N
InChI: InChI=1S/C10H11N3O3S/c1-7-6-10(12-16-7)13-17(14,15)9-4-2-8(11)3-5-9/h2-6H,11H2,1H3,(H,12,13)
Instrument: LTQ Orbitrap XL Thermo Scientific
Instrument type: LC-ESI-ITFT
Ms type: MS2
Ion mode: POSITIVE
Ionization: ESI
Fragmentation mode: HCD
Collision energy: 130% (nominal)
Resolution: 15000
Column name: Kinetex Evo C18 2.6 um 50 x 2.1 mm
Retention time: 5.622 min
Base peak: 189.1024
Precursor m/z: 254.0594
Precursor type: [M+H]+
m/z	relative intensity	assigned
63.0228	2	C5H3+
65.0384	999	C5H5+
66.0336	20	C4H4N+
66.0462	23	C5H6+
67.0415	1	C4H5N+
77.0386	3	C6H5+
79.0417	3	C5H5N+
80.0494	391	C5H6N+
90.034	5	C6H4N+
91.0415	3	C6H5N+
92.0495	291	C6H6N+
93.0573	128	C6H7N+
94.0652	1	C6H8N+
99.0553	8	C4H7N2O+
104.0494	3	C7H6N+
105.0448	9	C6H5N2+
107.0603	5	C6H7N2+
108.0444	186	C6H6NO+
110.0601	21	C6H8NO+
118.0523	4	C7H6N2+
119.0602	4	C7H7N2+
131.0601	2	C8H7N2+
146.0712	11	C8H8N3+
