Mass spectrum: Cyclopenin; LC-ESI-ITFT; MS2; CE: 30%; R=7500; [M+H]+
Name: Cyclopenin
Name: 4-methyl-3`-phenylspiro[1H-1,4-benzodiazepine-3,2`-oxirane]-2,5-dione
Formula: C17H14N2O3
Exact mass: 294.1004
SMILES: CN1C(=O)C2=CC=CC=C2NC(=O)C13C(O3)C4=CC=CC=C4
InChI: InChI=1S/C17H14N2O3/c1-19-15(20)12-9-5-6-10-13(12)18-16(21)17(19)14(22-17)11-7-3-2-4-8-11/h2-10,14H,1H3,(H,18,21)
Instrument: LTQ Orbitrap XL Thermo Scientific
Instrument type: LC-ESI-ITFT
Ms type: MS2
Ion mode: POSITIVE
Ionization: ESI
Fragmentation mode: HCD
Collision energy: 30 % (nominal)
Resolution: 7500
Column name: Hypersil GOLD C18 1.9 um 100 x 2.1 mm Thermo Fisher Scientific
Retention time: 15.046 min
Base peak: 295.1086
Precursor m/z: 295.1077
Precursor type: [M+H]+
Precursor intensity: 25511948.48047
m/z	relative intensity	assigned
105.0334	3	C7H5O+
118.0649	5	C8H8N+
120.0445	130	C7H6NO+
120.0811	12	C8H10N+
132.0445	24	C8H6NO+
132.0809	7	C9H10N+
145.0287	4	C9H5O2+
146.0238	539	C8H4NO2+
148.0759	2	C9H10NO+
158.0606	1	C10H8NO+
159.0559	1	C9H7N2O+
161.0711	10	C9H9N2O+
177.0659	999	C9H9N2O2+
182.0964	21	C13H12N+
194.0964	1	C14H12N+
208.0758	48	C14H10NO+
210.0916	27	C14H12NO+
220.075	2	C15H10NO+
221.108	1	C15H13N2+
223.1233	10	C15H15N2+
236.0709	118	C15H10NO2+
238.0869	11	C15H12NO2+
239.118	25	C15H15N2O+
249.1022	13	C16H13N2O+
251.1177	11	C16H15N2O+
254.0821	2	C15H12NO3+
264.0656	37	C16H10NO3+
267.1128	28	C16H15N2O2+
277.0974	3	C17H13N2O2+
295.1079	65	C17H15N2O3+
