Mass spectrum: Antipyrine; LC-ESI-ITFT; MS2; CE: 60%; R=15000; [M+H]+
Name: Antipyrine
Name: 1,5-dimethyl-2-phenylpyrazol-3-one
Formula: C11H12N2O
Exact mass: 188.0950
SMILES: CC1=CC(=O)N(N1C)C2=CC=CC=C2
InChI: InChI=1S/C11H12N2O/c1-9-8-11(14)13(12(9)2)10-6-4-3-5-7-10/h3-8H,1-2H3
Instrument: LTQ Orbitrap XL Thermo Scientific
Instrument type: LC-ESI-ITFT
Ms type: MS2
Ion mode: POSITIVE
Ionization: ESI
Fragmentation mode: CID
Collision energy: 60% (nominal)
Resolution: 15000
Column name: Kinetex Evo C18 2.6 um 50 x 2.1 mm
Retention time: 5.661 min
Base peak: 189.1022
Precursor m/z: 189.1022
Precursor type: [M+H]+
m/z	relative intensity	assigned
55.054	6	C4H7+
56.0493	13	C3H6N+
58.0649	36	C3H8N+
77.0385	4	C6H5+
86.0601	6	C4H8NO+
91.0543	25	C7H7+
94.065	6	C6H8N+
95.0602	7	C5H7N2+
96.0444	24	C5H6NO+
96.0682	32	C5H8N2+
98.0596	4	C5H8NO+
103.0542	20	C8H7+
104.0495	62	C7H6N+
105.0336	6	C7H5O+
105.07	19	C8H9+
106.0649	15	C7H8N+
111.0554	28	C5H7N2O+
115.0542	11	C9H7+
117.0574	35	C8H7N+
117.0699	35	C9H9+
118.0651	236	C8H8N+
119.0602	5	C7H7N2+
120.0808	248	C8H10N+
129.0701	27	C10H9+
130.0652	367	C9H8N+
131.073	999	C9H9N+
132.0808	242	C9H10N+
133.0522	18	C8H7NO+
133.076	114	C8H9N2+
134.0966	22	C9H12N+
135.0554	43	C7H7N2O+
144.0809	831	C10H10N+
145.0649	93	C10H9O+
145.0758	8	C9H9N2+
145.0885	22	C10H11N+
146.0839	646	C9H10N2+
146.0964	492	C10H12N+
147.0917	592	C9H11N2+
148.0757	134	C9H10NO+
149.0709	24	C8H9N2O+
154.0652	9	C11H8N+
157.052	9	C10H7NO+
158.0602	52	C10H8NO+
159.0918	16	C10H11N2+
160.0995	28	C10H12N2+
161.1073	827	C10H13N2+
162.0913	36	C10H12NO+
171.0916	22	C11H11N2+
172.0757	382	C11H10NO+
174.0788	364	C10H10N2O+
189.1023	275	C11H13N2O+
