Mass spectrum: Cyclopenin; LC-ESI-ITFT; MS2; CE: 20%; R=7500; [M-H]-
Name: Cyclopenin
Name: 4-methyl-3`-phenylspiro[1H-1,4-benzodiazepine-3,2`-oxirane]-2,5-dione
Formula: C17H14N2O3
Exact mass: 294.10044
SMILES: CN1C(=O)C2=CC=CC=C2NC(=O)C13C(O3)C4=CC=CC=C4
InChI: InChI=1S/C17H14N2O3/c1-19-15(20)12-9-5-6-10-13(12)18-16(21)17(19)14(22-17)11-7-3-2-4-8-11/h2-10,14H,1H3,(H,18,21)
Instrument: LTQ Orbitrap XL Thermo Scientific
Instrument type: LC-ESI-ITFT
Ms type: MS2
Ion mode: NEGATIVE
Ionization: ESI
Fragmentation mode: HCD
Collision energy: 20 % (nominal)
Resolution: 7500
Column name: Hypersil GOLD C18 1.9 um 100 x 2.1 mm Thermo Fisher Scientific
Retention time: 15.052 min
Base peak: 293.0936
Precursor m/z: 293.0932
Precursor type: [M-H]-
Precursor intensity: 21192973.17993
m/z	relative intensity	assigned
102.035	30	C7H4N-
121.0298	15	C7H5O2-
131.0617	2	C8H7N2-
146.0613	2	C9H8NO-
149.072	4	C8H9N2O-
159.0565	379	C9H7N2O-
175.0515	18	C9H7N2O2-
177.0672	5	C9H9N2O2-
187.0514	8	C10H7N2O2-
208.0769	10	C14H10NO-
222.0926	54	C15H12NO-
236.0719	111	C15H10NO2-
249.1034	42	C16H13N2O-
250.0874	53	C16H12NO2-
293.0932	999	C17H13N2O3-
