Mass spectrum: Verrucarin A; LC-ESI-ITFT; MS2; CE: 60%; R=7500; [M+H]+
Name: Verrucarin A
Name: Muconomycin A
Name: 12-hydroxy-5,13,25-trimethylspiro[2,10,16,23-tetraoxatetracyclo[22.2.1.03,8.08,25]heptacosa-4,18,20-triene-26,2`-oxirane]-11,17,22-trione
Formula: C27H34O9
Exact mass: 502.2203
SMILES: CC1CCOC(=O)C=CC=CC(=O)OC2CC3C4(C2(C5(CCC(=CC5O3)C)COC(=O)C1O)C)CO4
InChI: InChI=1S/C27H34O9/c1-16-8-10-26-14-33-24(31)23(30)17(2)9-11-32-21(28)6-4-5-7-22(29)36-18-13-20(35-19(26)12-16)27(15-34-27)25(18,26)3/h4-7,12,17-20,23,30H,8-11,13-15H2,1-3H3
Instrument: LTQ Orbitrap XL Thermo Scientific
Instrument type: LC-ESI-ITFT
Ms type: MS2
Ion mode: POSITIVE
Ionization: ESI
Fragmentation mode: HCD
Collision energy: 60 % (nominal)
Resolution: 7500
Column name: Hypersil GOLD C18 1.9 um 100 x 2.1 mm Thermo Fisher Scientific
Retention time: 19.599 min
Base peak: 503.2284
Precursor m/z: 503.2276
Precursor type: [M+H]+
Precursor intensity: 5459707.901123
m/z	relative intensity	assigned
56.0259	439	C3H4O+
81.07	426	C6H9+
105.0703	508	C8H9+
123.0804	999	C8H11O+
143.0855	675	C11H11+
157.1015	792	C12H13+
161.0959	530	C11H13O+
185.1324	932	C14H17+
231.1391	767	C15H19O2+
352.1465	652	C25H20O2+
