Mass spectrum: Penicillic acid; LC-ESI-ITFT; MS2; CE: 60%; R=7500; [M+H]+
Name: Penicillic acid
Name: 3-methoxy-5-methyl-4-oxohexa-2,5-dienoic acid
Formula: C8H10O4
Exact mass: 170.0579
SMILES: CC(=C)C(=O)C(=CC(=O)O)OC
InChI: InChI=1S/C8H10O4/c1-5(2)8(11)6(12-3)4-7(9)10/h4H,1H2,2-3H3,(H,9,10)
Instrument: LTQ Orbitrap XL Thermo Scientific
Instrument type: LC-ESI-ITFT
Ms type: MS2
Ion mode: POSITIVE
Ionization: ESI
Fragmentation mode: HCD
Collision energy: 60 % (nominal)
Resolution: 7500
Column name: Hypersil GOLD C18 1.9 um 100 x 2.1 mm Thermo Fisher Scientific
Retention time: 8.509 min
Base peak: 171.065
Precursor m/z: 171.0652
Precursor type: [M+H]+
Precursor intensity: 9314653.657715
m/z	relative intensity	assigned
65.0383	8	C5H5+
67.0539	10	C5H7+
69.0696	4	C5H9+
79.054	5	C6H7+
82.0413	6	C5H6O+
83.0489	15	C5H7O+
93.0333	16	C6H5O+
94.0411	26	C6H6O+
95.049	10	C6H7O+
97.0646	69	C6H9O+
110.0361	14	C6H6O2+
111.0438	74	C6H7O2+
112.0517	92	C6H8O2+
121.0282	31	C7H5O2+
125.0595	999	C7H9O2+
126.0672	9	C7H10O2+
127.075	20	C7H11O2+
129.0543	8	C6H9O3+
139.0389	11	C7H7O3+
143.0698	2	C7H11O3+
153.0544	78	C8H9O3+
157.0497	2	C7H9O4+
171.0648	256	C8H11O4+
