Mass spectrum: 3 Acetyldeoxynivalenol; LC-ESI-ITFT; MS2; CE: 40%; R=7500; [M+H]+
Name: 3 Acetyldeoxynivalenol
Name: Acetyldeoxynivalenol
Name: [3-hydroxy-2-(hydroxymethyl)-1,5-dimethyl-4-oxospiro[8-oxatricyclo[7.2.1.02,7]dodec-5-ene-12,2`-oxirane]-10-yl] acetate
Formula: C17H22O7
Exact mass: 338.1366
SMILES: CC1=CC2C(C(C1=O)O)(C3(CC(C(C34CO4)O2)OC(=O)C)C)CO
InChI: InChI=1S/C17H22O7/c1-8-4-11-16(6-18,13(21)12(8)20)15(3)5-10(23-9(2)19)14(24-11)17(15)7-22-17/h4,10-11,13-14,18,21H,5-7H2,1-3H3
Instrument: LTQ Orbitrap XL Thermo Scientific
Instrument type: LC-ESI-ITFT
Ms type: MS2
Ion mode: POSITIVE
Ionization: ESI
Fragmentation mode: HCD
Collision energy: 40 % (nominal)
Resolution: 7500
Column name: Hypersil GOLD C18 1.9 um 100 x 2.1 mm Thermo Fisher Scientific
Retention time: 10.782 min
Base peak: 339.1435
Precursor m/z: 339.1438
Precursor type: [M+H]+
Precursor intensity: 14418024.08105
m/z	relative intensity	assigned
81.0698	4	C6H9+
97.0643	3	C6H9O+
107.0491	7	C7H7O+
109.0647	27	C7H9O+
123.044	6	C7H7O2+
125.0596	51	C7H9O2+
135.0441	5	C8H7O2+
137.0595	79	C8H9O2+
153.0544	30	C8H9O3+
157.1006	3	C12H13+
159.0799	10	C11H11O+
159.1165	7	C12H15+
161.0598	6	C10H9O2+
161.0967	4	C11H13O+
163.0749	21	C10H11O2+
171.0808	4	C12H11O+
173.0964	15	C12H13O+
175.0753	52	C11H11O2+
175.112	4	C12H15O+
177.0907	9	C11H13O2+
179.0704	17	C10H11O3+
183.0798	4	C13H11O+
185.096	18	C13H13O+
187.1115	35	C13H15O+
189.0908	99	C12H13O2+
191.106	3	C12H15O2+
193.0861	14	C11H13O3+
197.0958	24	C14H13O+
201.0908	91	C13H13O2+
203.1063	174	C13H15O2+
205.0857	18	C12H13O3+
213.0909	235	C14H13O2+
215.1065	138	C14H15O2+
217.0863	7	C13H13O3+
219.1012	52	C13H15O3+
221.1173	9	C13H17O3+
223.0961	32	C12H15O4+
225.0906	21	C15H13O2+
231.1013	632	C14H15O3+
233.1171	40	C14H17O3+
243.101	131	C15H15O3+
249.1116	69	C14H17O4+
261.1118	195	C15H17O4+
279.1222	381	C15H19O5+
293.1373	14	C16H21O5+
297.1329	150	C15H21O6+
321.1328	162	C17H21O6+
339.1435	999	C17H23O7+
