Mass spectrum: Aspergillin PZ; LC-ESI-ITFT; MS2; CE: 40%; R=7500; [M+H]+
Name: Aspergillin PZ
Name: 16-hydroxy-1,5,6-trimethyl-8-(2-methylpropyl)-19-oxa-9-azapentacyclo[13.3.1.02,14.03,11.07,11]nonadec-4-ene-10,12-dione
Formula: C24H35NO4
Exact mass: 401.2566
SMILES: CC1C2C(NC(=O)C23C(C=C1C)C4C(CC3=O)C5C(CCC4(O5)C)O)CC(C)C
InChI: InChI=1S/C24H35NO4/c1-11(2)8-16-19-13(4)12(3)9-15-20-14(10-18(27)24(15,19)22(28)25-16)21-17(26)6-7-23(20,5)29-21/h9,11,13-17,19-21,26H,6-8,10H2,1-5H3,(H,25,28)
Instrument: LTQ Orbitrap XL Thermo Scientific
Instrument type: LC-ESI-ITFT
Ms type: MS2
Ion mode: POSITIVE
Ionization: ESI
Fragmentation mode: HCD
Collision energy: 40 % (nominal)
Resolution: 7500
Column name: Hypersil GOLD C18 1.9 um 100 x 2.1 mm Thermo Fisher Scientific
Retention time: 21.677 min
Base peak: 402.2649
Precursor m/z: 402.2639
Precursor type: [M+H]+
Precursor intensity: 7960247.711426
m/z	relative intensity	assigned
95.0857	33	C7H11+
96.0448	56	C5H6NO+
99.044	55	C5H7O2+
119.0857	99	C9H11+
133.1008	44	C10H13+
138.0913	368	C8H12NO+
140.1067	55	C8H14NO+
145.1013	109	C11H13+
157.1011	90	C12H13+
159.1161	47	C12H15+
161.1326	224	C12H17+
166.0863	718	C9H12NO2+
166.122	48	C10H16NO+
169.102	45	C13H13+
171.1166	50	C13H15+
173.0958	85	C12H13O+
175.1482	37	C13H19+
179.1429	72	C12H19O+
180.1012	55	C10H14NO2+
182.1175	152	C10H16NO2+
183.117	34	C14H15+
185.0965	64	C13H13O+
185.1326	163	C14H17+
195.1177	46	C15H15+
199.1484	68	C15H19+
206.1168	107	C12H16NO2+
209.1321	48	C16H17+
213.1279	253	C15H17O+
219.1746	48	C15H23O+
220.1701	271	C14H22NO+
225.1631	97	C17H21+
227.1425	113	C16H19O+
230.1551	41	C15H20NO+
244.1704	37	C16H22NO+
245.154	155	C16H21O2+
253.1588	297	C18H21O+
268.1695	49	C18H22NO+
270.1852	313	C18H24NO+
271.1693	184	C18H23O2+
272.2011	46	C18H26NO+
284.2008	178	C19H26NO+
286.216	50	C19H28NO+
300.1957	547	C19H26NO2+
308.2021	76	C21H26NO+
324.2324	402	C22H30NO+
338.2475	273	C23H32NO+
342.2427	180	C22H32NO2+
348.2328	233	C24H30NO+
356.2585	94	C23H34NO2+
359.2592	56	C23H35O3+
366.2432	695	C24H32NO2+
384.2535	999	C24H34NO3+
402.2643	459	C24H36NO4+
