Mass spectrum: Dibucaine; ESI-QTOF; MS2; CE: 50eV; R=15000; [M+H]+
Name: Dibucaine
Name: 2-Butoxy-N-[2-(diethylamino)ethyl]quinoline-4-carboxamide
Formula: C20H29N3O2
Exact mass: 343.226
SMILES: CCCCOC1=CC(C(=O)NCCN(CC)CC)=C2C=CC=CC2=N1
InChI: InChI=1S/C20H29N3O2/c1-4-7-14-25-19-15-17(16-10-8-9-11-18(16)22-19)20(24)21-12-13-23(5-2)6-3/h8-11,15H,4-7,12-14H2,1-3H3,(H,21,24)
Instrument: TripleTOF 5600+SCIEX
Instrument type: ESI-QTOF
Ms type: MS2
Ion mode: POSITIVE
Ionization: ESI
Fragmentation mode: CID
Collision energy: 50 eV
Resolution: 15000
Precursor m/z: 344.2333
Precursor type: [M+H]+
m/z	relative intensity
55.057	1
57.0725	21
62.0173	1
63.0252	1
67.0557	1
69.0717	2
70.0309	2
72.0829	8
74.0983	17
77.0405	1
79.0562	1
81.0711	1
83.0507	1
86.0979	2
88.0769	1
89.04	17
91.0557	1
93.0709	1
97.0657	1
100.1131	29
101.0396	1
103.0554	1
104.0505	1
107.05	1
115.055	4
116.0505	999
117.0581	3
118.0659	5
125.0283	1
126.0344	2
127.0548	1
128.0503	22
129.071	1
130.0661	18
131.0737	1
132.0452	7
135.0814	1
140.0503	1
142.066	6
143.0612	7
144.0453	673
145.0531	18
146.0607	38
152.0504	5
153.0455	47
154.066	4
155.0741	1
156.0817	3
157.0896	7
158.0609	26
159.0686	5
160.0765	13
166.066	1
167.0742	6
168.0812	2
169.0769	9
170.0609	16
171.0562	152
172.0403	520
173.0846	2
174.0548	1
180.0815	1
181.0891	1
182.0976	10
183.1052	6
184.1121	1
185.0847	2
186.0798	4
187.0876	39
197.1206	1
198.1284	3
199.1241	5
200.1082	23
202.1239	8
209.1087	1
215.0828	861
223.124	1
225.14	6
227.1194	28
228.1032	46
243.1507	12
271.146	180
