Mass spectrum: Metoclopramide; ESI-QTOF; MS2; CE: 50eV; R=15000; [M+H]+
Name: Metoclopramide
Name: 4-Amino-5-chloro-N-[2-(diethylamino)ethyl]-2-methoxybenzamide
Formula: C14H22ClN3O2
Exact mass: 299.1401
SMILES: CCN(CC)CCNC(=O)C1=CC(Cl)=C(N)C=C1OC
InChI: InChI=1S/C14H22ClN3O2/c1-4-18(5-2)7-6-17-14(19)10-8-11(15)12(16)9-13(10)20-3/h8-9H,4-7,16H2,1-3H3,(H,17,19)
Instrument: TripleTOF 5600+SCIEX
Instrument type: ESI-QTOF
Ms type: MS2
Ion mode: POSITIVE
Ionization: ESI
Fragmentation mode: CID
Collision energy: 50 eV
Resolution: 15000
Precursor m/z: 300.1474
Precursor type: [M+H]+
m/z	relative intensity
63.0246	1
65.04	1
72.0819	1
78.0347	4
90.0342	15
92.0497	2
93.0575	8
98.9996	3
100.112	3
105.0445	2
110.9992	1
113.0024	43
114.01	1
119.0598	2
120.0438	8
121.0517	1
126.0098	37
127.0176	1
128.0254	14
129.0093	7
140.0128	3
140.9969	144
147.0544	4
148.0621	23
154.0044	12
155.0123	1
156.02	52
168.0076	121
168.9914	61
169.9992	17
183.0311	113
184.0154	999
212.034	160
227.0573	87
