Mass spectrum: Etofylline; ESI-QTOF; MS2; CE: 50eV; R=15000; [M+H]+
Name: Etofylline
Name: 7-(2-Hydroxyethyl)-1,3-dimethyl-3,7-dihydro-1H-purine-2,6-dione
Formula: C9H12N4O3
Exact mass: 224.0909
SMILES: CN1C2=C(N(CCO)C=N2)C(=O)N(C)C1=O
InChI: InChI=1S/C9H12N4O3/c1-11-7-6(8(15)12(2)9(11)16)13(3-4-14)5-10-7/h5,14H,3-4H2,1-2H3
Instrument: TripleTOF 5600+SCIEX
Instrument type: ESI-QTOF
Ms type: MS2
Ion mode: POSITIVE
Ionization: ESI
Fragmentation mode: CID
Collision energy: 50 eV
Resolution: 15000
Precursor m/z: 225.0983
Precursor type: [M+H]+
m/z	relative intensity
52.0209	1
53.0163	1
54.0359	4
55.0315	3
56.0518	1
57.0471	1
66.0354	1
67.0309	6
68.0386	5
69.0465	237
70.0305	1
72.0459	8
73.0482	2
75.0275	1
77.04	1
78.0353	1
79.0304	2
80.0143	1
81.0459	7
82.0172	1
82.0294	1
82.9989	3
83.025	17
93.0453	5
94.0407	17
95.0246	9
96.0562	309
97.0401	14
101.0082	1
106.0404	3
107.0605	1
108.0559	7
109.0273	50
110.0715	4
113.0711	2
115.003	1
116.9999	1
120.0555	9
121.0509	4
122.0349	14
123.0552	3
124.0506	999
134.0711	2
135.0424	1
136.0139	1
137.082	5
140.082	1
147.0663	3
148.0742	1
149.0455	5
150.0661	1
152.0454	1
153.0529	1
163.0611	2
166.0483	1
181.0716	88
225.0983	0
