Mass spectrum: Mefruside; LC-ESI-ITFT; MS2; CE: 25%; R=7500; [M+H]+
Name: Mefruside
Name: 4-Chloro-N1-methyl-N1-[(2-methyloxolan-2-yl)methyl]benzene-1,3-disulfonamide
Formula: C13H19ClN2O5S2
Exact mass: 382.0424
SMILES: CN(CC1(C)CCCO1)S(=O)(=O)C1=CC=C(Cl)C(=C1)S(N)(=O)=O
InChI: InChI=1S/C13H19ClN2O5S2/c1-13(6-3-7-21-13)9-16(2)23(19,20)10-4-5-11(14)12(8-10)22(15,17)18/h4-5,8H,3,6-7,9H2,1-2H3,(H2,15,17,18)
Instrument: LTQ Orbitrap XL Thermo Fisher Scientific
Instrument type: LC-ESI-ITFT
Ms type: MS2
Ion mode: POSITIVE
Ionization: ESI
Fragmentation mode: HCD
Collision energy: 25% (nominal)
Resolution: 7500
Column name: Hypersil GOLD C18 1.9 um 100 x 2.1 mm Thermo Fisher Scientific
Precursor m/z: 383.0497
Precursor type: [M+H]+
m/z	relative intensity
57.0334	8
69.0698	10
71.0852	3
73.1194	8
79.054	21
81.0697	429
84.0806	156
86.0599	59
97.0648	45
99.0804	356
110.0964	11
111.1044	12
128.1069	284
129.1147	999
135.9587	4
188.9308	11
203.1159	5
212.0929	4
237.9397	13
253.9347	20
267.9502	26
284.9768	602
288.0472	7
296.9765	79
365.0387	27
383.0497	141
