Mass spectrum: Herquline A; LC-ESI-ITFT; MS2; CE: 60%; R=7500; [M+H]+
Name: Herquline A
Name: 15-methyl-1,15-diazapentacyclo[12.3.1.13,17.18,12.02,7]icos-12(20)-ene-6,9-dione
Formula: C19H26N2O2
Exact mass: 314.1994
SMILES: CN1CC2CC3CCC(=O)C4C3N2CC1CC5=CC4C(=O)CC5
InChI: InChI=1S/C19H26N2O2/c1-20-9-14-8-12-3-5-17(23)18-15-7-11(2-4-16(15)22)6-13(20)10-21(14)19(12)18/h7,12-15,18-19H,2-6,8-10H2,1H3
Instrument: LTQ Orbitrap XL Thermo Scientific
Instrument type: LC-ESI-ITFT
Ms type: MS2
Ion mode: POSITIVE
Ionization: ESI
Fragmentation mode: HCD
Collision energy: 60 % (nominal)
Resolution: 7500
Column name: Hypersil GOLD C18 1.9 um 100 x 2.1 mm Thermo Fisher Scientific
Retention time: 7.945 min
Base peak: 315.2066
Precursor m/z: 315.2067
Precursor type: [M+H]+
Precursor intensity: 23949528.57178
m/z	relative intensity	assigned
70.065	31	C4H8N+
72.0807	11	C4H10N+
96.0681	17	C5H8N2+
97.076	62	C5H9N2+
109.076	11	C6H9N2+
110.0839	8	C6H10N2+
111.0917	5	C6H11N2+
136.0994	25	C8H12N2+
137.0833	7	C8H11NO+
149.1074	271	C9H13N2+
150.0914	28	C9H12NO+
150.1152	17	C9H14N2+
151.1227	14	C9H15N2+
162.0915	14	C10H12NO+
164.1069	33	C10H14NO+
176.1069	25	C11H14NO+
178.1225	11	C11H16NO+
181.1336	19	C10H17N2O+
187.1117	58	C13H15O+
188.107	26	C12H14NO+
204.126	13	C12H16N2O+
205.1334	393	C12H17N2O+
206.1414	14	C12H18N2O+
207.1491	93	C12H19N2O+
219.1492	30	C13H19N2O+
240.1383	5	C16H18NO+
241.1223	9	C16H17O2+
257.1645	7	C16H21N2O+
258.1488	25	C16H20NO2+
272.1646	23	C17H22NO2+
284.1651	18	C18H22NO2+
297.196	41	C19H25N2O+
298.1815	1	C19H24NO2+
300.1829	18	C18H24N2O2+
313.1904	3	C19H25N2O2+
315.2064	999	C19H27N2O2+
