Mass spectrum: Tentotoxin; LC-ESI-ITFT; MS2; CE: 40%; R=7500; [M+H]+
Name: Tentotoxin
Name: 12-benzylidene-1,6,7-trimethyl-3-(2-methylpropyl)-1,4,7,10-tetrazacyclododecane-2,5,8,11-tetrone
Formula: C22H30N4O4
Exact mass: 414.2267
SMILES: CC1C(=O)NC(C(=O)N(C(=CC2=CC=CC=C2)C(=O)NCC(=O)N1C)C)CC(C)C
InChI: InChI=1S/C22H30N4O4/c1-14(2)11-17-22(30)26(5)18(12-16-9-7-6-8-10-16)21(29)23-13-19(27)25(4)15(3)20(28)24-17/h6-10,12,14-15,17H,11,13H2,1-5H3,(H,23,29)(H,24,28)
Instrument: LTQ Orbitrap XL Thermo Scientific
Instrument type: LC-ESI-ITFT
Ms type: MS2
Ion mode: POSITIVE
Ionization: ESI
Fragmentation mode: HCD
Collision energy: 40 % (nominal)
Resolution: 7500
Column name: Hypersil GOLD C18 1.9 um 100 x 2.1 mm Thermo Fisher Scientific
Retention time: 18.896 min
Base peak: 415.2344
Precursor m/z: 415.234
Precursor type: [M+H]+
Precursor intensity: 24863502.65039
m/z	relative intensity	assigned
58.065	421	C3H8N+
73.0973	15	H13N2O2+
73.1702	8	C2H21N2+
86.0963	96	C5H12N+
91.0541	26	C7H7+
114.0914	32	C6H12NO+
115.0866	63	C5H11N2O+
126.0549	10	C6H8NO2+
130.0654	10	C9H8N+
132.0807	277	C9H10N+
143.0815	37	C6H11N2O2+
146.0966	56	C10H12N+
160.0757	41	C10H10NO+
169.1334	71	C9H17N2O+
171.1491	902	C9H19N2O+
173.1066	26	C11H13N2+
181.1336	79	C10H17N2O+
188.0705	265	C11H10NO2+
189.1023	999	C11H13N2O+
199.1074	47	C9H15N2O3+
199.1439	46	C10H19N2O2+
201.1017	18	C12H13N2O+
210.1603	98	C11H20N3O+
214.1599	13	C15H20N+
217.097	449	C12H13N2O2+
229.1697	17	C15H21N2+
238.155	194	C12H20N3O2+
245.1651	20	C15H21N2O+
256.1807	506	C16H22N3+
257.1645	16	C16H21N2O+
273.1598	69	C16H21N2O2+
284.1755	83	C17H22N3O+
286.1913	22	C17H24N3O+
301.1543	184	C17H21N2O3+
302.15	95	C16H20N3O3+
302.1864	33	C17H24N3O2+
312.1705	917	C18H22N3O2+
327.1701	130	C19H23N2O3+
330.1812	374	C18H24N3O3+
358.2126	196	C20H28N3O3+
