Mass spectrum: Mefruside; LC-ESI-ITFT; MS2; CE: 15%; R=15000; [M+H]+
Name: Mefruside
Name: 4-chloro-1-N-methyl-1-N-[(2-methyloxolan-2-yl)methyl]benzene-1,3-disulfonamide
Formula: C13H19ClN2O5S2
Exact mass: 382.0424
SMILES: CC1(CCCO1)CN(C)S(=O)(=O)C2=CC(=C(C=C2)Cl)S(=O)(=O)N
InChI: InChI=1S/C13H19ClN2O5S2/c1-13(6-3-7-21-13)9-16(2)23(19,20)10-4-5-11(14)12(8-10)22(15,17)18/h4-5,8H,3,6-7,9H2,1-2H3,(H2,15,17,18)
Instrument: LTQ Orbitrap XL Thermo Scientific
Instrument type: LC-ESI-ITFT
Ms type: MS2
Ion mode: POSITIVE
Ionization: ESI
Fragmentation mode: HCD
Collision energy: 15% (nominal)
Resolution: 15000
Column name: Kinetex Evo C18 2.6 um 50 x 2.1 mm
Retention time: 9.032 min
Base peak: 428.2364
Precursor m/z: 383.0497
Precursor type: [M+H]+
m/z	relative intensity	assigned
79.0541	56	C6H7+
81.0698	491	C6H9+
84.0808	232	C5H10N+
86.06	95	C4H8NO+
97.0648	68	C6H9O+
99.0804	412	C6H11O+
128.1069	420	C7H14NO+
129.1147	999	C7H15NO+
284.9765	432	C7H10ClN2O4S2+
296.9757	46	C11H7NO5S2+
365.0379	17	C13H18ClN2O4S2+
383.0496	906	C13H20ClN2O5S2+
