Mass spectrum: Ethambutol; ESI-QTOF; MS2; CE: 50eV; R=15000; [M+H]+
Name: Ethambutol
Name: (2S,2'S)-2,2'-(Ethane-1,2-diyldiazanediyl)di(butan-1-ol)
Formula: C10H24N2O2
Exact mass: 204.1838
SMILES: CC[C@@H](CO)NCCN[C@@H](CC)CO
InChI: InChI=1S/C10H24N2O2/c1-3-9(7-13)11-5-6-12-10(4-2)8-14/h9-14H,3-8H2,1-2H3/t9-,10-/m0/s1
Instrument: TripleTOF 5600+SCIEX
Instrument type: ESI-QTOF
Ms type: MS2
Ion mode: POSITIVE
Ionization: ESI
Fragmentation mode: CID
Collision energy: 50 eV
Resolution: 15000
Precursor m/z: 205.1911
Precursor type: [M+H]+
m/z	relative intensity
50.0191	1
51.0256	3
53.0414	44
54.8939	10
55.0571	999
56.0521	125
56.1002	2
56.1641	1
57.0718	2
57.0996	1
62.0621	14
63.9308	21
65.0407	6
66.0474	1
67.0568	2
68.0512	5
69.0718	14
70.067	23
71.0867	1
72.0825	25
74.0618	19
77.04	7
78.0474	1
79.0555	10
81.0713	9
82.0664	2
83.0747	1
84.0817	1
85.0892	1
86.0974	2
90.0926	6
91.0552	8
93.0714	1
95.0862	1
96.0817	2
98.0973	47
102.0924	10
105.0704	2
116.1074	780
117.1716	1
119.0861	1
