Mass spectrum: Violaceol II; LC-ESI-ITFT; MS2; CE: 40%; R=7500; [M-H]-
Name: Violaceol II
Name: 2-(2,3-dihydroxy-5-methylphenoxy)-5-methylbenzene-1,3-diol
Formula: C14H14O5
Exact mass: 262.0841
SMILES: CC1=CC(=C(C(=C1)O)OC2=CC(=CC(=C2O)O)C)O
InChI: InChI=1S/C14H14O5/c1-7-4-10(16)14(11(17)5-7)19-12-6-8(2)3-9(15)13(12)18/h3-6,15-18H,1-2H3
Instrument: LTQ Orbitrap XL Thermo Scientific
Instrument type: LC-ESI-ITFT
Ms type: MS2
Ion mode: NEGATIVE
Ionization: ESI
Fragmentation mode: HCD
Collision energy: 40 % (nominal)
Resolution: 7500
Column name: Hypersil GOLD C18 1.9 um 100 x 2.1 mm Thermo Fisher Scientific
Retention time: 14.926 min
Base peak: 259.0611
Precursor m/z: 261.0768
Precursor type: [M-H]-
Precursor intensity: 877880.2265625
m/z	relative intensity	assigned
137.0244	112	C7H5O3-
139.0402	29	C7H7O3-
261.0769	999	C14H13O5-
