Mass spectrum: Phenazone; LC-ESI-QFT; MS2; CE: CE15; R=17500; [M+H]+
Name: Phenazone
Name: Antipyrine
Name: 1,5-dimethyl-2-phenylpyrazol-3-one
Formula: C11H12N2O
Exact mass: 188.0950
SMILES: CN1N(C(=O)C=C1C)C1=CC=CC=C1
InChI: InChI=1S/C11H12N2O/c1-9-8-11(14)13(12(9)2)10-6-4-3-5-7-10/h3-8H,1-2H3
Instrument: Q Exactive Thermo Fisher Scientific
Instrument type: LC-ESI-QFT
Ms type: MS2
Ion mode: POSITIVE
Ionization: ESI
Fragmentation mode: HCD
Collision energy: CE15
Resolution: 17500
Column name: Acquity UPLC BEH C18 1.7 um, 2.1 x 150 mm, Waters
Retention time: 16.045 min
Base peak: 223.0628
Precursor m/z: 189.1022
Precursor type: [M+H]+
m/z	relative intensity	assigned
55.0181	1	C3H3O+
55.0545	1	C4H7+
56.0498	39	C3H6N+
58.0655	32	C3H8N+
65.0386	2	C5H5+
70.0652	1	C4H8N+
77.0386	1	C6H5+
91.0544	4	C7H7+
95.0492	2	C6H7O+
95.0606	1	C5H7N2+
96.0441	4	C5H6NO+
96.0683	13	C5H8N2+
98.0602	2	C5H8NO+
103.0544	1	C8H7+
104.0491	24	C7H6N+
105.0336	1	C7H5O+
105.0693	2	C8H9+
106.0653	10	C7H8N+
117.0569	2	C8H7N+
117.07	5	C9H9+
118.0655	14	C8H8N+
120.0805	14	C8H10N+
130.0648	16	C9H8N+
131.0724	28	C9H9N+
132.0802	12	C9H10N+
133.0518	2	C8H7NO+
133.0751	3	C8H9N2+
134.0959	2	C9H12N+
135.0541	1	C7H7N2O+
144.081	27	C10H10N+
145.0659	8	C10H9O+
145.0755	1	C9H9N2+
146.0836	30	C9H10N2+
146.097	9	C10H12N+
147.092	35	C9H11N2+
148.0756	4	C9H10NO+
149.0716	2	C8H9N2O+
157.053	2	C10H7NO+
158.0605	2	C10H8NO+
160.1008	1	C10H12N2+
161.1068	39	C10H13N2+
172.0747	7	C11H10NO+
174.0793	20	C10H10N2O+
189.103	999	C11H13N2O+
