Mass spectrum: Fusarenon X; LC-ESI-ITFT; MS2; CE: 40%; R=7500; [M+H]+
Name: Fusarenon X
Name: [3,10-dihydroxy-2-(hydroxymethyl)-1,5-dimethyl-4-oxospiro[8-oxatricyclo[7.2.1.02,7]dodec-5-ene-12,2`-oxirane]-11-yl] acetate
Formula: C17H22O8
Exact mass: 354.1315
SMILES: CC1=CC2C(C(C1=O)O)(C3(C(C(C(C34CO4)O2)O)OC(=O)C)C)CO
InChI: InChI=1S/C17H22O8/c1-7-4-9-16(5-18,12(22)10(7)20)15(3)13(24-8(2)19)11(21)14(25-9)17(15)6-23-17/h4,9,11-14,18,21-22H,5-6H2,1-3H3
Instrument: LTQ Orbitrap XL Thermo Scientific
Instrument type: LC-ESI-ITFT
Ms type: MS2
Ion mode: POSITIVE
Ionization: ESI
Fragmentation mode: HCD
Collision energy: 40 % (nominal)
Resolution: 7500
Column name: Hypersil GOLD C18 1.9 um 100 x 2.1 mm Thermo Fisher Scientific
Retention time: 8.411 min
Base peak: 355.1384
Precursor m/z: 355.1387
Precursor type: [M+H]+
Precursor intensity: 12422497.94141
m/z	relative intensity	assigned
99.0438	30	C5H7O2+
123.0441	31	C7H7O2+
137.0595	338	C8H9O2+
147.0802	42	C10H11O+
153.054	42	C8H9O3+
159.08	23	C11H11O+
161.0591	60	C10H9O2+
163.0752	92	C10H11O2+
165.0906	105	C10H13O2+
171.0812	39	C12H11O+
173.0964	27	C12H13O+
175.0751	536	C11H11O2+
177.0541	15	C10H9O3+
177.0906	187	C11H13O2+
187.0747	41	C12H11O2+
189.0909	150	C12H13O2+
191.0702	72	C11H11O3+
193.0855	117	C11H13O3+
199.0751	33	C13H11O2+
201.0906	219	C13H13O2+
203.1065	60	C13H15O2+
205.0856	480	C12H13O3+
213.0905	93	C14H13O2+
217.0857	264	C13H13O3+
219.1007	126	C13H15O3+
229.0855	603	C14H13O3+
231.1011	225	C14H15O3+
233.0798	23	C13H13O4+
241.0856	61	C15H13O3+
247.0959	999	C14H15O4+
259.0961	410	C15H15O4+
277.1067	724	C15H17O5+
337.1277	543	C17H21O7+
