Mass spectrum: Ethambutol; LC-ESI-ITFT; MS2; CE: 110%; R=15000; [M+H]+
Name: Ethambutol
Name: 2-[2-(1-hydroxybutan-2-ylamino)ethylamino]butan-1-ol
Formula: C10H24N2O2
Exact mass: 204.1838
SMILES: CCC(CO)NCCNC(CC)CO
InChI: InChI=1S/C10H24N2O2/c1-3-9(7-13)11-5-6-12-10(4-2)8-14/h9-14H,3-8H2,1-2H3
Instrument: LTQ Orbitrap XL Thermo Scientific
Instrument type: LC-ESI-ITFT
Ms type: MS2
Ion mode: POSITIVE
Ionization: ESI
Fragmentation mode: HCD
Collision energy: 110% (nominal)
Resolution: 15000
Column name: Kinetex Evo C18 2.6 um 50 x 2.1 mm
Retention time: 0.540 min
Base peak: 182.1176
Precursor m/z: 205.1911
Precursor type: [M+H]+
m/z	relative intensity	assigned
55.054	999	C4H7+
56.0492	104	C3H6N+
69.0698	17	C5H9+
70.0649	18	C4H8N+
72.0806	21	C4H10N+
79.0544	16	C6H7+
91.0542	15	C7H7+
98.0968	26	C6H12N+
116.107	277	C6H14NO+
