Mass spectrum: Dosulepin; LC-ESI-ITFT; MS2; CE: 130%; R=15000; [M+H]+
Name: Dosulepin
Name: Dothiepin
Name: 3-(6H-benzo[c][1]benzothiepin-11-ylidene)-N,N-dimethylpropan-1-amine
Formula: C19H21NS
Exact mass: 295.1395
SMILES: CN(C)CCC=C1C2=CC=CC=C2CSC3=CC=CC=C31
InChI: InChI=1S/C19H21NS/c1-20(2)13-7-11-17-16-9-4-3-8-15(16)14-21-19-12-6-5-10-18(17)19/h3-6,8-12H,7,13-14H2,1-2H3
Instrument: LTQ Orbitrap XL Thermo Scientific
Instrument type: LC-ESI-ITFT
Ms type: MS2
Ion mode: POSITIVE
Ionization: ESI
Fragmentation mode: CID
Collision energy: 130% (nominal)
Resolution: 15000
Column name: Kinetex Evo C18 2.6 um 50 x 2.1 mm
Retention time: 8.160 min
Base peak: 296.1469
Precursor m/z: 296.1467
Precursor type: [M+H]+
m/z	relative intensity	assigned
91.0542	15	C7H7+
117.0699	17	C9H9+
123.0259	7	C7H7S+
141.0699	5	C11H9+
142.0779	6	C11H10+
147.0263	204	C9H7S+
173.0419	13	C11H9S+
191.0854	34	C15H11+
209.042	72	C14H9S+
210.0496	5	C14H10S+
217.1013	36	C17H13+
218.109	131	C17H14+
222.0499	43	C15H10S+
223.0577	318	C15H11S+
225.0732	999	C15H13S+
236.0653	33	C16H12S+
251.089	489	C17H15S+
253.1047	42	C17H17S+
265.1046	6	C18H17S+
