Mass spectrum: Isoproturon-OH (TENTATIVE); LC-ESI-QFT; MS2; CE: 30%; R=70000; [M+H]+
Name: Isoproturon-OH
Formula: C12H18N2O2
Exact mass: 222.1361
SMILES: C(*)C(C)C1=C(*)C(*)=C(C=C1)NC(=O)N(C)C(*) *=[OH (n=1) & H (n=3)] 
Instrument: Q Exactive Plus Orbitrap Thermo Scientific
Instrument type: LC-ESI-QFT
Ms type: MS2
Ion mode: POSITIVE
Ionization: ESI
Fragmentation mode: HCD
Collision energy: 30% (nominal)
Resolution: 70000
Column name: Waters UPLC BEH C18 1.7 um 2.1 mm x 100 mm with pre-column
Retention time: 9.53 min
Precursor m/z: 223.1439
Precursor type: [M+H]+
m/z	relative intensity
51.0234	9
53.0026	4
53.0389	18
56.0134	55
59.0494	252
65.0388	25
72.0444	999
77.0386	45
78.034	11
79.0542	13
89.0454	4
91.0543	53
92.0495	12
93.0574	29
95.0493	47
96.0445	11
99.0296	4
103.0542	8
104.0495	30
105.0449	17
106.0653	12
107.0493	10
115.0543	42
116.0621	7
117.0574	9
118.0653	4
119.0731	4
132.0445	59
