Mass spectrum: Citreoviridin; LC-ESI-ITFT; MS2; CE: 15%; R=7500; [M+H]+
Name: Citreoviridin
Name: 6-[8-(3,4-dihydroxy-2,4,5-trimethyloxolan-2-yl)-7-methylocta-1,3,5,7-tetraenyl]-4-methoxy-5-methylpyran-2-one
Formula: C23H30O6
Exact mass: 402.2042
SMILES: CC1C(C(C(O1)(C)C=C(C)C=CC=CC=CC2=C(C(=CC(=O)O2)OC)C)O)(C)O
InChI: InChI=1S/C23H30O6/c1-15(14-22(4)21(25)23(5,26)17(3)29-22)11-9-7-8-10-12-18-16(2)19(27-6)13-20(24)28-18/h7-14,17,21,25-26H,1-6H3
Instrument: LTQ Orbitrap XL Thermo Scientific
Instrument type: LC-ESI-ITFT
Ms type: MS2
Ion mode: POSITIVE
Ionization: ESI
Fragmentation mode: HCD
Collision energy: 15 % (nominal)
Resolution: 7500
Column name: Hypersil GOLD C18 1.9 um 100 x 2.1 mm Thermo Fisher Scientific
Retention time: 21.725 min
Base peak: 403.2119
Precursor m/z: 403.2115
Precursor type: [M+H]+
Precursor intensity: 3639468.507568
m/z	relative intensity	assigned
259.1328	5	C16H19O3+
285.1478	17	C18H21O3+
297.149	23	C19H21O3+
315.1586	24	C19H23O4+
403.2114	999	C23H31O6+
