Mass spectrum: Eremofortin B; LC-ESI-ITFT; MS2; CE: 50%; R=7500; [M+H]+
Name: Eremofortin B
Name: 2-hydroxy-3,3a-dimethyl-5-prop-1-en-2-yl-1a,2,3,4,5,7b-hexahydronaphtho[1,2-b]oxiren-6-one
Formula: C15H20O3
Exact mass: 248.1412
SMILES: C=C(C)C1CC2(C)C(C)C(O)C3OC3C2=CC1=O
InChI: InChI=1S/C15H20O3/c1-7(2)9-6-15(4)8(3)12(17)14-13(18-14)10(15)5-11(9)16/h5,8-9,12-14,17H,1,6H2,2-4H3
Instrument: LTQ Orbitrap XL Thermo Scientific
Instrument type: LC-ESI-ITFT
Ms type: MS2
Ion mode: POSITIVE
Ionization: ESI
Fragmentation mode: HCD
Collision energy: 50 % (nominal)
Resolution: 7500
Column name: Hypersil GOLD C18 1.9 um 100 x 2.1 mm Thermo Fisher Scientific
Retention time: 15.198 min
Base peak: 249.1495
Precursor m/z: 249.1485
Precursor type: [M+H]+
Precursor intensity: 14756959.1958
m/z	relative intensity	assigned
55.9893	24	C2O2+
67.0543	15	C5H7+
69.07	106	C5H9+
71.0494	35	C4H7O+
79.0545	14	C6H7+
81.07	49	C6H9+
83.0493	20	C5H7O+
83.0857	15	C6H11+
91.0544	35	C7H7+
93.0701	82	C7H9+
95.0494	32	C6H7O+
95.0858	129	C7H11+
97.0285	26	C5H5O2+
97.065	63	C6H9O+
105.0703	106	C8H9+
107.0859	216	C8H11+
109.0651	191	C7H9O+
109.1016	74	C8H13+
111.0807	61	C7H11O+
119.0859	313	C9H11+
121.0651	165	C8H9O+
121.1016	168	C9H13+
123.0809	209	C8H11O+
123.1172	68	C9H15+
124.0885	14	C8H12O+
125.0599	33	C7H9O2+
129.0705	20	C10H9+
131.086	109	C10H11+
133.1016	360	C10H13+
135.0809	256	C9H11O+
135.1173	134	C10H15+
137.0603	86	C8H9O2+
137.0966	111	C9H13O+
139.0757	61	C8H11O2+
143.0861	117	C11H11+
145.1016	210	C11H13+
147.0809	426	C10H11O+
147.1173	142	C11H15+
149.0604	74	C9H9O2+
149.0967	204	C10H13O+
150.1035	11	C10H14O+
151.0759	145	C9H11O2+
151.1123	196	C10H15O+
153.0916	29	C9H13O2+
157.1018	101	C12H13+
159.0809	111	C11H11O+
159.1172	117	C12H15+
160.0879	17	C11H12O+
161.0966	906	C11H13O+
161.1331	276	C12H17+
163.0758	156	C10H11O2+
163.1123	396	C11H15O+
165.0915	57	C10H13O2+
165.128	37	C11H17O+
170.1095	63	C13H14+
171.1172	79	C13H15+
172.0889	26	C12H12O+
173.0967	122	C12H13O+
173.1329	117	C13H17+
174.0669	12	C11H10O2+
174.1043	15	C12H14O+
175.0755	50	C11H11O2+
175.1125	103	C12H15O+
175.1487	394	C13H19+
177.0913	60	C11H13O2+
177.1281	86	C12H17O+
179.0707	47	C10H11O3+
179.1072	125	C11H15O2+
179.1438	35	C12H19O+
181.0868	66	C10H13O3+
185.1331	166	C14H17+
187.1123	44	C13H15O+
189.0916	89	C12H13O2+
189.128	203	C13H17O+
191.1073	284	C12H15O2+
191.1436	88	C13H19O+
193.0865	115	C11H13O3+
193.1593	27	C13H21O+
195.1173	24	C15H15+
198.1045	52	C14H14O+
201.1281	59	C14H17O+
202.1348	13	C14H18O+
203.1437	335	C14H19O+
205.1228	18	C13H17O2+
213.1282	96	C15H17O+
219.1383	30	C14H19O2+
221.1544	153	C14H21O2+
231.1389	124	C15H19O2+
249.1492	999	C15H21O3+
