Mass spectrum: Herquline A; LC-ESI-ITFT; MS2; CE: 30%; R=7500; [M+H]+
Name: Herquline A
Name: 15-methyl-1,15-diazapentacyclo[12.3.1.13,17.18,12.02,7]icos-12(20)-ene-6,9-dione
Formula: C19H26N2O2
Exact mass: 314.1994
SMILES: CN1CC2CC3CCC(=O)C4C3N2CC1CC5=CC4C(=O)CC5
InChI: InChI=1S/C19H26N2O2/c1-20-9-14-8-12-3-5-17(23)18-15-7-11(2-4-16(15)22)6-13(20)10-21(14)19(12)18/h7,12-15,18-19H,2-6,8-10H2,1H3
Instrument: LTQ Orbitrap XL Thermo Scientific
Instrument type: LC-ESI-ITFT
Ms type: MS2
Ion mode: POSITIVE
Ionization: ESI
Fragmentation mode: HCD
Collision energy: 30 % (nominal)
Resolution: 7500
Column name: Hypersil GOLD C18 1.9 um 100 x 2.1 mm Thermo Fisher Scientific
Retention time: 7.945 min
Base peak: 315.2066
Precursor m/z: 315.2067
Precursor type: [M+H]+
Precursor intensity: 23949528.57178
m/z	relative intensity	assigned
205.1332	10	C12H17N2O+
315.2062	999	C19H27N2O2+
