Mass spectrum: Terrecyclic Acid; LC-ESI-ITFT; MS2; CE: 40%; R=7500; [M+H]+
Name: Terrecyclic Acid
Name: 11,11-dimethyl-2-methylidene-3-oxotricyclo[4.3.2.01,5]undecane-9-carboxylic acid
Formula: C15H20O3
Exact mass: 248.1412
SMILES: CC1(CC23C(CCC1C2CC(=O)C3=C)C(=O)O)C
InChI: InChI=1S/C15H20O3/c1-8-12(16)6-11-9-4-5-10(13(17)18)15(8,11)7-14(9,2)3/h9-11H,1,4-7H2,2-3H3,(H,17,18)
Instrument: LTQ Orbitrap XL Thermo Scientific
Instrument type: LC-ESI-ITFT
Ms type: MS2
Ion mode: POSITIVE
Ionization: ESI
Fragmentation mode: HCD
Collision energy: 40 % (nominal)
Resolution: 7500
Column name: Hypersil GOLD C18 1.9 um 100 x 2.1 mm Thermo Fisher Scientific
Retention time: 20.565 min
Base peak: 249.149
Precursor m/z: 249.1485
Precursor type: [M+H]+
Precursor intensity: 11458500.30566
m/z	relative intensity	assigned
95.086	1	C7H11+
105.0703	1	C8H9+
119.086	4	C9H11+
133.1018	2	C10H13+
147.0804	3	C10H11O+
159.1168	8	C12H15+
161.0965	8	C11H13O+
161.1331	2	C12H17+
165.0909	1	C10H13O2+
175.1119	2	C12H15O+
175.1484	4	C13H19+
179.0707	1	C10H11O3+
185.1316	2	C14H17+
189.1274	9	C13H17O+
193.0867	3	C11H13O3+
203.1432	44	C14H19O+
207.139	2	C13H19O2+
213.1275	2	C15H17O+
221.154	42	C14H21O2+
231.1382	222	C15H19O2+
249.1487	999	C15H21O3+
