Mass spectrum: Desipramine; LC-ESI-ITFT; MS2; CE: 105%; R=15000; [M+H]+
Name: Desipramine
Name: 3-(5,6-dihydrobenzo[b][1]benzazepin-11-yl)-N-methylpropan-1-amine
Formula: C18H22N2
Exact mass: 266.1783
SMILES: CNCCCN1C2=CC=CC=C2CCC3=CC=CC=C31
InChI: InChI=1S/C18H22N2/c1-19-13-6-14-20-17-9-4-2-7-15(17)11-12-16-8-3-5-10-18(16)20/h2-5,7-10,19H,6,11-14H2,1H3
Instrument: LTQ Orbitrap XL Thermo Scientific
Instrument type: LC-ESI-ITFT
Ms type: MS2
Ion mode: POSITIVE
Ionization: ESI
Fragmentation mode: HCD
Collision energy: 105% (nominal)
Resolution: 15000
Column name: Kinetex Evo C18 2.6 um 50 x 2.1 mm
Retention time: 8.449 min
Base peak: 267.1856
Precursor m/z: 267.1856
Precursor type: [M+H]+
m/z	relative intensity	assigned
70.0651	7	C4H8N+
72.0806	999	C4H10N+
91.0542	51	C7H7+
103.054	9	C8H7+
105.0695	4	C8H9+
115.0541	7	C9H7+
117.0571	6	C8H7N+
118.065	20	C8H8N+
130.065	12	C9H8N+
152.0616	7	C12H8+
165.0698	33	C13H9+
166.0778	19	C13H10+
167.0728	38	C12H9N+
167.085	6	C13H11+
178.0775	13	C14H10+
180.0808	84	C13H10N+
181.0883	6	C13H11N+
191.0726	8	C14H9N+
192.0808	141	C14H10N+
193.0886	715	C14H11N+
194.0964	157	C14H12N+
206.0966	29	C15H12N+
207.1047	15	C15H13N+
208.112	56	C15H14N+
220.1119	25	C16H14N+
