Mass spectrum: Phenazone; LC-ESI-QFT; MS2; CE: 80%; R=30000; [M+H]+
Name: Phenazone
Name: 1,5-Dimethyl-2-phenyl-1,2-dihydro-3H-pyrazol-3-one
Formula: C11H12N2O
Exact mass: 188.095
SMILES: CN1N(C(=O)C=C1C)C1=CC=CC=C1
InChI: InChI=1S/C11H12N2O/c1-9-8-11(14)13(12(9)2)10-6-4-3-5-7-10/h3-8H,1-2H3
Instrument: Orbitrap Fusion Tribrid Thermo Fisher Scientific
Instrument type: LC-ESI-QFT
Ms type: MS2
Ion mode: POSITIVE
Ionization: ESI
Fragmentation mode: HCD
Collision energy: 80% (nominal)
Resolution: 30000
Precursor m/z: 189.1023
Precursor type: [M+H]+
m/z	relative intensity
51.0231	116
54.034	23
55.0181	15
55.042	12
56.0497	999
58.0654	124
65.0388	137
68.0498	13
69.0575	10
70.0654	1
77.0388	617
78.0466	43
79.0544	72
80.0497	11
81.0449	28
89.0387	15
90.0466	18
91.0544	103
92.0498	17
93.0575	17
94.0654	9
95.0494	156
96.0688	2
98.0602	11
102.0466	23
103.0545	45
104.0497	113
105.045	80
106.0653	83
115.0544	67
117.0575	35
118.0653	32
120.0816	5
128.0497	14
129.0575	11
130.0654	70
131.0606	63
132.0684	19
133.0528	2
144.0811	7
145.0762	20
146.0845	1
147.0925	3
