Mass spectrum: Picolinafen-OH-O-dealkylation (TENTATIVE); LC-ESI-QFT; MS2; CE: 55%; R=70000; [M+H]+
Name: Picolinafen-OH-O-dealkylation
Name: 6-[3-(trifluoromethyl)phenoxy]pyridine-2-carboxylic acid
Formula: C13H8F3NO3
Exact mass: 283.0445
SMILES: C1=CC(=CC(=C1)OC2=CC=CC(=N2)C(=O)O)C(F)(F)F
InChI: InChI=1S/C13H8F3NO3/c14-13(15,16)8-3-1-4-9(7-8)20-11-6-2-5-10(17-11)12(18)19/h1-7H,(H,18,19)
Instrument: Q Exactive Plus Orbitrap Thermo Scientific
Instrument type: LC-ESI-QFT
Ms type: MS2
Ion mode: POSITIVE
Ionization: ESI
Fragmentation mode: HCD
Collision energy: 55% (nominal)
Resolution: 70000
Column name: Waters UPLC BEH C18 1.7 um 2.1 mm x 100 mm with pre-column
Retention time: 14.02 min
Precursor m/z: 284.0523
Precursor type: [M+H]+
m/z	relative intensity
50.0155	4
51.0233	8
53.0025	7
71.0292	9
75.0041	5
75.0229	14
81.9947	2
93.0207	3
94.0288	3
95.0102	4
95.0292	13
113.0397	43
119.0105	5
125.0198	49
133.0448	13
140.0495	7
141.0573	16
143.0296	7
145.026	999
163.0356	9
165.0312	2
170.04	4
173.0323	19
181.0461	3
182.0339	7
183.0416	16
188.0509	8
190.0464	30
191.0414	16
198.0475	2
210.0523	7
238.0473	4
