Mass spectrum: Dothiepin; LC-ESI-QFT; MS2; CE: 20%; R=17500; [M+H]+
Name: Dothiepin
Name: 3-(Dibenzo[b,e]thiepin-11(6H)-ylidene)-N,N-dimethylpropan-1-amine
Formula: C19H21NS
Exact mass: 295.1395
SMILES: CN(C)CCC=C1C2=CC=CC=C2CSC2=C1C=CC=C2
InChI: InChI=1S/C19H21NS/c1-20(2)13-7-11-17-16-9-4-3-8-15(16)14-21-19-12-6-5-10-18(17)19/h3-6,8-12H,7,13-14H2,1-2H3
Instrument: Q Exactive Thermo Fisher Scientific
Instrument type: LC-ESI-QFT
Ms type: MS2
Ion mode: POSITIVE
Ionization: ESI
Fragmentation mode: HCD
Collision energy: 20% (nominal)
Resolution: 17500
Column name: Hypersil GOLD 1.9 um 2.1 x 100 mm Thermo Fisher Scientific
Precursor m/z: 296.1468
Precursor type: [M+H]+
m/z	relative intensity
58.066	63
91.0548	7
117.0702	13
123.0266	6
141.0701	2
147.0265	11
173.042	2
191.0858	5
203.0862	2
217.1012	8
218.1092	24
223.0579	26
225.0735	71
251.0892	94
253.1049	3
296.1468	999
