Mass spectrum: Radicicol; LC-ESI-ITFT; MS2; CE: 40%; R=7500; [M-H]-
Name: Radicicol
Name: 16-chloro-17,19-dihydroxy-4-methyl-3,7-dioxatricyclo[13.4.0.06,8]nonadeca-1(15),9,11,16,18-pentaene-2,13-dione
Formula: C18H17ClO6
Exact mass: 364.07137
SMILES: CC1CC2C(O2)C=CC=CC(=O)CC3=C(C(=CC(=C3Cl)O)O)C(=O)O1
InChI: InChI=1S/C18H17ClO6/c1-9-6-15-14(25-15)5-3-2-4-10(20)7-11-16(18(23)24-9)12(21)8-13(22)17(11)19/h2-5,8-9,14-15,21-22H,6-7H2,1H3
Instrument: LTQ Orbitrap XL Thermo Scientific
Instrument type: LC-ESI-ITFT
Ms type: MS2
Ion mode: NEGATIVE
Ionization: ESI
Fragmentation mode: HCD
Collision energy: 40 % (nominal)
Resolution: 7500
Column name: Hypersil GOLD C18 1.9 um 100 x 2.1 mm Thermo Fisher Scientific
Retention time: 16.243 min
Base peak: 363.0646
Precursor m/z: 363.0641
Precursor type: [M-H]-
Precursor intensity: 45533339.33105
m/z	relative intensity	assigned
182.9863	3	C8H4ClO3-
194.986	3	C9H4ClO3-
215.0721	1	C13H11O3-
223.9884	8	C10H5ClO4-
224.9961	3	C10H6ClO4-
241.0497	1	C14H9O4-
247.0174	1	C13H8ClO3-
255.1036	2	C16H15O3-
275.0123	4	C14H8ClO4-
283.0979	6	C17H15O4-
299.0912	1	C17H15O5-
319.038	11	C16H12ClO5-
319.0757	3	C17H16ClO4-
327.0875	5	C18H15O6-
335.0704	2	C17H16ClO5-
345.0539	13	C18H14ClO5-
363.0646	999	C18H16ClO6-
