Mass spectrum: Fumigaclavine A; LC-ESI-ITFT; MS2; CE: 30%; R=7500; [M-H]-
Name: Fumigaclavine A
Name: Isofumigaclavine A
Name: (7,9-dimethyl-6,6a,8,9,10,10a-hexahydro-4H-indolo[4,3-fg]quinolin-10-yl) acetate
Formula: C18H22N2O2
Exact mass: 298.16813
SMILES: CC1CN(C2CC3=CNC4=CC=CC(=C34)C2C1OC(=O)C)C
InChI: InChI=1S/C18H22N2O2/c1-10-9-20(3)15-7-12-8-19-14-6-4-5-13(16(12)14)17(15)18(10)22-11(2)21/h4-6,8,10,15,17-19H,7,9H2,1-3H3
Instrument: LTQ Orbitrap XL Thermo Scientific
Instrument type: LC-ESI-ITFT
Ms type: MS2
Ion mode: NEGATIVE
Ionization: ESI
Fragmentation mode: HCD
Collision energy: 30 % (nominal)
Resolution: 7500
Column name: Hypersil GOLD C18 1.9 um 100 x 2.1 mm Thermo Fisher Scientific
Retention time: 8.941 min
Base peak: 319.0468
Precursor m/z: 297.1609
Precursor type: [M-H]-
Precursor intensity: 10933.34375
m/z	relative intensity	assigned
297.1617	999	C18H21N2O2-
