Mass spectrum: Terrein; LC-ESI-ITFT; MS2; CE: 60%; R=7500; [M-H]-
Name: Terrein
Name: 4,5-dihydroxy-3-prop-1-enylcyclopent-2-en-1-one
Formula: C8H10O3
Exact mass: 154.0630
SMILES: CC=CC1=CC(=O)C(C1O)O
InChI: InChI=1S/C8H10O3/c1-2-3-5-4-6(9)8(11)7(5)10/h2-4,7-8,10-11H,1H3
Instrument: LTQ Orbitrap XL Thermo Scientific
Instrument type: LC-ESI-ITFT
Ms type: MS2
Ion mode: NEGATIVE
Ionization: ESI
Fragmentation mode: HCD
Collision energy: 60 % (nominal)
Resolution: 7500
Column name: Hypersil GOLD C18 1.9 um 100 x 2.1 mm Thermo Fisher Scientific
Retention time: 4.817 min
Base peak: 153.0557
Precursor m/z: 153.0557
Precursor type: [M-H]-
Precursor intensity: 2044825.407471
m/z	relative intensity	assigned
69.0345	10	C4H5O-
85.0295	9	C4H5O2-
91.0555	17	C7H7-
95.0504	28	C6H7O-
97.0296	27	C5H5O2-
97.0658	67	C6H9O-
107.0501	40	C7H7O-
109.0295	8	C6H5O2-
109.0659	88	C7H9O-
111.0447	8	C6H7O2-
112.0165	107	C5H4O3-
123.0448	9	C7H7O2-
124.0168	64	C6H4O3-
125.0608	252	C7H9O2-
135.0451	252	C8H7O2-
153.0556	999	C8H9O3-
