Mass spectrum: Aspercolorin; LC-ESI-ITFT; MS2; CE: 20%; R=7500; [M+H]+
Name: Aspercolorin
Name: 14-benzyl-19-methoxy-2,8,12,15-tetrazatricyclo[15.4.0.04,8]henicosa-1(17),18,20-triene-3,9,13,16-tetrone
Formula: C25H28N4O5
Exact mass: 464.2060
SMILES: COC1=CC2=C(C=C1)NC(=O)C3CCCN3C(=O)CCNC(=O)C(NC2=O)CC4=CC=CC=C4
InChI: InChI=1S/C25H28N4O5/c1-34-17-9-10-19-18(15-17)23(31)28-20(14-16-6-3-2-4-7-16)24(32)26-12-11-22(30)29-13-5-8-21(29)25(33)27-19/h2-4,6-7,9-10,15,20-21H,5,8,11-14H2,1H3,(H,26,32)(H,27,33)(H,28,31)
Instrument: LTQ Orbitrap XL Thermo Scientific
Instrument type: LC-ESI-ITFT
Ms type: MS2
Ion mode: POSITIVE
Ionization: ESI
Fragmentation mode: HCD
Collision energy: 20 % (nominal)
Resolution: 7500
Column name: Hypersil GOLD C18 1.9 um 100 x 2.1 mm Thermo Fisher Scientific
Retention time: 19.757 min
Base peak: 465.2133
Precursor m/z: 465.2132
Precursor type: [M+H]+
Precursor intensity: 7982286.074951
m/z	relative intensity	assigned
57.1386	16	CH17N2+
70.0651	14	C4H8N+
120.0804	7	C8H10N+
124.0755	11	C7H10NO+
141.1023	21	C7H13N2O+
169.0977	6	C8H13N2O2+
219.1128	122	C12H15N2O2+
247.1075	440	C13H15N2O3+
269.1281	21	C16H17N2O2+
301.1169	14	C16H17N2O4+
318.1445	129	C16H20N3O4+
368.1602	89	C20H22N3O4+
396.1547	64	C21H22N3O5+
447.2048	18	C25H27N4O4+
465.2126	999	C25H29N4O5+
