Mass spectrum: Dibucaine; ESI-QTOF; MS2; CE: 45eV; R=15000; [M+H]+
Name: Dibucaine
Name: 2-Butoxy-N-[2-(diethylamino)ethyl]quinoline-4-carboxamide
Formula: C20H29N3O2
Exact mass: 343.226
SMILES: CCCCOC1=CC(C(=O)NCCN(CC)CC)=C2C=CC=CC2=N1
InChI: InChI=1S/C20H29N3O2/c1-4-7-14-25-19-15-17(16-10-8-9-11-18(16)22-19)20(24)21-12-13-23(5-2)6-3/h8-11,15H,4-7,12-14H2,1-3H3,(H,21,24)
Instrument: TripleTOF 5600+SCIEX
Instrument type: ESI-QTOF
Ms type: MS2
Ion mode: POSITIVE
Ionization: ESI
Fragmentation mode: CID
Collision energy: 45 eV
Resolution: 15000
Precursor m/z: 344.2333
Precursor type: [M+H]+
m/z	relative intensity
55.0567	1
57.0725	12
69.0721	1
70.0305	2
72.0827	6
74.0983	16
79.0561	1
81.0712	1
86.0978	1
89.0399	6
97.0655	1
100.1132	27
101.0394	1
107.0502	1
115.0554	2
116.0504	437
117.0581	2
118.0659	3
126.0344	1
127.0553	1
128.0502	10
129.0706	1
130.0661	10
131.0738	1
132.0452	5
135.0809	1
140.0502	1
142.066	2
143.0613	4
144.0453	411
145.0531	9
146.0608	25
152.0505	2
153.0455	23
154.0659	2
155.0616	1
156.0816	2
157.0894	4
158.0608	20
159.0686	3
160.0765	8
167.0736	4
168.0815	1
169.0769	4
170.061	10
171.0562	106
172.0403	408
172.1132	6
173.0843	2
174.056	1
182.0975	8
183.1051	4
184.1129	1
185.0849	2
186.0798	1
187.0876	28
197.1195	1
198.1287	3
199.1241	4
200.108	20
202.1239	8
209.1086	1
215.0828	999
225.1401	5
227.1192	32
228.1033	59
241.2366	1
243.1507	11
271.1459	409
344.2333	0
