Mass spectrum: Metoclopramide; LC-ESI-ITFT; MS2; CE: 105%; R=15000; [M+H]+
Name: Metoclopramide
Name: 4-amino-5-chloro-N-[2-(diethylamino)ethyl]-2-methoxybenzamide
Formula: C14H22ClN3O2
Exact mass: 299.1401
SMILES: CCN(CC)CCNC(=O)C1=CC(=C(C=C1OC)N)Cl
InChI: InChI=1S/C14H22ClN3O2/c1-4-18(5-2)7-6-17-14(19)10-8-11(15)12(16)9-13(10)20-3/h8-9H,4-7,16H2,1-3H3,(H,17,19)
Instrument: LTQ Orbitrap XL Thermo Scientific
Instrument type: LC-ESI-ITFT
Ms type: MS2
Ion mode: POSITIVE
Ionization: ESI
Fragmentation mode: HCD
Collision energy: 105% (nominal)
Resolution: 15000
Column name: Kinetex Evo C18 2.6 um 50 x 2.1 mm
Retention time: 2.745 min
Base peak: 300.1477
Precursor m/z: 300.1473
Precursor type: [M+H]+
m/z	relative intensity	assigned
63.0228	37	C5H3+
65.0384	15	C5H5+
72.0807	20	C4H10N+
78.0338	62	C5H4N+
80.0495	7	C5H6N+
82.0287	3	C4H4NO+
90.0338	284	C6H4N+
91.0418	6	C6H5N+
92.0495	29	C6H6N+
93.0573	115	C6H7N+
98.9996	69	C5H4Cl+
100.1121	23	C6H14N+
105.0448	29	C6H5N2+
108.0444	59	C6H6NO+
110.9995	6	C6H4Cl+
113.0027	465	C5H4ClN+
114.0106	5	C5H5ClN+
119.0604	7	C7H7N2+
120.0444	37	C7H6NO+
121.0524	10	C7H7NO+
126.0105	198	C6H5ClN+
127.0183	22	C6H6ClN+
128.0262	82	C6H7ClN+
129.0101	48	C6H6ClO+
133.0392	4	C7H5N2O+
140.0137	40	C6H5ClN2+
140.9976	999	C6H4ClNO+
142.0014	7	CH5ClN3O3+
144.0211	60	C6H7ClNO+
147.0552	14	C8H7N2O+
148.0631	74	C8H8N2O+
154.0055	104	C7H5ClNO+
155.0133	9	C7H6ClNO+
156.0211	129	C7H7ClNO+
168.0086	659	C7H5ClN2O+
168.9925	229	C7H4ClNO2+
170.0003	76	C7H5ClNO2+
181.0165	23	C8H6ClN2O+
182.0242	34	C8H7ClN2O+
183.0321	79	C8H8ClN2O+
184.0161	731	C8H7ClNO2+
187.0031	83	C7H6ClNO3+
211.0269	20	C9H8ClN2O2+
212.0348	122	C9H9ClN2O2+
227.0582	6	C10H12ClN2O2+
