Mass spectrum: Deoxybrevianamide E; LC-ESI-ITFT; MS2; CE: 50%; R=7500; [M+H]+
Name: Deoxybrevianamide E
Name: Desoxybrevianamide E
Name: 3-[[2-(2-methylbut-3-en-2-yl)-1H-indol-3-yl]methyl]-2,3,6,7,8,8a-hexahydropyrrolo[1,2-a]pyrazine-1,4-dione
Formula: C21H25N3O2
Exact mass: 351.1947
SMILES: CC(C)(C=C)C1=C(C2=CC=CC=C2N1)CC3C(=O)N4CCCC4C(=O)N3
InChI: InChI=1S/C21H25N3O2/c1-4-21(2,3)18-14(13-8-5-6-9-15(13)22-18)12-16-20(26)24-11-7-10-17(24)19(25)23-16/h4-6,8-9,16-17,22H,1,7,10-12H2,2-3H3,(H,23,25)
Instrument: LTQ Orbitrap XL Thermo Scientific
Instrument type: LC-ESI-ITFT
Ms type: MS2
Ion mode: POSITIVE
Ionization: ESI
Fragmentation mode: HCD
Collision energy: 50 % (nominal)
Resolution: 7500
Column name: Hypersil GOLD C18 1.9 um 100 x 2.1 mm Thermo Fisher Scientific
Retention time: 18.048 min
Base peak: 352.2022
Precursor m/z: 352.202
Precursor type: [M+H]+
Precursor intensity: 11179958.49219
m/z	relative intensity	assigned
69.0698	20	C5H9+
70.0649	4	C4H8N+
115.0871	7	C5H11N2O+
118.0656	6	C8H8N+
125.0712	15	C6H9N2O+
130.0651	829	C9H8N+
132.0808	43	C9H10N+
143.0728	17	C10H9N+
144.081	29	C10H10N+
153.0661	22	C7H9N2O2+
155.0808	18	C7H11N2O2+
156.081	40	C11H10N+
159.0917	29	C10H11N2+
169.0882	8	C12H11N+
170.0602	92	C11H8NO+
171.0919	28	C11H11N2+
173.1072	15	C11H13N2+
182.0601	27	C12H8NO+
183.1041	24	C13H13N+
186.1286	6	C13H16N+
196.1117	6	C14H14N+
198.1277	999	C14H16N+
199.0866	33	C12H11N2O+
200.1434	6	C14H18N+
223.1227	15	C15H15N2+
238.1224	22	C16H16NO+
250.1338	16	C16H16N3+
268.1446	46	C16H18N3O+
284.1394	51	C16H18N3O2+
296.1395	157	C17H18N3O2+
