Mass spectrum: Metazachlor-OH-deschloro (PROBABLE); LC-ESI-QFT; MS2; CE: 30%; R=70000; [M+H]+
Name: Metazachlor-OH-deschloro
Name: N-(2,6-dimethylphenyl)-2-hydroxy-N-[(1H-pyrazol-1-yl)methyl]acetamide
Formula: C14H17N3O2
Exact mass: 259.1311
SMILES: CC1=C(C(=CC=C1)C)N(CN2C=CC=N2)C(=O)CO
InChI: InChI=1S/C14H17N3O2/c1-11-5-3-6-12(2)14(11)17(13(19)9-18)10-16-8-4-7-15-16/h3-8,18H,9-10H2,1-2H3
Instrument: Q Exactive Plus Orbitrap Thermo Scientific
Instrument type: LC-ESI-QFT
Ms type: MS2
Ion mode: POSITIVE
Ionization: ESI
Fragmentation mode: HCD
Collision energy: 30% (nominal)
Resolution: 70000
Column name: Waters UPLC BEH C18 1.7 um 2.1 mm x 100 mm with pre-column
Retention time: 11.13 min
Precursor m/z: 260.1389
Precursor type: [M+H]+
m/z	relative intensity
79.0542	3
91.0542	2
105.0699	35
106.0778	9
107.0855	28
109.0649	2
117.0574	2
119.073	18
123.0804	3
132.0809	6
134.0964	999
