Mass spectrum: Butyrolactone II; LC-ESI-ITFT; MS2; CE: 60%; R=7500; [M-H]-
Name: Butyrolactone II
Name: methyl 4-hydroxy-3-(4-hydroxyphenyl)-2-[(4-hydroxyphenyl)methyl]-5-oxofuran-2-carboxylate
Formula: C19H16O7
Exact mass: 356.08960
SMILES: COC(=O)C1(C(=C(C(=O)O1)O)C2=CC=C(C=C2)O)CC3=CC=C(C=C3)O
InChI: InChI=1S/C19H16O7/c1-25-18(24)19(10-11-2-6-13(20)7-3-11)15(16(22)17(23)26-19)12-4-8-14(21)9-5-12/h2-9,20-22H,10H2,1H3
Instrument: LTQ Orbitrap XL Thermo Scientific
Instrument type: LC-ESI-ITFT
Ms type: MS2
Ion mode: NEGATIVE
Ionization: ESI
Fragmentation mode: HCD
Collision energy: 60 % (nominal)
Resolution: 7500
Column name: Hypersil GOLD C18 1.9 um 100 x 2.1 mm Thermo Fisher Scientific
Retention time: 15.759 min
Base peak: 711.1693
Precursor m/z: 355.0823
Precursor type: [M-H]-
Precursor intensity: 18730409.33447
m/z	relative intensity	assigned
145.0292	372	C9H5O2-
189.0187	410	C10H5O4-
190.0271	27	C10H6O4-
203.0346	130	C11H7O4-
204.042	986	C11H8O4-
205.0135	107	C10H5O5-
205.0499	288	C11H9O4-
206.0167	71	C17H2-
223.0754	231	C15H11O2-
249.0395	999	C12H9O6-
251.0703	415	C16H11O3-
279.0651	22	C17H11O4-
283.0964	51	C17H15O4-
295.0605	167	C17H11O5-
