Mass spectrum: Fusarochromanone; LC-ESI-ITFT; MS2; CE: 40%; R=7500; [M+H]+
Name: Fusarochromanone
Name: 5-amino-6-(3-amino-4-hydroxybutanoyl)-2,2-dimethyl-3H-chromen-4-one
Formula: C15H20N2O4
Exact mass: 292.1423
SMILES: CC1(CC(=O)C2=C(O1)C=CC(=C2N)C(=O)CC(CO)N)C
InChI: InChI=1S/C15H20N2O4/c1-15(2)6-11(20)13-12(21-15)4-3-9(14(13)17)10(19)5-8(16)7-18/h3-4,8,18H,5-7,16-17H2,1-2H3
Instrument: LTQ Orbitrap XL Thermo Scientific
Instrument type: LC-ESI-ITFT
Ms type: MS2
Ion mode: POSITIVE
Ionization: ESI
Fragmentation mode: HCD
Collision energy: 40 % (nominal)
Resolution: 7500
Column name: Hypersil GOLD C18 1.9 um 100 x 2.1 mm Thermo Fisher Scientific
Retention time: 10.122 min
Base peak: 293.1491
Precursor m/z: 293.1496
Precursor type: [M+H]+
Precursor intensity: 29005851.85498
m/z	relative intensity	assigned
60.0442	20	C2H6NO+
136.0389	9	C7H6NO2+
178.0494	117	C9H8NO3+
192.1014	751	C11H14NO2+
202.0493	37	C11H8NO3+
216.1012	8	C13H14NO2+
218.0808	39	C12H12NO3+
220.0596	23	C11H10NO4+
230.1175	22	C14H16NO2+
234.1118	999	C13H16NO3+
258.1117	449	C15H16NO3+
275.1385	182	C15H19N2O3+
276.1223	134	C15H18NO4+
293.1483	26	C15H21N2O4+
