Mass spectrum: Mefruside; LC-ESI-ITFT; MS2; CE: 95%; R=15000; [M+H]+
Name: Mefruside
Name: 4-chloro-1-N-methyl-1-N-[(2-methyloxolan-2-yl)methyl]benzene-1,3-disulfonamide
Formula: C13H19ClN2O5S2
Exact mass: 382.0424
SMILES: CC1(CCCO1)CN(C)S(=O)(=O)C2=CC(=C(C=C2)Cl)S(=O)(=O)N
InChI: InChI=1S/C13H19ClN2O5S2/c1-13(6-3-7-21-13)9-16(2)23(19,20)10-4-5-11(14)12(8-10)22(15,17)18/h4-5,8H,3,6-7,9H2,1-2H3,(H2,15,17,18)
Instrument: LTQ Orbitrap XL Thermo Scientific
Instrument type: LC-ESI-ITFT
Ms type: MS2
Ion mode: POSITIVE
Ionization: ESI
Fragmentation mode: HCD
Collision energy: 95% (nominal)
Resolution: 15000
Column name: Kinetex Evo C18 2.6 um 50 x 2.1 mm
Retention time: 8.996 min
Base peak: 428.2363
Precursor m/z: 383.0497
Precursor type: [M+H]+
m/z	relative intensity	assigned
55.054	95	C4H7+
57.0333	97	C3H5O+
69.0697	44	C5H9+
70.065	17	C4H8N+
79.0542	297	C6H7+
81.0698	555	C6H9+
84.0807	999	C5H10N+
86.06	55	C4H8NO+
91.0178	107	C6H3O+
96.0808	102	C6H10N+
98.9995	117	C5H4Cl+
108.984	205	C6H2Cl+
114.9945	100	C5H4ClO+
116.956	17	C4H2ClS+
128.1068	23	C7H14NO+
140.9734	33	C6H2ClO2+
142.0056	60	C6H5ClNO+
142.9894	147	C6H4ClO2+
