Mass spectrum: Atrazine-OH (TENTATIVE); LC-ESI-QFT; MS2; CE: 30%; R=70000; [M+H]+
Name: Atrazine-OH
Formula: C8H14ClN5O
Exact mass: 231.0877
SMILES: C(*)C(*)NC1=NC(=NC(=N1)Cl)NC(C*)C* * = [OH (n=1) & H (n=3)]
Instrument: Q Exactive Plus Orbitrap Thermo Scientific
Instrument type: LC-ESI-QFT
Ms type: MS2
Ion mode: POSITIVE
Ionization: ESI
Fragmentation mode: HCD
Collision energy: 30% (nominal)
Resolution: 70000
Column name: Waters UPLC BEH C18 1.7 um 2.1 mm x 100 mm with pre-column
Retention time: 12.36 min
Precursor m/z: 232.0955
Precursor type: [M+H]+
m/z	relative intensity
55.0545	15
57.0701	36
61.9794	23
68.0244	287
69.0448	123
69.07	14
71.0605	13
79.0057	563
81.0698	25
87.9946	9
91.0542	15
93.0698	10
94.04	209
95.0855	19
96.0556	21
104.001	481
105.0214	242
105.0698	18
110.0461	149
110.0714	11
111.0666	12
128.0566	17
130.0167	126
136.0617	33
138.0772	11
145.0275	28
146.0228	999
172.0384	620
173.0429	50
188.0697	30
214.085	67
