Mass spectrum: Dosulepin; LC-ESI-ITFT; MS2; CE: 165%; R=15000; [M+H]+
Name: Dosulepin
Name: Dothiepin
Name: 3-(6H-benzo[c][1]benzothiepin-11-ylidene)-N,N-dimethylpropan-1-amine
Formula: C19H21NS
Exact mass: 295.1395
SMILES: CN(C)CCC=C1C2=CC=CC=C2CSC3=CC=CC=C31
InChI: InChI=1S/C19H21NS/c1-20(2)13-7-11-17-16-9-4-3-8-15(16)14-21-19-12-6-5-10-18(17)19/h3-6,8-12H,7,13-14H2,1-2H3
Instrument: LTQ Orbitrap XL Thermo Scientific
Instrument type: LC-ESI-ITFT
Ms type: MS2
Ion mode: POSITIVE
Ionization: ESI
Fragmentation mode: HCD
Collision energy: 165% (nominal)
Resolution: 15000
Column name: Kinetex Evo C18 2.6 um 50 x 2.1 mm
Retention time: 8.160 min
Base peak: 296.1469
Precursor m/z: 296.1467
Precursor type: [M+H]+
m/z	relative intensity	assigned
58.0649	49	C3H8N+
65.0384	100	C5H5+
68.9791	9	C3HS+
77.0386	47	C6H5+
89.0386	43	C7H5+
91.0543	253	C7H7+
102.0464	20	C8H6+
105.0448	47	C6H5N2+
115.0543	364	C9H7+
121.011	13	C7H5S+
126.0464	8	C10H6+
128.0621	117	C10H8+
139.0543	66	C11H7+
141.0698	29	C11H9+
147.0263	7	C9H7S+
150.0465	22	C12H6+
151.0544	71	C12H7+
152.0621	239	C12H8+
155.0604	28	C10H7N2+
163.0544	79	C13H7+
164.0621	82	C13H8+
165.0699	241	C13H9+
169.0649	36	C12H9O+
175.0548	11	C14H7+
176.0621	355	C14H8+
177.0699	121	C14H9+
178.0778	220	C14H10+
179.0607	37	C12H7N2+
187.0547	23	C15H7+
188.0619	30	C15H8+
189.0699	387	C15H9+
190.0779	22	C15H10+
191.0854	17	C15H11+
195.0261	15	C13H7S+
200.0621	225	C16H8+
201.0701	263	C16H9+
202.0778	999	C16H10+
208.0342	48	C14H8S+
213.07	88	C17H9+
214.0783	21	C17H10+
215.0855	437	C17H11+
219.0262	55	C15H7S+
219.0804	40	C16H11O+
220.0343	65	C15H8S+
221.042	380	C15H9S+
232.0339	36	C16H8S+
234.0498	65	C16H10S+
