Mass spectrum: Mefruside; LC-ESI-ITFT; MS2; CE: 15%; R=7500; [M+H]+
Name: Mefruside
Name: 4-Chloro-N1-methyl-N1-[(2-methyloxolan-2-yl)methyl]benzene-1,3-disulfonamide
Formula: C13H19ClN2O5S2
Exact mass: 382.0424
SMILES: CN(CC1(C)CCCO1)S(=O)(=O)C1=CC=C(Cl)C(=C1)S(N)(=O)=O
InChI: InChI=1S/C13H19ClN2O5S2/c1-13(6-3-7-21-13)9-16(2)23(19,20)10-4-5-11(14)12(8-10)22(15,17)18/h4-5,8H,3,6-7,9H2,1-2H3,(H2,15,17,18)
Instrument: LTQ Orbitrap XL Thermo Fisher Scientific
Instrument type: LC-ESI-ITFT
Ms type: MS2
Ion mode: POSITIVE
Ionization: ESI
Fragmentation mode: HCD
Collision energy: 15% (nominal)
Resolution: 7500
Column name: Hypersil GOLD C18 1.9 um 100 x 2.1 mm Thermo Fisher Scientific
Precursor m/z: 383.0497
Precursor type: [M+H]+
m/z	relative intensity
57.0138	4
73.1306	3
79.054	10
81.0696	108
84.0805	52
86.0598	17
97.0646	30
99.0803	107
128.1067	139
129.1145	282
188.9292	7
253.9336	2
267.9495	6
273.8039	15
284.9764	313
288.0451	6
296.9761	37
352.0075	14
365.0395	25
383.0497	999
