Mass spectrum: Lovastatin; LC-ESI-ITFT; MS2; CE: 60%; R=7500; [M+H]+
Name: Lovastatin
Name: Monacolin K
Name: [8-[2-(4-hydroxy-6-oxooxan-2-yl)ethyl]-3,7-dimethyl-1,2,3,7,8,8a-hexahydronaphthalen-1-yl] 2-methylbutanoate
Formula: C24H36O5
Exact mass: 404.2563
SMILES: CCC(C)C(=O)OC1CC(C=C2C1C(C(C=C2)C)CCC3CC(CC(=O)O3)O)C
InChI: InChI=1S/C24H36O5/c1-5-15(3)24(27)29-21-11-14(2)10-17-7-6-16(4)20(23(17)21)9-8-19-12-18(25)13-22(26)28-19/h6-7,10,14-16,18-21,23,25H,5,8-9,11-13H2,1-4H3
Instrument: LTQ Orbitrap XL Thermo Scientific
Instrument type: LC-ESI-ITFT
Ms type: MS2
Ion mode: POSITIVE
Ionization: ESI
Fragmentation mode: HCD
Collision energy: 60 % (nominal)
Resolution: 7500
Column name: Hypersil GOLD C18 1.9 um 100 x 2.1 mm Thermo Fisher Scientific
Retention time: 25.875 min
Base peak: 405.2638
Precursor m/z: 405.2636
Precursor type: [M+H]+
Precursor intensity: 6072459.847656
m/z	relative intensity	assigned
131.085	322	C10H11+
143.0854	573	C11H11+
145.1009	271	C11H13+
157.101	344	C12H13+
159.1167	508	C12H15+
169.1008	406	C13H13+
171.1167	357	C13H15+
173.1321	866	C13H17+
183.1171	292	C14H15+
199.1478	999	C15H19+
201.1641	121	C15H21+
223.1489	126	C17H19+
225.1629	512	C17H21+
