Mass spectrum: Metolachlor-diOH (TENTATIVE); LC-ESI-QFT; MS2; CE: 30%; R=70000; [M+H]+
Name: Metolachlor-diOH
Formula: C15H22ClNO4
Exact mass: 315.1228
SMILES: C(*)C(*)C1=C(*)C(*)=C(*)C(=C1N(C(C(*))C(*)OC(*))C(=O)C(*)Cl)C(*) *=[OH (n=2) & H (n=8)]
Instrument: Q Exactive Plus Orbitrap Thermo Scientific
Instrument type: LC-ESI-QFT
Ms type: MS2
Ion mode: POSITIVE
Ionization: ESI
Fragmentation mode: HCD
Collision energy: 30% (nominal)
Resolution: 70000
Column name: Waters UPLC BEH C18 1.7 um 2.1 mm x 100 mm with pre-column
Retention time: 9.64 min
Precursor m/z: 316.1306
Precursor type: [M+H]+
m/z	relative intensity
59.0494	58
73.0648	623
76.9789	119
83.0848	33
85.0285	35
102.0913	197
105.0698	50
131.073	201
132.0808	889
133.0889	65
134.0965	113
135.0804	50
144.0808	999
145.0885	165
146.0964	124
148.0757	235
156.081	46
157.0886	139
160.1121	569
162.128	122
172.1121	533
174.1277	84
180.0578	192
184.1119	140
188.107	223
190.1229	175
210.068	99
266.0942	908
