Mass spectrum: Sulfamoxole; LC-ESI-ITFT; MS2; CE: 95%; R=15000; [M+H]+
Name: Sulfamoxole
Name: 4-amino-N-(4,5-dimethyl-1,3-oxazol-2-yl)benzenesulfonamide
Formula: C11H13N3O3S
Exact mass: 267.0678
SMILES: CC1=C(OC(=N1)NS(=O)(=O)C2=CC=C(C=C2)N)C
InChI: InChI=1S/C11H13N3O3S/c1-7-8(2)17-11(13-7)14-18(15,16)10-5-3-9(12)4-6-10/h3-6H,12H2,1-2H3,(H,13,14)
Instrument: LTQ Orbitrap XL Thermo Scientific
Instrument type: LC-ESI-ITFT
Ms type: MS2
Ion mode: POSITIVE
Ionization: ESI
Fragmentation mode: HCD
Collision energy: 95% (nominal)
Resolution: 15000
Column name: Kinetex Evo C18 2.6 um 50 x 2.1 mm
Retention time: 4.011 min
Base peak: 268.0748
Precursor m/z: 268.075
Precursor type: [M+H]+
m/z	relative intensity	assigned
54.0336	34	C3H4N+
65.0384	563	C5H5+
69.0571	28	C4H7N+
70.065	244	C4H8N+
80.0494	127	C5H6N+
92.0495	999	C6H6N+
93.0572	5	C6H7N+
108.0444	628	C6H6NO+
110.06	99	C6H8NO+
111.0552	56	C5H7N2O+
112.0631	65	C5H8N2O+
113.071	282	C5H9N2O+
120.0557	12	C6H6N3+
140.0165	22	C6H6NOS+
