Mass spectrum: Aspochalasin 1; LC-ESI-ITFT; MS2; CE: 40%; R=7500; [M-H]-
Name: Aspochalasin 1
Formula: C24H35NO5
Exact mass: 417.25152
SMILES: CC(C)C[C@@H]1NC(=O)[C@]23OC(=O)C=C[C@@H](O)[C@@H](O)CCC(C)=C[C@H]3C=C(C)[C@@H](C)[C@@H]12
InChI: InChI=1S/C24H35NO5/c1-13(2)10-18-22-16(5)15(4)12-17-11-14(3)6-7-19(26)20(27)8-9-21(28)30-24(17,22)23(29)25-18/h8-9,11-13,16-20,22,26-27H,6-7,10H2,1-5H3,(H,25,29)/t16-,17+,18+,19+,20-,22+,24-/m1/s1
Instrument: LTQ Orbitrap XL Thermo Scientific
Instrument type: LC-ESI-ITFT
Ms type: MS2
Ion mode: NEGATIVE
Ionization: ESI
Fragmentation mode: HCD
Collision energy: 40 % (nominal)
Resolution: 7500
Column name: Hypersil GOLD C18 1.9 um 100 x 2.1 mm Thermo Fisher Scientific
Retention time: 23.546 min
Base peak: 476.2652
Precursor m/z: 416.2442
Precursor type: [M-H]-
Precursor intensity: 5004883.491699
m/z	relative intensity	assigned
112.0166	16	C5H4O3-
113.0241	36	C5H5O3-
127.0397	20	C6H7O3-
135.1177	17	C10H15-
136.0773	7	C8H10NO-
139.0761	7	C8H11O2-
145.0506	7	C6H9O4-
154.0869	999	C8H12NO2-
180.1025	71	C10H14NO2-
191.1439	6	C13H19O-
199.1495	7	C15H19-
217.1588	52	C15H21O-
232.1696	6	C15H22NO-
235.1333	10	C14H19O3-
243.138	7	C16H19O2-
261.1488	101	C16H21O3-
354.2429	10	C23H32NO2-
372.2537	22	C23H34NO3-
398.2329	20	C24H32NO4-
416.2435	386	C24H34NO5-
