Mass spectrum: Zearalenone; LC-ESI-ITFT; MS2; CE: 60%; R=7500; [M+H]+
Name: Zearalenone
Name: 15,17-Dihydroxy-11-methyl-12-oxabicyclo[12.4.0]octadeca-1(14),2,15,17-tetraene-7,13-dione
Name: 16,18-dihydroxy-4-methyl-3-oxabicyclo[12.4.0]octadeca-1(14),12,15,17-tetraene-2,8-dione
Formula: C18H22O5
Exact mass: 318.1467
SMILES: CC1CCCC(=O)CCCC=CC2=C(C(=CC(=C2)O)O)C(=O)O1
InChI: InChI=1S/C18H22O5/c1-12-6-5-9-14(19)8-4-2-3-7-13-10-15(20)11-16(21)17(13)18(22)23-12/h3,7,10-12,20-21H,2,4-6,8-9H2,1H3
Instrument: LTQ Orbitrap XL Thermo Scientific
Instrument type: LC-ESI-ITFT
Ms type: MS2
Ion mode: POSITIVE
Ionization: ESI
Fragmentation mode: HCD
Collision energy: 60 % (nominal)
Resolution: 7500
Column name: Hypersil GOLD C18 1.9 um 100 x 2.1 mm Thermo Fisher Scientific
Retention time: 21.215 min
Base peak: 319.1552
Precursor m/z: 319.154
Precursor type: [M+H]+
Precursor intensity: 9215349.875732
m/z	relative intensity	assigned
55.0179	27	C3H3O+
69.0698	59	C5H9+
97.0649	58	C6H9O+
107.086	13	C8H11+
119.086	16	C9H11+
123.0443	17	C7H7O2+
125.0963	44	C8H13O+
133.1017	12	C10H13+
149.0599	22	C9H9O2+
157.0649	126	C11H9O+
161.0599	94	C10H9O2+
163.039	26	C9H7O3+
163.0756	31	C10H11O2+
165.0183	60	C8H5O4+
169.0651	64	C12H9O+
173.06	19	C11H9O2+
175.0391	66	C10H7O3+
175.0755	134	C11H11O2+
177.0547	80	C10H9O3+
177.0912	69	C11H13O2+
185.0599	735	C12H9O2+
187.0756	999	C12H11O2+
189.0548	360	C11H9O3+
193.0498	13	C10H9O4+
199.0755	56	C13H11O2+
201.0918	33	C13H13O2+
203.0705	874	C12H11O3+
205.0491	81	C11H9O4+
205.0862	231	C12H13O3+
213.0553	122	C13H9O3+
213.0912	85	C14H13O2+
215.0707	108	C13H11O3+
215.1072	10	C14H15O2+
217.086	36	C13H13O3+
221.0809	73	C12H13O4+
225.0916	17	C15H13O2+
227.0709	73	C14H11O3+
228.0771	26	C14H12O3+
229.0862	95	C14H13O3+
231.0654	237	C13H11O4+
237.0909	13	C16H13O2+
240.0779	12	C15H12O3+
241.086	130	C15H13O3+
241.1233	26	C16H17O2+
243.1012	16	C15H15O3+
249.0765	16	C13H13O5+
255.102	15	C16H15O3+
255.1382	67	C17H19O2+
265.1223	94	C18H17O2+
283.1338	162	C18H19O3+
301.1447	54	C18H21O4+
