Mass spectrum: Fumigaclavine C; LC-ESI-ITFT; MS2; CE: 40%; R=7500; [M+H]+
Name: Fumigaclavine C
Name: CID 75144606
Name: [7,9-dimethyl-5-(2-methylbut-3-en-2-yl)-6,6a,8,9,10,10a-hexahydro-4H-indolo[4,3-fg]quinolin-10-yl] acetate
Formula: C23H30N2O2
Exact mass: 366.2307
SMILES: CC1CN(C2CC3=C(NC4=CC=CC(=C34)C2C1OC(=O)C)C(C)(C)C=C)C
InChI: InChI=1S/C23H30N2O2/c1-7-23(4,5)22-16-11-18-20(15-9-8-10-17(24-22)19(15)16)21(27-14(3)26)13(2)12-25(18)6/h7-10,13,18,20-21,24H,1,11-12H2,2-6H3
Instrument: LTQ Orbitrap XL Thermo Scientific
Instrument type: LC-ESI-ITFT
Ms type: MS2
Ion mode: POSITIVE
Ionization: ESI
Fragmentation mode: HCD
Collision energy: 40 % (nominal)
Resolution: 7500
Column name: Hypersil GOLD C18 1.9 um 100 x 2.1 mm Thermo Fisher Scientific
Retention time: 13.208 min
Base peak: 367.2377
Precursor m/z: 367.238
Precursor type: [M+H]+
Precursor intensity: 49259323.36621
m/z	relative intensity	assigned
57.0908	1	CH13O2+
156.1024	3	C8H14NO2+
167.0725	1	C12H9N+
192.0802	2	C14H10N+
194.096	10	C14H12N+
195.1036	6	C14H13N+
196.1114	6	C14H14N+
198.127	2	C14H16N+
206.0964	4	C15H12N+
207.1041	12	C15H13N+
208.1118	13	C15H14N+
222.1269	2	C16H16N+
235.1344	2	C17H17N+
236.1429	13	C17H18N+
237.1389	4	C16H17N2+
238.1461	42	C16H18N2+
239.1534	5	C16H19N2+
250.1592	4	C18H20N+
251.1542	3	C17H19N2+
261.1509	6	C19H19N+
262.1578	5	C19H20N+
264.1741	69	C19H22N+
265.17	3	C18H21N2+
276.1743	65	C20H22N+
292.1925	16	C20H24N2+
307.2165	87	C21H27N2+
367.2375	999	C23H31N2O2+
