Mass spectrum: Metoclopramide; LC-ESI-ITFT; MS2; CE: 55%; R=15000; [M+H]+
Name: Metoclopramide
Name: 4-amino-5-chloro-N-[2-(diethylamino)ethyl]-2-methoxybenzamide
Formula: C14H22ClN3O2
Exact mass: 299.1401
SMILES: CCN(CC)CCNC(=O)C1=CC(=C(C=C1OC)N)Cl
InChI: InChI=1S/C14H22ClN3O2/c1-4-18(5-2)7-6-17-14(19)10-8-11(15)12(16)9-13(10)20-3/h8-9H,4-7,16H2,1-3H3,(H,17,19)
Instrument: LTQ Orbitrap XL Thermo Scientific
Instrument type: LC-ESI-ITFT
Ms type: MS2
Ion mode: POSITIVE
Ionization: ESI
Fragmentation mode: HCD
Collision energy: 55% (nominal)
Resolution: 15000
Column name: Kinetex Evo C18 2.6 um 50 x 2.1 mm
Retention time: 2.739 min
Base peak: 300.1476
Precursor m/z: 300.1473
Precursor type: [M+H]+
m/z	relative intensity	assigned
100.1122	25	C6H14N+
117.1385	1	C6H17N2+
140.9982	1	C6H4ClNO+
148.063	1	C8H8N2O+
156.021	5	C7H7ClNO+
168.9932	2	C7H4ClNO2+
183.0322	131	C8H8ClN2O+
184.0161	606	C8H7ClNO2+
212.0348	99	C9H9ClN2O2+
227.0583	999	C10H12ClN2O2+
