Mass spectrum: Sulochrin; LC-ESI-ITFT; MS2; CE: 60%; R=7500; [M+H]+
Name: Sulochrin
Name: methyl 2-(2,6-dihydroxy-4-methylbenzoyl)-5-hydroxy-3-methoxybenzoate
Formula: C17H16O7
Exact mass: 332.0896
SMILES: CC1=CC(=C(C(=C1)O)C(=O)C2=C(C=C(C=C2OC)O)C(=O)OC)O
InChI: InChI=1S/C17H16O7/c1-8-4-11(19)15(12(20)5-8)16(21)14-10(17(22)24-3)6-9(18)7-13(14)23-2/h4-7,18-20H,1-3H3
Instrument: LTQ Orbitrap XL Thermo Scientific
Instrument type: LC-ESI-ITFT
Ms type: MS2
Ion mode: POSITIVE
Ionization: ESI
Fragmentation mode: HCD
Collision energy: 60 % (nominal)
Resolution: 7500
Column name: Hypersil GOLD C18 1.9 um 100 x 2.1 mm Thermo Fisher Scientific
Retention time: 15.120 min
Base peak: 209.0449
Precursor m/z: 333.0969
Precursor type: [M+H]+
Precursor intensity: 12161224.88794
m/z	relative intensity	assigned
57.0544	11	H9O3+
107.0491	14	C7H7O+
123.0442	25	C7H7O2+
124.0522	13	C7H8O2+
139.0757	8	C8H11O2+
151.0391	348	C8H7O3+
169.0496	75	C8H9O4+
179.0339	47	C9H7O4+
181.0495	46	C9H9O4+
209.0446	999	C10H9O5+
219.029	395	C11H7O5+
237.0396	16	C11H9O6+
