Mass spectrum: Phenazone; LC-ESI-QFT; MS2; CE: 35%; R=17500; [M+H]+
Name: Phenazone
Name: 1,5-Dimethyl-2-phenyl-1,2-dihydro-3H-pyrazol-3-one
Formula: C11H12N2O
Exact mass: 188.095
SMILES: CN1N(C(=O)C=C1C)C1=CC=CC=C1
InChI: InChI=1S/C11H12N2O/c1-9-8-11(14)13(12(9)2)10-6-4-3-5-7-10/h3-8H,1-2H3
Instrument: Q Exactive Thermo Fisher Scientific
Instrument type: LC-ESI-QFT
Ms type: MS2
Ion mode: POSITIVE
Ionization: ESI
Fragmentation mode: HCD
Collision energy: 35% (nominal)
Resolution: 17500
Column name: Hypersil GOLD 1.9 um 2.1 x 100 mm Thermo Fisher Scientific
Precursor m/z: 189.1023
Precursor type: [M+H]+
m/z	relative intensity
56.0504	17
58.066	19
91.0548	4
96.0688	9
104.05	13
106.0657	6
118.0655	8
120.0811	10
130.0654	11
131.0732	19
132.081	10
144.081	18
145.065	5
146.0839	18
147.0918	26
161.1075	29
174.0789	13
189.1023	999
