Mass spectrum: Cyclizine; ESI-QTOF; MS2; CE: 10eV; R=15000; [M+H]+
Name: Cyclizine
Name: 1-(Diphenylmethyl)-4-methylpiperazine
Formula: C18H22N2
Exact mass: 266.1783
SMILES: CN1CCN(CC1)C(C1=CC=CC=C1)C1=CC=CC=C1
InChI: InChI=1S/C18H22N2/c1-19-12-14-20(15-13-19)18(16-8-4-2-5-9-16)17-10-6-3-7-11-17/h2-11,18H,12-15H2,1H3
Instrument: TripleTOF 5600+SCIEX
Instrument type: ESI-QTOF
Ms type: MS2
Ion mode: POSITIVE
Ionization: ESI
Fragmentation mode: CID
Collision energy: 10 eV
Resolution: 15000
Precursor m/z: 267.1856
Precursor type: [M+H]+
m/z	relative intensity
57.0723	1
71.0872	2
81.0711	1
83.0866	1
85.1022	2
95.0862	3
97.1019	2
99.0922	3
107.0858	1
109.1014	3
111.1171	2
113.1325	1
123.1169	3
125.1325	1
137.1323	2
151.148	1
152.0619	7
165.1637	1
166.0773	2
167.0859	818
267.1856	999
