Mass spectrum: Sulfamethoxazole; LC-ESI-QTOF; MS2; CE: 30 eV; R=3600; [M+H]+
Name: Sulfamethoxazole
Name: 4-Amino-N-(5-methyl-1,2-oxazol-3-yl)benzene-1-sulfonamide
Formula: C10H11N3O3S
Exact mass: 253.0521
SMILES: CC1=CC(NS(=O)(=O)C2=CC=C(N)C=C2)=NO1
InChI: InChI=1S/C10H11N3O3S/c1-7-6-10(12-16-7)13-17(14,15)9-4-2-8(11)3-5-9/h2-6H,11H2,1H3,(H,12,13)
Instrument: 6665 QTOF Agilent
Instrument type: LC-ESI-QTOF
Ms type: MS2
Ion mode: POSITIVE
Ionization: ESI
Fragmentation mode: CID
Collision energy: 30 eV
Resolution: 3600
Precursor m/z: 254.0594
Precursor type: [M+H]+
m/z	relative intensity
51.0217	2
52.0336	3
53.0384	47
54.0352	4
55.017	7
56.047	3
57.0436	3
64.0186	3
65.0379	999
66.044	37
71.0611	4
72.0439	7
77.0442	5
78.0306	3
79.0429	7
80.0483	291
81.0557	3
90.0323	5
92.0481	810
93.0546	200
94.0626	23
99.0529	71
105.0387	4
106.0528	7
107.0558	34
108.0423	654
118.0493	6
119.0619	6
121.0726	6
130.0506	4
131.0563	13
132.0722	6
133.062	6
146.068	35
147.0762	39
156.011	31
158.9963	3
160.0853	10
173.0595	3
