Mass spectrum: Picolinafen-OH (TENTATIVE); LC-ESI-QFT; MS2; CE: 30%; R=70000; [M+H]+
Name: Picolinafen-OH
Formula: C19H12F4N2O3
Exact mass: 392.077
SMILES: C(*)1=C(*)C(=C(*)C(=C(*)1)OC2=C(*)C(*)=C(*)C(=N2)C(=O)NC3=CC=C(C(*)=C(*)3)F)C(F)(F)F  *=[OH (n=1) & H (n=8)]
Instrument: Q Exactive Plus Orbitrap Thermo Scientific
Instrument type: LC-ESI-QFT
Ms type: MS2
Ion mode: POSITIVE
Ionization: ESI
Fragmentation mode: HCD
Collision energy: 30% (nominal)
Resolution: 70000
Column name: Waters UPLC BEH C18 1.7 um 2.1 mm x 100 mm with pre-column
Retention time: 15.64 min
Precursor m/z: 393.0848
Precursor type: [M+H]+
m/z	relative intensity
69.0448	9
92.0085	1
145.0265	3
149.0234	2
210.0527	2
218.041	2
236.0518	38
238.0474	149
239.0511	1
251.0386	1
254.0421	1
255.0464	3
256.0579	999
257.0616	4
258.0623	1
270.0736	4
284.0528	33
297.0837	3
305.0719	4
325.0787	6
335.0621	1
345.0841	3
353.0729	17
373.0789	5
375.075	375
393.0857	4
