Mass spectrum: Asterric acid; LC-ESI-ITFT; MS2; CE: 50%; R=7500; [M+H]+
Name: Asterric acid
Name: 2-hydroxy-6-(4-hydroxy-2-methoxy-6-methoxycarbonylphenoxy)-4-methylbenzoic acid
Formula: C17H16O8
Exact mass: 348.0845
SMILES: CC1=CC(=C(C(=C1)OC2=C(C=C(C=C2OC)O)C(=O)OC)C(=O)O)O
InChI: InChI=1S/C17H16O8/c1-8-4-11(19)14(16(20)21)12(5-8)25-15-10(17(22)24-3)6-9(18)7-13(15)23-2/h4-7,18-19H,1-3H3,(H,20,21)
Instrument: LTQ Orbitrap XL Thermo Scientific
Instrument type: LC-ESI-ITFT
Ms type: MS2
Ion mode: POSITIVE
Ionization: ESI
Fragmentation mode: HCD
Collision energy: 50 % (nominal)
Resolution: 7500
Column name: Hypersil GOLD C18 1.9 um 100 x 2.1 mm Thermo Fisher Scientific
Retention time: 17.899 min
Base peak: 331.0814
Precursor m/z: 349.0918
Precursor type: [M+H]+
Precursor intensity: 7362370.318848
m/z	relative intensity	assigned
272.0671	999	C15H12O5+
