Mass spectrum: Cyclizine; LC-ESI-QFT; MS2; CE: 70%; R=17500; [M+H]+
Name: Cyclizine
Name: 1-(Diphenylmethyl)-4-methylpiperazine
Formula: C18H22N2
Exact mass: 266.1783
SMILES: CN1CCN(CC1)C(C1=CC=CC=C1)C1=CC=CC=C1
InChI: InChI=1S/C18H22N2/c1-19-12-14-20(15-13-19)18(16-8-4-2-5-9-16)17-10-6-3-7-11-17/h2-11,18H,12-15H2,1H3
Instrument: Q Exactive Thermo Fisher Scientific
Instrument type: LC-ESI-QFT
Ms type: MS2
Ion mode: POSITIVE
Ionization: ESI
Fragmentation mode: HCD
Collision energy: 70% (nominal)
Resolution: 17500
Column name: Hypersil GOLD 1.9 um 2.1 x 100 mm Thermo Fisher Scientific
Precursor m/z: 267.1856
Precursor type: [M+H]+
m/z	relative intensity
63.0239	1
70.0659	4
99.0923	2
115.0546	6
128.0624	23
139.0539	1
141.0699	31
152.0621	917
165.0699	856
166.0779	293
167.0856	999
169.0648	43
179.0605	16
182.1163	2
