Mass spectrum: Mefruside; ESI-QTOF; MS2; CE: 15eV; R=15000; [M+H]+
Name: Mefruside
Name: 4-Chloro-N1-methyl-N1-[(2-methyloxolan-2-yl)methyl]benzene-1,3-disulfonamide
Formula: C13H19ClN2O5S2
Exact mass: 382.0424
SMILES: CN(CC1(C)CCCO1)S(=O)(=O)C1=CC=C(Cl)C(=C1)S(N)(=O)=O
InChI: InChI=1S/C13H19ClN2O5S2/c1-13(6-3-7-21-13)9-16(2)23(19,20)10-4-5-11(14)12(8-10)22(15,17)18/h4-5,8H,3,6-7,9H2,1-2H3,(H2,15,17,18)
Instrument: TripleTOF 5600+SCIEX
Instrument type: ESI-QTOF
Ms type: MS2
Ion mode: POSITIVE
Ionization: ESI
Fragmentation mode: CID
Collision energy: 15 eV
Resolution: 15000
Precursor m/z: 383.0497
Precursor type: [M+H]+
m/z	relative intensity
57.036	1
69.0725	1
71.087	1
79.0558	2
81.0716	39
84.0824	6
86.0616	1
96.0814	1
97.0661	8
99.0817	77
110.0976	1
111.1051	2
112.1122	1
128.1079	45
129.1156	186
142.99	1
189.9739	1
203.9887	1
217.9793	2
237.9405	1
253.9356	9
267.9515	7
284.1023	1
284.9781	281
288.0478	2
296.9782	33
314.9887	3
352.0095	13
365.041	29
383.0497	999
