Mass spectrum: Dixyrazine; LC-ESI-ITFT; MS2; CE: 105%; R=15000; [M+H]+
Name: Dixyrazine
Name: 2-[2-[4-(2-methyl-3-phenothiazin-10-ylpropyl)piperazin-1-yl]ethoxy]ethanol
Formula: C24H33N3O2S
Exact mass: 427.2293
SMILES: CC(CN1CCN(CC1)CCOCCO)CN2C3=CC=CC=C3SC4=CC=CC=C42
InChI: InChI=1S/C24H33N3O2S/c1-20(18-26-12-10-25(11-13-26)14-16-29-17-15-28)19-27-21-6-2-4-8-23(21)30-24-9-5-3-7-22(24)27/h2-9,20,28H,10-19H2,1H3
Instrument: LTQ Orbitrap XL Thermo Scientific
Instrument type: LC-ESI-ITFT
Ms type: MS2
Ion mode: POSITIVE
Ionization: ESI
Fragmentation mode: HCD
Collision energy: 105% (nominal)
Resolution: 15000
Column name: Kinetex Evo C18 2.6 um 50 x 2.1 mm
Retention time: 8.945 min
Base peak: 428.2365
Precursor m/z: 428.2366
Precursor type: [M+H]+
m/z	relative intensity	assigned
58.0649	169	C3H8N+
68.0493	29	C4H6N+
70.065	475	C4H8N+
82.0651	114	C5H8N+
83.0603	130	C4H7N2+
84.0808	41	C5H10N+
87.044	37	C4H7O2+
97.076	506	C5H9N2+
98.0838	994	C5H10N2+
99.0916	35	C5H11N2+
101.1073	84	C5H13N2+
112.0995	28	C6H12N2+
125.1073	9	C7H13N2+
144.1021	8	C7H14NO2+
151.0542	32	C12H7+
152.062	58	C12H8+
153.057	10	C11H7N+
153.0697	27	C12H9+
166.0649	10	C12H8N+
167.0729	55	C12H9N+
178.0652	69	C13H8N+
179.073	285	C13H9N+
180.0808	999	C13H10N+
181.084	109	C8H11N3O2+
184.0339	27	C12H8S+
198.037	20	C12H8NS+
206.0969	11	C15H12N+
212.0529	52	C13H10NS+
