Mass spectrum: Cyclizine; LC-ESI-QTOF; MS2; CE: 40 eV; R=3600; [M+H]+
Name: Cyclizine
Name: 1-(Diphenylmethyl)-4-methylpiperazine
Formula: C18H22N2
Exact mass: 266.1783
SMILES: CN1CCN(CC1)C(C1=CC=CC=C1)C1=CC=CC=C1
InChI: InChI=1S/C18H22N2/c1-19-12-14-20(15-13-19)18(16-8-4-2-5-9-16)17-10-6-3-7-11-17/h2-11,18H,12-15H2,1H3
Instrument: 6546 QTOF Agilent
Instrument type: LC-ESI-QTOF
Ms type: MS2
Ion mode: POSITIVE
Ionization: ESI
Fragmentation mode: CID
Collision energy: 40 eV
Resolution: 3600
Precursor m/z: 267.1856
Precursor type: [M+H]+
m/z	relative intensity
55.5276	82
72.082	151
104.0642	152
115.0499	62
116.7275	50
128.0648	117
141.0696	176
151.0527	327
152.0634	999
164.063	258
165.0732	770
165.1375	71
165.1604	69
167.0876	486
