Mass spectrum: Terbutryn-OH (TENTATIVE); LC-ESI-QFT; MS2; CE: 55%; R=70000; [M+H]+
Name: Terbutryn-OH
Formula: C10H19N5OS
Exact mass: 257.1308
SMILES: C(*)C(*)NC1=NC(=NC(=N1)SC(*))NC(C)(C)C(*)  *=[OH (n=1)& H (n=3)]
Instrument: Q Exactive Plus Orbitrap Thermo Scientific
Instrument type: LC-ESI-QFT
Ms type: MS2
Ion mode: POSITIVE
Ionization: ESI
Fragmentation mode: HCD
Collision energy: 55% (nominal)
Resolution: 70000
Column name: Waters UPLC BEH C18 1.7 um 2.1 mm x 100 mm with pre-column
Retention time: 13.33 min
Precursor m/z: 258.1386
Precursor type: [M+H]+
m/z	relative intensity
53.0389	48
55.0294	74
55.0545	55
57.0701	140
58.0654	92
59.048	57
67.0543	120
68.0244	999
69.0084	674
69.0322	46
70.04	76
71.0477	51
71.0604	149
71.9903	150
79.0543	82
84.9855	525
85.0508	38
86.0349	238
89.0166	37
91.0543	91
96.0555	95
97.0397	117
97.051	39
111.0666	95
112.0619	111
115.0544	50
124.0619	55
127.0073	65
139.0855	54
