Mass spectrum: Tetracycline; LC-ESI-ITFT; MS2; CE: 40%; R=15000; [M+H]+
Name: Tetracycline
Name: 2-[amino(hydroxy)methylidene]-4-(dimethylamino)-6,10,11,12a-tetrahydroxy-6-methyl-4,4a,5,5a-tetrahydrotetracene-1,3,12-trione
Formula: C22H24N2O8
Exact mass: 444.1533
SMILES: [H][C@@]12C[C@@]3([H])C(=C(O)[C@]1(O)C(=O)C(C(N)=O)=C(O)[C@H]2N(C)C)C(=O)C1=C(C=CC=C1O)[C@@]3(C)O
InChI: InChI=1S/C22H24N2O8/c1-21(31)8-5-4-6-11(25)12(8)16(26)13-9(21)7-10-15(24(2)3)17(27)14(20(23)30)19(29)22(10,32)18(13)28/h4-6,9-10,15,25,27-28,31-32H,7H2,1-3H3,(H2,23,30)/t9-,10-,15-,21+,22-/m0/s1
Instrument: LTQ Orbitrap XL Thermo Scientific
Instrument type: LC-ESI-ITFT
Ms type: MS2
Ion mode: POSITIVE
Ionization: ESI
Fragmentation mode: HCD
Collision energy: 40% (nominal)
Resolution: 15000
Column name: Kinetex Evo C18 2.6 um 50 x 2.1 mm
Retention time: 3.320 min
Base peak: 300.1474
Precursor m/z: 445.1605
Precursor type: [M+H]+
m/z	relative intensity	assigned
58.0649	4	C3H8N+
86.06	32	C4H8NO+
98.06	188	C5H8NO+
126.0549	46	C6H8NO2+
154.0498	999	C7H8NO3+
241.0859	60	C15H13O3+
243.0648	8	C14H11O4+
251.0702	14	C16H11O3+
257.0807	41	C15H13O4+
267.065	38	C16H11O4+
269.0808	103	C16H13O4+
279.0653	3	C17H11O4+
291.0651	12	C18H11O4+
293.0811	8	C18H13O4+
296.1285	8	C18H18NO3+
297.0757	23	C17H13O5+
309.0762	4	C18H13O5+
319.0605	6	C19H11O5+
321.0758	52	C19H13O5+
337.0706	108	C19H13O6+
349.0708	25	C20H13O6+
365.0655	42	C20H13O7+
392.1123	15	C22H18NO6+
410.1235	158	C22H20NO7+
