Mass spectrum: Nylidrin; LC-ESI-ITFT; MS2; CE: 165%; R=15000; [M+H]+
Name: Nylidrin
Name: 4-[1-hydroxy-2-(4-phenylbutan-2-ylamino)propyl]phenol
Formula: C19H25NO2
Exact mass: 299.1885
SMILES: CC(CCC1=CC=CC=C1)NC(C)C(C2=CC=C(C=C2)O)O
InChI: InChI=1S/C19H25NO2/c1-14(8-9-16-6-4-3-5-7-16)20-15(2)19(22)17-10-12-18(21)13-11-17/h3-7,10-15,19-22H,8-9H2,1-2H3
Instrument: LTQ Orbitrap XL Thermo Scientific
Instrument type: LC-ESI-ITFT
Ms type: MS2
Ion mode: POSITIVE
Ionization: ESI
Fragmentation mode: HCD
Collision energy: 165% (nominal)
Resolution: 15000
Column name: Kinetex Evo C18 2.6 um 50 x 2.1 mm
Retention time: 6.845 min
Base peak: 300.196
Precursor m/z: 300.1958
Precursor type: [M+H]+
m/z	relative intensity	assigned
63.0227	38	C5H3+
65.0384	685	C5H5+
66.0462	15	C5H6+
77.0385	212	C6H5+
79.0542	147	C6H7+
89.0386	41	C7H5+
91.0542	999	C7H7+
94.0413	47	C6H6O+
95.0492	49	C6H7O+
103.0542	77	C8H7+
105.0447	294	C6H5N2+
105.07	25	C8H9+
107.0491	121	C7H7O+
115.0543	46	C9H7+
