Mass spectrum: Atrazine-OH (TENTATIVE); LC-ESI-QFT; MS2; CE: 30%; R=70000; [M+H]+
Name: Atrazine-OH
Formula: C8H15N5O
Exact mass: 197.1268
SMILES: C(*)C(*)NC1=NC(=NC(=N1)Cl)NC(C*)C* * = [OH (n=1) & H (n=3)]
Instrument: Q Exactive Plus Orbitrap Thermo Scientific
Instrument type: LC-ESI-QFT
Ms type: MS2
Ion mode: POSITIVE
Ionization: ESI
Fragmentation mode: HCD
Collision energy: 30% (nominal)
Resolution: 70000
Column name: Waters UPLC BEH C18 1.7 um 2.1 mm x 100 mm with pre-column
Retention time: 10.23 min
Precursor m/z: 198.1346
Precursor type: [M+H]+
m/z	relative intensity
55.0545	25
56.0497	27
67.0543	44
68.0244	28
69.0084	624
71.0603	102
77.0386	18
85.0509	39
86.0349	999
91.0542	48
92.0574	33
95.0491	39
96.0556	38
97.0396	438
100.1121	95
105.0449	22
113.0819	43
114.0662	599
126.1277	73
128.0567	61
142.0731	25
156.088	339
