Mass spectrum: Nylidrin; LC-ESI-QFT; MS2; CE: 40%; R=30000; [M+H]+
Name: Nylidrin
Name: 4-{1-Hydroxy-2-[(4-phenylbutan-2-yl)amino]propyl}phenol
Formula: C19H25NO2
Exact mass: 299.1885
SMILES: CC(CCC1=CC=CC=C1)NC(C)C(O)C1=CC=C(O)C=C1
InChI: InChI=1S/C19H25NO2/c1-14(8-9-16-6-4-3-5-7-16)20-15(2)19(22)17-10-12-18(21)13-11-17/h3-7,10-15,19-22H,8-9H2,1-2H3
Instrument: Orbitrap Fusion Tribrid Thermo Fisher Scientific
Instrument type: LC-ESI-QFT
Ms type: MS2
Ion mode: POSITIVE
Ionization: ESI
Fragmentation mode: HCD
Collision energy: 40% (nominal)
Resolution: 30000
Precursor m/z: 300.1959
Precursor type: [M+H]+
m/z	relative intensity
77.0387	2
91.0544	999
95.0492	5
103.0543	4
105.07	255
107.0493	31
109.0649	21
133.0648	530
135.0805	62
148.1121	4
150.0913	944
151.0753	17
178.1226	9
282.185	32
