Mass spectrum: Etofylline; LC-ESI-QFT; MS2; CE: 80%; R=30000; [M+H]+
Name: Etofylline
Name: 7-(2-Hydroxyethyl)-1,3-dimethyl-3,7-dihydro-1H-purine-2,6-dione
Formula: C9H12N4O3
Exact mass: 224.0909
SMILES: CN1C2=C(N(CCO)C=N2)C(=O)N(C)C1=O
InChI: InChI=1S/C9H12N4O3/c1-11-7-6(8(15)12(2)9(11)16)13(3-4-14)5-10-7/h5,14H,3-4H2,1-2H3
Instrument: Orbitrap Fusion Tribrid Thermo Fisher Scientific
Instrument type: LC-ESI-QFT
Ms type: MS2
Ion mode: POSITIVE
Ionization: ESI
Fragmentation mode: HCD
Collision energy: 80% (nominal)
Resolution: 30000
Precursor m/z: 225.0983
Precursor type: [M+H]+
m/z	relative intensity
54.0214	24
55.0294	21
67.0293	33
68.0371	26
69.045	999
81.045	23
83.0242	47
94.0402	26
95.0242	19
96.0559	386
97.0399	19
109.0273	87
124.0507	280
