Mass spectrum: Sulfamethoxazole; LC-ESI-ITFT; MS2; CE: 135%; R=15000; [M+H]+
Name: Sulfamethoxazole
Name: 4-amino-N-(5-methyl-1,2-oxazol-3-yl)benzenesulfonamide
Formula: C10H11N3O3S
Exact mass: 253.0521
SMILES: CC1=CC(=NO1)NS(=O)(=O)C2=CC=C(C=C2)N
InChI: InChI=1S/C10H11N3O3S/c1-7-6-10(12-16-7)13-17(14,15)9-4-2-8(11)3-5-9/h2-6H,11H2,1H3,(H,12,13)
Instrument: LTQ Orbitrap XL Thermo Scientific
Instrument type: LC-ESI-ITFT
Ms type: MS2
Ion mode: POSITIVE
Ionization: ESI
Fragmentation mode: HCD
Collision energy: 135% (nominal)
Resolution: 15000
Column name: Kinetex Evo C18 2.6 um 50 x 2.1 mm
Retention time: 5.593 min
Base peak: 189.1021
Precursor m/z: 254.0594
Precursor type: [M+H]+
m/z	relative intensity	assigned
53.0383	21	C4H5+
54.0337	3	C3H4N+
56.0492	3	C3H6N+
65.0384	999	C5H5+
66.0336	23	C4H4N+
66.0462	26	C5H6+
78.0339	3	C5H4N+
79.0415	4	C5H5N+
80.0494	378	C5H6N+
90.034	4	C6H4N+
91.0416	3	C6H5N+
92.0495	231	C6H6N+
93.0573	113	C6H7N+
99.0552	5	C4H7N2O+
105.0446	7	C6H5N2+
107.0607	3	C6H7N2+
108.0444	148	C6H6NO+
110.06	17	C6H8NO+
118.0527	2	C7H6N2+
119.0604	4	C7H7N2+
146.0712	9	C8H8N3+
