Mass spectrum: Sulfamethoxazole; LC-ESI-QTOF; MS2; CE: 20 eV; R=3600; [M+H]+
Name: Sulfamethoxazole
Name: 4-Amino-N-(5-methyl-1,2-oxazol-3-yl)benzene-1-sulfonamide
Formula: C10H11N3O3S
Exact mass: 253.0521
SMILES: CC1=CC(NS(=O)(=O)C2=CC=C(N)C=C2)=NO1
InChI: InChI=1S/C10H11N3O3S/c1-7-6-10(12-16-7)13-17(14,15)9-4-2-8(11)3-5-9/h2-6H,11H2,1H3,(H,12,13)
Instrument: 6663 QTOF Agilent
Instrument type: LC-ESI-QTOF
Ms type: MS2
Ion mode: POSITIVE
Ionization: ESI
Fragmentation mode: CID
Collision energy: 20 eV
Resolution: 3600
Precursor m/z: 254.0594
Precursor type: [M+H]+
m/z	relative intensity
51.0215	3
53.0371	12
54.0317	3
55.0175	8
65.0374	696
66.0557	4
67.0502	4
71.0577	4
72.0425	10
77.033	3
79.0409	4
80.0474	261
90.0331	4
92.0472	999
93.0546	281
99.0529	121
105.0413	7
106.05	11
107.0575	29
108.0414	700
116.0457	3
119.0575	4
121.0711	5
130.0524	5
131.0567	11
132.0635	3
133.063	10
143.0553	4
146.0676	48
147.0744	45
148.0783	12
156.0068	249
159.074	6
160.0841	55
173.0549	3
188.0748	17
194.0341	3
254.0594	12
