Mass spectrum: Fumigaclavine A; LC-ESI-ITFT; MS2; CE: 50%; R=7500; [M+H]+
Name: Fumigaclavine A
Name: Isofumigaclavine A
Name: (7,9-dimethyl-6,6a,8,9,10,10a-hexahydro-4H-indolo[4,3-fg]quinolin-10-yl) acetate
Formula: C18H22N2O2
Exact mass: 298.1681
SMILES: CC1CN(C2CC3=CNC4=CC=CC(=C34)C2C1OC(=O)C)C
InChI: InChI=1S/C18H22N2O2/c1-10-9-20(3)15-7-12-8-19-14-6-4-5-13(16(12)14)17(15)18(10)22-11(2)21/h4-6,8,10,15,17-19H,7,9H2,1-3H3
Instrument: LTQ Orbitrap XL Thermo Scientific
Instrument type: LC-ESI-ITFT
Ms type: MS2
Ion mode: POSITIVE
Ionization: ESI
Fragmentation mode: HCD
Collision energy: 50 % (nominal)
Resolution: 7500
Column name: Hypersil GOLD C18 1.9 um 100 x 2.1 mm Thermo Fisher Scientific
Retention time: 8.566 min
Base peak: 299.175
Precursor m/z: 299.1754
Precursor type: [M+H]+
Precursor intensity: 35977347.03613
m/z	relative intensity	assigned
84.0805	3	C5H10N+
108.0804	1	C7H10N+
130.0648	3	C9H8N+
144.0803	6	C10H10N+
154.0648	18	C11H8N+
155.0728	1	C11H9N+
156.0804	15	C11H10N+
156.1017	5	C8H14NO2+
167.0729	9	C12H9N+
168.0805	81	C12H10N+
170.0831	2	C11H10N2+
170.0963	2	C12H12N+
172.0755	6	C11H10NO+
179.0852	4	C14H11+
180.08	2	C13H10N+
181.1006	5	C14H13+
182.0959	15	C13H12N+
183.0913	54	C12H11N2+
184.0993	9	C12H12N2+
186.0912	4	C12H12NO+
192.0803	4	C14H10N+
193.0884	25	C14H11N+
194.0961	6	C14H12N+
196.1117	84	C14H14N+
197.107	18	C13H13N2+
198.1274	42	C14H16N+
206.0966	1	C15H12N+
207.1043	2	C15H13N+
208.1117	303	C15H14N+
210.127	20	C15H16N+
224.1305	9	C15H16N2+
226.122	4	C15H16NO+
237.1391	2	C16H17N2+
239.1537	227	C16H19N2+
299.1747	999	C18H23N2O2+
