Mass spectrum: Pyranonigrin A; LC-ESI-ITFT; MS2; CE: 15%; R=7500; [M-H]-
Name: Pyranonigrin A
Name: CID 73323900
Name: 3,7-dihydroxy-2-prop-1-enyl-6,7-dihydropyrano[2,3-c]pyrrole-4,5-dione
Formula: C10H9NO5
Exact mass: 223.04807
SMILES: CC=CC1=C(C(=O)C2=C(O1)C(NC2=O)O)O
InChI: InChI=1S/C10H9NO5/c1-2-3-4-6(12)7(13)5-8(16-4)10(15)11-9(5)14/h2-3,10,12,15H,1H3,(H,11,14)
Instrument: LTQ Orbitrap XL Thermo Scientific
Instrument type: LC-ESI-ITFT
Ms type: MS2
Ion mode: NEGATIVE
Ionization: ESI
Fragmentation mode: HCD
Collision energy: 15 % (nominal)
Resolution: 7500
Column name: Hypersil GOLD C18 1.9 um 100 x 2.1 mm Thermo Fisher Scientific
Retention time: 8.469 min
Base peak: 222.0399
Precursor m/z: 222.0408
Precursor type: [M-H]-
Precursor intensity: 3745201.614014
m/z	relative intensity	assigned
83.0138	4	C4H3O2-
104.0508	3	C7H6N-
107.0499	3	C7H7O-
120.0451	3	C7H6NO-
123.0083	3	C6H3O3-
123.0448	32	C7H7O2-
124.0043	2	C5H2NO3-
125.0238	3	C6H5O3-
132.0451	18	C8H6NO-
135.0446	6	C8H7O2-
138.0554	3	C7H8NO2-
148.0401	2	C8H6NO2-
149.0479	5	C8H7NO2-
150.0555	75	C8H8NO2-
151.0396	98	C8H7O3-
152.0355	2	C7H6NO3-
166.0507	8	C8H8NO3-
176.0345	5	C9H6NO3-
178.0509	1	C9H8NO3-
179.0343	27	C9H7O4-
194.0452	49	C9H8NO4-
222.0397	999	C10H8NO5-
