Mass spectrum: Fumonisin B2; LC-ESI-ITFT; MS2; CE: 60%; R=7500; [M-H]-
Name: Fumonisin B2
Name: Fumonisin B2, Fusarium moniliforme
Name: 2-[2-[19-amino-6-(3,4-dicarboxybutanoyloxy)-16,18-dihydroxy-5,9-dimethylicosan-7-yl]oxy-2-oxoethyl]butanedioic acid
Formula: C34H59NO14
Exact mass: 705.39356
SMILES: CCCCC(C)C(C(CC(C)CCCCCCC(CC(C(C)N)O)O)OC(=O)CC(CC(=O)O)C(=O)O)OC(=O)CC(CC(=O)O)C(=O)O
InChI: InChI=1S/C34H59NO14/c1-5-6-12-21(3)32(49-31(43)18-24(34(46)47)16-29(40)41)27(48-30(42)17-23(33(44)45)15-28(38)39)14-20(2)11-9-7-8-10-13-25(36)19-26(37)22(4)35/h20-27,32,36-37H,5-19,35H2,1-4H3,(H,38,39)(H,40,41)(H,44,45)(H,46,47)
Instrument: LTQ Orbitrap XL Thermo Scientific
Instrument type: LC-ESI-ITFT
Ms type: MS2
Ion mode: NEGATIVE
Ionization: ESI
Fragmentation mode: HCD
Collision energy: 60 % (nominal)
Resolution: 7500
Column name: Hypersil GOLD C18 1.9 um 100 x 2.1 mm Thermo Fisher Scientific
Retention time: 22.219 min
Base peak: 704.3875
Precursor m/z: 704.3863
Precursor type: [M-H]-
Precursor intensity: 259265881.3438
m/z	relative intensity	assigned
69.0348	55	C4H5O-
71.0141	7	C3H3O2-
113.0248	134	C5H5O3-
115.0042	5	C4H3O4-
131.0355	5	C5H7O4-
157.0147	999	C6H5O5-
175.0251	21	C6H7O6-
546.366	10	C28H52NO9-
