Mass spectrum: Nylidrin; ESI-QTOF; MS2; CE: 45eV; R=15000; [M+H]+
Name: Nylidrin
Name: 4-{1-Hydroxy-2-[(4-phenylbutan-2-yl)amino]propyl}phenol
Formula: C19H25NO2
Exact mass: 299.1885
SMILES: CC(CCC1=CC=CC=C1)NC(C)C(O)C1=CC=C(O)C=C1
InChI: InChI=1S/C19H25NO2/c1-14(8-9-16-6-4-3-5-7-16)20-15(2)19(22)17-10-12-18(21)13-11-17/h3-7,10-15,19-22H,8-9H2,1-2H3
Instrument: TripleTOF 5600+SCIEX
Instrument type: ESI-QTOF
Ms type: MS2
Ion mode: POSITIVE
Ionization: ESI
Fragmentation mode: CID
Collision energy: 45 eV
Resolution: 15000
Precursor m/z: 300.1959
Precursor type: [M+H]+
m/z	relative intensity
50.0177	1
51.0254	2
55.0201	7
56.0514	21
57.0354	6
63.0245	1
65.04	32
77.0394	32
79.055	48
81.0704	4
89.0392	1
91.0547	999
92.0496	1
94.0415	3
95.0493	7
102.0462	1
103.0541	83
104.0618	1
105.0699	726
106.0649	2
107.0489	80
108.0806	3
109.0646	28
115.0539	42
116.061	1
117.0568	8
118.0647	2
120.0438	6
121.0645	3
122.0596	1
123.0801	1
131.0486	18
132.0801	7
133.0642	580
134.0593	10
135.0672	66
145.0638	1
148.1113	1
149.0829	1
150.0905	427
151.0743	7
162.0902	2
178.1217	1
