Mass spectrum: Azoxystrobin-metabolite (TENTATIVE); LC-ESI-QFT; MS2; CE: 30%; R=70000; [M+H]+
Name: Azoxystrobin-metabolite
Name: 2-[(6-hydroxypyrimidin-4-yl)oxy]benzonitrile
Formula: C11H7N3O2
Exact mass: 213.0529
SMILES: OC2=NC=NC(=C2)OC3=CC=CC=C3C#N
InChI: InChI=1S/C11H7N3O2/c12-6-8-3-1-2-4-9(8)16-11-5-10(15)13-7-14-11/h1-5,7H,(H,13,14,15)
Instrument: Q Exactive Plus Orbitrap Thermo Scientific
Instrument type: LC-ESI-QFT
Ms type: MS2
Ion mode: POSITIVE
Ionization: ESI
Fragmentation mode: HCD
Collision energy: 30% (nominal)
Resolution: 70000
Column name: Waters UPLC BEH C18 1.7 um 2.1 mm x 100 mm with pre-column
Retention time: 8.9 min
Precursor m/z: 214.0607
Precursor type: [M+H]+
m/z	relative intensity
51.0233	2
53.0389	2
65.0387	18
67.0544	3
68.0132	129
68.9972	5
78.0339	2
92.0494	101
95.0238	2
95.0492	4
102.0338	7
110.0603	3
116.0494	18
120.0444	999
129.0447	8
130.04	31
138.0553	2
144.0446	5
145.0397	4
146.0239	4
146.0712	3
187.0502	278
214.0609	6
