Mass spectrum: Fusapyrone; LC-ESI-ITFT; MS2; CE: 40%; R=7500; [M+H]+
Name: Fusapyrone
Name: 3-[3,4-dihydroxy-6-(hydroxymethyl)oxan-2-yl]-4-hydroxy-6-[3-hydroxy-8-(hydroxymethyl)-2,6,10,12-tetramethyloctadeca-4,6,9-trien-2-yl]pyran-2-one
Formula: C34H54O9
Exact mass: 606.3768
SMILES: CCCCCCC(C)CC(=CC(CO)C=C(C)C=CC(C(C)(C)C1=CC(=C(C(=O)O1)C2C(C(CC(O2)CO)O)O)O)O)C
InChI: InChI=1S/C34H54O9/c1-7-8-9-10-11-21(2)14-23(4)16-24(19-35)15-22(3)12-13-28(39)34(5,6)29-18-26(37)30(33(41)43-29)32-31(40)27(38)17-25(20-36)42-32/h12-13,15-16,18,21,24-25,27-28,31-32,35-40H,7-11,14,17,19-20H2,1-6H3
Instrument: LTQ Orbitrap XL Thermo Scientific
Instrument type: LC-ESI-ITFT
Ms type: MS2
Ion mode: POSITIVE
Ionization: ESI
Fragmentation mode: HCD
Collision energy: 40 % (nominal)
Resolution: 7500
Column name: Hypersil GOLD C18 1.9 um 100 x 2.1 mm Thermo Fisher Scientific
Retention time: 26.680 min
Base peak: 607.3855
Precursor m/z: 607.3841
Precursor type: [M+H]+
Precursor intensity: 6682809.754395
m/z	relative intensity	assigned
155.0707	123	C8H11O3+
167.0701	47	C9H11O3+
179.0702	55	C10H11O3+
195.0655	157	C10H11O4+
197.0814	202	C10H13O4+
229.0863	999	C14H13O3+
247.0974	297	C14H15O4+
265.1076	233	C14H17O5+
271.243	79	C20H31+
289.2529	187	C20H33O+
