Mass spectrum: Imidacloprid-urea (PROBABLE); LC-ESI-QFT; MS2; CE: 30%; R=70000; [M+H]+
Name: Imidacloprid-urea
Name: 1-[(6-chloropyridin-3-yl)methyl]imidazolidin-2-one
Formula: C9H10ClN3O
Exact mass: 211.0513
SMILES: C1CN(C(=O)N1)CC2=CN=C(C=C2)Cl
InChI: InChI=1S/C9H10ClN3O/c10-8-2-1-7(5-12-8)6-13-4-3-11-9(13)14/h1-2,5H,3-4,6H2,(H,11,14)
Instrument: Q Exactive Plus Orbitrap Thermo Scientific
Instrument type: LC-ESI-QFT
Ms type: MS2
Ion mode: POSITIVE
Ionization: ESI
Fragmentation mode: HCD
Collision energy: 30% (nominal)
Resolution: 70000
Column name: Waters UPLC BEH C18 1.7 um 2.1 mm x 100 mm with pre-column
Retention time: 8.61 min
Precursor m/z: 212.0591
Precursor type: [M+H]+
m/z	relative intensity
51.0234	1
53.0389	1
54.0341	1
56.0498	42
57.0449	3
63.0231	3
65.0387	51
67.0418	1
67.0543	5
68.0495	2
69.0448	5
70.0288	32
70.0525	1
71.0604	23
72.0443	1
72.0681	2
72.984	3
78.0338	6
79.0542	7
80.0368	2
80.0494	15
81.0335	6
81.0445	1
82.0287	1
82.065	4
84.0556	69
85.0396	14
90.0338	45
91.0416	9
92.0368	1
92.0494	108
93.0445	1
93.0573	85
94.0524	1
94.0651	4
95.049	2
95.0603	2
96.0443	33
96.0556	2
97.0634	3
98.0712	9
98.9996	22
99.0552	329
101.0152	7
104.0495	5
105.0447	19
106.0525	3
106.0651	33
107.0603	45
108.0443	3
108.0681	4
109.0522	3
109.0634	2
110.0601	36
114.0105	112
115.0415	1
116.0493	2
117.0446	3
117.0573	2
118.0525	9
119.0478	8
119.0603	27
120.0556	15
120.0681	6
121.0398	1
121.076	6
122.0598	1
122.0713	4
123.0552	16
124.039	1
125.071	1
126.0105	516
127.0183	63
128.0261	999
131.0477	3
131.0604	18
132.0556	10
132.068	8
133.0524	2
133.0634	30
133.076	53
134.0477	1
134.0599	3
134.0712	23
134.0833	2
135.0551	5
135.0788	7
140.026	2
141.0212	9
142.0054	12
142.0293	8
144.0212	27
145.0509	4
146.0589	10
146.0712	46
146.9895	6
147.0665	82
147.079	5
148.0742	2
148.0868	33
149.0712	2
149.0822	1
151.0058	1
153.0211	2
154.0053	2
154.0293	2
156.0446	3
157.0635	4
158.0713	31
159.0554	1
159.0791	37
167.0371	3
168.0212	3
169.0162	13
169.0527	9
170.0374	3
176.0819	18
183.033	1
184.0281	2
194.0477	11
195.0313	12
196.0283	2
212.0595	113
