Mass spectrum: Atrazine-OH (TENTATIVE); LC-ESI-QFT; MS2; CE: 30%; R=70000; [M+H]+
Name: Atrazine-OH
Formula: C8H14ClN5O
Exact mass: 231.0878
SMILES: C(*)C(*)NC1=NC(=NC(=N1)Cl)NC(C*)C* * = [OH (n=1) & H (n=3)]
Instrument: Q Exactive Plus Orbitrap Thermo Scientific
Instrument type: LC-ESI-QFT
Ms type: MS2
Ion mode: POSITIVE
Ionization: ESI
Fragmentation mode: HCD
Collision energy: 30% (nominal)
Resolution: 70000
Column name: Waters UPLC BEH C18 1.7 um 2.1 mm x 100 mm with pre-column
Retention time: 10.23 min
Precursor m/z: 232.0956
Precursor type: [M+H]+
m/z	relative intensity
58.0654	35
59.0493	70
61.9794	33
67.0543	21
68.0244	375
71.0604	274
79.0057	494
79.0542	15
81.0447	24
81.0698	29
83.0604	138
90.0106	48
91.0542	22
95.0492	14
96.0556	752
102.0105	17
104.001	749
108.0556	98
110.0462	81
119.0372	61
132.0323	589
136.087	154
138.0774	148
144.0324	34
146.0228	241
174.0541	999
178.1091	23
186.054	19
214.0852	162
232.096	31
