Mass spectrum: Aspterric acid; LC-ESI-ITFT; MS2; CE: 15%; R=7500; [M+H]+
Name: Aspterric acid
Name: (1S,5S,8R,9R)-8-hydroxy-4-propan-2-ylidene-10-oxatricyclo[7.2.1.01,5]dodecane-8-carboxylic acid
Formula: C15H22O4
Exact mass: 266.1518
SMILES: OC([C@]1(O)[C@@H](C2)OC[C@]2(CC/C3=C(C)/C)[C@@]3([H])CC1)=O
InChI: InChI=1S/C15H22O4/c1-9(2)10-3-5-14-7-12(19-8-14)15(18,13(16)17)6-4-11(10)14/h11-12,18H,3-8H2,1-2H3,(H,16,17)/t11-,12+,14+,15+/m0/s1
Instrument: LTQ Orbitrap XL Thermo Scientific
Instrument type: LC-ESI-ITFT
Ms type: MS2
Ion mode: POSITIVE
Ionization: ESI
Fragmentation mode: HCD
Collision energy: 15 % (nominal)
Resolution: 7500
Column name: Hypersil GOLD C18 1.9 um 100 x 2.1 mm Thermo Fisher Scientific
Retention time: 20.111 min
Base peak: 267.1597
Precursor m/z: 267.1591
Precursor type: [M+H]+
Precursor intensity: 10181257.6792
m/z	relative intensity	assigned
105.0695	8	C8H9+
117.0701	23	C9H9+
119.0857	25	C9H11+
121.1014	11	C9H13+
131.0858	20	C10H11+
133.101	17	C10H13+
143.0856	19	C11H11+
145.1005	15	C11H13+
147.1167	26	C11H15+
159.1169	25	C12H15+
161.1322	12	C12H17+
173.1324	25	C13H17+
175.1483	180	C13H19+
185.1325	75	C14H17+
203.143	999	C14H19O+
221.1535	53	C14H21O2+
231.1376	50	C15H19O2+
249.149	19	C15H21O3+
267.1603	20	C15H23O4+
