Mass spectrum: Sulfamethoxazole; ESI-QTOF; MS2; CE: 5eV; R=15000; [M+H]+
Name: Sulfamethoxazole
Name: 4-Amino-N-(5-methyl-1,2-oxazol-3-yl)benzene-1-sulfonamide
Formula: C10H11N3O3S
Exact mass: 253.0521
SMILES: CC1=CC(NS(=O)(=O)C2=CC=C(N)C=C2)=NO1
InChI: InChI=1S/C10H11N3O3S/c1-7-6-10(12-16-7)13-17(14,15)9-4-2-8(11)3-5-9/h2-6H,11H2,1H3,(H,12,13)
Instrument: TripleTOF 5600+SCIEX
Instrument type: ESI-QTOF
Ms type: MS2
Ion mode: POSITIVE
Ionization: ESI
Fragmentation mode: CID
Collision energy: 5 eV
Resolution: 15000
Precursor m/z: 254.0594
Precursor type: [M+H]+
m/z	relative intensity
92.0505	1
93.0582	1
99.0565	1
108.0449	4
146.0717	1
147.0796	3
148.0875	1
156.0118	15
160.0874	2
190.0981	2
194.0393	1
254.0594	999
