Mass spectrum: Aspercolorin; LC-ESI-ITFT; MS2; CE: 40%; R=7500; [M+H]+
Name: Aspercolorin
Name: 14-benzyl-19-methoxy-2,8,12,15-tetrazatricyclo[15.4.0.04,8]henicosa-1(17),18,20-triene-3,9,13,16-tetrone
Formula: C25H28N4O5
Exact mass: 464.2060
SMILES: COC1=CC2=C(C=C1)NC(=O)C3CCCN3C(=O)CCNC(=O)C(NC2=O)CC4=CC=CC=C4
InChI: InChI=1S/C25H28N4O5/c1-34-17-9-10-19-18(15-17)23(31)28-20(14-16-6-3-2-4-7-16)24(32)26-12-11-22(30)29-13-5-8-21(29)25(33)27-19/h2-4,6-7,9-10,15,20-21H,5,8,11-14H2,1H3,(H,26,32)(H,27,33)(H,28,31)
Instrument: LTQ Orbitrap XL Thermo Scientific
Instrument type: LC-ESI-ITFT
Ms type: MS2
Ion mode: POSITIVE
Ionization: ESI
Fragmentation mode: HCD
Collision energy: 40 % (nominal)
Resolution: 7500
Column name: Hypersil GOLD C18 1.9 um 100 x 2.1 mm Thermo Fisher Scientific
Retention time: 19.757 min
Base peak: 465.2133
Precursor m/z: 465.2132
Precursor type: [M+H]+
Precursor intensity: 7982286.074951
m/z	relative intensity	assigned
57.1385	22	CH17N2+
70.065	183	C4H8N+
120.0806	512	C8H10N+
124.0755	114	C7H10NO+
130.0657	16	C9H8N+
132.0808	27	C9H10N+
141.1022	166	C7H13N2O+
150.0549	143	C8H8NO2+
152.0704	24	C8H10NO2+
165.1018	29	C9H13N2O+
172.2037	8	C8H28O3+
174.0913	106	C11H12NO+
177.1021	66	C10H13N2O+
178.0497	99	C9H8NO3+
191.1178	118	C11H15N2O+
192.0656	20	C10H10NO3+
219.1127	999	C12H15N2O2+
221.0918	163	C11H13N2O3+
247.1074	431	C13H15N2O3+
269.1282	90	C16H17N2O2+
279.1128	28	C17H15N2O2+
289.1181	63	C15H17N2O4+
300.1346	14	C16H18N3O3+
301.1179	83	C16H17N2O4+
318.1442	272	C16H20N3O4+
328.1285	11	C17H18N3O4+
