Mass spectrum: Cyclizine; LC-ESI-QFT; MS2; CE: CE90; R=17500; [M+H]+
Name: Cyclizine
Name: 1-benzhydryl-4-methylpiperazine
Formula: C18H22N2
Exact mass: 266.1783
SMILES: CN1CCN(CC1)C(C1=CC=CC=C1)C1=CC=CC=C1
InChI: InChI=1S/C18H22N2/c1-19-12-14-20(15-13-19)18(16-8-4-2-5-9-16)17-10-6-3-7-11-17/h2-11,18H,12-15H2,1H3
Instrument: Q Exactive Thermo Fisher Scientific
Instrument type: LC-ESI-QFT
Ms type: MS2
Ion mode: POSITIVE
Ionization: ESI
Fragmentation mode: HCD
Collision energy: CE90
Resolution: 17500
Column name: Acquity UPLC BEH C18 1.7 um, 2.1 x 150 mm, Waters
Retention time: 18.291 min
Base peak: 223.0628
Precursor m/z: 267.1856
Precursor type: [M+H]+
m/z	relative intensity	assigned
50.0155	22	C4H2+
51.0234	25	C4H3+
62.0151	29	C5H2+
63.0233	146	C5H3+
65.0387	141	C5H5+
74.0151	32	C6H2+
75.0231	29	C6H3+
76.0306	39	C6H4+
78.0465	109	C6H6+
87.0228	34	C7H3+
89.0385	206	C7H5+
91.0543	64	C7H7+
102.0466	243	C8H6+
105.0448	10	C6H5N2+
113.0389	29	C9H5+
115.0537	681	C9H7+
126.0458	225	C10H6+
127.0544	35	C10H7+
128.0618	211	C10H8+
139.0535	290	C11H7+
140.0622	10	C11H8+
141.0695	24	C11H9+
150.0466	168	C12H6+
151.0544	20	C12H7+
152.0613	389	C12H8+
155.0594	16	C10H7N2+
163.0543	316	C13H7+
164.0623	48	C13H8+
165.0697	999	C13H9+
179.06	58	C12H7N2+
