Mass spectrum: Nylidrin; ESI-QTOF; MS2; CE: 25eV; R=15000; [M+H]+
Name: Nylidrin
Name: 4-{1-Hydroxy-2-[(4-phenylbutan-2-yl)amino]propyl}phenol
Formula: C19H25NO2
Exact mass: 299.1885
SMILES: CC(CCC1=CC=CC=C1)NC(C)C(O)C1=CC=C(O)C=C1
InChI: InChI=1S/C19H25NO2/c1-14(8-9-16-6-4-3-5-7-16)20-15(2)19(22)17-10-12-18(21)13-11-17/h3-7,10-15,19-22H,8-9H2,1-2H3
Instrument: TripleTOF 5600+SCIEX
Instrument type: ESI-QTOF
Ms type: MS2
Ion mode: POSITIVE
Ionization: ESI
Fragmentation mode: CID
Collision energy: 25 eV
Resolution: 15000
Precursor m/z: 300.1959
Precursor type: [M+H]+
m/z	relative intensity
56.0515	1
57.0355	1
65.04	1
77.0394	1
79.055	1
91.0546	102
103.054	3
105.0698	36
107.0488	7
109.0645	3
115.0539	2
131.0485	1
132.08	1
133.0642	97
135.0797	33
148.1113	4
150.0907	647
151.0745	16
178.1217	37
282.1846	999
300.1959	152
