Mass spectrum: Etofylline; ESI-QTOF; MS2; CE: 40eV; R=15000; [M+H]+
Name: Etofylline
Name: 7-(2-Hydroxyethyl)-1,3-dimethyl-3,7-dihydro-1H-purine-2,6-dione
Formula: C9H12N4O3
Exact mass: 224.0909
SMILES: CN1C2=C(N(CCO)C=N2)C(=O)N(C)C1=O
InChI: InChI=1S/C9H12N4O3/c1-11-7-6(8(15)12(2)9(11)16)13(3-4-14)5-10-7/h5,14H,3-4H2,1-2H3
Instrument: TripleTOF 5600+SCIEX
Instrument type: ESI-QTOF
Ms type: MS2
Ion mode: POSITIVE
Ionization: ESI
Fragmentation mode: CID
Collision energy: 40 eV
Resolution: 15000
Precursor m/z: 225.0983
Precursor type: [M+H]+
m/z	relative intensity
54.0362	1
67.0309	1
68.0387	1
69.0465	48
72.046	5
81.0459	1
83.0251	4
93.0456	1
94.0408	3
95.0247	2
96.0564	119
97.0403	5
101.009	1
106.0402	1
107.0608	1
108.0561	3
109.0273	8
110.0716	3
113.0712	3
120.0557	3
121.0509	1
122.0351	4
123.0554	3
124.0509	999
134.0713	2
136.0872	1
137.0822	6
140.0818	3
147.0663	1
148.0745	1
149.0458	3
150.0661	1
153.0532	1
163.0614	1
166.0483	1
168.0767	2
181.072	351
225.0983	2
