Mass spectrum: Radicicol; LC-ESI-ITFT; MS2; CE: 40%; R=7500; [M+H]+
Name: Radicicol
Name: 16-chloro-17,19-dihydroxy-4-methyl-3,7-dioxatricyclo[13.4.0.06,8]nonadeca-1(15),9,11,16,18-pentaene-2,13-dione
Formula: C18H17ClO6
Exact mass: 364.0714
SMILES: CC1CC2C(O2)C=CC=CC(=O)CC3=C(C(=CC(=C3Cl)O)O)C(=O)O1
InChI: InChI=1S/C18H17ClO6/c1-9-6-15-14(25-15)5-3-2-4-10(20)7-11-16(18(23)24-9)12(21)8-13(22)17(11)19/h2-5,8-9,14-15,21-22H,6-7H2,1H3
Instrument: LTQ Orbitrap XL Thermo Scientific
Instrument type: LC-ESI-ITFT
Ms type: MS2
Ion mode: POSITIVE
Ionization: ESI
Fragmentation mode: HCD
Collision energy: 40 % (nominal)
Resolution: 7500
Column name: Hypersil GOLD C18 1.9 um 100 x 2.1 mm Thermo Fisher Scientific
Retention time: 16.234 min
Base peak: 365.0794
Precursor m/z: 365.0786
Precursor type: [M+H]+
Precursor intensity: 3262780.17334
m/z	relative intensity	assigned
73.0645	63	C4H9O+
95.0855	416	C7H11+
119.0856	177	C9H11+
121.0645	107	C8H9O+
154.9895	66	C7H4ClO2+
185.0598	132	C12H9O2+
197.0002	520	C9H6ClO3+
200.9948	219	C8H6ClO4+
202.9526	72	C10ClO3+
210.9793	538	C9H4ClO4+
213.0556	84	C13H9O3+
214.0629	79	C13H10O3+
224.9949	884	C10H6ClO4+
227.0106	999	C10H8ClO4+
239.0113	84	C11H8ClO4+
249.0309	418	C13H10ClO3+
252.9898	759	C11H6ClO5+
261.031	133	C14H10ClO3+
263.0106	288	C13H8ClO4+
277.0262	738	C14H10ClO4+
279.0409	208	C14H12ClO4+
287.0105	101	C15H8ClO4+
305.0202	322	C15H10ClO5+
