Mass spectrum: Mefruside; LC-ESI-ITFT; MS2; CE: 75%; R=7500; [M+H]+
Name: Mefruside
Name: 4-Chloro-N1-methyl-N1-[(2-methyloxolan-2-yl)methyl]benzene-1,3-disulfonamide
Formula: C13H19ClN2O5S2
Exact mass: 382.0424
SMILES: CN(CC1(C)CCCO1)S(=O)(=O)C1=CC=C(Cl)C(=C1)S(N)(=O)=O
InChI: InChI=1S/C13H19ClN2O5S2/c1-13(6-3-7-21-13)9-16(2)23(19,20)10-4-5-11(14)12(8-10)22(15,17)18/h4-5,8H,3,6-7,9H2,1-2H3,(H2,15,17,18)
Instrument: LTQ Orbitrap XL Thermo Fisher Scientific
Instrument type: LC-ESI-ITFT
Ms type: MS2
Ion mode: POSITIVE
Ionization: ESI
Fragmentation mode: HCD
Collision energy: 75% (nominal)
Resolution: 7500
Column name: Hypersil GOLD C18 1.9 um 100 x 2.1 mm Thermo Fisher Scientific
Precursor m/z: 383.0497
Precursor type: [M+H]+
m/z	relative intensity
57.0333	19
68.4516	13
69.0698	41
72.9967	25
79.0541	222
81.0697	873
84.0806	999
86.0599	102
89.0919	12
91.0176	39
96.0807	80
97.0638	16
99	36
99.0804	89
106.8265	15
108.9841	96
112.1116	16
114.9944	20
116.956	29
122.7736	13
123.7561	12
128.1068	69
135.5847	16
135.6123	20
135.6476	15
140.9735	59
142.0053	171
142.9894	502
156.021	47
172.9455	19
188.9072	27
188.941	29
198.9012	42
200.4571	38
202.5672	39
202.6288	18
202.6974	33
202.7774	15
217.9788	246
228.6048	13
273.8045	59
287.3676	13
335.0855	18
350.8183	36
