Mass spectrum: Territrem B; LC-ESI-ITFT; MS2; CE: 30%; R=7500; [M+H]+
Name: Territrem B
Name: 1,7-dihydroxy-2,6,6,10-tetramethyl-14-(3,4,5-trimethoxyphenyl)-11,15-dioxatetracyclo[8.8.0.02,7.012,17]octadeca-4,12(17),13-triene-3,16-dione
Formula: C29H34O9
Exact mass: 526.2203
SMILES: CC1(C=CC(=O)C2(C1(CCC3(C2(CC4=C(O3)C=C(OC4=O)C5=CC(=C(C(=C5)OC)OC)OC)O)C)O)C)C
InChI: InChI=1S/C29H34O9/c1-25(2)9-8-22(30)27(4)28(25,32)11-10-26(3)29(27,33)15-17-19(38-26)14-18(37-24(17)31)16-12-20(34-5)23(36-7)21(13-16)35-6/h8-9,12-14,32-33H,10-11,15H2,1-7H3
Instrument: LTQ Orbitrap XL Thermo Scientific
Instrument type: LC-ESI-ITFT
Ms type: MS2
Ion mode: POSITIVE
Ionization: ESI
Fragmentation mode: HCD
Collision energy: 30 % (nominal)
Resolution: 7500
Column name: Hypersil GOLD C18 1.9 um 100 x 2.1 mm Thermo Fisher Scientific
Retention time: 21.132 min
Base peak: 527.228
Precursor m/z: 527.2276
Precursor type: [M+H]+
Precursor intensity: 6556556.929199
m/z	relative intensity	assigned
149.0961	73	C10H13O+
171.1172	41	C13H15+
173.1323	101	C13H17+
175.1118	50	C12H15O+
185.1325	206	C14H17+
189.1273	66	C13H17O+
195.0652	499	C10H11O4+
201.1275	143	C14H17O+
203.1436	148	C14H19O+
209.1318	19	C16H17+
213.1274	103	C15H17O+
227.1437	20	C16H19O+
237.076	103	C12H13O5+
237.1271	97	C17H17O+
255.1378	201	C17H19O2+
263.1068	24	C18H15O2+
279.0867	85	C14H15O6+
281.1176	33	C18H17O3+
291.0863	999	C15H15O6+
307.0807	83	C15H15O7+
329.1025	38	C18H17O6+
355.1177	71	C20H19O6+
373.1286	129	C20H21O7+
396.1561	34	C23H24O6+
435.1822	18	C26H27O6+
463.2122	58	C28H31O6+
473.1957	84	C29H29O6+
491.2064	609	C29H31O7+
509.2175	243	C29H33O8+
527.2275	486	C29H35O9+
