Mass spectrum: Phentermine; ESI-QTOF; MS2; CE: 50eV; R=15000; [M+H]+
Name: Phentermine
Name: 2-Methyl-1-phenylpropan-2-amine
Formula: C10H15N
Exact mass: 149.1204
SMILES: CC(C)(N)CC1=CC=CC=C1
InChI: InChI=1S/C10H15N/c1-10(2,11)8-9-6-4-3-5-7-9/h3-7H,8,11H2,1-2H3
Instrument: TripleTOF 5600+SCIEX
Instrument type: ESI-QTOF
Ms type: MS2
Ion mode: POSITIVE
Ionization: ESI
Fragmentation mode: CID
Collision energy: 50 eV
Resolution: 15000
Precursor m/z: 150.1278
Precursor type: [M+H]+
m/z	relative intensity
50.0177	3
51.0254	7
53.0408	1
55.0563	3
58.0669	1
63.0245	10
65.0405	339
77.0394	22
79.0549	6
91.0548	999
115.0538	11
