Mass spectrum: Fumonisin B3; LC-ESI-ITFT; MS2; CE: 30%; R=7500; [M+H]+
Name: Fumonisin B3
Name: 2-Amino-3,10-dihydroxy-14,15-bis(3,4-dicarboxybutyryloxy)-12,16-dimethylicosane
Name: 2-[2-[19-amino-6-(3,4-dicarboxybutanoyloxy)-11,18-dihydroxy-5,9-dimethylicosan-7-yl]oxy-2-oxoethyl]butanedioic acid
Formula: C34H59NO14
Exact mass: 705.3936
SMILES: CCCCC(C)C(C(CC(C)CC(CCCCCCC(C(C)N)O)O)OC(=O)CC(CC(=O)O)C(=O)O)OC(=O)CC(CC(=O)O)C(=O)O
InChI: InChI=1S/C34H59NO14/c1-5-6-11-21(3)32(49-31(43)19-24(34(46)47)17-29(40)41)27(48-30(42)18-23(33(44)45)16-28(38)39)15-20(2)14-25(36)12-9-7-8-10-13-26(37)22(4)35/h20-27,32,36-37H,5-19,35H2,1-4H3,(H,38,39)(H,40,41)(H,44,45)(H,46,47)
Instrument: LTQ Orbitrap XL Thermo Scientific
Instrument type: LC-ESI-ITFT
Ms type: MS2
Ion mode: POSITIVE
Ionization: ESI
Fragmentation mode: HCD
Collision energy: 30 % (nominal)
Resolution: 7500
Column name: Hypersil GOLD C18 1.9 um 100 x 2.1 mm Thermo Fisher Scientific
Retention time: 22.242 min
Base peak: 706.4018
Precursor m/z: 706.4008
Precursor type: [M+H]+
Precursor intensity: 23140051.16699
m/z	relative intensity	assigned
74.0599	31	C3H8NO+
81.0697	21	C6H9+
83.0855	11	C6H11+
95.0851	15	C7H11+
109.101	31	C8H13+
121.1013	11	C9H13+
123.1166	15	C9H15+
135.1175	32	C10H15+
137.1331	9	C10H17+
141.0181	69	C6H5O4+
149.1331	35	C11H17+
151.1475	12	C11H19+
159.029	40	C6H7O5+
163.1476	26	C12H19+
177.1636	24	C13H21+
189.1632	11	C14H21+
191.1793	15	C14H23+
199.3928	15	C11H51O+
203.1796	36	C15H23+
205.1941	16	H31NO10+
226.2174	12	C14H28NO+
245.2247	11	C3H35NO10+
256.2273	17	C15H30NO2+
281.2839	20	C4H43NO11+
301.2893	36	C22H37+
318.3151	404	C22H40N+
319.2994	66	C22H39O+
336.3255	999	C22H42NO+
337.3098	60	C22H41O2+
354.3362	676	C22H44NO2+
494.3466	65	C28H48NO6+
512.3575	202	C28H50NO7+
688.3899	116	C34H58NO13+
706.4009	130	C34H60NO14+
