Mass spectrum: Etilefrine; LC-ESI-ITFT; MS2; CE: 165%; R=15000; [M+H]+
Name: Etilefrine
Name: 3-[2-(ethylamino)-1-hydroxyethyl]phenol
Formula: C10H15NO2
Exact mass: 181.1103
SMILES: CCNCC(C1=CC(=CC=C1)O)O
InChI: InChI=1S/C10H15NO2/c1-2-11-7-10(13)8-4-3-5-9(12)6-8/h3-6,10-13H,2,7H2,1H3
Instrument: LTQ Orbitrap XL Thermo Scientific
Instrument type: LC-ESI-ITFT
Ms type: MS2
Ion mode: POSITIVE
Ionization: ESI
Fragmentation mode: HCD
Collision energy: 165% (nominal)
Resolution: 15000
Column name: Kinetex Evo C18 2.6 um 50 x 2.1 mm
Retention time: 0.605 min
Base peak: 182.1176
Precursor m/z: 182.1176
Precursor type: [M+H]+
m/z	relative intensity	assigned
53.0384	9	C4H5+
63.0227	26	C5H3+
65.0384	875	C5H5+
66.0462	38	C5H6+
75.0229	18	C6H3+
77.0385	214	C6H5+
79.0542	145	C6H7+
89.0386	68	C7H5+
90.0464	68	C7H6+
91.0542	999	C7H7+
92.0495	51	C6H6N+
94.0413	142	C6H6O+
95.0491	50	C6H7O+
105.0447	192	C6H5N2+
106.0651	88	C7H8N+
107.0491	323	C7H7O+
116.049	19	C8H6N+
117.0573	79	C8H7N+
118.0652	46	C8H8N+
120.0444	40	C7H6NO+
134.0601	86	C8H8NO+
