Mass spectrum: Cyclopenol; LC-ESI-ITFT; MS2; CE: 30%; R=7500; [M+H]+
Name: Cyclopenol
Name: Spiro[3H-1,4-benzodiazepine-3,2`-oxirane]-2,5(1H,4H)-dione, 3`-(3-hydroxyphenyl)-4-methyl-, cis-(-)-
Name: 3`-(3-hydroxyphenyl)-4-methylspiro[1H-1,4-benzodiazepine-3,2`-oxirane]-2,5-dione
Formula: C17H14N2O4
Exact mass: 310.0954
SMILES: CN1C(=O)C2=CC=CC=C2NC(=O)C13C(O3)C4=CC(=CC=C4)O
InChI: InChI=1S/C17H14N2O4/c1-19-15(21)12-7-2-3-8-13(12)18-16(22)17(19)14(23-17)10-5-4-6-11(20)9-10/h2-9,14,20H,1H3,(H,18,22)
Instrument: LTQ Orbitrap XL Thermo Scientific
Instrument type: LC-ESI-ITFT
Ms type: MS2
Ion mode: POSITIVE
Ionization: ESI
Fragmentation mode: HCD
Collision energy: 30 % (nominal)
Resolution: 7500
Column name: Hypersil GOLD C18 1.9 um 100 x 2.1 mm Thermo Fisher Scientific
Retention time: 11.691 min
Base peak: 311.1023
Precursor m/z: 311.1026
Precursor type: [M+H]+
Precursor intensity: 8180848.185547
m/z	relative intensity	assigned
73.0498	4	H9O4+
120.0442	132	C7H6NO+
121.0282	6	C7H5O2+
132.0441	32	C8H6NO+
134.0598	10	C8H8NO+
136.0754	16	C8H10NO+
146.0234	518	C8H4NO2+
148.0757	8	C9H10NO+
161.0238	2	C9H5O3+
161.0708	9	C9H9N2O+
162.0546	18	C9H8NO2+
177.0655	999	C9H9N2O2+
198.0909	25	C13H12NO+
210.0915	2	C14H12NO+
224.0703	43	C14H10NO2+
226.086	39	C14H12NO2+
252.0651	125	C15H10NO3+
254.0805	15	C15H12NO3+
255.1121	19	C15H15N2O2+
265.0974	9	C16H13N2O2+
267.1127	13	C16H15N2O2+
270.0759	3	C15H12NO4+
280.0599	64	C16H10NO4+
283.107	21	C16H15N2O3+
293.0932	4	C17H13N2O3+
311.1023	58	C17H15N2O4+
