Mass spectrum: Antipyrine; LC-ESI-ITFT; MS2; CE: 50%; R=15000; [M+H]+
Name: Antipyrine
Name: 1,5-dimethyl-2-phenylpyrazol-3-one
Formula: C11H12N2O
Exact mass: 188.0950
SMILES: CC1=CC(=O)N(N1C)C2=CC=CC=C2
InChI: InChI=1S/C11H12N2O/c1-9-8-11(14)13(12(9)2)10-6-4-3-5-7-10/h3-8H,1-2H3
Instrument: LTQ Orbitrap XL Thermo Scientific
Instrument type: LC-ESI-ITFT
Ms type: MS2
Ion mode: POSITIVE
Ionization: ESI
Fragmentation mode: CID
Collision energy: 50% (nominal)
Resolution: 15000
Column name: Kinetex Evo C18 2.6 um 50 x 2.1 mm
Retention time: 5.562 min
Base peak: 189.1022
Precursor m/z: 189.1022
Precursor type: [M+H]+
m/z	relative intensity	assigned
56.0493	18	C3H6N+
58.0649	28	C3H8N+
79.0545	6	C6H7+
91.0542	20	C7H7+
94.0651	10	C6H8N+
96.0443	22	C5H6NO+
96.0682	26	C5H8N2+
98.0603	7	C5H8NO+
103.0542	15	C8H7+
104.0495	58	C7H6N+
105.0699	21	C8H9+
106.065	14	C7H8N+
111.0552	27	C5H7N2O+
117.0572	23	C8H7N+
117.0698	40	C9H9+
118.0651	224	C8H8N+
119.0602	11	C7H7N2+
120.0808	231	C8H10N+
129.07	24	C10H9+
130.0651	332	C9H8N+
131.0729	999	C9H9N+
132.0807	218	C9H10N+
133.0523	20	C8H7NO+
133.076	98	C8H9N2+
134.0963	22	C9H12N+
135.0553	48	C7H7N2O+
144.0808	791	C10H10N+
145.0648	88	C10H9O+
145.0759	7	C9H9N2+
145.0889	22	C10H11N+
146.0838	606	C9H10N2+
146.0964	509	C10H12N+
147.0916	560	C9H11N2+
148.0756	124	C9H10NO+
149.071	28	C8H9N2O+
154.0651	9	C11H8N+
158.0599	54	C10H8NO+
159.0914	12	C10H11N2+
160.0993	20	C10H12N2+
161.1073	821	C10H13N2+
162.0912	39	C10H12NO+
171.0914	11	C11H11N2+
172.0756	376	C11H10NO+
174.0787	342	C10H10N2O+
189.1022	103	C11H13N2O+
