Mass spectrum: Amiloride; LC-ESI-QTOF; MS2; CE: 20 eV; R=3600; [M+H]+
Name: Amiloride
Name: 3,5-Diamino-N-carbamimidoyl-6-chloropyrazine-2-carboxamide
Formula: C6H8ClN7O
Exact mass: 229.0479
SMILES: NC(=N)NC(=O)C1=NC(Cl)=C(N)N=C1N
InChI: InChI=1S/C6H8ClN7O/c7-2-4(9)13-3(8)1(12-2)5(15)14-6(10)11/h(H4,8,9,13)(H4,10,11,14,15)
Instrument: 6532 QTOF Agilent
Instrument type: LC-ESI-QTOF
Ms type: MS2
Ion mode: POSITIVE
Ionization: ESI
Fragmentation mode: CID
Collision energy: 20 eV
Resolution: 3600
Precursor m/z: 230.0552
Precursor type: [M+H]+
m/z	relative intensity
55.0557	66
60.0579	999
61.985	128
63.9971	254
73.9811	52
86.0356	83
88.9913	260
96.0877	66
100.9938	243
108.0433	134
116.0018	954
143.0151	269
171.0085	728
230.0552	58
