Mass spectrum: Dosulepin; LC-ESI-ITFT; MS2; CE: 55%; R=15000; [M+H]+
Name: Dosulepin
Name: Dothiepin
Name: 3-(6H-benzo[c][1]benzothiepin-11-ylidene)-N,N-dimethylpropan-1-amine
Formula: C19H21NS
Exact mass: 295.1395
SMILES: CN(C)CCC=C1C2=CC=CC=C2CSC3=CC=CC=C31
InChI: InChI=1S/C19H21NS/c1-20(2)13-7-11-17-16-9-4-3-8-15(16)14-21-19-12-6-5-10-18(17)19/h3-6,8-12H,7,13-14H2,1-2H3
Instrument: LTQ Orbitrap XL Thermo Scientific
Instrument type: LC-ESI-ITFT
Ms type: MS2
Ion mode: POSITIVE
Ionization: ESI
Fragmentation mode: HCD
Collision energy: 55% (nominal)
Resolution: 15000
Column name: Kinetex Evo C18 2.6 um 50 x 2.1 mm
Retention time: 8.117 min
Base peak: 296.1468
Precursor m/z: 296.1467
Precursor type: [M+H]+
m/z	relative intensity	assigned
58.0649	200	C3H8N+
73.0107	7	C3H5S+
84.0808	27	C5H10N+
91.0542	204	C7H7+
103.0541	6	C8H7+
105.0696	6	C8H9+
115.0542	20	C9H7+
117.0698	483	C9H9+
123.0262	229	C7H7S+
129.0697	38	C10H9+
135.026	25	C8H7S+
141.0698	43	C11H9+
142.0777	40	C11H10+
147.0262	224	C9H7S+
165.0698	34	C13H9+
173.0418	63	C11H9S+
178.0776	71	C14H10+
179.0851	35	C14H11+
191.0853	112	C15H11+
192.0932	126	C15H12+
202.0776	37	C16H10+
203.0854	196	C16H11+
204.0932	37	C16H12+
205.1012	16	C16H13+
209.0419	227	C14H9S+
210.0496	105	C14H10S+
211.0572	19	C14H11S+
217.1011	254	C17H13+
218.1088	999	C17H14+
221.0418	147	C15H9S+
222.0495	249	C15H10S+
223.0574	909	C15H11S+
225.073	339	C15H13S+
234.05	10	C16H10S+
235.0573	28	C16H11S+
236.0653	191	C16H12S+
249.0734	21	C17H13S+
251.0888	136	C17H15S+
296.1463	31	C19H22NS+
