Mass spectrum: Desipramine; LC-ESI-ITFT; MS2; CE: 160%; R=15000; [M+H]+
Name: Desipramine
Name: 3-(5,6-dihydrobenzo[b][1]benzazepin-11-yl)-N-methylpropan-1-amine
Formula: C18H22N2
Exact mass: 266.1783
SMILES: CNCCCN1C2=CC=CC=C2CCC3=CC=CC=C31
InChI: InChI=1S/C18H22N2/c1-19-13-6-14-20-17-9-4-2-7-15(17)11-12-16-8-3-5-10-18(16)20/h2-5,7-10,19H,6,11-14H2,1H3
Instrument: LTQ Orbitrap XL Thermo Scientific
Instrument type: LC-ESI-ITFT
Ms type: MS2
Ion mode: POSITIVE
Ionization: ESI
Fragmentation mode: HCD
Collision energy: 160% (nominal)
Resolution: 15000
Column name: Kinetex Evo C18 2.6 um 50 x 2.1 mm
Retention time: 8.452 min
Base peak: 267.1855
Precursor m/z: 267.1856
Precursor type: [M+H]+
m/z	relative intensity	assigned
65.0384	95	C5H5+
72.0806	344	C4H10N+
77.0384	50	C6H5+
89.0385	228	C7H5+
90.0463	127	C7H6+
91.0542	266	C7H7+
105.0446	89	C6H5N2+
115.0542	109	C9H7+
116.0495	36	C8H6N+
117.0571	63	C8H7N+
128.0494	82	C9H6N+
139.0542	102	C11H7+
140.0493	29	C10H6N+
140.0619	40	C11H8+
152.062	242	C12H8+
164.062	101	C13H8+
165.0698	943	C13H9+
166.0651	237	C12H8N+
167.0729	377	C12H9N+
177.057	68	C13H7N+
177.0696	54	C14H9+
178.0653	118	C13H8N+
178.0775	129	C14H10+
179.073	214	C13H9N+
180.0809	184	C13H10N+
190.0649	163	C14H8N+
191.0729	999	C14H9N+
192.0807	921	C14H10N+
193.0886	362	C14H11N+
194.0963	87	C14H12N+
204.0806	90	C15H10N+
