Mass spectrum: Sulthiame; LC-ESI-ITFT; MS2; CE: 105%; R=15000; [M+H]+
Name: Sulthiame
Name: 4-(1,1-dioxothiazinan-2-yl)benzenesulfonamide
Formula: C10H14N2O4S2
Exact mass: 290.0395
SMILES: C1CCS(=O)(=O)N(C1)C2=CC=C(C=C2)S(=O)(=O)N
InChI: InChI=1S/C10H14N2O4S2/c11-18(15,16)10-5-3-9(4-6-10)12-7-1-2-8-17(12,13)14/h3-6H,1-2,7-8H2,(H2,11,15,16)
Instrument: LTQ Orbitrap XL Thermo Scientific
Instrument type: LC-ESI-ITFT
Ms type: MS2
Ion mode: POSITIVE
Ionization: ESI
Fragmentation mode: HCD
Collision energy: 105% (nominal)
Resolution: 15000
Column name: Kinetex Evo C18 2.6 um 50 x 2.1 mm
Retention time: 4.254 min
Base peak: 313.0289
Precursor m/z: 291.0468
Precursor type: [M+H]+
m/z	relative intensity	assigned
65.0385	21	C5H5+
75.0231	6	C6H3+
76.0307	28	C6H4+
77.0386	11	C6H5+
78.0463	37	C6H6+
79.0416	13	C5H5N+
79.0542	5	C6H7+
90.0463	6	C7H6+
91.0543	60	C7H7+
92.0495	25	C6H6N+
93.0573	31	C6H7N+
94.0414	52	C6H6O+
95.0494	12	C6H7O+
104.0495	222	C7H6N+
105.0573	999	C7H7N+
106.065	27	C7H8N+
107.0491	5	C7H7O+
108.0443	12	C6H6NO+
115.0543	7	C9H7+
117.0573	91	C8H7N+
118.0652	126	C8H8N+
119.0729	21	C8H9N+
122.0601	60	C7H8NO+
130.0654	13	C9H8N+
131.0727	6	C9H9N+
132.0809	41	C9H10N+
134.0602	12	C8H8NO+
137.0471	7	C7H7NO2+
146.0963	16	C10H12N+
147.1043	8	C10H13N+
185.038	108	C7H9N2O2S+
