Mass spectrum: a Zearalenol; LC-ESI-ITFT; MS2; CE: 15%; R=7500; [M+H]+
Name: a Zearalenol
Name: 8,16,18-trihydroxy-4-methyl-3-oxabicyclo[12.4.0]octadeca-1(14),12,15,17-tetraen-2-one
Formula: C18H24O5
Exact mass: 320.1624
SMILES: CC1CCCC(CCCC=CC2=C(C(=CC(=C2)O)O)C(=O)O1)O
InChI: InChI=1S/C18H24O5/c1-12-6-5-9-14(19)8-4-2-3-7-13-10-15(20)11-16(21)17(13)18(22)23-12/h3,7,10-12,14,19-21H,2,4-6,8-9H2,1H3
Instrument: LTQ Orbitrap XL Thermo Scientific
Instrument type: LC-ESI-ITFT
Ms type: MS2
Ion mode: POSITIVE
Ionization: ESI
Fragmentation mode: HCD
Collision energy: 15 % (nominal)
Resolution: 7500
Column name: Hypersil GOLD C18 1.9 um 100 x 2.1 mm Thermo Fisher Scientific
Retention time: 20.859 min
Base peak: 321.1703
Precursor m/z: 321.1697
Precursor type: [M+H]+
Precursor intensity: 6098169.081055
m/z	relative intensity	assigned
81.0701	27	C6H9+
121.1013	26	C9H13+
135.1169	83	C10H15+
149.0592	25	C9H9O2+
161.0594	20	C10H9O2+
163.0383	14	C9H7O3+
165.0185	31	C8H5O4+
167.0333	24	C8H7O4+
175.0395	34	C10H7O3+
175.0758	20	C11H11O2+
177.0549	42	C10H9O3+
189.0551	44	C11H9O3+
193.0504	46	C10H9O4+
200.1405	14	C11H20O3+
203.0709	30	C12H11O3+
215.0711	76	C13H11O3+
217.0861	93	C13H13O3+
229.0861	59	C14H13O3+
259.1696	103	C17H23O2+
267.1378	188	C18H19O2+
285.1488	999	C18H21O3+
303.1598	421	C18H23O4+
321.1706	74	C18H25O5+
