Mass spectrum: Etofylline; ESI-QTOF; MS2; CE: 30eV; R=15000; [M+H]+
Name: Etofylline
Name: 7-(2-Hydroxyethyl)-1,3-dimethyl-3,7-dihydro-1H-purine-2,6-dione
Formula: C9H12N4O3
Exact mass: 224.0909
SMILES: CN1C2=C(N(CCO)C=N2)C(=O)N(C)C1=O
InChI: InChI=1S/C9H12N4O3/c1-11-7-6(8(15)12(2)9(11)16)13(3-4-14)5-10-7/h5,14H,3-4H2,1-2H3
Instrument: TripleTOF 5600+SCIEX
Instrument type: ESI-QTOF
Ms type: MS2
Ion mode: POSITIVE
Ionization: ESI
Fragmentation mode: CID
Collision energy: 30 eV
Resolution: 15000
Precursor m/z: 225.0983
Precursor type: [M+H]+
m/z	relative intensity
69.0465	6
72.0461	2
83.0252	1
95.0611	1
96.0564	21
97.0404	1
108.0562	1
109.0274	1
110.0717	1
113.0713	3
120.0559	1
122.0714	1
123.0556	1
124.051	426
134.0714	1
137.0823	4
140.0819	4
149.0459	1
150.0663	1
163.0978	1
168.0768	6
181.0725	999
225.0983	42
