Mass spectrum: Dimethenamid-OH-desmethyl (TENTATIVE); LC-ESI-QFT; MS2; CE: 30%; R=70000; [M+H]+
Name: Dimethenamid-OH-desmethyl
Formula: C11H16ClNO3S
Exact mass: 277.0527
SMILES: C(*)C1=C(*)SC(=C1N(C(*)(C(*))C(*)O)C(=O)C(*)Cl)C(*) *=[OH (n=1) & H (n=6)]
Instrument: Q Exactive Plus Orbitrap Thermo Scientific
Instrument type: LC-ESI-QFT
Ms type: MS2
Ion mode: POSITIVE
Ionization: ESI
Fragmentation mode: HCD
Collision energy: 30% (nominal)
Resolution: 70000
Column name: Waters UPLC BEH C18 1.7 um 2.1 mm x 100 mm with pre-column
Retention time: 7.74 min
Precursor m/z: 278.0605
Precursor type: [M+H]+
m/z	relative intensity
55.0545	33
58.0654	111
58.9952	61
59.0494	999
61.0108	23
65.0387	147
75.9947	17
76.9789	50
82.0651	20
84.0807	17
95.073	19
99.0263	238
105.0573	16
110.06	42
111.0262	74
111.0441	86
111.0677	18
113.0418	26
126.0372	191
127.0212	415
128.0291	82
134.0368	172
137.0422	20
138.0372	46
145.0318	51
151.0995	21
152.0165	87
153.0243	157
154.0685	301
158.0368	29
166.0321	65
174.0138	36
202.0089	62
