Mass spectrum: Antipyrine; LC-ESI-ITFT; MS2; CE: 185%; R=15000; [M+H]+
Name: Antipyrine
Name: 1,5-dimethyl-2-phenylpyrazol-3-one
Formula: C11H12N2O
Exact mass: 188.0950
SMILES: CC1=CC(=O)N(N1C)C2=CC=CC=C2
InChI: InChI=1S/C11H12N2O/c1-9-8-11(14)13(12(9)2)10-6-4-3-5-7-10/h3-8H,1-2H3
Instrument: LTQ Orbitrap XL Thermo Scientific
Instrument type: LC-ESI-ITFT
Ms type: MS2
Ion mode: POSITIVE
Ionization: ESI
Fragmentation mode: HCD
Collision energy: 185% (nominal)
Resolution: 15000
Column name: Kinetex Evo C18 2.6 um 50 x 2.1 mm
Retention time: 5.733 min
Base peak: 189.1023
Precursor m/z: 189.1022
Precursor type: [M+H]+
m/z	relative intensity	assigned
54.0336	35	C3H4N+
56.0492	923	C3H6N+
58.0649	88	C3H8N+
63.0228	20	C5H3+
65.0384	247	C5H5+
66.0462	13	C5H6+
67.0176	12	C4H3O+
68.0492	17	C4H6N+
76.0308	13	C6H4+
77.0385	999	C6H5+
78.0339	15	C5H4N+
78.0463	114	C6H6+
79.0542	47	C6H7+
80.0495	11	C5H6N+
81.0446	15	C4H5N2+
82.0288	25	C4H4NO+
83.0604	12	C4H7N2+
89.0386	101	C7H5+
90.0339	17	C6H4N+
90.0464	50	C7H6+
91.0543	213	C7H7+
92.0495	30	C6H6N+
93.0573	21	C6H7N+
95.0492	215	C6H7O+
95.0605	12	C5H7N2+
102.0464	78	C8H6+
103.0542	68	C8H7+
104.0495	183	C7H6N+
105.0448	894	C6H5N2+
106.0651	38	C7H8N+
115.0543	148	C9H7+
117.0574	49	C8H7N+
118.0652	46	C8H8N+
128.0494	27	C9H6N+
129.0446	22	C8H5N2+
130.0652	110	C9H8N+
131.0605	97	C8H7N2+
132.0682	12	C8H8N2+
145.0757	9	C9H9N2+
