Mass spectrum: Trypacidin; LC-ESI-ITFT; MS2; CE: 60%; R=7500; [M+H]+
Name: Trypacidin
Name: methyl 4,5`-dimethoxy-6-methyl-3,3`-dioxospiro[1-benzofuran-2,6`-cyclohexa-1,4-diene]-1`-carboxylate
Formula: C18H16O7
Exact mass: 344.0896
SMILES: CC1=CC2=C(C(=C1)OC)C(=O)C3(O2)C(=CC(=O)C=C3OC)C(=O)OC
InChI: InChI=1S/C18H16O7/c1-9-5-12(22-2)15-13(6-9)25-18(16(15)20)11(17(21)24-4)7-10(19)8-14(18)23-3/h5-8H,1-4H3
Instrument: LTQ Orbitrap XL Thermo Scientific
Instrument type: LC-ESI-ITFT
Ms type: MS2
Ion mode: POSITIVE
Ionization: ESI
Fragmentation mode: HCD
Collision energy: 60 % (nominal)
Resolution: 7500
Column name: Hypersil GOLD C18 1.9 um 100 x 2.1 mm Thermo Fisher Scientific
Retention time: 17.352 min
Base peak: 345.098
Precursor m/z: 345.0969
Precursor type: [M+H]+
Precursor intensity: 30402486.30908
m/z	relative intensity	assigned
137.0238	6	C7H5O3+
163.0754	4	C10H11O2+
169.0652	13	C12H9O+
173.0599	16	C11H9O2+
185.0599	10	C12H9O2+
186.068	8	C12H10O2+
197.0602	38	C13H9O2+
198.0678	10	C13H10O2+
199.0756	9	C13H11O2+
201.0547	19	C12H9O3+
211.0755	3	C14H11O2+
212.0837	4	C14H12O2+
213.0553	33	C13H9O3+
215.0705	32	C13H11O3+
224.0838	8	C15H12O2+
226.0629	32	C14H10O3+
227.0708	45	C14H11O3+
228.0782	8	C14H12O3+
229.0492	5	C13H9O4+
229.0864	21	C14H13O3+
230.0936	5	C14H14O3+
239.0702	6	C15H11O3+
240.0784	176	C15H12O3+
241.05	54	C14H9O4+
241.0862	38	C15H13O3+
242.0577	110	C14H10O4+
243.0656	324	C14H11O4+
244.0724	2	C14H12O4+
252.0427	10	C15H8O4+
252.0785	4	C16H12O3+
253.0506	6	C15H9O4+
254.0575	6	C15H10O4+
255.0655	45	C15H11O4+
256.0734	47	C15H12O4+
257.0811	521	C15H13O4+
258.0888	42	C15H14O4+
268.074	11	C16H12O4+
269.045	64	C15H9O5+
269.0811	65	C16H13O4+
270.053	111	C15H10O5+
271.0605	999	C15H11O5+
283.0603	9	C16H11O5+
285.0761	126	C16H13O5+
286.0841	44	C16H14O5+
298.0477	186	C16H10O6+
301.1077	11	C17H17O5+
313.0711	69	C17H13O6+
