Mass spectrum: Cyclizine; LC-ESI-ITFT; MS2; CE: 145%; R=15000; [M+H]+
Name: Cyclizine
Name: 1-benzhydryl-4-methylpiperazine
Formula: C18H22N2
Exact mass: 266.1783
SMILES: CN1CCN(CC1)C(C2=CC=CC=C2)C3=CC=CC=C3
InChI: InChI=1S/C18H22N2/c1-19-12-14-20(15-13-19)18(16-8-4-2-5-9-16)17-10-6-3-7-11-17/h2-11,18H,12-15H2,1H3
Instrument: LTQ Orbitrap XL Thermo Scientific
Instrument type: LC-ESI-ITFT
Ms type: MS2
Ion mode: POSITIVE
Ionization: ESI
Fragmentation mode: HCD
Collision energy: 145% (nominal)
Resolution: 15000
Column name: Kinetex Evo C18 2.6 um 50 x 2.1 mm
Retention time: 7.484 min
Base peak: 267.1857
Precursor m/z: 267.1856
Precursor type: [M+H]+
m/z	relative intensity	assigned
63.0228	3	C5H3+
65.0384	22	C5H5+
76.0307	2	C6H4+
78.0464	6	C6H6+
89.0386	15	C7H5+
91.0543	11	C7H7+
102.0464	24	C8H6+
115.0542	207	C9H7+
126.0463	21	C10H6+
127.0542	4	C10H7+
128.062	177	C10H8+
139.0542	50	C11H7+
141.0699	60	C11H9+
150.0465	17	C12H6+
151.0542	54	C12H7+
152.062	623	C12H8+
155.0604	10	C10H7N2+
163.0544	28	C13H7+
164.062	99	C13H8+
165.0698	999	C13H9+
166.0777	37	C13H10+
167.0853	4	C13H11+
169.0647	26	C12H9O+
179.0603	32	C12H7N2+
