Mass spectrum: Malformin A1; LC-ESI-ITFT; MS2; CE: 50%; R=7500; [M+H]+
Name: Malformin A1
Name: Malformin A
Name: 4-butan-2-yl-7-(2-methylpropyl)-10-propan-2-yl-15,16-dithia-2,5,8,11,19-pentazabicyclo[11.4.2]nonadecane-3,6,9,12,18-pentone
Formula: C23H39N5O5S2
Exact mass: 529.2393
SMILES: CCC(C)C1C(=O)NC2CSSCC(C(=O)NC(C(=O)NC(C(=O)N1)CC(C)C)C(C)C)NC2=O
InChI: InChI=1S/C23H39N5O5S2/c1-7-13(6)18-23(33)26-15-9-34-35-10-16(25-20(15)30)21(31)27-17(12(4)5)22(32)24-14(8-11(2)3)19(29)28-18/h11-18H,7-10H2,1-6H3,(H,24,32)(H,25,30)(H,26,33)(H,27,31)(H,28,29)
Instrument: LTQ Orbitrap XL Thermo Scientific
Instrument type: LC-ESI-ITFT
Ms type: MS2
Ion mode: POSITIVE
Ionization: ESI
Fragmentation mode: HCD
Collision energy: 50 % (nominal)
Resolution: 7500
Column name: Hypersil GOLD C18 1.9 um 100 x 2.1 mm Thermo Fisher Scientific
Retention time: 21.536 min
Base peak: 530.2473
Precursor m/z: 530.2465
Precursor type: [M+H]+
Precursor intensity: 8766828.852051
m/z	relative intensity	assigned
69.0698	24	C5H9+
72.0808	173	C4H10N+
72.2813	31	C3H36+
86.0964	540	C5H12N+
96.248	21	CH36OS+
131.9937	37	C4H6NS2+
140.1434	41	C9H18N+
173.0733	15	C5H11N5S+
175.0902	73	C7H15N2OS+
183.1133	44	C9H15N2O2+
185.165	191	C10H21N2O+
199.1805	106	C11H23N2O+
200.9903	18	C5H5N4OS2+
201.12	28	C5H21N4S2+
205.0095	71	C6H9N2O2S2+
207.0635	19	CH13N5O5S+
231.0622	999	C3H13N5O5S+
253.2269	21	C15H29N2O+
259.0573	55	C10H15N2O2S2+
318.094	31	C12H20N3O3S2+
332.1341	15	C13H24N4O2S2+
