Mass spectrum: Communesin A; LC-ESI-ITFT; MS2; CE: 40%; R=7500; [M+H]+
Name: Communesin A
Name: 1-Acetyl-17-(3,3-dimethyloxiranyl)-1,2,3,8a,9,14,15,16a-octahydro-9-methyl-13,16-methano-8H,16H-pyrrolo[2`,3`:2,3]pyrido[4,3-o]quinindoline
Name: 1-[25-(3,3-dimethyloxiran-2-yl)-15-methyl-1,3,13,15-tetrazaheptacyclo[18.4.1.02,6.06,22.07,12.014,22.016,21]pentacosa-7,9,11,16,18,20-hexaen-3-yl]ethanone
Formula: C28H32N4O2
Exact mass: 456.2525
SMILES: CC(=O)N1CCC23C1N4CCC25C(NC6=CC=CC=C36)N(C7=CC=CC(=C57)C4C8C(O8)(C)C)C
InChI: InChI=1S/C28H32N4O2/c1-16(33)31-14-12-27-18-9-5-6-10-19(18)29-24-28(27)13-15-32(25(27)31)22(23-26(2,3)34-23)17-8-7-11-20(21(17)28)30(24)4/h5-11,22-25,29H,12-15H2,1-4H3
Instrument: LTQ Orbitrap XL Thermo Scientific
Instrument type: LC-ESI-ITFT
Ms type: MS2
Ion mode: POSITIVE
Ionization: ESI
Fragmentation mode: HCD
Collision energy: 40 % (nominal)
Resolution: 7500
Column name: Hypersil GOLD C18 1.9 um 100 x 2.1 mm Thermo Fisher Scientific
Retention time: 20.195 min
Base peak: 457.2602
Precursor m/z: 457.2598
Precursor type: [M+H]+
Precursor intensity: 16426776.13379
m/z	relative intensity	assigned
57.1512	2	C2H19N+
130.0654	4	C9H8N+
144.0807	4	C10H10N+
159.0915	47	C10H11N2+
168.0806	13	C12H10N+
170.0961	4	C12H12N+
181.0888	14	C13H11N+
182.0963	3	C13H12N+
183.0915	40	C12H11N2+
184.1004	10	C12H12N2+
185.1072	140	C12H13N2+
186.1105	10	C7H14N4O2+
196.1113	13	C14H14N+
197.1074	81	C13H13N2+
198.1152	98	C13H14N2+
199.1229	8	C13H15N2+
201.1021	62	C12H13N2O+
210.1271	14	C15H16N+
220.1123	3	C16H14N+
224.1054	2	C13H12N4+
226.1224	8	C15H16NO+
237.1385	13	C16H17N2+
238.1222	14	C16H16NO+
238.1467	10	C16H18N2+
240.1382	11	C16H18NO+
255.149	51	C16H19N2O+
257.1654	4	C16H21N2O+
299.1553	4	C21H19N2+
309.1388	5	C22H17N2+
323.154	23	C23H19N2+
326.1642	7	C22H20N3+
340.1812	14	C23H22N3+
341.1642	9	C23H21N2O+
354.1723	5	C24H22N2O+
363.1856	4	C26H23N2+
368.1772	5	C26H24O2+
381.1962	32	C26H25N2O+
382.1914	26	C25H24N3O+
385.2022	999	C24H25N4O+
399.2179	66	C25H27N4O+
400.2021	12	C25H26N3O2+
439.2484	15	C28H31N4O+
440.2343	24	C28H30N3O2+
457.2598	26	C28H33N4O2+
