Mass spectrum: Antipyrine; LC-ESI-ITFT; MS2; CE: 65%; R=15000; [M+H]+
Name: Antipyrine
Name: 1,5-dimethyl-2-phenylpyrazol-3-one
Formula: C11H12N2O
Exact mass: 188.0950
SMILES: CC1=CC(=O)N(N1C)C2=CC=CC=C2
InChI: InChI=1S/C11H12N2O/c1-9-8-11(14)13(12(9)2)10-6-4-3-5-7-10/h3-8H,1-2H3
Instrument: LTQ Orbitrap XL Thermo Scientific
Instrument type: LC-ESI-ITFT
Ms type: MS2
Ion mode: POSITIVE
Ionization: ESI
Fragmentation mode: CID
Collision energy: 65% (nominal)
Resolution: 15000
Column name: Kinetex Evo C18 2.6 um 50 x 2.1 mm
Retention time: 5.578 min
Base peak: 189.1022
Precursor m/z: 189.1022
Precursor type: [M+H]+
m/z	relative intensity	assigned
91.0542	31	C7H7+
95.0604	10	C5H7N2+
96.0444	16	C5H6NO+
96.0683	28	C5H8N2+
103.0541	22	C8H7+
104.0495	57	C7H6N+
105.0699	21	C8H9+
106.0652	21	C7H8N+
111.0439	6	C6H7O2+
111.0553	28	C5H7N2O+
117.0573	27	C8H7N+
117.0698	31	C9H9+
118.0651	219	C8H8N+
120.0808	243	C8H10N+
129.0699	24	C10H9+
130.0652	339	C9H8N+
131.073	999	C9H9N+
132.0808	217	C9H10N+
133.0522	18	C8H7NO+
133.076	102	C8H9N2+
134.0966	21	C9H12N+
135.0553	42	C7H7N2O+
144.0808	839	C10H10N+
145.0647	82	C10H9O+
145.0886	26	C10H11N+
146.0838	601	C9H10N2+
146.0964	473	C10H12N+
147.0917	568	C9H11N2+
148.0757	115	C9H10NO+
149.0708	22	C8H9N2O+
154.0654	7	C11H8N+
157.0522	11	C10H7NO+
158.06	55	C10H8NO+
160.0993	28	C10H12N2+
161.1073	805	C10H13N2+
162.0913	28	C10H12NO+
171.0916	17	C11H11N2+
172.0757	363	C11H10NO+
174.0787	336	C10H10N2O+
