Mass spectrum: Isoproturon-desaturation (TENTATIVE); LC-ESI-QFT; MS2; CE: 30%; R=70000; [M+H]+
Name: Isoproturon-desaturation
Formula: C12H16N2O
Exact mass: 204.1254
SMILES: C=C(C)C1=CC=C(C=C1)NC(=O)N(C)C
InChI: InChI=1S/C12H16N2O/c1-9(2)10-5-7-11(8-6-10)13-12(15)14(3)4/h5-8H,1H2,2-4H3,(H,13,15)
Instrument: Q Exactive Plus Orbitrap Thermo Scientific
Instrument type: LC-ESI-QFT
Ms type: MS2
Ion mode: POSITIVE
Ionization: ESI
Fragmentation mode: HCD
Collision energy: 30% (nominal)
Resolution: 70000
Column name: Waters UPLC BEH C18 1.7 um 2.1 mm x 100 mm with pre-column
Retention time: 13.47 min
Precursor m/z: 205.1332
Precursor type: [M+H]+
m/z	relative intensity
55.0546	7
67.0543	15
72.0443	21
73.0646	6
79.0542	24
81.0701	7
91.0542	70
93.07	10
95.0492	14
103.0545	7
105.0698	20
106.0652	999
107.0855	10
117.0573	9
117.0696	30
120.0808	7
129.0698	9
131.0735	10
131.0857	9
132.0444	233
132.081	17
133.0886	84
134.0966	20
137.0964	8
146.0603	9
147.0916	8
148.1121	87
161.0711	8
163.0863	35
174.0917	34
