Mass spectrum: Sulfamethoxazole; LC-ESI-ITFT; MS2; CE: 110%; R=15000; [M+H]+
Name: Sulfamethoxazole
Name: 4-amino-N-(5-methyl-1,2-oxazol-3-yl)benzenesulfonamide
Formula: C10H11N3O3S
Exact mass: 253.0521
SMILES: CC1=CC(=NO1)NS(=O)(=O)C2=CC=C(C=C2)N
InChI: InChI=1S/C10H11N3O3S/c1-7-6-10(12-16-7)13-17(14,15)9-4-2-8(11)3-5-9/h2-6H,11H2,1H3,(H,12,13)
Instrument: LTQ Orbitrap XL Thermo Scientific
Instrument type: LC-ESI-ITFT
Ms type: MS2
Ion mode: POSITIVE
Ionization: ESI
Fragmentation mode: HCD
Collision energy: 110% (nominal)
Resolution: 15000
Column name: Kinetex Evo C18 2.6 um 50 x 2.1 mm
Retention time: 5.617 min
Base peak: 189.1023
Precursor m/z: 254.0594
Precursor type: [M+H]+
m/z	relative intensity	assigned
53.0384	3	C4H5+
65.0384	999	C5H5+
66.0337	13	C4H4N+
66.0463	8	C5H6+
71.0603	3	C3H7N2+
72.0443	10	C3H6NO+
79.0418	4	C5H5N+
80.0495	335	C5H6N+
90.0339	5	C6H4N+
92.0495	757	C6H6N+
93.0573	210	C6H7N+
94.065	4	C6H8N+
99.0553	39	C4H7N2O+
105.0447	8	C6H5N2+
106.0526	5	C6H6N2+
107.0605	16	C6H7N2+
108.0444	485	C6H6NO+
110.06	70	C6H8NO+
118.0526	5	C7H6N2+
119.0604	8	C7H7N2+
120.0558	5	C6H6N3+
131.0606	3	C8H7N2+
133.0631	3	C7H7N3+
143.0598	3	C9H7N2+
146.0715	24	C8H8N3+
147.0791	3	C8H9N3+
