Mass spectrum: Dehydrocyclopeptine; LC-ESI-ITFT; MS2; CE: 60%; R=7500; [M+H]+
Name: Dehydrocyclopeptine
Name: 1H-1,4-Benzodiazepine-2,5-dione, 3-benzylidene-3,4-dihydro-4-methyl-
Name: 3-benzylidene-4-methyl-1H-1,4-benzodiazepine-2,5-dione
Formula: C17H14N2O2
Exact mass: 278.1055
SMILES: CN1C(=CC2=CC=CC=C2)C(=O)NC3=CC=CC=C3C1=O
InChI: InChI=1S/C17H14N2O2/c1-19-15(11-12-7-3-2-4-8-12)16(20)18-14-10-6-5-9-13(14)17(19)21/h2-11H,1H3,(H,18,20)
Instrument: LTQ Orbitrap XL Thermo Scientific
Instrument type: LC-ESI-ITFT
Ms type: MS2
Ion mode: POSITIVE
Ionization: ESI
Fragmentation mode: HCD
Collision energy: 60 % (nominal)
Resolution: 7500
Column name: Hypersil GOLD C18 1.9 um 100 x 2.1 mm Thermo Fisher Scientific
Retention time: 17.696 min
Base peak: 279.1136
Precursor m/z: 279.1128
Precursor type: [M+H]+
Precursor intensity: 9269127.76416
m/z	relative intensity	assigned
91.0543	412	C7H7+
105.07	17	C8H9+
115.0544	35	C9H7+
117.0576	33	C8H7N+
120.0446	759	C7H6NO+
130.0653	83	C9H8N+
132.0809	999	C9H10N+
148.0395	70	C8H6NO2+
158.0602	47	C10H8NO+
160.0758	25	C10H10NO+
161.0712	133	C9H9N2O+
173.0717	10	C10H9N2O+
175.0507	12	C9H7N2O2+
186.0556	8	C11H8NO2+
187.0504	8	C10H7N2O2+
194.0966	22	C14H12N+
220.0761	29	C15H10NO+
222.0916	30	C15H12NO+
232.0756	12	C16H10NO+
233.1067	3	C16H13N2+
234.0922	5	C16H12NO+
238.0863	13	C15H12NO2+
246.0788	17	C16H10N2O+
248.0706	8	C16H10NO2+
251.1176	49	C16H15N2O+
261.1024	107	C17H13N2O+
264.0897	4	C16H12N2O2+
279.1132	490	C17H15N2O2+
