Mass spectrum: Metamitron-desamino (PROBABLE); LC-ESI-QFT; MS2; CE: 42%; R=70000; [M+H]+
Name: Metamitron-desamino
Name: 3-methyl-6-phenyl-4,5-dihydro-1,2,4-triazin-5-one
Formula: C10H9N3O
Exact mass: 187.0738
SMILES: CC1=NN=C(C(=O)N1)C2=CC=CC=C2
InChI: InChI=1S/C10H9N3O/c1-7-11-10(14)9(13-12-7)8-5-3-2-4-6-8/h2-6H,1H3,(H,11,12,14)
Instrument: Q Exactive Plus Orbitrap Thermo Scientific
Instrument type: LC-ESI-QFT
Ms type: MS2
Ion mode: POSITIVE
Ionization: ESI
Fragmentation mode: HCD
Collision energy: 42% (nominal) with stepped collision energies 30% and 55%
Resolution: 70000
Column name: Phenomenex Synergi Polar-RP 2.5 um 100 mm x 3 mm with pre-column
Retention time: 8.94 min
Precursor m/z: 188.0816
Precursor type: [M+H]+
m/z	relative intensity
53.0389	4
57.045	21
68.0251	10
77.0386	10
85.0395	12
91.0542	13
92.0495	24
95.0492	27
104.0494	150
105.0451	5
119.0604	140
160.0869	547
188.0818	999
