Mass spectrum: 15 Acetyldeoxynivalenol; LC-ESI-ITFT; MS2; CE: 20%; R=7500; [M+H]+
Name: 15 Acetyldeoxynivalenol
Name: 15-Acetyl-4-deoxynivalenol
Name: (3,10-dihydroxy-1,5-dimethyl-4-oxospiro[8-oxatricyclo[7.2.1.02,7]dodec-5-ene-12,2`-oxirane]-2-yl)methyl acetate
Formula: C17H22O7
Exact mass: 338.1366
SMILES: CC1=CC2C(C(C1=O)O)(C3(CC(C(C34CO4)O2)O)C)COC(=O)C
InChI: InChI=1S/C17H22O7/c1-8-4-11-16(6-22-9(2)18,13(21)12(8)20)15(3)5-10(19)14(24-11)17(15)7-23-17/h4,10-11,13-14,19,21H,5-7H2,1-3H3
Instrument: LTQ Orbitrap XL Thermo Scientific
Instrument type: LC-ESI-ITFT
Ms type: MS2
Ion mode: POSITIVE
Ionization: ESI
Fragmentation mode: HCD
Collision energy: 20 % (nominal)
Resolution: 7500
Column name: Hypersil GOLD C18 1.9 um 100 x 2.1 mm Thermo Fisher Scientific
Retention time: 10.848 min
Base peak: 361.1253
Precursor m/z: 339.1438
Precursor type: [M+H]+
Precursor intensity: 2776767.998291
m/z	relative intensity	assigned
201.0913	350	C13H13O2+
231.1011	999	C14H15O3+
261.1114	704	C15H17O4+
297.1319	763	C15H21O6+
