Mass spectrum: 15 Acetoxyscirpenol; LC-ESI-ITFT; MS2; CE: 15%; R=7500; [M+H]+
Name: 15 Acetoxyscirpenol
Name: Desacetylanguidine
Name: (10,11-dihydroxy-1,5-dimethylspiro[8-oxatricyclo[7.2.1.02,7]dodec-5-ene-12,2`-oxirane]-2-yl)methyl acetate
Formula: C17H24O6
Exact mass: 324.1573
SMILES: CC1=CC2C(CC1)(C3(C(C(C(C34CO4)O2)O)O)C)COC(=O)C
InChI: InChI=1S/C17H24O6/c1-9-4-5-16(7-21-10(2)18)11(6-9)23-14-12(19)13(20)15(16,3)17(14)8-22-17/h6,11-14,19-20H,4-5,7-8H2,1-3H3
Instrument: LTQ Orbitrap XL Thermo Scientific
Instrument type: LC-ESI-ITFT
Ms type: MS2
Ion mode: POSITIVE
Ionization: ESI
Fragmentation mode: HCD
Collision energy: 15 % (nominal)
Resolution: 7500
Column name: Hypersil GOLD C18 1.9 um 100 x 2.1 mm Thermo Fisher Scientific
Retention time: 13.094 min
Base peak: 265.1431
Precursor m/z: 325.1646
Precursor type: [M+H]+
Precursor intensity: 2968139.53125
m/z	relative intensity	assigned
145.1007	121	C11H13+
159.1164	724	C12H15+
173.132	449	C13H17+
201.1273	999	C14H17O+
219.1377	770	C14H19O2+
247.1319	946	C15H19O3+
265.1427	310	C15H21O4+
307.155	191	C17H23O5+
