Mass spectrum: Desipramine; LC-ESI-QTOF; MS2; CE: 40 eV; R=3600; [M+H]+
Name: Desipramine
Name: 3-(10,11-Dihydro-5H-dibenzo[b,f]azepin-5-yl)-N-methylpropan-1-amine
Formula: C18H22N2
Exact mass: 266.1783
SMILES: CNCCCN1C2=C(CCC3=C1C=CC=C3)C=CC=C2
InChI: InChI=1S/C18H22N2/c1-19-13-6-14-20-17-9-4-2-7-15(17)11-12-16-8-3-5-10-18(16)20/h2-5,7-10,19H,6,11-14H2,1H3
Instrument: 6556 QTOF Agilent
Instrument type: LC-ESI-QTOF
Ms type: MS2
Ion mode: POSITIVE
Ionization: ESI
Fragmentation mode: CID
Collision energy: 40 eV
Resolution: 3600
Precursor m/z: 267.1856
Precursor type: [M+H]+
m/z	relative intensity
57.0554	460
65.0381	104
72.078	999
90.0443	230
91.0582	78
127.0584	62
139.0533	127
141.0621	65
151.0455	88
152.0538	427
165.0654	663
166.0738	301
167.0767	210
180.0673	152
181.079	114
182.0908	62
191.0662	189
192.0749	410
193.0802	731
194.0899	337
208.1034	137
