Mass spectrum: Dimethenamid-OH-desmethyl (TENTATIVE); LC-ESI-QFT; MS2; CE: 30%; R=70000; [M+H]+
Name: Dimethenamid-OH-desmethyl
Formula: C11H16ClNO3S
Exact mass: 277.0528
SMILES: C(*)C1=C(*)SC(=C1N(C(*)(C(*))C(*)O)C(=O)C(*)Cl)C(*) *=[OH (n=1) & H (n=6)]
Instrument: Q Exactive Plus Orbitrap Thermo Scientific
Instrument type: LC-ESI-QFT
Ms type: MS2
Ion mode: POSITIVE
Ionization: ESI
Fragmentation mode: HCD
Collision energy: 30% (nominal)
Resolution: 70000
Column name: Waters UPLC BEH C18 1.7 um 2.1 mm x 100 mm with pre-column
Retention time: 10 min
Precursor m/z: 278.0606
Precursor type: [M+H]+
m/z	relative intensity
57.0338	7
58.0654	33
58.9953	36
59.0494	999
65.0387	4
68.0496	6
73.0649	11
75.9949	12
76.9789	27
81.0699	5
85.0109	5
91.0544	5
93.0699	5
94.0653	6
96.0445	5
97.0108	17
99.0264	12
101.0421	5
104.0262	13
105.0703	7
108.0809	15
111.0263	64
112.0344	9
113.0222	7
113.0421	11
117.0575	13
118.0653	20
122.0964	6
125.042	195
126.0372	145
127.0212	125
127.045	242
128.0528	8
131.0725	5
132.0212	11
132.0807	58
133.0887	94
134.0188	7
134.0368	66
134.0414	7
135.1046	8
137.0296	6
138.0375	13
140.0527	30
149.0422	10
150.0373	32
151.0451	52
151.0578	10
152.053	35
153.0244	8
153.0612	8
154.0324	10
154.0686	78
166.0325	8
166.0685	99
167.0767	17
168.0842	166
170.0804	17
184.0792	136
188.0106	9
202.0086	22
230.04	25
