Mass spectrum: Ethambutol; LC-ESI-QFT; MS2; CE: 60%; R=17500; [M+H]+
Name: Ethambutol
Name: (2S,2'S)-2,2'-(Ethane-1,2-diyldiazanediyl)di(butan-1-ol)
Formula: C10H24N2O2
Exact mass: 204.1838
SMILES: CC[C@@H](CO)NCCN[C@@H](CC)CO
InChI: InChI=1S/C10H24N2O2/c1-3-9(7-13)11-5-6-12-10(4-2)8-14/h9-14H,3-8H2,1-2H3/t9-,10-/m0/s1
Instrument: Q Exactive Thermo Fisher Scientific
Instrument type: LC-ESI-QFT
Ms type: MS2
Ion mode: POSITIVE
Ionization: ESI
Fragmentation mode: HCD
Collision energy: 60% (nominal)
Resolution: 17500
Column name: Hypersil GOLD 1.9 um 2.1 x 100 mm Thermo Fisher Scientific
Precursor m/z: 205.1911
Precursor type: [M+H]+
m/z	relative intensity
53.0395	5
55.0551	38
56.0504	15
62.0609	20
69.0707	9
70.0659	11
72.0816	17
74.0608	19
79.0549	2
81.0706	6
90.0921	7
98.097	50
116.1074	999
