Mass spectrum: Sulfamethoxazole; LC-ESI-ITFT; MS2; CE: 70%; R=7500; [M+H]+
Name: Sulfamethoxazole
Name: 4-Amino-N-(5-methyl-1,2-oxazol-3-yl)benzene-1-sulfonamide
Formula: C10H11N3O3S
Exact mass: 253.0521
SMILES: CC1=CC(NS(=O)(=O)C2=CC=C(N)C=C2)=NO1
InChI: InChI=1S/C10H11N3O3S/c1-7-6-10(12-16-7)13-17(14,15)9-4-2-8(11)3-5-9/h2-6H,11H2,1H3,(H,12,13)
Instrument: LTQ Orbitrap XL Thermo Fisher Scientific
Instrument type: LC-ESI-ITFT
Ms type: MS2
Ion mode: POSITIVE
Ionization: ESI
Fragmentation mode: HCD
Collision energy: 70% (nominal)
Resolution: 7500
Column name: Hypersil GOLD C18 1.9 um 100 x 2.1 mm Thermo Fisher Scientific
Precursor m/z: 254.0594
Precursor type: [M+H]+
m/z	relative intensity
65.0385	93
72.0444	5
80.0494	18
92.0494	995
93.0571	188
94.065	10
99.0553	178
107.0606	30
108.0445	999
110.06	89
119.0602	4
120.0556	23
121.0759	5
131.0605	7
132.0682	6
133.0761	4
143.0605	7
146.0714	39
147.0793	73
148.0871	6
156.0115	161
160.087	90
161.0017	7
173.0586	4
176.028	3
