Mass spectrum: Sulfamethoxazole; LC-ESI-ITFT; MS2; CE: 20%; R=15000; [M+H]+
Name: Sulfamethoxazole
Name: 4-amino-N-(5-methyl-1,2-oxazol-3-yl)benzenesulfonamide
Formula: C10H11N3O3S
Exact mass: 253.0521
SMILES: CC1=CC(=NO1)NS(=O)(=O)C2=CC=C(C=C2)N
InChI: InChI=1S/C10H11N3O3S/c1-7-6-10(12-16-7)13-17(14,15)9-4-2-8(11)3-5-9/h2-6H,11H2,1H3,(H,12,13)
Instrument: LTQ Orbitrap XL Thermo Scientific
Instrument type: LC-ESI-ITFT
Ms type: MS2
Ion mode: POSITIVE
Ionization: ESI
Fragmentation mode: HCD
Collision energy: 20% (nominal)
Resolution: 15000
Column name: Kinetex Evo C18 2.6 um 50 x 2.1 mm
Retention time: 5.654 min
Base peak: 254.0592
Precursor m/z: 254.0594
Precursor type: [M+H]+
m/z	relative intensity	assigned
92.0495	15	C6H6N+
93.0572	17	C6H7N+
94.0651	7	C6H8N+
99.0552	16	C4H7N2O+
107.0603	3	C6H7N2+
108.0443	28	C6H6NO+
146.0712	5	C8H8N3+
147.079	27	C8H9N3+
148.0867	8	C8H10N3+
156.0113	138	C6H6NO2S+
160.0868	22	C9H10N3+
161.0017	1	C4H5N2O3S+
188.0817	37	C10H10N3O+
190.0974	30	C10H12N3O+
194.0382	11	C8H8N3OS+
236.0493	3	C10H10N3O2S+
254.0593	999	C10H12N3O3S+
