Mass spectrum: Metoclopramide; LC-ESI-QFT; MS2; CE: 70%; R=17500; [M+H]+
Name: Metoclopramide
Name: 4-Amino-5-chloro-N-[2-(diethylamino)ethyl]-2-methoxybenzamide
Formula: C14H22ClN3O2
Exact mass: 299.1401
SMILES: CCN(CC)CCNC(=O)C1=CC(Cl)=C(N)C=C1OC
InChI: InChI=1S/C14H22ClN3O2/c1-4-18(5-2)7-6-17-14(19)10-8-11(15)12(16)9-13(10)20-3/h8-9H,4-7,16H2,1-3H3,(H,17,19)
Instrument: Q Exactive Thermo Fisher Scientific
Instrument type: LC-ESI-QFT
Ms type: MS2
Ion mode: POSITIVE
Ionization: ESI
Fragmentation mode: HCD
Collision energy: 70% (nominal)
Resolution: 17500
Column name: Hypersil GOLD 1.9 um 2.1 x 100 mm Thermo Fisher Scientific
Precursor m/z: 300.1474
Precursor type: [M+H]+
m/z	relative intensity
90.0345	43
93.0579	46
100.1126	22
113.003	22
120.0447	25
126.0107	41
128.0263	47
140.9977	185
144.0211	62
148.0631	65
154.0055	32
156.0211	135
168.0085	160
168.9926	42
170.0003	41
183.032	221
184.0161	999
187.0031	75
212.0348	267
227.0582	106
