Mass spectrum: Malformin C; LC-ESI-ITFT; MS2; CE: 60%; R=7500; [M-H]-
Name: Malformin C
Name: Malformin B1b
Name: (1S,4S,7R,10S,13S)-4,7-bis(2-methylpropyl)-10-propan-2-yl-15,16-dithia-2,5,8,11,19-pentazabicyclo[11.4.2]nonadecane-3,6,9,12,18-pentone
Formula: C23H39N5O5S2
Exact mass: 529.23926
SMILES: O=C1[C@H](CC(C)C)NC([C@@H](CC(C)C)NC([C@H](C(C)C)NC([C@@H]2NC([C@@H](CSSC2)N1)=O)=O)=O)=O
InChI: InChI=1S/C23H39N5O5S2/c1-11(2)7-14-20(30)26-16-9-34-35-10-17(27-21(16)31)22(32)28-18(13(5)6)23(33)25-15(8-12(3)4)19(29)24-14/h11-18H,7-10H2,1-6H3,(H,24,29)(H,25,33)(H,26,30)(H,27,31)(H,28,32)/t14-,15+,16+,17+,18-/m0/s1
Instrument: LTQ Orbitrap XL Thermo Scientific
Instrument type: LC-ESI-ITFT
Ms type: MS2
Ion mode: NEGATIVE
Ionization: ESI
Fragmentation mode: HCD
Collision energy: 60 % (nominal)
Resolution: 7500
Column name: Hypersil GOLD C18 1.9 um 100 x 2.1 mm Thermo Fisher Scientific
Retention time: 21.909 min
Base peak: 588.2535
Precursor m/z: 528.232
Precursor type: [M-H]-
Precursor intensity: 6831499.900391
m/z	relative intensity	assigned
90.9685	13	C2H3S2-
97.0409	64	C4H5N2O-
100.0226	122	C4H6NS-
109.0408	170	C5H5N2O-
111.0565	61	C5H7N2O-
113.0358	8	C4H5N2O2-
126.0022	206	C5H4NOS-
128.018	19	C5H6NOS-
139.0511	22	C6H7N2O2-
139.088	45	C7H11N2O-
141.067	999	C6H9N2O2-
143.0285	319	C5H7N2OS-
155.0826	108	C7H11N2O2-
156.0482	11	C7H10NOS-
167.0824	65	C8H11N2O2-
181.0982	141	C9H13N2O2-
185.0754	87	C8H13N2OS-
191.0827	33	C10H11N2O2-
198.1244	9	CH20N5O4S-
205.0987	18	C5H19NO5S-
208.1092	93	C10H14N3O2-
210.0883	162	C9H12N3O3-
210.1269	9	C12H18O3-
211.1451	58	C11H19N2O2-
225.1606	23	C12H21N2O2-
234.0883	11	C11H12N3O3-
239.086	10	C3H19N4O4S2-
239.1153	9	C10H15N4O3-
242.097	26	C10H16N3O2S-
251.1142	23	C11H15N4O3-
254.1516	57	C12H20N3O3-
268.1673	36	C13H22N3O3-
326.1547	46	C23H20NO-
350.2071	9	C18H28N3O4-
367.2354	438	C18H31N4O4-
405.2508	7	C21H33N4O4-
417.2513	15	C22H33N4O4-
425.2227	34	C22H35NO5S-
436.2591	9	C18H38N5O5S-
451.2386	164	C22H35N4O4S-
460.2551	88	C23H34N5O5-
462.2732	43	C23H36N5O5-
476.2385	8	C20H38N5O4S2-
494.2429	53	C23H36N5O5S-
