Mass spectrum: Ethambutol; ESI-QTOF; MS2; CE: 40eV; R=15000; [M+H]+
Name: Ethambutol
Name: (2S,2'S)-2,2'-(Ethane-1,2-diyldiazanediyl)di(butan-1-ol)
Formula: C10H24N2O2
Exact mass: 204.1838
SMILES: CC[C@@H](CO)NCCN[C@@H](CC)CO
InChI: InChI=1S/C10H24N2O2/c1-3-9(7-13)11-5-6-12-10(4-2)8-14/h9-14H,3-8H2,1-2H3/t9-,10-/m0/s1
Instrument: TripleTOF 5600+SCIEX
Instrument type: ESI-QTOF
Ms type: MS2
Ion mode: POSITIVE
Ionization: ESI
Fragmentation mode: CID
Collision energy: 40 eV
Resolution: 15000
Precursor m/z: 205.1911
Precursor type: [M+H]+
m/z	relative intensity
53.0413	7
55.057	251
56.0521	35
57.0722	1
62.0622	9
65.0408	1
67.056	1
68.0516	1
69.0718	6
70.0669	8
72.0825	10
74.0617	11
77.04	1
79.0557	3
81.0712	4
90.0924	3
91.0551	1
96.0818	1
98.0972	35
116.1074	999
205.1911	0
