Mass spectrum: Desipramine; LC-ESI-QTOF; MS2; CE: 50 eV; R=3600; [M+H]+
Name: Desipramine
Name: 3-(10,11-Dihydro-5H-dibenzo[b,f]azepin-5-yl)-N-methylpropan-1-amine
Formula: C18H22N2
Exact mass: 266.1783
SMILES: CNCCCN1C2=C(CCC3=C1C=CC=C3)C=CC=C2
InChI: InChI=1S/C18H22N2/c1-19-13-6-14-20-17-9-4-2-7-15(17)11-12-16-8-3-5-10-18(16)20/h2-5,7-10,19H,6,11-14H2,1H3
Instrument: 6558 QTOF Agilent
Instrument type: LC-ESI-QTOF
Ms type: MS2
Ion mode: POSITIVE
Ionization: ESI
Fragmentation mode: CID
Collision energy: 50 eV
Resolution: 3600
Precursor m/z: 267.1856
Precursor type: [M+H]+
m/z	relative intensity
56.0485	266
57.0568	500
65.0366	61
72.0796	981
77.037	127
89.0361	132
90.0427	84
91.0535	209
115.0508	75
128.0447	58
139.0526	49
152.0575	197
165.0652	579
166.0628	133
167.069	260
177.0596	66
178.0685	82
179.0709	112
180.0769	141
190.0615	131
191.0704	309
192.0761	720
193.0833	999
204.0778	54
206.0906	67
208.1069	65
