Mass spectrum: Dosulepin; LC-ESI-ITFT; MS2; CE: 85%; R=15000; [M+H]+
Name: Dosulepin
Name: Dothiepin
Name: 3-(6H-benzo[c][1]benzothiepin-11-ylidene)-N,N-dimethylpropan-1-amine
Formula: C19H21NS
Exact mass: 295.1395
SMILES: CN(C)CCC=C1C2=CC=CC=C2CSC3=CC=CC=C31
InChI: InChI=1S/C19H21NS/c1-20(2)13-7-11-17-16-9-4-3-8-15(16)14-21-19-12-6-5-10-18(17)19/h3-6,8-12H,7,13-14H2,1-2H3
Instrument: LTQ Orbitrap XL Thermo Scientific
Instrument type: LC-ESI-ITFT
Ms type: MS2
Ion mode: POSITIVE
Ionization: ESI
Fragmentation mode: HCD
Collision energy: 85% (nominal)
Resolution: 15000
Column name: Kinetex Evo C18 2.6 um 50 x 2.1 mm
Retention time: 8.168 min
Base peak: 296.1465
Precursor m/z: 296.1467
Precursor type: [M+H]+
m/z	relative intensity	assigned
58.0649	172	C3H8N+
70.065	9	C4H8N+
84.0807	30	C5H10N+
91.0542	319	C7H7+
103.0541	15	C8H7+
115.0542	262	C9H7+
116.0621	10	C9H8+
117.0698	413	C9H9+
123.0262	132	C7H7S+
128.0619	25	C10H8+
129.0698	88	C10H9+
135.0261	38	C8H7S+
141.0698	78	C11H9+
142.0776	29	C11H10+
147.0262	166	C9H7S+
165.0698	281	C13H9+
173.0417	38	C11H9S+
178.0777	534	C14H10+
179.0855	148	C14H11+
189.0699	28	C15H9+
190.0778	42	C15H10+
191.0855	235	C15H11+
192.0933	160	C15H12+
197.0423	18	C13H9S+
202.0776	404	C16H10+
203.0854	999	C16H11+
204.0936	37	C16H12+
208.0341	73	C14H8S+
209.0422	51	C14H9S+
210.0496	283	C14H10S+
215.0856	79	C17H11+
216.0934	45	C17H12+
217.1011	740	C17H13+
218.1089	215	C17H14+
221.0418	737	C15H9S+
222.0495	260	C15H10S+
223.0574	315	C15H11S+
225.0731	18	C15H13S+
234.0497	70	C16H10S+
235.0574	209	C16H11S+
236.0653	40	C16H12S+
