Mass spectrum: Phenazone; LC-ESI-ITFT; MS2; CE: 75%; R=7500; [M+H]+
Name: Phenazone
Name: 1,5-Dimethyl-2-phenyl-1,2-dihydro-3H-pyrazol-3-one
Formula: C11H12N2O
Exact mass: 188.095
SMILES: CN1N(C(=O)C=C1C)C1=CC=CC=C1
InChI: InChI=1S/C11H12N2O/c1-9-8-11(14)13(12(9)2)10-6-4-3-5-7-10/h3-8H,1-2H3
Instrument: LTQ Orbitrap XL Thermo Fisher Scientific
Instrument type: LC-ESI-ITFT
Ms type: MS2
Ion mode: POSITIVE
Ionization: ESI
Fragmentation mode: HCD
Collision energy: 75% (nominal)
Resolution: 7500
Column name: Hypersil GOLD C18 1.9 um 100 x 2.1 mm Thermo Fisher Scientific
Precursor m/z: 189.1023
Precursor type: [M+H]+
m/z	relative intensity
56.0494	95
58.065	94
65.0385	21
68.0493	6
70.0651	7
77.0384	37
81.0446	18
91.0542	49
92.0494	13
93.0334	9
94.0652	10
95.0604	23
96.0682	106
98.0601	52
103.0544	21
104.0496	317
106.0652	211
111.0555	7
115.0541	17
117.0699	91
118.0652	136
120.0808	113
129.0573	13
130.0652	169
131.0604	25
131.073	203
132.0808	91
133.0522	30
134.0964	26
135.0555	6
143.073	9
144.0809	169
145.0648	74
145.0765	43
146.084	182
147.0917	314
148.0757	15
149.071	23
157.0523	28
159.0919	11
160.0996	10
161.1075	129
172.0758	33
173.071	11
174.079	154
189.1023	999
