Mass spectrum: Metolachlor-OH-desmethyl (Unequivocal molecular formula); LC-ESI-QFT; MS2; CE: 30%; R=70000; [M+H]+
Name: Metolachlor-OH-desmethyl
Formula: C14H20ClNO3
Exact mass: 285.112
Instrument: Q Exactive Plus Orbitrap Thermo Scientific
Instrument type: LC-ESI-QFT
Ms type: MS2
Ion mode: POSITIVE
Ionization: ESI
Fragmentation mode: HCD
Collision energy: 30% (nominal)
Resolution: 70000
Column name: Waters UPLC BEH C18 1.7 um 2.1 mm x 100 mm with pre-column
Retention time: 11.76 min
Precursor m/z: 286.1198
Precursor type: [M+H]+
m/z	relative intensity
59.0494	46
75.9949	5
76.9789	46
91.0542	12
93.0699	5
105.0699	17
107.0856	15
115.0543	8
117.0573	17
117.0699	12
118.0651	75
119.073	14
119.0855	13
120.0808	25
129.0699	14
130.0652	37
131.073	296
132.0808	72
133.0762	3
133.0888	12
134.0964	227
135.0805	145
135.1043	200
142.0777	6
144.0808	140
145.0886	216
146.0601	81
146.0965	522
148.1119	10
150.0912	4
154.0419	7
156.0809	24
157.0887	25
158.0965	36
159.0678	14
159.1043	92
160.0757	7
160.1122	39
161.0836	17
162.0913	10
162.1278	38
172.112	41
174.0914	100
174.1278	69
175.0993	4
177.0341	6
180.0574	69
182.0368	14
186.128	24
192.0574	95
192.1382	120
210.068	999
214.1224	15
250.0994	6
268.1098	40
