Mass spectrum: Verrucofortine; LC-ESI-ITFT; MS2; CE: 50%; R=7500; [M+H]+
Name: Verrucofortine
Name: 6-Acetyl-10b-(1,1-dimethyl-2-propenyl)-3-isobutyl-6,10b,11,11a-tetrahydro-2H-pyrazino[2`,1`:5,1]pyrrolo[2,3-b]indole-1,4(3H,5aH)-dione
Name: 16-acetyl-9-(2-methylbut-3-en-2-yl)-4-(2-methylpropyl)-2,5,16-triazatetracyclo[7.7.0.02,7.010,15]hexadeca-10,12,14-triene-3,6-dione
Formula: C24H31N3O3
Exact mass: 409.2365
SMILES: CC(C)CC1C(=O)N2C(CC3(C2N(C4=CC=CC=C43)C(=O)C)C(C)(C)C=C)C(=O)N1
InChI: InChI=1S/C24H31N3O3/c1-7-23(5,6)24-13-19-20(29)25-17(12-14(2)3)21(30)27(19)22(24)26(15(4)28)18-11-9-8-10-16(18)24/h7-11,14,17,19,22H,1,12-13H2,2-6H3,(H,25,29)
Instrument: LTQ Orbitrap XL Thermo Scientific
Instrument type: LC-ESI-ITFT
Ms type: MS2
Ion mode: POSITIVE
Ionization: ESI
Fragmentation mode: HCD
Collision energy: 50 % (nominal)
Resolution: 7500
Column name: Hypersil GOLD C18 1.9 um 100 x 2.1 mm Thermo Fisher Scientific
Retention time: 21.507 min
Base peak: 410.2453
Precursor m/z: 410.2438
Precursor type: [M+H]+
Precursor intensity: 39959793.96484
m/z	relative intensity	assigned
69.0699	25	C5H9+
86.0966	4	C5H12N+
118.0651	3	C8H8N+
130.0653	999	C9H8N+
132.0809	32	C9H10N+
141.1025	11	C7H13N2O+
144.0811	22	C10H10N+
159.0918	9	C10H11N2+
169.0974	5	C8H13N2O2+
170.0604	29	C11H8NO+
171.0923	5	C11H11N2+
171.1127	5	C8H15N2O2+
172.0762	8	C11H10NO+
174.0915	8	C11H12NO+
182.0594	3	C12H8NO+
187.0873	3	C11H11N2O+
198.128	76	C14H16N+
200.1425	2	C14H18N+
255.149	2	C16H19N2O+
272.1756	6	C16H22N3O+
300.1708	152	C17H22N3O2+
312.1705	27	C18H22N3O2+
