Mass spectrum: Desipramine; ESI-QTOF; MS2; CE: 30eV; R=15000; [M+H]+
Name: Desipramine
Name: 3-(10,11-Dihydro-5H-dibenzo[b,f]azepin-5-yl)-N-methylpropan-1-amine
Formula: C18H22N2
Exact mass: 266.1783
SMILES: CNCCCN1C2=C(CCC3=C1C=CC=C3)C=CC=C2
InChI: InChI=1S/C18H22N2/c1-19-13-6-14-20-17-9-4-2-7-15(17)11-12-16-8-3-5-10-18(16)20/h2-5,7-10,19H,6,11-14H2,1H3
Instrument: TripleTOF 5600+SCIEX
Instrument type: ESI-QTOF
Ms type: MS2
Ion mode: POSITIVE
Ionization: ESI
Fragmentation mode: CID
Collision energy: 30 eV
Resolution: 15000
Precursor m/z: 267.1856
Precursor type: [M+H]+
m/z	relative intensity
55.0568	1
56.0519	3
57.0598	9
67.056	3
69.0716	2
70.0669	1
71.0871	3
72.083	999
79.0557	1
81.0712	3
83.0867	1
85.1023	2
91.0551	1
95.0863	5
97.102	1
105.0704	2
107.0859	1
109.1016	2
115.0544	1
118.0654	1
123.117	1
130.0652	2
132.0807	1
144.0807	1
145.0885	1
158.0963	3
166.0771	1
167.0729	2
181.0885	1
193.0883	101
195.104	17
196.1117	18
208.112	314
210.1275	1
236.1431	46
267.1856	11
