Mass spectrum: Amiloride; ESI-QTOF; MS2; CE: 40eV; R=15000; [M+H]+
Name: Amiloride
Name: 3,5-Diamino-N-carbamimidoyl-6-chloropyrazine-2-carboxamide
Formula: C6H8ClN7O
Exact mass: 229.0479
SMILES: NC(=N)NC(=O)C1=NC(Cl)=C(N)N=C1N
InChI: InChI=1S/C6H8ClN7O/c7-2-4(9)13-3(8)1(12-2)5(15)14-6(10)11/h(H4,8,9,13)(H4,10,11,14,15)
Instrument: TripleTOF 5600+SCIEX
Instrument type: ESI-QTOF
Ms type: MS2
Ion mode: POSITIVE
Ionization: ESI
Fragmentation mode: CID
Collision energy: 40 eV
Resolution: 15000
Precursor m/z: 230.0552
Precursor type: [M+H]+
m/z	relative intensity
53.0156	4
55.0315	4
56.0387	1
57.0714	1
60.0574	185
61.041	1
61.9809	13
63.9963	34
66.0225	4
69.0092	1
73.98	7
80.0248	2
81.0324	1
82.0404	1
86.0351	4
88.9903	39
91.006	4
100.9899	42
107.0349	5
108.0427	118
116.0005	999
125.045	3
140.9954	2
143.0109	555
145.0267	1
161.0212	47
170.0213	1
171.0055	512
189.0161	3
230.0552	1
