Mass spectrum: Trypacidin; LC-ESI-ITFT; MS2; CE: 50%; R=7500; [M+H]+
Name: Trypacidin
Name: methyl 4,5`-dimethoxy-6-methyl-3,3`-dioxospiro[1-benzofuran-2,6`-cyclohexa-1,4-diene]-1`-carboxylate
Formula: C18H16O7
Exact mass: 344.0896
SMILES: CC1=CC2=C(C(=C1)OC)C(=O)C3(O2)C(=CC(=O)C=C3OC)C(=O)OC
InChI: InChI=1S/C18H16O7/c1-9-5-12(22-2)15-13(6-9)25-18(16(15)20)11(17(21)24-4)7-10(19)8-14(18)23-3/h5-8H,1-4H3
Instrument: LTQ Orbitrap XL Thermo Scientific
Instrument type: LC-ESI-ITFT
Ms type: MS2
Ion mode: POSITIVE
Ionization: ESI
Fragmentation mode: HCD
Collision energy: 50 % (nominal)
Resolution: 7500
Column name: Hypersil GOLD C18 1.9 um 100 x 2.1 mm Thermo Fisher Scientific
Retention time: 17.352 min
Base peak: 345.098
Precursor m/z: 345.0969
Precursor type: [M+H]+
Precursor intensity: 30402486.30908
m/z	relative intensity	assigned
137.0238	3	C7H5O3+
163.0752	4	C10H11O2+
169.065	3	C12H9O+
173.0589	1	C11H9O2+
185.06	1	C12H9O2+
186.0666	2	C12H10O2+
197.06	4	C13H9O2+
198.068	4	C13H10O2+
199.0757	3	C13H11O2+
201.0555	3	C12H9O3+
211.0762	1	C14H11O2+
212.084	2	C14H12O2+
213.0556	5	C13H9O3+
215.0705	4	C13H11O3+
224.0832	5	C15H12O2+
226.0626	13	C14H10O3+
227.0706	23	C14H11O3+
228.0775	6	C14H12O3+
229.0503	2	C13H9O4+
229.0863	13	C14H13O3+
230.0942	2	C14H14O3+
239.0706	3	C15H11O3+
240.0784	118	C15H12O3+
241.05	15	C14H9O4+
241.0865	30	C15H13O3+
242.0575	30	C14H10O4+
243.0656	114	C14H11O4+
244.0735	3	C14H12O4+
252.0429	3	C15H8O4+
252.0781	9	C16H12O3+
253.0505	2	C15H9O4+
254.0582	3	C15H10O4+
255.0655	32	C15H11O4+
256.0735	46	C15H12O4+
257.0811	466	C15H13O4+
258.0889	56	C15H14O4+
268.0735	32	C16H12O4+
269.0452	11	C15H9O5+
269.0812	55	C16H13O4+
270.0531	40	C15H10O5+
270.0889	5	C16H14O4+
271.0604	999	C15H11O5+
283.0601	7	C16H11O5+
285.076	139	C16H13O5+
286.0838	150	C16H14O5+
298.0476	148	C16H10O6+
301.1073	110	C17H17O5+
313.071	201	C17H13O6+
