Mass spectrum: Metazachlor-OH-deschloro (PROBABLE); LC-ESI-QFT; MS2; CE: 55%; R=70000; [M+H]+
Name: Metazachlor-OH-deschloro
Name: N-(2,6-dimethylphenyl)-2-hydroxy-N-[(1H-pyrazol-1-yl)methyl]acetamide
Formula: C14H17N3O2
Exact mass: 259.1314
SMILES: CC1=C(C(=CC=C1)C)N(CN2C=CC=N2)C(=O)CO
InChI: InChI=1S/C14H17N3O2/c1-11-5-3-6-12(2)14(11)17(13(19)9-18)10-16-8-4-7-15-16/h3-8,18H,9-10H2,1-2H3
Instrument: Q Exactive Plus Orbitrap Thermo Scientific
Instrument type: LC-ESI-QFT
Ms type: MS2
Ion mode: POSITIVE
Ionization: ESI
Fragmentation mode: HCD
Collision energy: 55% (nominal)
Resolution: 70000
Column name: Waters UPLC BEH C18 1.7 um 2.1 mm x 100 mm with pre-column
Retention time: 11.14 min
Precursor m/z: 260.1392
Precursor type: [M+H]+
m/z	relative intensity
50.0155	5
51.0233	10
53.039	56
55.0182	5
65.0387	19
67.0544	6
69.0448	5
71.0491	3
77.0386	50
79.0542	502
81.0335	6
88.0894	3
91.0542	262
93.0699	8
95.0492	149
102.0464	4
103.0542	313
105.0448	79
105.0699	999
106.0652	5
106.0777	75
107.0856	39
109.0647	10
117.0572	24
118.0652	80
119.0606	6
119.073	67
123.0804	18
132.081	19
133.0761	9
134.0965	402
