Mass spectrum: Dibucaine; LC-ESI-ITFT; MS2; CE: 125%; R=15000; [M+H]+
Name: Dibucaine
Name: 2-butoxy-N-[2-(diethylamino)ethyl]quinoline-4-carboxamide
Formula: C20H29N3O2
Exact mass: 343.2260
SMILES: CCCCOC1=NC2=CC=CC=C2C(=C1)C(=O)NCCN(CC)CC
InChI: InChI=1S/C20H29N3O2/c1-4-7-14-25-19-15-17(16-10-8-9-11-18(16)22-19)20(24)21-12-13-23(5-2)6-3/h8-11,15H,4-7,12-14H2,1-3H3,(H,21,24)
Instrument: LTQ Orbitrap XL Thermo Scientific
Instrument type: LC-ESI-ITFT
Ms type: MS2
Ion mode: POSITIVE
Ionization: ESI
Fragmentation mode: HCD
Collision energy: 125% (nominal)
Resolution: 15000
Column name: Kinetex Evo C18 2.6 um 50 x 2.1 mm
Retention time: 8.735 min
Base peak: 344.233
Precursor m/z: 344.2333
Precursor type: [M+H]+
m/z	relative intensity	assigned
72.0805	8	C4H10N+
74.0961	3	C4H12N+
89.0385	171	C7H5+
100.1121	2	C6H14N+
115.0541	4	C9H7+
116.0494	999	C8H6N+
117.0572	6	C8H7N+
128.0494	9	C9H6N+
130.065	7	C9H8N+
132.0444	2	C8H6NO+
134.0599	24	C8H8NO+
142.065	2	C10H8N+
143.0364	4	C9H5NO+
143.0604	2	C9H7N2+
143.0726	3	C10H9N+
144.0443	34	C9H6NO+
145.0519	9	C9H7NO+
146.0601	2	C9H8NO+
153.0447	16	C10H5N2+
154.0396	3	C9H4N3+
170.0599	2	C11H8NO+
171.0551	8	C10H7N2O+
172.0394	2	C10H6NO2+
