Mass spectrum: Amiloride; LC-ESI-ITFT; MS2; CE: 40%; R=15000; [M+H]+
Name: Amiloride
Name: 3,5-diamino-6-chloro-N-(diaminomethylidene)pyrazine-2-carboxamide
Formula: C6H8ClN7O
Exact mass: 229.0479
SMILES: C1(=C(N=C(C(=N1)Cl)N)N)C(=O)N=C(N)N
InChI: InChI=1S/C6H8ClN7O/c7-2-4(9)13-3(8)1(12-2)5(15)14-6(10)11/h(H4,8,9,13)(H4,10,11,14,15)
Instrument: LTQ Orbitrap XL Thermo Scientific
Instrument type: LC-ESI-ITFT
Ms type: MS2
Ion mode: POSITIVE
Ionization: ESI
Fragmentation mode: CID
Collision energy: 40% (nominal)
Resolution: 15000
Column name: Kinetex Evo C18 2.6 um 50 x 2.1 mm
Retention time: 0.776 min
Base peak: 230.0553
Precursor m/z: 230.0552
Precursor type: [M+H]+
m/z	relative intensity	assigned
69.0082	1	C2HN2O+
86.035	51	C2H4N3O+
116.0011	1	C3H3ClN3+
143.0121	6	C4H4ClN4+
145.0277	18	C4H6ClN4+
161.0224	2	C4H6ClN4O+
170.0232	8	C5H5ClN5+
171.0069	999	C5H4ClN4O+
188.0335	133	C5H7ClN5O+
189.0175	33	C5H6ClN4O2+
196.0022	5	C6H3ClN5O+
203.0336	2	C6H8ClN4O2+
213.0288	194	C6H6ClN6O+
230.0554	732	C6H9ClN7O+
