Mass spectrum: Dosulepin; LC-ESI-ITFT; MS2; CE: 145%; R=15000; [M+H]+
Name: Dosulepin
Name: Dothiepin
Name: 3-(6H-benzo[c][1]benzothiepin-11-ylidene)-N,N-dimethylpropan-1-amine
Formula: C19H21NS
Exact mass: 295.1395
SMILES: CN(C)CCC=C1C2=CC=CC=C2CSC3=CC=CC=C31
InChI: InChI=1S/C19H21NS/c1-20(2)13-7-11-17-16-9-4-3-8-15(16)14-21-19-12-6-5-10-18(17)19/h3-6,8-12H,7,13-14H2,1-2H3
Instrument: LTQ Orbitrap XL Thermo Scientific
Instrument type: LC-ESI-ITFT
Ms type: MS2
Ion mode: POSITIVE
Ionization: ESI
Fragmentation mode: HCD
Collision energy: 145% (nominal)
Resolution: 15000
Column name: Kinetex Evo C18 2.6 um 50 x 2.1 mm
Retention time: 8.177 min
Base peak: 296.1469
Precursor m/z: 296.1467
Precursor type: [M+H]+
m/z	relative intensity	assigned
58.0649	53	C3H8N+
65.0384	44	C5H5+
68.9791	6	C3HS+
77.0385	23	C6H5+
79.0542	10	C6H7+
89.0386	10	C7H5+
91.0542	246	C7H7+
102.0463	8	C8H6+
103.054	8	C8H7+
105.0445	28	C6H5N2+
115.0542	252	C9H7+
116.0623	12	C9H8+
117.07	7	C9H9+
121.0105	10	C7H5S+
128.0621	79	C10H8+
134.0185	13	C8H6S+
139.0541	22	C11H7+
141.0699	33	C11H9+
147.0263	20	C9H7S+
151.0541	12	C12H7+
152.062	89	C12H8+
155.0605	18	C10H7N2+
163.0548	11	C13H7+
164.0621	44	C13H8+
165.0698	217	C13H9+
169.065	11	C12H9O+
171.0263	8	C11H7S+
176.062	93	C14H8+
177.0697	65	C14H9+
178.0777	287	C14H10+
189.0698	191	C15H9+
190.0777	41	C15H10+
191.0854	51	C15H11+
200.0621	43	C16H8+
201.0698	91	C16H9+
202.0776	999	C16H10+
203.0853	29	C16H11+
208.034	50	C14H8S+
209.0424	7	C14H9S+
213.0694	19	C17H9+
215.0854	305	C17H11+
216.0931	25	C17H12+
217.1015	9	C17H13+
219.0267	10	C15H7S+
220.0342	38	C15H8S+
221.0418	464	C15H9S+
233.0421	19	C16H9S+
234.0497	107	C16H10S+
