Mass spectrum: Dixyrazine; LC-ESI-ITFT; MS2; CE: 160%; R=15000; [M+H]+
Name: Dixyrazine
Name: 2-[2-[4-(2-methyl-3-phenothiazin-10-ylpropyl)piperazin-1-yl]ethoxy]ethanol
Formula: C24H33N3O2S
Exact mass: 427.2293
SMILES: CC(CN1CCN(CC1)CCOCCO)CN2C3=CC=CC=C3SC4=CC=CC=C42
InChI: InChI=1S/C24H33N3O2S/c1-20(18-26-12-10-25(11-13-26)14-16-29-17-15-28)19-27-21-6-2-4-8-23(21)30-24-9-5-3-7-22(24)27/h2-9,20,28H,10-19H2,1H3
Instrument: LTQ Orbitrap XL Thermo Scientific
Instrument type: LC-ESI-ITFT
Ms type: MS2
Ion mode: POSITIVE
Ionization: ESI
Fragmentation mode: HCD
Collision energy: 160% (nominal)
Resolution: 15000
Column name: Kinetex Evo C18 2.6 um 50 x 2.1 mm
Retention time: 9.033 min
Base peak: 428.2362
Precursor m/z: 428.2366
Precursor type: [M+H]+
m/z	relative intensity	assigned
151.0543	234	C12H7+
152.062	999	C12H8+
180.0807	151	C13H10N+
