Mass spectrum: Dosulepin; LC-ESI-ITFT; MS2; CE: 40%; R=15000; [M+H]+
Name: Dosulepin
Name: Dothiepin
Name: 3-(6H-benzo[c][1]benzothiepin-11-ylidene)-N,N-dimethylpropan-1-amine
Formula: C19H21NS
Exact mass: 295.1395
SMILES: CN(C)CCC=C1C2=CC=CC=C2CSC3=CC=CC=C31
InChI: InChI=1S/C19H21NS/c1-20(2)13-7-11-17-16-9-4-3-8-15(16)14-21-19-12-6-5-10-18(17)19/h3-6,8-12H,7,13-14H2,1-2H3
Instrument: LTQ Orbitrap XL Thermo Scientific
Instrument type: LC-ESI-ITFT
Ms type: MS2
Ion mode: POSITIVE
Ionization: ESI
Fragmentation mode: CID
Collision energy: 40% (nominal)
Resolution: 15000
Column name: Kinetex Evo C18 2.6 um 50 x 2.1 mm
Retention time: 8.117 min
Base peak: 296.1468
Precursor m/z: 296.1467
Precursor type: [M+H]+
m/z	relative intensity	assigned
91.0543	13	C7H7+
115.0543	1	C9H7+
117.0699	9	C9H9+
123.0261	5	C7H7S+
135.0264	1	C8H7S+
141.0698	4	C11H9+
142.0774	3	C11H10+
147.0262	156	C9H7S+
173.042	10	C11H9S+
178.0785	1	C14H10+
186.1271	1	C13H16N+
191.0855	21	C15H11+
192.0931	1	C15H12+
205.1008	1	C16H13+
209.0419	44	C14H9S+
211.0575	2	C14H11S+
217.1012	24	C17H13+
218.109	76	C17H14+
221.042	2	C15H9S+
222.05	24	C15H10S+
223.0577	200	C15H11S+
225.0731	999	C15H13S+
236.0653	20	C16H12S+
249.0732	1	C17H13S+
251.0889	428	C17H15S+
253.1044	51	C17H17S+
265.1044	7	C18H17S+
296.1467	34	C19H22NS+
