Mass spectrum: Cyclizine; LC-ESI-ITFT; MS2; CE: 150%; R=15000; [M+H]+
Name: Cyclizine
Name: 1-benzhydryl-4-methylpiperazine
Formula: C18H22N2
Exact mass: 266.1783
SMILES: CN1CCN(CC1)C(C2=CC=CC=C2)C3=CC=CC=C3
InChI: InChI=1S/C18H22N2/c1-19-12-14-20(15-13-19)18(16-8-4-2-5-9-16)17-10-6-3-7-11-17/h2-11,18H,12-15H2,1H3
Instrument: LTQ Orbitrap XL Thermo Scientific
Instrument type: LC-ESI-ITFT
Ms type: MS2
Ion mode: POSITIVE
Ionization: ESI
Fragmentation mode: HCD
Collision energy: 150% (nominal)
Resolution: 15000
Column name: Kinetex Evo C18 2.6 um 50 x 2.1 mm
Retention time: 7.482 min
Base peak: 267.1856
Precursor m/z: 267.1856
Precursor type: [M+H]+
m/z	relative intensity	assigned
63.0228	6	C5H3+
65.0384	28	C5H5+
77.0386	4	C6H5+
78.0464	10	C6H6+
89.0386	15	C7H5+
91.0543	15	C7H7+
102.0464	33	C8H6+
115.0543	249	C9H7+
126.0465	36	C10H6+
127.0542	9	C10H7+
128.0621	186	C10H8+
139.0543	68	C11H7+
141.07	61	C11H9+
150.0464	26	C12H6+
151.0544	66	C12H7+
152.0621	584	C12H8+
155.0604	11	C10H7N2+
163.0544	36	C13H7+
164.0622	117	C13H8+
165.07	999	C13H9+
169.0649	31	C12H9O+
179.0604	38	C12H7N2+
