Mass spectrum: Mefruside; LC-ESI-QTOF; MS2; CE: 20 eV; R=3600; [M+H]+
Name: Mefruside
Name: 4-Chloro-N1-methyl-N1-[(2-methyloxolan-2-yl)methyl]benzene-1,3-disulfonamide
Formula: C13H19ClN2O5S2
Exact mass: 382.0424
SMILES: CN(CC1(C)CCCO1)S(=O)(=O)C1=CC=C(Cl)C(=C1)S(N)(=O)=O
InChI: InChI=1S/C13H19ClN2O5S2/c1-13(6-3-7-21-13)9-16(2)23(19,20)10-4-5-11(14)12(8-10)22(15,17)18/h4-5,8H,3,6-7,9H2,1-2H3,(H2,15,17,18)
Instrument: 6613 QTOF Agilent
Instrument type: LC-ESI-QTOF
Ms type: MS2
Ion mode: POSITIVE
Ionization: ESI
Fragmentation mode: CID
Collision energy: 20 eV
Resolution: 3600
Precursor m/z: 383.0497
Precursor type: [M+H]+
m/z	relative intensity
57.0333	239
69.0705	52
79.0539	197
81.0686	999
84.0801	852
86.0593	125
96.0795	68
99.0797	355
128.1048	102
129.1143	420
142.0035	76
142.9873	189
172.9427	52
189.9686	342
203.9852	54
253.93	273
267.9431	138
284.9733	291
296.9704	67
