Mass spectrum: Lateropyrone; LC-ESI-ITFT; MS2; CE: 60%; R=7500; [M-H]-
Name: Lateropyrone
Name: methyl 5,9-dihydroxy-2-methyl-4,6-dioxopyrano[3,4-g]chromene-8-carboxylate
Formula: C15H10O8
Exact mass: 318.03757
SMILES: CC1=CC(=O)C2=C(O1)C=C3C(=C2O)C(=O)OC(=C3O)C(=O)OC
InChI: InChI=1S/C15H10O8/c1-5-3-7(16)10-8(22-5)4-6-9(12(10)18)14(19)23-13(11(6)17)15(20)21-2/h3-4,17-18H,1-2H3
Instrument: LTQ Orbitrap XL Thermo Scientific
Instrument type: LC-ESI-ITFT
Ms type: MS2
Ion mode: NEGATIVE
Ionization: ESI
Fragmentation mode: HCD
Collision energy: 60 % (nominal)
Resolution: 7500
Column name: Hypersil GOLD C18 1.9 um 100 x 2.1 mm Thermo Fisher Scientific
Retention time: 17.656 min
Base peak: 317.0313
Precursor m/z: 317.0303
Precursor type: [M-H]-
Precursor intensity: 24883713.17725
m/z	relative intensity	assigned
173.0249	49	C10H5O3-
185.0249	19	C11H5O3-
201.0199	36	C11H5O4-
214.0277	61	C12H6O4-
229.0148	94	C12H5O5-
230.0222	2	C12H6O5-
241.0148	81	C13H5O5-
246.0175	10	C12H6O6-
257.0098	38	C13H5O6-
258.0174	227	C13H6O6-
273.0411	27	C14H9O6-
285.0046	999	C14H5O7-
289.0359	9	C14H9O7-
317.0309	227	C15H9O8-
