Mass spectrum: Equisetin; LC-ESI-ITFT; MS2; CE: 40%; R=7500; [M+H]+
Name: Equisetin
Name: 3-[(1,6-dimethyl-2-prop-1-enyl-4a,5,6,7,8,8a-hexahydro-2H-naphthalen-1-yl)-hydroxymethylidene]-5-(hydroxymethyl)-1-methylpyrrolidine-2,4-dione
Formula: C22H31NO4
Exact mass: 373.2253
SMILES: CC=CC1C=CC2CC(CCC2C1(C)C(=C3C(=O)C(N(C3=O)C)CO)O)C
InChI: InChI=1S/C22H31NO4/c1-5-6-15-9-8-14-11-13(2)7-10-16(14)22(15,3)20(26)18-19(25)17(12-24)23(4)21(18)27/h5-6,8-9,13-17,24,26H,7,10-12H2,1-4H3
Instrument: LTQ Orbitrap XL Thermo Scientific
Instrument type: LC-ESI-ITFT
Ms type: MS2
Ion mode: POSITIVE
Ionization: ESI
Fragmentation mode: HCD
Collision energy: 40 % (nominal)
Resolution: 7500
Column name: Hypersil GOLD C18 1.9 um 100 x 2.1 mm Thermo Fisher Scientific
Retention time: 27.742 min
Base peak: 374.2333
Precursor m/z: 374.2326
Precursor type: [M+H]+
Precursor intensity: 11793795.11377
m/z	relative intensity	assigned
81.0698	58	C6H9+
83.0852	14	C6H11+
93.0697	7	C7H9+
95.0857	25	C7H11+
105.0699	52	C8H9+
107.0857	22	C8H11+
109.1013	13	C8H13+
119.0856	103	C9H11+
121.1011	14	C9H13+
123.1171	9	C9H15+
126.0552	27	C6H8NO2+
133.1011	62	C10H13+
135.1171	36	C10H15+
140.0343	23	C6H6NO3+
142.05	6	C6H8NO3+
144.0657	105	C6H10NO3+
145.1012	12	C11H13+
147.117	76	C11H15+
149.1325	47	C11H17+
152.0345	45	C7H6NO3+
152.0708	33	C8H10NO2+
156.0655	48	C7H10NO3+
157.101	12	C12H13+
159.1169	10	C12H15+
161.1318	11	C12H17+
163.1483	44	C12H19+
170.0449	286	C7H8NO4+
170.0813	369	C8H12NO3+
173.1324	30	C13H17+
175.1482	999	C13H19+
177.164	72	C13H21+
182.0815	43	C9H12NO3+
184.0969	118	C9H14NO3+
186.0762	19	C8H12NO4+
187.148	26	C14H19+
189.1638	81	C14H21+
196.0966	12	C10H14NO3+
198.0761	15	C9H12NO4+
198.1129	7	C10H16NO3+
200.0919	108	C9H14NO4+
201.1642	10	C15H21+
203.1797	50	C15H23+
205.195	119	C15H25+
210.112	12	C11H16NO3+
212.0916	10	C10H14NO4+
213.1637	39	C16H21+
224.1282	5	C12H18NO3+
231.1733	26	C16H23O+
238.1075	12	C12H16NO4+
288.1593	21	C17H22NO3+
294.1704	10	C16H24NO4+
300.1597	15	C18H22NO3+
302.1744	37	C18H24NO3+
326.2121	13	C21H28NO2+
346.2382	48	C21H32NO3+
356.222	138	C22H30NO3+
374.2332	61	C22H32NO4+
