Mass spectrum: Sulfamethoxazole; LC-ESI-ITFT; MS2; CE: 80%; R=7500; [M+H]+
Name: Sulfamethoxazole
Name: 4-Amino-N-(5-methyl-1,2-oxazol-3-yl)benzene-1-sulfonamide
Formula: C10H11N3O3S
Exact mass: 253.0521
SMILES: CC1=CC(NS(=O)(=O)C2=CC=C(N)C=C2)=NO1
InChI: InChI=1S/C10H11N3O3S/c1-7-6-10(12-16-7)13-17(14,15)9-4-2-8(11)3-5-9/h2-6H,11H2,1H3,(H,12,13)
Instrument: LTQ Orbitrap XL Thermo Fisher Scientific
Instrument type: LC-ESI-ITFT
Ms type: MS2
Ion mode: POSITIVE
Ionization: ESI
Fragmentation mode: HCD
Collision energy: 80% (nominal)
Resolution: 7500
Column name: Hypersil GOLD C18 1.9 um 100 x 2.1 mm Thermo Fisher Scientific
Precursor m/z: 254.0594
Precursor type: [M+H]+
m/z	relative intensity
65.0384	153
72.0442	6
80.0494	38
92.0494	999
93.0571	175
94.065	8
99.0553	132
107.0606	27
108.0445	878
110.06	108
119.0607	5
120.0556	16
131.0602	5
132.0681	5
133.0634	3
143.0605	6
146.0713	38
147.0792	42
148.0871	3
156.0115	44
160.0869	42
161.0019	4
173.0579	3
