Mass spectrum: Cyclopenin; LC-ESI-ITFT; MS2; CE: 60%; R=7500; [M-H]-
Name: Cyclopenin
Name: 4-methyl-3`-phenylspiro[1H-1,4-benzodiazepine-3,2`-oxirane]-2,5-dione
Formula: C17H14N2O3
Exact mass: 294.10044
SMILES: CN1C(=O)C2=CC=CC=C2NC(=O)C13C(O3)C4=CC=CC=C4
InChI: InChI=1S/C17H14N2O3/c1-19-15(20)12-9-5-6-10-13(12)18-16(21)17(19)14(22-17)11-7-3-2-4-8-11/h2-10,14H,1H3,(H,18,21)
Instrument: LTQ Orbitrap XL Thermo Scientific
Instrument type: LC-ESI-ITFT
Ms type: MS2
Ion mode: NEGATIVE
Ionization: ESI
Fragmentation mode: HCD
Collision energy: 60 % (nominal)
Resolution: 7500
Column name: Hypersil GOLD C18 1.9 um 100 x 2.1 mm Thermo Fisher Scientific
Retention time: 15.052 min
Base peak: 293.0936
Precursor m/z: 293.0932
Precursor type: [M-H]-
Precursor intensity: 21192973.17993
m/z	relative intensity	assigned
77.0398	2	C6H5-
92.0507	7	C6H6N-
102.035	140	C7H4N-
104.0505	1	C7H6N-
121.0297	41	C7H5O2-
131.0617	13	C8H7N2-
132.0459	3	C8H6NO-
146.061	2	C9H8NO-
149.0722	20	C8H9N2O-
159.0565	999	C9H7N2O-
175.0514	66	C9H7N2O2-
177.0671	22	C9H9N2O2-
187.0515	28	C10H7N2O2-
188.0592	1	C10H8N2O2-
192.0823	3	C14H10N-
207.0691	23	C14H9NO-
208.0768	101	C14H10NO-
215.0458	1	C11H7N2O3-
222.0924	27	C15H12NO-
234.08	9	C15H10N2O-
235.0638	29	C15H9NO2-
236.0719	32	C15H10NO2-
249.1029	2	C16H13N2O-
250.0875	38	C16H12NO2-
293.0929	6	C17H13N2O3-
