Mass spectrum: Cyclizine; LC-ESI-ITFT; MS2; CE: 110%; R=15000; [M+H]+
Name: Cyclizine
Name: 1-benzhydryl-4-methylpiperazine
Formula: C18H22N2
Exact mass: 266.1783
SMILES: CN1CCN(CC1)C(C2=CC=CC=C2)C3=CC=CC=C3
InChI: InChI=1S/C18H22N2/c1-19-12-14-20(15-13-19)18(16-8-4-2-5-9-16)17-10-6-3-7-11-17/h2-11,18H,12-15H2,1H3
Instrument: LTQ Orbitrap XL Thermo Scientific
Instrument type: LC-ESI-ITFT
Ms type: MS2
Ion mode: POSITIVE
Ionization: ESI
Fragmentation mode: HCD
Collision energy: 110% (nominal)
Resolution: 15000
Column name: Kinetex Evo C18 2.6 um 50 x 2.1 mm
Retention time: 7.485 min
Base peak: 267.1856
Precursor m/z: 267.1856
Precursor type: [M+H]+
m/z	relative intensity	assigned
65.0384	5	C5H5+
70.0649	2	C4H8N+
91.054	2	C7H7+
115.0542	37	C9H7+
128.0621	99	C10H8+
139.0547	4	C11H7+
141.0699	88	C11H9+
151.0544	31	C12H7+
152.0621	888	C12H8+
155.0609	4	C10H7N2+
164.0621	9	C13H8+
165.0699	999	C13H9+
166.0777	234	C13H10+
167.0854	109	C13H11+
169.0648	18	C12H9O+
179.0605	24	C12H7N2+
