Mass spectrum: Dehydrocyclopeptine; LC-ESI-ITFT; MS2; CE: 50%; R=7500; [M-H]-
Name: Dehydrocyclopeptine
Name: 1H-1,4-Benzodiazepine-2,5-dione, 3-benzylidene-3,4-dihydro-4-methyl-
Name: 3-benzylidene-4-methyl-1H-1,4-benzodiazepine-2,5-dione
Formula: C17H14N2O2
Exact mass: 278.1055
SMILES: CN1C(=CC2=CC=CC=C2)C(=O)NC3=CC=CC=C3C1=O
InChI: InChI=1S/C17H14N2O2/c1-19-15(11-12-7-3-2-4-8-12)16(20)18-14-10-6-5-9-13(14)17(19)21/h2-11H,1H3,(H,18,20)
Instrument: LTQ Orbitrap XL Thermo Scientific
Instrument type: LC-ESI-ITFT
Ms type: MS2
Ion mode: NEGATIVE
Ionization: ESI
Fragmentation mode: HCD
Collision energy: 50 % (nominal)
Resolution: 7500
Column name: Hypersil GOLD C18 1.9 um 100 x 2.1 mm Thermo Fisher Scientific
Retention time: 17.725 min
Base peak: 277.0986
Precursor m/z: 277.0983
Precursor type: [M-H]-
Precursor intensity: 3261980.718262
m/z	relative intensity	assigned
220.077	4	C15H10NO-
277.0982	999	C17H13N2O2-
