Mass spectrum: Malformin A1; LC-ESI-ITFT; MS2; CE: 60%; R=7500; [M+H]+
Name: Malformin A1
Name: Malformin A
Name: 4-butan-2-yl-7-(2-methylpropyl)-10-propan-2-yl-15,16-dithia-2,5,8,11,19-pentazabicyclo[11.4.2]nonadecane-3,6,9,12,18-pentone
Formula: C23H39N5O5S2
Exact mass: 529.2393
SMILES: CCC(C)C1C(=O)NC2CSSCC(C(=O)NC(C(=O)NC(C(=O)N1)CC(C)C)C(C)C)NC2=O
InChI: InChI=1S/C23H39N5O5S2/c1-7-13(6)18-23(33)26-15-9-34-35-10-16(25-20(15)30)21(31)27-17(12(4)5)22(32)24-14(8-11(2)3)19(29)28-18/h11-18H,7-10H2,1-6H3,(H,24,32)(H,25,30)(H,26,33)(H,27,31)(H,28,29)
Instrument: LTQ Orbitrap XL Thermo Scientific
Instrument type: LC-ESI-ITFT
Ms type: MS2
Ion mode: POSITIVE
Ionization: ESI
Fragmentation mode: HCD
Collision energy: 60 % (nominal)
Resolution: 7500
Column name: Hypersil GOLD C18 1.9 um 100 x 2.1 mm Thermo Fisher Scientific
Retention time: 21.536 min
Base peak: 530.2473
Precursor m/z: 530.2465
Precursor type: [M+H]+
Precursor intensity: 8766828.852051
m/z	relative intensity	assigned
69.0698	39	C5H9+
72.0808	337	C4H10N+
72.2809	80	C3H36+
86.0964	750	C5H12N+
131.9935	122	C4H6NS2+
140.1429	49	C9H18N+
175.0902	69	C7H15N2OS+
183.112	46	C9H15N2O2+
185.1642	50	C10H21N2O+
190.1762	23	C5H24N3O4+
205.0098	104	C6H9N2O2S2+
231.0621	999	C3H13N5O5S+
332.1321	26	C13H24N4O2S2+
