Mass spectrum: Dixyrazine ; LC-ESI-ITFT; MS2; CE: 45%; R=7500; [M+H]+
Name: Dixyrazine
Name: 2-(2-{4-[2-Methyl-3-(10H-phenothiazin-10-yl)propyl]piperazin-1-yl}ethoxy)ethan-1-ol
Formula: C24H33N3O2S
Exact mass: 427.2293
SMILES: CC(CN1CCN(CCOCCO)CC1)CN1C2=CC=CC=C2SC2=CC=CC=C12
InChI: InChI=1S/C24H33N3O2S/c1-20(18-26-12-10-25(11-13-26)14-16-29-17-15-28)19-27-21-6-2-4-8-23(21)30-24-9-5-3-7-22(24)27/h2-9,20,28H,10-19H2,1H3
Instrument: LTQ Orbitrap XL Thermo Fisher Scientific
Instrument type: LC-ESI-ITFT
Ms type: MS2
Ion mode: POSITIVE
Ionization: ESI
Fragmentation mode: HCD
Collision energy: 45% (nominal)
Resolution: 7500
Column name: Hypersil GOLD C18 1.9 um 100 x 2.1 mm Thermo Fisher Scientific
Precursor m/z: 428.2367
Precursor type: [M+H]+
m/z	relative intensity
57.1129	2
57.1257	1
57.1391	2
70.065	10
82.065	2
87.044	16
97.076	22
98.0839	106
99.0917	11
100.1123	2
101.1074	191
110.0837	2
112.1121	6
113.1075	2
118.0863	6
125.1073	64
127.123	2
132.1018	3
139.1229	1
140.1307	18
144.102	20
155.1544	10
172.1207	51
180.0809	16
187.1442	715
198.0376	2
199.0449	7
212.053	262
220.112	1
221.1201	8
229.1915	999
254.1002	46
428.2367	67
