Mass spectrum: Malformin A1; LC-ESI-ITFT; MS2; CE: 50%; R=7500; [M-H]-
Name: Malformin A1
Name: Malformin A
Name: 4-butan-2-yl-7-(2-methylpropyl)-10-propan-2-yl-15,16-dithia-2,5,8,11,19-pentazabicyclo[11.4.2]nonadecane-3,6,9,12,18-pentone
Formula: C23H39N5O5S2
Exact mass: 529.23926
SMILES: CCC(C)C1C(=O)NC2CSSCC(C(=O)NC(C(=O)NC(C(=O)N1)CC(C)C)C(C)C)NC2=O
InChI: InChI=1S/C23H39N5O5S2/c1-7-13(6)18-23(33)26-15-9-34-35-10-16(25-20(15)30)21(31)27-17(12(4)5)22(32)24-14(8-11(2)3)19(29)28-18/h11-18H,7-10H2,1-6H3,(H,24,32)(H,25,30)(H,26,33)(H,27,31)(H,28,29)
Instrument: LTQ Orbitrap XL Thermo Scientific
Instrument type: LC-ESI-ITFT
Ms type: MS2
Ion mode: NEGATIVE
Ionization: ESI
Fragmentation mode: HCD
Collision energy: 50 % (nominal)
Resolution: 7500
Column name: Hypersil GOLD C18 1.9 um 100 x 2.1 mm Thermo Fisher Scientific
Retention time: 21.516 min
Base peak: 588.2532
Precursor m/z: 528.232
Precursor type: [M-H]-
Precursor intensity: 8388116.305176
m/z	relative intensity	assigned
55.9905	13	C2O2-
71.9791	14	CN2S-
72.0041	14	C3H4S-
72.0217	10	C3H4O2-
90.9683	17	C2H3S2-
97.0409	50	C4H5N2O-
100.0228	157	C4H6NS-
109.0409	169	C5H5N2O-
111.0565	48	C5H7N2O-
126.0022	167	C5H4NOS-
128.0175	17	C5H6NOS-
139.0516	35	C6H7N2O2-
139.0876	27	C7H11N2O-
141.0671	999	C6H9N2O2-
143.0286	357	C5H7N2OS-
155.0826	91	C7H11N2O2-
165.1039	12	C3H19NO4S-
167.0829	38	C8H11N2O2-
181.0985	95	C9H13N2O2-
184.1101	9	C2H20N2O5S-
185.0757	68	C8H13N2OS-
191.0828	35	C10H11N2O2-
193.0991	19	C10H13N2O2-
201.0137	16	C4H11NO4S2-
205.0981	26	C11H13N2O2-
207.1502	9	C12H19N2O-
208.1094	74	C10H14N3O2-
210.0884	100	C9H12N3O3-
212.1041	40	C9H14N3O3-
233.1661	91	C14H21N2O-
239.0847	8	C3H19N4O4S2-
239.1141	9	C8H21N3OS2-
251.1143	35	C11H15N4O3-
253.1306	63	C11H17N4O3-
254.1511	45	C12H20N3O3-
285.101	18	C16H15NO4-
306.2176	34	C9H32N5O4S-
350.2088	38	C18H28N3O4-
367.2358	579	C20H33NO5-
417.2496	27	C22H33N4O4-
419.2323	34	C22H35N4S2-
425.2248	41	C20H33N4O4S-
436.2578	37	C18H38N5O5S-
451.239	481	C22H35N4O4S-
460.2571	299	C23H34N5O5-
462.2725	225	C23H36N5O5-
476.237	20	C20H38N5O4S2-
494.2453	338	C23H36N5O5S-
528.2315	90	C23H38N5O5S2-
