Mass spectrum: Terbuthylazine-OH (TENTATIVE); LC-ESI-QFT; MS2; CE: 30%; R=70000; [M+H]+
Name: Terbuthylazine-OH
Formula: C9H16ClN5O
Exact mass: 245.1042
SMILES: C(*)C(*)NC1=NC(=NC(=N1)Cl)NC(C)(C)C(*) *=[OH (n=1) & H (n=2)]
Instrument: Q Exactive Plus Orbitrap Thermo Scientific
Instrument type: LC-ESI-QFT
Ms type: MS2
Ion mode: POSITIVE
Ionization: ESI
Fragmentation mode: HCD
Collision energy: 30% (nominal)
Resolution: 70000
Column name: Waters UPLC BEH C18 1.7 um 2.1 mm x 100 mm with pre-column
Retention time: 13.42 min
Precursor m/z: 246.112
Precursor type: [M+H]+
m/z	relative intensity
55.0546	9
57.0701	97
61.9796	9
67.0543	15
68.0244	126
69.0448	49
69.0699	9
79.0058	368
81.0699	34
93.07	10
94.04	94
95.0857	14
104.001	228
105.0215	135
105.0698	14
110.0461	95
128.0567	20
130.0168	59
136.0617	16
145.0276	12
146.0228	999
169.0025	12
172.0384	724
173.0431	21
174.0543	17
