Mass spectrum: Dosulepin; LC-ESI-ITFT; MS2; CE: 105%; R=15000; [M+H]+
Name: Dosulepin
Name: Dothiepin
Name: 3-(6H-benzo[c][1]benzothiepin-11-ylidene)-N,N-dimethylpropan-1-amine
Formula: C19H21NS
Exact mass: 295.1395
SMILES: CN(C)CCC=C1C2=CC=CC=C2CSC3=CC=CC=C31
InChI: InChI=1S/C19H21NS/c1-20(2)13-7-11-17-16-9-4-3-8-15(16)14-21-19-12-6-5-10-18(17)19/h3-6,8-12H,7,13-14H2,1-2H3
Instrument: LTQ Orbitrap XL Thermo Scientific
Instrument type: LC-ESI-ITFT
Ms type: MS2
Ion mode: POSITIVE
Ionization: ESI
Fragmentation mode: HCD
Collision energy: 105% (nominal)
Resolution: 15000
Column name: Kinetex Evo C18 2.6 um 50 x 2.1 mm
Retention time: 8.162 min
Base peak: 296.1467
Precursor m/z: 296.1467
Precursor type: [M+H]+
m/z	relative intensity	assigned
58.0649	124	C3H8N+
65.0384	8	C5H5+
70.0651	11	C4H8N+
79.0541	13	C6H7+
84.0806	17	C5H10N+
91.0542	390	C7H7+
103.0543	20	C8H7+
105.0445	9	C6H5N2+
115.0542	339	C9H7+
116.0618	14	C9H8+
117.0698	153	C9H9+
121.0109	12	C7H5S+
123.0262	42	C7H7S+
128.062	62	C10H8+
129.0698	54	C10H9+
135.0263	18	C8H7S+
141.0698	94	C11H9+
142.0779	9	C11H10+
147.0263	107	C9H7S+
152.0625	8	C12H8+
155.0603	12	C10H7N2+
165.0699	302	C13H9+
171.0265	7	C11H7S+
173.0417	11	C11H9S+
178.0777	629	C14H10+
179.0855	86	C14H11+
184.0337	8	C12H8S+
189.0701	70	C15H9+
190.0778	53	C15H10+
191.0855	259	C15H11+
192.0933	43	C15H12+
197.0417	15	C13H9S+
201.0698	8	C16H9+
202.0778	999	C16H10+
203.0855	603	C16H11+
204.0939	13	C16H12+
208.0342	78	C14H8S+
209.0422	46	C14H9S+
210.0497	132	C14H10S+
215.0855	201	C17H11+
216.0935	90	C17H12+
217.1012	348	C17H13+
218.1089	19	C17H14+
221.0419	846	C15H9S+
222.0497	87	C15H10S+
223.0575	42	C15H11S+
229.0752	7	C16H9N2+
234.0498	136	C16H10S+
235.0575	147	C16H11S+
236.0655	8	C16H12S+
