Mass spectrum: Eremofortin A; LC-ESI-ITFT; MS2; CE: 40%; R=7500; [M+H]+
Name: Eremofortin A
Name: (3,3`,3`,3a-tetramethyl-6-oxospiro[2,3,4,7b-tetrahydro-1aH-naphtho[1,2-b]oxirene-5,2`-oxirane]-2-yl) acetate
Formula: C17H22O5
Exact mass: 306.1467
SMILES: CC1C(C2C(O2)C3=CC(=O)C4(CC13C)C(O4)(C)C)OC(=O)C
InChI: InChI=1S/C17H22O5/c1-8-12(20-9(2)18)14-13(21-14)10-6-11(19)17(7-16(8,10)5)15(3,4)22-17/h6,8,12-14H,7H2,1-5H3
Instrument: LTQ Orbitrap XL Thermo Scientific
Instrument type: LC-ESI-ITFT
Ms type: MS2
Ion mode: POSITIVE
Ionization: ESI
Fragmentation mode: HCD
Collision energy: 40 % (nominal)
Resolution: 7500
Column name: Hypersil GOLD C18 1.9 um 100 x 2.1 mm Thermo Fisher Scientific
Retention time: 15.832 min
Base peak: 307.1542
Precursor m/z: 307.154
Precursor type: [M+H]+
Precursor intensity: 10341978.54785
m/z	relative intensity	assigned
119.0856	16	C9H11+
121.0645	10	C8H9O+
131.0853	18	C10H11+
133.1014	14	C10H13+
135.0801	49	C9H11O+
145.1014	13	C11H13+
147.0811	12	C10H11O+
149.0964	57	C10H13O+
151.0759	26	C9H11O2+
151.1112	13	C10H15O+
159.0805	47	C11H11O+
159.1162	47	C12H15+
161.096	152	C11H13O+
163.075	43	C10H11O2+
163.1125	11	C11H15O+
173.1325	80	C13H17+
175.1111	32	C12H15O+
177.0908	999	C11H13O2+
186.1047	22	C13H14O+
187.1117	148	C13H15O+
189.0911	66	C12H13O2+
191.1428	91	C13H19O+
195.1012	24	C11H15O3+
201.1272	328	C14H17O+
203.1424	19	C14H19O+
205.1222	272	C13H17O2+
211.112	21	C15H15O+
219.1379	173	C14H19O2+
222.1249	17	C13H18O3+
229.122	266	C15H17O2+
247.1328	502	C15H19O3+
265.143	593	C15H21O4+
289.1435	14	C17H21O4+
307.1528	31	C17H23O5+
