Mass spectrum: Sulfamoxole; ESI-QTOF; MS2; CE: 15eV; R=15000; [M+H]+
Name: Sulfamoxole
Name: 4-Amino-N-(4,5-dimethyl-1,3-oxazol-2-yl)benzene-1-sulfonamide
Formula: C11H13N3O3S
Exact mass: 267.0678
SMILES: CC1=C(C)N=C(NS(=O)(=O)C2=CC=C(N)C=C2)O1
InChI: InChI=1S/C11H13N3O3S/c1-7-8(2)17-11(13-7)14-18(15,16)10-5-3-9(12)4-6-10/h3-6H,12H2,1-2H3,(H,13,14)
Instrument: TripleTOF 5600+SCIEX
Instrument type: ESI-QTOF
Ms type: MS2
Ion mode: POSITIVE
Ionization: ESI
Fragmentation mode: CID
Collision energy: 15 eV
Resolution: 15000
Precursor m/z: 268.0751
Precursor type: [M+H]+
m/z	relative intensity
65.0408	1
70.067	1
92.0507	11
108.0452	29
111.0561	5
112.0639	10
113.0718	61
140.017	31
156.012	247
158.0276	4
175.0177	3
227.0359	1
268.0751	999
