Mass spectrum: Sulochrin; LC-ESI-ITFT; MS2; CE: 30%; R=7500; [M-H]-
Name: Sulochrin
Name: methyl 2-(2,6-dihydroxy-4-methylbenzoyl)-5-hydroxy-3-methoxybenzoate
Formula: C17H16O7
Exact mass: 332.08960
SMILES: CC1=CC(=C(C(=C1)O)C(=O)C2=C(C=C(C=C2OC)O)C(=O)OC)O
InChI: InChI=1S/C17H16O7/c1-8-4-11(19)15(12(20)5-8)16(21)14-10(17(22)24-3)6-9(18)7-13(14)23-2/h4-7,18-20H,1-3H3
Instrument: LTQ Orbitrap XL Thermo Scientific
Instrument type: LC-ESI-ITFT
Ms type: MS2
Ion mode: NEGATIVE
Ionization: ESI
Fragmentation mode: HCD
Collision energy: 30 % (nominal)
Resolution: 7500
Column name: Hypersil GOLD C18 1.9 um 100 x 2.1 mm Thermo Fisher Scientific
Retention time: 15.111 min
Base peak: 663.1739
Precursor m/z: 331.0823
Precursor type: [M-H]-
Precursor intensity: 25902506.92627
m/z	relative intensity	assigned
105.0348	76	C7H5O-
149.0246	810	C8H5O3-
167.0347	3	C8H7O4-
181.0508	43	C9H9O4-
299.0561	781	C16H11O6-
301.0714	5	C16H13O6-
331.0827	999	C17H15O7-
