Mass spectrum: Phenazone; LC-ESI-QFT; MS2; CE: 20%; R=30000; [M+H]+
Name: Phenazone
Name: 1,5-Dimethyl-2-phenyl-1,2-dihydro-3H-pyrazol-3-one
Formula: C11H12N2O
Exact mass: 188.095
SMILES: CN1N(C(=O)C=C1C)C1=CC=CC=C1
InChI: InChI=1S/C11H12N2O/c1-9-8-11(14)13(12(9)2)10-6-4-3-5-7-10/h3-8H,1-2H3
Instrument: Orbitrap Fusion Tribrid Thermo Fisher Scientific
Instrument type: LC-ESI-QFT
Ms type: MS2
Ion mode: POSITIVE
Ionization: ESI
Fragmentation mode: HCD
Collision energy: 20% (nominal)
Resolution: 30000
Precursor m/z: 189.1023
Precursor type: [M+H]+
m/z	relative intensity
55.0544	2
56.0497	31
58.0653	27
70.0653	2
77.0389	1
91.0544	4
96.0684	9
98.0603	2
103.0545	1
104.0496	10
105.0702	1
106.0653	4
117.0701	2
118.0653	9
120.0809	8
130.0653	9
131.0731	16
132.0808	8
133.0525	1
144.0809	15
145.065	4
146.0839	14
147.0918	22
161.1075	26
174.079	8
189.1023	999
