Mass spectrum: Communesin A; LC-ESI-ITFT; MS2; CE: 20%; R=7500; [M+H]+
Name: Communesin A
Name: 1-Acetyl-17-(3,3-dimethyloxiranyl)-1,2,3,8a,9,14,15,16a-octahydro-9-methyl-13,16-methano-8H,16H-pyrrolo[2`,3`:2,3]pyrido[4,3-o]quinindoline
Name: 1-[25-(3,3-dimethyloxiran-2-yl)-15-methyl-1,3,13,15-tetrazaheptacyclo[18.4.1.02,6.06,22.07,12.014,22.016,21]pentacosa-7,9,11,16,18,20-hexaen-3-yl]ethanone
Formula: C28H32N4O2
Exact mass: 456.2525
SMILES: CC(=O)N1CCC23C1N4CCC25C(NC6=CC=CC=C36)N(C7=CC=CC(=C57)C4C8C(O8)(C)C)C
InChI: InChI=1S/C28H32N4O2/c1-16(33)31-14-12-27-18-9-5-6-10-19(18)29-24-28(27)13-15-32(25(27)31)22(23-26(2,3)34-23)17-8-7-11-20(21(17)28)30(24)4/h5-11,22-25,29H,12-15H2,1-4H3
Instrument: LTQ Orbitrap XL Thermo Scientific
Instrument type: LC-ESI-ITFT
Ms type: MS2
Ion mode: POSITIVE
Ionization: ESI
Fragmentation mode: HCD
Collision energy: 20 % (nominal)
Resolution: 7500
Column name: Hypersil GOLD C18 1.9 um 100 x 2.1 mm Thermo Fisher Scientific
Retention time: 20.195 min
Base peak: 457.2602
Precursor m/z: 457.2598
Precursor type: [M+H]+
Precursor intensity: 16459757.2627
m/z	relative intensity	assigned
185.1074	55	C12H13N2+
186.1107	7	C7H14N4O2+
257.1654	4	C16H21N2O+
385.2027	171	C24H25N4O+
399.2179	19	C25H27N4O+
457.2599	999	C28H33N4O2+
