Mass spectrum: Metoclopramide; LC-ESI-QFT; MS2; CE: CE60; R=17500; [M+H]+
Name: Metoclopramide
Name: 4-amino-5-chloro-N-[2-(diethylamino)ethyl]-2-methoxybenzamide
Formula: C14H22ClN3O2
Exact mass: 299.1401
SMILES: CCN(CC)CCNC(=O)C1=CC(Cl)=C(N)C=C1OC
InChI: InChI=1S/C14H22ClN3O2/c1-4-18(5-2)7-6-17-14(19)10-8-11(15)12(16)9-13(10)20-3/h8-9H,4-7,16H2,1-3H3,(H,17,19)
Instrument: Q Exactive Thermo Fisher Scientific
Instrument type: LC-ESI-QFT
Ms type: MS2
Ion mode: POSITIVE
Ionization: ESI
Fragmentation mode: HCD
Collision energy: CE60
Resolution: 17500
Column name: Acquity UPLC BEH C18 1.7 um, 2.1 x 150 mm, Waters
Retention time: 14.388 min
Base peak: 223.0628
Precursor m/z: 300.1473
Precursor type: [M+H]+
m/z	relative intensity	assigned
52.0186	11	C3H2N+
54.0343	142	C3H4N+
61.9925	5	C2H3Cl+
63.0234	121	C5H3+
64.0184	4	C4H2N+
65.0387	47	C5H5+
66.0463	8	C5H6+
68.0134	4	ClH5N2+
72.081	12	C4H10N+
72.984	15	C3H2Cl+
75.0226	4	C6H3+
75.0435	5	C3H7O2+
78.0341	239	C5H4N+
80.013	4	C4H2NO+
80.0497	31	C5H6N+
81.0337	79	C5H5O+
82.0289	215	C4H4NO+
87.995	88	C3H3ClN+
88.9788	4	C3H2ClO+
90.0108	17	C3H5ClN+
90.0336	207	C6H4N+
91.0419	16	C6H5N+
92.0498	28	C6H6N+
92.0615	9	C7H8+
93.0578	174	C6H7N+
96.0441	7	C5H6NO+
98.9992	102	C5H4Cl+
99.0318	7	CH8ClN2O+
100.112	5	C6H14N+
101.015	12	C5H6Cl+
102.0105	11	C4H5ClN+
105.0449	67	C6H5N2+
108.0439	183	C6H6NO+
110.9999	7	C6H4Cl+
113.0024	48	C8HO+
114.0108	14	C5H5ClN+
115.9902	49	C4H3ClNO+
118.0057	5	C4H5ClNO+
119.0598	22	C7H7N2+
120.0444	43	C7H6NO+
120.068	4	C7H8N2+
121.0525	7	C4H10ClN2+
124.0391	24	C6H6NO2+
126.011	63	C6H5ClN+
127.0177	25	C9H3O+
127.9892	21	C8O2+
128.0263	81	C6H7ClN+
129.0103	76	C6H6ClO+
138.9944	6	C7H4ClO+
140.0136	59	C6H5ClN2+
140.9979	999	C6H4ClNO+
142.0054	10	C6H5ClNO+
144.0205	107	C9H4O2+
144.9926	29	C5H4ClNO2+
147.0548	15	C8H7N2O+
148.0633	78	C8H8N2O+
153.021	5	C10H3NO+
156.02	101	C10H4O2+
168.993	6	C7H4ClNO2+
169.9999	76	C7H5ClNO2+
170.0356	8	C11H6O2+
172.0151	6	C7H7ClNO2+
181.0167	27	C8H6ClN2O+
182.0236	28	C11H4NO2+
183.0321	42	C8H8ClN2O+
184.0156	379	C8H7ClNO2+
211.0252	20	C9H8ClN2O2+
212.0351	52	C9H9ClN2O2+
216.9819	14	C10H2ClN2O2+
224.0285	4	C14H7ClN+
225.0243	4	C13H6ClN2+
228.0228	27	C13H7ClNO+
229.0183	23	C12H6ClN2O+
230.0014	13	C12H5ClNO2+
230.0213	26	C12H7ClN2O+
230.9972	19	C11H4ClN2O2+
249.0084	5	C14H4ClN3+
