Mass spectrum: Aspergillin PZ; LC-ESI-ITFT; MS2; CE: 60%; R=7500; [M+H]+
Name: Aspergillin PZ
Name: 16-hydroxy-1,5,6-trimethyl-8-(2-methylpropyl)-19-oxa-9-azapentacyclo[13.3.1.02,14.03,11.07,11]nonadec-4-ene-10,12-dione
Formula: C24H35NO4
Exact mass: 401.2566
SMILES: CC1C2C(NC(=O)C23C(C=C1C)C4C(CC3=O)C5C(CCC4(O5)C)O)CC(C)C
InChI: InChI=1S/C24H35NO4/c1-11(2)8-16-19-13(4)12(3)9-15-20-14(10-18(27)24(15,19)22(28)25-16)21-17(26)6-7-23(20,5)29-21/h9,11,13-17,19-21,26H,6-8,10H2,1-5H3,(H,25,28)
Instrument: LTQ Orbitrap XL Thermo Scientific
Instrument type: LC-ESI-ITFT
Ms type: MS2
Ion mode: POSITIVE
Ionization: ESI
Fragmentation mode: HCD
Collision energy: 60 % (nominal)
Resolution: 7500
Column name: Hypersil GOLD C18 1.9 um 100 x 2.1 mm Thermo Fisher Scientific
Retention time: 21.677 min
Base peak: 402.2649
Precursor m/z: 402.2639
Precursor type: [M+H]+
Precursor intensity: 7960247.711426
m/z	relative intensity	assigned
73.1223	67	C2H17O2+
96.0444	210	C5H6NO+
105.0701	99	C8H9+
107.0852	59	C8H11+
119.0854	160	C9H11+
121.1012	110	C9H13+
131.0856	69	C10H11+
133.0654	46	C9H9O+
133.1015	68	C10H13+
138.0913	391	C8H12NO+
140.1068	74	C8H14NO+
143.0856	42	C11H11+
145.1013	172	C11H13+
157.1011	143	C12H13+
159.1173	107	C12H15+
161.1329	77	C12H17+
164.107	86	C10H14NO+
166.0862	999	C9H12NO2+
169.1013	80	C13H13+
171.1171	131	C13H15+
173.0953	80	C12H13O+
173.1321	78	C13H17+
175.1489	42	C13H19+
183.1168	64	C14H15+
185.133	142	C14H17+
195.1163	60	C15H15+
206.1172	50	C12H16NO2+
213.1274	250	C15H17O+
220.1697	134	C14H22NO+
227.1424	47	C16H19O+
230.1528	42	C15H20NO+
268.169	40	C18H22NO+
270.1853	148	C18H24NO+
272.2011	49	C18H26NO+
366.2436	43	C24H32NO2+
