Mass spectrum: Mefruside; LC-ESI-QTOF; MS2; CE: 35 eV; R=3600; [M+H]+
Name: Mefruside
Name: 4-Chloro-N1-methyl-N1-[(2-methyloxolan-2-yl)methyl]benzene-1,3-disulfonamide
Formula: C13H19ClN2O5S2
Exact mass: 382.0424
SMILES: CN(CC1(C)CCCO1)S(=O)(=O)C1=CC=C(Cl)C(=C1)S(N)(=O)=O
InChI: InChI=1S/C13H19ClN2O5S2/c1-13(6-3-7-21-13)9-16(2)23(19,20)10-4-5-11(14)12(8-10)22(15,17)18/h4-5,8H,3,6-7,9H2,1-2H3,(H2,15,17,18)
Instrument: 6616 QTOF Agilent
Instrument type: LC-ESI-QTOF
Ms type: MS2
Ion mode: POSITIVE
Ionization: ESI
Fragmentation mode: CID
Collision energy: 35 eV
Resolution: 3600
Precursor m/z: 383.0497
Precursor type: [M+H]+
m/z	relative intensity
55.0544	87
57.0337	258
69.0694	81
79.0535	243
81.0694	698
84.0801	999
86.0588	119
96.0796	85
99.0799	127
108.9827	172
129.1127	51
140.9721	57
142.0034	109
142.987	318
172.9423	51
189.9692	226
253.93	65
