Mass spectrum: PR toxin; LC-ESI-ITFT; MS2; CE: 15%; R=7500; [M+H]+
Name: PR toxin
Name: Spiro(naphthalene-2(1H),2`-oxirane)-3`-carboxaldehyde, 3,5,6,7,8,8a-hexahydro-7-acetoxy-5,6-epoxy-3`,8,8a-trimethyl-3-oxo-
Name: (3`-formyl-3,3`,3a-trimethyl-6-oxospiro[2,3,4,7b-tetrahydro-1aH-naphtho[1,2-b]oxirene-5,2`-oxirane]-2-yl) acetate
Formula: C17H20O6
Exact mass: 320.1260
SMILES: CC1C(C2C(O2)C3=CC(=O)C4(CC13C)C(O4)(C)C=O)OC(=O)C
InChI: InChI=1S/C17H20O6/c1-8-12(21-9(2)19)14-13(22-14)10-5-11(20)17(6-15(8,10)3)16(4,7-18)23-17/h5,7-8,12-14H,6H2,1-4H3
Instrument: LTQ Orbitrap XL Thermo Scientific
Instrument type: LC-ESI-ITFT
Ms type: MS2
Ion mode: POSITIVE
Ionization: ESI
Fragmentation mode: HCD
Collision energy: 15 % (nominal)
Resolution: 7500
Column name: Hypersil GOLD C18 1.9 um 100 x 2.1 mm Thermo Fisher Scientific
Retention time: 15.775 min
Base peak: 321.1335
Precursor m/z: 321.1333
Precursor type: [M+H]+
Precursor intensity: 3327179.880859
m/z	relative intensity	assigned
161.0962	17	C11H13O+
163.0752	9	C10H11O2+
173.0964	16	C12H13O+
187.1113	15	C13H15O+
189.0912	15	C12H13O2+
191.106	17	C12H15O2+
201.0919	11	C13H13O2+
215.1062	33	C14H15O2+
219.1015	26	C13H15O3+
233.1168	31	C14H17O3+
243.1024	11	C15H15O3+
261.1123	56	C15H17O4+
279.1224	123	C15H19O5+
293.1376	27	C16H21O5+
321.1327	999	C17H21O6+
