Mass spectrum: Dixyrazine ; LC-ESI-QFT; MS2; CE: 50%; R=17500; [M+H]+
Name: Dixyrazine
Name: 2-(2-{4-[2-Methyl-3-(10H-phenothiazin-10-yl)propyl]piperazin-1-yl}ethoxy)ethan-1-ol
Formula: C24H33N3O2S
Exact mass: 427.2293
SMILES: CC(CN1CCN(CCOCCO)CC1)CN1C2=CC=CC=C2SC2=CC=CC=C12
InChI: InChI=1S/C24H33N3O2S/c1-20(18-26-12-10-25(11-13-26)14-16-29-17-15-28)19-27-21-6-2-4-8-23(21)30-24-9-5-3-7-22(24)27/h2-9,20,28H,10-19H2,1H3
Instrument: Q Exactive Thermo Fisher Scientific
Instrument type: LC-ESI-QFT
Ms type: MS2
Ion mode: POSITIVE
Ionization: ESI
Fragmentation mode: HCD
Collision energy: 50% (nominal)
Resolution: 17500
Column name: Hypersil GOLD 1.9 um 2.1 x 100 mm Thermo Fisher Scientific
Precursor m/z: 428.2367
Precursor type: [M+H]+
m/z	relative intensity
58.066	77
70.0659	231
82.0659	55
84.0814	36
87.0447	212
97.0766	306
98.0844	999
99.0922	80
101.1078	801
110.0843	36
112.1124	25
125.1075	174
140.131	32
144.102	81
172.1207	127
180.0809	215
187.1441	336
212.0529	364
229.1912	221
