Mass spectrum: Isoproturon-OH (TENTATIVE); LC-ESI-QFT; MS2; CE: 55%; R=70000; [M+H]+
Name: Isoproturon-OH
Formula: C12H18N2O2
Exact mass: 222.1365
SMILES: C(*)C(C)C1=C(*)C(*)=C(C=C1)NC(=O)N(C)C(*) *=[OH (n=1) & H (n=3)] 
Instrument: Q Exactive Plus Orbitrap Thermo Scientific
Instrument type: LC-ESI-QFT
Ms type: MS2
Ion mode: POSITIVE
Ionization: ESI
Fragmentation mode: HCD
Collision energy: 55% (nominal)
Resolution: 70000
Column name: Waters UPLC BEH C18 1.7 um 2.1 mm x 100 mm with pre-column
Retention time: 10.57 min
Precursor m/z: 223.1443
Precursor type: [M+H]+
m/z	relative intensity
51.0233	6
53.0026	4
53.0389	23
55.0546	14
56.0134	61
58.0654	47
59.0494	25
65.0387	53
67.0543	5
68.0496	35
70.0652	10
72.0444	999
73.0649	23
77.0386	17
78.0337	7
79.0542	55
80.0495	10
81.0336	43
89.0386	4
91.0417	8
91.0542	18
92.0494	4
93.0572	7
94.0652	19
95.0492	32
96.0445	10
105.0449	15
106.0651	50
108.0444	42
108.057	9
115.0544	6
118.0651	4
137.0602	4
150.0913	4
