Mass spectrum: Sulfamethoxazole; LC-ESI-QTOF; MS2; CE: 45 eV; R=3600; [M+H]+
Name: Sulfamethoxazole
Name: 4-Amino-N-(5-methyl-1,2-oxazol-3-yl)benzene-1-sulfonamide
Formula: C10H11N3O3S
Exact mass: 253.0521
SMILES: CC1=CC(NS(=O)(=O)C2=CC=C(N)C=C2)=NO1
InChI: InChI=1S/C10H11N3O3S/c1-7-6-10(12-16-7)13-17(14,15)9-4-2-8(11)3-5-9/h2-6H,11H2,1H3,(H,12,13)
Instrument: 6668 QTOF Agilent
Instrument type: LC-ESI-QTOF
Ms type: MS2
Ion mode: POSITIVE
Ionization: ESI
Fragmentation mode: CID
Collision energy: 45 eV
Resolution: 3600
Precursor m/z: 254.0594
Precursor type: [M+H]+
m/z	relative intensity
51.0237	10
52.0306	3
53.0387	73
54.0326	7
57.0414	7
63.0272	4
64.0197	11
65.0385	999
66.0405	40
72.0447	8
77.039	4
78.0352	6
79.041	7
80.049	409
90.0379	6
92.0489	358
93.0562	123
94.065	7
99.0543	15
104.0457	9
105.0436	8
106.051	7
107.0595	9
108.0441	182
117.0425	3
118.0483	5
119.0597	8
129.0542	4
131.0652	2
133.0675	4
146.0657	14
