Mass spectrum: Dosulepin; LC-ESI-ITFT; MS2; CE: 30%; R=15000; [M+H]+
Name: Dosulepin
Name: Dothiepin
Name: 3-(6H-benzo[c][1]benzothiepin-11-ylidene)-N,N-dimethylpropan-1-amine
Formula: C19H21NS
Exact mass: 295.1395
SMILES: CN(C)CCC=C1C2=CC=CC=C2CSC3=CC=CC=C31
InChI: InChI=1S/C19H21NS/c1-20(2)13-7-11-17-16-9-4-3-8-15(16)14-21-19-12-6-5-10-18(17)19/h3-6,8-12H,7,13-14H2,1-2H3
Instrument: LTQ Orbitrap XL Thermo Scientific
Instrument type: LC-ESI-ITFT
Ms type: MS2
Ion mode: POSITIVE
Ionization: ESI
Fragmentation mode: HCD
Collision energy: 30% (nominal)
Resolution: 15000
Column name: Kinetex Evo C18 2.6 um 50 x 2.1 mm
Retention time: 8.193 min
Base peak: 296.1469
Precursor m/z: 296.1467
Precursor type: [M+H]+
m/z	relative intensity	assigned
91.0542	13	C7H7+
117.0698	22	C9H9+
123.0261	10	C7H7S+
147.0262	21	C9H7S+
173.0416	3	C11H9S+
191.0854	5	C15H11+
209.0423	13	C14H9S+
217.1009	13	C17H13+
218.1089	51	C17H14+
222.0499	11	C15H10S+
223.0575	48	C15H11S+
225.0731	122	C15H13S+
236.0658	9	C16H12S+
251.0888	200	C17H15S+
253.1043	5	C17H17S+
296.1467	999	C19H22NS+
