Mass spectrum: Violaceol I; LC-ESI-ITFT; MS2; CE: 30%; R=7500; [M+H]+
Name: Violaceol I
Name: 3-(2,3-dihydroxy-5-methylphenoxy)-5-methylbenzene-1,2-diol
Formula: C14H14O5
Exact mass: 262.0841
SMILES: CC1=CC(=C(C(=C1)OC2=CC(=CC(=C2O)O)C)O)O
InChI: InChI=1S/C14H14O5/c1-7-3-9(15)13(17)11(5-7)19-12-6-8(2)4-10(16)14(12)18/h3-6,15-18H,1-2H3
Instrument: LTQ Orbitrap XL Thermo Scientific
Instrument type: LC-ESI-ITFT
Ms type: MS2
Ion mode: POSITIVE
Ionization: ESI
Fragmentation mode: HCD
Collision energy: 30 % (nominal)
Resolution: 7500
Column name: Hypersil GOLD C18 1.9 um 100 x 2.1 mm Thermo Fisher Scientific
Retention time: 14.520 min
Base peak: 263.092
Precursor m/z: 263.0914
Precursor type: [M+H]+
Precursor intensity: 1863632.888672
m/z	relative intensity	assigned
111.0442	540	C6H7O2+
123.0442	236	C7H7O2+
124.052	250	C7H8O2+
125.0599	237	C7H9O2+
139.0392	999	C7H7O3+
140.0471	90	C7H8O3+
141.0552	36	C7H9O3+
