Mass spectrum: Fusarenon X; LC-ESI-ITFT; MS2; CE: 30%; R=7500; [M+H]+
Name: Fusarenon X
Name: [3,10-dihydroxy-2-(hydroxymethyl)-1,5-dimethyl-4-oxospiro[8-oxatricyclo[7.2.1.02,7]dodec-5-ene-12,2`-oxirane]-11-yl] acetate
Formula: C17H22O8
Exact mass: 354.1315
SMILES: CC1=CC2C(C(C1=O)O)(C3(C(C(C(C34CO4)O2)O)OC(=O)C)C)CO
InChI: InChI=1S/C17H22O8/c1-7-4-9-16(5-18,12(22)10(7)20)15(3)13(24-8(2)19)11(21)14(25-9)17(15)6-23-17/h4,9,11-14,18,21-22H,5-6H2,1-3H3
Instrument: LTQ Orbitrap XL Thermo Scientific
Instrument type: LC-ESI-ITFT
Ms type: MS2
Ion mode: POSITIVE
Ionization: ESI
Fragmentation mode: HCD
Collision energy: 30 % (nominal)
Resolution: 7500
Column name: Hypersil GOLD C18 1.9 um 100 x 2.1 mm Thermo Fisher Scientific
Retention time: 8.309 min
Base peak: 355.1389
Precursor m/z: 355.1387
Precursor type: [M+H]+
Precursor intensity: 11139168.93213
m/z	relative intensity	assigned
99.0437	29	C5H7O2+
107.0489	39	C7H7O+
109.0645	90	C7H9O+
123.0439	104	C7H7O2+
125.0595	97	C7H9O2+
137.0595	969	C8H9O2+
145.0644	67	C10H9O+
147.0802	264	C10H11O+
149.0593	109	C9H9O2+
151.0753	40	C9H11O2+
153.0543	59	C8H9O3+
159.0801	395	C11H11O+
161.0595	134	C10H9O2+
161.0957	92	C11H13O+
163.0751	186	C10H11O2+
165.0909	112	C10H13O2+
171.0806	86	C12H11O+
175.075	999	C11H11O2+
177.0906	196	C11H13O2+
185.0954	90	C13H13O+
187.075	245	C12H11O2+
189.0908	204	C12H13O2+
191.0696	92	C11H11O3+
201.0906	402	C13H13O2+
203.0705	19	C12H11O3+
205.0858	219	C12H13O3+
211.0752	112	C14H11O2+
213.0905	45	C14H13O2+
217.086	78	C13H13O3+
219.1016	26	C13H15O3+
229.0857	190	C14H13O3+
247.0963	33	C14H15O4+
