Mass spectrum: Cyclopenol; LC-ESI-ITFT; MS2; CE: 50%; R=7500; [M+H]+
Name: Cyclopenol
Name: Spiro[3H-1,4-benzodiazepine-3,2`-oxirane]-2,5(1H,4H)-dione, 3`-(3-hydroxyphenyl)-4-methyl-, cis-(-)-
Name: 3`-(3-hydroxyphenyl)-4-methylspiro[1H-1,4-benzodiazepine-3,2`-oxirane]-2,5-dione
Formula: C17H14N2O4
Exact mass: 310.0954
SMILES: CN1C(=O)C2=CC=CC=C2NC(=O)C13C(O3)C4=CC(=CC=C4)O
InChI: InChI=1S/C17H14N2O4/c1-19-15(21)12-7-2-3-8-13(12)18-16(22)17(19)14(23-17)10-5-4-6-11(20)9-10/h2-9,14,20H,1H3,(H,18,22)
Instrument: LTQ Orbitrap XL Thermo Scientific
Instrument type: LC-ESI-ITFT
Ms type: MS2
Ion mode: POSITIVE
Ionization: ESI
Fragmentation mode: HCD
Collision energy: 50 % (nominal)
Resolution: 7500
Column name: Hypersil GOLD C18 1.9 um 100 x 2.1 mm Thermo Fisher Scientific
Retention time: 11.691 min
Base peak: 311.1023
Precursor m/z: 311.1026
Precursor type: [M+H]+
Precursor intensity: 8180848.185547
m/z	relative intensity	assigned
73.0494	2	H9O4+
120.0442	65	C7H6NO+
121.0284	7	C7H5O2+
132.0441	32	C8H6NO+
134.0596	7	C8H8NO+
136.0756	9	C8H10NO+
146.0235	999	C8H4NO2+
159.055	7	C9H7N2O+
161.023	4	C9H5O3+
161.0715	4	C9H9N2O+
162.0545	3	C9H8NO2+
177.0655	127	C9H9N2O2+
180.0817	3	C13H10N+
196.0754	7	C13H10NO+
198.0914	12	C13H12NO+
203.1029	2	C8H15N2O4+
208.0754	2	C14H10NO+
224.0704	69	C14H10NO2+
234.0548	3	C15H8NO2+
236.0696	7	C15H10NO2+
252.065	64	C15H10NO3+
254.0803	2	C15H12NO3+
265.0984	3	C16H13N2O2+
280.0614	5	C16H10NO4+
