Mass spectrum: Antipyrine; LC-ESI-ITFT; MS2; CE: 65%; R=15000; [M+H]+
Name: Antipyrine
Name: 1,5-dimethyl-2-phenylpyrazol-3-one
Formula: C11H12N2O
Exact mass: 188.0950
SMILES: CC1=CC(=O)N(N1C)C2=CC=CC=C2
InChI: InChI=1S/C11H12N2O/c1-9-8-11(14)13(12(9)2)10-6-4-3-5-7-10/h3-8H,1-2H3
Instrument: LTQ Orbitrap XL Thermo Scientific
Instrument type: LC-ESI-ITFT
Ms type: MS2
Ion mode: POSITIVE
Ionization: ESI
Fragmentation mode: HCD
Collision energy: 65% (nominal)
Resolution: 15000
Column name: Kinetex Evo C18 2.6 um 50 x 2.1 mm
Retention time: 5.562 min
Base peak: 189.1022
Precursor m/z: 189.1022
Precursor type: [M+H]+
m/z	relative intensity	assigned
56.0493	143	C3H6N+
58.065	136	C3H8N+
70.0651	9	C4H8N+
77.0386	14	C6H5+
79.0542	3	C6H7+
86.0601	4	C4H8NO+
91.0543	32	C7H7+
94.0651	4	C6H8N+
95.0604	12	C5H7N2+
96.0445	11	C5H6NO+
96.0683	82	C5H8N2+
98.0601	32	C5H8NO+
103.0544	8	C8H7+
104.0495	167	C7H6N+
105.0336	8	C7H5O+
105.07	10	C8H9+
106.0652	95	C7H8N+
111.0554	5	C5H7N2O+
115.0542	5	C9H7+
117.0574	16	C8H7N+
117.0699	39	C9H9+
118.0652	71	C8H8N+
119.0604	2	C7H7N2+
120.0809	62	C8H10N+
129.0694	2	C10H9+
130.0652	79	C9H8N+
131.073	109	C9H9N+
132.0808	55	C9H10N+
133.0523	15	C8H7NO+
133.0761	14	C8H9N2+
134.0965	16	C9H12N+
135.0555	3	C7H7N2O+
144.0809	101	C10H10N+
145.0649	43	C10H9O+
145.076	12	C9H9N2+
145.0886	4	C10H11N+
146.084	108	C9H10N2+
146.0965	24	C10H12N+
147.0917	178	C9H11N2+
148.0757	11	C9H10NO+
149.071	12	C8H9N2O+
157.0522	12	C10H7NO+
158.0603	7	C10H8NO+
159.0918	3	C10H11N2+
160.0994	6	C10H12N2+
161.1074	120	C10H13N2+
162.0906	2	C10H12NO+
171.0915	2	C11H11N2+
172.0757	21	C11H10NO+
174.0788	88	C10H10N2O+
189.1023	999	C11H13N2O+
