Mass spectrum: Equisetin; LC-ESI-ITFT; MS2; CE: 60%; R=7500; [M-H]-
Name: Equisetin
Name: 3-[(1,6-dimethyl-2-prop-1-enyl-4a,5,6,7,8,8a-hexahydro-2H-naphthalen-1-yl)-hydroxymethylidene]-5-(hydroxymethyl)-1-methylpyrrolidine-2,4-dione
Formula: C22H31NO4
Exact mass: 373.22531
SMILES: CC=CC1C=CC2CC(CCC2C1(C)C(=C3C(=O)C(N(C3=O)C)CO)O)C
InChI: InChI=1S/C22H31NO4/c1-5-6-15-9-8-14-11-13(2)7-10-16(14)22(15,3)20(26)18-19(25)17(12-24)23(4)21(18)27/h5-6,8-9,13-17,24,26H,7,10-12H2,1-4H3
Instrument: LTQ Orbitrap XL Thermo Scientific
Instrument type: LC-ESI-ITFT
Ms type: MS2
Ion mode: NEGATIVE
Ionization: ESI
Fragmentation mode: HCD
Collision energy: 60 % (nominal)
Resolution: 7500
Column name: Hypersil GOLD C18 1.9 um 100 x 2.1 mm Thermo Fisher Scientific
Retention time: 27.748 min
Base peak: 372.219
Precursor m/z: 372.218
Precursor type: [M-H]-
Precursor intensity: 15481374.83301
m/z	relative intensity	assigned
298.2179	145	C20H28NO-
342.208	999	C21H28NO3-
372.2189	667	C22H30NO4-
