Mass spectrum: Dosulepin; LC-ESI-ITFT; MS2; CE: 45%; R=15000; [M+H]+
Name: Dosulepin
Name: Dothiepin
Name: 3-(6H-benzo[c][1]benzothiepin-11-ylidene)-N,N-dimethylpropan-1-amine
Formula: C19H21NS
Exact mass: 295.1395
SMILES: CN(C)CCC=C1C2=CC=CC=C2CSC3=CC=CC=C31
InChI: InChI=1S/C19H21NS/c1-20(2)13-7-11-17-16-9-4-3-8-15(16)14-21-19-12-6-5-10-18(17)19/h3-6,8-12H,7,13-14H2,1-2H3
Instrument: LTQ Orbitrap XL Thermo Scientific
Instrument type: LC-ESI-ITFT
Ms type: MS2
Ion mode: POSITIVE
Ionization: ESI
Fragmentation mode: HCD
Collision energy: 45% (nominal)
Resolution: 15000
Column name: Kinetex Evo C18 2.6 um 50 x 2.1 mm
Retention time: 8.117 min
Base peak: 296.1468
Precursor m/z: 296.1467
Precursor type: [M+H]+
m/z	relative intensity	assigned
58.0649	326	C3H8N+
73.0105	5	C3H5S+
84.0808	31	C5H10N+
85.0888	6	C5H11N+
91.0542	203	C7H7+
105.0702	5	C8H9+
115.0542	5	C9H7+
117.0699	473	C9H9+
123.0263	228	C7H7S+
129.0698	26	C10H9+
135.0263	28	C8H7S+
137.0416	4	C8H9S+
141.0699	48	C11H9+
142.0776	46	C11H10+
147.0263	295	C9H7S+
165.0696	6	C13H9+
173.042	74	C11H9S+
178.078	31	C14H10+
179.0856	23	C14H11+
186.128	5	C13H16N+
191.0856	121	C15H11+
192.0934	68	C15H12+
202.0776	8	C16H10+
203.0857	52	C16H11+
204.0937	24	C16H12+
205.1019	18	C16H13+
209.042	276	C14H9S+
210.0504	29	C14H10S+
211.0579	15	C14H11S+
217.1013	217	C17H13+
218.1091	999	C17H14+
221.0419	62	C15H9S+
222.0499	249	C15H10S+
223.0576	918	C15H11S+
225.0732	691	C15H13S+
234.0503	6	C16H10S+
235.0567	6	C16H11S+
236.0655	197	C16H12S+
249.0731	26	C17H13S+
251.089	575	C17H15S+
253.1047	19	C17H17S+
296.147	398	C19H22NS+
