Mass spectrum: Metoclopramide; LC-ESI-ITFT; MS2; CE: 155%; R=15000; [M+H]+
Name: Metoclopramide
Name: 4-amino-5-chloro-N-[2-(diethylamino)ethyl]-2-methoxybenzamide
Formula: C14H22ClN3O2
Exact mass: 299.1401
SMILES: CCN(CC)CCNC(=O)C1=CC(=C(C=C1OC)N)Cl
InChI: InChI=1S/C14H22ClN3O2/c1-4-18(5-2)7-6-17-14(19)10-8-11(15)12(16)9-13(10)20-3/h8-9H,4-7,16H2,1-3H3,(H,17,19)
Instrument: LTQ Orbitrap XL Thermo Scientific
Instrument type: LC-ESI-ITFT
Ms type: MS2
Ion mode: POSITIVE
Ionization: ESI
Fragmentation mode: HCD
Collision energy: 155% (nominal)
Resolution: 15000
Column name: Kinetex Evo C18 2.6 um 50 x 2.1 mm
Retention time: 2.915 min
Base peak: 300.1475
Precursor m/z: 300.1473
Precursor type: [M+H]+
m/z	relative intensity	assigned
51.0227	12	C4H3+
52.0179	4	C3H2N+
54.0336	2	C3H4N+
63.0228	127	C5H3+
64.018	14	C4H2N+
65.0384	21	C5H5+
72.9839	44	C3H2Cl+
78.0338	999	C5H4N+
82.0288	3	C4H4NO+
86.9997	4	C4H4Cl+
90.0339	155	C6H4N+
91.0417	23	C6H5N+
92.0496	18	C6H6N+
93.0573	55	C6H7N+
98.9997	89	C5H4Cl+
105.0448	82	C6H5N2+
106.0287	5	C6H4NO+
108.0445	17	C6H6NO+
111.0077	6	C2H6ClNO2+
113.0027	859	C5H4ClN+
114.0061	13	ClH5N3O2+
114.0106	14	C5H5ClN+
119.0603	8	C7H7N2+
126.0104	12	C6H5ClN+
127.0183	19	C6H6ClN+
128.0264	4	C6H7ClN+
129.01	5	C6H6ClO+
133.0398	5	C7H5N2O+
139.0058	14	C6H4ClN2+
140.0136	39	C6H5ClN2+
140.9976	203	C6H4ClNO+
148.0631	5	C8H8N2O+
153.0215	5	C7H6ClN2+
154.0053	6	C7H5ClNO+
156.0214	6	C7H7ClNO+
168.0086	52	C7H5ClN2O+
168.9926	7	C7H4ClNO2+
174.1362	7	C8H18N2O2+
184.0153	3	C8H7ClNO2+
