Mass spectrum: Cyclopenin; LC-ESI-ITFT; MS2; CE: 60%; R=7500; [M+H]+
Name: Cyclopenin
Name: 4-methyl-3`-phenylspiro[1H-1,4-benzodiazepine-3,2`-oxirane]-2,5-dione
Formula: C17H14N2O3
Exact mass: 294.1004
SMILES: CN1C(=O)C2=CC=CC=C2NC(=O)C13C(O3)C4=CC=CC=C4
InChI: InChI=1S/C17H14N2O3/c1-19-15(20)12-9-5-6-10-13(12)18-16(21)17(19)14(22-17)11-7-3-2-4-8-11/h2-10,14H,1H3,(H,18,21)
Instrument: LTQ Orbitrap XL Thermo Scientific
Instrument type: LC-ESI-ITFT
Ms type: MS2
Ion mode: POSITIVE
Ionization: ESI
Fragmentation mode: HCD
Collision energy: 60 % (nominal)
Resolution: 7500
Column name: Hypersil GOLD C18 1.9 um 100 x 2.1 mm Thermo Fisher Scientific
Retention time: 15.046 min
Base peak: 295.1086
Precursor m/z: 295.1077
Precursor type: [M+H]+
Precursor intensity: 25511948.48047
m/z	relative intensity	assigned
89.0386	2	C7H5+
91.0544	1	C7H7+
92.0497	1	C6H6N+
105.0334	2	C7H5O+
118.0654	7	C8H8N+
120.0446	55	C7H6NO+
120.0811	6	C8H10N+
132.0445	20	C8H6NO+
145.0284	3	C9H5O2+
146.0238	999	C8H4NO2+
148.0393	2	C8H6NO2+
148.0757	1	C9H10NO+
158.0604	2	C10H8NO+
159.0554	9	C9H7N2O+
161.0711	4	C9H9N2O+
164.0347	1	C8H6NO3+
165.0699	3	C13H9+
177.066	32	C9H9N2O2+
178.0498	2	C9H8NO3+
179.0735	3	C13H9N+
180.0811	12	C13H10N+
182.0966	11	C13H12N+
192.0803	1	C14H10N+
208.076	63	C14H10NO+
218.0604	5	C15H8NO+
220.0761	4	C15H10NO+
221.1071	1	C15H13N2+
234.0793	1	C15H10N2O+
236.071	40	C15H10NO2+
249.1024	2	C16H13N2O+
