Mass spectrum: Etofylline; LC-ESI-ITFT; MS2; CE: 50%; R=15000; [M+H]+
Name: Etofylline
Name: 7-(2-hydroxyethyl)-1,3-dimethylpurine-2,6-dione
Formula: C9H12N4O3
Exact mass: 224.0909
SMILES: CN1C2=C(C(=O)N(C1=O)C)N(C=N2)CCO
InChI: InChI=1S/C9H12N4O3/c1-11-7-6(8(15)12(2)9(11)16)13(3-4-14)5-10-7/h5,14H,3-4H2,1-2H3
Instrument: LTQ Orbitrap XL Thermo Scientific
Instrument type: LC-ESI-ITFT
Ms type: MS2
Ion mode: POSITIVE
Ionization: ESI
Fragmentation mode: CID
Collision energy: 50% (nominal)
Resolution: 15000
Column name: Kinetex Evo C18 2.6 um 50 x 2.1 mm
Retention time: 2.576 min
Base peak: 300.1476
Precursor m/z: 225.0982
Precursor type: [M+H]+
m/z	relative intensity	assigned
124.0507	3	C5H6N3O+
168.0768	2	C7H10N3O2+
181.072	999	C7H9N4O2+
207.0876	3	C9H11N4O2+
