Mass spectrum: Roquefortine C; LC-ESI-ITFT; MS2; CE: 30%; R=7500; [M+H]+
Name: Roquefortine C
Name: 4-(1H-imidazol-5-ylmethylidene)-9-(2-methylbut-3-en-2-yl)-2,5,16-triazatetracyclo[7.7.0.02,7.010,15]hexadeca-10,12,14-triene-3,6-dione
Formula: C22H23N5O2
Exact mass: 389.1852
SMILES: CC(C)(C=C)C12CC3C(=O)NC(=CC4=CN=CN4)C(=O)N3C1NC5=CC=CC=C25
InChI: InChI=1S/C22H23N5O2/c1-4-21(2,3)22-10-17-18(28)25-16(9-13-11-23-12-24-13)19(29)27(17)20(22)26-15-8-6-5-7-14(15)22/h4-9,11-12,17,20,26H,1,10H2,2-3H3,(H,23,24)(H,25,28)
Instrument: LTQ Orbitrap XL Thermo Scientific
Instrument type: LC-ESI-ITFT
Ms type: MS2
Ion mode: POSITIVE
Ionization: ESI
Fragmentation mode: HCD
Collision energy: 30 % (nominal)
Resolution: 7500
Column name: Hypersil GOLD C18 1.9 um 100 x 2.1 mm Thermo Fisher Scientific
Retention time: 16.138 min
Base peak: 390.1933
Precursor m/z: 390.1925
Precursor type: [M+H]+
Precursor intensity: 52472844.77441
m/z	relative intensity	assigned
130.0653	2	C9H8N+
162.0302	5	C7H4N3O2+
163.0616	3	C7H7N4O+
191.0568	10	C8H7N4O2+
192.0644	7	C8H8N4O2+
193.0723	325	C8H9N4O2+
198.1278	42	C14H16N+
205.0721	3	C9H9N4O2+
261.1351	9	C13H17N4O2+
320.1145	22	C17H14N5O2+
322.1302	710	C17H16N5O2+
334.13	24	C18H16N5O2+
390.1927	999	C22H24N5O2+
