Mass spectrum: Aspochalasin 1; LC-ESI-ITFT; MS2; CE: 30%; R=7500; [M-H]-
Name: Aspochalasin 1
Formula: C24H35NO5
Exact mass: 417.25152
SMILES: CC(C)C[C@@H]1NC(=O)[C@]23OC(=O)C=C[C@@H](O)[C@@H](O)CCC(C)=C[C@H]3C=C(C)[C@@H](C)[C@@H]12
InChI: InChI=1S/C24H35NO5/c1-13(2)10-18-22-16(5)15(4)12-17-11-14(3)6-7-19(26)20(27)8-9-21(28)30-24(17,22)23(29)25-18/h8-9,11-13,16-20,22,26-27H,6-7,10H2,1-5H3,(H,25,29)/t16-,17+,18+,19+,20-,22+,24-/m1/s1
Instrument: LTQ Orbitrap XL Thermo Scientific
Instrument type: LC-ESI-ITFT
Ms type: MS2
Ion mode: NEGATIVE
Ionization: ESI
Fragmentation mode: HCD
Collision energy: 30 % (nominal)
Resolution: 7500
Column name: Hypersil GOLD C18 1.9 um 100 x 2.1 mm Thermo Fisher Scientific
Retention time: 23.546 min
Base peak: 476.2652
Precursor m/z: 416.2442
Precursor type: [M-H]-
Precursor intensity: 5004883.491699
m/z	relative intensity	assigned
73.1811	6	H25O3-
113.0243	31	C5H5O3-
127.04	7	C6H7O3-
135.1172	13	C10H15-
136.0774	10	C8H10NO-
154.0869	767	C8H12NO2-
180.1025	35	C10H14NO2-
217.1591	42	C15H21O-
235.133	4	C14H19O3-
261.1487	123	C16H21O3-
288.1954	24	C15H28O5-
398.233	16	C24H32NO4-
416.2432	999	C24H34NO5-
