Mass spectrum: Metoclopramide; LC-ESI-ITFT; MS2; CE: 75%; R=7500; [M+H]+
Name: Metoclopramide
Name: 4-Amino-5-chloro-N-[2-(diethylamino)ethyl]-2-methoxybenzamide
Formula: C14H22ClN3O2
Exact mass: 299.1401
SMILES: CCN(CC)CCNC(=O)C1=CC(Cl)=C(N)C=C1OC
InChI: InChI=1S/C14H22ClN3O2/c1-4-18(5-2)7-6-17-14(19)10-8-11(15)12(16)9-13(10)20-3/h8-9H,4-7,16H2,1-3H3,(H,17,19)
Instrument: LTQ Orbitrap XL Thermo Fisher Scientific
Instrument type: LC-ESI-ITFT
Ms type: MS2
Ion mode: POSITIVE
Ionization: ESI
Fragmentation mode: HCD
Collision energy: 75% (nominal)
Resolution: 7500
Column name: Hypersil GOLD C18 1.9 um 100 x 2.1 mm Thermo Fisher Scientific
Precursor m/z: 300.1474
Precursor type: [M+H]+
m/z	relative intensity
72.0807	1
73.0561	1
73.0912	1
90.0337	4
93.0572	6
100.1121	16
120.0442	6
126.0104	18
128.026	11
129.0099	2
140.9976	36
144.0211	10
147.0555	5
148.0632	24
156.0211	55
168.0084	43
168.9924	26
170.0002	12
183.0321	255
184.0159	999
185.108	1
212.0348	266
227.0584	301
