Mass spectrum: Pyranonigrin A; LC-ESI-ITFT; MS2; CE: 20%; R=7500; [M-H]-
Name: Pyranonigrin A
Name: CID 73323900
Name: 3,7-dihydroxy-2-prop-1-enyl-6,7-dihydropyrano[2,3-c]pyrrole-4,5-dione
Formula: C10H9NO5
Exact mass: 223.04807
SMILES: CC=CC1=C(C(=O)C2=C(O1)C(NC2=O)O)O
InChI: InChI=1S/C10H9NO5/c1-2-3-4-6(12)7(13)5-8(16-4)10(15)11-9(5)14/h2-3,10,12,15H,1H3,(H,11,14)
Instrument: LTQ Orbitrap XL Thermo Scientific
Instrument type: LC-ESI-ITFT
Ms type: MS2
Ion mode: NEGATIVE
Ionization: ESI
Fragmentation mode: HCD
Collision energy: 20 % (nominal)
Resolution: 7500
Column name: Hypersil GOLD C18 1.9 um 100 x 2.1 mm Thermo Fisher Scientific
Retention time: 8.469 min
Base peak: 222.0399
Precursor m/z: 222.0408
Precursor type: [M-H]-
Precursor intensity: 3745201.614014
m/z	relative intensity	assigned
83.0138	3	C4H3O2-
95.0502	2	C6H7O-
98.0244	4	C4H4NO2-
104.0501	3	C7H6N-
120.0451	5	C7H6NO-
123.0086	3	C6H3O3-
123.0449	36	C7H7O2-
124.0039	4	C5H2NO3-
125.0241	3	C6H5O3-
132.0453	21	C8H6NO-
135.0447	6	C8H7O2-
138.0558	4	C7H8NO2-
148.0402	5	C8H6NO2-
149.0478	6	C8H7NO2-
150.0555	83	C8H8NO2-
151.0396	102	C8H7O3-
166.0503	13	C8H8NO3-
176.0345	4	C9H6NO3-
179.0343	36	C9H7O4-
194.0452	53	C9H8NO4-
204.0305	3	C10H6NO4-
222.0398	999	C10H8NO5-
