Mass spectrum: Metoclopramide; LC-ESI-ITFT; MS2; CE: 150%; R=15000; [M+H]+
Name: Metoclopramide
Name: 4-amino-5-chloro-N-[2-(diethylamino)ethyl]-2-methoxybenzamide
Formula: C14H22ClN3O2
Exact mass: 299.1401
SMILES: CCN(CC)CCNC(=O)C1=CC(=C(C=C1OC)N)Cl
InChI: InChI=1S/C14H22ClN3O2/c1-4-18(5-2)7-6-17-14(19)10-8-11(15)12(16)9-13(10)20-3/h8-9H,4-7,16H2,1-3H3,(H,17,19)
Instrument: LTQ Orbitrap XL Thermo Scientific
Instrument type: LC-ESI-ITFT
Ms type: MS2
Ion mode: POSITIVE
Ionization: ESI
Fragmentation mode: HCD
Collision energy: 150% (nominal)
Resolution: 15000
Column name: Kinetex Evo C18 2.6 um 50 x 2.1 mm
Retention time: 2.844 min
Base peak: 300.1474
Precursor m/z: 300.1473
Precursor type: [M+H]+
m/z	relative intensity	assigned
63.0227	135	C5H3+
65.0384	24	C5H5+
66.0462	9	C5H6+
72.9838	38	C3H2Cl+
75.0228	5	C6H3+
78.0337	964	C5H4N+
80.0494	5	C5H6N+
90.0338	189	C6H4N+
91.0416	24	C6H5N+
92.0494	14	C6H6N+
93.0572	60	C6H7N+
98.9996	100	C5H4Cl+
105.0447	90	C6H5N2+
106.0289	4	C6H4NO+
108.0443	27	C6H6NO+
111.0082	7	C2H6ClNO2+
113.0027	999	C5H4ClN+
114.0104	18	C5H5ClN+
119.0605	9	C7H7N2+
120.0444	9	C7H6NO+
126.0105	11	C6H5ClN+
127.0182	23	C6H6ClN+
128.0263	5	C6H7ClN+
129.0103	10	C6H6ClO+
133.0395	9	C7H5N2O+
139.0057	16	C6H4ClN2+
140.0136	59	C6H5ClN2+
140.9975	277	C6H4ClNO+
154.0057	7	C7H5ClNO+
156.0211	7	C7H7ClNO+
168.0084	77	C7H5ClN2O+
168.9923	9	C7H4ClNO2+
174.136	5	C8H18N2O2+
184.0156	11	C8H7ClNO2+
187.0026	5	C7H6ClNO3+
