Mass spectrum: Dothiepin; LC-ESI-ITFT; MS2; CE: 50%; R=7500; [M+H]+
Name: Dothiepin
Name: 3-(Dibenzo[b,e]thiepin-11(6H)-ylidene)-N,N-dimethylpropan-1-amine
Formula: C19H21NS
Exact mass: 295.1395
SMILES: CN(C)CCC=C1C2=CC=CC=C2CSC2=C1C=CC=C2
InChI: InChI=1S/C19H21NS/c1-20(2)13-7-11-17-16-9-4-3-8-15(16)14-21-19-12-6-5-10-18(17)19/h3-6,8-12H,7,13-14H2,1-2H3
Instrument: LTQ Orbitrap XL Thermo Fisher Scientific
Instrument type: LC-ESI-ITFT
Ms type: MS2
Ion mode: POSITIVE
Ionization: ESI
Fragmentation mode: HCD
Collision energy: 50% (nominal)
Resolution: 7500
Column name: Hypersil GOLD C18 1.9 um 100 x 2.1 mm Thermo Fisher Scientific
Precursor m/z: 296.1468
Precursor type: [M+H]+
m/z	relative intensity
57.0479	3
57.0585	4
57.0665	3
57.0785	3
58.065	78
84.0807	16
91.0542	121
115.0543	6
117.0699	354
123.0264	176
129.07	24
135.0263	20
137.0418	4
141.07	37
142.0777	32
147.0264	226
159.0268	3
165.07	11
173.0421	64
178.0778	37
179.0857	20
191.0857	104
192.0935	76
202.0776	16
203.0858	76
204.0935	25
205.1011	16
209.0422	254
210.0501	47
211.058	16
215.0845	2
217.1016	213
218.1094	999
221.0423	75
222.0502	262
223.058	954
225.0735	562
235.0579	12
236.0657	198
249.0734	29
251.0893	340
253.105	12
296.1468	222
