Mass spectrum: Azoxystrobin-desmethyl (Unequivocal molecular formula); LC-ESI-QFT; MS2; CE: 30%; R=70000; [M+H]+
Name: Azoxystrobin-desmethyl
Formula: C21H15N3O5
Exact mass: 389.0997
Instrument: Q Exactive Plus Orbitrap Thermo Scientific
Instrument type: LC-ESI-QFT
Ms type: MS2
Ion mode: POSITIVE
Ionization: ESI
Fragmentation mode: HCD
Collision energy: 30% (nominal)
Resolution: 70000
Column name: Waters UPLC BEH C18 1.7 um 2.1 mm x 100 mm with pre-column
Retention time: 12.88 min
Precursor m/z: 390.1075
Precursor type: [M+H]+
m/z	relative intensity
70.0774	3
116.0493	5
123.117	4
129.0446	5
146.0599	17
161.096	8
162.0995	9
163.096	3
174.0549	116
183.0555	12
184.0631	45
200.0579	11
246.1018	4
274.0962	7
275.0813	25
285.0895	11
301.0842	104
302.0921	999
312.0764	7
329.0797	6
330.0869	162
340.0716	6
344.1018	9
358.0811	12
