Mass spectrum: Dixyrazine; LC-ESI-ITFT; MS2; CE: 110%; R=15000; [M+H]+
Name: Dixyrazine
Name: 2-[2-[4-(2-methyl-3-phenothiazin-10-ylpropyl)piperazin-1-yl]ethoxy]ethanol
Formula: C24H33N3O2S
Exact mass: 427.2293
SMILES: CC(CN1CCN(CC1)CCOCCO)CN2C3=CC=CC=C3SC4=CC=CC=C42
InChI: InChI=1S/C24H33N3O2S/c1-20(18-26-12-10-25(11-13-26)14-16-29-17-15-28)19-27-21-6-2-4-8-23(21)30-24-9-5-3-7-22(24)27/h2-9,20,28H,10-19H2,1H3
Instrument: LTQ Orbitrap XL Thermo Scientific
Instrument type: LC-ESI-ITFT
Ms type: MS2
Ion mode: POSITIVE
Ionization: ESI
Fragmentation mode: HCD
Collision energy: 110% (nominal)
Resolution: 15000
Column name: Kinetex Evo C18 2.6 um 50 x 2.1 mm
Retention time: 8.957 min
Base peak: 428.2363
Precursor m/z: 428.2366
Precursor type: [M+H]+
m/z	relative intensity	assigned
56.0492	105	C3H6N+
57.057	22	C3H7N+
57.0697	13	C4H9+
58.0649	114	C3H8N+
68.0493	28	C4H6N+
70.065	388	C4H8N+
71.0728	11	C4H9N+
72.0809	16	C4H10N+
82.0651	113	C5H8N+
83.0603	144	C4H7N2+
84.0807	32	C5H10N+
87.044	27	C4H7O2+
97.076	441	C5H9N2+
98.0838	782	C5H10N2+
99.0919	22	C5H11N2+
101.1073	61	C5H13N2+
111.0916	19	C6H11N2+
112.0992	20	C6H12N2+
151.0544	30	C12H7+
152.062	67	C12H8+
153.0701	37	C12H9+
167.0728	72	C12H9N+
171.0258	20	C11H7S+
178.0652	97	C13H8N+
179.0729	253	C13H9N+
180.0807	999	C13H10N+
184.0339	24	C12H8S+
185.0412	13	C12H9S+
198.037	19	C12H8NS+
199.0447	18	C12H9NS+
212.0527	20	C13H10NS+
220.1126	15	C16H14N+
