Mass spectrum: Deoxybrevianamide E; LC-ESI-ITFT; MS2; CE: 30%; R=7500; [M+H]+
Name: Deoxybrevianamide E
Name: Desoxybrevianamide E
Name: 3-[[2-(2-methylbut-3-en-2-yl)-1H-indol-3-yl]methyl]-2,3,6,7,8,8a-hexahydropyrrolo[1,2-a]pyrazine-1,4-dione
Formula: C21H25N3O2
Exact mass: 351.1947
SMILES: CC(C)(C=C)C1=C(C2=CC=CC=C2N1)CC3C(=O)N4CCCC4C(=O)N3
InChI: InChI=1S/C21H25N3O2/c1-4-21(2,3)18-14(13-8-5-6-9-15(13)22-18)12-16-20(26)24-11-7-10-17(24)19(25)23-16/h4-6,8-9,16-17,22H,1,7,10-12H2,2-3H3,(H,23,25)
Instrument: LTQ Orbitrap XL Thermo Scientific
Instrument type: LC-ESI-ITFT
Ms type: MS2
Ion mode: POSITIVE
Ionization: ESI
Fragmentation mode: HCD
Collision energy: 30 % (nominal)
Resolution: 7500
Column name: Hypersil GOLD C18 1.9 um 100 x 2.1 mm Thermo Fisher Scientific
Retention time: 18.048 min
Base peak: 352.2022
Precursor m/z: 352.202
Precursor type: [M+H]+
Precursor intensity: 11179958.49219
m/z	relative intensity	assigned
69.0697	7	C5H9+
70.0651	3	C4H8N+
115.0863	6	C5H11N2O+
125.0704	7	C6H9N2O+
130.0651	287	C9H8N+
132.0807	28	C9H10N+
144.0811	12	C10H10N+
153.0658	10	C7H9N2O2+
170.0599	25	C11H8NO+
186.128	14	C13H16N+
198.1276	999	C14H16N+
200.1434	23	C14H18N+
238.1226	17	C16H16NO+
239.1183	4	C15H15N2O+
268.1444	55	C16H18N3O+
284.1391	926	C16H18N3O2+
296.1393	432	C17H18N3O2+
352.2016	199	C21H26N3O2+
