Mass spectrum: Sulthiame; LC-ESI-ITFT; MS2; CE: 20%; R=15000; [M+H]+
Name: Sulthiame
Name: 4-(1,1-dioxothiazinan-2-yl)benzenesulfonamide
Formula: C10H14N2O4S2
Exact mass: 290.0395
SMILES: C1CCS(=O)(=O)N(C1)C2=CC=C(C=C2)S(=O)(=O)N
InChI: InChI=1S/C10H14N2O4S2/c11-18(15,16)10-5-3-9(4-6-10)12-7-1-2-8-17(12,13)14/h3-6H,1-2,7-8H2,(H2,11,15,16)
Instrument: LTQ Orbitrap XL Thermo Scientific
Instrument type: LC-ESI-ITFT
Ms type: MS2
Ion mode: POSITIVE
Ionization: ESI
Fragmentation mode: HCD
Collision energy: 20% (nominal)
Resolution: 15000
Column name: Kinetex Evo C18 2.6 um 50 x 2.1 mm
Retention time: 4.924 min
Base peak: 313.0287
Precursor m/z: 291.0468
Precursor type: [M+H]+
m/z	relative intensity	assigned
147.1041	60	C10H13N+
185.0379	571	C7H9N2O2S+
227.0848	999	C10H15N2O2S+
274.0214	11	C10H12NO4S2+
291.0467	570	C10H15N2O4S2+
