Mass spectrum: Sulthiame; LC-ESI-ITFT; MS2; CE: 185%; R=15000; [M+H]+
Name: Sulthiame
Name: 4-(1,1-dioxothiazinan-2-yl)benzenesulfonamide
Formula: C10H14N2O4S2
Exact mass: 290.0395
SMILES: C1CCS(=O)(=O)N(C1)C2=CC=C(C=C2)S(=O)(=O)N
InChI: InChI=1S/C10H14N2O4S2/c11-18(15,16)10-5-3-9(4-6-10)12-7-1-2-8-17(12,13)14/h3-6H,1-2,7-8H2,(H2,11,15,16)
Instrument: LTQ Orbitrap XL Thermo Scientific
Instrument type: LC-ESI-ITFT
Ms type: MS2
Ion mode: POSITIVE
Ionization: ESI
Fragmentation mode: HCD
Collision energy: 185% (nominal)
Resolution: 15000
Column name: Kinetex Evo C18 2.6 um 50 x 2.1 mm
Retention time: 4.272 min
Base peak: 313.0286
Precursor m/z: 291.0468
Precursor type: [M+H]+
m/z	relative intensity	assigned
75.0227	174	C6H3+
76.0307	999	C6H4+
78.0462	183	C6H6+
89.0385	237	C7H5+
104.0494	606	C7H6N+
105.045	307	C6H5N2+
