Mass spectrum: Pendimethalin-N-dealkylation (TENTATIVE); LC-ESI-QFT; MS2; CE: 30%; R=70000; [M+H]+
Name: Pendimethalin-N-dealkylation
Name: 3,4-dimethyl-2,6-dinitroaniline
Formula: C8H9N3O4
Exact mass: 211.0593
SMILES: NC1=C(C=C(C(=C1[N+](=O)[O-])C)C)[N+](=O)[O-]
InChI: InChI=1S/C8H9N3O4/c1-4-3-6(10(12)13)7(9)8(5(4)2)11(14)15/h3H,9H2,1-2H3
Instrument: Q Exactive Plus Orbitrap Thermo Scientific
Instrument type: LC-ESI-QFT
Ms type: MS2
Ion mode: POSITIVE
Ionization: ESI
Fragmentation mode: HCD
Collision energy: 30% (nominal)
Resolution: 70000
Column name: Waters UPLC BEH C18 1.7 um 2.1 mm x 100 mm with pre-column
Retention time: 14.61 min
Precursor m/z: 212.0671
Precursor type: [M+H]+
m/z	relative intensity
50.0155	75
51.0233	98
52.0185	81
53.0025	19
53.0389	55
54.0341	20
55.0546	40
57.0702	48
63.0231	22
64.0183	91
65.0387	266
66.0339	118
66.0464	44
67.0417	101
67.0543	37
68.0496	63
68.9972	20
69.0336	19
75.0103	56
76.0181	999
77.026	42
77.0386	32
78.0338	128
78.0465	27
79.0291	19
79.0542	43
80.0494	82
83.0492	20
91.0291	19
91.0543	41
92.0495	112
92.0576	52
93.0447	107
93.0573	36
94.0651	39
95.0491	92
95.0603	25
96.0445	56
103.029	110
105.0447	131
106.0482	26
110.0599	19
119.0604	81
120.044	19
120.0557	35
121.0397	45
121.0761	42
129.0657	19
