Mass spectrum: Amiloride; LC-ESI-QFT; MS2; CE: 10%; R=30000; [M+H]+
Name: Amiloride
Name: 3,5-Diamino-N-carbamimidoyl-6-chloropyrazine-2-carboxamide
Formula: C6H8ClN7O
Exact mass: 229.0479
SMILES: NC(=N)NC(=O)C1=NC(Cl)=C(N)N=C1N
InChI: InChI=1S/C6H8ClN7O/c7-2-4(9)13-3(8)1(12-2)5(15)14-6(10)11/h(H4,8,9,13)(H4,10,11,14,15)
Instrument: Orbitrap Fusion Tribrid Thermo Fisher Scientific
Instrument type: LC-ESI-QFT
Ms type: MS2
Ion mode: POSITIVE
Ionization: ESI
Fragmentation mode: HCD
Collision energy: 10% (nominal)
Resolution: 30000
Precursor m/z: 230.0552
Precursor type: [M+H]+
m/z	relative intensity
60.056	35
61.04	1
86.0351	8
116.002	1
145.0286	1
161.0235	1
171.0071	21
188.0335	8
189.0175	60
213.0288	12
230.0552	999
