Mass spectrum: Eremofortin B; LC-ESI-ITFT; MS2; CE: 50%; R=7500; [M-H]-
Name: Eremofortin B
Name: (1aR,2R,3R,3aR,5S,7bS)-2-hydroxy-3,3a-dimethyl-5-prop-1-en-2-yl-1a,2,3,4,5,7b-hexahydronaphtho[1,2-b]oxiren-6-one
Formula: C15H20O3
Exact mass: 248.1412
SMILES: C[C@H]1[C@@H](O)[C@H]2O[C@H]2C2=CC(=O)[C@@H](C[C@]12C)C(C)=C
InChI: InChI=1S/C15H20O3/c1-7(2)9-6-15(4)8(3)12(17)14-13(18-14)10(15)5-11(9)16/h5,8-9,12-14,17H,1,6H2,2-4H3/t8-,9-,12+,13-,14+,15+/m0/s1
Instrument: LTQ Orbitrap XL Thermo Scientific
Instrument type: LC-ESI-ITFT
Ms type: MS2
Ion mode: NEGATIVE
Ionization: ESI
Fragmentation mode: HCD
Collision energy: 50 % (nominal)
Resolution: 7500
Column name: Hypersil GOLD C18 1.9 um 100 x 2.1 mm Thermo Fisher Scientific
Retention time: 15.248 min
Base peak: 141.0168
Precursor m/z: 247.134
Precursor type: [M-H]-
Precursor intensity: 37087.45703125
m/z	relative intensity	assigned
247.1334	999	C15H19O3-
