Mass spectrum: Dixyrazine ; LC-ESI-ITFT; MS2; CE: 60%; R=7500; [M+H]+
Name: Dixyrazine
Name: 2-(2-{4-[2-Methyl-3-(10H-phenothiazin-10-yl)propyl]piperazin-1-yl}ethoxy)ethan-1-ol
Formula: C24H33N3O2S
Exact mass: 427.2293
SMILES: CC(CN1CCN(CCOCCO)CC1)CN1C2=CC=CC=C2SC2=CC=CC=C12
InChI: InChI=1S/C24H33N3O2S/c1-20(18-26-12-10-25(11-13-26)14-16-29-17-15-28)19-27-21-6-2-4-8-23(21)30-24-9-5-3-7-22(24)27/h2-9,20,28H,10-19H2,1H3
Instrument: LTQ Orbitrap XL Thermo Fisher Scientific
Instrument type: LC-ESI-ITFT
Ms type: MS2
Ion mode: POSITIVE
Ionization: ESI
Fragmentation mode: HCD
Collision energy: 60% (nominal)
Resolution: 7500
Column name: Hypersil GOLD C18 1.9 um 100 x 2.1 mm Thermo Fisher Scientific
Precursor m/z: 428.2367
Precursor type: [M+H]+
m/z	relative intensity
56.0493	6
57.0524	4
57.0547	6
57.0667	8
57.0716	7
57.0778	8
57.0888	5
57.0946	6
57.0993	4
57.1117	5
57.1301	6
57.1425	6
58.065	19
70.065	111
82.065	34
84.0806	27
87.044	134
97.0761	251
98.0839	999
99.0916	70
100.0758	19
101.1073	878
110.084	26
111.0918	4
112.1121	35
113.1074	18
118.0863	21
124.0217	4
125.1073	270
127.1229	5
130.0861	11
132.1018	12
139.1233	7
140.1308	58
144.102	146
155.1544	34
172.1207	264
179.0729	13
180.0809	338
187.1442	906
188.9336	13
198.0369	15
199.0452	45
206.0964	10
212.053	856
220.1125	17
221.1202	32
229.1915	615
254.1002	41
