Mass spectrum: Apicidin; LC-ESI-ITFT; MS2; CE: 30%; R=7500; [M-H]-
Name: Apicidin
Name: 3-butan-2-yl-6-[(1-methoxyindol-3-yl)methyl]-9-(6-oxooctyl)-1,4,7,10-tetrazabicyclo[10.4.0]hexadecane-2,5,8,11-tetrone
Formula: C34H49N5O6
Exact mass: 623.36828
SMILES: CCC(C)C1C(=O)N2CCCCC2C(=O)NC(C(=O)NC(C(=O)N1)CC3=CN(C4=CC=CC=C43)OC)CCCCCC(=O)CC
InChI: InChI=1S/C34H49N5O6/c1-5-22(3)30-34(44)38-19-13-12-18-29(38)33(43)35-26(16-9-7-8-14-24(40)6-2)31(41)36-27(32(42)37-30)20-23-21-39(45-4)28-17-11-10-15-25(23)28/h10-11,15,17,21-22,26-27,29-30H,5-9,12-14,16,18-20H2,1-4H3,(H,35,43)(H,36,41)(H,37,42)
Instrument: LTQ Orbitrap XL Thermo Scientific
Instrument type: LC-ESI-ITFT
Ms type: MS2
Ion mode: NEGATIVE
Ionization: ESI
Fragmentation mode: HCD
Collision energy: 30 % (nominal)
Resolution: 7500
Column name: Hypersil GOLD C18 1.9 um 100 x 2.1 mm Thermo Fisher Scientific
Retention time: 23.340 min
Base peak: 141.0175
Precursor m/z: 622.361
Precursor type: [M-H]-
Precursor intensity: 54899.2958984375
m/z	relative intensity	assigned
199.2433	934	H33N5O6-
462.2852	999	C24H38N4O5-
477.2248	628	C27H31N3O5-
