Mass spectrum: Bikaverin; LC-ESI-ITFT; MS2; CE: 30%; R=7500; [M+H]+
Name: Bikaverin
Name: 7,10-dihydroxy-3,8-dimethoxy-1-methylbenzo[b]xanthene-6,11,12-trione
Formula: C20H14O8
Exact mass: 382.0689
SMILES: CC1=CC(=CC2=C1C(=O)C3=C(O2)C(=O)C4=C(C3=O)C(=CC(=C4O)OC)O)OC
InChI: InChI=1S/C20H14O8/c1-7-4-8(26-2)5-10-12(7)17(23)15-18(24)13-9(21)6-11(27-3)16(22)14(13)19(25)20(15)28-10/h4-6,21-22H,1-3H3
Instrument: LTQ Orbitrap XL Thermo Scientific
Instrument type: LC-ESI-ITFT
Ms type: MS2
Ion mode: POSITIVE
Ionization: ESI
Fragmentation mode: HCD
Collision energy: 30 % (nominal)
Resolution: 7500
Column name: Hypersil GOLD C18 1.9 um 100 x 2.1 mm Thermo Fisher Scientific
Retention time: 23.120 min
Base peak: 383.0769
Precursor m/z: 383.0761
Precursor type: [M+H]+
Precursor intensity: 606391.5390625
m/z	relative intensity	assigned
57.0697	25	C4H9+
383.0765	999	C20H15O8+
