Mass spectrum: Desipramine; LC-ESI-ITFT; MS2; CE: 175%; R=15000; [M+H]+
Name: Desipramine
Name: 3-(5,6-dihydrobenzo[b][1]benzazepin-11-yl)-N-methylpropan-1-amine
Formula: C18H22N2
Exact mass: 266.1783
SMILES: CNCCCN1C2=CC=CC=C2CCC3=CC=CC=C31
InChI: InChI=1S/C18H22N2/c1-19-13-6-14-20-17-9-4-2-7-15(17)11-12-16-8-3-5-10-18(16)20/h2-5,7-10,19H,6,11-14H2,1H3
Instrument: LTQ Orbitrap XL Thermo Scientific
Instrument type: LC-ESI-ITFT
Ms type: MS2
Ion mode: POSITIVE
Ionization: ESI
Fragmentation mode: HCD
Collision energy: 175% (nominal)
Resolution: 15000
Column name: Kinetex Evo C18 2.6 um 50 x 2.1 mm
Retention time: 8.447 min
Base peak: 267.1857
Precursor m/z: 267.1856
Precursor type: [M+H]+
m/z	relative intensity	assigned
57.057	288	C3H7N+
65.0384	101	C5H5+
72.0806	128	C4H10N+
77.0384	41	C6H5+
89.0385	271	C7H5+
90.0465	98	C7H6+
91.0542	208	C7H7+
103.0541	27	C8H7+
105.0447	95	C6H5N2+
115.0542	155	C9H7+
117.0574	73	C8H7N+
128.0494	96	C9H6N+
129.0447	40	C8H5N2+
139.0543	219	C11H7+
140.0498	88	C10H6N+
151.0544	49	C12H7+
152.0621	289	C12H8+
153.0573	38	C11H7N+
163.0541	60	C13H7+
164.0621	191	C13H8+
165.0699	821	C13H9+
166.0651	261	C12H8N+
167.0729	222	C12H9N+
169.0649	47	C12H9O+
177.0576	77	C13H7N+
178.065	161	C13H8N+
178.0778	69	C14H10+
179.0728	158	C13H9N+
180.0807	77	C13H10N+
190.0652	285	C14H8N+
191.0729	999	C14H9N+
192.0808	472	C14H10N+
193.0885	150	C14H11N+
204.0809	107	C15H10N+
