Mass spectrum: Dibucaine; LC-ESI-QFT; MS2; CE: 60%; R=17500; [M+H]+
Name: Dibucaine
Name: 2-Butoxy-N-[2-(diethylamino)ethyl]quinoline-4-carboxamide
Formula: C20H29N3O2
Exact mass: 343.226
SMILES: CCCCOC1=CC(C(=O)NCCN(CC)CC)=C2C=CC=CC2=N1
InChI: InChI=1S/C20H29N3O2/c1-4-7-14-25-19-15-17(16-10-8-9-11-18(16)22-19)20(24)21-12-13-23(5-2)6-3/h8-11,15H,4-7,12-14H2,1-3H3,(H,21,24)
Instrument: Q Exactive Thermo Fisher Scientific
Instrument type: LC-ESI-QFT
Ms type: MS2
Ion mode: POSITIVE
Ionization: ESI
Fragmentation mode: HCD
Collision energy: 60% (nominal)
Resolution: 17500
Column name: Hypersil GOLD 1.9 um 2.1 x 100 mm Thermo Fisher Scientific
Precursor m/z: 344.2333
Precursor type: [M+H]+
m/z	relative intensity
57.0708	82
72.0816	46
74.0972	78
100.1126	102
116.0498	805
130.0653	22
144.0445	918
146.0601	60
158.0601	41
160.0758	15
162.055	15
170.0602	23
171.0554	218
172.0393	760
187.0867	53
200.1072	28
215.0816	999
227.118	29
228.1023	49
271.1443	117
