Mass spectrum: Sulfamethoxazole; LC-ESI-ITFT; MS2; CE: 125%; R=15000; [M+H]+
Name: Sulfamethoxazole
Name: 4-amino-N-(5-methyl-1,2-oxazol-3-yl)benzenesulfonamide
Formula: C10H11N3O3S
Exact mass: 253.0521
SMILES: CC1=CC(=NO1)NS(=O)(=O)C2=CC=C(C=C2)N
InChI: InChI=1S/C10H11N3O3S/c1-7-6-10(12-16-7)13-17(14,15)9-4-2-8(11)3-5-9/h2-6H,11H2,1H3,(H,12,13)
Instrument: LTQ Orbitrap XL Thermo Scientific
Instrument type: LC-ESI-ITFT
Ms type: MS2
Ion mode: POSITIVE
Ionization: ESI
Fragmentation mode: CID
Collision energy: 125% (nominal)
Resolution: 15000
Column name: Kinetex Evo C18 2.6 um 50 x 2.1 mm
Retention time: 5.599 min
Base peak: 189.1024
Precursor m/z: 254.0594
Precursor type: [M+H]+
m/z	relative intensity	assigned
65.0384	3	C5H5+
80.0493	5	C5H6N+
92.0495	101	C6H6N+
93.0574	26	C6H7N+
94.0652	30	C6H8N+
99.0554	21	C4H7N2O+
107.0604	25	C6H7N2+
108.0444	243	C6H6NO+
131.0605	11	C8H7N2+
132.0685	4	C8H8N2+
145.0762	4	C9H9N2+
146.0714	146	C8H8N3+
147.0791	570	C8H9N3+
148.0869	132	C8H10N3+
156.0114	999	C6H6NO2S+
160.0869	416	C9H10N3+
161.0016	8	C4H5N2O3S+
161.0711	9	C9H9N2O+
161.0946	2	C9H11N3+
163.0869	4	C9H11N2O+
172.0869	12	C10H10N3+
176.0277	31	C8H6N3S+
177.0126	3	C8H5N2OS+
188.0819	878	C10H10N3O+
190.0975	257	C10H12N3O+
194.0382	320	C8H8N3OS+
236.0491	22	C10H10N3O2S+
254.0595	12	C10H12N3O3S+
