Mass spectrum: Altenuene; LC-ESI-ITFT; MS2; CE: 40%; R=7500; [M-H]-
Name: Altenuene
Name: 6H-Dibenzo[b,d]pyran-6-one, 2,3,4,4a-tetrahydro-2,3,7-trihydroxy-9-methoxy-4a-methyl-, (2R,3R,4aR)-rel-
Name: 2,3,7-trihydroxy-9-methoxy-4a-methyl-3,4-dihydro-2H-benzo[c]chromen-6-one
Formula: C15H16O6
Exact mass: 292.09469
SMILES: CC12CC(C(C=C1C3=C(C(=CC(=C3)OC)O)C(=O)O2)O)O
InChI: InChI=1S/C15H16O6/c1-15-6-12(18)10(16)5-9(15)8-3-7(20-2)4-11(17)13(8)14(19)21-15/h3-5,10,12,16-18H,6H2,1-2H3
Instrument: LTQ Orbitrap XL Thermo Scientific
Instrument type: LC-ESI-ITFT
Ms type: MS2
Ion mode: NEGATIVE
Ionization: ESI
Fragmentation mode: HCD
Collision energy: 40 % (nominal)
Resolution: 7500
Column name: Hypersil GOLD C18 1.9 um 100 x 2.1 mm Thermo Fisher Scientific
Retention time: 15.012 min
Base peak: 351.1093
Precursor m/z: 291.0874
Precursor type: [M-H]-
Precursor intensity: 3727219.056641
m/z	relative intensity	assigned
179.035	5	C9H7O4-
247.0979	12	C14H15O4-
291.0874	999	C15H15O6-
