Mass spectrum: Dosulepin; LC-ESI-ITFT; MS2; CE: 120%; R=15000; [M+H]+
Name: Dosulepin
Name: Dothiepin
Name: 3-(6H-benzo[c][1]benzothiepin-11-ylidene)-N,N-dimethylpropan-1-amine
Formula: C19H21NS
Exact mass: 295.1395
SMILES: CN(C)CCC=C1C2=CC=CC=C2CSC3=CC=CC=C31
InChI: InChI=1S/C19H21NS/c1-20(2)13-7-11-17-16-9-4-3-8-15(16)14-21-19-12-6-5-10-18(17)19/h3-6,8-12H,7,13-14H2,1-2H3
Instrument: LTQ Orbitrap XL Thermo Scientific
Instrument type: LC-ESI-ITFT
Ms type: MS2
Ion mode: POSITIVE
Ionization: ESI
Fragmentation mode: HCD
Collision energy: 120% (nominal)
Resolution: 15000
Column name: Kinetex Evo C18 2.6 um 50 x 2.1 mm
Retention time: 8.175 min
Base peak: 296.1468
Precursor m/z: 296.1467
Precursor type: [M+H]+
m/z	relative intensity	assigned
58.0649	85	C3H8N+
65.0384	8	C5H5+
70.0649	9	C4H8N+
77.0384	12	C6H5+
79.0542	11	C6H7+
84.0806	8	C5H10N+
91.0542	308	C7H7+
103.0542	17	C8H7+
105.0445	17	C6H5N2+
115.0542	256	C9H7+
116.0619	15	C9H8+
117.0698	34	C9H9+
121.0109	11	C7H5S+
123.0259	10	C7H7S+
128.0619	57	C10H8+
129.0698	20	C10H9+
134.0182	8	C8H6S+
135.0261	7	C8H7S+
141.0697	55	C11H9+
147.0261	55	C9H7S+
152.062	23	C12H8+
155.0603	14	C10H7N2+
165.0698	233	C13H9+
166.0778	7	C13H10+
173.0415	5	C11H9S+
176.0619	16	C14H8+
177.07	18	C14H9+
178.0776	464	C14H10+
179.0854	27	C14H11+
189.0699	100	C15H9+
190.0776	40	C15H10+
191.0854	124	C15H11+
192.093	9	C15H12+
201.07	19	C16H9+
202.0776	999	C16H10+
203.0854	191	C16H11+
208.034	55	C14H8S+
209.042	23	C14H9S+
210.0498	39	C14H10S+
215.0854	245	C17H11+
216.0932	66	C17H12+
217.1011	90	C17H13+
221.0418	640	C15H9S+
222.0501	15	C15H10S+
223.0571	9	C15H11S+
234.0496	126	C16H10S+
235.0572	49	C16H11S+
