Mass spectrum: Dibucaine; LC-ESI-ITFT; MS2; CE: 60%; R=7500; [M+H]+
Name: Dibucaine
Name: 2-Butoxy-N-[2-(diethylamino)ethyl]quinoline-4-carboxamide
Formula: C20H29N3O2
Exact mass: 343.226
SMILES: CCCCOC1=CC(C(=O)NCCN(CC)CC)=C2C=CC=CC2=N1
InChI: InChI=1S/C20H29N3O2/c1-4-7-14-25-19-15-17(16-10-8-9-11-18(16)22-19)20(24)21-12-13-23(5-2)6-3/h8-11,15H,4-7,12-14H2,1-3H3,(H,21,24)
Instrument: LTQ Orbitrap XL Thermo Fisher Scientific
Instrument type: LC-ESI-ITFT
Ms type: MS2
Ion mode: POSITIVE
Ionization: ESI
Fragmentation mode: HCD
Collision energy: 60% (nominal)
Resolution: 7500
Column name: Hypersil GOLD C18 1.9 um 100 x 2.1 mm Thermo Fisher Scientific
Precursor m/z: 344.2333
Precursor type: [M+H]+
m/z	relative intensity
57.0697	4
57.0981	2
72.0807	4
74.0963	20
100.1122	56
116.0495	92
130.0652	3
132.0444	3
144.0445	113
145.0526	1
146.0601	12
157.0886	1
158.0602	14
160.0761	1
170.0965	2
171.0554	48
172.0395	256
182.0962	6
187.0867	16
200.1071	11
202.1228	8
215.0817	999
225.1388	4
227.1183	37
228.1022	88
243.1497	12
271.1444	646
