Mass spectrum: Nylidrin; LC-ESI-ITFT; MS2; CE: 40%; R=15000; [M+H]+
Name: Nylidrin
Name: 4-[1-hydroxy-2-(4-phenylbutan-2-ylamino)propyl]phenol
Formula: C19H25NO2
Exact mass: 299.1885
SMILES: CC(CCC1=CC=CC=C1)NC(C)C(C2=CC=C(C=C2)O)O
InChI: InChI=1S/C19H25NO2/c1-14(8-9-16-6-4-3-5-7-16)20-15(2)19(22)17-10-12-18(21)13-11-17/h3-7,10-15,19-22H,8-9H2,1-2H3
Instrument: LTQ Orbitrap XL Thermo Scientific
Instrument type: LC-ESI-ITFT
Ms type: MS2
Ion mode: POSITIVE
Ionization: ESI
Fragmentation mode: CID
Collision energy: 40% (nominal)
Resolution: 15000
Column name: Kinetex Evo C18 2.6 um 50 x 2.1 mm
Retention time: 6.812 min
Base peak: 300.1956
Precursor m/z: 300.1958
Precursor type: [M+H]+
m/z	relative intensity	assigned
91.0542	1	C7H7+
133.0647	1	C9H9O+
135.0805	5	C9H11O+
148.1121	1	C10H14N+
150.0913	25	C9H12NO+
150.1277	7	C10H16N+
178.1227	23	C11H16NO+
227.0584	2	C13H9NO3+
282.1853	999	C19H24NO+
283.1885	6	C14H25N3O3+
300.1957	76	C19H26NO2+
