Mass spectrum: Metoclopramide; LC-ESI-ITFT; MS2; CE: 170%; R=15000; [M+H]+
Name: Metoclopramide
Name: 4-amino-5-chloro-N-[2-(diethylamino)ethyl]-2-methoxybenzamide
Formula: C14H22ClN3O2
Exact mass: 299.1401
SMILES: CCN(CC)CCNC(=O)C1=CC(=C(C=C1OC)N)Cl
InChI: InChI=1S/C14H22ClN3O2/c1-4-18(5-2)7-6-17-14(19)10-8-11(15)12(16)9-13(10)20-3/h8-9H,4-7,16H2,1-3H3,(H,17,19)
Instrument: LTQ Orbitrap XL Thermo Scientific
Instrument type: LC-ESI-ITFT
Ms type: MS2
Ion mode: POSITIVE
Ionization: ESI
Fragmentation mode: HCD
Collision energy: 170% (nominal)
Resolution: 15000
Column name: Kinetex Evo C18 2.6 um 50 x 2.1 mm
Retention time: 2.819 min
Base peak: 300.1474
Precursor m/z: 300.1473
Precursor type: [M+H]+
m/z	relative intensity	assigned
52.0179	10	C3H2N+
63.0227	93	C5H3+
64.018	18	C4H2N+
65.0385	14	C5H5+
66.0461	5	C5H6+
72.9839	48	C3H2Cl+
78.0338	999	C5H4N+
90.0338	66	C6H4N+
91.0416	13	C6H5N+
92.0494	8	C6H6N+
93.0573	23	C6H7N+
98.9996	47	C5H4Cl+
105.0447	42	C6H5N2+
108.0442	6	C6H6NO+
113.0027	415	C5H4ClN+
114.0105	9	C5H5ClN+
127.0185	7	C6H6ClN+
139.0056	10	C6H4ClN2+
140.0138	12	C6H5ClN2+
140.9976	51	C6H4ClNO+
168.009	7	C7H5ClN2O+
