Mass spectrum: Neoxaline; LC-ESI-ITFT; MS2; CE: 40%; R=7500; [M-H]-
Name: Neoxaline
Name: 11-hydroxy-14-(1H-imidazol-5-ylmethylidene)-2-methoxy-9-(2-methylbut-3-en-2-yl)-2,13,16-triazatetracyclo[7.7.0.01,13.03,8]hexadeca-3,5,7-triene-12,15-dione
Formula: C23H25N5O4
Exact mass: 435.19065
SMILES: CC(C)(C=C)C12CC(C(=O)N3C1(NC(=O)C3=CC4=CN=CN4)N(C5=CC=CC=C25)OC)O
InChI: InChI=1S/C23H25N5O4/c1-5-21(2,3)22-11-18(29)20(31)27-17(10-14-12-24-13-25-14)19(30)26-23(22,27)28(32-4)16-9-7-6-8-15(16)22/h5-10,12-13,18,29H,1,11H2,2-4H3,(H,24,25)(H,26,30)
Instrument: LTQ Orbitrap XL Thermo Scientific
Instrument type: LC-ESI-ITFT
Ms type: MS2
Ion mode: NEGATIVE
Ionization: ESI
Fragmentation mode: HCD
Collision energy: 40 % (nominal)
Resolution: 7500
Column name: Hypersil GOLD C18 1.9 um 100 x 2.1 mm Thermo Fisher Scientific
Retention time: 14.066 min
Base peak: 434.1815
Precursor m/z: 434.1834
Precursor type: [M-H]-
Precursor intensity: 749282.6470947
m/z	relative intensity	assigned
199.0061	95	C14HNO-
262.085	96	C15H10N4O-
346.166	999	C20H20N5O-
434.1815	345	C23H24N5O4-
