Mass spectrum: (R)Semivioxanthin; LC-ESI-ITFT; MS2; CE: 50%; R=7500; [M+H]+
Name: (R)Semivioxanthin
Name: 3-Methyl-7-methoxy-9,10-dihydroxy-3,4-dihydro-1H-naphtho[2,3-c]pyran-1-one
Name: 9,10-dihydroxy-7-methoxy-3-methyl-3,4-dihydrobenzo[g]isochromen-1-one
Formula: C15H14O5
Exact mass: 274.0841
SMILES: CC1CC2=CC3=CC(=CC(=C3C(=C2C(=O)O1)O)O)OC
InChI: InChI=1S/C15H14O5/c1-7-3-8-4-9-5-10(19-2)6-11(16)12(9)14(17)13(8)15(18)20-7/h4-7,16-17H,3H2,1-2H3
Instrument: LTQ Orbitrap XL Thermo Scientific
Instrument type: LC-ESI-ITFT
Ms type: MS2
Ion mode: POSITIVE
Ionization: ESI
Fragmentation mode: HCD
Collision energy: 50 % (nominal)
Resolution: 7500
Column name: Hypersil GOLD C18 1.9 um 100 x 2.1 mm Thermo Fisher Scientific
Retention time: 21.708 min
Base peak: 275.0918
Precursor m/z: 275.0914
Precursor type: [M+H]+
Precursor intensity: 3798762.154297
m/z	relative intensity	assigned
183.08	17	C13H11O+
190.0624	5	C11H10O3+
197.0598	27	C13H9O2+
198.0673	9	C13H10O2+
201.0909	13	C13H13O2+
205.0859	12	C12H13O3+
211.0753	24	C14H11O2+
214.0632	9	C13H10O3+
225.055	14	C14H9O3+
226.0627	6	C14H10O3+
229.0859	301	C14H13O3+
239.0692	4	C15H11O3+
242.0571	27	C14H10O4+
247.0963	26	C14H15O4+
257.0808	999	C15H13O4+
275.0914	91	C15H15O5+
