Mass spectrum: Dibucaine; ESI-QTOF; MS2; CE: 35eV; R=15000; [M+H]+
Name: Dibucaine
Name: 2-Butoxy-N-[2-(diethylamino)ethyl]quinoline-4-carboxamide
Formula: C20H29N3O2
Exact mass: 343.226
SMILES: CCCCOC1=CC(C(=O)NCCN(CC)CC)=C2C=CC=CC2=N1
InChI: InChI=1S/C20H29N3O2/c1-4-7-14-25-19-15-17(16-10-8-9-11-18(16)22-19)20(24)21-12-13-23(5-2)6-3/h8-11,15H,4-7,12-14H2,1-3H3,(H,21,24)
Instrument: TripleTOF 5600+SCIEX
Instrument type: ESI-QTOF
Ms type: MS2
Ion mode: POSITIVE
Ionization: ESI
Fragmentation mode: CID
Collision energy: 35 eV
Resolution: 15000
Precursor m/z: 344.2333
Precursor type: [M+H]+
m/z	relative intensity
57.0726	2
72.0826	1
74.0983	15
89.0399	1
100.1132	18
116.0504	56
128.0505	1
130.066	2
132.0453	1
135.0814	1
143.0728	1
144.0453	70
145.0531	1
146.0608	6
153.0458	3
157.0896	1
158.0609	6
160.0766	1
167.074	1
169.0768	1
170.0973	1
171.0564	21
172.0403	100
182.0975	3
183.1057	1
187.0877	7
198.1292	1
199.1243	1
200.1081	7
202.1238	4
215.0829	552
225.14	2
227.1194	17
228.1034	39
241.2371	1
243.1506	4
271.1463	999
288.1726	2
344.2333	27
