Mass spectrum: Sulthiame; LC-ESI-ITFT; MS2; CE: 80%; R=15000; [M+H]+
Name: Sulthiame
Name: 4-(1,1-dioxothiazinan-2-yl)benzenesulfonamide
Formula: C10H14N2O4S2
Exact mass: 290.0395
SMILES: C1CCS(=O)(=O)N(C1)C2=CC=C(C=C2)S(=O)(=O)N
InChI: InChI=1S/C10H14N2O4S2/c11-18(15,16)10-5-3-9(4-6-10)12-7-1-2-8-17(12,13)14/h3-6H,1-2,7-8H2,(H2,11,15,16)
Instrument: LTQ Orbitrap XL Thermo Scientific
Instrument type: LC-ESI-ITFT
Ms type: MS2
Ion mode: POSITIVE
Ionization: ESI
Fragmentation mode: HCD
Collision energy: 80% (nominal)
Resolution: 15000
Column name: Kinetex Evo C18 2.6 um 50 x 2.1 mm
Retention time: 4.525 min
Base peak: 61.0393
Precursor m/z: 291.0468
Precursor type: [M+H]+
m/z	relative intensity	assigned
91.0545	13	C7H7+
92.0495	32	C6H6N+
93.0574	27	C6H7N+
94.0414	24	C6H6O+
104.0495	66	C7H6N+
105.0573	705	C7H7N+
106.065	23	C7H8N+
108.0444	21	C6H6NO+
117.0573	46	C8H7N+
118.0651	114	C8H8N+
119.073	24	C8H9N+
121.0521	15	C7H7NO+
121.0758	18	C7H9N2+
122.06	123	C7H8NO+
130.0651	12	C9H8N+
132.0807	90	C9H10N+
146.0964	22	C10H12N+
147.1042	38	C10H13N+
185.0379	999	C7H9N2O2S+
