Mass spectrum: Terrecyclic Acid; LC-ESI-ITFT; MS2; CE: 60%; R=7500; [M-H]-
Name: Terrecyclic Acid
Name: 11,11-dimethyl-2-methylidene-3-oxotricyclo[4.3.2.01,5]undecane-9-carboxylic acid
Formula: C15H20O3
Exact mass: 248.1412
SMILES: CC1(CC23C(CCC1C2CC(=O)C3=C)C(=O)O)C
InChI: InChI=1S/C15H20O3/c1-8-12(16)6-11-9-4-5-10(13(17)18)15(8,11)7-14(9,2)3/h9-11H,1,4-7H2,2-3H3,(H,17,18)
Instrument: LTQ Orbitrap XL Thermo Scientific
Instrument type: LC-ESI-ITFT
Ms type: MS2
Ion mode: NEGATIVE
Ionization: ESI
Fragmentation mode: HCD
Collision energy: 60 % (nominal)
Resolution: 7500
Column name: Hypersil GOLD C18 1.9 um 100 x 2.1 mm Thermo Fisher Scientific
Retention time: 20.535 min
Base peak: 247.1341
Precursor m/z: 247.134
Precursor type: [M-H]-
Precursor intensity: 10269263.89673
m/z	relative intensity	assigned
147.0817	7	C10H11O-
203.1444	100	C14H19O-
247.1341	999	C15H19O3-
