Mass spectrum: Carviolin; LC-ESI-ITFT; MS2; CE: 40%; R=7500; [M+H]+
Name: Carviolin
Name: 1,3-dihydroxy-6-(hydroxymethyl)-8-methoxyanthracene-9,10-dione
Formula: C16H12O6
Exact mass: 300.0634
SMILES: COC1=CC(=CC2=C1C(=O)C3=C(C2=O)C=C(C=C3O)O)CO
InChI: InChI=1S/C16H12O6/c1-22-12-3-7(6-17)2-9-14(12)16(21)13-10(15(9)20)4-8(18)5-11(13)19/h2-5,17-19H,6H2,1H3
Instrument: LTQ Orbitrap XL Thermo Scientific
Instrument type: LC-ESI-ITFT
Ms type: MS2
Ion mode: POSITIVE
Ionization: ESI
Fragmentation mode: HCD
Collision energy: 40 % (nominal)
Resolution: 7500
Column name: Hypersil GOLD C18 1.9 um 100 x 2.1 mm Thermo Fisher Scientific
Retention time: 16.110 min
Base peak: 301.071
Precursor m/z: 301.0707
Precursor type: [M+H]+
Precursor intensity: 5816917.764404
m/z	relative intensity	assigned
255.064	2	C15H11O4+
257.0435	14	C14H9O5+
271.0598	9	C15H11O5+
286.0473	85	C15H10O6+
301.0707	999	C16H13O6+
