Mass spectrum: Antipyrine; LC-ESI-ITFT; MS2; CE: 105%; R=15000; [M+H]+
Name: Antipyrine
Name: 1,5-dimethyl-2-phenylpyrazol-3-one
Formula: C11H12N2O
Exact mass: 188.0950
SMILES: CC1=CC(=O)N(N1C)C2=CC=CC=C2
InChI: InChI=1S/C11H12N2O/c1-9-8-11(14)13(12(9)2)10-6-4-3-5-7-10/h3-8H,1-2H3
Instrument: LTQ Orbitrap XL Thermo Scientific
Instrument type: LC-ESI-ITFT
Ms type: MS2
Ion mode: POSITIVE
Ionization: ESI
Fragmentation mode: CID
Collision energy: 105% (nominal)
Resolution: 15000
Column name: Kinetex Evo C18 2.6 um 50 x 2.1 mm
Retention time: 5.578 min
Base peak: 189.1024
Precursor m/z: 189.1022
Precursor type: [M+H]+
m/z	relative intensity	assigned
56.0492	16	C3H6N+
58.0649	21	C3H8N+
91.0542	26	C7H7+
96.0444	26	C5H6NO+
96.0682	34	C5H8N2+
103.0543	12	C8H7+
104.0495	68	C7H6N+
105.0699	27	C8H9+
106.0652	18	C7H8N+
111.0552	31	C5H7N2O+
117.0574	32	C8H7N+
117.07	37	C9H9+
118.0652	208	C8H8N+
120.0808	250	C8H10N+
129.0699	28	C10H9+
130.0652	360	C9H8N+
131.0729	999	C9H9N+
132.0808	236	C9H10N+
133.0522	19	C8H7NO+
133.076	109	C8H9N2+
134.0965	28	C9H12N+
135.0553	45	C7H7N2O+
144.0808	812	C10H10N+
145.0649	96	C10H9O+
145.0889	16	C10H11N+
146.0839	661	C9H10N2+
146.0964	505	C10H12N+
147.0917	610	C9H11N2+
148.0757	123	C9H10NO+
149.0709	25	C8H9N2O+
158.06	48	C10H8NO+
159.0916	10	C10H11N2+
160.0994	28	C10H12N2+
161.1073	874	C10H13N2+
162.0914	42	C10H12NO+
171.0915	15	C11H11N2+
172.0757	366	C11H10NO+
174.0788	346	C10H10N2O+
