Mass spectrum: Fenpropimorph-OH (TENTATIVE); LC-ESI-QFT; MS2; CE: 42%; R=70000; [M+H]+
Name: Fenpropimorph-OH
Formula: C20H33NO2
Exact mass: 319.2504
SMILES: N(C(*)C(O)C(*))C(*)C(C(*))C(*)C2=C(*)C(*)=C(C=C2)C(C(*))(C)C *=[OH (n=1) & H (n=7)]
Instrument: Q Exactive Plus Orbitrap Thermo Scientific
Instrument type: LC-ESI-QFT
Ms type: MS2
Ion mode: POSITIVE
Ionization: ESI
Fragmentation mode: HCD
Collision energy: 42% (nominal) with stepped collision energies 30% and 55%
Resolution: 70000
Column name: Phenomenex Synergi Polar-RP 2.5 um 100 mm x 3 mm with pre-column
Retention time: 9.73 min
Precursor m/z: 320.2582
Precursor type: [M+H]+
m/z	relative intensity
55.0545	10
59.0493	5
70.0652	8
72.0808	11
73.0649	16
81.07	5
86.0964	4
88.0756	5
91.0542	45
98.0965	115
100.1121	3
102.0914	12
105.07	66
112.1122	4
116.1071	86
117.0701	10
119.0856	6
130.1228	118
131.0855	14
133.1013	266
145.1014	88
147.1164	3
159.1169	8
163.1119	73
174.1405	6
175.1475	4
176.1549	3
177.1273	5
187.1489	8
205.1584	3
276.2691	3
302.2444	3
320.2585	999
