Mass spectrum: Asterric acid; LC-ESI-ITFT; MS2; CE: 50%; R=7500; [M-H]-
Name: Asterric acid
Name: 2-hydroxy-6-(4-hydroxy-2-methoxy-6-methoxycarbonylphenoxy)-4-methylbenzoic acid
Formula: C17H16O8
Exact mass: 348.08452
SMILES: CC1=CC(=C(C(=C1)OC2=C(C=C(C=C2OC)O)C(=O)OC)C(=O)O)O
InChI: InChI=1S/C17H16O8/c1-8-4-11(19)14(16(20)21)12(5-8)25-15-10(17(22)24-3)6-9(18)7-13(15)23-2/h4-7,18-19H,1-3H3,(H,20,21)
Instrument: LTQ Orbitrap XL Thermo Scientific
Instrument type: LC-ESI-ITFT
Ms type: MS2
Ion mode: NEGATIVE
Ionization: ESI
Fragmentation mode: HCD
Collision energy: 50 % (nominal)
Resolution: 7500
Column name: Hypersil GOLD C18 1.9 um 100 x 2.1 mm Thermo Fisher Scientific
Retention time: 17.901 min
Base peak: 695.1631
Precursor m/z: 347.0772
Precursor type: [M-H]-
Precursor intensity: 17597618.97949
m/z	relative intensity	assigned
105.0347	104	C7H5O-
122.0376	106	C7H6O2-
149.0246	999	C8H5O3-
166.0273	184	C8H6O4-
197.0456	3	C9H9O5-
201.0702	1	C16H9-
212.0477	6	C13H8O3-
217.0867	1	C13H13O3-
229.0507	20	C13H9O4-
244.0749	1	C14H12O4-
256.0376	56	C14H8O5-
261.0767	7	C14H13O5-
270.0541	6	C15H10O5-
271.0613	426	C15H11O5-
285.0769	7	C16H13O5-
288.0633	4	C15H12O6-
297.0404	24	C16H9O6-
303.0874	61	C16H15O6-
314.0431	2	C16H10O7-
315.0504	5	C16H11O7-
329.067	40	C17H13O7-
347.0773	62	C17H15O8-
