Mass spectrum: Metoclopramide; ESI-QTOF; MS2; CE: 35eV; R=15000; [M+H]+
Name: Metoclopramide
Name: 4-Amino-5-chloro-N-[2-(diethylamino)ethyl]-2-methoxybenzamide
Formula: C14H22ClN3O2
Exact mass: 299.1401
SMILES: CCN(CC)CCNC(=O)C1=CC(Cl)=C(N)C=C1OC
InChI: InChI=1S/C14H22ClN3O2/c1-4-18(5-2)7-6-17-14(19)10-8-11(15)12(16)9-13(10)20-3/h8-9H,4-7,16H2,1-3H3,(H,17,19)
Instrument: TripleTOF 5600+SCIEX
Instrument type: ESI-QTOF
Ms type: MS2
Ion mode: POSITIVE
Ionization: ESI
Fragmentation mode: CID
Collision energy: 35 eV
Resolution: 15000
Precursor m/z: 300.1474
Precursor type: [M+H]+
m/z	relative intensity
90.0342	1
93.0575	1
100.1121	2
113.0024	3
120.0438	1
126.0099	3
128.0255	2
129.0094	1
140.9968	8
147.0544	1
148.0621	4
156.02	9
183.0312	85
184.0154	552
212.034	74
227.0574	999
300.1474	1
