Mass spectrum: Roquefortine C; LC-ESI-ITFT; MS2; CE: 60%; R=7500; [M+H]+
Name: Roquefortine C
Name: 4-(1H-imidazol-5-ylmethylidene)-9-(2-methylbut-3-en-2-yl)-2,5,16-triazatetracyclo[7.7.0.02,7.010,15]hexadeca-10,12,14-triene-3,6-dione
Formula: C22H23N5O2
Exact mass: 389.1852
SMILES: CC(C)(C=C)C12CC3C(=O)NC(=CC4=CN=CN4)C(=O)N3C1NC5=CC=CC=C25
InChI: InChI=1S/C22H23N5O2/c1-4-21(2,3)22-10-17-18(28)25-16(9-13-11-23-12-24-13)19(29)27(17)20(22)26-15-8-6-5-7-14(15)22/h4-9,11-12,17,20,26H,1,10H2,2-3H3,(H,23,24)(H,25,28)
Instrument: LTQ Orbitrap XL Thermo Scientific
Instrument type: LC-ESI-ITFT
Ms type: MS2
Ion mode: POSITIVE
Ionization: ESI
Fragmentation mode: HCD
Collision energy: 60 % (nominal)
Resolution: 7500
Column name: Hypersil GOLD C18 1.9 um 100 x 2.1 mm Thermo Fisher Scientific
Retention time: 16.138 min
Base peak: 390.1933
Precursor m/z: 390.1925
Precursor type: [M+H]+
Precursor intensity: 52453451.43262
m/z	relative intensity	assigned
69.0447	8	C3H5N2+
69.0699	5	C5H9+
81.0445	9	C4H5N2+
85.0395	10	C3H5N2O+
106.0401	5	C5H4N3+
108.0557	36	C5H6N3+
109.0636	20	C5H7N3+
120.0557	12	C6H6N3+
122.0714	10	C6H8N3+
125.0349	6	C5H5N2O2+
130.0652	96	C9H8N+
132.0804	3	C9H10N+
136.0505	9	C6H6N3O+
137.0822	18	C6H9N4+
142.0653	8	C10H8N+
144.0814	5	C10H10N+
149.0345	8	C7H5N2O2+
149.0823	13	C7H9N4+
155.0729	6	C11H9N+
156.081	15	C11H10N+
159.0915	5	C10H11N2+
162.0299	59	C7H4N3O2+
163.0616	67	C7H7N4O+
164.069	7	C7H8N4O+
165.0773	126	C7H9N4O+
169.0887	15	C12H11N+
170.0603	8	C11H8NO+
175.0613	4	C8H7N4O+
176.0457	10	C8H6N3O2+
177.0774	2	C8H9N4O+
183.1044	44	C13H13N+
191.0566	47	C8H7N4O2+
192.0644	230	C8H8N4O2+
193.0722	999	C8H9N4O2+
196.1121	12	C14H14N+
198.1278	169	C14H16N+
205.0718	7	C9H9N4O2+
277.108	2	C16H13N4O+
322.1301	38	C17H16N5O2+
334.1311	2	C18H16N5O2+
