Mass spectrum: Cyclizine; LC-ESI-QTOF; MS2; CE: 30 eV; R=3600; [M+H]+
Name: Cyclizine
Name: 1-(Diphenylmethyl)-4-methylpiperazine
Formula: C18H22N2
Exact mass: 266.1783
SMILES: CN1CCN(CC1)C(C1=CC=CC=C1)C1=CC=CC=C1
InChI: InChI=1S/C18H22N2/c1-19-12-14-20(15-13-19)18(16-8-4-2-5-9-16)17-10-6-3-7-11-17/h2-11,18H,12-15H2,1H3
Instrument: 6544 QTOF Agilent
Instrument type: LC-ESI-QTOF
Ms type: MS2
Ion mode: POSITIVE
Ionization: ESI
Fragmentation mode: CID
Collision energy: 30 eV
Resolution: 3600
Precursor m/z: 267.1856
Precursor type: [M+H]+
m/z	relative intensity
65.0371	24
72.0739	4
77.0397	2
96.9296	24
102.0393	25
115.13	1
127.0473	17
128.056	100
129.0579	15
139.0491	17
141.0602	42
142.0629	46
150.9849	18
151.0469	91
152.0529	806
153.0539	48
164.047	22
165.06	999
166.0662	237
167.0748	834
168.0726	37
177.0218	25
208.1035	17
