Mass spectrum: Etofylline; LC-ESI-QFT; MS2; CE: 15%; R=17500; [M+H]+
Name: Etofylline
Name: 7-(2-Hydroxyethyl)-1,3-dimethyl-3,7-dihydro-1H-purine-2,6-dione
Formula: C9H12N4O3
Exact mass: 224.0909
SMILES: CN1C2=C(N(CCO)C=N2)C(=O)N(C)C1=O
InChI: InChI=1S/C9H12N4O3/c1-11-7-6(8(15)12(2)9(11)16)13(3-4-14)5-10-7/h5,14H,3-4H2,1-2H3
Instrument: Q Exactive Thermo Fisher Scientific
Instrument type: LC-ESI-QFT
Ms type: MS2
Ion mode: POSITIVE
Ionization: ESI
Fragmentation mode: HCD
Collision energy: 15% (nominal)
Resolution: 17500
Column name: Hypersil GOLD 1.9 um 2.1 x 100 mm Thermo Fisher Scientific
Precursor m/z: 225.0983
Precursor type: [M+H]+
m/z	relative intensity
69.0456	1
96.0561	1
124.0508	14
181.0721	492
225.0983	999
