Mass spectrum: Mefruside; LC-ESI-QTOF; MS2; CE: 10 eV; R=3600; [M+H]+
Name: Mefruside
Name: 4-Chloro-N1-methyl-N1-[(2-methyloxolan-2-yl)methyl]benzene-1,3-disulfonamide
Formula: C13H19ClN2O5S2
Exact mass: 382.0424
SMILES: CN(CC1(C)CCCO1)S(=O)(=O)C1=CC=C(Cl)C(=C1)S(N)(=O)=O
InChI: InChI=1S/C13H19ClN2O5S2/c1-13(6-3-7-21-13)9-16(2)23(19,20)10-4-5-11(14)12(8-10)22(15,17)18/h4-5,8H,3,6-7,9H2,1-2H3,(H2,15,17,18)
Instrument: 6611 QTOF Agilent
Instrument type: LC-ESI-QTOF
Ms type: MS2
Ion mode: POSITIVE
Ionization: ESI
Fragmentation mode: CID
Collision energy: 10 eV
Resolution: 3600
Precursor m/z: 383.0497
Precursor type: [M+H]+
m/z	relative intensity
57.0336	129
59.0608	61
69.0723	58
71.0855	79
79.0555	67
81.0698	999
84.0799	570
86.0586	84
99.0806	657
128.105	166
129.1138	889
189.9704	224
203.9904	66
253.9305	342
267.9492	116
284.9749	783
296.9749	120
383.0497	340
