Mass spectrum: Mefruside; LC-ESI-ITFT; MS2; CE: 60%; R=7500; [M+H]+
Name: Mefruside
Name: 4-Chloro-N1-methyl-N1-[(2-methyloxolan-2-yl)methyl]benzene-1,3-disulfonamide
Formula: C13H19ClN2O5S2
Exact mass: 382.0424
SMILES: CN(CC1(C)CCCO1)S(=O)(=O)C1=CC=C(Cl)C(=C1)S(N)(=O)=O
InChI: InChI=1S/C13H19ClN2O5S2/c1-13(6-3-7-21-13)9-16(2)23(19,20)10-4-5-11(14)12(8-10)22(15,17)18/h4-5,8H,3,6-7,9H2,1-2H3,(H2,15,17,18)
Instrument: LTQ Orbitrap XL Thermo Fisher Scientific
Instrument type: LC-ESI-ITFT
Ms type: MS2
Ion mode: POSITIVE
Ionization: ESI
Fragmentation mode: HCD
Collision energy: 60% (nominal)
Resolution: 7500
Column name: Hypersil GOLD C18 1.9 um 100 x 2.1 mm Thermo Fisher Scientific
Precursor m/z: 383.0497
Precursor type: [M+H]+
m/z	relative intensity
57.0333	15
69.0698	27
73.0105	13
79.054	93
81.0697	999
84.0806	769
86.0599	132
96.0807	64
97.0642	34
99.0804	205
108.9834	12
110.0964	42
128.1068	118
129.1146	163
135.6309	13
135.6939	11
140.9731	16
142.0052	64
142.9894	200
156.0214	27
172.9455	10
188.9307	29
198.9009	32
200.4558	19
202.5619	11
202.6268	12
202.6967	16
203.9883	52
212.2244	19
217.9785	586
253.9343	110
267.9501	12
268.5966	11
273.8043	33
350.8197	23
