Mass spectrum: Skyrin; LC-ESI-ITFT; MS2; CE: 40%; R=7500; [M+H]+
Name: Skyrin
Name: 2,4,5-trihydroxy-7-methyl-1-(2,4,5-trihydroxy-7-methyl-9,10-dioxoanthracen-1-yl)anthracene-9,10-dione
Formula: C30H18O10
Exact mass: 538.0900
SMILES: CC1=CC2=C(C(=C1)O)C(=O)C3=C(C=C(C(=C3C2=O)C4=C5C(=C(C=C4O)O)C(=O)C6=C(C5=O)C=C(C=C6O)C)O)O
InChI: InChI=1S/C30H18O10/c1-9-3-11-19(13(31)5-9)29(39)23-17(35)7-15(33)21(25(23)27(11)37)22-16(34)8-18(36)24-26(22)28(38)12-4-10(2)6-14(32)20(12)30(24)40/h3-8,31-36H,1-2H3
Instrument: LTQ Orbitrap XL Thermo Scientific
Instrument type: LC-ESI-ITFT
Ms type: MS2
Ion mode: POSITIVE
Ionization: ESI
Fragmentation mode: HCD
Collision energy: 40 % (nominal)
Resolution: 7500
Column name: Hypersil GOLD C18 1.9 um 100 x 2.1 mm Thermo Fisher Scientific
Retention time: 26.963 min
Base peak: 539.0974
Precursor m/z: 539.0973
Precursor type: [M+H]+
Precursor intensity: 5222717.011719
m/z	relative intensity	assigned
135.0443	136	C8H7O2+
217.0492	644	C12H9O4+
241.0493	104	C14H9O4+
269.0452	46	C15H9O5+
270.0511	85	C15H10O5+
282.0522	196	C16H10O5+
283.06	327	C16H11O5+
295.0611	131	C17H11O5+
297.0387	642	C16H9O6+
427.0797	61	C25H15O7+
453.0976	102	C27H17O7+
465.0948	253	C28H17O7+
469.0911	999	C27H17O8+
476.0896	58	C29H16O7+
479.0767	154	C28H15O8+
493.0908	534	C29H17O8+
503.0753	357	C30H15O8+
504.0838	329	C30H16O8+
511.104	322	C29H19O9+
521.0855	813	C30H17O9+
539.096	801	C30H19O10+
