Mass spectrum: Antipyrine; LC-ESI-ITFT; MS2; CE: 85%; R=15000; [M+H]+
Name: Antipyrine
Name: 1,5-dimethyl-2-phenylpyrazol-3-one
Formula: C11H12N2O
Exact mass: 188.0950
SMILES: CC1=CC(=O)N(N1C)C2=CC=CC=C2
InChI: InChI=1S/C11H12N2O/c1-9-8-11(14)13(12(9)2)10-6-4-3-5-7-10/h3-8H,1-2H3
Instrument: LTQ Orbitrap XL Thermo Scientific
Instrument type: LC-ESI-ITFT
Ms type: MS2
Ion mode: POSITIVE
Ionization: ESI
Fragmentation mode: CID
Collision energy: 85% (nominal)
Resolution: 15000
Column name: Kinetex Evo C18 2.6 um 50 x 2.1 mm
Retention time: 5.575 min
Base peak: 189.1023
Precursor m/z: 189.1022
Precursor type: [M+H]+
m/z	relative intensity	assigned
56.0492	16	C3H6N+
58.0648	26	C3H8N+
77.0384	7	C6H5+
91.0543	22	C7H7+
94.0651	6	C6H8N+
96.0445	18	C5H6NO+
96.0681	32	C5H8N2+
103.0543	19	C8H7+
104.0494	66	C7H6N+
105.0337	12	C7H5O+
105.0698	16	C8H9+
106.065	16	C7H8N+
111.0553	27	C5H7N2O+
115.0543	9	C9H7+
117.0574	32	C8H7N+
117.0698	33	C9H9+
118.0651	224	C8H8N+
119.0603	10	C7H7N2+
120.0808	261	C8H10N+
129.07	24	C10H9+
130.0652	330	C9H8N+
131.0729	999	C9H9N+
132.0808	241	C9H10N+
133.0519	21	C8H7NO+
133.076	110	C8H9N2+
134.0964	26	C9H12N+
135.0552	37	C7H7N2O+
144.0808	832	C10H10N+
145.0649	81	C10H9O+
145.0886	21	C10H11N+
146.0838	635	C9H10N2+
146.0964	507	C10H12N+
147.0916	590	C9H11N2+
148.0756	135	C9H10NO+
149.0709	25	C8H9N2O+
154.0649	8	C11H8N+
157.0526	7	C10H7NO+
158.06	51	C10H8NO+
159.0918	11	C10H11N2+
160.0994	24	C10H12N2+
161.1073	841	C10H13N2+
162.0914	42	C10H12NO+
171.0918	14	C11H11N2+
172.0757	391	C11H10NO+
174.0788	332	C10H10N2O+
