Mass spectrum: Communesin A; LC-ESI-ITFT; MS2; CE: 30%; R=7500; [M+H]+
Name: Communesin A
Name: 1-Acetyl-17-(3,3-dimethyloxiranyl)-1,2,3,8a,9,14,15,16a-octahydro-9-methyl-13,16-methano-8H,16H-pyrrolo[2`,3`:2,3]pyrido[4,3-o]quinindoline
Name: 1-[25-(3,3-dimethyloxiran-2-yl)-15-methyl-1,3,13,15-tetrazaheptacyclo[18.4.1.02,6.06,22.07,12.014,22.016,21]pentacosa-7,9,11,16,18,20-hexaen-3-yl]ethanone
Formula: C28H32N4O2
Exact mass: 456.2525
SMILES: CC(=O)N1CCC23C1N4CCC25C(NC6=CC=CC=C36)N(C7=CC=CC(=C57)C4C8C(O8)(C)C)C
InChI: InChI=1S/C28H32N4O2/c1-16(33)31-14-12-27-18-9-5-6-10-19(18)29-24-28(27)13-15-32(25(27)31)22(23-26(2,3)34-23)17-8-7-11-20(21(17)28)30(24)4/h5-11,22-25,29H,12-15H2,1-4H3
Instrument: LTQ Orbitrap XL Thermo Scientific
Instrument type: LC-ESI-ITFT
Ms type: MS2
Ion mode: POSITIVE
Ionization: ESI
Fragmentation mode: HCD
Collision energy: 30 % (nominal)
Resolution: 7500
Column name: Hypersil GOLD C18 1.9 um 100 x 2.1 mm Thermo Fisher Scientific
Retention time: 20.195 min
Base peak: 457.2602
Precursor m/z: 457.2598
Precursor type: [M+H]+
Precursor intensity: 16426776.13379
m/z	relative intensity	assigned
159.0916	12	C10H11N2+
168.0804	2	C12H10N+
183.0917	18	C12H11N2+
185.1073	210	C12H13N2+
186.1108	13	C7H14N4O2+
197.1074	41	C13H13N2+
198.1152	37	C13H14N2+
199.123	9	C13H15N2+
201.1023	61	C12H13N2O+
210.1273	4	C15H16N+
237.1379	7	C16H17N2+
238.1228	3	C16H16NO+
240.1391	5	C16H18NO+
255.1494	33	C16H19N2O+
257.165	13	C16H21N2O+
323.1532	3	C23H19N2+
340.1795	3	C23H22N3+
381.1948	11	C26H25N2O+
382.1916	10	C25H24N3O+
385.2026	999	C24H25N4O+
399.2179	121	C25H27N4O+
400.2016	11	C25H26N3O2+
439.2499	21	C28H31N4O+
440.234	32	C28H30N3O2+
457.26	390	C28H33N4O2+
