Mass spectrum: Atrazine-desamin (TENTATIVE); LC-ESI-QFT; MS2; CE: 30%; R=70000; [M+H]+
Name: Atrazine-desamin
Formula: C8H13ClN4O2
Exact mass: 232.0718
SMILES: *NC1=NC(=NC(=N1)Cl)N* |$R1;;;;;;;;;;R2;;$| R1 = [C3H5 | C3H7 ] R2 = [C2H3|C2H5]
Instrument: Q Exactive Plus Orbitrap Thermo Scientific
Instrument type: LC-ESI-QFT
Ms type: MS2
Ion mode: POSITIVE
Ionization: ESI
Fragmentation mode: HCD
Collision energy: 30% (nominal)
Resolution: 70000
Column name: Waters UPLC BEH C18 1.7 um 2.1 mm x 100 mm with pre-column
Retention time: 10.57 min
Precursor m/z: 233.0796
Precursor type: [M+H]+
m/z	relative intensity
59.0494	107
67.0544	6
69.0084	934
69.0448	7
71.0604	30
79.0057	88
91.0538	6
95.0854	8
97.0396	999
104.0009	31
104.9851	11
105.0213	11
112.0504	7
130.0166	6
139.0614	8
147.0068	46
172.0383	28
173.0353	15
175.0381	263
190.0487	8
