Mass spectrum: Imidacloprid-nitrosoimine (TENTATIVE); LC-ESI-QFT; MS2; CE: 30%; R=70000; [M+H]+
Name: Imidacloprid-nitrosoimine
Name: 2-chloro-5-{[2-(nitrosoamino)-4,5-dihydro-1H-imidazol-1-yl]methyl}pyridine
Formula: C9H10ClN5O
Exact mass: 239.0574
SMILES: C1CN(C(=N1)NN=O)CC2=CN=C(C=C2)Cl
InChI: InChI=1S/C9H10ClN5O/c10-8-2-1-7(5-12-8)6-15-4-3-11-9(15)13-14-16/h1-2,5H,3-4,6H2,(H,11,13,16)
Instrument: Q Exactive Plus Orbitrap Thermo Scientific
Instrument type: LC-ESI-QFT
Ms type: MS2
Ion mode: POSITIVE
Ionization: ESI
Fragmentation mode: HCD
Collision energy: 30% (nominal)
Resolution: 70000
Column name: Waters UPLC BEH C18 1.7 um 2.1 mm x 100 mm with pre-column
Retention time: 7.84 min
Precursor m/z: 240.0652
Precursor type: [M+H]+
m/z	relative intensity
56.0498	999
84.0556	239
90.034	134
91.0543	205
105.0337	94
107.0492	751
117.0699	386
119.0855	232
126.0106	299
128.0262	180
131.0489	84
131.0602	81
144.0209	77
163.0754	472
175.0979	246
177.0909	74
181.0278	72
209.0587	551
