Mass spectrum: Terrecyclic Acid; LC-ESI-ITFT; MS2; CE: 30%; R=7500; [M+H]+
Name: Terrecyclic Acid
Name: 11,11-dimethyl-2-methylidene-3-oxotricyclo[4.3.2.01,5]undecane-9-carboxylic acid
Formula: C15H20O3
Exact mass: 248.1412
SMILES: CC1(CC23C(CCC1C2CC(=O)C3=C)C(=O)O)C
InChI: InChI=1S/C15H20O3/c1-8-12(16)6-11-9-4-5-10(13(17)18)15(8,11)7-14(9,2)3/h9-11H,1,4-7H2,2-3H3,(H,17,18)
Instrument: LTQ Orbitrap XL Thermo Scientific
Instrument type: LC-ESI-ITFT
Ms type: MS2
Ion mode: POSITIVE
Ionization: ESI
Fragmentation mode: HCD
Collision energy: 30 % (nominal)
Resolution: 7500
Column name: Hypersil GOLD C18 1.9 um 100 x 2.1 mm Thermo Fisher Scientific
Retention time: 20.486 min
Base peak: 249.1493
Precursor m/z: 249.1485
Precursor type: [M+H]+
Precursor intensity: 7451942.437256
m/z	relative intensity	assigned
105.0702	352	C8H9+
107.0858	252	C8H11+
109.065	76	C7H9O+
119.0858	811	C9H11+
121.1014	131	C9H13+
133.1014	627	C10H13+
145.1015	346	C11H13+
147.0808	999	C10H11O+
147.1172	394	C11H15+
159.1171	385	C12H15+
161.0964	557	C11H13O+
161.1329	895	C12H17+
165.0913	103	C10H13O2+
171.1171	120	C13H15+
175.1123	190	C12H15O+
175.1485	692	C13H19+
177.1277	113	C12H17O+
185.1328	686	C14H17+
189.1279	284	C13H17O+
193.0861	180	C11H13O3+
203.1434	893	C14H19O+
207.1374	51	C13H19O2+
213.1283	88	C15H17O+
221.1541	56	C14H21O2+
231.1384	370	C15H19O2+
249.1491	150	C15H21O3+
