Mass spectrum: Nylidrin; LC-ESI-QFT; MS2; CE: 80%; R=30000; [M+H]+
Name: Nylidrin
Name: 4-{1-Hydroxy-2-[(4-phenylbutan-2-yl)amino]propyl}phenol
Formula: C19H25NO2
Exact mass: 299.1885
SMILES: CC(CCC1=CC=CC=C1)NC(C)C(O)C1=CC=C(O)C=C1
InChI: InChI=1S/C19H25NO2/c1-14(8-9-16-6-4-3-5-7-16)20-15(2)19(22)17-10-12-18(21)13-11-17/h3-7,10-15,19-22H,8-9H2,1-2H3
Instrument: Orbitrap Fusion Tribrid Thermo Fisher Scientific
Instrument type: LC-ESI-QFT
Ms type: MS2
Ion mode: POSITIVE
Ionization: ESI
Fragmentation mode: HCD
Collision energy: 80% (nominal)
Resolution: 30000
Precursor m/z: 300.1959
Precursor type: [M+H]+
m/z	relative intensity
77.0388	71
79.0545	149
91.0544	999
95.0493	24
103.0544	103
105.0701	338
107.0493	64
109.0649	10
115.0543	37
131.0492	13
133.0649	36
134.06	12
135.068	35
150.0917	4
