Mass spectrum: Dibucaine; LC-ESI-ITFT; MS2; CE: 80%; R=15000; [M+H]+
Name: Dibucaine
Name: 2-butoxy-N-[2-(diethylamino)ethyl]quinoline-4-carboxamide
Formula: C20H29N3O2
Exact mass: 343.2260
SMILES: CCCCOC1=NC2=CC=CC=C2C(=C1)C(=O)NCCN(CC)CC
InChI: InChI=1S/C20H29N3O2/c1-4-7-14-25-19-15-17(16-10-8-9-11-18(16)22-19)20(24)21-12-13-23(5-2)6-3/h8-11,15H,4-7,12-14H2,1-3H3,(H,21,24)
Instrument: LTQ Orbitrap XL Thermo Scientific
Instrument type: LC-ESI-ITFT
Ms type: MS2
Ion mode: POSITIVE
Ionization: ESI
Fragmentation mode: HCD
Collision energy: 80% (nominal)
Resolution: 15000
Column name: Kinetex Evo C18 2.6 um 50 x 2.1 mm
Retention time: 8.748 min
Base peak: 344.2335
Precursor m/z: 344.2333
Precursor type: [M+H]+
m/z	relative intensity	assigned
70.0284	5	C3H4NO+
72.0806	37	C4H10N+
74.0963	35	C4H12N+
86.0962	4	C5H12N+
100.1121	74	C6H14N+
116.0495	999	C8H6N+
128.0495	11	C9H6N+
130.0651	17	C9H8N+
132.0446	7	C8H6NO+
143.0604	7	C9H7N2+
143.0729	4	C10H9N+
144.0444	682	C9H6NO+
145.0521	19	C9H7NO+
146.06	30	C9H8NO+
153.0448	5	C10H5N2+
156.0444	7	C10H6NO+
157.0885	5	C11H11N+
158.06	23	C10H8NO+
159.0681	4	C10H9NO+
160.0756	12	C10H10NO+
167.0731	4	C12H9N+
169.0763	4	C11H9N2+
170.0601	13	C11H8NO+
171.0553	174	C10H7N2O+
172.0393	431	C10H6NO2+
176.0706	4	C10H10NO2+
182.0964	6	C13H12N+
183.1046	5	C13H13N+
185.0717	4	C11H9N2O+
187.0867	31	C11H11N2O+
200.1068	15	C13H14NO+
215.0815	382	C12H11N2O2+
227.1182	9	C14H15N2O+
228.1019	14	C14H14NO2+
271.1433	22	C16H19N2O2+
