Mass spectrum: 15 Acetyldeoxynivalenol; LC-ESI-ITFT; MS2; CE: 60%; R=7500; [M+H]+
Name: 15 Acetyldeoxynivalenol
Name: 15-Acetyl-4-deoxynivalenol
Name: (3,10-dihydroxy-1,5-dimethyl-4-oxospiro[8-oxatricyclo[7.2.1.02,7]dodec-5-ene-12,2`-oxirane]-2-yl)methyl acetate
Formula: C17H22O7
Exact mass: 338.1366
SMILES: CC1=CC2C(C(C1=O)O)(C3(CC(C(C34CO4)O2)O)C)COC(=O)C
InChI: InChI=1S/C17H22O7/c1-8-4-11-16(6-22-9(2)18,13(21)12(8)20)15(3)5-10(19)14(24-11)17(15)7-23-17/h4,10-11,13-14,19,21H,5-7H2,1-3H3
Instrument: LTQ Orbitrap XL Thermo Scientific
Instrument type: LC-ESI-ITFT
Ms type: MS2
Ion mode: POSITIVE
Ionization: ESI
Fragmentation mode: HCD
Collision energy: 60 % (nominal)
Resolution: 7500
Column name: Hypersil GOLD C18 1.9 um 100 x 2.1 mm Thermo Fisher Scientific
Retention time: 10.952 min
Base peak: 361.1252
Precursor m/z: 339.1438
Precursor type: [M+H]+
Precursor intensity: 3434522.244629
m/z	relative intensity	assigned
137.0598	886	C8H9O2+
159.0799	613	C11H11O+
175.0753	927	C11H11O2+
189.0902	534	C12H13O2+
201.0908	999	C13H13O2+
203.106	659	C13H15O2+
