Mass spectrum: Stachybotrylactam; LC-ESI-ITFT; MS2; CE: 30%; R=7500; [M+H]+
Name: Stachybotrylactam
Name: 3,4`-dihydroxy-4,4,7,8a-tetramethylspiro[2,3,4a,5,6,7-hexahydro-1H-naphthalene-8,2`-7,8-dihydro-3H-furo[2,3-e]isoindole]-6`-one
Formula: C23H31NO4
Exact mass: 385.2253
SMILES: CC1CCC2C(C(CCC2(C13CC4=C(C=C5C(=C4O3)CNC5=O)O)C)O)(C)C
InChI: InChI=1S/C23H31NO4/c1-12-5-6-17-21(2,3)18(26)7-8-22(17,4)23(12)10-14-16(25)9-13-15(19(14)28-23)11-24-20(13)27/h9,12,17-18,25-26H,5-8,10-11H2,1-4H3,(H,24,27)
Instrument: LTQ Orbitrap XL Thermo Scientific
Instrument type: LC-ESI-ITFT
Ms type: MS2
Ion mode: POSITIVE
Ionization: ESI
Fragmentation mode: HCD
Collision energy: 30 % (nominal)
Resolution: 7500
Column name: Hypersil GOLD C18 1.9 um 100 x 2.1 mm Thermo Fisher Scientific
Retention time: 23.754 min
Base peak: 771.4607
Precursor m/z: 386.2326
Precursor type: [M+H]+
Precursor intensity: 6357007.739502
m/z	relative intensity	assigned
56.1559	6	C3H20+
386.2329	999	C23H32NO4+
