Mass spectrum: Terbuthylazine-OH (TENTATIVE); LC-ESI-QFT; MS2; CE: 30%; R=70000; [M+H]+
Name: Terbuthylazine-OH
Formula: C9H16ClN5O
Exact mass: 245.1052
SMILES: C(*)C(*)NC1=NC(=NC(=N1)Cl)NC(C)(C)C(*) *=[OH (n=1) & H (n=2)]
Instrument: Q Exactive Plus Orbitrap Thermo Scientific
Instrument type: LC-ESI-QFT
Ms type: MS2
Ion mode: POSITIVE
Ionization: ESI
Fragmentation mode: HCD
Collision energy: 30% (nominal)
Resolution: 70000
Column name: Waters UPLC BEH C18 1.7 um 2.1 mm x 100 mm with pre-column
Retention time: 11.65 min
Precursor m/z: 246.113
Precursor type: [M+H]+
m/z	relative intensity
53.0389	4
55.0546	140
61.9794	5
68.0244	94
71.0604	57
73.0648	142
79.0057	275
90.0105	10
96.0556	313
104.001	143
110.0462	24
132.0323	269
138.0774	67
146.0228	162
174.0541	999
