Mass spectrum: Fenpropimorph-OH-desisopropyl (TENTATIVE); LC-ESI-QFT; MS2; CE: 42%; R=70000; [M+H]+
Name: Fenpropimorph-OH-desisopropyl
Formula: C17H29NO2
Exact mass: 279.2192
SMILES: N(C(*)C(O)C(*))C(*)C(C(*))C(*)C2=C(*)C(*)=C(C=C2)C(C(*))(C)C *=[OH (n=1) & H (n=7)]
Instrument: Q Exactive Plus Orbitrap Thermo Scientific
Instrument type: LC-ESI-QFT
Ms type: MS2
Ion mode: POSITIVE
Ionization: ESI
Fragmentation mode: HCD
Collision energy: 42% (nominal) with stepped collision energies 30% and 55%
Resolution: 70000
Column name: Phenomenex Synergi Polar-RP 2.5 um 100 mm x 3 mm with pre-column
Retention time: 9.31 min
Precursor m/z: 280.227
Precursor type: [M+H]+
m/z	relative intensity
55.0545	11
57.0701	8
58.0654	92
69.0699	5
72.0809	316
73.0649	26
91.0543	74
93.0699	9
105.07	68
117.0698	15
119.0854	11
121.1009	4
131.0855	24
133.1013	287
145.1014	145
147.1175	5
159.1167	15
163.1119	110
187.1485	19
205.1591	14
262.1903	8
262.2166	115
263.22	22
280.2272	999
