Mass spectrum: Phentermine; ESI-QTOF; MS2; CE: 30eV; R=15000; [M+H]+
Name: Phentermine
Name: 2-Methyl-1-phenylpropan-2-amine
Formula: C10H15N
Exact mass: 149.1204
SMILES: CC(C)(N)CC1=CC=CC=C1
InChI: InChI=1S/C10H15N/c1-10(2,11)8-9-6-4-3-5-7-9/h3-7H,8,11H2,1-2H3
Instrument: TripleTOF 5600+SCIEX
Instrument type: ESI-QTOF
Ms type: MS2
Ion mode: POSITIVE
Ionization: ESI
Fragmentation mode: CID
Collision energy: 30 eV
Resolution: 15000
Precursor m/z: 150.1278
Precursor type: [M+H]+
m/z	relative intensity
55.0563	2
65.04	14
79.0548	1
91.0546	999
105.0696	19
