Mass spectrum: Amiloride; LC-ESI-ITFT; MS2; CE: 70%; R=15000; [M+H]+
Name: Amiloride
Name: 3,5-diamino-6-chloro-N-(diaminomethylidene)pyrazine-2-carboxamide
Formula: C6H8ClN7O
Exact mass: 229.0479
SMILES: C1(=C(N=C(C(=N1)Cl)N)N)C(=O)N=C(N)N
InChI: InChI=1S/C6H8ClN7O/c7-2-4(9)13-3(8)1(12-2)5(15)14-6(10)11/h(H4,8,9,13)(H4,10,11,14,15)
Instrument: LTQ Orbitrap XL Thermo Scientific
Instrument type: LC-ESI-ITFT
Ms type: MS2
Ion mode: POSITIVE
Ionization: ESI
Fragmentation mode: HCD
Collision energy: 70% (nominal)
Resolution: 15000
Column name: Kinetex Evo C18 2.6 um 50 x 2.1 mm
Retention time: 0.936 min
Base peak: 150.1277
Precursor m/z: 230.0552
Precursor type: [M+H]+
m/z	relative intensity	assigned
60.0554	734	CH6N3+
86.0349	11	C2H4N3O+
88.9901	32	C2H2ClN2+
91.0059	7	C2H4ClN2+
100.9901	29	C3H2ClN2+
108.043	78	C4H4N4+
116.001	800	C3H3ClN3+
143.0119	195	C4H4ClN4+
161.0225	844	C4H6ClN4O+
171.0068	999	C5H4ClN4O+
189.0174	211	C5H6ClN4O2+
