Mass spectrum: Mefruside; LC-ESI-ITFT; MS2; CE: 45%; R=7500; [M+H]+
Name: Mefruside
Name: 4-Chloro-N1-methyl-N1-[(2-methyloxolan-2-yl)methyl]benzene-1,3-disulfonamide
Formula: C13H19ClN2O5S2
Exact mass: 382.0424
SMILES: CN(CC1(C)CCCO1)S(=O)(=O)C1=CC=C(Cl)C(=C1)S(N)(=O)=O
InChI: InChI=1S/C13H19ClN2O5S2/c1-13(6-3-7-21-13)9-16(2)23(19,20)10-4-5-11(14)12(8-10)22(15,17)18/h4-5,8H,3,6-7,9H2,1-2H3,(H2,15,17,18)
Instrument: LTQ Orbitrap XL Thermo Fisher Scientific
Instrument type: LC-ESI-ITFT
Ms type: MS2
Ion mode: POSITIVE
Ionization: ESI
Fragmentation mode: HCD
Collision energy: 45% (nominal)
Resolution: 7500
Column name: Hypersil GOLD C18 1.9 um 100 x 2.1 mm Thermo Fisher Scientific
Precursor m/z: 383.0497
Precursor type: [M+H]+
m/z	relative intensity
57.0333	24
69.0698	19
71.0853	10
73.1157	18
79.0541	40
81.0698	999
84.0806	460
86.0599	125
96.0808	38
97.0647	48
97.3498	13
97.4066	13
99.0804	388
110.0966	30
111.1045	21
112.1119	18
128.1069	179
129.1148	678
135.979	12
142.9893	9
188.9268	20
198.7902	22
200.312	18
203.0849	15
203.1741	15
203.2737	11
203.9881	58
212.0869	6
217.9787	284
221.9986	9
237.9384	14
253.9346	369
267.9504	83
268.4255	13
273.8053	16
284.9769	148
296.9763	48
350.5975	19
