Mass spectrum: Desipramine; LC-ESI-ITFT; MS2; CE: 145%; R=15000; [M+H]+
Name: Desipramine
Name: 3-(5,6-dihydrobenzo[b][1]benzazepin-11-yl)-N-methylpropan-1-amine
Formula: C18H22N2
Exact mass: 266.1783
SMILES: CNCCCN1C2=CC=CC=C2CCC3=CC=CC=C31
InChI: InChI=1S/C18H22N2/c1-19-13-6-14-20-17-9-4-2-7-15(17)11-12-16-8-3-5-10-18(16)20/h2-5,7-10,19H,6,11-14H2,1H3
Instrument: LTQ Orbitrap XL Thermo Scientific
Instrument type: LC-ESI-ITFT
Ms type: MS2
Ion mode: POSITIVE
Ionization: ESI
Fragmentation mode: HCD
Collision energy: 145% (nominal)
Resolution: 15000
Column name: Kinetex Evo C18 2.6 um 50 x 2.1 mm
Retention time: 8.463 min
Base peak: 267.1857
Precursor m/z: 267.1856
Precursor type: [M+H]+
m/z	relative intensity	assigned
56.0493	84	C3H6N+
57.0571	453	C3H7N+
65.0385	48	C5H5+
72.0807	682	C4H10N+
77.0384	39	C6H5+
89.0385	131	C7H5+
90.0464	129	C7H6+
91.0542	201	C7H7+
105.0449	53	C6H5N2+
115.0541	84	C9H7+
116.0492	22	C8H6N+
117.0571	58	C8H7N+
118.0654	27	C8H8N+
128.0494	49	C9H6N+
139.0547	38	C11H7+
140.0622	33	C11H8+
152.0621	138	C12H8+
164.0616	27	C13H8+
165.0699	682	C13H9+
166.0651	105	C12H8N+
166.0777	62	C13H10+
167.0729	361	C12H9N+
177.0567	27	C13H7N+
178.0652	55	C13H8N+
178.0776	113	C14H10+
179.0729	183	C13H9N+
180.0807	242	C13H10N+
190.065	82	C14H8N+
191.073	594	C14H9N+
192.0808	999	C14H10N+
193.0885	665	C14H11N+
194.0963	203	C14H12N+
204.0811	62	C15H10N+
206.0961	43	C15H12N+
