Mass spectrum: Nylidrin; LC-ESI-ITFT; MS2; CE: 85%; R=15000; [M+H]+
Name: Nylidrin
Name: 4-[1-hydroxy-2-(4-phenylbutan-2-ylamino)propyl]phenol
Formula: C19H25NO2
Exact mass: 299.1885
SMILES: CC(CCC1=CC=CC=C1)NC(C)C(C2=CC=C(C=C2)O)O
InChI: InChI=1S/C19H25NO2/c1-14(8-9-16-6-4-3-5-7-16)20-15(2)19(22)17-10-12-18(21)13-11-17/h3-7,10-15,19-22H,8-9H2,1-2H3
Instrument: LTQ Orbitrap XL Thermo Scientific
Instrument type: LC-ESI-ITFT
Ms type: MS2
Ion mode: POSITIVE
Ionization: ESI
Fragmentation mode: HCD
Collision energy: 85% (nominal)
Resolution: 15000
Column name: Kinetex Evo C18 2.6 um 50 x 2.1 mm
Retention time: 6.871 min
Base peak: 300.1959
Precursor m/z: 300.1958
Precursor type: [M+H]+
m/z	relative intensity	assigned
55.0177	11	C3H3O+
56.0493	36	C3H6N+
57.0333	7	C3H5O+
77.0386	9	C6H5+
79.0542	44	C6H7+
81.0699	5	C6H9+
91.0542	999	C7H7+
95.0492	9	C6H7O+
103.0542	38	C8H7+
105.0699	554	C8H9+
107.0491	48	C7H7O+
109.0648	25	C7H9O+
115.0542	26	C9H7+
117.0569	4	C8H7N+
131.0493	8	C9H7O+
132.0564	2	C9H8O+
133.0648	229	C9H9O+
134.0597	3	C8H8NO+
135.0679	48	C8H9NO+
143.0606	3	C9H7N2+
150.0914	79	C9H12NO+
