Mass spectrum: Altenuene; LC-ESI-ITFT; MS2; CE: 30%; R=7500; [M+H]+
Name: Altenuene
Name: 6H-Dibenzo[b,d]pyran-6-one, 2,3,4,4a-tetrahydro-2,3,7-trihydroxy-9-methoxy-4a-methyl-, (2R,3R,4aR)-rel-
Name: 2,3,7-trihydroxy-9-methoxy-4a-methyl-3,4-dihydro-2H-benzo[c]chromen-6-one
Formula: C15H16O6
Exact mass: 292.0947
SMILES: CC12CC(C(C=C1C3=C(C(=CC(=C3)OC)O)C(=O)O2)O)O
InChI: InChI=1S/C15H16O6/c1-15-6-12(18)10(16)5-9(15)8-3-7(20-2)4-11(17)13(8)14(19)21-15/h3-5,10,12,16-18H,6H2,1-2H3
Instrument: LTQ Orbitrap XL Thermo Scientific
Instrument type: LC-ESI-ITFT
Ms type: MS2
Ion mode: POSITIVE
Ionization: ESI
Fragmentation mode: HCD
Collision energy: 30 % (nominal)
Resolution: 7500
Column name: Hypersil GOLD C18 1.9 um 100 x 2.1 mm Thermo Fisher Scientific
Retention time: 15.043 min
Base peak: 293.1022
Precursor m/z: 293.102
Precursor type: [M+H]+
Precursor intensity: 12654529.8916
m/z	relative intensity	assigned
179.0331	2	C9H7O4+
191.1063	4	C12H15O2+
198.0669	1	C13H10O2+
201.091	12	C13H13O2+
203.0703	2	C12H11O3+
203.1063	19	C13H15O2+
213.0911	41	C14H13O2+
215.0703	4	C13H11O3+
219.1015	13	C13H15O3+
229.0858	120	C14H13O3+
231.1015	50	C14H15O3+
239.07	106	C15H11O3+
247.0965	28	C14H15O4+
257.0806	999	C15H13O4+
275.0913	120	C15H15O5+
293.1021	15	C15H17O6+
