Mass spectrum: Radicicol; LC-ESI-ITFT; MS2; CE: 50%; R=7500; [M+H]+
Name: Radicicol
Name: 16-chloro-17,19-dihydroxy-4-methyl-3,7-dioxatricyclo[13.4.0.06,8]nonadeca-1(15),9,11,16,18-pentaene-2,13-dione
Formula: C18H17ClO6
Exact mass: 364.0714
SMILES: CC1CC2C(O2)C=CC=CC(=O)CC3=C(C(=CC(=C3Cl)O)O)C(=O)O1
InChI: InChI=1S/C18H17ClO6/c1-9-6-15-14(25-15)5-3-2-4-10(20)7-11-16(18(23)24-9)12(21)8-13(22)17(11)19/h2-5,8-9,14-15,21-22H,6-7H2,1H3
Instrument: LTQ Orbitrap XL Thermo Scientific
Instrument type: LC-ESI-ITFT
Ms type: MS2
Ion mode: POSITIVE
Ionization: ESI
Fragmentation mode: HCD
Collision energy: 50 % (nominal)
Resolution: 7500
Column name: Hypersil GOLD C18 1.9 um 100 x 2.1 mm Thermo Fisher Scientific
Retention time: 16.234 min
Base peak: 365.0794
Precursor m/z: 365.0786
Precursor type: [M+H]+
Precursor intensity: 3262780.17334
m/z	relative intensity	assigned
95.0491	74	C6H7O+
95.0854	295	C7H11+
119.0852	128	C9H11+
121.0646	96	C8H9O+
154.99	118	C7H4ClO2+
185.0602	196	C12H9O2+
192.0414	114	C10H8O4+
196.9998	945	C9H6ClO3+
200.9951	380	C8H6ClO4+
210.9793	592	C9H4ClO4+
213.0544	172	C13H9O3+
214.0621	357	C13H10O3+
224.9951	999	C10H6ClO4+
227.0106	793	C10H8ClO4+
239.0105	93	C11H8ClO4+
242.057	121	C14H10O4+
249.031	186	C13H10ClO3+
252.9894	264	C11H6ClO5+
263.01	191	C13H8ClO4+
277.027	381	C14H10ClO4+
287.0108	178	C15H8ClO4+
