Mass spectrum: Aspergillin PZ; LC-ESI-ITFT; MS2; CE: 50%; R=7500; [M+H]+
Name: Aspergillin PZ
Name: 16-hydroxy-1,5,6-trimethyl-8-(2-methylpropyl)-19-oxa-9-azapentacyclo[13.3.1.02,14.03,11.07,11]nonadec-4-ene-10,12-dione
Formula: C24H35NO4
Exact mass: 401.2566
SMILES: CC1C2C(NC(=O)C23C(C=C1C)C4C(CC3=O)C5C(CCC4(O5)C)O)CC(C)C
InChI: InChI=1S/C24H35NO4/c1-11(2)8-16-19-13(4)12(3)9-15-20-14(10-18(27)24(15,19)22(28)25-16)21-17(26)6-7-23(20,5)29-21/h9,11,13-17,19-21,26H,6-8,10H2,1-5H3,(H,25,28)
Instrument: LTQ Orbitrap XL Thermo Scientific
Instrument type: LC-ESI-ITFT
Ms type: MS2
Ion mode: POSITIVE
Ionization: ESI
Fragmentation mode: HCD
Collision energy: 50 % (nominal)
Resolution: 7500
Column name: Hypersil GOLD C18 1.9 um 100 x 2.1 mm Thermo Fisher Scientific
Retention time: 21.677 min
Base peak: 402.2649
Precursor m/z: 402.2639
Precursor type: [M+H]+
Precursor intensity: 7960247.711426
m/z	relative intensity	assigned
95.0855	37	C7H11+
96.0445	83	C5H6NO+
99.0441	77	C5H7O2+
105.0699	37	C8H9+
107.086	49	C8H11+
119.0859	115	C9H11+
121.1014	126	C9H13+
131.0858	58	C10H11+
133.0649	43	C9H9O+
133.101	58	C10H13+
138.0913	471	C8H12NO+
140.1068	86	C8H14NO+
143.0857	67	C11H11+
145.1011	169	C11H13+
157.1007	87	C12H13+
159.1166	107	C12H15+
161.1322	168	C12H17+
164.1076	118	C10H14NO+
166.0863	999	C9H12NO2+
166.1232	66	C10H16NO+
169.1013	69	C13H13+
171.1166	51	C13H15+
173.0967	61	C12H13O+
173.1329	63	C13H17+
175.1481	31	C13H19+
180.1023	43	C10H14NO2+
182.1178	99	C10H16NO2+
185.0964	67	C13H13O+
185.1326	174	C14H17+
195.1167	75	C15H15+
199.148	103	C15H19+
206.1176	60	C12H16NO2+
209.1322	81	C16H17+
213.1274	282	C15H17O+
220.1694	201	C14H22NO+
227.1435	77	C16H19O+
244.1706	38	C16H22NO+
245.153	46	C16H21O2+
253.1578	120	C18H21O+
268.1688	34	C18H22NO+
270.1858	207	C18H24NO+
271.1691	53	C18H23O2+
272.2017	65	C18H26NO+
282.1835	61	C16H26O4+
300.1953	135	C19H26NO2+
308.2	70	C21H26NO+
324.232	176	C22H30NO+
338.2487	108	C23H32NO+
341.2485	29	C23H33O2+
342.2417	68	C22H32NO2+
366.2431	210	C24H32NO2+
384.2539	109	C24H34NO3+
