Mass spectrum: Terrecyclic Acid; LC-ESI-ITFT; MS2; CE: 60%; R=7500; [M+H]+
Name: Terrecyclic Acid
Name: 11,11-dimethyl-2-methylidene-3-oxotricyclo[4.3.2.01,5]undecane-9-carboxylic acid
Formula: C15H20O3
Exact mass: 248.1412
SMILES: CC1(CC23C(CCC1C2CC(=O)C3=C)C(=O)O)C
InChI: InChI=1S/C15H20O3/c1-8-12(16)6-11-9-4-5-10(13(17)18)15(8,11)7-14(9,2)3/h9-11H,1,4-7H2,2-3H3,(H,17,18)
Instrument: LTQ Orbitrap XL Thermo Scientific
Instrument type: LC-ESI-ITFT
Ms type: MS2
Ion mode: POSITIVE
Ionization: ESI
Fragmentation mode: HCD
Collision energy: 60 % (nominal)
Resolution: 7500
Column name: Hypersil GOLD C18 1.9 um 100 x 2.1 mm Thermo Fisher Scientific
Retention time: 20.565 min
Base peak: 249.149
Precursor m/z: 249.1485
Precursor type: [M+H]+
Precursor intensity: 11458500.30566
m/z	relative intensity	assigned
93.0698	26	C7H9+
95.0858	28	C7H11+
105.0701	155	C8H9+
107.0856	130	C8H11+
109.0649	32	C7H9O+
119.0857	301	C9H11+
121.1014	46	C9H13+
123.0808	48	C8H11O+
131.0857	56	C10H11+
133.0653	37	C9H9O+
133.1013	249	C10H13+
135.1174	23	C10H15+
143.0858	71	C11H11+
145.1014	159	C11H13+
147.0807	568	C10H11O+
147.117	177	C11H15+
151.0754	35	C9H11O2+
153.0916	31	C9H13O2+
157.1014	83	C12H13+
159.117	221	C12H15+
161.0963	374	C11H13O+
161.1327	464	C12H17+
165.0915	67	C10H13O2+
171.1176	55	C13H15+
173.0963	26	C12H13O+
175.0754	37	C11H11O2+
175.1119	142	C12H15O+
175.1484	471	C13H19+
177.0906	26	C11H13O2+
177.1275	61	C12H17O+
179.0705	25	C10H11O3+
185.1327	455	C14H17+
187.1472	22	C14H19+
189.1276	229	C13H17O+
193.0862	156	C11H13O3+
203.1433	999	C14H19O+
207.1382	89	C13H19O2+
213.1281	103	C15H17O+
221.154	117	C14H21O2+
231.1382	674	C15H19O2+
249.1488	399	C15H21O3+
