Mass spectrum: HT2 toxin; LC-ESI-ITFT; MS2; CE: 60%; R=7500; [M+H]+
Name: HT2 toxin
Name: Toxin HT 2
Name: [2-(acetyloxymethyl)-10,11-dihydroxy-1,5-dimethylspiro[8-oxatricyclo[7.2.1.02,7]dodec-5-ene-12,2`-oxirane]-4-yl] 3-methylbutanoate
Formula: C22H32O8
Exact mass: 424.2097
SMILES: CC1=CC2C(CC1OC(=O)CC(C)C)(C3(C(C(C(C34CO4)O2)O)O)C)COC(=O)C
InChI: InChI=1S/C22H32O8/c1-11(2)6-16(24)29-14-8-21(9-27-13(4)23)15(7-12(14)3)30-19-17(25)18(26)20(21,5)22(19)10-28-22/h7,11,14-15,17-19,25-26H,6,8-10H2,1-5H3
Instrument: LTQ Orbitrap XL Thermo Scientific
Instrument type: LC-ESI-ITFT
Ms type: MS2
Ion mode: POSITIVE
Ionization: ESI
Fragmentation mode: HCD
Collision energy: 60 % (nominal)
Resolution: 7500
Column name: Hypersil GOLD C18 1.9 um 100 x 2.1 mm Thermo Fisher Scientific
Retention time: 26.673 min
Base peak: 158.9966
Precursor m/z: 425.217
Precursor type: [M+H]+
Precursor intensity: 564287.1958008
m/z	relative intensity	assigned
201.1643	999	C15H21+
