Mass spectrum: Citrinin; LC-ESI-ITFT; MS2; CE: 30%; R=7500; [M-H]-
Name: Citrinin
Name: 8-Hydroxy-3,4,5-trimethyl-6-oxo-4,6-dihydro-3H-isochromene-7-carboxylic acid
Name: 6-hydroxy-3,4,5-trimethyl-8-oxo-3,4-dihydroisochromene-7-carboxylic acid
Formula: C13H14O5
Exact mass: 250.08412
SMILES: CC1C(OC=C2C1=C(C(=C(C2=O)C(=O)O)O)C)C
InChI: InChI=1S/C13H14O5/c1-5-7(3)18-4-8-9(5)6(2)11(14)10(12(8)15)13(16)17/h4-5,7,14H,1-3H3,(H,16,17)
Instrument: LTQ Orbitrap XL Thermo Scientific
Instrument type: LC-ESI-ITFT
Ms type: MS2
Ion mode: NEGATIVE
Ionization: ESI
Fragmentation mode: HCD
Collision energy: 30 % (nominal)
Resolution: 7500
Column name: Hypersil GOLD C18 1.9 um 100 x 2.1 mm Thermo Fisher Scientific
Retention time: 18.144 min
Base peak: 141.0173
Precursor m/z: 249.0768
Precursor type: [M-H]-
Precursor intensity: 80254.9975585938
m/z	relative intensity	assigned
249.0772	999	C13H13O5-
