Mass spectrum: Cyclizine; LC-ESI-QTOF; MS2; CE: 20 eV; R=3600; [M+H]+
Name: Cyclizine
Name: 1-(Diphenylmethyl)-4-methylpiperazine
Formula: C18H22N2
Exact mass: 266.1783
SMILES: CN1CCN(CC1)C(C1=CC=CC=C1)C1=CC=CC=C1
InChI: InChI=1S/C18H22N2/c1-19-12-14-20(15-13-19)18(16-8-4-2-5-9-16)17-10-6-3-7-11-17/h2-11,18H,12-15H2,1H3
Instrument: 6542 QTOF Agilent
Instrument type: LC-ESI-QTOF
Ms type: MS2
Ion mode: POSITIVE
Ionization: ESI
Fragmentation mode: CID
Collision energy: 20 eV
Resolution: 3600
Precursor m/z: 267.1856
Precursor type: [M+H]+
m/z	relative intensity
72.0799	24
87.0384	16
99.0153	11
113.0352	16
115.0469	31
126.04	3
128.0561	59
141.0597	22
151.0464	29
152.0526	440
153.0559	26
164.053	15
165.0587	487
166.0668	65
167.0756	999
168.0797	38
