Mass spectrum: Deoxybrevianamide E; LC-ESI-ITFT; MS2; CE: 15%; R=7500; [M+H]+
Name: Deoxybrevianamide E
Name: Desoxybrevianamide E
Name: 3-[[2-(2-methylbut-3-en-2-yl)-1H-indol-3-yl]methyl]-2,3,6,7,8,8a-hexahydropyrrolo[1,2-a]pyrazine-1,4-dione
Formula: C21H25N3O2
Exact mass: 351.1947
SMILES: CC(C)(C=C)C1=C(C2=CC=CC=C2N1)CC3C(=O)N4CCCC4C(=O)N3
InChI: InChI=1S/C21H25N3O2/c1-4-21(2,3)18-14(13-8-5-6-9-15(13)22-18)12-16-20(26)24-11-7-10-17(24)19(25)23-16/h4-6,8-9,16-17,22H,1,7,10-12H2,2-3H3,(H,23,25)
Instrument: LTQ Orbitrap XL Thermo Scientific
Instrument type: LC-ESI-ITFT
Ms type: MS2
Ion mode: POSITIVE
Ionization: ESI
Fragmentation mode: HCD
Collision energy: 15 % (nominal)
Resolution: 7500
Column name: Hypersil GOLD C18 1.9 um 100 x 2.1 mm Thermo Fisher Scientific
Retention time: 18.048 min
Base peak: 352.2022
Precursor m/z: 352.202
Precursor type: [M+H]+
Precursor intensity: 11179958.49219
m/z	relative intensity	assigned
130.0649	15	C9H8N+
144.0809	3	C10H10N+
186.1272	5	C13H16N+
198.1276	170	C14H16N+
200.1429	4	C14H18N+
268.1453	7	C16H18N3O+
284.139	603	C16H18N3O2+
296.1392	227	C17H18N3O2+
352.2014	999	C21H26N3O2+
