Mass spectrum: a Zearalanol; LC-ESI-ITFT; MS2; CE: 40%; R=7500; [M+H]+
Name: a Zearalanol
Name: Ralgro
Name: 8,16,18-trihydroxy-4-methyl-3-oxabicyclo[12.4.0]octadeca-1(14),15,17-trien-2-one
Formula: C18H26O5
Exact mass: 322.1780
SMILES: CC1CCCC(CCCCCC2=C(C(=CC(=C2)O)O)C(=O)O1)O
InChI: InChI=1S/C18H26O5/c1-12-6-5-9-14(19)8-4-2-3-7-13-10-15(20)11-16(21)17(13)18(22)23-12/h10-12,14,19-21H,2-9H2,1H3
Instrument: LTQ Orbitrap XL Thermo Scientific
Instrument type: LC-ESI-ITFT
Ms type: MS2
Ion mode: POSITIVE
Ionization: ESI
Fragmentation mode: HCD
Collision energy: 40 % (nominal)
Resolution: 7500
Column name: Hypersil GOLD C18 1.9 um 100 x 2.1 mm Thermo Fisher Scientific
Retention time: 20.421 min
Base peak: 323.1853
Precursor m/z: 323.1853
Precursor type: [M+H]+
Precursor intensity: 11853700.02588
m/z	relative intensity	assigned
123.0438	17	C7H7O2+
163.075	54	C10H11O2+
167.0335	85	C8H7O4+
177.0909	57	C11H13O2+
191.1067	21	C12H15O2+
207.0644	13	C11H11O4+
259.1693	23	C17H23O2+
269.1527	19	C18H21O2+
277.1793	50	C17H25O3+
287.1633	151	C18H23O3+
305.174	999	C18H25O4+
