Mass spectrum: a Zearalenol; LC-ESI-ITFT; MS2; CE: 40%; R=7500; [M+H]+
Name: a Zearalenol
Name: 8,16,18-trihydroxy-4-methyl-3-oxabicyclo[12.4.0]octadeca-1(14),12,15,17-tetraen-2-one
Formula: C18H24O5
Exact mass: 320.1624
SMILES: CC1CCCC(CCCC=CC2=C(C(=CC(=C2)O)O)C(=O)O1)O
InChI: InChI=1S/C18H24O5/c1-12-6-5-9-14(19)8-4-2-3-7-13-10-15(20)11-16(21)17(13)18(22)23-12/h3,7,10-12,14,19-21H,2,4-6,8-9H2,1H3
Instrument: LTQ Orbitrap XL Thermo Scientific
Instrument type: LC-ESI-ITFT
Ms type: MS2
Ion mode: POSITIVE
Ionization: ESI
Fragmentation mode: HCD
Collision energy: 40 % (nominal)
Resolution: 7500
Column name: Hypersil GOLD C18 1.9 um 100 x 2.1 mm Thermo Fisher Scientific
Retention time: 20.888 min
Base peak: 321.1706
Precursor m/z: 321.1697
Precursor type: [M+H]+
Precursor intensity: 7292575.245605
m/z	relative intensity	assigned
135.117	28	C10H15+
167.0346	18	C8H7O4+
177.0546	20	C10H9O3+
189.0912	14	C12H13O2+
203.0712	11	C12H11O3+
203.1059	15	C13H15O2+
215.0707	14	C13H11O3+
217.0866	24	C13H13O3+
233.0809	55	C13H13O4+
257.1545	77	C17H21O2+
259.1693	120	C17H23O2+
267.1382	81	C18H19O2+
285.1487	832	C18H21O3+
303.1595	999	C18H23O4+
