Mass spectrum: Physcion; LC-ESI-ITFT; MS2; CE: 60%; R=7500; [M-H]-
Name: Physcion
Name: 1,8-dihydroxy-3-methoxy-6-methylanthracene-9,10-dione
Formula: C16H12O5
Exact mass: 284.06847
SMILES: CC1=CC2=C(C(=C1)O)C(=O)C3=C(C2=O)C=C(C=C3O)OC
InChI: InChI=1S/C16H12O5/c1-7-3-9-13(11(17)4-7)16(20)14-10(15(9)19)5-8(21-2)6-12(14)18/h3-6,17-18H,1-2H3
Instrument: LTQ Orbitrap XL Thermo Scientific
Instrument type: LC-ESI-ITFT
Ms type: MS2
Ion mode: NEGATIVE
Ionization: ESI
Fragmentation mode: HCD
Collision energy: 60 % (nominal)
Resolution: 7500
Column name: Hypersil GOLD C18 1.9 um 100 x 2.1 mm Thermo Fisher Scientific
Retention time: 26.947 min
Base peak: 141.0175
Precursor m/z: 283.0612
Precursor type: [M-H]-
Precursor intensity: 3174491.163086
m/z	relative intensity	assigned
240.043	168	C14H8O4-
268.0381	25	C15H8O5-
283.0616	999	C16H11O5-
