Mass spectrum: Mefruside; LC-ESI-ITFT; MS2; CE: 40%; R=7500; [M+H]+
Name: Mefruside
Name: 4-Chloro-N1-methyl-N1-[(2-methyloxolan-2-yl)methyl]benzene-1,3-disulfonamide
Formula: C13H19ClN2O5S2
Exact mass: 382.0424
SMILES: CN(CC1(C)CCCO1)S(=O)(=O)C1=CC=C(Cl)C(=C1)S(N)(=O)=O
InChI: InChI=1S/C13H19ClN2O5S2/c1-13(6-3-7-21-13)9-16(2)23(19,20)10-4-5-11(14)12(8-10)22(15,17)18/h4-5,8H,3,6-7,9H2,1-2H3,(H2,15,17,18)
Instrument: LTQ Orbitrap XL Thermo Fisher Scientific
Instrument type: LC-ESI-ITFT
Ms type: MS2
Ion mode: POSITIVE
Ionization: ESI
Fragmentation mode: HCD
Collision energy: 40% (nominal)
Resolution: 7500
Column name: Hypersil GOLD C18 1.9 um 100 x 2.1 mm Thermo Fisher Scientific
Precursor m/z: 383.0497
Precursor type: [M+H]+
m/z	relative intensity
57.0334	20
69.0695	19
71.0855	18
73.1148	15
79.0541	44
81.0697	999
84.0806	400
86.0599	96
96.0807	28
97.0647	47
97.3374	11
99.0804	470
110.0964	39
111.1041	26
112.1122	18
128.1069	229
129.1147	990
135.9943	7
136.0272	14
188.9128	13
188.9324	18
198.7895	17
203.1376	9
203.9878	47
217.9786	153
237.9395	18
253.9345	315
267.95	106
273.8045	27
284.9767	319
296.9766	90
350.5942	15
