Mass spectrum: Cyclizine; LC-ESI-QTOF; MS2; CE: 25 eV; R=3600; [M+H]+
Name: Cyclizine
Name: 1-(Diphenylmethyl)-4-methylpiperazine
Formula: C18H22N2
Exact mass: 266.1783
SMILES: CN1CCN(CC1)C(C1=CC=CC=C1)C1=CC=CC=C1
InChI: InChI=1S/C18H22N2/c1-19-12-14-20(15-13-19)18(16-8-4-2-5-9-16)17-10-6-3-7-11-17/h2-11,18H,12-15H2,1H3
Instrument: 6543 QTOF Agilent
Instrument type: LC-ESI-QTOF
Ms type: MS2
Ion mode: POSITIVE
Ionization: ESI
Fragmentation mode: CID
Collision energy: 25 eV
Resolution: 3600
Precursor m/z: 267.1856
Precursor type: [M+H]+
m/z	relative intensity
70.9765	13
88.7651	11
90.0425	23
99.0892	23
115.0439	73
123.0232	11
126.0415	22
128.0516	39
139.0524	13
140.0446	19
141.0597	42
146.3089	13
150.037	15
151.0428	87
152.0525	599
153.0528	77
163.0486	23
164.3357	10
165.0594	999
166.0664	154
167.075	867
168.0811	53
189.1006	17
