Mass spectrum: PR toxin; LC-ESI-ITFT; MS2; CE: 50%; R=7500; [M+H]+
Name: PR toxin
Name: Spiro(naphthalene-2(1H),2`-oxirane)-3`-carboxaldehyde, 3,5,6,7,8,8a-hexahydro-7-acetoxy-5,6-epoxy-3`,8,8a-trimethyl-3-oxo-
Name: (3`-formyl-3,3`,3a-trimethyl-6-oxospiro[2,3,4,7b-tetrahydro-1aH-naphtho[1,2-b]oxirene-5,2`-oxirane]-2-yl) acetate
Formula: C17H20O6
Exact mass: 320.1260
SMILES: CC1C(C2C(O2)C3=CC(=O)C4(CC13C)C(O4)(C)C=O)OC(=O)C
InChI: InChI=1S/C17H20O6/c1-8-12(21-9(2)19)14-13(22-14)10-5-11(20)17(6-15(8,10)3)16(4,7-18)23-17/h5,7-8,12-14H,6H2,1-4H3
Instrument: LTQ Orbitrap XL Thermo Scientific
Instrument type: LC-ESI-ITFT
Ms type: MS2
Ion mode: POSITIVE
Ionization: ESI
Fragmentation mode: HCD
Collision energy: 50 % (nominal)
Resolution: 7500
Column name: Hypersil GOLD C18 1.9 um 100 x 2.1 mm Thermo Fisher Scientific
Retention time: 15.775 min
Base peak: 321.1335
Precursor m/z: 321.1333
Precursor type: [M+H]+
Precursor intensity: 3327179.880859
m/z	relative intensity	assigned
56.9971	111	C2HO2+
107.0854	112	C8H11+
109.0643	84	C7H9O+
117.0698	150	C9H9+
119.0861	149	C9H11+
121.0645	232	C8H9O+
121.101	86	C9H13+
125.0596	79	C7H9O2+
131.0851	251	C10H11+
133.065	86	C9H9O+
133.1007	108	C10H13+
135.0444	135	C8H7O2+
135.0802	373	C9H11O+
137.0596	112	C8H9O2+
143.0855	123	C11H11+
145.0653	148	C10H9O+
145.1009	704	C11H13+
146.0728	114	C10H10O+
147.0803	286	C10H11O+
149.0593	203	C9H9O2+
154.0774	88	C12H10+
155.0858	146	C12H11+
157.0644	75	C11H9O+
158.0723	382	C11H10O+
159.0799	381	C11H11O+
159.1168	175	C12H15+
161.0959	817	C11H13O+
163.0754	242	C10H11O2+
163.1125	112	C11H15O+
167.0701	120	C9H11O3+
169.101	181	C13H13+
171.08	86	C12H11O+
172.0883	201	C12H12O+
173.0959	999	C12H13O+
175.0752	406	C11H11O2+
177.0912	213	C11H13O2+
187.1116	313	C13H15O+
189.0908	232	C12H13O2+
191.1067	474	C12H15O2+
197.0954	92	C14H13O+
215.1064	168	C14H15O2+
219.1013	197	C13H15O3+
