Mass spectrum: Metoclopramide; LC-ESI-QFT; MS2; CE: CE45; R=17500; [M+H]+
Name: Metoclopramide
Name: 4-amino-5-chloro-N-[2-(diethylamino)ethyl]-2-methoxybenzamide
Formula: C14H22ClN3O2
Exact mass: 299.1401
SMILES: CCN(CC)CCNC(=O)C1=CC(Cl)=C(N)C=C1OC
InChI: InChI=1S/C14H22ClN3O2/c1-4-18(5-2)7-6-17-14(19)10-8-11(15)12(16)9-13(10)20-3/h8-9H,4-7,16H2,1-3H3,(H,17,19)
Instrument: Q Exactive Thermo Fisher Scientific
Instrument type: LC-ESI-QFT
Ms type: MS2
Ion mode: POSITIVE
Ionization: ESI
Fragmentation mode: HCD
Collision energy: CE45
Resolution: 17500
Column name: Acquity UPLC BEH C18 1.7 um, 2.1 x 150 mm, Waters
Retention time: 14.388 min
Base peak: 223.0628
Precursor m/z: 300.1473
Precursor type: [M+H]+
m/z	relative intensity	assigned
52.0189	1	C3H2N+
54.0342	14	C3H4N+
63.0233	10	C5H3+
65.0386	8	C5H5+
72.081	11	C4H10N+
74.0465	3	C2H6N2O+
75.0441	1	C3H7O2+
78.034	11	C5H4N+
80.0497	5	C5H6N+
82.0288	15	C4H4NO+
87.995	7	C3H3ClN+
90.0108	1	C3H5ClN+
90.0336	36	C6H4N+
92.05	17	C6H6N+
92.0615	5	C7H8+
93.0582	49	C6H7N+
99.0001	8	C5H4Cl+
100.112	19	C6H14N+
102.0104	3	C4H5ClN+
105.0448	5	C6H5N2+
108.0439	37	C6H6NO+
110.9999	2	C6H4Cl+
113.0024	3	C8HO+
114.0107	2	C5H5ClN+
115.9901	3	C4H3ClNO+
119.061	3	C7H7N2+
120.0444	36	C7H6NO+
120.068	2	C7H8N2+
121.0525	3	C4H10ClN2+
124.039	4	C6H6NO2+
126.0108	32	C6H5ClN+
128.0261	59	C6H7ClN+
129.0102	27	C6H6ClO+
138.9944	3	C7H4ClO+
140.0135	4	C6H5ClN2+
140.9978	267	C6H4ClNO+
144.0204	92	C9H4O2+
147.0544	12	C8H7N2O+
148.0631	74	C8H8N2O+
154.0061	42	C7H5ClNO+
156.0218	157	C7H7ClNO+
168.0095	221	C7H5ClN2O+
168.9927	9	C7H4ClNO2+
169.9998	57	C7H5ClNO2+
181.0169	11	C8H6ClN2O+
182.0237	21	C11H4NO2+
183.032	212	C8H8ClN2O+
184.0155	999	C8H7ClNO2+
211.0252	22	C9H8ClN2O2+
212.0349	279	C9H9ClN2O2+
224.0285	6	C14H7ClN+
225.0242	5	C13H6ClN2+
227.0585	77	C10H12ClN2O2+
228.0233	9	C13H7ClNO+
229.0178	10	C12H6ClN2O+
230.0214	16	C12H7ClN2O+
230.9973	5	C11H4ClN2O2+
249.0084	2	C14H4ClN3+
268.9975	6	C13H4ClN3O2+
