Mass spectrum: Citreoviridin; LC-ESI-ITFT; MS2; CE: 40%; R=7500; [M+H]+
Name: Citreoviridin
Name: 6-[8-(3,4-dihydroxy-2,4,5-trimethyloxolan-2-yl)-7-methylocta-1,3,5,7-tetraenyl]-4-methoxy-5-methylpyran-2-one
Formula: C23H30O6
Exact mass: 402.2042
SMILES: CC1C(C(C(O1)(C)C=C(C)C=CC=CC=CC2=C(C(=CC(=O)O2)OC)C)O)(C)O
InChI: InChI=1S/C23H30O6/c1-15(14-22(4)21(25)23(5,26)17(3)29-22)11-9-7-8-10-12-18-16(2)19(27-6)13-20(24)28-18/h7-14,17,21,25-26H,1-6H3
Instrument: LTQ Orbitrap XL Thermo Scientific
Instrument type: LC-ESI-ITFT
Ms type: MS2
Ion mode: POSITIVE
Ionization: ESI
Fragmentation mode: HCD
Collision energy: 40 % (nominal)
Resolution: 7500
Column name: Hypersil GOLD C18 1.9 um 100 x 2.1 mm Thermo Fisher Scientific
Retention time: 21.725 min
Base peak: 403.2119
Precursor m/z: 403.2115
Precursor type: [M+H]+
Precursor intensity: 3639468.507568
m/z	relative intensity	assigned
83.0489	85	C5H7O+
89.0597	133	C4H9O2+
95.0851	33	C7H11+
105.0701	26	C8H9+
107.0851	32	C8H11+
109.0645	58	C7H9O+
119.0854	61	C9H11+
123.0809	45	C8H11O+
127.075	71	C7H11O2+
131.0855	99	C10H11+
133.101	63	C10H13+
135.0804	44	C9H11O+
137.0964	86	C9H13O+
139.039	999	C7H7O3+
143.0855	316	C11H11+
144.0932	38	C11H12+
145.0859	75	C7H13O3+
151.075	82	C9H11O2+
157.1013	84	C12H13+
161.0959	108	C11H13O+
165.0548	28	C9H9O3+
165.091	86	C10H13O2+
167.0702	224	C9H11O3+
177.0904	30	C11H13O2+
179.0702	182	C10H11O3+
185.0964	86	C13H13O+
191.0698	142	C11H11O3+
193.0855	227	C11H13O3+
205.0862	58	C12H13O3+
209.0811	21	C11H13O4+
221.0803	113	C12H13O4+
221.1327	36	C17H17+
259.1342	69	C16H19O3+
269.1544	42	C18H21O2+
285.1488	174	C18H21O3+
287.1647	23	C18H23O3+
297.148	169	C19H21O3+
315.1586	48	C19H23O4+
