Mass spectrum: Nylidrin; LC-ESI-ITFT; MS2; CE: 40%; R=15000; [M+H]+
Name: Nylidrin
Name: 4-[1-hydroxy-2-(4-phenylbutan-2-ylamino)propyl]phenol
Formula: C19H25NO2
Exact mass: 299.1885
SMILES: CC(CCC1=CC=CC=C1)NC(C)C(C2=CC=C(C=C2)O)O
InChI: InChI=1S/C19H25NO2/c1-14(8-9-16-6-4-3-5-7-16)20-15(2)19(22)17-10-12-18(21)13-11-17/h3-7,10-15,19-22H,8-9H2,1-2H3
Instrument: LTQ Orbitrap XL Thermo Scientific
Instrument type: LC-ESI-ITFT
Ms type: MS2
Ion mode: POSITIVE
Ionization: ESI
Fragmentation mode: HCD
Collision energy: 40% (nominal)
Resolution: 15000
Column name: Kinetex Evo C18 2.6 um 50 x 2.1 mm
Retention time: 6.895 min
Base peak: 300.1959
Precursor m/z: 300.1958
Precursor type: [M+H]+
m/z	relative intensity	assigned
56.0492	1	C3H6N+
57.0332	1	C3H5O+
91.0542	397	C7H7+
105.0699	15	C8H9+
107.0492	7	C7H7O+
109.0649	5	C7H9O+
133.0648	104	C9H9O+
133.1012	19	C10H13+
135.0805	52	C9H11O+
148.1121	5	C10H14N+
150.0914	999	C9H12NO+
151.0752	58	C9H11O2+
178.1227	53	C11H16NO+
227.0582	1	C13H9NO3+
240.1384	11	C16H18NO+
282.1854	479	C19H24NO+
300.1961	16	C19H26NO2+
