Mass spectrum: Antipyrine; LC-ESI-ITFT; MS2; CE: 70%; R=15000; [M+H]+
Name: Antipyrine
Name: 1,5-dimethyl-2-phenylpyrazol-3-one
Formula: C11H12N2O
Exact mass: 188.0950
SMILES: CC1=CC(=O)N(N1C)C2=CC=CC=C2
InChI: InChI=1S/C11H12N2O/c1-9-8-11(14)13(12(9)2)10-6-4-3-5-7-10/h3-8H,1-2H3
Instrument: LTQ Orbitrap XL Thermo Scientific
Instrument type: LC-ESI-ITFT
Ms type: MS2
Ion mode: POSITIVE
Ionization: ESI
Fragmentation mode: HCD
Collision energy: 70% (nominal)
Resolution: 15000
Column name: Kinetex Evo C18 2.6 um 50 x 2.1 mm
Retention time: 5.578 min
Base peak: 189.1022
Precursor m/z: 189.1022
Precursor type: [M+H]+
m/z	relative intensity	assigned
65.0383	33	C5H5+
68.0493	7	C4H6N+
69.057	8	C4H7N+
70.065	17	C4H8N+
77.0385	32	C6H5+
79.0546	5	C6H7+
81.0446	20	C4H5N2+
91.0542	56	C7H7+
92.0495	11	C6H6N+
93.0334	8	C6H5O+
93.0574	5	C6H7N+
94.0651	13	C6H8N+
95.0489	8	C6H7O+
95.0605	26	C5H7N2+
96.0442	19	C5H6NO+
96.0682	134	C5H8N2+
98.0601	59	C5H8NO+
103.0543	19	C8H7+
104.0495	318	C7H6N+
105.0335	18	C7H5O+
105.0445	15	C6H5N2+
105.0572	6	C7H7N+
105.0699	17	C8H9+
106.0651	197	C7H8N+
111.0442	5	C6H7O2+
111.0553	8	C5H7N2O+
115.0542	14	C9H7+
117.0573	31	C8H7N+
117.0698	72	C9H9+
118.0651	123	C8H8N+
120.0808	105	C8H10N+
129.0572	9	C9H7N+
130.0651	133	C9H8N+
131.0603	13	C8H7N2+
131.0729	171	C9H9N+
132.0683	12	C8H8N2+
132.0808	82	C9H10N+
133.0521	21	C8H7NO+
133.0762	19	C8H9N2+
134.0966	20	C9H12N+
144.0808	142	C10H10N+
145.0648	62	C10H9O+
145.0759	30	C9H9N2+
145.0888	7	C10H11N+
146.0838	170	C9H10N2+
146.0964	27	C10H12N+
147.0916	294	C9H11N2+
148.0757	10	C9H10NO+
149.0708	16	C8H9N2O+
157.0522	24	C10H7NO+
158.0608	6	C10H8NO+
159.0921	7	C10H11N2+
160.0996	9	C10H12N2+
161.1073	137	C10H13N2+
172.0755	29	C11H10NO+
173.0709	6	C10H9N2O+
174.0787	150	C10H10N2O+
189.1022	999	C11H13N2O+
