Mass spectrum: Desipramine; LC-ESI-ITFT; MS2; CE: 70%; R=15000; [M+H]+
Name: Desipramine
Name: 3-(5,6-dihydrobenzo[b][1]benzazepin-11-yl)-N-methylpropan-1-amine
Formula: C18H22N2
Exact mass: 266.1783
SMILES: CNCCCN1C2=CC=CC=C2CCC3=CC=CC=C31
InChI: InChI=1S/C18H22N2/c1-19-13-6-14-20-17-9-4-2-7-15(17)11-12-16-8-3-5-10-18(16)20/h2-5,7-10,19H,6,11-14H2,1H3
Instrument: LTQ Orbitrap XL Thermo Scientific
Instrument type: LC-ESI-ITFT
Ms type: MS2
Ion mode: POSITIVE
Ionization: ESI
Fragmentation mode: HCD
Collision energy: 70% (nominal)
Resolution: 15000
Column name: Kinetex Evo C18 2.6 um 50 x 2.1 mm
Retention time: 8.462 min
Base peak: 267.1856
Precursor m/z: 267.1856
Precursor type: [M+H]+
m/z	relative intensity	assigned
72.0806	999	C4H10N+
91.0542	5	C7H7+
105.0697	2	C8H9+
118.065	1	C8H8N+
167.0858	5	C13H11+
180.0808	11	C13H10N+
193.0886	143	C14H11N+
194.0964	9	C14H12N+
195.1042	24	C14H13N+
196.112	15	C14H14N+
206.0964	4	C15H12N+
207.1036	2	C15H13N+
208.1121	192	C15H14N+
220.1118	9	C16H14N+
222.1275	3	C16H16N+
236.1433	7	C17H18N+
