Mass spectrum: Dixyrazine ; LC-ESI-ITFT; MS2; CE: 40%; R=7500; [M+H]+
Name: Dixyrazine
Name: 2-(2-{4-[2-Methyl-3-(10H-phenothiazin-10-yl)propyl]piperazin-1-yl}ethoxy)ethan-1-ol
Formula: C24H33N3O2S
Exact mass: 427.2293
SMILES: CC(CN1CCN(CCOCCO)CC1)CN1C2=CC=CC=C2SC2=CC=CC=C12
InChI: InChI=1S/C24H33N3O2S/c1-20(18-26-12-10-25(11-13-26)14-16-29-17-15-28)19-27-21-6-2-4-8-23(21)30-24-9-5-3-7-22(24)27/h2-9,20,28H,10-19H2,1H3
Instrument: LTQ Orbitrap XL Thermo Fisher Scientific
Instrument type: LC-ESI-ITFT
Ms type: MS2
Ion mode: POSITIVE
Ionization: ESI
Fragmentation mode: HCD
Collision energy: 40% (nominal)
Resolution: 7500
Column name: Hypersil GOLD C18 1.9 um 100 x 2.1 mm Thermo Fisher Scientific
Precursor m/z: 428.2367
Precursor type: [M+H]+
m/z	relative intensity
57.0949	2
57.112	2
57.1221	2
57.1488	2
70.0649	4
87.0439	6
97.0759	8
98.0838	37
99.0916	5
100.1124	1
101.1073	90
112.1123	2
118.0862	3
125.1073	28
132.1023	1
140.1307	9
144.102	7
155.1545	6
172.1207	22
180.0812	5
187.1442	558
199.0448	3
212.053	161
221.12	5
229.1915	999
254.1001	44
366.1985	2
428.2367	195
