Mass spectrum: Sulfamethoxazole; LC-ESI-QTOF; MS2; CE: 40 eV; R=3600; [M+H]+
Name: Sulfamethoxazole
Name: 4-Amino-N-(5-methyl-1,2-oxazol-3-yl)benzene-1-sulfonamide
Formula: C10H11N3O3S
Exact mass: 253.0521
SMILES: CC1=CC(NS(=O)(=O)C2=CC=C(N)C=C2)=NO1
InChI: InChI=1S/C10H11N3O3S/c1-7-6-10(12-16-7)13-17(14,15)9-4-2-8(11)3-5-9/h2-6H,11H2,1H3,(H,12,13)
Instrument: 6667 QTOF Agilent
Instrument type: LC-ESI-QTOF
Ms type: MS2
Ion mode: POSITIVE
Ionization: ESI
Fragmentation mode: CID
Collision energy: 40 eV
Resolution: 3600
Precursor m/z: 254.0594
Precursor type: [M+H]+
m/z	relative intensity
51.0215	3
52.0296	6
53.0398	75
54.0354	15
55.0194	4
63.0215	6
64.02	5
65.0392	999
66.0447	43
72.0426	10
77.0402	5
79.0426	11
80.05	308
81.0533	20
92.0498	403
93.0579	141
99.0559	21
105.0425	4
106.0553	3
107.0615	11
108.0443	262
109.0506	8
116.0542	2
117.0469	3
118.053	8
119.0648	9
130.0502	3
131.061	5
132.0605	2
133.061	6
143.0558	2
146.0688	29
148.0857	3
159.0803	3
160.0963	4
