Mass spectrum: Sulfamethoxazole; LC-ESI-QTOF; MS2; CE: 10 eV; R=3600; [M+H]+
Name: Sulfamethoxazole
Name: 4-Amino-N-(5-methyl-1,2-oxazol-3-yl)benzene-1-sulfonamide
Formula: C10H11N3O3S
Exact mass: 253.0521
SMILES: CC1=CC(NS(=O)(=O)C2=CC=C(N)C=C2)=NO1
InChI: InChI=1S/C10H11N3O3S/c1-7-6-10(12-16-7)13-17(14,15)9-4-2-8(11)3-5-9/h2-6H,11H2,1H3,(H,12,13)
Instrument: 6661 QTOF Agilent
Instrument type: LC-ESI-QTOF
Ms type: MS2
Ion mode: POSITIVE
Ionization: ESI
Fragmentation mode: CID
Collision energy: 10 eV
Resolution: 3600
Precursor m/z: 254.0594
Precursor type: [M+H]+
m/z	relative intensity
53.0396	10
55.0165	4
56.0489	5
65.0371	319
66.0425	24
71.0596	10
72.043	16
80.0476	104
90.0294	3
92.0471	999
93.0543	234
94.0601	30
99.0528	196
107.0594	40
108.0414	727
109.0476	5
119.0583	9
121.0729	6
131.0588	15
132.0682	5
146.0643	64
147.0739	128
148.08	37
156.007	508
159.0663	3
160.0828	100
160.9972	6
173.0476	4
176.0215	6
188.0769	84
190.0909	22
194.034	13
236.0416	15
254.0594	443
