Mass spectrum: Malformin A1; LC-ESI-ITFT; MS2; CE: 40%; R=7500; [M-H]-
Name: Malformin A1
Name: Malformin A
Name: 4-butan-2-yl-7-(2-methylpropyl)-10-propan-2-yl-15,16-dithia-2,5,8,11,19-pentazabicyclo[11.4.2]nonadecane-3,6,9,12,18-pentone
Formula: C23H39N5O5S2
Exact mass: 529.23926
SMILES: CCC(C)C1C(=O)NC2CSSCC(C(=O)NC(C(=O)NC(C(=O)N1)CC(C)C)C(C)C)NC2=O
InChI: InChI=1S/C23H39N5O5S2/c1-7-13(6)18-23(33)26-15-9-34-35-10-16(25-20(15)30)21(31)27-17(12(4)5)22(32)24-14(8-11(2)3)19(29)28-18/h11-18H,7-10H2,1-6H3,(H,24,32)(H,25,30)(H,26,33)(H,27,31)(H,28,29)
Instrument: LTQ Orbitrap XL Thermo Scientific
Instrument type: LC-ESI-ITFT
Ms type: MS2
Ion mode: NEGATIVE
Ionization: ESI
Fragmentation mode: HCD
Collision energy: 40 % (nominal)
Resolution: 7500
Column name: Hypersil GOLD C18 1.9 um 100 x 2.1 mm Thermo Fisher Scientific
Retention time: 21.516 min
Base peak: 588.2532
Precursor m/z: 528.232
Precursor type: [M-H]-
Precursor intensity: 8388116.305176
m/z	relative intensity	assigned
56.0269	13	C3H4O-
71.9788	12	CN2S-
97.0409	77	C4H5N2O-
100.0229	78	C4H6NS-
109.0408	106	C5H5N2O-
111.0565	16	C5H7N2O-
126.0023	54	C5H4NOS-
139.052	14	C6H7N2O2-
139.0873	24	C7H11N2O-
141.0671	550	C6H9N2O2-
143.0286	234	C5H7N2OS-
155.0828	90	C7H11N2O2-
181.0975	31	C9H13N2O2-
185.0757	22	C8H13N2OS-
210.0886	25	C9H12N3O3-
211.1455	15	C11H19N2O2-
212.1049	14	C9H14N3O3-
233.1658	41	C14H21N2O-
251.116	22	C11H15N4O3-
350.2088	76	C18H28N3O4-
367.2358	417	C20H33NO5-
419.23	58	C22H35N4S2-
425.2211	29	C20H33N4O4S-
436.2589	43	C18H38N5O5S-
448.2573	21	C23H38N5S2-
451.2389	523	C22H35N4O4S-
460.2572	403	C23H34N5O5-
462.2731	532	C23H36N5O5-
494.2453	999	C23H36N5O5S-
528.2324	774	C23H38N5O5S2-
