Mass spectrum: Sulfamethoxazole; ESI-QTOF; MS2; CE: 15eV; R=15000; [M+H]+
Name: Sulfamethoxazole
Name: 4-Amino-N-(5-methyl-1,2-oxazol-3-yl)benzene-1-sulfonamide
Formula: C10H11N3O3S
Exact mass: 253.0521
SMILES: CC1=CC(NS(=O)(=O)C2=CC=C(N)C=C2)=NO1
InChI: InChI=1S/C10H11N3O3S/c1-7-6-10(12-16-7)13-17(14,15)9-4-2-8(11)3-5-9/h2-6H,11H2,1H3,(H,12,13)
Instrument: TripleTOF 5600+SCIEX
Instrument type: ESI-QTOF
Ms type: MS2
Ion mode: POSITIVE
Ionization: ESI
Fragmentation mode: CID
Collision energy: 15 eV
Resolution: 15000
Precursor m/z: 254.0594
Precursor type: [M+H]+
m/z	relative intensity
65.0407	1
80.051	1
92.0507	14
93.0583	10
94.0661	3
99.0563	14
107.0611	4
108.0452	36
121.0768	1
131.0612	1
146.072	7
147.0796	32
148.0875	9
156.012	207
160.0874	17
161.002	2
163.0875	1
172.0875	1
176.0284	2
187.0044	1
188.0825	49
190.0982	19
194.039	10
213.0203	1
236.0497	13
254.0594	999
