Mass spectrum: Desipramine; LC-ESI-ITFT; MS2; CE: 125%; R=15000; [M+H]+
Name: Desipramine
Name: 3-(5,6-dihydrobenzo[b][1]benzazepin-11-yl)-N-methylpropan-1-amine
Formula: C18H22N2
Exact mass: 266.1783
SMILES: CNCCCN1C2=CC=CC=C2CCC3=CC=CC=C31
InChI: InChI=1S/C18H22N2/c1-19-13-6-14-20-17-9-4-2-7-15(17)11-12-16-8-3-5-10-18(16)20/h2-5,7-10,19H,6,11-14H2,1H3
Instrument: LTQ Orbitrap XL Thermo Scientific
Instrument type: LC-ESI-ITFT
Ms type: MS2
Ion mode: POSITIVE
Ionization: ESI
Fragmentation mode: HCD
Collision energy: 125% (nominal)
Resolution: 15000
Column name: Kinetex Evo C18 2.6 um 50 x 2.1 mm
Retention time: 8.449 min
Base peak: 267.1856
Precursor m/z: 267.1856
Precursor type: [M+H]+
m/z	relative intensity	assigned
56.0492	46	C3H6N+
72.0807	999	C4H10N+
90.0465	46	C7H6+
91.0543	129	C7H7+
103.0544	24	C8H7+
106.0648	12	C7H8N+
115.0541	33	C9H7+
117.0571	21	C8H7N+
118.065	33	C8H8N+
130.0652	30	C9H8N+
152.0621	38	C12H8+
165.0699	257	C13H9+
166.0778	52	C13H10+
167.0731	223	C12H9N+
178.0653	18	C13H8N+
178.0777	59	C14H10+
179.073	57	C13H9N+
180.0808	206	C13H10N+
181.0884	13	C13H11N+
191.0731	130	C14H9N+
192.0809	720	C14H10N+
193.0887	909	C14H11N+
194.0965	273	C14H12N+
204.0811	27	C15H10N+
206.0967	63	C15H12N+
207.1039	16	C15H13N+
208.1114	12	C15H14N+
220.1116	16	C16H14N+
