Mass spectrum: Fusarenon X; LC-ESI-ITFT; MS2; CE: 50%; R=7500; [M-H]-
Name: Fusarenon X
Name: [3,10-dihydroxy-2-(hydroxymethyl)-1,5-dimethyl-4-oxospiro[8-oxatricyclo[7.2.1.02,7]dodec-5-ene-12,2`-oxirane]-11-yl] acetate
Formula: C17H22O8
Exact mass: 354.1315
SMILES: CC1=CC2C(C(C1=O)O)(C3(C(C(C(C34CO4)O2)O)OC(=O)C)C)CO
InChI: InChI=1S/C17H22O8/c1-7-4-9-16(5-18,12(22)10(7)20)15(3)13(24-8(2)19)11(21)14(25-9)17(15)6-23-17/h4,9,11-14,18,21-22H,5-6H2,1-3H3
Instrument: LTQ Orbitrap XL Thermo Scientific
Instrument type: LC-ESI-ITFT
Ms type: MS2
Ion mode: NEGATIVE
Ionization: ESI
Fragmentation mode: HCD
Collision energy: 50 % (nominal)
Resolution: 7500
Column name: Hypersil GOLD C18 1.9 um 100 x 2.1 mm Thermo Fisher Scientific
Retention time: 8.449 min
Base peak: 413.1456
Precursor m/z: 353.1242
Precursor type: [M-H]-
Precursor intensity: 3185116.295898
m/z	relative intensity	assigned
59.0138	66	C2H3O2-
150.0324	17	C8H6O3-
168.0427	115	C8H8O4-
177.056	28	C10H9O3-
187.0763	891	C12H11O2-
189.0919	33	C12H13O2-
191.0717	31	C11H11O3-
199.0762	45	C13H11O2-
203.0713	87	C12H11O3-
205.0867	385	C12H13O3-
215.0709	144	C13H11O3-
217.0869	102	C13H13O3-
219.0657	30	C12H11O4-
227.0713	44	C14H11O3-
233.0817	158	C13H13O4-
245.0816	176	C14H13O4-
263.0921	999	C14H15O5-
293.1019	71	C15H17O6-
