Mass spectrum: Chlorotoluron-deschloro-OH (TENTATIVE); LC-ESI-QFT; MS2; CE: 30%; R=70000; [M+H]+
Name: Chlorotoluron-deschloro-OH
Name: 3,3-dimethyl-1-{5-methyl-7-oxabicyclo[4.1.0]hepta-2,4-dien-2-yl}urea
Formula: C10H14N2O2
Exact mass: 194.1055
SMILES: CC1=CC=C(C2C1O2)N(C(N(C)C)=O)[H]
InChI: InChI=1S/C10H14N2O2/c1-6-4-5-7(9-8(6)14-9)11-10(13)12(2)3/h4-5,8-9H,1-3H3,(H,11,13)
Instrument: Q Exactive Plus Orbitrap Thermo Scientific
Instrument type: LC-ESI-QFT
Ms type: MS2
Ion mode: POSITIVE
Ionization: ESI
Fragmentation mode: HCD
Collision energy: 30% (nominal)
Resolution: 70000
Column name: Waters UPLC BEH C18 1.7 um 2.1 mm x 100 mm with pre-column
Retention time: 12.37 min
Precursor m/z: 195.1133
Precursor type: [M+H]+
m/z	relative intensity
97.0534	17
104.0504	45
