Mass spectrum: Tentotoxin; LC-ESI-ITFT; MS2; CE: 15%; R=7500; [M-H]-
Name: Tentotoxin
Name: 12-benzylidene-1,6,7-trimethyl-3-(2-methylpropyl)-1,4,7,10-tetrazacyclododecane-2,5,8,11-tetrone
Formula: C22H30N4O4
Exact mass: 414.22671
SMILES: CC1C(=O)NC(C(=O)N(C(=CC2=CC=CC=C2)C(=O)NCC(=O)N1C)C)CC(C)C
InChI: InChI=1S/C22H30N4O4/c1-14(2)11-17-22(30)26(5)18(12-16-9-7-6-8-10-16)21(29)23-13-19(27)25(4)15(3)20(28)24-17/h6-10,12,14-15,17H,11,13H2,1-5H3,(H,23,29)(H,24,28)
Instrument: LTQ Orbitrap XL Thermo Scientific
Instrument type: LC-ESI-ITFT
Ms type: MS2
Ion mode: NEGATIVE
Ionization: ESI
Fragmentation mode: HCD
Collision energy: 15 % (nominal)
Resolution: 7500
Column name: Hypersil GOLD C18 1.9 um 100 x 2.1 mm Thermo Fisher Scientific
Retention time: 18.863 min
Base peak: 413.2183
Precursor m/z: 413.2194
Precursor type: [M-H]-
Precursor intensity: 34299889.53418
m/z	relative intensity	assigned
141.0663	21	C6H9N2O2-
199.0878	1	C12H11N2O-
243.1492	13	C15H19N2O-
271.144	20	C16H19N2O2-
413.2181	999	C22H29N4O4-
