Mass spectrum: Aspergillimide; LC-ESI-ITFT; MS2; CE: 20%; R=7500; [M+H]+
Name: Aspergillimide
Name: 1`,6,10,10,13-pentamethylspiro[3,13-diazatetracyclo[5.5.2.01,9.03,7]tetradecane-11,3`-pyrrolidine]-2`,5`,14-trione
Formula: C20H29N3O3
Exact mass: 359.2209
SMILES: CC1CCN2C13CC4C(C5(CC(=O)N(C5=O)C)CC4(C2)N(C3=O)C)(C)C
InChI: InChI=1S/C20H29N3O3/c1-12-6-7-23-11-19-10-18(9-14(24)21(4)15(18)25)17(2,3)13(19)8-20(12,23)16(26)22(19)5/h12-13H,6-11H2,1-5H3
Instrument: LTQ Orbitrap XL Thermo Scientific
Instrument type: LC-ESI-ITFT
Ms type: MS2
Ion mode: POSITIVE
Ionization: ESI
Fragmentation mode: HCD
Collision energy: 20 % (nominal)
Resolution: 7500
Column name: Hypersil GOLD C18 1.9 um 100 x 2.1 mm Thermo Fisher Scientific
Retention time: 9.284 min
Base peak: 360.2275
Precursor m/z: 360.2282
Precursor type: [M+H]+
Precursor intensity: 60398801.55859
m/z	relative intensity	assigned
269.2106	1	C16H29O3+
332.2324	9	C19H30N3O2+
360.2274	999	C20H30N3O3+
