Mass spectrum: Metoclopramide; LC-ESI-QFT; MS2; CE: CE30; R=17500; [M+H]+
Name: Metoclopramide
Name: 4-amino-5-chloro-N-[2-(diethylamino)ethyl]-2-methoxybenzamide
Formula: C14H22ClN3O2
Exact mass: 299.1401
SMILES: CCN(CC)CCNC(=O)C1=CC(Cl)=C(N)C=C1OC
InChI: InChI=1S/C14H22ClN3O2/c1-4-18(5-2)7-6-17-14(19)10-8-11(15)12(16)9-13(10)20-3/h8-9H,4-7,16H2,1-3H3,(H,17,19)
Instrument: Q Exactive Thermo Fisher Scientific
Instrument type: LC-ESI-QFT
Ms type: MS2
Ion mode: POSITIVE
Ionization: ESI
Fragmentation mode: HCD
Collision energy: CE30
Resolution: 17500
Column name: Acquity UPLC BEH C18 1.7 um, 2.1 x 150 mm, Waters
Retention time: 14.388 min
Base peak: 223.0628
Precursor m/z: 300.1473
Precursor type: [M+H]+
m/z	relative intensity	assigned
72.081	1	C4H10N+
74.0465	1	C2H6N2O+
75.0441	1	C3H7O2+
78.034	1	C5H4N+
90.0343	1	C6H4N+
92.0615	3	C7H8+
100.1119	23	C6H14N+
108.0438	1	C6H6NO+
113.0024	1	C8HO+
120.0443	2	C7H6NO+
126.0109	1	C6H5ClN+
128.0261	5	C6H7ClN+
140.9975	10	C6H4ClNO+
144.022	4	C6H7ClNO+
147.0548	2	C8H7N2O+
148.0627	11	C8H8N2O+
154.0061	2	C7H5ClNO+
156.0215	24	C7H7ClNO+
168.009	11	C7H5ClN2O+
169.9998	2	C7H5ClNO2+
182.0237	1	C11H4NO2+
183.0319	237	C8H8ClN2O+
184.0154	764	C8H7ClNO2+
187.0044	6	C13HNO+
211.0252	2	C9H8ClN2O2+
212.0348	184	C9H9ClN2O2+
227.0583	999	C10H12ClN2O2+
268.9976	9	C13H4ClN3O2+
