Mass spectrum: Etofylline; LC-ESI-ITFT; MS2; CE: 175%; R=15000; [M+H]+
Name: Etofylline
Name: 7-(2-hydroxyethyl)-1,3-dimethylpurine-2,6-dione
Formula: C9H12N4O3
Exact mass: 224.0909
SMILES: CN1C2=C(C(=O)N(C1=O)C)N(C=N2)CCO
InChI: InChI=1S/C9H12N4O3/c1-11-7-6(8(15)12(2)9(11)16)13(3-4-14)5-10-7/h5,14H,3-4H2,1-2H3
Instrument: LTQ Orbitrap XL Thermo Scientific
Instrument type: LC-ESI-ITFT
Ms type: MS2
Ion mode: POSITIVE
Ionization: ESI
Fragmentation mode: HCD
Collision energy: 175% (nominal)
Resolution: 15000
Column name: Kinetex Evo C18 2.6 um 50 x 2.1 mm
Retention time: 2.596 min
Base peak: 300.1474
Precursor m/z: 225.0982
Precursor type: [M+H]+
m/z	relative intensity	assigned
67.0289	144	C3H3N2+
68.0367	62	C3H4N2+
69.0445	999	C3H5N2+
81.0446	37	C4H5N2+
82.016	41	C3H2N2O+
94.0399	50	C4H4N3+
95.0238	26	C4H3N2O+
96.0554	54	C4H6N3+
109.027	201	C4H3N3O+
121.0507	21	C5H5N4+
124.0505	39	C5H6N3O+
