Mass spectrum: Pyranonigrin A; LC-ESI-ITFT; MS2; CE: 40%; R=7500; [M-H]-
Name: Pyranonigrin A
Name: CID 73323900
Name: 3,7-dihydroxy-2-prop-1-enyl-6,7-dihydropyrano[2,3-c]pyrrole-4,5-dione
Formula: C10H9NO5
Exact mass: 223.04807
SMILES: CC=CC1=C(C(=O)C2=C(O1)C(NC2=O)O)O
InChI: InChI=1S/C10H9NO5/c1-2-3-4-6(12)7(13)5-8(16-4)10(15)11-9(5)14/h2-3,10,12,15H,1H3,(H,11,14)
Instrument: LTQ Orbitrap XL Thermo Scientific
Instrument type: LC-ESI-ITFT
Ms type: MS2
Ion mode: NEGATIVE
Ionization: ESI
Fragmentation mode: HCD
Collision energy: 40 % (nominal)
Resolution: 7500
Column name: Hypersil GOLD C18 1.9 um 100 x 2.1 mm Thermo Fisher Scientific
Retention time: 8.469 min
Base peak: 222.0399
Precursor m/z: 222.0408
Precursor type: [M-H]-
Precursor intensity: 3745201.614014
m/z	relative intensity	assigned
83.0136	8	C4H3O2-
95.0136	5	C5H3O2-
95.05	26	C6H7O-
98.0245	7	C4H4NO2-
104.0502	33	C7H6N-
107.0498	20	C7H7O-
109.029	11	C6H5O2-
120.0451	37	C7H6NO-
121.0291	15	C7H5O2-
123.0448	219	C7H7O2-
124.004	12	C5H2NO3-
124.0403	18	C6H6NO2-
125.0245	9	C6H5O3-
132.0452	131	C8H6NO-
133.03	5	C8H5O2-
134.0241	43	C7H4NO2-
135.0449	18	C8H7O2-
148.0398	30	C8H6NO2-
149.0478	34	C8H7NO2-
150.0554	236	C8H8NO2-
151.0396	373	C8H7O3-
179.0344	109	C9H7O4-
194.0451	219	C9H8NO4-
204.0296	19	C10H6NO4-
222.0397	999	C10H8NO5-
