Mass spectrum: Amiloride; LC-ESI-QTOF; MS2; CE: 40 eV; R=3600; [M+H]+
Name: Amiloride
Name: 3,5-Diamino-N-carbamimidoyl-6-chloropyrazine-2-carboxamide
Formula: C6H8ClN7O
Exact mass: 229.0479
SMILES: NC(=N)NC(=O)C1=NC(Cl)=C(N)N=C1N
InChI: InChI=1S/C6H8ClN7O/c7-2-4(9)13-3(8)1(12-2)5(15)14-6(10)11/h(H4,8,9,13)(H4,10,11,14,15)
Instrument: 6536 QTOF Agilent
Instrument type: LC-ESI-QTOF
Ms type: MS2
Ion mode: POSITIVE
Ionization: ESI
Fragmentation mode: CID
Collision energy: 40 eV
Resolution: 3600
Precursor m/z: 230.0552
Precursor type: [M+H]+
m/z	relative intensity
53.0149	274
54.0216	4
55.0302	90
56.0389	57
60.057	610
61.9806	387
63.9963	534
66.0224	374
68.0253	9
69.0104	10
73.9799	367
74.9853	4
75.9777	11
80.0277	14
82.0373	10
86.0405	9
88.9912	318
89.9912	10
90.9873	13
99.4238	11
100.9921	216
108.0435	201
109.0469	7
116.0021	999
117.0001	11
143.014	133
171.0099	62
