Mass spectrum: Nylidrin; LC-ESI-ITFT; MS2; CE: 35%; R=15000; [M+H]+
Name: Nylidrin
Name: 4-[1-hydroxy-2-(4-phenylbutan-2-ylamino)propyl]phenol
Formula: C19H25NO2
Exact mass: 299.1885
SMILES: CC(CCC1=CC=CC=C1)NC(C)C(C2=CC=C(C=C2)O)O
InChI: InChI=1S/C19H25NO2/c1-14(8-9-16-6-4-3-5-7-16)20-15(2)19(22)17-10-12-18(21)13-11-17/h3-7,10-15,19-22H,8-9H2,1-2H3
Instrument: LTQ Orbitrap XL Thermo Scientific
Instrument type: LC-ESI-ITFT
Ms type: MS2
Ion mode: POSITIVE
Ionization: ESI
Fragmentation mode: HCD
Collision energy: 35% (nominal)
Resolution: 15000
Column name: Kinetex Evo C18 2.6 um 50 x 2.1 mm
Retention time: 6.802 min
Base peak: 300.1957
Precursor m/z: 300.1958
Precursor type: [M+H]+
m/z	relative intensity	assigned
91.0542	270	C7H7+
105.07	6	C8H9+
133.0647	55	C9H9O+
133.1011	23	C10H13+
135.0804	55	C9H11O+
148.1122	7	C10H14N+
150.0913	901	C9H12NO+
150.1275	65	C10H16N+
151.0753	58	C9H11O2+
178.1226	77	C11H16NO+
282.1852	999	C19H24NO+
300.1956	89	C19H26NO2+
