Mass spectrum: Metoclopramide; LC-ESI-QFT; MS2; CE: 80%; R=30000; [M+H]+
Name: Metoclopramide
Name: 4-Amino-5-chloro-N-[2-(diethylamino)ethyl]-2-methoxybenzamide
Formula: C14H22ClN3O2
Exact mass: 299.1401
SMILES: CCN(CC)CCNC(=O)C1=CC(Cl)=C(N)C=C1OC
InChI: InChI=1S/C14H22ClN3O2/c1-4-18(5-2)7-6-17-14(19)10-8-11(15)12(16)9-13(10)20-3/h8-9H,4-7,16H2,1-3H3,(H,17,19)
Instrument: Orbitrap Fusion Tribrid Thermo Fisher Scientific
Instrument type: LC-ESI-QFT
Ms type: MS2
Ion mode: POSITIVE
Ionization: ESI
Fragmentation mode: HCD
Collision energy: 80% (nominal)
Resolution: 30000
Precursor m/z: 300.1474
Precursor type: [M+H]+
m/z	relative intensity
72.081	17
78.034	89
80.0497	16
90.034	381
91.0418	11
92.0497	41
93.0575	169
98.9998	72
100.1123	16
105.0449	38
106.0289	15
108.0446	31
113.0028	569
119.0605	18
120.0445	57
126.0107	215
127.0185	21
128.0263	102
129.0103	80
140.0137	43
140.9978	999
144.0212	42
147.0554	18
148.0633	111
154.0055	95
155.0135	12
156.0212	174
168.0086	673
168.9925	250
170.0004	100
181.0165	32
182.0243	43
183.0321	92
184.0161	711
187.0032	73
211.027	31
212.0348	123
