Mass spectrum: Sulfamethoxazole; LC-ESI-ITFT; MS2; CE: 55%; R=7500; [M+H]+
Name: Sulfamethoxazole
Name: 4-Amino-N-(5-methyl-1,2-oxazol-3-yl)benzene-1-sulfonamide
Formula: C10H11N3O3S
Exact mass: 253.0521
SMILES: CC1=CC(NS(=O)(=O)C2=CC=C(N)C=C2)=NO1
InChI: InChI=1S/C10H11N3O3S/c1-7-6-10(12-16-7)13-17(14,15)9-4-2-8(11)3-5-9/h2-6H,11H2,1H3,(H,12,13)
Instrument: LTQ Orbitrap XL Thermo Fisher Scientific
Instrument type: LC-ESI-ITFT
Ms type: MS2
Ion mode: POSITIVE
Ionization: ESI
Fragmentation mode: HCD
Collision energy: 55% (nominal)
Resolution: 7500
Column name: Hypersil GOLD C18 1.9 um 100 x 2.1 mm Thermo Fisher Scientific
Precursor m/z: 254.0594
Precursor type: [M+H]+
m/z	relative intensity
65.0384	45
80.0494	6
92.0494	788
93.0572	197
94.0651	15
99.0553	224
107.0606	24
108.0445	999
110.06	36
120.0557	21
121.0763	5
131.0603	7
132.0683	5
146.0714	36
147.0792	117
148.0871	19
156.0114	781
160.087	180
161.0017	15
173.0585	4
176.0278	7
188.0821	16
190.0967	2
194.0383	4
254.0594	8
