Mass spectrum: Deoxybrevianamide E; LC-ESI-ITFT; MS2; CE: 60%; R=7500; [M+H]+
Name: Deoxybrevianamide E
Name: Desoxybrevianamide E
Name: 3-[[2-(2-methylbut-3-en-2-yl)-1H-indol-3-yl]methyl]-2,3,6,7,8,8a-hexahydropyrrolo[1,2-a]pyrazine-1,4-dione
Formula: C21H25N3O2
Exact mass: 351.1947
SMILES: CC(C)(C=C)C1=C(C2=CC=CC=C2N1)CC3C(=O)N4CCCC4C(=O)N3
InChI: InChI=1S/C21H25N3O2/c1-4-21(2,3)18-14(13-8-5-6-9-15(13)22-18)12-16-20(26)24-11-7-10-17(24)19(25)23-16/h4-6,8-9,16-17,22H,1,7,10-12H2,2-3H3,(H,23,25)
Instrument: LTQ Orbitrap XL Thermo Scientific
Instrument type: LC-ESI-ITFT
Ms type: MS2
Ion mode: POSITIVE
Ionization: ESI
Fragmentation mode: HCD
Collision energy: 60 % (nominal)
Resolution: 7500
Column name: Hypersil GOLD C18 1.9 um 100 x 2.1 mm Thermo Fisher Scientific
Retention time: 18.048 min
Base peak: 352.2022
Precursor m/z: 352.202
Precursor type: [M+H]+
Precursor intensity: 11179958.49219
m/z	relative intensity	assigned
69.0698	24	C5H9+
70.0649	11	C4H8N+
125.0707	25	C6H9N2O+
130.065	999	C9H8N+
132.0806	40	C9H10N+
143.073	59	C10H9N+
144.0806	49	C10H10N+
153.0656	18	C7H9N2O2+
156.0807	64	C11H10N+
159.0915	38	C10H11N2+
169.0881	30	C12H11N+
170.0599	97	C11H8NO+
171.0915	62	C11H11N2+
173.1071	14	C11H13N2+
182.0597	55	C12H8NO+
183.104	77	C13H13N+
196.1118	23	C14H14N+
198.1275	899	C14H16N+
199.0867	44	C12H11N2O+
200.143	4	C14H18N+
223.123	12	C15H15N2+
238.1223	13	C16H16NO+
250.1338	14	C16H16N3+
268.1433	25	C16H18N3O+
296.1396	66	C17H18N3O2+
