Mass spectrum: a Zearalanol; LC-ESI-ITFT; MS2; CE: 50%; R=7500; [M+H]+
Name: a Zearalanol
Name: Ralgro
Name: 8,16,18-trihydroxy-4-methyl-3-oxabicyclo[12.4.0]octadeca-1(14),15,17-trien-2-one
Formula: C18H26O5
Exact mass: 322.1780
SMILES: CC1CCCC(CCCCCC2=C(C(=CC(=C2)O)O)C(=O)O1)O
InChI: InChI=1S/C18H26O5/c1-12-6-5-9-14(19)8-4-2-3-7-13-10-15(20)11-16(21)17(13)18(22)23-12/h10-12,14,19-21H,2-9H2,1H3
Instrument: LTQ Orbitrap XL Thermo Scientific
Instrument type: LC-ESI-ITFT
Ms type: MS2
Ion mode: POSITIVE
Ionization: ESI
Fragmentation mode: HCD
Collision energy: 50 % (nominal)
Resolution: 7500
Column name: Hypersil GOLD C18 1.9 um 100 x 2.1 mm Thermo Fisher Scientific
Retention time: 20.421 min
Base peak: 323.1853
Precursor m/z: 323.1853
Precursor type: [M+H]+
Precursor intensity: 11853700.02588
m/z	relative intensity	assigned
123.0439	713	C7H7O2+
123.1168	94	C9H15+
149.0592	392	C9H9O2+
161.0598	193	C10H9O2+
163.0751	942	C10H11O2+
167.0336	582	C8H7O4+
175.0751	124	C11H11O2+
177.0544	193	C10H9O3+
177.0902	362	C11H13O2+
189.0544	277	C11H9O3+
189.0907	938	C12H13O2+
191.0708	111	C11H11O3+
191.1074	144	C12H15O2+
203.1063	350	C13H15O2+
207.0647	210	C11H11O4+
207.1016	536	C12H15O3+
259.1681	275	C17H23O2+
269.1528	351	C18H21O2+
277.1793	999	C17H25O3+
287.1642	640	C18H23O3+
305.1736	595	C18H25O4+
