Mass spectrum: Sulfamethoxazole; LC-ESI-QFT; MS2; CE: 20%; R=30000; [M+H]+
Name: Sulfamethoxazole
Name: 4-Amino-N-(5-methyl-1,2-oxazol-3-yl)benzene-1-sulfonamide
Formula: C10H11N3O3S
Exact mass: 253.0521
SMILES: CC1=CC(NS(=O)(=O)C2=CC=C(N)C=C2)=NO1
InChI: InChI=1S/C10H11N3O3S/c1-7-6-10(12-16-7)13-17(14,15)9-4-2-8(11)3-5-9/h2-6H,11H2,1H3,(H,12,13)
Instrument: Orbitrap Fusion Tribrid Thermo Fisher Scientific
Instrument type: LC-ESI-QFT
Ms type: MS2
Ion mode: POSITIVE
Ionization: ESI
Fragmentation mode: HCD
Collision energy: 20% (nominal)
Resolution: 30000
Precursor m/z: 254.0594
Precursor type: [M+H]+
m/z	relative intensity
65.0387	2
80.0497	1
92.0497	137
93.0575	121
94.0654	27
99.0555	132
107.0606	22
108.0446	172
110.0602	3
119.0605	1
120.0557	2
131.0606	4
132.0684	2
133.0635	2
145.0763	2
146.0714	32
147.0792	139
148.0871	38
156.0115	999
160.087	89
161.0018	9
176.0278	8
188.082	172
190.0975	44
194.0384	34
254.0594	390
