Mass spectrum: Ethambutol; ESI-QTOF; MS2; CE: 45eV; R=15000; [M+H]+
Name: Ethambutol
Name: (2S,2'S)-2,2'-(Ethane-1,2-diyldiazanediyl)di(butan-1-ol)
Formula: C10H24N2O2
Exact mass: 204.1838
SMILES: CC[C@@H](CO)NCCN[C@@H](CC)CO
InChI: InChI=1S/C10H24N2O2/c1-3-9(7-13)11-5-6-12-10(4-2)8-14/h9-14H,3-8H2,1-2H3/t9-,10-/m0/s1
Instrument: TripleTOF 5600+SCIEX
Instrument type: ESI-QTOF
Ms type: MS2
Ion mode: POSITIVE
Ionization: ESI
Fragmentation mode: CID
Collision energy: 45 eV
Resolution: 15000
Precursor m/z: 205.1911
Precursor type: [M+H]+
m/z	relative intensity
51.0253	1
53.0415	23
55.0571	610
56.0522	80
56.1129	1
56.1301	1
57.0721	2
62.0624	12
63.9307	11
65.0405	3
67.0556	2
68.0514	2
69.0716	11
70.067	16
71.0744	1
72.0826	20
74.0617	17
77.0402	2
79.0557	6
81.0716	6
82.0663	1
83.0749	1
86.0975	1
90.0924	5
91.0555	3
93.0709	1
95.0866	1
96.0814	2
98.0973	50
105.0707	1
116.1074	999
117.1077	1
118.1101	1
