Mass spectrum: Verrucarol; LC-ESI-ITFT; MS2; CE: 20%; R=7500; [M+H]+
Name: Verrucarol
Name: 2-(hydroxymethyl)-1,5-dimethylspiro[8-oxatricyclo[7.2.1.02,7]dodec-5-ene-12,2`-oxirane]-11-ol
Formula: C15H22O4
Exact mass: 266.1518
SMILES: CC1=CC2C(CC1)(C3(C(CC(C34CO4)O2)O)C)CO
InChI: InChI=1S/C15H22O4/c1-9-3-4-14(7-16)11(5-9)19-12-6-10(17)13(14,2)15(12)8-18-15/h5,10-12,16-17H,3-4,6-8H2,1-2H3
Instrument: LTQ Orbitrap XL Thermo Scientific
Instrument type: LC-ESI-ITFT
Ms type: MS2
Ion mode: POSITIVE
Ionization: ESI
Fragmentation mode: HCD
Collision energy: 20 % (nominal)
Resolution: 7500
Column name: Hypersil GOLD C18 1.9 um 100 x 2.1 mm Thermo Fisher Scientific
Retention time: 9.552 min
Base peak: 281.1746
Precursor m/z: 267.1591
Precursor type: [M+H]+
Precursor intensity: 1444987.136719
m/z	relative intensity	assigned
231.1371	828	C15H19O2+
267.158	999	C15H23O4+
