Mass spectrum: Dothiepin; LC-ESI-QFT; MS2; CE: 45%; R=17500; [M+H]+
Name: Dothiepin
Name: 3-(Dibenzo[b,e]thiepin-11(6H)-ylidene)-N,N-dimethylpropan-1-amine
Formula: C19H21NS
Exact mass: 295.1395
SMILES: CN(C)CCC=C1C2=CC=CC=C2CSC2=C1C=CC=C2
InChI: InChI=1S/C19H21NS/c1-20(2)13-7-11-17-16-9-4-3-8-15(16)14-21-19-12-6-5-10-18(17)19/h3-6,8-12H,7,13-14H2,1-2H3
Instrument: Q Exactive Thermo Fisher Scientific
Instrument type: LC-ESI-QFT
Ms type: MS2
Ion mode: POSITIVE
Ionization: ESI
Fragmentation mode: HCD
Collision energy: 45% (nominal)
Resolution: 17500
Column name: Hypersil GOLD 1.9 um 2.1 x 100 mm Thermo Fisher Scientific
Precursor m/z: 296.1468
Precursor type: [M+H]+
m/z	relative intensity
58.066	414
91.0549	325
117.0702	553
123.0266	262
147.0264	305
173.042	75
178.0779	85
191.0856	137
192.0935	136
203.0856	235
209.0421	265
210.0501	119
217.1015	275
218.1093	952
221.042	187
222.0498	299
223.0576	999
225.0735	387
236.0656	194
251.0892	123
