Mass spectrum: Cyclizine; LC-ESI-QTOF; MS2; CE: 35 eV; R=3600; [M+H]+
Name: Cyclizine
Name: 1-(Diphenylmethyl)-4-methylpiperazine
Formula: C18H22N2
Exact mass: 266.1783
SMILES: CN1CCN(CC1)C(C1=CC=CC=C1)C1=CC=CC=C1
InChI: InChI=1S/C18H22N2/c1-19-12-14-20(15-13-19)18(16-8-4-2-5-9-16)17-10-6-3-7-11-17/h2-11,18H,12-15H2,1H3
Instrument: 6545 QTOF Agilent
Instrument type: LC-ESI-QTOF
Ms type: MS2
Ion mode: POSITIVE
Ionization: ESI
Fragmentation mode: CID
Collision energy: 35 eV
Resolution: 3600
Precursor m/z: 267.1856
Precursor type: [M+H]+
m/z	relative intensity
72.962	66
115.0621	206
128.0707	183
151.0607	51
152.0625	982
165.0739	999
166.082	294
167.0951	338
168.6297	51
