Mass spectrum: Terrein; LC-ESI-ITFT; MS2; CE: 30%; R=7500; [M-H]-
Name: Terrein
Name: 4,5-dihydroxy-3-prop-1-enylcyclopent-2-en-1-one
Formula: C8H10O3
Exact mass: 154.0630
SMILES: CC=CC1=CC(=O)C(C1O)O
InChI: InChI=1S/C8H10O3/c1-2-3-5-4-6(9)8(11)7(5)10/h2-4,7-8,10-11H,1H3
Instrument: LTQ Orbitrap XL Thermo Scientific
Instrument type: LC-ESI-ITFT
Ms type: MS2
Ion mode: NEGATIVE
Ionization: ESI
Fragmentation mode: HCD
Collision energy: 30 % (nominal)
Resolution: 7500
Column name: Hypersil GOLD C18 1.9 um 100 x 2.1 mm Thermo Fisher Scientific
Retention time: 4.717 min
Base peak: 153.0558
Precursor m/z: 153.0557
Precursor type: [M-H]-
Precursor intensity: 1525738.071777
m/z	relative intensity	assigned
69.0348	20	C4H5O-
91.0555	17	C7H7-
95.0503	51	C6H7O-
97.0294	34	C5H5O2-
97.066	116	C6H9O-
107.0502	80	C7H7O-
109.066	93	C7H9O-
112.0165	133	C5H4O3-
123.0452	16	C7H7O2-
124.0167	101	C6H4O3-
125.0608	338	C7H9O2-
135.0451	334	C8H7O2-
138.0322	16	C7H6O3-
153.0557	999	C8H9O3-
