Mass spectrum: Aspercolorin; LC-ESI-ITFT; MS2; CE: 30%; R=7500; [M+H]+
Name: Aspercolorin
Name: 14-benzyl-19-methoxy-2,8,12,15-tetrazatricyclo[15.4.0.04,8]henicosa-1(17),18,20-triene-3,9,13,16-tetrone
Formula: C25H28N4O5
Exact mass: 464.2060
SMILES: COC1=CC2=C(C=C1)NC(=O)C3CCCN3C(=O)CCNC(=O)C(NC2=O)CC4=CC=CC=C4
InChI: InChI=1S/C25H28N4O5/c1-34-17-9-10-19-18(15-17)23(31)28-20(14-16-6-3-2-4-7-16)24(32)26-12-11-22(30)29-13-5-8-21(29)25(33)27-19/h2-4,6-7,9-10,15,20-21H,5,8,11-14H2,1H3,(H,26,32)(H,27,33)(H,28,31)
Instrument: LTQ Orbitrap XL Thermo Scientific
Instrument type: LC-ESI-ITFT
Ms type: MS2
Ion mode: POSITIVE
Ionization: ESI
Fragmentation mode: HCD
Collision energy: 30 % (nominal)
Resolution: 7500
Column name: Hypersil GOLD C18 1.9 um 100 x 2.1 mm Thermo Fisher Scientific
Retention time: 19.757 min
Base peak: 465.2133
Precursor m/z: 465.2132
Precursor type: [M+H]+
Precursor intensity: 7982286.074951
m/z	relative intensity	assigned
57.1388	10	CH17N2+
70.065	78	C4H8N+
120.0807	150	C8H10N+
124.0755	68	C7H10NO+
132.0808	6	C9H10N+
141.1022	93	C7H13N2O+
150.055	54	C8H8NO2+
152.0704	32	C8H10NO2+
165.103	19	C9H13N2O+
169.0972	14	C8H13N2O2+
174.0914	30	C11H12NO+
177.1019	21	C10H13N2O+
178.0497	24	C9H8NO3+
191.1177	53	C11H15N2O+
219.1128	928	C12H15N2O2+
221.0919	57	C11H13N2O3+
247.1074	999	C13H15N2O3+
269.1282	146	C16H17N2O2+
289.1176	17	C15H17N2O4+
300.1345	20	C16H18N3O3+
301.1184	68	C16H17N2O4+
318.1445	595	C16H20N3O4+
328.1291	31	C17H18N3O4+
368.1603	125	C20H22N3O4+
396.156	23	C21H22N3O5+
447.2033	9	C25H27N4O4+
465.2127	146	C25H29N4O5+
