Mass spectrum: Dosulepin; LC-ESI-ITFT; MS2; CE: 90%; R=15000; [M+H]+
Name: Dosulepin
Name: Dothiepin
Name: 3-(6H-benzo[c][1]benzothiepin-11-ylidene)-N,N-dimethylpropan-1-amine
Formula: C19H21NS
Exact mass: 295.1395
SMILES: CN(C)CCC=C1C2=CC=CC=C2CSC3=CC=CC=C31
InChI: InChI=1S/C19H21NS/c1-20(2)13-7-11-17-16-9-4-3-8-15(16)14-21-19-12-6-5-10-18(17)19/h3-6,8-12H,7,13-14H2,1-2H3
Instrument: LTQ Orbitrap XL Thermo Scientific
Instrument type: LC-ESI-ITFT
Ms type: MS2
Ion mode: POSITIVE
Ionization: ESI
Fragmentation mode: HCD
Collision energy: 90% (nominal)
Resolution: 15000
Column name: Kinetex Evo C18 2.6 um 50 x 2.1 mm
Retention time: 8.175 min
Base peak: 296.1468
Precursor m/z: 296.1467
Precursor type: [M+H]+
m/z	relative intensity	assigned
70.0649	12	C4H8N+
72.0808	8	C4H10N+
84.0806	27	C5H10N+
91.0543	386	C7H7+
103.0543	13	C8H7+
115.0543	300	C9H7+
117.0699	343	C9H9+
123.0263	115	C7H7S+
128.0621	39	C10H8+
129.0699	82	C10H9+
135.0265	27	C8H7S+
141.07	91	C11H9+
142.0776	30	C11H10+
147.0263	166	C9H7S+
165.0699	295	C13H9+
173.0421	31	C11H9S+
178.0778	634	C14H10+
179.0856	148	C14H11+
189.0701	37	C15H9+
190.0778	49	C15H10+
191.0856	260	C15H11+
192.0934	142	C15H12+
197.0425	10	C13H9S+
202.0779	549	C16H10+
203.0856	999	C16H11+
204.0932	25	C16H12+
208.0341	63	C14H8S+
209.0421	48	C14H9S+
210.0498	261	C14H10S+
215.0857	109	C17H11+
216.0936	63	C17H12+
217.1013	746	C17H13+
218.109	126	C17H14+
221.042	834	C15H9S+
222.0498	224	C15H10S+
223.0576	207	C15H11S+
234.05	87	C16H10S+
235.0578	226	C16H11S+
236.0649	20	C16H12S+
