Mass spectrum: Dechlorogriseofulvin; LC-ESI-ITFT; MS2; CE: 15%; R=7500; [M+H]+
Name: Dechlorogriseofulvin
Name: Spiro(benzofuran-2(3H),1`-(2)cyclohexene)-3,4`-dione, 2`,4,6-trimethoxy-6`-methyl-
Name: 3`,4,6-trimethoxy-5`-methylspiro[1-benzofuran-2,4`-cyclohex-2-ene]-1`,3-dione
Formula: C17H18O6
Exact mass: 318.1103
SMILES: CC1CC(=O)C=C(C12C(=O)C3=C(O2)C=C(C=C3OC)OC)OC
InChI: InChI=1S/C17H18O6/c1-9-5-10(18)6-14(22-4)17(9)16(19)15-12(21-3)7-11(20-2)8-13(15)23-17/h6-9H,5H2,1-4H3
Instrument: LTQ Orbitrap XL Thermo Scientific
Instrument type: LC-ESI-ITFT
Ms type: MS2
Ion mode: POSITIVE
Ionization: ESI
Fragmentation mode: HCD
Collision energy: 15 % (nominal)
Resolution: 7500
Column name: Hypersil GOLD C18 1.9 um 100 x 2.1 mm Thermo Fisher Scientific
Retention time: 17.624 min
Base peak: 319.1179
Precursor m/z: 319.1176
Precursor type: [M+H]+
Precursor intensity: 642165.65625
m/z	relative intensity	assigned
181.0504	37	C9H9O4+
319.118	999	C17H19O6+
