Mass spectrum: Dosulepin; LC-ESI-ITFT; MS2; CE: 125%; R=15000; [M+H]+
Name: Dosulepin
Name: Dothiepin
Name: 3-(6H-benzo[c][1]benzothiepin-11-ylidene)-N,N-dimethylpropan-1-amine
Formula: C19H21NS
Exact mass: 295.1395
SMILES: CN(C)CCC=C1C2=CC=CC=C2CSC3=CC=CC=C31
InChI: InChI=1S/C19H21NS/c1-20(2)13-7-11-17-16-9-4-3-8-15(16)14-21-19-12-6-5-10-18(17)19/h3-6,8-12H,7,13-14H2,1-2H3
Instrument: LTQ Orbitrap XL Thermo Scientific
Instrument type: LC-ESI-ITFT
Ms type: MS2
Ion mode: POSITIVE
Ionization: ESI
Fragmentation mode: HCD
Collision energy: 125% (nominal)
Resolution: 15000
Column name: Kinetex Evo C18 2.6 um 50 x 2.1 mm
Retention time: 8.162 min
Base peak: 296.1467
Precursor m/z: 296.1467
Precursor type: [M+H]+
m/z	relative intensity	assigned
58.0649	70	C3H8N+
65.0383	18	C5H5+
77.0384	10	C6H5+
79.0542	8	C6H7+
84.0806	7	C5H10N+
91.0542	291	C7H7+
103.0542	15	C8H7+
105.0448	9	C6H5N2+
115.0542	244	C9H7+
116.0622	13	C9H8+
117.0698	28	C9H9+
121.0108	10	C7H5S+
123.0265	6	C7H7S+
128.062	61	C10H8+
129.0699	15	C10H9+
134.0182	10	C8H6S+
135.0262	5	C8H7S+
141.0698	55	C11H9+
147.0263	44	C9H7S+
152.062	40	C12H8+
155.0601	8	C10H7N2+
164.0626	7	C13H8+
165.0699	239	C13H9+
171.0268	11	C11H7S+
176.062	21	C14H8+
177.0699	37	C14H9+
178.0777	428	C14H10+
179.0858	20	C14H11+
184.0345	10	C12H8S+
189.07	102	C15H9+
190.0776	39	C15H10+
191.0856	118	C15H11+
201.0699	21	C16H9+
202.0777	999	C16H10+
203.0855	146	C16H11+
204.0935	5	C16H12+
208.0343	55	C14H8S+
209.0418	28	C14H9S+
210.0495	25	C14H10S+
215.0855	244	C17H11+
216.0934	47	C17H12+
217.1011	54	C17H13+
221.0419	569	C15H9S+
222.0495	9	C15H10S+
223.0574	6	C15H11S+
234.0498	124	C16H10S+
235.0579	38	C16H11S+
