Mass spectrum: Chlorotoluron-OH (TENTATIVE); LC-ESI-QFT; MS2; CE: 55%; R=70000; [M+H]+
Name: Chlorotoluron-OH
Formula: C10H13ClN2O2
Exact mass: 228.066
SMILES: C(*)C1=C(c(*)=C(C(*)=C(*)1)NC(=O)N(C(*))C)Cl  * = [OH (n=1) & H (n=4)]
Instrument: Q Exactive Plus Orbitrap Thermo Scientific
Instrument type: LC-ESI-QFT
Ms type: MS2
Ion mode: POSITIVE
Ionization: ESI
Fragmentation mode: HCD
Collision energy: 55% (nominal)
Resolution: 70000
Column name: Waters UPLC BEH C18 1.7 um 2.1 mm x 100 mm with pre-column
Retention time: 9.5 min
Precursor m/z: 229.0738
Precursor type: [M+H]+
m/z	relative intensity
56.0133	58
65.0386	45
66.0466	16
67.0543	27
72.0444	999
77.0384	15
79.0543	20
81.0696	17
91.0541	44
93.0573	56
95.049	39
104.0493	24
122.9996	57
