Mass spectrum: Tentotoxin; LC-ESI-ITFT; MS2; CE: 50%; R=7500; [M+H]+
Name: Tentotoxin
Name: 12-benzylidene-1,6,7-trimethyl-3-(2-methylpropyl)-1,4,7,10-tetrazacyclododecane-2,5,8,11-tetrone
Formula: C22H30N4O4
Exact mass: 414.2267
SMILES: CC1C(=O)NC(C(=O)N(C(=CC2=CC=CC=C2)C(=O)NCC(=O)N1C)C)CC(C)C
InChI: InChI=1S/C22H30N4O4/c1-14(2)11-17-22(30)26(5)18(12-16-9-7-6-8-10-16)21(29)23-13-19(27)25(4)15(3)20(28)24-17/h6-10,12,14-15,17H,11,13H2,1-5H3,(H,23,29)(H,24,28)
Instrument: LTQ Orbitrap XL Thermo Scientific
Instrument type: LC-ESI-ITFT
Ms type: MS2
Ion mode: POSITIVE
Ionization: ESI
Fragmentation mode: HCD
Collision energy: 50 % (nominal)
Resolution: 7500
Column name: Hypersil GOLD C18 1.9 um 100 x 2.1 mm Thermo Fisher Scientific
Retention time: 18.896 min
Base peak: 415.2344
Precursor m/z: 415.234
Precursor type: [M+H]+
Precursor intensity: 24863502.65039
m/z	relative intensity	assigned
58.065	402	C3H8N+
73.0972	11	H13N2O2+
86.0963	92	C5H12N+
91.054	69	C7H7+
113.0713	14	C5H9N2O+
114.0912	30	C6H12NO+
115.0539	18	C9H7+
115.0866	48	C5H11N2O+
126.0554	9	C6H8NO2+
130.0653	34	C9H8N+
132.0807	704	C9H10N+
143.0818	16	C6H11N2O2+
144.0805	21	C10H10N+
146.0963	134	C10H12N+
160.0758	50	C10H10NO+
169.1333	54	C9H17N2O+
171.0915	37	C11H11N2+
171.149	221	C9H19N2O+
173.1072	44	C11H13N2+
181.1333	46	C10H17N2O+
188.0705	306	C11H10NO2+
189.1022	999	C11H13N2O+
199.108	34	C9H15N2O3+
200.1175	28	C12H14N3+
210.16	73	C11H20N3O+
214.1584	16	C15H20N+
217.097	175	C12H13N2O2+
227.1536	17	C15H19N2+
229.169	11	C15H21N2+
238.1552	39	C12H20N3O2+
239.1538	31	C16H19N2+
245.1638	41	C15H21N2O+
256.1805	758	C16H22N3+
257.1648	14	C16H21N2O+
273.1591	21	C16H21N2O2+
284.1759	76	C17H22N3O+
301.155	68	C17H21N2O3+
302.1494	11	C16H20N3O3+
302.1856	13	C17H24N3O2+
312.1703	294	C18H22N3O2+
327.1694	42	C19H23N2O3+
330.1811	113	C18H24N3O3+
