Mass spectrum: Communesin A; LC-ESI-ITFT; MS2; CE: 60%; R=7500; [M+H]+
Name: Communesin A
Name: 1-Acetyl-17-(3,3-dimethyloxiranyl)-1,2,3,8a,9,14,15,16a-octahydro-9-methyl-13,16-methano-8H,16H-pyrrolo[2`,3`:2,3]pyrido[4,3-o]quinindoline
Name: 1-[25-(3,3-dimethyloxiran-2-yl)-15-methyl-1,3,13,15-tetrazaheptacyclo[18.4.1.02,6.06,22.07,12.014,22.016,21]pentacosa-7,9,11,16,18,20-hexaen-3-yl]ethanone
Formula: C28H32N4O2
Exact mass: 456.2525
SMILES: CC(=O)N1CCC23C1N4CCC25C(NC6=CC=CC=C36)N(C7=CC=CC(=C57)C4C8C(O8)(C)C)C
InChI: InChI=1S/C28H32N4O2/c1-16(33)31-14-12-27-18-9-5-6-10-19(18)29-24-28(27)13-15-32(25(27)31)22(23-26(2,3)34-23)17-8-7-11-20(21(17)28)30(24)4/h5-11,22-25,29H,12-15H2,1-4H3
Instrument: LTQ Orbitrap XL Thermo Scientific
Instrument type: LC-ESI-ITFT
Ms type: MS2
Ion mode: POSITIVE
Ionization: ESI
Fragmentation mode: HCD
Collision energy: 60 % (nominal)
Resolution: 7500
Column name: Hypersil GOLD C18 1.9 um 100 x 2.1 mm Thermo Fisher Scientific
Retention time: 20.195 min
Base peak: 457.2602
Precursor m/z: 457.2598
Precursor type: [M+H]+
Precursor intensity: 16426776.13379
m/z	relative intensity	assigned
130.0652	82	C9H8N+
144.0808	86	C10H10N+
156.0803	43	C11H10N+
157.0764	34	C10H9N2+
158.0961	47	C11H12N+
159.0917	457	C10H11N2+
168.0809	277	C12H10N+
169.0757	55	C11H9N2+
169.089	44	C12H11N+
170.0964	62	C12H12N+
171.0921	38	C11H11N2+
181.0887	117	C13H11N+
182.0964	72	C13H12N+
183.0917	364	C12H11N2+
184.0996	265	C12H12N2+
185.1074	321	C12H13N2+
186.1107	38	C7H14N4O2+
194.0964	32	C14H12N+
196.1113	90	C14H14N+
197.1076	294	C13H13N2+
198.1155	293	C13H14N2+
201.1017	30	C12H13N2O+
210.1272	76	C15H16N+
220.1124	12	C16H14N+
224.1067	26	C13H12N4+
226.1229	31	C15H16NO+
237.1394	27	C16H17N2+
238.1232	22	C16H16NO+
255.1494	77	C16H19N2O+
283.1239	80	C20H15N2+
294.1149	42	C21H14N2+
295.1231	169	C21H15N2+
296.1322	82	C21H16N2+
297.1391	173	C21H17N2+
299.1547	67	C21H19N2+
307.1228	48	C22H15N2+
308.1312	76	C22H16N2+
309.1389	268	C22H17N2+
314.1667	14	C21H20N3+
323.1543	168	C23H19N2+
325.1444	18	C21H17N4+
326.1648	317	C22H20N3+
341.1639	21	C23H21N2O+
343.1936	14	C24H25NO+
354.1742	12	C24H22N2O+
368.1777	42	C26H24O2+
381.1956	47	C26H25N2O+
385.2027	999	C24H25N4O+
