Mass spectrum: Metoclopramide; LC-ESI-QFT; MS2; CE: CE90; R=17500; [M+H]+
Name: Metoclopramide
Name: 4-amino-5-chloro-N-[2-(diethylamino)ethyl]-2-methoxybenzamide
Formula: C14H22ClN3O2
Exact mass: 299.1401
SMILES: CCN(CC)CCNC(=O)C1=CC(Cl)=C(N)C=C1OC
InChI: InChI=1S/C14H22ClN3O2/c1-4-18(5-2)7-6-17-14(19)10-8-11(15)12(16)9-13(10)20-3/h8-9H,4-7,16H2,1-3H3,(H,17,19)
Instrument: Q Exactive Thermo Fisher Scientific
Instrument type: LC-ESI-QFT
Ms type: MS2
Ion mode: POSITIVE
Ionization: ESI
Fragmentation mode: HCD
Collision energy: CE90
Resolution: 17500
Column name: Acquity UPLC BEH C18 1.7 um, 2.1 x 150 mm, Waters
Retention time: 14.388 min
Base peak: 223.0628
Precursor m/z: 300.1473
Precursor type: [M+H]+
m/z	relative intensity	assigned
50.0156	16	C4H2+
51.0235	40	C4H3+
52.0186	46	C3H2N+
53.0025	7	ClH4N+
53.0263	1	C3H3N+
54.0343	51	C3H4N+
62.0152	8	C5H2+
63.0233	154	C5H3+
64.0184	28	C4H2N+
65.0387	30	C5H5+
66.0464	16	C5H6+
68.0134	2	ClH5N2+
72.984	67	C3H2Cl+
75.0226	4	C6H3+
76.018	2	C5H2N+
78.034	999	C5H4N+
80.013	3	C4H2NO+
80.0497	2	C5H6N+
81.0336	16	C5H5O+
82.0288	83	C4H4NO+
86.9997	3	C4H4Cl+
87.995	29	C3H3ClN+
88.9788	2	C3H2ClO+
90.0108	14	C3H5ClN+
90.0334	41	C6H4N+
91.0419	15	C6H5N+
92.0497	11	C6H6N+
92.0615	2	C7H8+
93.0575	29	C6H7N+
94.0411	5	C6H6O+
96.0441	17	C5H6NO+
98.9999	36	C5H4Cl+
99.9952	4	C4H3ClN+
105.0447	41	C6H5N2+
108.0438	17	C6H6NO+
113.0023	21	C8HO+
114.0106	10	C5H5ClN+
115.9902	23	C4H3ClNO+
118.0057	4	C4H5ClNO+
119.061	6	C7H7N2+
120.0443	1	C7H6NO+
126.011	2	C6H5ClN+
127.018	5	C9H3O+
127.9893	11	C8O2+
128.9977	2	C5H4ClNO+
129.0102	3	C6H6ClO+
139.0053	8	C9HNO+
140.0135	12	C6H5ClN2+
140.9975	48	C6H4ClNO+
144.022	2	C6H7ClNO+
144.9923	49	C5H4ClNO2+
153.021	4	C10H3NO+
156.02	2	C10H4O2+
158.9958	3	C5H4ClN2O2+
168.0096	10	C7H5ClN2O+
170.0356	8	C11H6O2+
171.0327	8	C7H8ClN2O+
172.0151	6	C7H7ClNO2+
172.0322	2	C14H4+
173.0104	5	C6H6ClN2O2+
187.0042	2	C13HNO+
