Mass spectrum: Etilefrine; LC-ESI-ITFT; MS2; CE: 150%; R=15000; [M+H]+
Name: Etilefrine
Name: 3-[2-(ethylamino)-1-hydroxyethyl]phenol
Formula: C10H15NO2
Exact mass: 181.1103
SMILES: CCNCC(C1=CC(=CC=C1)O)O
InChI: InChI=1S/C10H15NO2/c1-2-11-7-10(13)8-4-3-5-9(12)6-8/h3-6,10-13H,2,7H2,1H3
Instrument: LTQ Orbitrap XL Thermo Scientific
Instrument type: LC-ESI-ITFT
Ms type: MS2
Ion mode: POSITIVE
Ionization: ESI
Fragmentation mode: HCD
Collision energy: 150% (nominal)
Resolution: 15000
Column name: Kinetex Evo C18 2.6 um 50 x 2.1 mm
Retention time: 0.495 min
Base peak: 182.1176
Precursor m/z: 182.1176
Precursor type: [M+H]+
m/z	relative intensity	assigned
65.0384	471	C5H5+
77.0385	108	C6H5+
79.0541	93	C6H7+
80.0492	20	C5H6N+
81.0699	20	C6H9+
89.0386	21	C7H5+
90.0464	43	C7H6+
91.0542	999	C7H7+
92.0495	38	C6H6N+
93.0575	11	C6H7N+
94.0413	103	C6H6O+
95.049	21	C6H7O+
103.0542	12	C8H7+
105.0447	110	C6H5N2+
106.0651	85	C7H8N+
107.0491	275	C7H7O+
108.0565	10	C7H8O+
116.0493	15	C8H6N+
117.0572	58	C8H7N+
118.0651	46	C8H8N+
120.0442	50	C7H6NO+
121.0391	10	C6H5N2O+
134.0601	117	C8H8NO+
