Mass spectrum: Tetracycline; LC-ESI-ITFT; MS2; CE: 45%; R=15000; [M+H]+
Name: Tetracycline
Name: 2-[amino(hydroxy)methylidene]-4-(dimethylamino)-6,10,11,12a-tetrahydroxy-6-methyl-4,4a,5,5a-tetrahydrotetracene-1,3,12-trione
Formula: C22H24N2O8
Exact mass: 444.1533
SMILES: [H][C@@]12C[C@@]3([H])C(=C(O)[C@]1(O)C(=O)C(C(N)=O)=C(O)[C@H]2N(C)C)C(=O)C1=C(C=CC=C1O)[C@@]3(C)O
InChI: InChI=1S/C22H24N2O8/c1-21(31)8-5-4-6-11(25)12(8)16(26)13-9(21)7-10-15(24(2)3)17(27)14(20(23)30)19(29)22(10,32)18(13)28/h4-6,9-10,15,25,27-28,31-32H,7H2,1-3H3,(H2,23,30)/t9-,10-,15-,21+,22-/m0/s1
Instrument: LTQ Orbitrap XL Thermo Scientific
Instrument type: LC-ESI-ITFT
Ms type: MS2
Ion mode: POSITIVE
Ionization: ESI
Fragmentation mode: HCD
Collision energy: 45% (nominal)
Resolution: 15000
Column name: Kinetex Evo C18 2.6 um 50 x 2.1 mm
Retention time: 2.655 min
Base peak: 300.1475
Precursor m/z: 445.1605
Precursor type: [M+H]+
m/z	relative intensity	assigned
58.065	15	C3H8N+
84.0444	9	C4H6NO+
86.06	54	C4H8NO+
98.0601	340	C5H8NO+
126.055	67	C6H8NO2+
152.0349	6	C7H6NO3+
154.0499	999	C7H8NO3+
194.0446	8	C9H8NO4+
239.071	12	C15H11O3+
241.086	160	C15H13O3+
242.057	5	C14H10O4+
243.0653	20	C14H11O4+
251.07	31	C16H11O3+
257.0812	70	C15H13O4+
263.0702	5	C17H11O3+
267.0653	111	C16H11O4+
269.081	233	C16H13O4+
278.0579	8	C17H10O4+
279.0664	10	C17H11O4+
291.0653	36	C18H11O4+
293.0816	20	C18H13O4+
296.1286	19	C18H18NO3+
297.0759	45	C17H13O5+
306.0523	6	C18H10O5+
309.0762	6	C18H13O5+
319.0609	25	C19H11O5+
321.076	78	C19H13O5+
334.0488	7	C19H10O6+
337.0708	162	C19H13O6+
349.0708	45	C20H13O6+
392.113	15	C22H18NO6+
410.1236	62	C22H20NO7+
