Mass spectrum: Aspterric acid; LC-ESI-ITFT; MS2; CE: 50%; R=7500; [M+H]+
Name: Aspterric acid
Name: (1S,5S,8R,9R)-8-hydroxy-4-propan-2-ylidene-10-oxatricyclo[7.2.1.01,5]dodecane-8-carboxylic acid
Formula: C15H22O4
Exact mass: 266.1518
SMILES: OC([C@]1(O)[C@@H](C2)OC[C@]2(CC/C3=C(C)/C)[C@@]3([H])CC1)=O
InChI: InChI=1S/C15H22O4/c1-9(2)10-3-5-14-7-12(19-8-14)15(18,13(16)17)6-4-11(10)14/h11-12,18H,3-8H2,1-2H3,(H,16,17)/t11-,12+,14+,15+/m0/s1
Instrument: LTQ Orbitrap XL Thermo Scientific
Instrument type: LC-ESI-ITFT
Ms type: MS2
Ion mode: POSITIVE
Ionization: ESI
Fragmentation mode: HCD
Collision energy: 50 % (nominal)
Resolution: 7500
Column name: Hypersil GOLD C18 1.9 um 100 x 2.1 mm Thermo Fisher Scientific
Retention time: 20.159 min
Base peak: 267.1597
Precursor m/z: 267.1591
Precursor type: [M+H]+
Precursor intensity: 13700680.271
m/z	relative intensity	assigned
81.0697	6	C6H9+
91.0542	30	C7H7+
93.07	13	C7H9+
95.0853	17	C7H11+
105.0702	30	C8H9+
107.0859	18	C8H11+
109.1012	20	C8H13+
117.0701	97	C9H9+
119.0856	75	C9H11+
121.1013	36	C9H13+
129.0699	29	C10H9+
131.0858	58	C10H11+
133.1014	61	C10H13+
135.1169	6	C10H15+
143.0858	63	C11H11+
145.1013	48	C11H13+
147.0807	25	C10H11O+
147.1172	73	C11H15+
149.1323	5	C11H17+
157.1015	34	C12H13+
159.117	75	C12H15+
161.0961	18	C11H13O+
161.1327	41	C12H17+
173.1326	78	C13H17+
175.1483	406	C13H19+
185.1327	206	C14H17+
193.1586	20	C13H21O+
203.1432	999	C14H19O+
213.1276	17	C15H17O+
221.1533	26	C14H21O2+
231.1376	36	C15H19O2+
249.1484	8	C15H21O3+
