Mass spectrum: Etilefrine; LC-ESI-ITFT; MS2; CE: 70%; R=15000; [M+H]+
Name: Etilefrine
Name: 3-[2-(ethylamino)-1-hydroxyethyl]phenol
Formula: C10H15NO2
Exact mass: 181.1103
SMILES: CCNCC(C1=CC(=CC=C1)O)O
InChI: InChI=1S/C10H15NO2/c1-2-11-7-10(13)8-4-3-5-9(12)6-8/h3-6,10-13H,2,7H2,1H3
Instrument: LTQ Orbitrap XL Thermo Scientific
Instrument type: LC-ESI-ITFT
Ms type: MS2
Ion mode: POSITIVE
Ionization: ESI
Fragmentation mode: HCD
Collision energy: 70% (nominal)
Resolution: 15000
Column name: Kinetex Evo C18 2.6 um 50 x 2.1 mm
Retention time: 0.619 min
Base peak: 182.1175
Precursor m/z: 182.1176
Precursor type: [M+H]+
m/z	relative intensity	assigned
79.0543	5	C6H7+
81.0698	27	C6H9+
91.0542	754	C7H7+
93.0573	7	C6H7N+
93.0698	48	C7H9+
95.0493	6	C6H7O+
103.0541	27	C8H7+
104.0495	26	C7H6N+
107.0493	30	C7H7O+
108.0568	7	C7H8O+
108.0806	14	C7H10N+
109.0648	305	C7H9O+
117.0574	6	C8H7N+
118.0651	82	C8H8N+
119.0492	214	C8H7O+
120.0444	7	C7H6NO+
121.0648	189	C8H9O+
134.0601	68	C8H8NO+
135.0679	697	C8H9NO+
136.0757	261	C8H10NO+
164.1069	999	C10H14NO+
