Mass spectrum: Phenazone; LC-ESI-QFT; MS2; CE: 20%; R=17500; [M+H]+
Name: Phenazone
Name: 1,5-Dimethyl-2-phenyl-1,2-dihydro-3H-pyrazol-3-one
Formula: C11H12N2O
Exact mass: 188.095
SMILES: CN1N(C(=O)C=C1C)C1=CC=CC=C1
InChI: InChI=1S/C11H12N2O/c1-9-8-11(14)13(12(9)2)10-6-4-3-5-7-10/h3-8H,1-2H3
Instrument: Q Exactive Thermo Fisher Scientific
Instrument type: LC-ESI-QFT
Ms type: MS2
Ion mode: POSITIVE
Ionization: ESI
Fragmentation mode: HCD
Collision energy: 20% (nominal)
Resolution: 17500
Column name: Hypersil GOLD 1.9 um 2.1 x 100 mm Thermo Fisher Scientific
Precursor m/z: 189.1023
Precursor type: [M+H]+
m/z	relative intensity
56.0503	5
58.066	4
77.0394	1
91.0549	1
96.0686	2
104.0498	4
106.0656	1
118.0653	3
120.0812	2
130.0653	3
131.0733	5
132.081	2
144.0808	4
145.0647	1
146.0839	4
147.092	7
161.1075	10
174.0789	4
189.1023	999
