Mass spectrum: Malformin C; LC-ESI-ITFT; MS2; CE: 40%; R=7500; [M-H]-
Name: Malformin C
Name: Malformin B1b
Name: (1S,4S,7R,10S,13S)-4,7-bis(2-methylpropyl)-10-propan-2-yl-15,16-dithia-2,5,8,11,19-pentazabicyclo[11.4.2]nonadecane-3,6,9,12,18-pentone
Formula: C23H39N5O5S2
Exact mass: 529.23926
SMILES: O=C1[C@H](CC(C)C)NC([C@@H](CC(C)C)NC([C@H](C(C)C)NC([C@@H]2NC([C@@H](CSSC2)N1)=O)=O)=O)=O
InChI: InChI=1S/C23H39N5O5S2/c1-11(2)7-14-20(30)26-16-9-34-35-10-17(27-21(16)31)22(32)28-18(13(5)6)23(33)25-15(8-12(3)4)19(29)24-14/h11-18H,7-10H2,1-6H3,(H,24,29)(H,25,33)(H,26,30)(H,27,31)(H,28,32)/t14-,15+,16+,17+,18-/m0/s1
Instrument: LTQ Orbitrap XL Thermo Scientific
Instrument type: LC-ESI-ITFT
Ms type: MS2
Ion mode: NEGATIVE
Ionization: ESI
Fragmentation mode: HCD
Collision energy: 40 % (nominal)
Resolution: 7500
Column name: Hypersil GOLD C18 1.9 um 100 x 2.1 mm Thermo Fisher Scientific
Retention time: 21.909 min
Base peak: 588.2535
Precursor m/z: 528.232
Precursor type: [M-H]-
Precursor intensity: 6831499.900391
m/z	relative intensity	assigned
55.9901	18	C2O2-
97.0409	95	C4H5N2O-
100.023	62	C4H6NS-
109.0409	165	C5H5N2O-
111.0564	21	C5H7N2O-
126.0021	72	C5H4NOS-
139.0878	18	C7H11N2O-
141.0671	779	C6H9N2O2-
143.0287	393	C5H7N2OS-
155.0823	78	C7H11N2O2-
156.0491	15	C7H10NOS-
181.0983	73	C9H13N2O2-
185.0756	31	C8H13N2OS-
201.0535	22	C8H13N2S2-
208.1087	28	C10H14N3O2-
210.0881	30	C9H12N3O3-
233.1663	31	C8H27NO4S-
251.1158	29	C11H15N4O3-
253.1308	50	C11H17N4O3-
269.1846	13	C12H23N5O2-
306.2185	20	C17H28N3O2-
350.2089	86	C18H28N3O4-
367.2357	511	C18H31N4O4-
417.2506	22	C22H33N4O4-
425.2253	18	C22H35NO5S-
436.2584	48	C18H38N5O5S-
451.239	459	C22H35N4O4S-
460.2567	334	C23H34N5O5-
462.2726	697	C23H36N5O5-
494.2452	999	C23H36N5O5S-
528.2325	750	C23H38N5O5S2-
