Mass spectrum: Desipramine; LC-ESI-ITFT; MS2; CE: 165%; R=15000; [M+H]+
Name: Desipramine
Name: 3-(5,6-dihydrobenzo[b][1]benzazepin-11-yl)-N-methylpropan-1-amine
Formula: C18H22N2
Exact mass: 266.1783
SMILES: CNCCCN1C2=CC=CC=C2CCC3=CC=CC=C31
InChI: InChI=1S/C18H22N2/c1-19-13-6-14-20-17-9-4-2-7-15(17)11-12-16-8-3-5-10-18(16)20/h2-5,7-10,19H,6,11-14H2,1H3
Instrument: LTQ Orbitrap XL Thermo Scientific
Instrument type: LC-ESI-ITFT
Ms type: MS2
Ion mode: POSITIVE
Ionization: ESI
Fragmentation mode: HCD
Collision energy: 165% (nominal)
Resolution: 15000
Column name: Kinetex Evo C18 2.6 um 50 x 2.1 mm
Retention time: 8.447 min
Base peak: 267.1857
Precursor m/z: 267.1856
Precursor type: [M+H]+
m/z	relative intensity	assigned
57.057	390	C3H7N+
65.0384	106	C5H5+
72.0806	290	C4H10N+
77.0385	54	C6H5+
89.0385	269	C7H5+
90.0464	130	C7H6+
91.0542	279	C7H7+
103.0541	36	C8H7+
105.0446	62	C6H5N2+
115.0544	115	C9H7+
117.057	60	C8H7N+
128.0493	70	C9H6N+
129.0446	41	C8H5N2+
139.0543	149	C11H7+
140.0493	61	C10H6N+
140.062	40	C11H8+
151.0546	64	C12H7+
152.062	250	C12H8+
153.0569	31	C11H7N+
163.0543	39	C13H7+
164.0622	143	C13H8+
165.0699	970	C13H9+
166.0649	264	C12H8N+
167.0728	306	C12H9N+
177.057	65	C13H7N+
178.0653	149	C13H8N+
178.0775	116	C14H10+
179.073	222	C13H9N+
180.0808	133	C13H10N+
190.065	210	C14H8N+
191.0729	999	C14H9N+
192.0807	771	C14H10N+
193.0885	312	C14H11N+
204.0807	105	C15H10N+
