Mass spectrum: Dixyrazine ; ESI-QTOF; MS2; CE: 30eV; R=15000; [M+H]+
Name: Dixyrazine
Name: 2-(2-{4-[2-Methyl-3-(10H-phenothiazin-10-yl)propyl]piperazin-1-yl}ethoxy)ethan-1-ol
Formula: C24H33N3O2S
Exact mass: 427.2293
SMILES: CC(CN1CCN(CCOCCO)CC1)CN1C2=CC=CC=C2SC2=CC=CC=C12
InChI: InChI=1S/C24H33N3O2S/c1-20(18-26-12-10-25(11-13-26)14-16-29-17-15-28)19-27-21-6-2-4-8-23(21)30-24-9-5-3-7-22(24)27/h2-9,20,28H,10-19H2,1H3
Instrument: TripleTOF 5600+SCIEX
Instrument type: ESI-QTOF
Ms type: MS2
Ion mode: POSITIVE
Ionization: ESI
Fragmentation mode: CID
Collision energy: 30 eV
Resolution: 15000
Precursor m/z: 428.2367
Precursor type: [M+H]+
m/z	relative intensity
70.067	1
87.0452	1
97.0769	2
98.0848	10
99.0924	1
101.1081	19
110.0843	1
125.1077	6
140.1309	2
144.102	2
155.1542	1
172.1205	6
180.0807	4
187.1446	149
199.0452	1
212.0532	37
221.1201	1
229.1919	532
254.1003	7
366.2004	1
428.2367	999
