Mass spectrum: Sulfamethoxazole; LC-ESI-ITFT; MS2; CE: 40%; R=15000; [M+H]+
Name: Sulfamethoxazole
Name: 4-amino-N-(5-methyl-1,2-oxazol-3-yl)benzenesulfonamide
Formula: C10H11N3O3S
Exact mass: 253.0521
SMILES: CC1=CC(=NO1)NS(=O)(=O)C2=CC=C(C=C2)N
InChI: InChI=1S/C10H11N3O3S/c1-7-6-10(12-16-7)13-17(14,15)9-4-2-8(11)3-5-9/h2-6H,11H2,1H3,(H,12,13)
Instrument: LTQ Orbitrap XL Thermo Scientific
Instrument type: LC-ESI-ITFT
Ms type: MS2
Ion mode: POSITIVE
Ionization: ESI
Fragmentation mode: HCD
Collision energy: 40% (nominal)
Resolution: 15000
Column name: Kinetex Evo C18 2.6 um 50 x 2.1 mm
Retention time: 5.886 min
Base peak: 189.1022
Precursor m/z: 254.0594
Precursor type: [M+H]+
m/z	relative intensity	assigned
65.0384	14	C5H5+
92.0495	325	C6H6N+
93.0573	173	C6H7N+
94.0651	16	C6H8N+
99.0553	180	C4H7N2O+
107.0604	17	C6H7N2+
108.0444	417	C6H6NO+
110.06	6	C6H8NO+
120.0555	5	C6H6N3+
121.0759	2	C7H9N2+
131.0604	4	C8H7N2+
133.0634	2	C7H7N3+
145.0758	2	C9H9N2+
146.0713	22	C8H8N3+
147.0791	111	C8H9N3+
148.0869	34	C8H10N3+
156.0114	999	C6H6NO2S+
160.0869	130	C9H10N3+
161.0015	8	C4H5N2O3S+
176.0277	4	C8H6N3S+
188.0819	70	C10H10N3O+
190.0975	19	C10H12N3O+
194.0383	15	C8H8N3OS+
254.0594	107	C10H12N3O3S+
