Mass spectrum: Ochratoxin B; LC-ESI-ITFT; MS2; CE: 60%; R=7500; [M-H]-
Name: Ochratoxin B
Name: 2-[(8-Hydroxy-3-methyl-1-oxoisochroman-7-carbonyl)amino]-3-phenylpropionic acid
Name: 2-[(8-hydroxy-3-methyl-1-oxo-3,4-dihydroisochromene-7-carbonyl)amino]-3-phenylpropanoic acid
Formula: C20H19NO6
Exact mass: 369.1212
SMILES: CC1CC2=C(C(=C(C=C2)C(=O)NC(CC3=CC=CC=C3)C(=O)O)O)C(=O)O1
InChI: InChI=1S/C20H19NO6/c1-11-9-13-7-8-14(17(22)16(13)20(26)27-11)18(23)21-15(19(24)25)10-12-5-3-2-4-6-12/h2-8,11,15,22H,9-10H2,1H3,(H,21,23)(H,24,25)
Instrument: LTQ Orbitrap XL Thermo Scientific
Instrument type: LC-ESI-ITFT
Ms type: MS2
Ion mode: NEGATIVE
Ionization: ESI
Fragmentation mode: HCD
Collision energy: 60 % (nominal)
Resolution: 7500
Column name: Hypersil GOLD C18 1.9 um 100 x 2.1 mm Thermo Fisher Scientific
Retention time: 19.397 min
Base peak: 368.114
Precursor m/z: 368.114
Precursor type: [M-H]-
Precursor intensity: 94825848.57129
m/z	relative intensity	assigned
147.045	7	C9H7O2-
164.0716	28	C9H10NO2-
177.0556	18	C10H9O3-
190.0508	7	C10H8NO3-
215.0587	15	C12H9NO3-
220.0614	91	C11H10NO4-
221.0456	3	C11H9O5-
236.1077	10	C16H14NO-
280.1344	20	C18H18NO2-
306.1137	12	C19H16NO3-
324.124	999	C19H18NO4-
368.1135	475	C20H18NO6-
