Mass spectrum: Terbutryn-desaturated (TENTATIVE); LC-ESI-QFT; MS2; CE: 30%; R=70000; [M+H]+
Name: Terbutryn-desaturated
Name: N2-tert-butyl-N4-ethenyl-6-(methylsulfanyl)-1,3,5-triazine-2,4-diamine
Formula: C10H17N5S
Exact mass: 239.1195
SMILES: C=CNC1=NC(=NC(=N1)SC)NC(C)(C)C
InChI: InChI=1S/C10H17N5S/c1-6-11-7-12-8(15-10(2,3)4)14-9(13-7)16-5/h6H,1H2,2-5H3,(H2,11,12,13,14,15)
Instrument: Q Exactive Plus Orbitrap Thermo Scientific
Instrument type: LC-ESI-QFT
Ms type: MS2
Ion mode: POSITIVE
Ionization: ESI
Fragmentation mode: HCD
Collision energy: 30% (nominal)
Resolution: 70000
Column name: Waters UPLC BEH C18 1.7 um 2.1 mm x 100 mm with pre-column
Retention time: 14.37 min
Precursor m/z: 240.1273
Precursor type: [M+H]+
m/z	relative intensity
55.0546	3
57.0702	38
67.0292	3
67.0544	7
68.0244	79
69.0448	686
69.0698	4
74.0059	119
75.0263	33
79.0542	11
81.07	9
83.0855	3
91.0325	281
91.0542	10
93.0697	5
94.04	184
95.0855	9
99.0011	4
100.0215	37
105.0335	5
105.0701	3
107.0492	17
110.046	16
111.0666	204
116.0277	155
117.048	26
117.0699	10
119.0856	11
131.0855	5
136.0618	68
138.0774	6
141.0229	11
142.0434	129
157.0544	21
184.0652	999
