Mass spectrum: Eremofortin A; LC-ESI-ITFT; MS2; CE: 50%; R=7500; [M+H]+
Name: Eremofortin A
Name: (3,3`,3`,3a-tetramethyl-6-oxospiro[2,3,4,7b-tetrahydro-1aH-naphtho[1,2-b]oxirene-5,2`-oxirane]-2-yl) acetate
Formula: C17H22O5
Exact mass: 306.1467
SMILES: CC1C(C2C(O2)C3=CC(=O)C4(CC13C)C(O4)(C)C)OC(=O)C
InChI: InChI=1S/C17H22O5/c1-8-12(20-9(2)18)14-13(21-14)10-6-11(19)17(7-16(8,10)5)15(3,4)22-17/h6,8,12-14H,7H2,1-5H3
Instrument: LTQ Orbitrap XL Thermo Scientific
Instrument type: LC-ESI-ITFT
Ms type: MS2
Ion mode: POSITIVE
Ionization: ESI
Fragmentation mode: HCD
Collision energy: 50 % (nominal)
Resolution: 7500
Column name: Hypersil GOLD C18 1.9 um 100 x 2.1 mm Thermo Fisher Scientific
Retention time: 15.832 min
Base peak: 307.1542
Precursor m/z: 307.154
Precursor type: [M+H]+
Precursor intensity: 10341978.54785
m/z	relative intensity	assigned
107.0856	17	C8H11+
119.085	25	C9H11+
121.0649	18	C8H9O+
121.101	25	C9H13+
131.0854	55	C10H11+
133.1011	36	C10H13+
135.0803	103	C9H11O+
143.0849	30	C11H11+
145.1006	29	C11H13+
147.08	18	C10H11O+
149.0961	194	C10H13O+
151.0753	41	C9H11O2+
151.1121	27	C10H15O+
159.0804	88	C11H11O+
159.1167	141	C12H15+
161.0958	208	C11H13O+
163.0752	58	C10H11O2+
163.1113	21	C11H15O+
172.0888	24	C12H12O+
173.0967	39	C12H13O+
173.1322	164	C13H17+
175.1114	34	C12H15O+
176.1201	21	C12H16O+
177.0908	999	C11H13O2+
177.128	83	C12H17O+
183.1174	41	C14H15+
186.1039	53	C13H14O+
187.1115	216	C13H15O+
188.1197	26	C13H16O+
189.0903	73	C12H13O2+
191.1429	77	C13H19O+
195.1016	38	C11H15O3+
201.1271	343	C14H17O+
205.1222	282	C13H17O2+
211.1124	32	C15H15O+
219.1378	97	C14H19O2+
222.1245	48	C13H18O3+
229.1219	291	C15H17O2+
247.1325	313	C15H19O3+
265.1429	162	C15H21O4+
