Mass spectrum: Roquefortine C; LC-ESI-ITFT; MS2; CE: 50%; R=7500; [M+H]+
Name: Roquefortine C
Name: 4-(1H-imidazol-5-ylmethylidene)-9-(2-methylbut-3-en-2-yl)-2,5,16-triazatetracyclo[7.7.0.02,7.010,15]hexadeca-10,12,14-triene-3,6-dione
Formula: C22H23N5O2
Exact mass: 389.1852
SMILES: CC(C)(C=C)C12CC3C(=O)NC(=CC4=CN=CN4)C(=O)N3C1NC5=CC=CC=C25
InChI: InChI=1S/C22H23N5O2/c1-4-21(2,3)22-10-17-18(28)25-16(9-13-11-23-12-24-13)19(29)27(17)20(22)26-15-8-6-5-7-14(15)22/h4-9,11-12,17,20,26H,1,10H2,2-3H3,(H,23,24)(H,25,28)
Instrument: LTQ Orbitrap XL Thermo Scientific
Instrument type: LC-ESI-ITFT
Ms type: MS2
Ion mode: POSITIVE
Ionization: ESI
Fragmentation mode: HCD
Collision energy: 50 % (nominal)
Resolution: 7500
Column name: Hypersil GOLD C18 1.9 um 100 x 2.1 mm Thermo Fisher Scientific
Retention time: 16.138 min
Base peak: 390.1933
Precursor m/z: 390.1925
Precursor type: [M+H]+
Precursor intensity: 52453451.43262
m/z	relative intensity	assigned
69.0447	1	C3H5N2+
69.0698	3	C5H9+
81.0447	1	C4H5N2+
85.0395	2	C3H5N2O+
106.0401	1	C5H4N3+
108.0557	6	C5H6N3+
109.0634	2	C5H7N3+
120.0558	1	C6H6N3+
122.0711	1	C6H8N3+
130.0652	46	C9H8N+
132.0804	2	C9H10N+
136.0506	4	C6H6N3O+
137.082	4	C6H9N4+
142.0649	1	C10H8N+
144.0808	3	C10H10N+
149.0346	1	C7H5N2O2+
149.0823	8	C7H9N4+
155.0724	1	C11H9N+
156.081	7	C11H10N+
159.0919	4	C10H11N2+
162.0299	45	C7H4N3O2+
163.0616	28	C7H7N4O+
164.0691	1	C7H8N4O+
165.0773	42	C7H9N4O+
169.089	4	C12H11N+
170.06	4	C11H8NO+
175.0618	1	C8H7N4O+
176.0454	2	C8H6N3O2+
177.0769	1	C8H9N4O+
183.1044	13	C13H13N+
191.0566	50	C8H7N4O2+
192.0644	137	C8H8N4O2+
193.0721	999	C8H9N4O2+
196.112	5	C14H14N+
198.1277	161	C14H16N+
205.072	7	C9H9N4O2+
261.1335	3	C13H17N4O2+
277.1072	3	C16H13N4O+
302.1022	1	C17H12N5O+
305.1041	2	C17H13N4O2+
320.1141	3	C17H14N5O2+
322.1301	182	C17H16N5O2+
334.13	11	C18H16N5O2+
390.1931	13	C22H24N5O2+
