Mass spectrum: Radicicol; LC-ESI-ITFT; MS2; CE: 30%; R=7500; [M+H]+
Name: Radicicol
Name: 16-chloro-17,19-dihydroxy-4-methyl-3,7-dioxatricyclo[13.4.0.06,8]nonadeca-1(15),9,11,16,18-pentaene-2,13-dione
Formula: C18H17ClO6
Exact mass: 364.0714
SMILES: CC1CC2C(O2)C=CC=CC(=O)CC3=C(C(=CC(=C3Cl)O)O)C(=O)O1
InChI: InChI=1S/C18H17ClO6/c1-9-6-15-14(25-15)5-3-2-4-10(20)7-11-16(18(23)24-9)12(21)8-13(22)17(11)19/h2-5,8-9,14-15,21-22H,6-7H2,1H3
Instrument: LTQ Orbitrap XL Thermo Scientific
Instrument type: LC-ESI-ITFT
Ms type: MS2
Ion mode: POSITIVE
Ionization: ESI
Fragmentation mode: HCD
Collision energy: 30 % (nominal)
Resolution: 7500
Column name: Hypersil GOLD C18 1.9 um 100 x 2.1 mm Thermo Fisher Scientific
Retention time: 16.234 min
Base peak: 365.0794
Precursor m/z: 365.0786
Precursor type: [M+H]+
Precursor intensity: 3262780.17334
m/z	relative intensity	assigned
72.9836	82	C3H2Cl+
95.0856	302	C7H11+
119.0856	112	C9H11+
121.0646	88	C8H9O+
196.9998	149	C9H6ClO3+
200.995	130	C8H6ClO4+
202.953	44	C10ClO3+
210.9796	184	C9H4ClO4+
227.0108	841	C10H8ClO4+
249.031	256	C13H10ClO3+
252.9901	999	C11H6ClO5+
261.0315	77	C14H10ClO3+
263.0101	149	C13H8ClO4+
277.0263	872	C14H10ClO4+
279.0413	247	C14H12ClO4+
303.0427	104	C16H12ClO4+
305.0218	389	C15H10ClO5+
321.0529	126	C16H14ClO5+
329.0578	75	C18H14ClO4+
347.0669	90	C18H16ClO5+
