Mass spectrum: Dixyrazine ; ESI-QTOF; MS2; CE: 50eV; R=15000; [M+H]+
Name: Dixyrazine
Name: 2-(2-{4-[2-Methyl-3-(10H-phenothiazin-10-yl)propyl]piperazin-1-yl}ethoxy)ethan-1-ol
Formula: C24H33N3O2S
Exact mass: 427.2293
SMILES: CC(CN1CCN(CCOCCO)CC1)CN1C2=CC=CC=C2SC2=CC=CC=C12
InChI: InChI=1S/C24H33N3O2S/c1-20(18-26-12-10-25(11-13-26)14-16-29-17-15-28)19-27-21-6-2-4-8-23(21)30-24-9-5-3-7-22(24)27/h2-9,20,28H,10-19H2,1H3
Instrument: TripleTOF 5600+SCIEX
Instrument type: ESI-QTOF
Ms type: MS2
Ion mode: POSITIVE
Ionization: ESI
Fragmentation mode: CID
Collision energy: 50 eV
Resolution: 15000
Precursor m/z: 428.2367
Precursor type: [M+H]+
m/z	relative intensity
55.0567	1
56.052	13
57.0718	2
58.0676	30
59.0514	3
67.0435	1
68.0512	4
69.0351	2
69.046	1
70.067	88
71.0743	1
72.0823	3
73.03	2
76.0771	1
79.0555	1
80.0507	2
81.071	1
82.0663	24
83.0615	15
84.0819	15
85.0896	1
86.061	3
87.0451	78
88.0767	1
89.0606	1
91.055	1
93.0707	1
94.0658	4
95.0861	1
96.0814	4
97.0768	260
98.0266	1
98.0849	999
99.0922	53
100.0763	10
101.0414	1
101.1081	729
102.0919	1
105.0704	1
106.0656	2
107.086	1
108.0814	2
109.0763	4
110.0842	36
111.0918	6
112.1121	20
113.1076	10
114.0916	3
115.0545	1
118.0864	10
119.0856	1
120.0814	1
121.1013	1
123.0916	1
124.0216	4
125.1075	186
126.0465	1
127.1229	5
128.062	1
129.07	2
130.0862	9
131.0855	5
132.1019	6
136.0215	2
138.1151	2
139.1229	5
140.1306	35
141.1383	2
142.0861	2
143.1177	1
144.1019	95
145.0885	1
146.1173	3
148.0214	1
150.0461	2
151.054	8
152.0619	14
153.0223	1
153.0694	3
154.0649	1
155.1541	16
156.1016	2
157.0969	1
158.1172	3
159.1129	2
160.1329	1
161.0411	1
162.0358	1
163.0447	1
164.9852	1
166.0649	2
167.0726	8
168.0805	2
169.1697	1
171.1125	2
172.034	1
172.1203	212
173.1283	1
175.1441	1
176.0521	1
177.0571	1
178.0648	18
179.0727	60
180.0808	702
181.0883	2
184.0339	2
185.1282	5
186.1365	1
187.1441	806
193.0883	2
194.0963	2
198.037	15
199.0448	38
200.0527	2
204.0805	1
205.0885	1
206.0963	12
208.1117	1
210.037	1
211.0447	3
212.0529	908
213.1593	1
214.0682	1
215.1754	1
220.1119	19
221.1198	23
222.1276	1
223.0449	1
224.0526	5
225.0604	5
226.0683	1
229.1913	760
238.0683	5
239.0762	4
240.0839	1
252.0843	1
253.092	1
254.0997	28
380.233	1
428.2367	10
