Mass spectrum: Etilefrine; LC-ESI-ITFT; MS2; CE: 130%; R=15000; [M+H]+
Name: Etilefrine
Name: 3-[2-(ethylamino)-1-hydroxyethyl]phenol
Formula: C10H15NO2
Exact mass: 181.1103
SMILES: CCNCC(C1=CC(=CC=C1)O)O
InChI: InChI=1S/C10H15NO2/c1-2-11-7-10(13)8-4-3-5-9(12)6-8/h3-6,10-13H,2,7H2,1H3
Instrument: LTQ Orbitrap XL Thermo Scientific
Instrument type: LC-ESI-ITFT
Ms type: MS2
Ion mode: POSITIVE
Ionization: ESI
Fragmentation mode: HCD
Collision energy: 130% (nominal)
Resolution: 15000
Column name: Kinetex Evo C18 2.6 um 50 x 2.1 mm
Retention time: 0.495 min
Base peak: 182.1176
Precursor m/z: 182.1176
Precursor type: [M+H]+
m/z	relative intensity	assigned
65.0383	188	C5H5+
77.0385	63	C6H5+
79.0541	56	C6H7+
80.0494	12	C5H6N+
80.0619	6	C6H8+
81.0698	29	C6H9+
89.0387	5	C7H5+
90.0464	20	C7H6+
91.0541	999	C7H7+
92.0494	22	C6H6N+
93.0572	13	C6H7N+
94.0412	65	C6H6O+
95.049	16	C6H7O+
103.0542	15	C8H7+
105.0447	41	C6H5N2+
106.065	59	C7H8N+
107.049	185	C7H7O+
108.0569	23	C7H8O+
109.0648	21	C7H9O+
116.0495	6	C8H6N+
117.0572	41	C8H7N+
118.0411	8	C8H6O+
118.065	64	C8H8N+
119.049	16	C8H7O+
120.0443	52	C7H6NO+
121.0397	7	C6H5N2O+
133.0519	5	C8H7NO+
134.0599	166	C8H8NO+
135.0677	29	C8H9NO+
144.0553	6	C8H6N3+
