Mass spectrum: Metoclopramide; ESI-QTOF; MS2; CE: 45eV; R=15000; [M+H]+
Name: Metoclopramide
Name: 4-Amino-5-chloro-N-[2-(diethylamino)ethyl]-2-methoxybenzamide
Formula: C14H22ClN3O2
Exact mass: 299.1401
SMILES: CCN(CC)CCNC(=O)C1=CC(Cl)=C(N)C=C1OC
InChI: InChI=1S/C14H22ClN3O2/c1-4-18(5-2)7-6-17-14(19)10-8-11(15)12(16)9-13(10)20-3/h8-9H,4-7,16H2,1-3H3,(H,17,19)
Instrument: TripleTOF 5600+SCIEX
Instrument type: ESI-QTOF
Ms type: MS2
Ion mode: POSITIVE
Ionization: ESI
Fragmentation mode: CID
Collision energy: 45 eV
Resolution: 15000
Precursor m/z: 300.1474
Precursor type: [M+H]+
m/z	relative intensity
63.0246	1
78.0347	1
90.0342	6
92.0498	1
93.0575	4
98.9996	1
100.112	3
105.0446	1
113.0024	16
119.06	1
120.0438	4
126.0099	19
127.0176	1
128.0254	8
129.0094	4
140.0128	1
140.9969	61
147.0544	2
148.0622	15
156.0201	36
168.0076	56
168.9914	32
183.0312	138
184.0154	999
212.0341	166
227.0577	242
