Mass spectrum: Sulfamethoxazole; LC-ESI-QTOF; MS2; CE: 15 eV; R=3600; [M+H]+
Name: Sulfamethoxazole
Name: 4-Amino-N-(5-methyl-1,2-oxazol-3-yl)benzene-1-sulfonamide
Formula: C10H11N3O3S
Exact mass: 253.0521
SMILES: CC1=CC(NS(=O)(=O)C2=CC=C(N)C=C2)=NO1
InChI: InChI=1S/C10H11N3O3S/c1-7-6-10(12-16-7)13-17(14,15)9-4-2-8(11)3-5-9/h2-6H,11H2,1H3,(H,12,13)
Instrument: 6662 QTOF Agilent
Instrument type: LC-ESI-QTOF
Ms type: MS2
Ion mode: POSITIVE
Ionization: ESI
Fragmentation mode: CID
Collision energy: 15 eV
Resolution: 3600
Precursor m/z: 254.0594
Precursor type: [M+H]+
m/z	relative intensity
53.0385	28
65.0374	537
66.0505	5
72.0404	12
77.0369	13
80.0478	153
92.047	999
93.0539	308
99.0524	151
107.0578	30
108.0411	840
117.0438	3
119.0585	5
131.0506	8
132.0567	7
133.0598	5
143.0508	4
146.0673	35
147.0744	82
148.0827	30
156.0076	487
159.0811	7
160.0807	90
173.0492	4
188.0775	43
190.0964	18
194.0324	5
254.0594	116
