Mass spectrum: Antipyrine; LC-ESI-ITFT; MS2; CE: 90%; R=15000; [M+H]+
Name: Antipyrine
Name: 1,5-dimethyl-2-phenylpyrazol-3-one
Formula: C11H12N2O
Exact mass: 188.0950
SMILES: CC1=CC(=O)N(N1C)C2=CC=CC=C2
InChI: InChI=1S/C11H12N2O/c1-9-8-11(14)13(12(9)2)10-6-4-3-5-7-10/h3-8H,1-2H3
Instrument: LTQ Orbitrap XL Thermo Scientific
Instrument type: LC-ESI-ITFT
Ms type: MS2
Ion mode: POSITIVE
Ionization: ESI
Fragmentation mode: HCD
Collision energy: 90% (nominal)
Resolution: 15000
Column name: Kinetex Evo C18 2.6 um 50 x 2.1 mm
Retention time: 5.578 min
Base peak: 189.1022
Precursor m/z: 189.1022
Precursor type: [M+H]+
m/z	relative intensity	assigned
65.0383	201	C5H5+
68.0491	33	C4H6N+
69.0571	53	C4H7N+
70.0649	20	C4H8N+
77.0385	491	C6H5+
78.0461	14	C6H6+
79.0541	79	C6H7+
81.0447	102	C4H5N2+
86.0605	10	C4H8NO+
91.0542	202	C7H7+
92.0494	66	C6H6N+
93.0336	34	C6H5O+
93.0574	27	C6H7N+
94.0651	38	C6H8N+
95.0491	103	C6H7O+
95.0603	121	C5H7N2+
96.0444	24	C5H6NO+
96.0682	310	C5H8N2+
98.06	226	C5H8NO+
103.0542	135	C8H7+
104.0495	938	C7H6N+
105.0336	36	C7H5O+
105.0447	248	C6H5N2+
105.0572	43	C7H7N+
105.0699	58	C8H9+
106.0651	999	C7H8N+
115.0543	130	C9H7+
117.0573	140	C8H7N+
117.0699	298	C9H9+
118.0651	315	C8H8N+
119.0601	14	C7H7N2+
120.0808	228	C8H10N+
128.049	18	C9H6N+
129.0573	96	C9H7N+
130.0651	422	C9H8N+
131.0603	169	C8H7N2+
131.0729	325	C9H9N+
132.0682	115	C8H8N2+
132.0807	145	C9H10N+
133.0523	74	C8H7NO+
133.0755	29	C8H9N2+
134.0476	19	C7H6N2O+
134.0964	34	C9H12N+
143.0728	45	C10H9N+
144.0808	226	C10H10N+
145.0648	85	C10H9O+
145.0759	195	C9H9N2+
146.0838	269	C9H10N2+
146.0964	33	C10H12N+
147.0916	506	C9H11N2+
149.0708	49	C8H9N2O+
155.0604	19	C10H7N2+
157.0522	68	C10H7NO+
159.0557	35	C9H7N2O+
159.0916	18	C10H11N2+
161.1072	81	C10H13N2+
172.0757	21	C11H10NO+
173.071	33	C10H9N2O+
174.0787	170	C10H10N2O+
189.1022	324	C11H13N2O+
