Mass spectrum: Roquefortine C; LC-ESI-ITFT; MS2; CE: 50%; R=7500; [M-H]-
Name: Roquefortine C
Name: 4-(1H-imidazol-5-ylmethylidene)-9-(2-methylbut-3-en-2-yl)-2,5,16-triazatetracyclo[7.7.0.02,7.010,15]hexadeca-10,12,14-triene-3,6-dione
Formula: C22H23N5O2
Exact mass: 389.18517
SMILES: CC(C)(C=C)C12CC3C(=O)NC(=CC4=CN=CN4)C(=O)N3C1NC5=CC=CC=C25
InChI: InChI=1S/C22H23N5O2/c1-4-21(2,3)22-10-17-18(28)25-16(9-13-11-23-12-24-13)19(29)27(17)20(22)26-15-8-6-5-7-14(15)22/h4-9,11-12,17,20,26H,1,10H2,2-3H3,(H,23,24)(H,25,28)
Instrument: LTQ Orbitrap XL Thermo Scientific
Instrument type: LC-ESI-ITFT
Ms type: MS2
Ion mode: NEGATIVE
Ionization: ESI
Fragmentation mode: HCD
Collision energy: 50 % (nominal)
Resolution: 7500
Column name: Hypersil GOLD C18 1.9 um 100 x 2.1 mm Thermo Fisher Scientific
Retention time: 16.170 min
Base peak: 388.1787
Precursor m/z: 388.1779
Precursor type: [M-H]-
Precursor intensity: 4390662.152832
m/z	relative intensity	assigned
189.0421	55	C8H5N4O2-
190.05	312	C8H6N4O2-
191.0566	9	C8H7N4O2-
201.0648	6	C9H7N5O-
203.0579	40	C9H7N4O2-
318.1008	10	C17H12N5O2-
388.1786	999	C22H22N5O2-
