Mass spectrum: Palitantin; LC-ESI-ITFT; MS2; CE: 60%; R=7500; [M+H]+
Name: Palitantin
Name: 5-hepta-1,3-dienyl-2,3-dihydroxy-6-(hydroxymethyl)cyclohexan-1-one
Formula: C14H22O4
Exact mass: 254.1518
SMILES: CCCC=CC=CC1CC(C(C(=O)C1CO)O)O
InChI: InChI=1S/C14H22O4/c1-2-3-4-5-6-7-10-8-12(16)14(18)13(17)11(10)9-15/h4-7,10-12,14-16,18H,2-3,8-9H2,1H3
Instrument: LTQ Orbitrap XL Thermo Scientific
Instrument type: LC-ESI-ITFT
Ms type: MS2
Ion mode: POSITIVE
Ionization: ESI
Fragmentation mode: HCD
Collision energy: 60 % (nominal)
Resolution: 7500
Column name: Hypersil GOLD C18 1.9 um 100 x 2.1 mm Thermo Fisher Scientific
Retention time: 18.015 min
Base peak: 277.1411
Precursor m/z: 255.1591
Precursor type: [M+H]+
Precursor intensity: 1825505.71875
m/z	relative intensity	assigned
72.0932	95	C5H12+
117.0698	154	C9H9+
131.0853	245	C10H11+
133.1008	154	C10H13+
135.1167	148	C10H15+
137.0599	396	C8H9O2+
145.1007	223	C11H13+
147.1175	110	C11H15+
157.1018	72	C12H13+
159.0808	105	C11H11O+
173.1325	378	C13H17+
183.1171	105	C14H15+
191.1436	170	C13H19O+
193.1221	999	C12H17O2+
201.1273	353	C14H17O+
219.1378	268	C14H19O2+
237.1482	82	C14H21O3+
