Mass spectrum: Trypacidin; LC-ESI-ITFT; MS2; CE: 15%; R=7500; [M+H]+
Name: Trypacidin
Name: methyl 4,5`-dimethoxy-6-methyl-3,3`-dioxospiro[1-benzofuran-2,6`-cyclohexa-1,4-diene]-1`-carboxylate
Formula: C18H16O7
Exact mass: 344.0896
SMILES: CC1=CC2=C(C(=C1)OC)C(=O)C3(O2)C(=CC(=O)C=C3OC)C(=O)OC
InChI: InChI=1S/C18H16O7/c1-9-5-12(22-2)15-13(6-9)25-18(16(15)20)11(17(21)24-4)7-10(19)8-14(18)23-3/h5-8H,1-4H3
Instrument: LTQ Orbitrap XL Thermo Scientific
Instrument type: LC-ESI-ITFT
Ms type: MS2
Ion mode: POSITIVE
Ionization: ESI
Fragmentation mode: HCD
Collision energy: 15 % (nominal)
Resolution: 7500
Column name: Hypersil GOLD C18 1.9 um 100 x 2.1 mm Thermo Fisher Scientific
Retention time: 17.352 min
Base peak: 345.098
Precursor m/z: 345.0969
Precursor type: [M+H]+
Precursor intensity: 30402486.30908
m/z	relative intensity	assigned
285.0767	5	C16H13O5+
286.0837	21	C16H14O5+
301.1074	554	C17H17O5+
313.071	310	C17H13O6+
345.0975	999	C18H17O7+
