Mass spectrum: Dimethenamid-N-dealkylation (TENTATIVE); LC-ESI-QFT; MS2; CE: 55%; R=70000; [M+H]+
Name: Dimethenamid-N-dealkylation
Name: 2-chloro-N-(2,4-dimethylthiophen-3-yl)acetamide
Formula: C8H10ClNOS
Exact mass: 203.0167
SMILES: CC1=CSC(=C1NC(=O)CCl)C
InChI: InChI=1S/C8H10ClNOS/c1-5-4-12-6(2)8(5)10-7(11)3-9/h4H,3H2,1-2H3,(H,10,11)
Instrument: Q Exactive Plus Orbitrap Thermo Scientific
Instrument type: LC-ESI-QFT
Ms type: MS2
Ion mode: POSITIVE
Ionization: ESI
Fragmentation mode: HCD
Collision energy: 55% (nominal)
Resolution: 70000
Column name: Waters UPLC BEH C18 1.7 um 2.1 mm x 100 mm with pre-column
Retention time: 10.18 min
Precursor m/z: 204.0245
Precursor type: [M+H]+
m/z	relative intensity
51.0233	21
53.039	59
58.9952	56
65.0387	81
67.0543	133
70.995	20
76.979	11
77.0385	29
78.0465	73
79.0542	26
80.0495	239
85.0106	11
91.0543	13
93.0574	22
94.0652	999
95.0492	52
95.073	111
96.0443	15
105.0447	30
111.0263	60
112.0215	46
113.0293	30
122.0347	10
126.037	11
