Mass spectrum: Atrazine-despropyl (PROBABLE); LC-ESI-QFT; MS2; CE: 30%; R=70000; [M+H]+
Name: Atrazine-despropyl
Name: 6-chloro-N2-ethyl-1,3,5-triazine-2,4-diamine
Formula: C5H8ClN5
Exact mass: 173.046
SMILES: CCNC1=NC(=NC(=N1)N)Cl
InChI: InChI=1S/C5H8ClN5/c1-2-8-5-10-3(6)9-4(7)11-5/h2H2,1H3,(H3,7,8,9,10,11)
Instrument: Q Exactive Plus Orbitrap Thermo Scientific
Instrument type: LC-ESI-QFT
Ms type: MS2
Ion mode: POSITIVE
Ionization: ESI
Fragmentation mode: HCD
Collision energy: 30% (nominal)
Resolution: 70000
Column name: Waters UPLC BEH C18 1.7 um 2.1 mm x 100 mm with pre-column
Retention time: 8.18 min
Precursor m/z: 174.0538
Precursor type: [M+H]+
m/z	relative intensity
55.0545	7
58.0653	7
61.9794	193
67.0544	7
68.0244	999
69.0699	8
71.0604	177
79.0057	417
90.0104	14
96.0556	244
104.0009	804
110.0461	38
132.0323	102
138.0774	23
146.0229	48
174.0545	29
