Mass spectrum: Desipramine; LC-ESI-ITFT; MS2; CE: 120%; R=15000; [M+H]+
Name: Desipramine
Name: 3-(5,6-dihydrobenzo[b][1]benzazepin-11-yl)-N-methylpropan-1-amine
Formula: C18H22N2
Exact mass: 266.1783
SMILES: CNCCCN1C2=CC=CC=C2CCC3=CC=CC=C31
InChI: InChI=1S/C18H22N2/c1-19-13-6-14-20-17-9-4-2-7-15(17)11-12-16-8-3-5-10-18(16)20/h2-5,7-10,19H,6,11-14H2,1H3
Instrument: LTQ Orbitrap XL Thermo Scientific
Instrument type: LC-ESI-ITFT
Ms type: MS2
Ion mode: POSITIVE
Ionization: ESI
Fragmentation mode: HCD
Collision energy: 120% (nominal)
Resolution: 15000
Column name: Kinetex Evo C18 2.6 um 50 x 2.1 mm
Retention time: 8.462 min
Base peak: 267.1854
Precursor m/z: 267.1856
Precursor type: [M+H]+
m/z	relative intensity	assigned
57.057	217	C3H7N+
72.0806	999	C4H10N+
89.0388	15	C7H5+
90.0463	18	C7H6+
91.0541	104	C7H7+
106.0648	9	C7H8N+
115.054	14	C9H7+
117.0574	14	C8H7N+
118.0651	32	C8H8N+
130.065	16	C9H8N+
143.0733	11	C10H9N+
152.0622	22	C12H8+
165.0698	151	C13H9+
166.0776	36	C13H10+
167.0729	137	C12H9N+
178.0776	44	C14H10+
179.0725	31	C13H9N+
180.0808	148	C13H10N+
191.0729	64	C14H9N+
192.0808	508	C14H10N+
193.0886	840	C14H11N+
194.0964	228	C14H12N+
206.0962	44	C15H12N+
207.1039	18	C15H13N+
208.1116	22	C15H14N+
220.1126	17	C16H14N+
