Mass spectrum: Desipramine; LC-ESI-ITFT; MS2; CE: 85%; R=15000; [M+H]+
Name: Desipramine
Name: 3-(5,6-dihydrobenzo[b][1]benzazepin-11-yl)-N-methylpropan-1-amine
Formula: C18H22N2
Exact mass: 266.1783
SMILES: CNCCCN1C2=CC=CC=C2CCC3=CC=CC=C31
InChI: InChI=1S/C18H22N2/c1-19-13-6-14-20-17-9-4-2-7-15(17)11-12-16-8-3-5-10-18(16)20/h2-5,7-10,19H,6,11-14H2,1H3
Instrument: LTQ Orbitrap XL Thermo Scientific
Instrument type: LC-ESI-ITFT
Ms type: MS2
Ion mode: POSITIVE
Ionization: ESI
Fragmentation mode: HCD
Collision energy: 85% (nominal)
Resolution: 15000
Column name: Kinetex Evo C18 2.6 um 50 x 2.1 mm
Retention time: 8.454 min
Base peak: 267.1854
Precursor m/z: 267.1856
Precursor type: [M+H]+
m/z	relative intensity	assigned
57.0571	22	C3H7N+
72.0806	999	C4H10N+
91.0542	13	C7H7+
105.0698	5	C8H9+
118.0651	5	C8H8N+
130.065	4	C9H8N+
144.0806	3	C10H10N+
158.0959	2	C11H12N+
165.0704	3	C13H9+
166.078	2	C13H10+
167.0731	3	C12H9N+
167.0853	3	C13H11+
178.0779	4	C14H10+
180.0809	38	C13H10N+
192.0807	7	C14H10N+
193.0886	356	C14H11N+
194.0963	45	C14H12N+
195.1043	17	C14H13N+
196.1121	12	C14H14N+
206.0964	9	C15H12N+
207.1039	7	C15H13N+
208.112	134	C15H14N+
220.112	19	C16H14N+
