Mass spectrum: Desipramine; LC-ESI-QFT; MS2; CE: CE15; R=17500; [M+H]+
Name: Desipramine
Name: 3-(5,6-dihydrobenzo[b][1]benzazepin-11-yl)-N-methylpropan-1-amine
Formula: C18H22N2
Exact mass: 266.1783
SMILES: CNCCCN1C2=C(CCC3=C1C=CC=C3)C=CC=C2
InChI: InChI=1S/C18H22N2/c1-19-13-6-14-20-17-9-4-2-7-15(17)11-12-16-8-3-5-10-18(16)20/h2-5,7-10,19H,6,11-14H2,1H3
Instrument: Q Exactive Thermo Fisher Scientific
Instrument type: LC-ESI-QFT
Ms type: MS2
Ion mode: POSITIVE
Ionization: ESI
Fragmentation mode: HCD
Collision energy: CE15
Resolution: 17500
Column name: Acquity UPLC BEH C18 1.7 um, 2.1 x 150 mm, Waters
Retention time: 19.371 min
Base peak: 223.0628
Precursor m/z: 267.1856
Precursor type: [M+H]+
m/z	relative intensity	assigned
56.0497	1	C3H6N+
57.0579	5	C3H7N+
72.081	999	C4H10N+
195.1033	1	C14H13N+
196.1123	5	C14H14N+
208.1127	43	C15H14N+
222.1258	1	C16H16N+
236.1439	37	C17H18N+
