Mass spectrum: Fusarenon X; LC-ESI-ITFT; MS2; CE: 20%; R=7500; [M-H]-
Name: Fusarenon X
Name: [3,10-dihydroxy-2-(hydroxymethyl)-1,5-dimethyl-4-oxospiro[8-oxatricyclo[7.2.1.02,7]dodec-5-ene-12,2`-oxirane]-11-yl] acetate
Formula: C17H22O8
Exact mass: 354.1315
SMILES: CC1=CC2C(C(C1=O)O)(C3(C(C(C(C34CO4)O2)O)OC(=O)C)C)CO
InChI: InChI=1S/C17H22O8/c1-7-4-9-16(5-18,12(22)10(7)20)15(3)13(24-8(2)19)11(21)14(25-9)17(15)6-23-17/h4,9,11-14,18,21-22H,5-6H2,1-3H3
Instrument: LTQ Orbitrap XL Thermo Scientific
Instrument type: LC-ESI-ITFT
Ms type: MS2
Ion mode: NEGATIVE
Ionization: ESI
Fragmentation mode: HCD
Collision energy: 20 % (nominal)
Resolution: 7500
Column name: Hypersil GOLD C18 1.9 um 100 x 2.1 mm Thermo Fisher Scientific
Retention time: 8.381 min
Base peak: 413.1452
Precursor m/z: 353.1242
Precursor type: [M-H]-
Precursor intensity: 1958273.571777
m/z	relative intensity	assigned
59.0139	76	C2H3O2-
151.0401	17	C8H7O3-
165.0555	34	C9H9O3-
168.0427	83	C8H8O4-
187.0764	546	C12H11O2-
191.0711	19	C11H11O3-
199.0768	23	C13H11O2-
203.0709	56	C12H11O3-
205.0871	342	C12H13O3-
215.071	114	C13H11O3-
217.0877	54	C13H13O3-
233.0821	115	C13H13O4-
245.0816	184	C14H13O4-
263.0924	999	C14H15O5-
293.1026	119	C15H17O6-
305.1034	32	C16H17O6-
323.1134	23	C16H19O7-
