Mass spectrum: Diflufenican-OH (TENTATIVE); LC-ESI-QFT; MS2; CE: 30%; R=70000; [M+H]+
Name: Diflufenican-OH
Formula: C19H11F5N2O3
Exact mass: 410.0686
SMILES: C(*)1=C(*)C(=C(*)C(=C(*)1)OC2=C(C(*)=C(*)C(*)=N2)C(=O)NC3=C(C(*)=C(C(*)=C(*)3)F)F)C(F)(F)F  *=[OH (n=1) & H (n=9)]
Instrument: Q Exactive Plus Orbitrap Thermo Scientific
Instrument type: LC-ESI-QFT
Ms type: MS2
Ion mode: POSITIVE
Ionization: ESI
Fragmentation mode: HCD
Collision energy: 30% (nominal)
Resolution: 70000
Column name: Waters UPLC BEH C18 1.7 um 2.1 mm x 100 mm with pre-column
Retention time: 13.2 min
Precursor m/z: 411.0764
Precursor type: [M+H]+
m/z	relative intensity
78.0338	19
93.9954	13
96.0443	94
107.017	15
128.0495	16
140.0494	100
144.0229	14
151.0354	157
152.0307	24
152.0491	12
156.0443	19
158.0399	128
159.0479	27
172.0393	15
176.0504	15
178.0462	322
186.0351	25
187.0428	32
196.0394	17
196.0504	18
206.0314	25
206.0411	384
207.0489	48
214.0303	41
215.0385	17
233.0523	24
234.036	999
242.0246	95
262.0308	110
280.041	50
301.0876	15
325.0569	20
