Mass spectrum: Sulthiame; LC-ESI-ITFT; MS2; CE: 110%; R=15000; [M+H]+
Name: Sulthiame
Name: 4-(1,1-dioxothiazinan-2-yl)benzenesulfonamide
Formula: C10H14N2O4S2
Exact mass: 290.0395
SMILES: C1CCS(=O)(=O)N(C1)C2=CC=C(C=C2)S(=O)(=O)N
InChI: InChI=1S/C10H14N2O4S2/c11-18(15,16)10-5-3-9(4-6-10)12-7-1-2-8-17(12,13)14/h3-6H,1-2,7-8H2,(H2,11,15,16)
Instrument: LTQ Orbitrap XL Thermo Scientific
Instrument type: LC-ESI-ITFT
Ms type: MS2
Ion mode: POSITIVE
Ionization: ESI
Fragmentation mode: HCD
Collision energy: 110% (nominal)
Resolution: 15000
Column name: Kinetex Evo C18 2.6 um 50 x 2.1 mm
Retention time: 4.280 min
Base peak: 308.0734
Precursor m/z: 291.0468
Precursor type: [M+H]+
m/z	relative intensity	assigned
55.054	18	C4H7+
65.0384	23	C5H5+
76.0307	48	C6H4+
77.0386	18	C6H5+
78.0463	54	C6H6+
79.0416	19	C5H5N+
91.0543	80	C7H7+
92.0495	18	C6H6N+
93.0573	28	C6H7N+
94.0413	53	C6H6O+
95.0492	12	C6H7O+
104.0495	269	C7H6N+
105.0573	999	C7H7N+
106.0651	21	C7H8N+
107.0492	14	C7H7O+
108.0442	10	C6H6NO+
117.0573	108	C8H7N+
118.0651	123	C8H8N+
119.0729	16	C8H9N+
122.0601	34	C7H8NO+
130.065	16	C9H8N+
132.0808	31	C9H10N+
134.0598	10	C8H8NO+
137.0475	7	C7H7NO2+
146.0961	10	C10H12N+
147.1043	9	C10H13N+
185.0381	68	C7H9N2O2S+
