Mass spectrum: Fusarochromanone; LC-ESI-ITFT; MS2; CE: 50%; R=7500; [M-H]-
Name: Fusarochromanone
Name: 5-amino-6-(3-amino-4-hydroxybutanoyl)-2,2-dimethyl-3H-chromen-4-one
Formula: C15H20N2O4
Exact mass: 292.14231
SMILES: CC1(CC(=O)C2=C(O1)C=CC(=C2N)C(=O)CC(CO)N)C
InChI: InChI=1S/C15H20N2O4/c1-15(2)6-11(20)13-12(21-15)4-3-9(14(13)17)10(19)5-8(16)7-18/h3-4,8,18H,5-7,16-17H2,1-2H3
Instrument: LTQ Orbitrap XL Thermo Scientific
Instrument type: LC-ESI-ITFT
Ms type: MS2
Ion mode: NEGATIVE
Ionization: ESI
Fragmentation mode: HCD
Collision energy: 50 % (nominal)
Resolution: 7500
Column name: Hypersil GOLD C18 1.9 um 100 x 2.1 mm Thermo Fisher Scientific
Retention time: 10.281 min
Base peak: 201.0385
Precursor m/z: 291.135
Precursor type: [M-H]-
Precursor intensity: 307354.7177734
m/z	relative intensity	assigned
230.1188	145	C14H16NO2-
232.0984	999	C13H14NO3-
291.136	477	C15H19N2O4-
