Mass spectrum: Pyranonigrin A; LC-ESI-ITFT; MS2; CE: 30%; R=7500; [M-H]-
Name: Pyranonigrin A
Name: CID 73323900
Name: 3,7-dihydroxy-2-prop-1-enyl-6,7-dihydropyrano[2,3-c]pyrrole-4,5-dione
Formula: C10H9NO5
Exact mass: 223.04807
SMILES: CC=CC1=C(C(=O)C2=C(O1)C(NC2=O)O)O
InChI: InChI=1S/C10H9NO5/c1-2-3-4-6(12)7(13)5-8(16-4)10(15)11-9(5)14/h2-3,10,12,15H,1H3,(H,11,14)
Instrument: LTQ Orbitrap XL Thermo Scientific
Instrument type: LC-ESI-ITFT
Ms type: MS2
Ion mode: NEGATIVE
Ionization: ESI
Fragmentation mode: HCD
Collision energy: 30 % (nominal)
Resolution: 7500
Column name: Hypersil GOLD C18 1.9 um 100 x 2.1 mm Thermo Fisher Scientific
Retention time: 8.469 min
Base peak: 222.0399
Precursor m/z: 222.0408
Precursor type: [M-H]-
Precursor intensity: 3745201.614014
m/z	relative intensity	assigned
83.0139	22	C4H3O2-
95.014	22	C5H3O2-
95.05	34	C6H7O-
96.0088	27	C4H2NO2-
98.0244	23	C4H4NO2-
104.0503	50	C7H6N-
107.0499	35	C7H7O-
120.0451	68	C7H6NO-
121.0292	33	C7H5O2-
123.0084	41	C6H3O3-
123.0448	434	C7H7O2-
124.004	29	C5H2NO3-
124.0407	19	C6H6NO2-
125.0243	30	C6H5O3-
132.0451	245	C8H6NO-
134.0242	61	C7H4NO2-
135.0451	71	C8H7O2-
148.0397	47	C8H6NO2-
149.0477	88	C8H7NO2-
150.0555	717	C8H8NO2-
151.0395	999	C8H7O3-
152.0352	24	C7H6NO3-
166.0503	129	C8H8NO3-
179.0342	291	C9H7O4-
194.0451	563	C9H8NO4-
