Mass spectrum: Amiloride; LC-ESI-ITFT; MS2; CE: 25%; R=15000; [M+H]+
Name: Amiloride
Name: 3,5-diamino-6-chloro-N-(diaminomethylidene)pyrazine-2-carboxamide
Formula: C6H8ClN7O
Exact mass: 229.0479
SMILES: C1(=C(N=C(C(=N1)Cl)N)N)C(=O)N=C(N)N
InChI: InChI=1S/C6H8ClN7O/c7-2-4(9)13-3(8)1(12-2)5(15)14-6(10)11/h(H4,8,9,13)(H4,10,11,14,15)
Instrument: LTQ Orbitrap XL Thermo Scientific
Instrument type: LC-ESI-ITFT
Ms type: MS2
Ion mode: POSITIVE
Ionization: ESI
Fragmentation mode: HCD
Collision energy: 25% (nominal)
Resolution: 15000
Column name: Kinetex Evo C18 2.6 um 50 x 2.1 mm
Retention time: 0.757 min
Base peak: 230.0551
Precursor m/z: 230.0552
Precursor type: [M+H]+
m/z	relative intensity	assigned
60.0555	77	CH6N3+
86.0349	12	C2H4N3O+
145.0269	1	C4H6ClN4+
171.0069	153	C5H4ClN4O+
188.0334	8	C5H7ClN5O+
189.0175	22	C5H6ClN4O2+
213.0285	8	C6H6ClN6O+
230.0552	999	C6H9ClN7O+
