Mass spectrum: Picolinafen-OH-fluoroaniline (TENTATIVE); LC-ESI-QFT; MS2; CE: 30%; R=70000; [M+H]+
Name: Picolinafen-OH-fluoroaniline
Formula: C6H6FNO
Exact mass: 127.0426
SMILES: C1=CC(N)=C(*)C(*)=C1F  *=[OH (n=1) & H (n=1)]
Instrument: Q Exactive Plus Orbitrap Thermo Scientific
Instrument type: LC-ESI-QFT
Ms type: MS2
Ion mode: POSITIVE
Ionization: ESI
Fragmentation mode: HCD
Collision energy: 30% (nominal)
Resolution: 70000
Column name: Waters UPLC BEH C18 1.7 um 2.1 mm x 100 mm with pre-column
Retention time: 2.1 min
Precursor m/z: 128.0504
Precursor type: [M+H]+
m/z	relative intensity
55.0545	21
57.0138	317
59.0293	61
63.0231	198
80.0495	29
83.0291	999
90.0338	61
108.0442	43
110.0401	103
