Mass spectrum: Etofylline; LC-ESI-ITFT; MS2; CE: 75%; R=15000; [M+H]+
Name: Etofylline
Name: 7-(2-hydroxyethyl)-1,3-dimethylpurine-2,6-dione
Formula: C9H12N4O3
Exact mass: 224.0909
SMILES: CN1C2=C(C(=O)N(C1=O)C)N(C=N2)CCO
InChI: InChI=1S/C9H12N4O3/c1-11-7-6(8(15)12(2)9(11)16)13(3-4-14)5-10-7/h5,14H,3-4H2,1-2H3
Instrument: LTQ Orbitrap XL Thermo Scientific
Instrument type: LC-ESI-ITFT
Ms type: MS2
Ion mode: POSITIVE
Ionization: ESI
Fragmentation mode: HCD
Collision energy: 75% (nominal)
Resolution: 15000
Column name: Kinetex Evo C18 2.6 um 50 x 2.1 mm
Retention time: 2.579 min
Base peak: 300.1474
Precursor m/z: 225.0982
Precursor type: [M+H]+
m/z	relative intensity	assigned
69.0446	57	C3H5N2+
72.0445	2	C3H6NO+
83.024	2	C3H3N2O+
96.0557	100	C4H6N3+
97.0399	2	C4H5N2O+
108.0557	3	C5H6N3+
109.0268	1	C4H3N3O+
110.0712	3	C5H8N3+
123.0553	2	C6H7N2O+
124.0506	999	C5H6N3O+
137.0823	12	C6H9N4+
142.0612	17	C5H8N3O2+
149.0458	1	C6H5N4O+
168.0766	3	C7H10N3O2+
181.0722	589	C7H9N4O2+
