Mass spectrum: Dibucaine; LC-ESI-QFT; MS2; CE: 40%; R=30000; [M+H]+
Name: Dibucaine
Name: 2-Butoxy-N-[2-(diethylamino)ethyl]quinoline-4-carboxamide
Formula: C20H29N3O2
Exact mass: 343.226
SMILES: CCCCOC1=CC(C(=O)NCCN(CC)CC)=C2C=CC=CC2=N1
InChI: InChI=1S/C20H29N3O2/c1-4-7-14-25-19-15-17(16-10-8-9-11-18(16)22-19)20(24)21-12-13-23(5-2)6-3/h8-11,15H,4-7,12-14H2,1-3H3,(H,21,24)
Instrument: Orbitrap Fusion Tribrid Thermo Fisher Scientific
Instrument type: LC-ESI-QFT
Ms type: MS2
Ion mode: POSITIVE
Ionization: ESI
Fragmentation mode: HCD
Collision energy: 40% (nominal)
Resolution: 30000
Precursor m/z: 344.2333
Precursor type: [M+H]+
m/z	relative intensity
74.0967	57
100.1124	55
116.0497	14
130.0655	1
144.0446	51
171.0556	21
172.0396	107
200.1073	10
215.0817	724
227.1182	27
228.1021	68
271.1442	999
344.2333	3
