Mass spectrum: Altenuene; LC-ESI-ITFT; MS2; CE: 40%; R=7500; [M+H]+
Name: Altenuene
Name: 6H-Dibenzo[b,d]pyran-6-one, 2,3,4,4a-tetrahydro-2,3,7-trihydroxy-9-methoxy-4a-methyl-, (2R,3R,4aR)-rel-
Name: 2,3,7-trihydroxy-9-methoxy-4a-methyl-3,4-dihydro-2H-benzo[c]chromen-6-one
Formula: C15H16O6
Exact mass: 292.0947
SMILES: CC12CC(C(C=C1C3=C(C(=CC(=C3)OC)O)C(=O)O2)O)O
InChI: InChI=1S/C15H16O6/c1-15-6-12(18)10(16)5-9(15)8-3-7(20-2)4-11(17)13(8)14(19)21-15/h3-5,10,12,16-18H,6H2,1-2H3
Instrument: LTQ Orbitrap XL Thermo Scientific
Instrument type: LC-ESI-ITFT
Ms type: MS2
Ion mode: POSITIVE
Ionization: ESI
Fragmentation mode: HCD
Collision energy: 40 % (nominal)
Resolution: 7500
Column name: Hypersil GOLD C18 1.9 um 100 x 2.1 mm Thermo Fisher Scientific
Retention time: 15.043 min
Base peak: 293.1022
Precursor m/z: 293.102
Precursor type: [M+H]+
Precursor intensity: 12654529.8916
m/z	relative intensity	assigned
169.0646	6	C12H9O+
171.0803	3	C12H11O+
179.0342	5	C9H7O4+
181.0648	5	C13H9O+
183.0804	6	C13H11O+
187.0753	5	C12H11O2+
188.0836	3	C12H12O2+
189.0904	5	C12H13O2+
191.1066	19	C12H15O2+
195.0803	6	C14H11O+
197.0598	21	C13H9O2+
198.0674	27	C13H10O2+
201.091	84	C13H13O2+
203.0698	6	C12H11O3+
203.1064	28	C13H15O2+
211.0754	29	C14H11O2+
213.0909	67	C14H13O2+
214.0625	4	C13H10O3+
215.07	16	C13H11O3+
219.1014	18	C13H15O3+
225.0544	18	C14H9O3+
229.0858	270	C14H13O3+
231.1015	51	C14H15O3+
239.07	224	C15H11O3+
242.0567	4	C14H10O4+
247.0962	18	C14H15O4+
257.0806	999	C15H13O4+
275.0913	41	C15H15O5+
