Mass spectrum: Dothiepin; LC-ESI-QTOF; MS2; CE: 20 eV; R=3600; [M+H]+
Name: Dothiepin
Name: 3-(Dibenzo[b,e]thiepin-11(6H)-ylidene)-N,N-dimethylpropan-1-amine
Formula: C19H21NS
Exact mass: 295.1395
SMILES: CN(C)CCC=C1C2=CC=CC=C2CSC2=C1C=CC=C2
InChI: InChI=1S/C19H21NS/c1-20(2)13-7-11-17-16-9-4-3-8-15(16)14-21-19-12-6-5-10-18(17)19/h3-6,8-12H,7,13-14H2,1-2H3
Instrument: 6582 QTOF Agilent
Instrument type: LC-ESI-QTOF
Ms type: MS2
Ion mode: POSITIVE
Ionization: ESI
Fragmentation mode: CID
Collision energy: 20 eV
Resolution: 3600
Precursor m/z: 296.1468
Precursor type: [M+H]+
m/z	relative intensity
58.0658	439
84.0809	46
91.0537	301
115.0532	122
117.0691	430
123.0255	242
129.0701	48
141.0686	85
142.0768	53
147.0246	271
165.0667	115
173.0402	68
178.0752	183
179.0834	64
191.0831	181
192.0904	197
202.0745	185
203.0829	566
209.0398	182
210.0481	172
217.0989	418
218.1062	964
221.0391	368
222.0473	342
223.0555	999
225.0713	397
235.0539	64
236.0623	195
251.0868	256
296.1468	413
