Mass spectrum: Cyclopeptin; LC-ESI-ITFT; MS2; CE: 40%; R=7500; [M+H]+
Name: Cyclopeptin
Name: Cyclopeptine
Name: 3-benzyl-4-methyl-1,3-dihydro-1,4-benzodiazepine-2,5-dione
Formula: C17H16N2O2
Exact mass: 280.1212
SMILES: CN1C(C(=O)NC2=CC=CC=C2C1=O)CC3=CC=CC=C3
InChI: InChI=1S/C17H16N2O2/c1-19-15(11-12-7-3-2-4-8-12)16(20)18-14-10-6-5-9-13(14)17(19)21/h2-10,15H,11H2,1H3,(H,18,20)
Instrument: LTQ Orbitrap XL Thermo Scientific
Instrument type: LC-ESI-ITFT
Ms type: MS2
Ion mode: POSITIVE
Ionization: ESI
Fragmentation mode: HCD
Collision energy: 40 % (nominal)
Resolution: 7500
Column name: Hypersil GOLD C18 1.9 um 100 x 2.1 mm Thermo Fisher Scientific
Retention time: 16.952 min
Base peak: 281.1291
Precursor m/z: 281.1285
Precursor type: [M+H]+
Precursor intensity: 17811121.11206
m/z	relative intensity	assigned
120.0445	6	C7H6NO+
134.0963	3	C9H12N+
253.1342	2	C16H17N2O+
281.1288	999	C17H17N2O2+
