Mass spectrum: Nylidrin; LC-ESI-QFT; MS2; CE: 70%; R=17500; [M+H]+
Name: Nylidrin
Name: 4-{1-Hydroxy-2-[(4-phenylbutan-2-yl)amino]propyl}phenol
Formula: C19H25NO2
Exact mass: 299.1885
SMILES: CC(CCC1=CC=CC=C1)NC(C)C(O)C1=CC=C(O)C=C1
InChI: InChI=1S/C19H25NO2/c1-14(8-9-16-6-4-3-5-7-16)20-15(2)19(22)17-10-12-18(21)13-11-17/h3-7,10-15,19-22H,8-9H2,1-2H3
Instrument: Q Exactive Thermo Fisher Scientific
Instrument type: LC-ESI-QFT
Ms type: MS2
Ion mode: POSITIVE
Ionization: ESI
Fragmentation mode: HCD
Collision energy: 70% (nominal)
Resolution: 17500
Column name: Hypersil GOLD 1.9 um 2.1 x 100 mm Thermo Fisher Scientific
Precursor m/z: 300.1959
Precursor type: [M+H]+
m/z	relative intensity
55.0188	5
56.0504	20
57.0344	5
65.0394	30
77.0393	5
79.055	69
81.0707	6
91.0548	999
95.0497	23
103.0548	47
105.0704	517
107.0496	48
109.0652	18
115.0546	21
117.0577	4
131.0494	8
133.0649	192
135.0681	34
150.0915	59
