Mass spectrum: Deoxybrevianamide E; LC-ESI-ITFT; MS2; CE: 40%; R=7500; [M+H]+
Name: Deoxybrevianamide E
Name: Desoxybrevianamide E
Name: 3-[[2-(2-methylbut-3-en-2-yl)-1H-indol-3-yl]methyl]-2,3,6,7,8,8a-hexahydropyrrolo[1,2-a]pyrazine-1,4-dione
Formula: C21H25N3O2
Exact mass: 351.1947
SMILES: CC(C)(C=C)C1=C(C2=CC=CC=C2N1)CC3C(=O)N4CCCC4C(=O)N3
InChI: InChI=1S/C21H25N3O2/c1-4-21(2,3)18-14(13-8-5-6-9-15(13)22-18)12-16-20(26)24-11-7-10-17(24)19(25)23-16/h4-6,8-9,16-17,22H,1,7,10-12H2,2-3H3,(H,23,25)
Instrument: LTQ Orbitrap XL Thermo Scientific
Instrument type: LC-ESI-ITFT
Ms type: MS2
Ion mode: POSITIVE
Ionization: ESI
Fragmentation mode: HCD
Collision energy: 40 % (nominal)
Resolution: 7500
Column name: Hypersil GOLD C18 1.9 um 100 x 2.1 mm Thermo Fisher Scientific
Retention time: 18.048 min
Base peak: 352.2022
Precursor m/z: 352.202
Precursor type: [M+H]+
Precursor intensity: 11179958.49219
m/z	relative intensity	assigned
69.0699	13	C5H9+
115.0871	5	C5H11N2O+
118.0651	5	C8H8N+
125.0709	18	C6H9N2O+
130.0651	646	C9H8N+
132.0808	46	C9H10N+
144.0808	16	C10H10N+
153.0658	18	C7H9N2O2+
155.0814	10	C7H11N2O2+
156.0805	15	C11H10N+
159.0918	14	C10H11N2+
170.0601	65	C11H8NO+
171.0916	7	C11H11N2+
173.1067	6	C11H13N2+
182.0599	14	C12H8NO+
183.1049	3	C13H13N+
186.1276	9	C13H16N+
198.1277	999	C14H16N+
199.0866	18	C12H11N2O+
200.1435	11	C14H18N+
223.1224	9	C15H15N2+
238.1226	26	C16H16NO+
239.1172	5	C15H15N2O+
250.1339	9	C16H16N3+
268.1447	68	C16H18N3O+
284.1393	300	C16H18N3O2+
296.1395	261	C17H18N3O2+
352.2021	33	C21H26N3O2+
