Mass spectrum: Aspergillin PZ; LC-ESI-ITFT; MS2; CE: 15%; R=7500; [M+H]+
Name: Aspergillin PZ
Name: 16-hydroxy-1,5,6-trimethyl-8-(2-methylpropyl)-19-oxa-9-azapentacyclo[13.3.1.02,14.03,11.07,11]nonadec-4-ene-10,12-dione
Formula: C24H35NO4
Exact mass: 401.2566
SMILES: CC1C2C(NC(=O)C23C(C=C1C)C4C(CC3=O)C5C(CCC4(O5)C)O)CC(C)C
InChI: InChI=1S/C24H35NO4/c1-11(2)8-16-19-13(4)12(3)9-15-20-14(10-18(27)24(15,19)22(28)25-16)21-17(26)6-7-23(20,5)29-21/h9,11,13-17,19-21,26H,6-8,10H2,1-5H3,(H,25,28)
Instrument: LTQ Orbitrap XL Thermo Scientific
Instrument type: LC-ESI-ITFT
Ms type: MS2
Ion mode: POSITIVE
Ionization: ESI
Fragmentation mode: HCD
Collision energy: 15 % (nominal)
Resolution: 7500
Column name: Hypersil GOLD C18 1.9 um 100 x 2.1 mm Thermo Fisher Scientific
Retention time: 21.677 min
Base peak: 402.2649
Precursor m/z: 402.2639
Precursor type: [M+H]+
Precursor intensity: 7960247.711426
m/z	relative intensity	assigned
300.1957	4	C19H26NO2+
384.2536	250	C24H34NO3+
402.2643	999	C24H36NO4+
