Mass spectrum: Terrein; LC-ESI-ITFT; MS2; CE: 40%; R=7500; [M+H]+
Name: Terrein
Name: 4,5-dihydroxy-3-prop-1-enylcyclopent-2-en-1-one
Formula: C8H10O3
Exact mass: 154.0630
SMILES: CC=CC1=CC(=O)C(C1O)O
InChI: InChI=1S/C8H10O3/c1-2-3-5-4-6(9)8(11)7(5)10/h2-4,7-8,10-11H,1H3
Instrument: LTQ Orbitrap XL Thermo Scientific
Instrument type: LC-ESI-ITFT
Ms type: MS2
Ion mode: POSITIVE
Ionization: ESI
Fragmentation mode: HCD
Collision energy: 40 % (nominal)
Resolution: 7500
Column name: Hypersil GOLD C18 1.9 um 100 x 2.1 mm Thermo Fisher Scientific
Retention time: 4.791 min
Base peak: 155.07
Precursor m/z: 155.0703
Precursor type: [M+H]+
Precursor intensity: 3352742.85791
m/z	relative intensity	assigned
79.0542	6	C6H7+
81.0695	69	C6H9+
91.0538	46	C7H7+
93.0696	29	C7H9+
109.0645	228	C7H9O+
119.0489	12	C8H7O+
127.0751	12	C7H11O2+
137.0594	999	C8H9O2+
155.0699	910	C8H11O3+
