Mass spectrum: Antipyrine; LC-ESI-ITFT; MS2; CE: 40%; R=15000; [M+H]+
Name: Antipyrine
Name: 1,5-dimethyl-2-phenylpyrazol-3-one
Formula: C11H12N2O
Exact mass: 188.0950
SMILES: CC1=CC(=O)N(N1C)C2=CC=CC=C2
InChI: InChI=1S/C11H12N2O/c1-9-8-11(14)13(12(9)2)10-6-4-3-5-7-10/h3-8H,1-2H3
Instrument: LTQ Orbitrap XL Thermo Scientific
Instrument type: LC-ESI-ITFT
Ms type: MS2
Ion mode: POSITIVE
Ionization: ESI
Fragmentation mode: CID
Collision energy: 40% (nominal)
Resolution: 15000
Column name: Kinetex Evo C18 2.6 um 50 x 2.1 mm
Retention time: 5.562 min
Base peak: 189.1022
Precursor m/z: 189.1022
Precursor type: [M+H]+
m/z	relative intensity	assigned
56.0493	1	C3H6N+
58.065	2	C3H8N+
91.0542	2	C7H7+
96.0443	1	C5H6NO+
96.0683	2	C5H8N2+
103.0544	1	C8H7+
104.0495	4	C7H6N+
105.0698	1	C8H9+
106.0651	1	C7H8N+
111.0554	2	C5H7N2O+
115.0544	1	C9H7+
117.0575	2	C8H7N+
117.07	1	C9H9+
118.0652	19	C8H8N+
120.0809	22	C8H10N+
129.0702	2	C10H9+
130.0653	29	C9H8N+
131.073	88	C9H9N+
132.0809	20	C9H10N+
133.0524	1	C8H7NO+
133.0761	8	C8H9N2+
134.0965	2	C9H12N+
135.0553	3	C7H7N2O+
144.0809	72	C10H10N+
145.0649	7	C10H9O+
145.0888	1	C10H11N+
146.084	54	C9H10N2+
146.0965	42	C10H12N+
147.0917	51	C9H11N2+
148.0757	12	C9H10NO+
149.0712	2	C8H9N2O+
158.06	3	C10H8NO+
159.0918	1	C10H11N2+
160.0997	1	C10H12N2+
161.1074	69	C10H13N2+
162.0915	3	C10H12NO+
171.0916	1	C11H11N2+
172.0758	33	C11H10NO+
174.0789	29	C10H10N2O+
189.1023	999	C11H13N2O+
