Mass spectrum: Amiloride; LC-ESI-QFT; MS2; CE: 75%; R=17500; [M+H]+
Name: Amiloride
Name: 3,5-Diamino-N-carbamimidoyl-6-chloropyrazine-2-carboxamide
Formula: C6H8ClN7O
Exact mass: 229.0479
SMILES: NC(=N)NC(=O)C1=NC(Cl)=C(N)N=C1N
InChI: InChI=1S/C6H8ClN7O/c7-2-4(9)13-3(8)1(12-2)5(15)14-6(10)11/h(H4,8,9,13)(H4,10,11,14,15)
Instrument: Q Exactive Thermo Fisher Scientific
Instrument type: LC-ESI-QFT
Ms type: MS2
Ion mode: POSITIVE
Ionization: ESI
Fragmentation mode: HCD
Collision energy: 75% (nominal)
Resolution: 17500
Column name: Hypersil GOLD 1.9 um 2.1 x 100 mm Thermo Fisher Scientific
Precursor m/z: 230.0552
Precursor type: [M+H]+
m/z	relative intensity
55.03	6
60.0565	592
61.9801	35
63.9958	117
66.0222	4
69.0091	2
73.9801	7
80.0251	4
86.0355	7
88.9907	85
91.0064	11
100.9906	66
107.0358	6
108.0436	123
116.0014	999
125.046	5
143.0121	47
161.0226	303
171.007	49
189.0176	77
