Mass spectrum: Amiloride; LC-ESI-QFT; MS2; CE: 30%; R=17500; [M+H]+
Name: Amiloride
Name: 3,5-Diamino-N-carbamimidoyl-6-chloropyrazine-2-carboxamide
Formula: C6H8ClN7O
Exact mass: 229.0479
SMILES: NC(=N)NC(=O)C1=NC(Cl)=C(N)N=C1N
InChI: InChI=1S/C6H8ClN7O/c7-2-4(9)13-3(8)1(12-2)5(15)14-6(10)11/h(H4,8,9,13)(H4,10,11,14,15)
Instrument: Q Exactive Thermo Fisher Scientific
Instrument type: LC-ESI-QFT
Ms type: MS2
Ion mode: POSITIVE
Ionization: ESI
Fragmentation mode: HCD
Collision energy: 30% (nominal)
Resolution: 17500
Column name: Hypersil GOLD 1.9 um 2.1 x 100 mm Thermo Fisher Scientific
Precursor m/z: 230.0552
Precursor type: [M+H]+
m/z	relative intensity
60.0565	958
61.0405	10
63.9956	1
86.0356	69
100.991	3
108.0437	1
116.0012	22
143.0117	2
145.0276	6
161.0225	48
170.0229	4
171.0069	709
188.0335	38
189.0175	999
213.0287	49
230.0552	712
