Mass spectrum: 3 Acetyldeoxynivalenol; LC-ESI-ITFT; MS2; CE: 30%; R=7500; [M+H]+
Name: 3 Acetyldeoxynivalenol
Name: Acetyldeoxynivalenol
Name: [3-hydroxy-2-(hydroxymethyl)-1,5-dimethyl-4-oxospiro[8-oxatricyclo[7.2.1.02,7]dodec-5-ene-12,2`-oxirane]-10-yl] acetate
Formula: C17H22O7
Exact mass: 338.1366
SMILES: CC1=CC2C(C(C1=O)O)(C3(CC(C(C34CO4)O2)OC(=O)C)C)CO
InChI: InChI=1S/C17H22O7/c1-8-4-11-16(6-18,13(21)12(8)20)15(3)5-10(23-9(2)19)14(24-11)17(15)7-22-17/h4,10-11,13-14,18,21H,5-7H2,1-3H3
Instrument: LTQ Orbitrap XL Thermo Scientific
Instrument type: LC-ESI-ITFT
Ms type: MS2
Ion mode: POSITIVE
Ionization: ESI
Fragmentation mode: HCD
Collision energy: 30 % (nominal)
Resolution: 7500
Column name: Hypersil GOLD C18 1.9 um 100 x 2.1 mm Thermo Fisher Scientific
Retention time: 10.741 min
Base peak: 339.1436
Precursor m/z: 339.1438
Precursor type: [M+H]+
Precursor intensity: 15478757.75732
m/z	relative intensity	assigned
81.0696	93	C6H9+
97.0647	63	C6H9O+
107.0489	146	C7H7O+
109.0645	199	C7H9O+
123.0439	183	C7H7O2+
125.0594	386	C7H9O2+
131.0853	174	C10H11+
133.0644	133	C9H9O+
135.0438	66	C8H7O2+
135.08	201	C9H11O+
136.0518	44	C8H8O2+
137.0594	761	C8H9O2+
143.0853	169	C11H11+
145.0646	171	C10H9O+
145.1009	230	C11H13+
147.0801	254	C10H11O+
149.0595	94	C9H9O2+
149.0957	87	C10H13O+
151.0386	79	C8H7O3+
151.0755	62	C9H11O2+
153.0542	112	C8H9O3+
157.1009	395	C12H13+
159.0801	391	C11H11O+
159.1165	129	C12H15+
161.0594	356	C10H9O2+
161.0957	229	C11H13O+
163.0751	307	C10H11O2+
165.0911	58	C10H13O2+
167.0851	182	C13H11+
169.1012	204	C13H13+
171.0801	168	C12H11O+
173.0957	320	C12H13O+
175.075	999	C11H11O2+
175.1115	196	C12H15O+
177.0906	151	C11H13O2+
179.0858	43	C14H11+
183.0801	102	C13H11O+
185.0957	575	C13H13O+
187.0753	122	C12H11O2+
187.1114	163	C13H15O+
189.0906	350	C12H13O2+
191.1072	25	C12H15O2+
195.0797	131	C14H11O+
197.096	142	C14H13O+
201.0907	297	C13H13O2+
203.1062	479	C13H15O2+
205.0854	93	C12H13O3+
213.0907	439	C14H13O2+
215.1063	113	C14H15O2+
219.1009	139	C13H15O3+
225.0913	38	C15H13O2+
231.1009	299	C14H15O3+
251.1283	18	C14H19O4+
279.1228	101	C15H19O5+
