Mass spectrum: Mefruside; LC-ESI-ITFT; MS2; CE: 35%; R=7500; [M+H]+
Name: Mefruside
Name: 4-Chloro-N1-methyl-N1-[(2-methyloxolan-2-yl)methyl]benzene-1,3-disulfonamide
Formula: C13H19ClN2O5S2
Exact mass: 382.0424
SMILES: CN(CC1(C)CCCO1)S(=O)(=O)C1=CC=C(Cl)C(=C1)S(N)(=O)=O
InChI: InChI=1S/C13H19ClN2O5S2/c1-13(6-3-7-21-13)9-16(2)23(19,20)10-4-5-11(14)12(8-10)22(15,17)18/h4-5,8H,3,6-7,9H2,1-2H3,(H2,15,17,18)
Instrument: LTQ Orbitrap XL Thermo Fisher Scientific
Instrument type: LC-ESI-ITFT
Ms type: MS2
Ion mode: POSITIVE
Ionization: ESI
Fragmentation mode: HCD
Collision energy: 35% (nominal)
Resolution: 7500
Column name: Hypersil GOLD C18 1.9 um 100 x 2.1 mm Thermo Fisher Scientific
Precursor m/z: 383.0497
Precursor type: [M+H]+
m/z	relative intensity
57.0333	16
69.0698	17
71.0854	10
73.1217	10
79.054	26
81.0698	719
84.0807	252
86.0599	80
96.0807	19
97.0647	39
97.347	11
99.0804	429
110.0964	29
111.1043	21
112.1123	12
128.1069	245
129.1148	999
135.9601	5
188.9094	11
188.9284	14
198.7898	10
203.0959	6
203.9881	23
217.9789	43
237.9394	17
253.9347	157
267.9501	67
273.8035	21
284.9769	438
296.977	96
