Mass spectrum: Aspercolorin; LC-ESI-ITFT; MS2; CE: 60%; R=7500; [M-H]-
Name: Aspercolorin
Name: 14-benzyl-19-methoxy-2,8,12,15-tetrazatricyclo[15.4.0.04,8]henicosa-1(17),18,20-triene-3,9,13,16-tetrone
Formula: C25H28N4O5
Exact mass: 464.20597
SMILES: COC1=CC2=C(C=C1)NC(=O)C3CCCN3C(=O)CCNC(=O)C(NC2=O)CC4=CC=CC=C4
InChI: InChI=1S/C25H28N4O5/c1-34-17-9-10-19-18(15-17)23(31)28-20(14-16-6-3-2-4-7-16)24(32)26-12-11-22(30)29-13-5-8-21(29)25(33)27-19/h2-4,6-7,9-10,15,20-21H,5,8,11-14H2,1H3,(H,26,32)(H,27,33)(H,28,31)
Instrument: LTQ Orbitrap XL Thermo Scientific
Instrument type: LC-ESI-ITFT
Ms type: MS2
Ion mode: NEGATIVE
Ionization: ESI
Fragmentation mode: HCD
Collision energy: 60 % (nominal)
Resolution: 7500
Column name: Hypersil GOLD C18 1.9 um 100 x 2.1 mm Thermo Fisher Scientific
Retention time: 19.779 min
Base peak: 463.1976
Precursor m/z: 463.1987
Precursor type: [M-H]-
Precursor intensity: 19163363.63037
m/z	relative intensity	assigned
71.0249	101	C2H3N2O-
138.0555	45	C7H8NO2-
146.0607	71	C9H8NO-
163.0871	147	C9H11N2O-
165.0665	70	C8H9N2O2-
167.082	154	C8H11N2O2-
189.0666	49	C10H9N2O2-
199.0193	9	C15H3O-
203.0484	5	C13H5N3-
244.1079	13	C13H14N3O2-
262.1191	67	C13H16N3O3-
278.1045	21	C14H16NO5-
279.112	10	C14H17NO5-
294.1236	93	C17H16N3O2-
295.1075	116	C17H15N2O3-
312.1341	126	C17H18N3O3-
316.1291	625	C16H18N3O4-
354.1321	355	C18H18N4O4-
372.1428	87	C18H20N4O5-
445.1866	484	C25H25N4O4-
448.1734	58	C24H24N4O5-
463.1971	999	C25H27N4O5-
