Mass spectrum: Dothiepin; LC-ESI-ITFT; MS2; CE: 65%; R=7500; [M+H]+
Name: Dothiepin
Name: 3-(Dibenzo[b,e]thiepin-11(6H)-ylidene)-N,N-dimethylpropan-1-amine
Formula: C19H21NS
Exact mass: 295.1395
SMILES: CN(C)CCC=C1C2=CC=CC=C2CSC2=C1C=CC=C2
InChI: InChI=1S/C19H21NS/c1-20(2)13-7-11-17-16-9-4-3-8-15(16)14-21-19-12-6-5-10-18(17)19/h3-6,8-12H,7,13-14H2,1-2H3
Instrument: LTQ Orbitrap XL Thermo Fisher Scientific
Instrument type: LC-ESI-ITFT
Ms type: MS2
Ion mode: POSITIVE
Ionization: ESI
Fragmentation mode: HCD
Collision energy: 65% (nominal)
Resolution: 7500
Column name: Hypersil GOLD C18 1.9 um 100 x 2.1 mm Thermo Fisher Scientific
Precursor m/z: 296.1468
Precursor type: [M+H]+
m/z	relative intensity
57.1461	2
57.159	3
58.065	56
70.0649	2
84.0807	19
91.0541	162
103.0546	4
115.0542	47
117.0699	470
123.0263	228
128.0619	2
129.0698	59
135.0262	32
137.0421	2
141.0699	50
142.0777	42
147.0264	205
159.0264	5
165.0699	93
173.042	64
178.0778	134
179.0856	63
181.1021	3
189.0694	3
190.0776	7
191.0857	130
192.0935	182
197.0418	8
202.0777	88
203.0858	447
204.0935	40
205.1012	19
208.0341	10
209.0422	206
210.05	189
211.0577	14
215.0857	16
216.0938	15
217.1014	377
218.1093	961
221.0423	296
222.0501	311
223.0579	999
224.0665	2
225.0734	221
234.0501	25
235.058	76
236.0657	174
249.0734	26
251.0893	48
296.1468	6
