Mass spectrum: Imidacloprid-olefin (TENTATIVE); LC-ESI-QFT; MS2; CE: 30%; R=70000; [M+H]+
Name: Imidacloprid-olefin
Name: 2-chloro-5-{[2-(nitroamino)-1H-imidazol-1-yl]methyl}pyridine
Formula: C9H8ClN5O2
Exact mass: 253.0357
SMILES: C1=CC(=NC=C1CN2C=CN=C2N[N+](=O)[O-])Cl
InChI: InChI=1S/C9H8ClN5O2/c10-8-2-1-7(5-12-8)6-14-4-3-11-9(14)13-15(16)17/h1-5H,6H2,(H,11,13)
Instrument: Q Exactive Plus Orbitrap Thermo Scientific
Instrument type: LC-ESI-QFT
Ms type: MS2
Ion mode: POSITIVE
Ionization: ESI
Fragmentation mode: HCD
Collision energy: 30% (nominal)
Resolution: 70000
Column name: Waters UPLC BEH C18 1.7 um 2.1 mm x 100 mm with pre-column
Retention time: 7.92 min
Precursor m/z: 254.0435
Precursor type: [M+H]+
m/z	relative intensity
114.0105	42
117.07	39
126.0106	520
127.0182	58
130.0055	53
144.0558	128
148.0506	53
152.0134	101
163.0753	79
167.0005	79
171.0666	999
172.0742	52
173.0825	165
178.0159	35
180.0321	177
185.0119	42
187.0615	48
192.0326	64
205.0277	785
207.0433	553
