Mass spectrum: Ethambutol; LC-ESI-ITFT; MS2; CE: 50%; R=7500; [M+H]+
Name: Ethambutol
Name: (2S,2'S)-2,2'-(Ethane-1,2-diyldiazanediyl)di(butan-1-ol)
Formula: C10H24N2O2
Exact mass: 204.1838
SMILES: CC[C@@H](CO)NCCN[C@@H](CC)CO
InChI: InChI=1S/C10H24N2O2/c1-3-9(7-13)11-5-6-12-10(4-2)8-14/h9-14H,3-8H2,1-2H3/t9-,10-/m0/s1
Instrument: LTQ Orbitrap XL Thermo Fisher Scientific
Instrument type: LC-ESI-ITFT
Ms type: MS2
Ion mode: POSITIVE
Ionization: ESI
Fragmentation mode: HCD
Collision energy: 50% (nominal)
Resolution: 7500
Column name: Hypersil GOLD C18 1.9 um 100 x 2.1 mm Thermo Fisher Scientific
Precursor m/z: 205.1911
Precursor type: [M+H]+
m/z	relative intensity
55.054	1
62.0599	1
72.0806	1
90.0913	3
98.0963	6
116.107	999
205.1911	31
