Mass spectrum: Etilefrine; LC-ESI-ITFT; MS2; CE: 100%; R=15000; [M+H]+
Name: Etilefrine
Name: 3-[2-(ethylamino)-1-hydroxyethyl]phenol
Formula: C10H15NO2
Exact mass: 181.1103
SMILES: CCNCC(C1=CC(=CC=C1)O)O
InChI: InChI=1S/C10H15NO2/c1-2-11-7-10(13)8-4-3-5-9(12)6-8/h3-6,10-13H,2,7H2,1H3
Instrument: LTQ Orbitrap XL Thermo Scientific
Instrument type: LC-ESI-ITFT
Ms type: MS2
Ion mode: POSITIVE
Ionization: ESI
Fragmentation mode: HCD
Collision energy: 100% (nominal)
Resolution: 15000
Column name: Kinetex Evo C18 2.6 um 50 x 2.1 mm
Retention time: 0.619 min
Base peak: 182.1175
Precursor m/z: 182.1176
Precursor type: [M+H]+
m/z	relative intensity	assigned
65.0385	16	C5H5+
77.0386	21	C6H5+
79.0542	24	C6H7+
81.0698	43	C6H9+
90.0465	5	C7H6+
91.0542	999	C7H7+
93.0573	7	C6H7N+
93.0699	19	C7H9+
94.0413	28	C6H6O+
95.0492	12	C6H7O+
103.0543	31	C8H7+
104.0495	25	C7H6N+
105.0446	16	C6H5N2+
106.0652	27	C7H8N+
107.0492	106	C7H7O+
107.0729	10	C7H9N+
108.057	29	C7H8O+
109.0648	99	C7H9O+
117.0573	27	C8H7N+
118.0414	12	C8H6O+
118.0651	81	C8H8N+
119.0492	67	C8H7O+
119.0604	6	C7H7N2+
120.0444	37	C7H6NO+
121.0648	21	C8H9O+
134.0601	179	C8H8NO+
135.0678	205	C8H9NO+
136.0757	30	C8H10NO+
164.1069	24	C10H14NO+
