Mass spectrum: Tetracycline; LC-ESI-ITFT; MS2; CE: 110%; R=15000; [M+H]+
Name: Tetracycline
Name: 2-[amino(hydroxy)methylidene]-4-(dimethylamino)-6,10,11,12a-tetrahydroxy-6-methyl-4,4a,5,5a-tetrahydrotetracene-1,3,12-trione
Formula: C22H24N2O8
Exact mass: 444.1533
SMILES: [H][C@@]12C[C@@]3([H])C(=C(O)[C@]1(O)C(=O)C(C(N)=O)=C(O)[C@H]2N(C)C)C(=O)C1=C(C=CC=C1O)[C@@]3(C)O
InChI: InChI=1S/C22H24N2O8/c1-21(31)8-5-4-6-11(25)12(8)16(26)13-9(21)7-10-15(24(2)3)17(27)14(20(23)30)19(29)22(10,32)18(13)28/h4-6,9-10,15,25,27-28,31-32H,7H2,1-3H3,(H2,23,30)/t9-,10-,15-,21+,22-/m0/s1
Instrument: LTQ Orbitrap XL Thermo Scientific
Instrument type: LC-ESI-ITFT
Ms type: MS2
Ion mode: POSITIVE
Ionization: ESI
Fragmentation mode: HCD
Collision energy: 110% (nominal)
Resolution: 15000
Column name: Kinetex Evo C18 2.6 um 50 x 2.1 mm
Retention time: 2.761 min
Base peak: 300.1474
Precursor m/z: 445.1605
Precursor type: [M+H]+
m/z	relative intensity	assigned
70.065	183	C4H8N+
71.0364	43	C3H5NO+
86.0601	42	C4H8NO+
98.06	405	C5H8NO+
115.0543	74	C9H7+
131.049	38	C9H7O+
140.0618	143	C11H8+
141.0698	74	C11H9+
152.0619	572	C12H8+
153.0694	55	C12H9+
157.0649	41	C11H9O+
164.0618	78	C13H8+
165.0698	268	C13H9+
166.078	61	C13H10+
167.0853	107	C13H11+
168.0569	882	C12H8O+
169.0647	92	C12H9O+
170.0724	47	C12H10O+
176.0621	182	C14H8+
177.07	93	C14H9+
178.0776	136	C14H10+
179.085	42	C14H11+
180.0571	396	C13H8O+
181.0649	138	C13H9O+
189.0701	134	C15H9+
192.0571	81	C14H8O+
193.0653	41	C14H9O+
194.0721	63	C14H10O+
195.0802	151	C14H11O+
196.0517	402	C13H8O2+
197.0595	201	C13H9O2+
198.0674	187	C13H10O2+
204.057	78	C15H8O+
205.0644	37	C15H9O+
208.0523	107	C14H8O2+
210.0675	45	C14H10O2+
211.0752	54	C14H11O2+
220.0517	74	C15H8O2+
223.0753	52	C15H11O2+
224.0466	162	C14H8O3+
226.0624	999	C14H10O3+
252.0421	74	C15H8O4+
