Mass spectrum: Sulfamethoxazole; LC-ESI-ITFT; MS2; CE: 65%; R=15000; [M+H]+
Name: Sulfamethoxazole
Name: 4-amino-N-(5-methyl-1,2-oxazol-3-yl)benzenesulfonamide
Formula: C10H11N3O3S
Exact mass: 253.0521
SMILES: CC1=CC(=NO1)NS(=O)(=O)C2=CC=C(C=C2)N
InChI: InChI=1S/C10H11N3O3S/c1-7-6-10(12-16-7)13-17(14,15)9-4-2-8(11)3-5-9/h2-6H,11H2,1H3,(H,12,13)
Instrument: LTQ Orbitrap XL Thermo Scientific
Instrument type: LC-ESI-ITFT
Ms type: MS2
Ion mode: POSITIVE
Ionization: ESI
Fragmentation mode: CID
Collision energy: 65% (nominal)
Resolution: 15000
Column name: Kinetex Evo C18 2.6 um 50 x 2.1 mm
Retention time: 5.620 min
Base peak: 189.1022
Precursor m/z: 254.0594
Precursor type: [M+H]+
m/z	relative intensity	assigned
65.0384	7	C5H5+
80.0495	4	C5H6N+
92.0496	111	C6H6N+
93.0574	25	C6H7N+
94.0653	28	C6H8N+
99.0554	19	C4H7N2O+
107.0606	28	C6H7N2+
108.0446	244	C6H6NO+
121.0763	5	C7H9N2+
131.0605	9	C8H7N2+
132.0682	3	C8H8N2+
133.0639	3	C7H7N3+
145.0766	5	C9H9N2+
146.0716	157	C8H8N3+
147.0793	601	C8H9N3+
148.0871	143	C8H10N3+
156.0116	999	C6H6NO2S+
160.0871	433	C9H10N3+
161.0017	9	C4H5N2O3S+
161.071	12	C9H9N2O+
161.0947	2	C9H11N3+
163.0866	6	C9H11N2O+
172.0871	16	C10H10N3+
173.0585	2	C9H7N3O+
176.0279	34	C8H6N3S+
177.0121	5	C8H5N2OS+
188.0822	905	C10H10N3O+
190.0976	305	C10H12N3O+
193.031	3	C8H7N3OS+
194.0384	373	C8H8N3OS+
236.0493	19	C10H10N3O2S+
254.0597	11	C10H12N3O3S+
