Mass spectrum: Nylidrin; LC-ESI-QFT; MS2; CE: CE75; R=17500; [M+H]+
Name: Nylidrin
Name: 4-[1-hydroxy-2-(4-phenylbutan-2-ylamino)propyl]phenol
Formula: C19H25NO2
Exact mass: 299.1885
SMILES: CC(CCC1=CC=CC=C1)NC(C)C(O)C1=CC=C(O)C=C1
InChI: InChI=1S/C19H25NO2/c1-14(8-9-16-6-4-3-5-7-16)20-15(2)19(22)17-10-12-18(21)13-11-17/h3-7,10-15,19-22H,8-9H2,1-2H3
Instrument: Q Exactive Thermo Fisher Scientific
Instrument type: LC-ESI-QFT
Ms type: MS2
Ion mode: POSITIVE
Ionization: ESI
Fragmentation mode: HCD
Collision energy: CE75
Resolution: 17500
Column name: Acquity UPLC BEH C18 1.7 um, 2.1 x 150 mm, Waters
Retention time: 17.136 min
Base peak: 223.0629
Precursor m/z: 300.1958
Precursor type: [M+H]+
m/z	relative intensity	assigned
50.0155	15	C4H2+
51.0234	30	C4H3+
53.0026	11	C3HO+
53.0388	28	C4H5+
53.9981	1	C2NO+
55.0181	18	C3H3O+
55.0545	1	C4H7+
56.0497	13	C3H6N+
57.0337	1	C3H5O+
62.0151	4	C5H2+
63.0233	24	C5H3+
65.0386	498	C5H5+
66.0469	7	C5H6+
67.0547	2	C5H7+
74.0967	1	C4H12N+
77.0385	28	C6H5+
78.0464	2	C6H6+
79.0542	199	C6H7+
80.0497	1	C5H6N+
81.0336	6	C5H5O+
81.0696	3	C6H9+
83.0488	2	C5H7O+
89.0384	21	C7H5+
90.0465	4	C7H6+
91.0542	999	C7H7+
92.0498	3	C6H6N+
94.041	35	C6H6O+
95.0491	212	C6H7O+
102.0456	2	C8H6+
103.0543	119	C8H7+
104.0621	3	C8H8+
105.0693	75	C8H9+
106.0653	9	C7H8N+
107.0492	103	C7H7O+
108.0566	5	C7H8O+
110.0606	2	C6H8NO+
115.0538	47	C9H7+
117.0569	5	C8H7N+
118.041	5	C8H6O+
118.0653	3	C8H8N+
120.0442	21	C7H6NO+
131.0497	13	C9H7O+
132.0572	3	C9H8O+
134.0605	22	C8H8NO+
135.0675	8	C8H9NO+
170.0356	5	C11H6O2+
171.0306	5	C10H5NO2+
172.03	1	C14H4+
228.0222	1	C16H4O2+
230.0014	1	C18N+
230.0212	2	C15H4NO2+
