Mass spectrum: Aspergillimide; LC-ESI-ITFT; MS2; CE: 60%; R=7500; [M+H]+
Name: Aspergillimide
Name: 1`,6,10,10,13-pentamethylspiro[3,13-diazatetracyclo[5.5.2.01,9.03,7]tetradecane-11,3`-pyrrolidine]-2`,5`,14-trione
Formula: C20H29N3O3
Exact mass: 359.2209
SMILES: CC1CCN2C13CC4C(C5(CC(=O)N(C5=O)C)CC4(C2)N(C3=O)C)(C)C
InChI: InChI=1S/C20H29N3O3/c1-12-6-7-23-11-19-10-18(9-14(24)21(4)15(18)25)17(2,3)13(19)8-20(12,23)16(26)22(19)5/h12-13H,6-11H2,1-5H3
Instrument: LTQ Orbitrap XL Thermo Scientific
Instrument type: LC-ESI-ITFT
Ms type: MS2
Ion mode: POSITIVE
Ionization: ESI
Fragmentation mode: HCD
Collision energy: 60 % (nominal)
Resolution: 7500
Column name: Hypersil GOLD C18 1.9 um 100 x 2.1 mm Thermo Fisher Scientific
Retention time: 9.284 min
Base peak: 360.2275
Precursor m/z: 360.2282
Precursor type: [M+H]+
Precursor intensity: 60398801.55859
m/z	relative intensity	assigned
97.0648	2	C6H9O+
148.1118	11	C10H14N+
235.1437	26	C13H19N2O2+
245.1281	27	C14H17N2O2+
269.2124	1	C16H29O3+
275.1385	14	C15H19N2O3+
299.1749	8	C18H23N2O2+
301.1908	37	C18H25N2O2+
331.2009	19	C19H27N2O3+
360.2275	999	C20H30N3O3+
