Mass spectrum: Phenazone; ESI-QTOF; MS2; CE: 20eV; R=15000; [M+H]+
Name: Phenazone
Name: 1,5-Dimethyl-2-phenyl-1,2-dihydro-3H-pyrazol-3-one
Formula: C11H12N2O
Exact mass: 188.095
SMILES: CN1N(C(=O)C=C1C)C1=CC=CC=C1
InChI: InChI=1S/C11H12N2O/c1-9-8-11(14)13(12(9)2)10-6-4-3-5-7-10/h3-8H,1-2H3
Instrument: TripleTOF 5600+SCIEX
Instrument type: ESI-QTOF
Ms type: MS2
Ion mode: POSITIVE
Ionization: ESI
Fragmentation mode: CID
Collision energy: 20 eV
Resolution: 15000
Precursor m/z: 189.1023
Precursor type: [M+H]+
m/z	relative intensity
56.0516	2
58.0671	2
77.0393	1
91.0543	1
96.0681	1
104.0492	4
106.0648	2
115.0535	1
117.0688	1
118.0644	3
120.08	3
130.0642	5
131.0717	7
132.0796	3
133.075	1
134.0953	1
144.0796	6
145.065	2
146.0831	6
147.0905	10
148.0742	1
149.0697	1
161.106	8
174.0773	5
189.1023	999
