Mass spectrum: Metoclopramide; LC-ESI-ITFT; MS2; CE: 185%; R=15000; [M+H]+
Name: Metoclopramide
Name: 4-amino-5-chloro-N-[2-(diethylamino)ethyl]-2-methoxybenzamide
Formula: C14H22ClN3O2
Exact mass: 299.1401
SMILES: CCN(CC)CCNC(=O)C1=CC(=C(C=C1OC)N)Cl
InChI: InChI=1S/C14H22ClN3O2/c1-4-18(5-2)7-6-17-14(19)10-8-11(15)12(16)9-13(10)20-3/h8-9H,4-7,16H2,1-3H3,(H,17,19)
Instrument: LTQ Orbitrap XL Thermo Scientific
Instrument type: LC-ESI-ITFT
Ms type: MS2
Ion mode: POSITIVE
Ionization: ESI
Fragmentation mode: HCD
Collision energy: 185% (nominal)
Resolution: 15000
Column name: Kinetex Evo C18 2.6 um 50 x 2.1 mm
Retention time: 2.760 min
Base peak: 300.1475
Precursor m/z: 300.1473
Precursor type: [M+H]+
m/z	relative intensity	assigned
63.0227	67	C5H3+
64.0179	24	C4H2N+
65.0383	10	C5H5+
72.9838	47	C3H2Cl+
78.0337	999	C5H4N+
90.0339	32	C6H4N+
91.0413	9	C6H5N+
93.0572	16	C6H7N+
98.9995	16	C5H4Cl+
105.0446	26	C6H5N2+
113.0026	220	C5H4ClN+
114.0109	9	C5H5ClN+
140.014	8	C6H5ClN2+
140.9977	23	C6H4ClNO+
