Mass spectrum: Dosulepin; LC-ESI-ITFT; MS2; CE: 70%; R=15000; [M+H]+
Name: Dosulepin
Name: Dothiepin
Name: 3-(6H-benzo[c][1]benzothiepin-11-ylidene)-N,N-dimethylpropan-1-amine
Formula: C19H21NS
Exact mass: 295.1395
SMILES: CN(C)CCC=C1C2=CC=CC=C2CSC3=CC=CC=C31
InChI: InChI=1S/C19H21NS/c1-20(2)13-7-11-17-16-9-4-3-8-15(16)14-21-19-12-6-5-10-18(17)19/h3-6,8-12H,7,13-14H2,1-2H3
Instrument: LTQ Orbitrap XL Thermo Scientific
Instrument type: LC-ESI-ITFT
Ms type: MS2
Ion mode: POSITIVE
Ionization: ESI
Fragmentation mode: CID
Collision energy: 70% (nominal)
Resolution: 15000
Column name: Kinetex Evo C18 2.6 um 50 x 2.1 mm
Retention time: 8.168 min
Base peak: 296.1465
Precursor m/z: 296.1467
Precursor type: [M+H]+
m/z	relative intensity	assigned
91.0542	12	C7H7+
117.0698	11	C9H9+
123.0263	7	C7H7S+
137.0418	1	C8H9S+
141.0699	4	C11H9+
142.0774	3	C11H10+
147.0263	170	C9H7S+
173.0419	11	C11H9S+
186.1277	2	C13H16N+
191.0855	22	C15H11+
192.0936	3	C15H12+
203.0863	1	C16H11+
209.042	47	C14H9S+
210.0499	1	C14H10S+
211.0575	3	C14H11S+
217.1012	29	C17H13+
218.1091	85	C17H14+
221.042	4	C15H9S+
222.0498	28	C15H10S+
223.0577	216	C15H11S+
225.0731	999	C15H13S+
236.0654	21	C16H12S+
249.0736	1	C17H13S+
251.0889	437	C17H15S+
253.1044	50	C17H17S+
265.1044	8	C18H17S+
