Mass spectrum: Epiequisetin; LC-ESI-ITFT; MS2; CE: 15%; R=7500; [M+H]+
Name: Epiequisetin
Name: 3-[(1,6-dimethyl-2-prop-1-enyl-4a,5,6,7,8,8a-hexahydro-2H-naphthalen-1-yl)-hydroxymethylidene]-5-(hydroxymethyl)-1-methylpyrrolidine-2,4-dione
Formula: C22H31NO4
Exact mass: 373.2253
SMILES: CC=CC1C=CC2CC(CCC2C1(C)C(=C3C(=O)C(N(C3=O)C)CO)O)C
InChI: InChI=1S/C22H31NO4/c1-5-6-15-9-8-14-11-13(2)7-10-16(14)22(15,3)20(26)18-19(25)17(12-24)23(4)21(18)27/h5-6,8-9,13-17,24,26H,7,10-12H2,1-4H3
Instrument: LTQ Orbitrap XL Thermo Scientific
Instrument type: LC-ESI-ITFT
Ms type: MS2
Ion mode: POSITIVE
Ionization: ESI
Fragmentation mode: HCD
Collision energy: 15 % (nominal)
Resolution: 7500
Column name: Hypersil GOLD C18 1.9 um 100 x 2.1 mm Thermo Fisher Scientific
Retention time: 28.042 min
Base peak: 374.2332
Precursor m/z: 374.2326
Precursor type: [M+H]+
Precursor intensity: 9559347.09082
m/z	relative intensity	assigned
119.0851	2	C9H11+
147.117	3	C11H15+
170.0811	2	C8H12NO3+
175.1483	105	C13H19+
177.1634	3	C13H21+
200.0918	24	C9H14NO4+
205.1948	3	C15H25+
346.2376	22	C21H32NO3+
356.2223	119	C22H30NO3+
374.2328	999	C22H32NO4+
