Mass spectrum: Chlorotoluron-diOH (TENTATIVE); LC-ESI-QFT; MS2; CE: 42%; R=70000; [M-H]-
Name: Chlorotoluron-diOH
Formula: C10H13ClN2O3
Exact mass: 244.0615
SMILES: C(*)C1=C(c(*)=C(C(*)=C(*)1)NC(=O)N(C(*))C(*))Cl * = [OH (n=2) & H (n=4)]
Instrument: Q Exactive Plus Orbitrap Thermo Scientific
Instrument type: LC-ESI-QFT
Ms type: MS2
Ion mode: NEGATIVE
Ionization: ESI
Fragmentation mode: HCD
Collision energy: 42% (nominal) with stepped collision energies 30% and 55%
Resolution: 70000
Column name: Phenomenex Synergi Polar-RP 2.5 um 100 mm x 3 mm with pre-column
Retention time: 9.83 min
Precursor m/z: 243.0544
Precursor type: [M-H]-
m/z	relative intensity
93.0346	494
140.0275	999
141.0305	61
197.0494	216
