Mass spectrum: Isoproturon-OH (TENTATIVE); LC-ESI-QFT; MS2; CE: 30%; R=70000; [M+H]+
Name: Isoproturon-OH
Formula: C12H18N2O2
Exact mass: 222.136
SMILES: C(*)C(C)C1=C(*)C(*)=C(C=C1)NC(=O)N(C)C(*) *=[OH (n=1) & H (n=3)] 
Instrument: Q Exactive Plus Orbitrap Thermo Scientific
Instrument type: LC-ESI-QFT
Ms type: MS2
Ion mode: POSITIVE
Ionization: ESI
Fragmentation mode: HCD
Collision energy: 30% (nominal)
Resolution: 70000
Column name: Waters UPLC BEH C18 1.7 um 2.1 mm x 100 mm with pre-column
Retention time: 9.4 min
Precursor m/z: 223.1438
Precursor type: [M+H]+
m/z	relative intensity
59.0494	759
72.0444	999
73.0648	60
91.0542	12
92.0495	5
93.0572	9
93.0699	9
94.065	12
95.0492	6
105.0701	10
106.0652	35
108.0807	41
117.0698	13
120.0444	17
131.0485	5
132.0445	30
134.0964	48
135.0802	6
160.0758	42
165.1022	8
