Mass spectrum: Dibucaine; LC-ESI-ITFT; MS2; CE: 45%; R=15000; [M+H]+
Name: Dibucaine
Name: 2-butoxy-N-[2-(diethylamino)ethyl]quinoline-4-carboxamide
Formula: C20H29N3O2
Exact mass: 343.2260
SMILES: CCCCOC1=NC2=CC=CC=C2C(=C1)C(=O)NCCN(CC)CC
InChI: InChI=1S/C20H29N3O2/c1-4-7-14-25-19-15-17(16-10-8-9-11-18(16)22-19)20(24)21-12-13-23(5-2)6-3/h8-11,15H,4-7,12-14H2,1-3H3,(H,21,24)
Instrument: LTQ Orbitrap XL Thermo Scientific
Instrument type: LC-ESI-ITFT
Ms type: MS2
Ion mode: POSITIVE
Ionization: ESI
Fragmentation mode: HCD
Collision energy: 45% (nominal)
Resolution: 15000
Column name: Kinetex Evo C18 2.6 um 50 x 2.1 mm
Retention time: 8.769 min
Base peak: 344.233
Precursor m/z: 344.2333
Precursor type: [M+H]+
m/z	relative intensity	assigned
74.0963	44	C4H12N+
86.0962	1	C5H12N+
100.112	59	C6H14N+
116.0494	3	C8H6N+
144.0444	8	C9H6NO+
158.0596	1	C10H8NO+
171.0553	3	C10H7N2O+
172.0393	24	C10H6NO2+
187.0864	1	C11H11N2O+
200.1066	1	C13H14NO+
202.1232	2	C13H16NO+
215.0815	299	C12H11N2O2+
227.1178	10	C14H15N2O+
228.1018	41	C14H14NO2+
243.1487	1	C15H19N2O+
253.1339	2	C16H17N2O+
271.1441	999	C16H19N2O2+
344.2332	11	C20H30N3O2+
