Mass spectrum: Dosulepin; LC-ESI-ITFT; MS2; CE: 80%; R=15000; [M+H]+
Name: Dosulepin
Name: Dothiepin
Name: 3-(6H-benzo[c][1]benzothiepin-11-ylidene)-N,N-dimethylpropan-1-amine
Formula: C19H21NS
Exact mass: 295.1395
SMILES: CN(C)CCC=C1C2=CC=CC=C2CSC3=CC=CC=C31
InChI: InChI=1S/C19H21NS/c1-20(2)13-7-11-17-16-9-4-3-8-15(16)14-21-19-12-6-5-10-18(17)19/h3-6,8-12H,7,13-14H2,1-2H3
Instrument: LTQ Orbitrap XL Thermo Scientific
Instrument type: LC-ESI-ITFT
Ms type: MS2
Ion mode: POSITIVE
Ionization: ESI
Fragmentation mode: CID
Collision energy: 80% (nominal)
Resolution: 15000
Column name: Kinetex Evo C18 2.6 um 50 x 2.1 mm
Retention time: 8.162 min
Base peak: 296.1467
Precursor m/z: 296.1467
Precursor type: [M+H]+
m/z	relative intensity	assigned
91.0542	14	C7H7+
115.0543	1	C9H7+
117.0699	15	C9H9+
123.0262	7	C7H7S+
141.07	4	C11H9+
142.0777	3	C11H10+
147.0263	187	C9H7S+
173.042	12	C11H9S+
178.0782	1	C14H10+
179.0858	1	C14H11+
191.0856	25	C15H11+
192.0934	2	C15H12+
205.1009	1	C16H13+
209.042	53	C14H9S+
210.05	1	C14H10S+
211.0577	3	C14H11S+
217.1013	32	C17H13+
218.1091	100	C17H14+
221.0415	3	C15H9S+
222.05	32	C15H10S+
223.0577	235	C15H11S+
225.0732	999	C15H13S+
236.0653	25	C16H12S+
249.0733	2	C17H13S+
251.0889	462	C17H15S+
253.1044	52	C17H17S+
265.1046	5	C18H17S+
