Mass spectrum: Funalenone; LC-ESI-ITFT; MS2; CE: 40%; R=7500; [M-H]-
Name: Funalenone
Formula: C15H12O6
Exact mass: 288.06339
SMILES: O=C1C(OC)=C(O)C2=C(O)C=C(C)C3=C2C1=C(O)C=C3O
InChI: InChI=1S/C15H12O6/c1-5-3-6(16)10-12-9(5)7(17)4-8(18)11(12)14(20)15(21-2)13(10)19/h3-4,16-19H,1-2H3
Instrument: LTQ Orbitrap XL Thermo Scientific
Instrument type: LC-ESI-ITFT
Ms type: MS2
Ion mode: NEGATIVE
Ionization: ESI
Fragmentation mode: HCD
Collision energy: 40 % (nominal)
Resolution: 7500
Column name: Hypersil GOLD C18 1.9 um 100 x 2.1 mm Thermo Fisher Scientific
Retention time: 17.699 min
Base peak: 573.1046
Precursor m/z: 287.0561
Precursor type: [M-H]-
Precursor intensity: 326984.2226563
m/z	relative intensity	assigned
272.0328	70	C14H8O6-
287.0559	999	C15H11O6-
