Mass spectrum: Sulthiame; LC-ESI-ITFT; MS2; CE: 55%; R=15000; [M+H]+
Name: Sulthiame
Name: 4-(1,1-dioxothiazinan-2-yl)benzenesulfonamide
Formula: C10H14N2O4S2
Exact mass: 290.0395
SMILES: C1CCS(=O)(=O)N(C1)C2=CC=C(C=C2)S(=O)(=O)N
InChI: InChI=1S/C10H14N2O4S2/c11-18(15,16)10-5-3-9(4-6-10)12-7-1-2-8-17(12,13)14/h3-6H,1-2,7-8H2,(H2,11,15,16)
Instrument: LTQ Orbitrap XL Thermo Scientific
Instrument type: LC-ESI-ITFT
Ms type: MS2
Ion mode: POSITIVE
Ionization: ESI
Fragmentation mode: HCD
Collision energy: 55% (nominal)
Resolution: 15000
Column name: Kinetex Evo C18 2.6 um 50 x 2.1 mm
Retention time: 4.337 min
Base peak: 313.0287
Precursor m/z: 291.0468
Precursor type: [M+H]+
m/z	relative intensity	assigned
55.054	23	C4H7+
92.0494	9	C6H6N+
105.0573	28	C7H7N+
106.0651	13	C7H8N+
108.0443	9	C6H6NO+
117.0572	3	C8H7N+
118.065	28	C8H8N+
119.0727	7	C8H9N+
122.0601	10	C7H8NO+
132.0807	48	C9H10N+
146.0966	6	C10H12N+
147.1041	57	C10H13N+
156.0114	18	C6H6NO2S+
185.0379	999	C7H9N2O2S+
198.0458	10	C8H10N2O2S+
199.0537	9	C8H11N2O2S+
227.0848	117	C10H15N2O2S+
