Mass spectrum: Ascladiol Z; LC-ESI-ITFT; MS2; CE: 30%; R=7500; [M-H]-
Name: Ascladiol Z
Name: 5-(2-hydroxyethylidene)-4-(hydroxymethyl)furan-2-one
Formula: C7H8O4
Exact mass: 156.0423
SMILES: C1=C(C(=CCO)OC1=O)CO
InChI: InChI=1S/C7H8O4/c8-2-1-6-5(4-9)3-7(10)11-6/h1,3,8-9H,2,4H2
Instrument: LTQ Orbitrap XL Thermo Scientific
Instrument type: LC-ESI-ITFT
Ms type: MS2
Ion mode: NEGATIVE
Ionization: ESI
Fragmentation mode: HCD
Collision energy: 30 % (nominal)
Resolution: 7500
Column name: Hypersil GOLD C18 1.9 um 100 x 2.1 mm Thermo Fisher Scientific
Retention time: 2.527 min
Base peak: 155.0349
Precursor m/z: 155.035
Precursor type: [M-H]-
Precursor intensity: 806973.2226563
m/z	relative intensity	assigned
81.0347	431	C5H5O-
83.0503	886	C5H7O-
93.0349	230	C6H5O-
109.0294	189	C6H5O2-
111.0453	999	C6H7O2-
125.0246	310	C6H5O3-
137.0244	414	C7H5O3-
155.0344	162	C7H7O4-
