Mass spectrum: Nylidrin; LC-ESI-QFT; MS2; CE: CE60; R=17500; [M+H]+
Name: Nylidrin
Name: 4-[1-hydroxy-2-(4-phenylbutan-2-ylamino)propyl]phenol
Formula: C19H25NO2
Exact mass: 299.1885
SMILES: CC(CCC1=CC=CC=C1)NC(C)C(O)C1=CC=C(O)C=C1
InChI: InChI=1S/C19H25NO2/c1-14(8-9-16-6-4-3-5-7-16)20-15(2)19(22)17-10-12-18(21)13-11-17/h3-7,10-15,19-22H,8-9H2,1-2H3
Instrument: Q Exactive Thermo Fisher Scientific
Instrument type: LC-ESI-QFT
Ms type: MS2
Ion mode: POSITIVE
Ionization: ESI
Fragmentation mode: HCD
Collision energy: CE60
Resolution: 17500
Column name: Acquity UPLC BEH C18 1.7 um, 2.1 x 150 mm, Waters
Retention time: 17.136 min
Base peak: 223.0629
Precursor m/z: 300.1958
Precursor type: [M+H]+
m/z	relative intensity	assigned
50.0156	3	C4H2+
51.0234	8	C4H3+
53.0025	3	C3HO+
53.0389	16	C4H5+
55.0181	16	C3H3O+
55.0549	1	C4H7+
56.0498	21	C3H6N+
57.0338	2	C3H5O+
63.0228	5	C5H3+
65.0387	161	C5H5+
66.0468	2	C5H6+
75.0442	1	C3H7O2+
77.0387	8	C6H5+
79.0543	182	C6H7+
81.0336	2	C5H5O+
81.0696	7	C6H9+
89.0386	2	C7H5+
91.0543	999	C7H7+
92.0615	3	C7H8+
94.0412	19	C6H6O+
95.0492	104	C6H7O+
103.0544	117	C8H7+
105.0693	254	C8H9+
107.0493	74	C7H7O+
108.0566	1	C7H8O+
108.08	1	C7H10N+
109.0652	7	C7H9O+
115.0538	40	C9H7+
117.0569	5	C8H7N+
118.041	2	C8H6O+
118.0653	2	C8H8N+
120.0441	10	C7H6NO+
131.0496	15	C9H7O+
132.0572	5	C9H8O+
133.0647	19	C9H9O+
134.0603	16	C8H8NO+
135.0675	25	C8H9NO+
170.0356	1	C11H6O2+
171.0327	2	C10H5NO2+
224.0285	1	C17H4O+
225.0243	2	C16H3NO+
228.0222	8	C16H4O2+
229.0185	7	C15H3NO2+
230.0014	5	C18N+
230.0221	9	C15H4NO2+
