Mass spectrum: Dixyrazine; LC-ESI-ITFT; MS2; CE: 40%; R=15000; [M+H]+
Name: Dixyrazine
Name: 2-[2-[4-(2-methyl-3-phenothiazin-10-ylpropyl)piperazin-1-yl]ethoxy]ethanol
Formula: C24H33N3O2S
Exact mass: 427.2293
SMILES: CC(CN1CCN(CC1)CCOCCO)CN2C3=CC=CC=C3SC4=CC=CC=C42
InChI: InChI=1S/C24H33N3O2S/c1-20(18-26-12-10-25(11-13-26)14-16-29-17-15-28)19-27-21-6-2-4-8-23(21)30-24-9-5-3-7-22(24)27/h2-9,20,28H,10-19H2,1H3
Instrument: LTQ Orbitrap XL Thermo Scientific
Instrument type: LC-ESI-ITFT
Ms type: MS2
Ion mode: POSITIVE
Ionization: ESI
Fragmentation mode: HCD
Collision energy: 40% (nominal)
Resolution: 15000
Column name: Kinetex Evo C18 2.6 um 50 x 2.1 mm
Retention time: 8.968 min
Base peak: 428.2362
Precursor m/z: 428.2366
Precursor type: [M+H]+
m/z	relative intensity	assigned
58.0651	1	C3H8N+
70.065	11	C4H8N+
82.0651	2	C5H8N+
87.044	17	C4H7O2+
97.076	17	C5H9N2+
98.0838	83	C5H10N2+
98.0964	14	C6H12N+
99.0916	10	C5H11N2+
100.112	3	C6H14N+
101.1073	178	C5H13N2+
112.112	6	C7H14N+
118.0861	5	C5H12NO2+
125.1073	44	C7H13N2+
127.1225	2	C7H15N2+
132.1017	3	C6H14NO2+
140.1307	15	C8H16N2+
144.1018	15	C7H14NO2+
155.1542	10	C9H19N2+
172.1206	32	C8H16N2O2+
180.0809	7	C13H10N+
187.144	689	C9H19N2O2+
198.0371	1	C12H8NS+
199.045	5	C12H9NS+
212.0527	204	C13H10NS+
221.1199	6	C16H15N+
229.191	999	C12H25N2O2+
254.0997	41	C16H16NS+
366.2021	1	C24H30OS+
428.2365	67	C24H34N3O2S+
