Mass spectrum: Violaceol II; LC-ESI-ITFT; MS2; CE: 15%; R=7500; [M+H]+
Name: Violaceol II
Name: 2-(2,3-dihydroxy-5-methylphenoxy)-5-methylbenzene-1,3-diol
Formula: C14H14O5
Exact mass: 262.0841
SMILES: CC1=CC(=C(C(=C1)O)OC2=CC(=CC(=C2O)O)C)O
InChI: InChI=1S/C14H14O5/c1-7-4-10(16)14(11(17)5-7)19-12-6-8(2)3-9(15)13(12)18/h3-6,15-18H,1-2H3
Instrument: LTQ Orbitrap XL Thermo Scientific
Instrument type: LC-ESI-ITFT
Ms type: MS2
Ion mode: POSITIVE
Ionization: ESI
Fragmentation mode: HCD
Collision energy: 15 % (nominal)
Resolution: 7500
Column name: Hypersil GOLD C18 1.9 um 100 x 2.1 mm Thermo Fisher Scientific
Retention time: 14.458 min
Base peak: 263.0911
Precursor m/z: 263.0914
Precursor type: [M+H]+
Precursor intensity: 4436886.785156
m/z	relative intensity	assigned
125.0595	90	C7H9O2+
139.0388	162	C7H7O3+
141.0545	21	C7H9O3+
263.091	999	C14H15O5+
