Mass spectrum: Dothiepin; LC-ESI-ITFT; MS2; CE: 35%; R=7500; [M+H]+
Name: Dothiepin
Name: 3-(Dibenzo[b,e]thiepin-11(6H)-ylidene)-N,N-dimethylpropan-1-amine
Formula: C19H21NS
Exact mass: 295.1395
SMILES: CN(C)CCC=C1C2=CC=CC=C2CSC2=C1C=CC=C2
InChI: InChI=1S/C19H21NS/c1-20(2)13-7-11-17-16-9-4-3-8-15(16)14-21-19-12-6-5-10-18(17)19/h3-6,8-12H,7,13-14H2,1-2H3
Instrument: LTQ Orbitrap XL Thermo Fisher Scientific
Instrument type: LC-ESI-ITFT
Ms type: MS2
Ion mode: POSITIVE
Ionization: ESI
Fragmentation mode: HCD
Collision energy: 35% (nominal)
Resolution: 7500
Column name: Hypersil GOLD C18 1.9 um 100 x 2.1 mm Thermo Fisher Scientific
Precursor m/z: 296.1468
Precursor type: [M+H]+
m/z	relative intensity
57.0629	1
58.065	31
84.0807	3
91.0542	12
117.0699	38
123.0263	18
135.026	2
141.0699	6
142.0777	4
147.0264	34
173.0421	9
178.0776	1
179.0861	1
191.0857	14
192.0935	3
203.0849	1
204.0934	2
205.1012	2
209.0423	33
210.0494	1
211.0583	2
217.1016	25
218.1094	99
222.0503	27
223.0581	102
225.0737	208
236.0657	21
251.0894	283
253.1049	9
296.1468	999
