Mass spectrum: Amiloride; LC-ESI-ITFT; MS2; CE: 100%; R=15000; [M+H]+
Name: Amiloride
Name: 3,5-diamino-6-chloro-N-(diaminomethylidene)pyrazine-2-carboxamide
Formula: C6H8ClN7O
Exact mass: 229.0479
SMILES: C1(=C(N=C(C(=N1)Cl)N)N)C(=O)N=C(N)N
InChI: InChI=1S/C6H8ClN7O/c7-2-4(9)13-3(8)1(12-2)5(15)14-6(10)11/h(H4,8,9,13)(H4,10,11,14,15)
Instrument: LTQ Orbitrap XL Thermo Scientific
Instrument type: LC-ESI-ITFT
Ms type: MS2
Ion mode: POSITIVE
Ionization: ESI
Fragmentation mode: HCD
Collision energy: 100% (nominal)
Resolution: 15000
Column name: Kinetex Evo C18 2.6 um 50 x 2.1 mm
Retention time: 0.936 min
Base peak: 150.1277
Precursor m/z: 230.0552
Precursor type: [M+H]+
m/z	relative intensity	assigned
55.0289	14	C2H3N2+
60.0554	314	CH6N3+
61.979	37	CHClN+
63.9947	141	CH3ClN+
73.9792	20	C2HClN+
80.0241	7	C3H2N3+
86.0349	4	C2H4N3O+
88.9901	133	C2H2ClN2+
100.9901	118	C3H2ClN2+
108.0431	146	C4H4N4+
116.001	999	C3H3ClN3+
143.0119	49	C4H4ClN4+
161.0225	136	C4H6ClN4O+
171.0069	31	C5H4ClN4O+
189.0172	7	C5H6ClN4O2+
