Mass spectrum: Antipyrine; LC-ESI-ITFT; MS2; CE: 125%; R=15000; [M+H]+
Name: Antipyrine
Name: 1,5-dimethyl-2-phenylpyrazol-3-one
Formula: C11H12N2O
Exact mass: 188.0950
SMILES: CC1=CC(=O)N(N1C)C2=CC=CC=C2
InChI: InChI=1S/C11H12N2O/c1-9-8-11(14)13(12(9)2)10-6-4-3-5-7-10/h3-8H,1-2H3
Instrument: LTQ Orbitrap XL Thermo Scientific
Instrument type: LC-ESI-ITFT
Ms type: MS2
Ion mode: POSITIVE
Ionization: ESI
Fragmentation mode: CID
Collision energy: 125% (nominal)
Resolution: 15000
Column name: Kinetex Evo C18 2.6 um 50 x 2.1 mm
Retention time: 5.555 min
Base peak: 189.1023
Precursor m/z: 189.1022
Precursor type: [M+H]+
m/z	relative intensity	assigned
104.0494	45	C7H6N+
117.0698	41	C9H9+
118.0652	257	C8H8N+
120.0807	248	C8H10N+
130.0651	314	C9H8N+
131.0729	987	C9H9N+
132.0808	216	C9H10N+
133.076	150	C8H9N2+
134.0963	50	C9H12N+
144.0808	829	C10H10N+
145.0649	76	C10H9O+
146.0838	647	C9H10N2+
146.0964	454	C10H12N+
147.0917	576	C9H11N2+
148.0758	142	C9H10NO+
158.0597	69	C10H8NO+
161.1073	999	C10H13N2+
172.0757	431	C11H10NO+
174.0788	396	C10H10N2O+
