Mass spectrum: Antipyrine; LC-ESI-ITFT; MS2; CE: 95%; R=15000; [M+H]+
Name: Antipyrine
Name: 1,5-dimethyl-2-phenylpyrazol-3-one
Formula: C11H12N2O
Exact mass: 188.0950
SMILES: CC1=CC(=O)N(N1C)C2=CC=CC=C2
InChI: InChI=1S/C11H12N2O/c1-9-8-11(14)13(12(9)2)10-6-4-3-5-7-10/h3-8H,1-2H3
Instrument: LTQ Orbitrap XL Thermo Scientific
Instrument type: LC-ESI-ITFT
Ms type: MS2
Ion mode: POSITIVE
Ionization: ESI
Fragmentation mode: CID
Collision energy: 95% (nominal)
Resolution: 15000
Column name: Kinetex Evo C18 2.6 um 50 x 2.1 mm
Retention time: 5.578 min
Base peak: 189.1024
Precursor m/z: 189.1022
Precursor type: [M+H]+
m/z	relative intensity	assigned
58.0649	25	C3H8N+
91.0544	31	C7H7+
96.0443	14	C5H6NO+
96.0684	34	C5H8N2+
103.0544	28	C8H7+
104.0495	56	C7H6N+
105.0698	17	C8H9+
111.0554	34	C5H7N2O+
117.0573	33	C8H7N+
117.0699	21	C9H9+
118.0651	218	C8H8N+
120.0808	237	C8H10N+
129.0699	28	C10H9+
130.0651	338	C9H8N+
131.0729	999	C9H9N+
132.0808	236	C9H10N+
133.0523	21	C8H7NO+
133.076	98	C8H9N2+
134.0964	22	C9H12N+
135.0553	48	C7H7N2O+
144.0808	842	C10H10N+
145.0649	79	C10H9O+
145.0887	27	C10H11N+
146.0839	619	C9H10N2+
146.0964	484	C10H12N+
147.0917	591	C9H11N2+
148.0757	135	C9H10NO+
149.0712	24	C8H9N2O+
158.0602	49	C10H8NO+
159.092	13	C10H11N2+
160.0997	18	C10H12N2+
161.1074	865	C10H13N2+
162.0914	39	C10H12NO+
171.0917	22	C11H11N2+
172.0757	385	C11H10NO+
174.0788	335	C10H10N2O+
