Mass spectrum: Antipyrine; LC-ESI-ITFT; MS2; CE: 30%; R=15000; [M+H]+
Name: Antipyrine
Name: 1,5-dimethyl-2-phenylpyrazol-3-one
Formula: C11H12N2O
Exact mass: 188.0950
SMILES: CC1=CC(=O)N(N1C)C2=CC=CC=C2
InChI: InChI=1S/C11H12N2O/c1-9-8-11(14)13(12(9)2)10-6-4-3-5-7-10/h3-8H,1-2H3
Instrument: LTQ Orbitrap XL Thermo Scientific
Instrument type: LC-ESI-ITFT
Ms type: MS2
Ion mode: POSITIVE
Ionization: ESI
Fragmentation mode: CID
Collision energy: 30% (nominal)
Resolution: 15000
Column name: Kinetex Evo C18 2.6 um 50 x 2.1 mm
Retention time: 5.575 min
Base peak: 189.1023
Precursor m/z: 189.1022
Precursor type: [M+H]+
m/z	relative intensity	assigned
104.0495	1	C7H6N+
118.0652	5	C8H8N+
120.0808	6	C8H10N+
130.0652	8	C9H8N+
131.073	27	C9H9N+
132.0808	5	C9H10N+
133.0761	2	C8H9N2+
144.0809	21	C10H10N+
145.065	2	C10H9O+
146.084	17	C9H10N2+
146.0965	13	C10H12N+
147.0917	16	C9H11N2+
148.0758	3	C9H10NO+
161.1074	21	C10H13N2+
172.0759	9	C11H10NO+
174.0789	9	C10H10N2O+
189.1023	999	C11H13N2O+
