Mass spectrum: Eremofortin B; LC-ESI-ITFT; MS2; CE: 30%; R=7500; [M+H]+
Name: Eremofortin B
Name: 2-hydroxy-3,3a-dimethyl-5-prop-1-en-2-yl-1a,2,3,4,5,7b-hexahydronaphtho[1,2-b]oxiren-6-one
Formula: C15H20O3
Exact mass: 248.1412
SMILES: C=C(C)C1CC2(C)C(C)C(O)C3OC3C2=CC1=O
InChI: InChI=1S/C15H20O3/c1-7(2)9-6-15(4)8(3)12(17)14-13(18-14)10(15)5-11(9)16/h5,8-9,12-14,17H,1,6H2,2-4H3
Instrument: LTQ Orbitrap XL Thermo Scientific
Instrument type: LC-ESI-ITFT
Ms type: MS2
Ion mode: POSITIVE
Ionization: ESI
Fragmentation mode: HCD
Collision energy: 30 % (nominal)
Resolution: 7500
Column name: Hypersil GOLD C18 1.9 um 100 x 2.1 mm Thermo Fisher Scientific
Retention time: 15.142 min
Base peak: 249.1491
Precursor m/z: 249.1485
Precursor type: [M+H]+
Precursor intensity: 11345250.25928
m/z	relative intensity	assigned
69.0699	446	C5H9+
71.049	73	C4H7O+
81.0699	176	C6H9+
83.0491	69	C5H7O+
91.0543	226	C7H7+
93.0699	241	C7H9+
95.0493	135	C6H7O+
95.0857	435	C7H11+
97.065	111	C6H9O+
105.0701	503	C8H9+
107.0857	654	C8H11+
109.065	386	C7H9O+
111.0808	73	C7H11O+
119.0857	999	C9H11+
121.0649	423	C8H9O+
121.1014	371	C9H13+
123.0807	429	C8H11O+
123.1171	171	C9H15+
125.0599	72	C7H9O2+
131.0858	312	C10H11+
133.0652	196	C9H9O+
133.1014	900	C10H13+
135.0807	573	C9H11O+
135.1169	170	C10H15+
137.06	114	C8H9O2+
137.0967	142	C9H13O+
139.0753	79	C8H11O2+
143.0858	276	C11H11+
145.1015	406	C11H13+
147.0807	530	C10H11O+
147.1172	210	C11H15+
149.0602	177	C9H9O2+
149.0964	261	C10H13O+
151.0757	122	C9H11O2+
151.112	111	C10H15O+
156.0935	113	C12H12+
157.1013	187	C12H13+
159.0807	175	C11H11O+
159.1173	177	C12H15+
161.0964	959	C11H13O+
161.1328	196	C12H17+
163.0756	176	C10H11O2+
163.1123	321	C11H15O+
165.0915	43	C10H13O2+
170.1094	167	C13H14+
171.081	48	C12H11O+
171.116	46	C13H15+
172.0889	59	C12H12O+
173.0966	144	C12H13O+
173.1329	99	C13H17+
175.0755	47	C11H11O2+
175.112	126	C12H15O+
175.1483	170	C13H19+
177.0902	28	C11H13O2+
177.128	73	C12H17O+
179.107	117	C11H15O2+
181.0867	37	C10H13O3+
185.1327	68	C14H17+
187.111	44	C13H15O+
189.0915	42	C12H13O2+
189.1281	96	C13H17O+
191.107	128	C12H15O2+
191.144	40	C13H19O+
193.0858	62	C11H13O3+
198.1038	52	C14H14O+
201.1271	23	C14H17O+
203.1436	88	C14H19O+
