Mass spectrum: Tetracycline; LC-ESI-ITFT; MS2; CE: 90%; R=15000; [M+H]+
Name: Tetracycline
Name: 2-[amino(hydroxy)methylidene]-4-(dimethylamino)-6,10,11,12a-tetrahydroxy-6-methyl-4,4a,5,5a-tetrahydrotetracene-1,3,12-trione
Formula: C22H24N2O8
Exact mass: 444.1533
SMILES: [H][C@@]12C[C@@]3([H])C(=C(O)[C@]1(O)C(=O)C(C(N)=O)=C(O)[C@H]2N(C)C)C(=O)C1=C(C=CC=C1O)[C@@]3(C)O
InChI: InChI=1S/C22H24N2O8/c1-21(31)8-5-4-6-11(25)12(8)16(26)13-9(21)7-10-15(24(2)3)17(27)14(20(23)30)19(29)22(10,32)18(13)28/h4-6,9-10,15,25,27-28,31-32H,7H2,1-3H3,(H2,23,30)/t9-,10-,15-,21+,22-/m0/s1
Instrument: LTQ Orbitrap XL Thermo Scientific
Instrument type: LC-ESI-ITFT
Ms type: MS2
Ion mode: POSITIVE
Ionization: ESI
Fragmentation mode: HCD
Collision energy: 90% (nominal)
Resolution: 15000
Column name: Kinetex Evo C18 2.6 um 50 x 2.1 mm
Retention time: 2.752 min
Base peak: 300.1474
Precursor m/z: 445.1605
Precursor type: [M+H]+
m/z	relative intensity	assigned
68.0494	19	C4H6N+
70.0649	127	C4H8N+
86.06	54	C4H8NO+
98.06	584	C5H8NO+
131.0491	33	C9H7O+
165.0699	56	C13H9+
167.0857	54	C13H11+
168.0569	149	C12H8O+
169.0647	27	C12H9O+
177.0697	37	C14H9+
179.0848	26	C14H11+
180.0571	60	C13H8O+
181.0648	34	C13H9O+
185.0958	18	C13H13O+
187.0753	22	C12H11O2+
195.0804	182	C14H11O+
196.0518	194	C13H8O2+
197.0598	48	C13H9O2+
198.0675	72	C13H10O2+
205.0644	37	C15H9O+
207.08	38	C15H11O+
208.0521	31	C14H8O2+
211.0752	109	C14H11O2+
213.0909	23	C14H13O2+
219.0803	18	C16H11O+
220.052	45	C15H8O2+
223.0753	129	C15H11O2+
224.0466	179	C14H8O3+
226.0623	999	C14H10O3+
235.0751	37	C16H11O2+
236.047	37	C15H8O3+
238.0621	40	C15H10O3+
239.0698	33	C15H11O3+
241.0861	84	C15H13O3+
242.057	92	C14H10O4+
250.0621	34	C16H10O3+
251.07	37	C16H11O3+
252.0416	286	C15H8O4+
254.0573	111	C15H10O4+
263.0695	15	C17H11O3+
267.0642	25	C16H11O4+
278.0571	84	C17H10O4+
