Mass spectrum: Pyranonigrin A; LC-ESI-ITFT; MS2; CE: 60%; R=7500; [M-H]-
Name: Pyranonigrin A
Name: CID 73323900
Name: 3,7-dihydroxy-2-prop-1-enyl-6,7-dihydropyrano[2,3-c]pyrrole-4,5-dione
Formula: C10H9NO5
Exact mass: 223.04807
SMILES: CC=CC1=C(C(=O)C2=C(O1)C(NC2=O)O)O
InChI: InChI=1S/C10H9NO5/c1-2-3-4-6(12)7(13)5-8(16-4)10(15)11-9(5)14/h2-3,10,12,15H,1H3,(H,11,14)
Instrument: LTQ Orbitrap XL Thermo Scientific
Instrument type: LC-ESI-ITFT
Ms type: MS2
Ion mode: NEGATIVE
Ionization: ESI
Fragmentation mode: HCD
Collision energy: 60 % (nominal)
Resolution: 7500
Column name: Hypersil GOLD C18 1.9 um 100 x 2.1 mm Thermo Fisher Scientific
Retention time: 8.469 min
Base peak: 222.0399
Precursor m/z: 222.0408
Precursor type: [M-H]-
Precursor intensity: 3745201.614014
m/z	relative intensity	assigned
81.0345	23	C5H5O-
83.0135	30	C4H3O2-
95.05	122	C6H7O-
96.0091	83	C4H2NO2-
104.0504	197	C7H6N-
107.05	102	C7H7O-
108.0212	88	C6H4O2-
109.0299	49	C6H5O2-
120.0451	126	C7H6NO-
121.0295	105	C7H5O2-
123.0449	999	C7H7O2-
124.0404	26	C6H6NO2-
132.0452	499	C8H6NO-
133.0293	38	C8H5O2-
134.0245	319	C7H4NO2-
135.045	107	C8H7O2-
138.0558	119	C7H8NO2-
148.04	154	C8H6NO2-
149.0479	106	C8H7NO2-
150.0556	353	C8H8NO2-
151.0397	817	C8H7O3-
152.0348	39	C7H6NO3-
166.0504	237	C8H8NO3-
176.0348	141	C9H6NO3-
179.0342	179	C9H7O4-
194.0453	379	C9H8NO4-
204.0294	55	C10H6NO4-
222.0398	519	C10H8NO5-
