Mass spectrum: Cyclopenin; LC-ESI-ITFT; MS2; CE: 50%; R=7500; [M+H]+
Name: Cyclopenin
Name: 4-methyl-3`-phenylspiro[1H-1,4-benzodiazepine-3,2`-oxirane]-2,5-dione
Formula: C17H14N2O3
Exact mass: 294.1004
SMILES: CN1C(=O)C2=CC=CC=C2NC(=O)C13C(O3)C4=CC=CC=C4
InChI: InChI=1S/C17H14N2O3/c1-19-15(20)12-9-5-6-10-13(12)18-16(21)17(19)14(22-17)11-7-3-2-4-8-11/h2-10,14H,1H3,(H,18,21)
Instrument: LTQ Orbitrap XL Thermo Scientific
Instrument type: LC-ESI-ITFT
Ms type: MS2
Ion mode: POSITIVE
Ionization: ESI
Fragmentation mode: HCD
Collision energy: 50 % (nominal)
Resolution: 7500
Column name: Hypersil GOLD C18 1.9 um 100 x 2.1 mm Thermo Fisher Scientific
Retention time: 15.046 min
Base peak: 295.1086
Precursor m/z: 295.1077
Precursor type: [M+H]+
Precursor intensity: 25511948.48047
m/z	relative intensity	assigned
89.0384	1	C7H5+
91.0541	1	C7H7+
105.0334	3	C7H5O+
118.0652	7	C8H8N+
120.0445	62	C7H6NO+
120.081	7	C8H10N+
132.0444	25	C8H6NO+
145.0284	4	C9H5O2+
146.0237	999	C8H4NO2+
148.0397	2	C8H6NO2+
158.0602	1	C10H8NO+
159.0554	5	C9H7N2O+
161.0711	5	C9H9N2O+
164.0341	1	C8H6NO3+
165.0699	1	C13H9+
177.0659	123	C9H9N2O2+
178.0504	1	C9H8NO3+
179.0724	1	C13H9N+
180.081	3	C13H10N+
182.0963	15	C13H12N+
192.08	1	C14H10N+
208.0757	69	C14H10NO+
210.0908	1	C14H12NO+
218.0609	3	C15H8NO+
220.076	4	C15H10NO+
221.108	1	C15H13N2+
223.1235	1	C15H15N2+
234.0785	1	C15H10N2O+
236.0707	68	C15H10NO2+
249.1023	7	C16H13N2O+
