Mass spectrum: Malformin A1; LC-ESI-ITFT; MS2; CE: 60%; R=7500; [M-H]-
Name: Malformin A1
Name: Malformin A
Name: 4-butan-2-yl-7-(2-methylpropyl)-10-propan-2-yl-15,16-dithia-2,5,8,11,19-pentazabicyclo[11.4.2]nonadecane-3,6,9,12,18-pentone
Formula: C23H39N5O5S2
Exact mass: 529.23926
SMILES: CCC(C)C1C(=O)NC2CSSCC(C(=O)NC(C(=O)NC(C(=O)N1)CC(C)C)C(C)C)NC2=O
InChI: InChI=1S/C23H39N5O5S2/c1-7-13(6)18-23(33)26-15-9-34-35-10-16(25-20(15)30)21(31)27-17(12(4)5)22(32)24-14(8-11(2)3)19(29)28-18/h11-18H,7-10H2,1-6H3,(H,24,32)(H,25,30)(H,26,33)(H,27,31)(H,28,29)
Instrument: LTQ Orbitrap XL Thermo Scientific
Instrument type: LC-ESI-ITFT
Ms type: MS2
Ion mode: NEGATIVE
Ionization: ESI
Fragmentation mode: HCD
Collision energy: 60 % (nominal)
Resolution: 7500
Column name: Hypersil GOLD C18 1.9 um 100 x 2.1 mm Thermo Fisher Scientific
Retention time: 21.516 min
Base peak: 588.2532
Precursor m/z: 528.232
Precursor type: [M-H]-
Precursor intensity: 8388116.305176
m/z	relative intensity	assigned
56.0539	13	H10NS-
72.0042	8	C3H4S-
72.0217	6	C3H4O2-
90.9681	20	C2H3S2-
97.0408	62	C4H5N2O-
100.0227	146	C4H6NS-
109.0408	191	C5H5N2O-
111.0565	53	C5H7N2O-
126.0021	268	C5H4NOS-
128.0172	23	C5H6NOS-
139.0512	51	C6H7N2O2-
139.0875	40	C7H11N2O-
141.067	999	C6H9N2O2-
143.0285	272	C5H7N2OS-
155.0827	108	C7H11N2O2-
165.104	15	C3H19NO4S-
166.0986	6	C8H12N3O-
167.0826	62	C8H11N2O2-
181.0981	132	C9H13N2O2-
184.1095	51	C2H20N2O5S-
185.0754	84	C8H13N2OS-
191.0826	33	C10H11N2O2-
193.0979	25	C10H13N2O2-
201.0134	9	C4H11NO4S2-
205.0985	27	C11H13N2O2-
207.1503	14	C12H19N2O-
208.1093	85	C10H14N3O2-
210.0884	132	C9H12N3O3-
211.1451	77	C11H19N2O2-
212.1039	35	C9H14N3O3-
233.1659	82	C14H21N2O-
239.0864	12	C3H19N4O4S2-
239.1129	9	C8H21N3OS2-
251.1149	32	C11H15N4O3-
253.131	35	C11H17N4O3-
254.1509	59	C12H20N3O3-
285.1004	7	C16H15NO4-
306.2182	42	C9H32N5O4S-
367.2354	511	C18H31N4O4-
417.2505	7	C22H33N4O4-
425.2232	35	C20H33N4O4S-
436.2613	10	C18H38N5O5S-
451.2394	222	C22H35N4O4S-
460.2568	109	C23H34N5O5-
462.2716	36	C23H36N5O5-
476.2365	9	C20H38N5O4S2-
494.2448	53	C23H36N5O5S-
