Mass spectrum: Metazachlor-diOH (TENTATIVE); LC-ESI-QFT; MS2; CE: 30%; R=70000; [M+H]+
Name: Metazachlor-diOH
Formula: C14H16ClN3O3
Exact mass: 309.0868
SMILES: C(*)C1=C(C(=C(*)C(*)=C(*)1)C(*))N(C(*)N2C(*)=C(*)C(*)=N2)C(=O)C(*)Cl *=[OH (n=2) & H (n=8)]
Instrument: Q Exactive Plus Orbitrap Thermo Scientific
Instrument type: LC-ESI-QFT
Ms type: MS2
Ion mode: POSITIVE
Ionization: ESI
Fragmentation mode: HCD
Collision energy: 30% (nominal)
Resolution: 70000
Column name: Waters UPLC BEH C18 1.7 um 2.1 mm x 100 mm with pre-column
Retention time: 8 min
Precursor m/z: 310.0946
Precursor type: [M+H]+
m/z	relative intensity
69.0448	742
76.9791	6
90.0105	3
91.0541	8
93.0698	3
103.0542	14
105.0698	3
117.0572	2
118.0651	56
119.0492	4
120.0808	120
130.0651	51
131.073	4
133.0523	4
136.0756	3
139.0309	2
146.0599	3
148.0756	70
158.0597	8
159.0678	11
164.0262	3
166.0427	2
193.0292	2
194.0367	999
212.0472	450
224.0476	3
226.0627	8
