Mass spectrum: Phenazone; LC-ESI-ITFT; MS2; CE: 45%; R=7500; [M+H]+
Name: Phenazone
Name: 1,5-Dimethyl-2-phenyl-1,2-dihydro-3H-pyrazol-3-one
Formula: C11H12N2O
Exact mass: 188.095
SMILES: CN1N(C(=O)C=C1C)C1=CC=CC=C1
InChI: InChI=1S/C11H12N2O/c1-9-8-11(14)13(12(9)2)10-6-4-3-5-7-10/h3-8H,1-2H3
Instrument: LTQ Orbitrap XL Thermo Fisher Scientific
Instrument type: LC-ESI-ITFT
Ms type: MS2
Ion mode: POSITIVE
Ionization: ESI
Fragmentation mode: HCD
Collision energy: 45% (nominal)
Resolution: 7500
Column name: Hypersil GOLD C18 1.9 um 100 x 2.1 mm Thermo Fisher Scientific
Precursor m/z: 189.1023
Precursor type: [M+H]+
m/z	relative intensity
56.0494	2
58.065	2
91.0541	1
96.0682	3
104.0496	4
106.0652	1
117.07	1
118.0652	3
120.0809	3
130.0652	4
131.073	7
132.0808	4
133.0759	1
144.0809	8
145.0652	2
146.084	7
147.0917	13
148.0761	1
149.0707	1
161.1074	21
174.079	7
189.1023	999
