Mass spectrum: Sulthiame; LC-ESI-ITFT; MS2; CE: 60%; R=15000; [M+H]+
Name: Sulthiame
Name: 4-(1,1-dioxothiazinan-2-yl)benzenesulfonamide
Formula: C10H14N2O4S2
Exact mass: 290.0395
SMILES: C1CCS(=O)(=O)N(C1)C2=CC=C(C=C2)S(=O)(=O)N
InChI: InChI=1S/C10H14N2O4S2/c11-18(15,16)10-5-3-9(4-6-10)12-7-1-2-8-17(12,13)14/h3-6H,1-2,7-8H2,(H2,11,15,16)
Instrument: LTQ Orbitrap XL Thermo Scientific
Instrument type: LC-ESI-ITFT
Ms type: MS2
Ion mode: POSITIVE
Ionization: ESI
Fragmentation mode: HCD
Collision energy: 60% (nominal)
Resolution: 15000
Column name: Kinetex Evo C18 2.6 um 50 x 2.1 mm
Retention time: 4.769 min
Base peak: 308.0734
Precursor m/z: 291.0468
Precursor type: [M+H]+
m/z	relative intensity	assigned
92.0496	13	C6H6N+
93.0573	5	C6H7N+
105.0573	56	C7H7N+
106.0652	13	C7H8N+
108.0443	10	C6H6NO+
118.0651	37	C8H8N+
119.073	11	C8H9N+
122.0601	22	C7H8NO+
132.0808	68	C9H10N+
146.0964	11	C10H12N+
147.1043	41	C10H13N+
156.0111	12	C6H6NO2S+
173.0381	3	C6H9N2O2S+
185.0379	999	C7H9N2O2S+
198.0456	10	C8H10N2O2S+
199.0538	11	C8H11N2O2S+
227.0848	62	C10H15N2O2S+
