Mass spectrum: Cyclizine; LC-ESI-ITFT; MS2; CE: 130%; R=15000; [M+H]+
Name: Cyclizine
Name: 1-benzhydryl-4-methylpiperazine
Formula: C18H22N2
Exact mass: 266.1783
SMILES: CN1CCN(CC1)C(C2=CC=CC=C2)C3=CC=CC=C3
InChI: InChI=1S/C18H22N2/c1-19-12-14-20(15-13-19)18(16-8-4-2-5-9-16)17-10-6-3-7-11-17/h2-11,18H,12-15H2,1H3
Instrument: LTQ Orbitrap XL Thermo Scientific
Instrument type: LC-ESI-ITFT
Ms type: MS2
Ion mode: POSITIVE
Ionization: ESI
Fragmentation mode: HCD
Collision energy: 130% (nominal)
Resolution: 15000
Column name: Kinetex Evo C18 2.6 um 50 x 2.1 mm
Retention time: 7.482 min
Base peak: 267.1856
Precursor m/z: 267.1856
Precursor type: [M+H]+
m/z	relative intensity	assigned
65.0384	14	C5H5+
77.0386	1	C6H5+
89.0385	6	C7H5+
91.0542	6	C7H7+
102.0465	8	C8H6+
115.0542	118	C9H7+
126.0463	7	C10H6+
127.0541	5	C10H7+
128.0621	146	C10H8+
139.0542	20	C11H7+
141.0699	84	C11H9+
150.0463	8	C12H6+
151.0543	37	C12H7+
152.062	733	C12H8+
155.0602	9	C10H7N2+
163.0544	5	C13H7+
164.0621	45	C13H8+
165.0699	999	C13H9+
166.077	101	C13H10+
167.0851	13	C13H11+
169.0647	18	C12H9O+
179.0604	19	C12H7N2+
