Mass spectrum: Dothiepin; LC-ESI-QTOF; MS2; CE: 30 eV; R=3600; [M+H]+
Name: Dothiepin
Name: 3-(Dibenzo[b,e]thiepin-11(6H)-ylidene)-N,N-dimethylpropan-1-amine
Formula: C19H21NS
Exact mass: 295.1395
SMILES: CN(C)CCC=C1C2=CC=CC=C2CSC2=C1C=CC=C2
InChI: InChI=1S/C19H21NS/c1-20(2)13-7-11-17-16-9-4-3-8-15(16)14-21-19-12-6-5-10-18(17)19/h3-6,8-12H,7,13-14H2,1-2H3
Instrument: 6584 QTOF Agilent
Instrument type: LC-ESI-QTOF
Ms type: MS2
Ion mode: POSITIVE
Ionization: ESI
Fragmentation mode: CID
Collision energy: 30 eV
Resolution: 3600
Precursor m/z: 296.1468
Precursor type: [M+H]+
m/z	relative intensity
58.0656	436
84.0819	55
91.054	405
115.0533	284
117.069	487
123.0245	213
129.0686	76
141.0694	75
142.0766	69
147.0252	229
165.0682	276
173.0406	61
178.0752	452
179.0829	169
189.0666	54
190.0747	45
191.0835	281
192.0915	207
202.0754	470
203.0839	999
208.0346	47
209.0396	156
210.0472	318
215.0836	116
216.0923	57
217.0989	656
218.1069	514
221.0402	762
222.0473	371
223.0552	794
225.071	144
234.045	90
235.0544	179
236.062	154
