Mass spectrum: Butyrolactone II; LC-ESI-ITFT; MS2; CE: 40%; R=7500; [M+H]+
Name: Butyrolactone II
Name: methyl 4-hydroxy-3-(4-hydroxyphenyl)-2-[(4-hydroxyphenyl)methyl]-5-oxofuran-2-carboxylate
Formula: C19H16O7
Exact mass: 356.0896
SMILES: COC(=O)C1(C(=C(C(=O)O1)O)C2=CC=C(C=C2)O)CC3=CC=C(C=C3)O
InChI: InChI=1S/C19H16O7/c1-25-18(24)19(10-11-2-6-13(20)7-3-11)15(16(22)17(23)26-19)12-4-8-14(21)9-5-12/h2-9,20-22H,10H2,1H3
Instrument: LTQ Orbitrap XL Thermo Scientific
Instrument type: LC-ESI-ITFT
Ms type: MS2
Ion mode: POSITIVE
Ionization: ESI
Fragmentation mode: HCD
Collision energy: 40 % (nominal)
Resolution: 7500
Column name: Hypersil GOLD C18 1.9 um 100 x 2.1 mm Thermo Fisher Scientific
Retention time: 15.733 min
Base peak: 357.0985
Precursor m/z: 357.0969
Precursor type: [M+H]+
Precursor intensity: 8753816.033447
m/z	relative intensity	assigned
107.0494	131	C7H7O+
121.0287	204	C7H5O2+
131.0496	128	C9H7O+
147.0446	25	C9H7O2+
159.0446	260	C10H7O2+
163.0396	28	C9H7O3+
175.0394	92	C10H7O3+
187.0398	31	C11H7O3+
189.0551	37	C11H9O3+
203.0346	310	C11H7O4+
207.0808	32	C15H11O+
219.0297	60	C11H7O5+
219.081	20	C16H11O+
223.0762	299	C15H11O2+
224.0837	200	C15H12O2+
225.0913	82	C15H13O2+
231.0296	17	C12H7O5+
235.0761	341	C16H11O2+
236.0831	33	C16H12O2+
251.0709	999	C16H11O3+
252.079	149	C16H12O3+
253.0867	92	C16H13O3+
261.0558	13	C17H9O3+
263.0709	196	C17H11O3+
269.0815	14	C16H13O4+
277.0855	18	C18H13O3+
279.0658	237	C17H11O4+
281.0811	12	C17H13O4+
289.0502	26	C18H9O4+
297.0767	75	C17H13O5+
307.0615	24	C18H11O5+
