Mass spectrum: Antipyrine; LC-ESI-ITFT; MS2; CE: 80%; R=15000; [M+H]+
Name: Antipyrine
Name: 1,5-dimethyl-2-phenylpyrazol-3-one
Formula: C11H12N2O
Exact mass: 188.0950
SMILES: CC1=CC(=O)N(N1C)C2=CC=CC=C2
InChI: InChI=1S/C11H12N2O/c1-9-8-11(14)13(12(9)2)10-6-4-3-5-7-10/h3-8H,1-2H3
Instrument: LTQ Orbitrap XL Thermo Scientific
Instrument type: LC-ESI-ITFT
Ms type: MS2
Ion mode: POSITIVE
Ionization: ESI
Fragmentation mode: CID
Collision energy: 80% (nominal)
Resolution: 15000
Column name: Kinetex Evo C18 2.6 um 50 x 2.1 mm
Retention time: 5.710 min
Base peak: 189.1023
Precursor m/z: 189.1022
Precursor type: [M+H]+
m/z	relative intensity	assigned
55.0542	5	C4H7+
56.0492	14	C3H6N+
70.065	6	C4H8N+
86.0602	7	C4H8NO+
91.0542	24	C7H7+
96.0444	24	C5H6NO+
96.0683	36	C5H8N2+
98.0598	6	C5H8NO+
103.0542	23	C8H7+
104.0495	59	C7H6N+
105.0333	10	C7H5O+
105.0699	18	C8H9+
106.0651	17	C7H8N+
111.0553	31	C5H7N2O+
115.054	11	C9H7+
117.0574	30	C8H7N+
117.0699	25	C9H9+
118.0652	219	C8H8N+
119.0607	6	C7H7N2+
120.0808	237	C8H10N+
129.07	29	C10H9+
130.0652	334	C9H8N+
131.0729	999	C9H9N+
132.0807	222	C9H10N+
133.0523	21	C8H7NO+
133.0759	101	C8H9N2+
134.0963	27	C9H12N+
135.0553	42	C7H7N2O+
144.0808	798	C10H10N+
145.0648	82	C10H9O+
145.0886	22	C10H11N+
146.0839	594	C9H10N2+
146.0964	485	C10H12N+
147.0917	566	C9H11N2+
148.0756	126	C9H10NO+
149.0709	23	C8H9N2O+
157.052	10	C10H7NO+
158.06	54	C10H8NO+
159.0917	16	C10H11N2+
161.1073	827	C10H13N2+
162.0915	35	C10H12NO+
172.0757	370	C11H10NO+
174.0788	334	C10H10N2O+
