Mass spectrum: 3 Acetyldeoxynivalenol; LC-ESI-ITFT; MS2; CE: 60%; R=7500; [M+H]+
Name: 3 Acetyldeoxynivalenol
Name: Acetyldeoxynivalenol
Name: [3-hydroxy-2-(hydroxymethyl)-1,5-dimethyl-4-oxospiro[8-oxatricyclo[7.2.1.02,7]dodec-5-ene-12,2`-oxirane]-10-yl] acetate
Formula: C17H22O7
Exact mass: 338.1366
SMILES: CC1=CC2C(C(C1=O)O)(C3(CC(C(C34CO4)O2)OC(=O)C)C)CO
InChI: InChI=1S/C17H22O7/c1-8-4-11-16(6-18,13(21)12(8)20)15(3)5-10(23-9(2)19)14(24-11)17(15)7-22-17/h4,10-11,13-14,18,21H,5-7H2,1-3H3
Instrument: LTQ Orbitrap XL Thermo Scientific
Instrument type: LC-ESI-ITFT
Ms type: MS2
Ion mode: POSITIVE
Ionization: ESI
Fragmentation mode: HCD
Collision energy: 60 % (nominal)
Resolution: 7500
Column name: Hypersil GOLD C18 1.9 um 100 x 2.1 mm Thermo Fisher Scientific
Retention time: 10.782 min
Base peak: 339.1435
Precursor m/z: 339.1438
Precursor type: [M+H]+
Precursor intensity: 14418024.08105
m/z	relative intensity	assigned
79.0539	70	C6H7+
81.0696	68	C6H9+
93.0696	35	C7H9+
95.049	34	C6H7O+
97.0643	59	C6H9O+
105.0697	51	C8H9+
107.0489	119	C7H7O+
109.0646	287	C7H9O+
111.0446	31	C6H7O2+
117.0698	63	C9H9+
119.0853	48	C9H11+
121.0645	133	C8H9O+
123.0439	174	C7H7O2+
125.0596	421	C7H9O2+
129.0694	77	C10H9+
131.0854	113	C10H11+
133.0646	113	C9H9O+
133.1013	28	C10H13+
135.0437	63	C8H7O2+
135.0802	120	C9H11O+
137.0595	799	C8H9O2+
143.0853	110	C11H11+
145.0645	108	C10H9O+
145.101	176	C11H13+
147.0801	223	C10H11O+
147.1169	30	C11H15+
149.0593	91	C9H9O2+
149.0958	90	C10H13O+
151.0385	79	C8H7O3+
151.0751	65	C9H11O2+
153.0544	159	C8H9O3+
154.077	49	C12H10+
155.085	81	C12H11+
157.0647	53	C11H9O+
157.1007	427	C12H13+
159.0802	288	C11H11O+
159.1165	184	C12H15+
161.0595	286	C10H9O2+
161.0957	204	C11H13O+
162.0672	55	C10H10O2+
163.075	378	C10H11O2+
165.0905	63	C10H13O2+
167.0854	123	C13H11+
169.1009	208	C13H13+
170.0731	58	C12H10O+
171.08	168	C12H11O+
172.0876	76	C12H12O+
173.0958	405	C12H13O+
174.0675	136	C11H10O2+
175.0749	972	C11H11O2+
175.1114	256	C12H15O+
177.0905	212	C11H13O2+
179.0704	26	C10H11O3+
179.0857	37	C14H11+
182.0722	58	C13H10O+
183.0802	78	C13H11O+
185.0957	628	C13H13O+
187.0746	101	C12H11O2+
187.1114	277	C13H15O+
188.0829	117	C12H12O2+
189.0907	564	C12H13O2+
191.0697	62	C11H11O3+
191.1067	82	C12H15O2+
193.0851	85	C11H13O3+
195.0799	131	C14H11O+
197.0957	230	C14H13O+
198.0672	276	C13H10O2+
201.0907	490	C13H13O2+
203.1062	987	C13H15O2+
205.0854	159	C12H13O3+
205.1225	30	C13H17O2+
207.102	19	C12H15O3+
213.0907	999	C14H13O2+
215.1065	297	C14H15O2+
216.0776	21	C13H12O3+
217.0852	33	C13H13O3+
219.101	275	C13H15O3+
223.0956	41	C12H15O4+
225.0905	63	C15H13O2+
231.1013	734	C14H15O3+
233.1161	53	C14H17O3+
243.101	101	C15H15O3+
249.1117	74	C14H17O4+
261.1118	97	C15H17O4+
279.1222	288	C15H19O5+
