Mass spectrum: Metoclopramide; LC-ESI-QTOF; MS2; CE: 45 eV; R=3600; [M+H]+
Name: Metoclopramide
Name: 4-Amino-5-chloro-N-[2-(diethylamino)ethyl]-2-methoxybenzamide
Formula: C14H22ClN3O2
Exact mass: 299.1401
SMILES: CCN(CC)CCNC(=O)C1=CC(Cl)=C(N)C=C1OC
InChI: InChI=1S/C14H22ClN3O2/c1-4-18(5-2)7-6-17-14(19)10-8-11(15)12(16)9-13(10)20-3/h8-9H,4-7,16H2,1-3H3,(H,17,19)
Instrument: 6628 QTOF Agilent
Instrument type: LC-ESI-QTOF
Ms type: MS2
Ion mode: POSITIVE
Ionization: ESI
Fragmentation mode: CID
Collision energy: 45 eV
Resolution: 3600
Precursor m/z: 300.1474
Precursor type: [M+H]+
m/z	relative intensity
63.0224	153
65.0376	50
78.0331	577
90.0329	467
93.0561	140
98.9992	91
105.0438	75
113.001	999
120.0418	53
126.0091	210
128.0239	68
129.0073	63
140.0119	57
140.9955	874
148.0619	94
154.0039	58
156.018	152
168.0055	551
168.9906	228
169.9977	84
183.029	124
184.0133	803
212.0316	174
