Mass spectrum: Butyrolactone II; LC-ESI-ITFT; MS2; CE: 60%; R=7500; [M+H]+
Name: Butyrolactone II
Name: methyl 4-hydroxy-3-(4-hydroxyphenyl)-2-[(4-hydroxyphenyl)methyl]-5-oxofuran-2-carboxylate
Formula: C19H16O7
Exact mass: 356.0896
SMILES: COC(=O)C1(C(=C(C(=O)O1)O)C2=CC=C(C=C2)O)CC3=CC=C(C=C3)O
InChI: InChI=1S/C19H16O7/c1-25-18(24)19(10-11-2-6-13(20)7-3-11)15(16(22)17(23)26-19)12-4-8-14(21)9-5-12/h2-9,20-22H,10H2,1H3
Instrument: LTQ Orbitrap XL Thermo Scientific
Instrument type: LC-ESI-ITFT
Ms type: MS2
Ion mode: POSITIVE
Ionization: ESI
Fragmentation mode: HCD
Collision energy: 60 % (nominal)
Resolution: 7500
Column name: Hypersil GOLD C18 1.9 um 100 x 2.1 mm Thermo Fisher Scientific
Retention time: 15.733 min
Base peak: 357.0985
Precursor m/z: 357.0969
Precursor type: [M+H]+
Precursor intensity: 8753816.033447
m/z	relative intensity	assigned
107.0494	357	C7H7O+
121.0287	376	C7H5O2+
131.0495	569	C9H7O+
147.0444	98	C9H7O2+
159.0444	249	C10H7O2+
161.0592	23	C10H9O2+
175.0394	157	C10H7O3+
185.024	37	C11H5O3+
187.0394	25	C11H7O3+
189.0549	26	C11H9O3+
191.0864	19	C15H11+
195.0804	43	C14H11O+
203.0345	41	C11H7O4+
207.0809	158	C15H11O+
218.0728	65	C16H10O+
219.0293	36	C11H7O5+
219.0806	15	C16H11O+
223.0759	999	C15H11O2+
224.0836	180	C15H12O2+
233.0597	47	C16H9O2+
234.0683	68	C16H10O2+
235.0759	224	C16H11O2+
236.0839	41	C16H12O2+
245.0599	13	C17H9O2+
251.0709	214	C16H11O3+
252.0786	207	C16H12O3+
263.0703	39	C17H11O3+
279.0658	47	C17H11O4+
