Mass spectrum: Rubrofusarin; LC-ESI-ITFT; MS2; CE: 60%; R=7500; [M-H]-
Name: Rubrofusarin
Name: 5,6-dihydroxy-8-methoxy-2-methylbenzo[g]chromen-4-one
Formula: C15H12O5
Exact mass: 272.06847
SMILES: CC1=CC(=O)C2=C(C3=C(C=C(C=C3C=C2O1)OC)O)O
InChI: InChI=1S/C15H12O5/c1-7-3-10(16)14-12(20-7)5-8-4-9(19-2)6-11(17)13(8)15(14)18/h3-6,17-18H,1-2H3
Instrument: LTQ Orbitrap XL Thermo Scientific
Instrument type: LC-ESI-ITFT
Ms type: MS2
Ion mode: NEGATIVE
Ionization: ESI
Fragmentation mode: HCD
Collision energy: 60 % (nominal)
Resolution: 7500
Column name: Hypersil GOLD C18 1.9 um 100 x 2.1 mm Thermo Fisher Scientific
Retention time: 23.566 min
Base peak: 565.113
Precursor m/z: 271.0612
Precursor type: [M-H]-
Precursor intensity: 7738785.988281
m/z	relative intensity	assigned
256.0382	351	C14H8O5-
271.0618	999	C15H11O5-
