Mass spectrum: Pendimethalin-OH (TENTATIVE); LC-ESI-QFT; MS2; CE: 30%; R=70000; [M+H]+
Name: Pendimethalin-OH
Formula: C13H19N3O5
Exact mass: 297.1313
SMILES: C(*)C(*)C(CC)NC1=C(C(*)=C(C(=C1[N+](=O)[O-])C(*))C(*))[N+](=O)[O-] *=[OH (n=1) & H (n=4)]
Instrument: Q Exactive Plus Orbitrap Thermo Scientific
Instrument type: LC-ESI-QFT
Ms type: MS2
Ion mode: POSITIVE
Ionization: ESI
Fragmentation mode: HCD
Collision energy: 30% (nominal)
Resolution: 70000
Column name: Waters UPLC BEH C18 1.7 um 2.1 mm x 100 mm with pre-column
Retention time: 14.99 min
Precursor m/z: 298.1391
Precursor type: [M+H]+
m/z	relative intensity
53.0389	91
55.0546	86
57.0702	113
66.0339	117
67.0416	93
67.0543	169
69.0448	81
69.07	999
78.0338	187
79.0542	75
80.0495	235
81.0699	130
87.0441	75
87.0804	326
91.0416	394
92.0494	192
93.0572	65
93.0702	60
95.0856	183
96.0443	56
103.029	78
103.0416	64
105.0446	125
106.0656	60
107.0853	68
109.1014	86
117.0447	111
118.0525	333
119.0606	330
120.0685	63
121.003	51
121.04	65
122.0474	64
130.0527	58
131.0603	102
133.1014	83
135.0553	141
147.0553	236
148.063	204
149.0584	303
160.0506	54
161.0709	90
163.0501	136
177.0533	369
177.0656	90
178.0613	281
179.0454	76
192.0766	81
194.0561	644
195.0638	251
212.0664	479
