Mass spectrum: Phenazone; LC-ESI-QTOF; MS2; CE: 20 eV; R=3600; [M+H]+
Name: Phenazone
Name: 1,5-Dimethyl-2-phenyl-1,2-dihydro-3H-pyrazol-3-one
Formula: C11H12N2O
Exact mass: 188.095
SMILES: CN1N(C(=O)C=C1C)C1=CC=CC=C1
InChI: InChI=1S/C11H12N2O/c1-9-8-11(14)13(12(9)2)10-6-4-3-5-7-10/h3-8H,1-2H3
Instrument: 6643 QTOF Agilent
Instrument type: LC-ESI-QTOF
Ms type: MS2
Ion mode: POSITIVE
Ionization: ESI
Fragmentation mode: CID
Collision energy: 20 eV
Resolution: 3600
Precursor m/z: 189.1023
Precursor type: [M+H]+
m/z	relative intensity
51.0233	127
56.0493	999
58.0651	288
65.0387	134
77.038	836
81.0439	62
91.0527	90
96.0673	74
103.0536	69
104.0483	309
106.0626	189
115.053	95
117.0569	88
118.0618	122
120.079	60
130.0633	165
131.0681	152
132.0676	68
144.0765	108
145.0741	67
146.0814	118
147.0884	112
189.1023	714
