Mass spectrum: Territrem B; LC-ESI-ITFT; MS2; CE: 40%; R=7500; [M+H]+
Name: Territrem B
Name: 1,7-dihydroxy-2,6,6,10-tetramethyl-14-(3,4,5-trimethoxyphenyl)-11,15-dioxatetracyclo[8.8.0.02,7.012,17]octadeca-4,12(17),13-triene-3,16-dione
Formula: C29H34O9
Exact mass: 526.2203
SMILES: CC1(C=CC(=O)C2(C1(CCC3(C2(CC4=C(O3)C=C(OC4=O)C5=CC(=C(C(=C5)OC)OC)OC)O)C)O)C)C
InChI: InChI=1S/C29H34O9/c1-25(2)9-8-22(30)27(4)28(25,32)11-10-26(3)29(27,33)15-17-19(38-26)14-18(37-24(17)31)16-12-20(34-5)23(36-7)21(13-16)35-6/h8-9,12-14,32-33H,10-11,15H2,1-7H3
Instrument: LTQ Orbitrap XL Thermo Scientific
Instrument type: LC-ESI-ITFT
Ms type: MS2
Ion mode: POSITIVE
Ionization: ESI
Fragmentation mode: HCD
Collision energy: 40 % (nominal)
Resolution: 7500
Column name: Hypersil GOLD C18 1.9 um 100 x 2.1 mm Thermo Fisher Scientific
Retention time: 21.132 min
Base peak: 527.228
Precursor m/z: 527.2276
Precursor type: [M+H]+
Precursor intensity: 6556556.929199
m/z	relative intensity	assigned
119.0852	13	C9H11+
149.0963	120	C10H13O+
154.063	37	C8H10O3+
157.101	27	C12H13+
169.0865	38	C9H13O3+
170.1091	21	C13H14+
171.1162	31	C13H15+
173.1323	221	C13H17+
175.1113	51	C12H15O+
181.0863	78	C10H13O3+
185.1323	183	C14H17+
189.1273	68	C13H17O+
195.0652	683	C10H11O4+
201.127	103	C14H17O+
203.1431	48	C14H19O+
209.1316	31	C16H17+
213.1275	120	C15H17O+
221.0812	58	C12H13O4+
227.1433	76	C16H19O+
237.0759	85	C12H13O5+
237.1275	92	C17H17O+
249.0768	22	C13H13O5+
255.1377	189	C17H19O2+
279.0857	51	C14H15O6+
281.1167	67	C18H17O3+
291.0862	999	C15H15O6+
305.0652	30	C15H13O7+
307.0824	58	C15H15O7+
327.1221	21	C19H19O5+
329.1015	52	C18H17O6+
352.1306	18	C21H20O5+
355.1172	57	C20H19O6+
373.1298	49	C20H21O7+
396.1566	25	C23H24O6+
435.1819	36	C26H27O6+
463.2093	29	C28H31O6+
473.1977	44	C29H29O6+
491.2069	117	C29H31O7+
