Mass spectrum: Citreoviridin; LC-ESI-ITFT; MS2; CE: 30%; R=7500; [M+H]+
Name: Citreoviridin
Name: 6-[8-(3,4-dihydroxy-2,4,5-trimethyloxolan-2-yl)-7-methylocta-1,3,5,7-tetraenyl]-4-methoxy-5-methylpyran-2-one
Formula: C23H30O6
Exact mass: 402.2042
SMILES: CC1C(C(C(O1)(C)C=C(C)C=CC=CC=CC2=C(C(=CC(=O)O2)OC)C)O)(C)O
InChI: InChI=1S/C23H30O6/c1-15(14-22(4)21(25)23(5,26)17(3)29-22)11-9-7-8-10-12-18-16(2)19(27-6)13-20(24)28-18/h7-14,17,21,25-26H,1-6H3
Instrument: LTQ Orbitrap XL Thermo Scientific
Instrument type: LC-ESI-ITFT
Ms type: MS2
Ion mode: POSITIVE
Ionization: ESI
Fragmentation mode: HCD
Collision energy: 30 % (nominal)
Resolution: 7500
Column name: Hypersil GOLD C18 1.9 um 100 x 2.1 mm Thermo Fisher Scientific
Retention time: 21.725 min
Base peak: 403.2119
Precursor m/z: 403.2115
Precursor type: [M+H]+
Precursor intensity: 3639468.507568
m/z	relative intensity	assigned
83.0489	96	C5H7O+
89.0597	69	C4H9O2+
107.0857	38	C8H11+
127.0753	94	C7H11O2+
131.0852	61	C10H11+
133.1014	82	C10H13+
135.0801	45	C9H11O+
137.096	46	C9H13O+
139.039	712	C7H7O3+
143.0855	314	C11H11+
145.0857	87	C7H13O3+
151.0751	46	C9H11O2+
157.1013	98	C12H13+
161.0959	167	C11H13O+
165.0914	96	C10H13O2+
167.0701	245	C9H11O3+
177.0911	35	C11H13O2+
179.0701	125	C10H11O3+
191.0704	134	C11H11O3+
193.0859	266	C11H13O3+
205.0865	87	C12H13O3+
209.0804	49	C11H13O4+
221.0814	166	C12H13O4+
221.1335	39	C17H17+
237.1276	36	C17H17O+
259.1331	177	C16H19O3+
269.1523	106	C18H21O2+
285.1482	617	C18H21O3+
287.1634	73	C18H23O3+
297.1484	999	C19H21O3+
315.1583	488	C19H23O4+
403.2111	950	C23H31O6+
