Mass spectrum: Etilefrine; LC-ESI-ITFT; MS2; CE: 145%; R=15000; [M+H]+
Name: Etilefrine
Name: 3-[2-(ethylamino)-1-hydroxyethyl]phenol
Formula: C10H15NO2
Exact mass: 181.1103
SMILES: CCNCC(C1=CC(=CC=C1)O)O
InChI: InChI=1S/C10H15NO2/c1-2-11-7-10(13)8-4-3-5-9(12)6-8/h3-6,10-13H,2,7H2,1H3
Instrument: LTQ Orbitrap XL Thermo Scientific
Instrument type: LC-ESI-ITFT
Ms type: MS2
Ion mode: POSITIVE
Ionization: ESI
Fragmentation mode: HCD
Collision energy: 145% (nominal)
Resolution: 15000
Column name: Kinetex Evo C18 2.6 um 50 x 2.1 mm
Retention time: 0.619 min
Base peak: 182.1175
Precursor m/z: 182.1176
Precursor type: [M+H]+
m/z	relative intensity	assigned
65.0384	364	C5H5+
66.0463	10	C5H6+
77.0385	96	C6H5+
79.0542	75	C6H7+
80.0495	17	C5H6N+
81.0698	28	C6H9+
89.0386	20	C7H5+
90.0465	36	C7H6+
91.0542	999	C7H7+
92.0493	25	C6H6N+
93.0574	18	C6H7N+
94.0283	7	C5H4NO+
94.0413	112	C6H6O+
95.0493	16	C6H7O+
103.0543	11	C8H7+
104.0497	9	C7H6N+
105.0448	77	C6H5N2+
106.0651	77	C7H8N+
107.0491	225	C7H7O+
116.0498	16	C8H6N+
117.0573	63	C8H7N+
118.0652	62	C8H8N+
120.0445	45	C7H6NO+
134.0601	124	C8H8NO+
135.0674	12	C8H9NO+
