Mass spectrum: Sulfamethoxazole; ESI-QTOF; MS2; CE: 10eV; R=15000; [M+H]+
Name: Sulfamethoxazole
Name: 4-Amino-N-(5-methyl-1,2-oxazol-3-yl)benzene-1-sulfonamide
Formula: C10H11N3O3S
Exact mass: 253.0521
SMILES: CC1=CC(NS(=O)(=O)C2=CC=C(N)C=C2)=NO1
InChI: InChI=1S/C10H11N3O3S/c1-7-6-10(12-16-7)13-17(14,15)9-4-2-8(11)3-5-9/h2-6H,11H2,1H3,(H,12,13)
Instrument: TripleTOF 5600+SCIEX
Instrument type: ESI-QTOF
Ms type: MS2
Ion mode: POSITIVE
Ionization: ESI
Fragmentation mode: CID
Collision energy: 10 eV
Resolution: 15000
Precursor m/z: 254.0594
Precursor type: [M+H]+
m/z	relative intensity
92.0507	3
93.0585	2
94.0664	1
99.0565	2
107.0612	1
108.0452	8
146.0717	2
147.0797	7
148.0875	2
156.0121	39
160.0877	4
188.0826	12
190.0983	6
194.039	3
213.0204	1
254.0594	999
