Mass spectrum: Alternariol; LC-ESI-ITFT; MS2; CE: 60%; R=7500; [M+H]+
Name: Alternariol
Name: 3,7,9-trihydroxy-1-methylbenzo[c]chromen-6-one
Formula: C14H10O5
Exact mass: 258.0528
SMILES: CC1=CC(=CC2=C1C3=C(C(=CC(=C3)O)O)C(=O)O2)O
InChI: InChI=1S/C14H10O5/c1-6-2-7(15)5-11-12(6)9-3-8(16)4-10(17)13(9)14(18)19-11/h2-5,15-17H,1H3
Instrument: LTQ Orbitrap XL Thermo Scientific
Instrument type: LC-ESI-ITFT
Ms type: MS2
Ion mode: POSITIVE
Ionization: ESI
Fragmentation mode: HCD
Collision energy: 60 % (nominal)
Resolution: 7500
Column name: Hypersil GOLD C18 1.9 um 100 x 2.1 mm Thermo Fisher Scientific
Retention time: 18.062 min
Base peak: 259.0606
Precursor m/z: 259.0601
Precursor type: [M+H]+
Precursor intensity: 4160948.613037
m/z	relative intensity	assigned
241.0502	42	C14H9O4+
244.0374	15	C13H8O5+
259.0606	999	C14H11O5+
