Mass spectrum: Mefruside; ESI-QTOF; MS2; CE: 35eV; R=15000; [M+H]+
Name: Mefruside
Name: 4-Chloro-N1-methyl-N1-[(2-methyloxolan-2-yl)methyl]benzene-1,3-disulfonamide
Formula: C13H19ClN2O5S2
Exact mass: 382.0424
SMILES: CN(CC1(C)CCCO1)S(=O)(=O)C1=CC=C(Cl)C(=C1)S(N)(=O)=O
InChI: InChI=1S/C13H19ClN2O5S2/c1-13(6-3-7-21-13)9-16(2)23(19,20)10-4-5-11(14)12(8-10)22(15,17)18/h4-5,8H,3,6-7,9H2,1-2H3,(H2,15,17,18)
Instrument: TripleTOF 5600+SCIEX
Instrument type: ESI-QTOF
Ms type: MS2
Ion mode: POSITIVE
Ionization: ESI
Fragmentation mode: CID
Collision energy: 35 eV
Resolution: 15000
Precursor m/z: 383.0497
Precursor type: [M+H]+
m/z	relative intensity
51.0253	2
53.0416	14
55.057	15
56.0526	2
57.0363	75
57.0482	2
58.0672	4
62.0072	3
65.0414	4
66.0493	2
68.0511	1
69.072	56
70.0671	8
70.0719	2
71.0879	15
72.9851	2
73.0912	3
74.0185	1
77.0405	10
79.0561	105
80.0493	1
81.0158	1
81.0458	2
81.0716	709
82.0665	6
82.9842	1
83.087	2
84.0136	2
84.0261	2
84.0825	527
85.0909	2
86.0616	113
87.069	2
88.9786	1
91.0555	1
93.0701	1
94.0662	6
95.0744	7
96.0819	72
97.0662	20
97.0711	1
98.0069	1
98.0978	9
99.0009	3
99.0816	430
99.9964	1
100.1133	4
101.0164	2
102.012	1
104.0494	1
105.0566	1
106.0295	1
107.0862	2
108.0813	2
108.9846	21
110.0974	50
111.1053	38
112.113	26
112.9796	4
114.0111	4
114.9954	10
116.9565	7
119.0868	3
119.9679	4
122.0247	1
123.9953	3
126.9947	2
128.1078	136
129.1156	999
129.9366	1
130.9029	1
135.0805	2
136.994	1
139.9914	5
140.9746	18
142.0064	54
142.9904	137
143.9676	4
144.9512	4
146.9674	1
155.0009	1
156.0218	18
156.9514	1
171.963	1
172.9469	25
174.9622	2
176.9388	1
189.9735	161
190.9574	5
201.9608	1
203.9893	155
205.9672	1
207.9841	32
208.9127	1
209.9435	1
217.9797	372
218.9759	4
219.9834	1
221.9987	3
223.9616	1
225.939	3
231.9947	5
237.9414	8
253.9358	827
254.9171	1
267.9515	320
284.0984	2
284.9782	564
285.9598	2
288.0479	1
296.0648	1
296.9783	142
297.9647	1
301.0777	1
310.9905	2
319.0881	1
342.0181	1
383.0497	4
