Mass spectrum: Dosulepin; LC-ESI-ITFT; MS2; CE: 170%; R=15000; [M+H]+
Name: Dosulepin
Name: Dothiepin
Name: 3-(6H-benzo[c][1]benzothiepin-11-ylidene)-N,N-dimethylpropan-1-amine
Formula: C19H21NS
Exact mass: 295.1395
SMILES: CN(C)CCC=C1C2=CC=CC=C2CSC3=CC=CC=C31
InChI: InChI=1S/C19H21NS/c1-20(2)13-7-11-17-16-9-4-3-8-15(16)14-21-19-12-6-5-10-18(17)19/h3-6,8-12H,7,13-14H2,1-2H3
Instrument: LTQ Orbitrap XL Thermo Scientific
Instrument type: LC-ESI-ITFT
Ms type: MS2
Ion mode: POSITIVE
Ionization: ESI
Fragmentation mode: HCD
Collision energy: 170% (nominal)
Resolution: 15000
Column name: Kinetex Evo C18 2.6 um 50 x 2.1 mm
Retention time: 8.166 min
Base peak: 296.1468
Precursor m/z: 296.1467
Precursor type: [M+H]+
m/z	relative intensity	assigned
58.0649	49	C3H8N+
65.0384	140	C5H5+
77.0385	47	C6H5+
89.0386	59	C7H5+
91.0542	292	C7H7+
103.0542	28	C8H7+
105.0448	66	C6H5N2+
115.0542	385	C9H7+
127.0537	21	C10H7+
128.062	96	C10H8+
139.0543	89	C11H7+
150.0464	34	C12H6+
151.0544	106	C12H7+
152.062	309	C12H8+
155.0603	32	C10H7N2+
163.0542	130	C13H7+
164.062	94	C13H8+
165.0699	288	C13H9+
169.0643	44	C12H9O+
175.0541	22	C14H7+
176.062	499	C14H8+
177.0699	130	C14H9+
178.0776	202	C14H10+
179.0604	58	C12H7N2+
187.0548	27	C15H7+
188.0627	41	C15H8+
189.0699	501	C15H9+
200.0621	356	C16H8+
201.0699	359	C16H9+
202.0776	999	C16H10+
208.0341	68	C14H8S+
213.0699	137	C17H9+
214.0768	31	C17H10+
215.0854	494	C17H11+
219.0261	80	C15H7S+
219.0805	44	C16H11O+
220.0339	98	C15H8S+
221.0418	370	C15H9S+
229.0757	31	C16H9N2+
232.0342	42	C16H8S+
233.041	37	C16H9S+
234.0499	83	C16H10S+
