Mass spectrum: Tetracycline; LC-ESI-ITFT; MS2; CE: 120%; R=15000; [M+H]+
Name: Tetracycline
Name: 2-[amino(hydroxy)methylidene]-4-(dimethylamino)-6,10,11,12a-tetrahydroxy-6-methyl-4,4a,5,5a-tetrahydrotetracene-1,3,12-trione
Formula: C22H24N2O8
Exact mass: 444.1533
SMILES: [H][C@@]12C[C@@]3([H])C(=C(O)[C@]1(O)C(=O)C(C(N)=O)=C(O)[C@H]2N(C)C)C(=O)C1=C(C=CC=C1O)[C@@]3(C)O
InChI: InChI=1S/C22H24N2O8/c1-21(31)8-5-4-6-11(25)12(8)16(26)13-9(21)7-10-15(24(2)3)17(27)14(20(23)30)19(29)22(10,32)18(13)28/h4-6,9-10,15,25,27-28,31-32H,7H2,1-3H3,(H2,23,30)/t9-,10-,15-,21+,22-/m0/s1
Instrument: LTQ Orbitrap XL Thermo Scientific
Instrument type: LC-ESI-ITFT
Ms type: MS2
Ion mode: POSITIVE
Ionization: ESI
Fragmentation mode: HCD
Collision energy: 120% (nominal)
Resolution: 15000
Column name: Kinetex Evo C18 2.6 um 50 x 2.1 mm
Retention time: 2.761 min
Base peak: 300.1474
Precursor m/z: 445.1605
Precursor type: [M+H]+
m/z	relative intensity	assigned
70.0651	138	C4H8N+
98.0601	152	C5H8NO+
115.0538	102	C9H7+
140.0619	186	C11H8+
141.07	117	C11H9+
152.062	999	C12H8+
153.0699	70	C12H9+
164.0618	120	C13H8+
165.0698	479	C13H9+
168.057	898	C12H8O+
169.0652	71	C12H9O+
176.0619	191	C14H8+
178.0772	111	C14H10+
180.057	410	C13H8O+
181.0645	186	C13H9O+
189.07	122	C15H9+
192.0565	95	C14H8O+
196.0519	223	C13H8O2+
197.0599	239	C13H9O2+
198.0677	128	C13H10O2+
221.0601	88	C15H9O2+
226.062	414	C14H10O3+
