Mass spectrum: Phenazone; LC-ESI-QFT; MS2; CE: 40%; R=30000; [M+H]+
Name: Phenazone
Name: 1,5-Dimethyl-2-phenyl-1,2-dihydro-3H-pyrazol-3-one
Formula: C11H12N2O
Exact mass: 188.095
SMILES: CN1N(C(=O)C=C1C)C1=CC=CC=C1
InChI: InChI=1S/C11H12N2O/c1-9-8-11(14)13(12(9)2)10-6-4-3-5-7-10/h3-8H,1-2H3
Instrument: Orbitrap Fusion Tribrid Thermo Fisher Scientific
Instrument type: LC-ESI-QFT
Ms type: MS2
Ion mode: POSITIVE
Ionization: ESI
Fragmentation mode: HCD
Collision energy: 40% (nominal)
Resolution: 30000
Precursor m/z: 189.1023
Precursor type: [M+H]+
m/z	relative intensity
54.034	5
55.018	50
55.0544	26
56.0496	999
58.0653	792
65.0388	92
68.0497	30
69.0575	35
70.0653	25
77.0388	142
79.0544	27
81.0449	54
86.0603	11
91.0544	129
92.0497	32
93.0337	27
94.0653	23
95.0606	55
96.0684	221
98.0603	85
103.0545	49
104.0497	527
105.0575	26
106.0654	329
111.0555	14
115.0544	34
117.0701	138
118.0653	215
120.0809	160
129.0575	18
130.0653	223
131.0731	265
132.0809	103
133.0524	33
134.0966	31
143.0731	13
144.0809	179
145.0651	76
146.084	187
147.0919	293
148.0758	14
149.0711	20
157.0524	25
161.1075	79
172.0759	24
174.079	85
189.1023	374
