Mass spectrum: Dosulepin; LC-ESI-ITFT; MS2; CE: 75%; R=15000; [M+H]+
Name: Dosulepin
Name: Dothiepin
Name: 3-(6H-benzo[c][1]benzothiepin-11-ylidene)-N,N-dimethylpropan-1-amine
Formula: C19H21NS
Exact mass: 295.1395
SMILES: CN(C)CCC=C1C2=CC=CC=C2CSC3=CC=CC=C31
InChI: InChI=1S/C19H21NS/c1-20(2)13-7-11-17-16-9-4-3-8-15(16)14-21-19-12-6-5-10-18(17)19/h3-6,8-12H,7,13-14H2,1-2H3
Instrument: LTQ Orbitrap XL Thermo Scientific
Instrument type: LC-ESI-ITFT
Ms type: MS2
Ion mode: POSITIVE
Ionization: ESI
Fragmentation mode: HCD
Collision energy: 75% (nominal)
Resolution: 15000
Column name: Kinetex Evo C18 2.6 um 50 x 2.1 mm
Retention time: 8.168 min
Base peak: 296.1465
Precursor m/z: 296.1467
Precursor type: [M+H]+
m/z	relative intensity	assigned
58.0649	210	C3H8N+
70.0649	13	C4H8N+
84.0808	39	C5H10N+
91.0542	395	C7H7+
103.0543	10	C8H7+
115.0542	194	C9H7+
117.0698	684	C9H9+
123.0263	269	C7H7S+
128.0622	22	C10H8+
129.0699	106	C10H9+
135.0263	59	C8H7S+
141.0699	86	C11H9+
142.0776	63	C11H10+
147.0262	214	C9H7S+
165.0698	276	C13H9+
173.0419	60	C11H9S+
178.0777	458	C14H10+
179.0855	172	C14H11+
189.0698	12	C15H9+
190.0775	41	C15H10+
191.0855	235	C15H11+
192.0933	264	C15H12+
197.0418	15	C13H9S+
202.0776	257	C16H10+
203.0855	999	C16H11+
204.0932	48	C16H12+
205.1002	13	C16H13+
208.0339	45	C14H8S+
209.0418	130	C14H9S+
210.0497	358	C14H10S+
211.0583	11	C14H11S+
215.0855	47	C17H11+
216.0933	42	C17H12+
217.1011	836	C17H13+
218.1089	663	C17H14+
221.0418	689	C15H9S+
222.0496	381	C15H10S+
223.0574	767	C15H11S+
225.0732	93	C15H13S+
234.0497	60	C16H10S+
235.0575	215	C16H11S+
236.0653	124	C16H12S+
