Mass spectrum: Tetracycline; LC-ESI-ITFT; MS2; CE: 55%; R=15000; [M+H]+
Name: Tetracycline
Name: 2-[amino(hydroxy)methylidene]-4-(dimethylamino)-6,10,11,12a-tetrahydroxy-6-methyl-4,4a,5,5a-tetrahydrotetracene-1,3,12-trione
Formula: C22H24N2O8
Exact mass: 444.1533
SMILES: [H][C@@]12C[C@@]3([H])C(=C(O)[C@]1(O)C(=O)C(C(N)=O)=C(O)[C@H]2N(C)C)C(=O)C1=C(C=CC=C1O)[C@@]3(C)O
InChI: InChI=1S/C22H24N2O8/c1-21(31)8-5-4-6-11(25)12(8)16(26)13-9(21)7-10-15(24(2)3)17(27)14(20(23)30)19(29)22(10,32)18(13)28/h4-6,9-10,15,25,27-28,31-32H,7H2,1-3H3,(H2,23,30)/t9-,10-,15-,21+,22-/m0/s1
Instrument: LTQ Orbitrap XL Thermo Scientific
Instrument type: LC-ESI-ITFT
Ms type: MS2
Ion mode: POSITIVE
Ionization: ESI
Fragmentation mode: HCD
Collision energy: 55% (nominal)
Resolution: 15000
Column name: Kinetex Evo C18 2.6 um 50 x 2.1 mm
Retention time: 2.655 min
Base peak: 300.1475
Precursor m/z: 445.1605
Precursor type: [M+H]+
m/z	relative intensity	assigned
58.0649	50	C3H8N+
70.0651	12	C4H8N+
84.0446	16	C4H6NO+
86.06	103	C4H8NO+
98.0601	999	C5H8NO+
126.0549	146	C6H8NO2+
139.0266	16	C6H5NO3+
152.0342	11	C7H6NO3+
154.0499	798	C7H8NO3+
169.0034	15	C9HN2O2+
187.0754	26	C12H11O2+
194.0448	20	C9H8NO4+
195.0806	15	C14H11O+
211.0761	17	C14H11O2+
213.0912	31	C14H13O2+
223.0752	63	C15H11O2+
226.0629	50	C14H10O3+
235.0743	13	C16H11O2+
236.0464	13	C15H8O3+
239.0704	50	C15H11O3+
241.086	628	C15H13O3+
242.0573	40	C14H10O4+
243.0653	45	C14H11O4+
251.0704	144	C16H11O3+
252.0421	45	C15H8O4+
253.0858	18	C16H13O3+
254.0574	44	C15H10O4+
257.081	158	C15H13O4+
263.07	39	C17H11O3+
267.0653	433	C16H11O4+
269.0809	656	C16H13O4+
278.0573	69	C17H10O4+
279.065	37	C17H11O4+
281.1042	12	C17H15NO3+
291.0655	115	C18H11O4+
293.0807	53	C18H13O4+
296.1283	41	C18H18NO3+
297.0761	29	C17H13O5+
303.0657	10	C19H11O4+
306.0532	24	C18H10O5+
309.0751	13	C18H13O5+
319.0608	49	C19H11O5+
321.0764	92	C19H13O5+
334.047	65	C19H10O6+
337.0708	139	C19H13O6+
349.071	54	C20H13O6+
