Mass spectrum: Antipyrine; LC-ESI-ITFT; MS2; CE: 50%; R=15000; [M+H]+
Name: Antipyrine
Name: 1,5-dimethyl-2-phenylpyrazol-3-one
Formula: C11H12N2O
Exact mass: 188.0950
SMILES: CC1=CC(=O)N(N1C)C2=CC=CC=C2
InChI: InChI=1S/C11H12N2O/c1-9-8-11(14)13(12(9)2)10-6-4-3-5-7-10/h3-8H,1-2H3
Instrument: LTQ Orbitrap XL Thermo Scientific
Instrument type: LC-ESI-ITFT
Ms type: MS2
Ion mode: POSITIVE
Ionization: ESI
Fragmentation mode: HCD
Collision energy: 50% (nominal)
Resolution: 15000
Column name: Kinetex Evo C18 2.6 um 50 x 2.1 mm
Retention time: 5.974 min
Base peak: 189.1023
Precursor m/z: 189.1022
Precursor type: [M+H]+
m/z	relative intensity	assigned
56.0492	22	C3H6N+
58.0649	24	C3H8N+
70.065	2	C4H8N+
86.06	1	C4H8NO+
91.0543	5	C7H7+
96.0443	3	C5H6NO+
96.0682	13	C5H8N2+
98.0601	2	C5H8NO+
104.0495	20	C7H6N+
105.0336	1	C7H5O+
105.07	1	C8H9+
106.0651	7	C7H8N+
111.0557	1	C5H7N2O+
117.0571	2	C8H7N+
117.0699	3	C9H9+
118.0651	11	C8H8N+
120.0808	13	C8H10N+
130.0652	15	C9H8N+
131.073	24	C9H9N+
132.0808	13	C9H10N+
133.0525	1	C8H7NO+
133.076	3	C8H9N2+
134.0965	2	C9H12N+
135.0552	1	C7H7N2O+
144.0808	23	C10H10N+
145.0648	8	C10H9O+
146.0839	24	C9H10N2+
146.0965	9	C10H12N+
147.0917	42	C9H11N2+
148.0757	3	C9H10NO+
149.0709	2	C8H9N2O+
157.0519	1	C10H7NO+
158.0594	1	C10H8NO+
161.1073	50	C10H13N2+
172.0758	6	C11H10NO+
174.0788	21	C10H10N2O+
189.1022	999	C11H13N2O+
