Mass spectrum: Isoproturon-desaturation (TENTATIVE); LC-ESI-QFT; MS2; CE: 30%; R=70000; [M+H]+
Name: Isoproturon-desaturation
Formula: C12H16N2O
Exact mass: 204.1254
SMILES: C=C(C)C1=CC=C(C=C1)NC(=O)N(C)C
InChI: InChI=1S/C12H16N2O/c1-9(2)10-5-7-11(8-6-10)13-12(15)14(3)4/h5-8H,1H2,2-4H3,(H,13,15)
Instrument: Q Exactive Plus Orbitrap Thermo Scientific
Instrument type: LC-ESI-QFT
Ms type: MS2
Ion mode: POSITIVE
Ionization: ESI
Fragmentation mode: HCD
Collision energy: 30% (nominal)
Resolution: 70000
Column name: Waters UPLC BEH C18 1.7 um 2.1 mm x 100 mm with pre-column
Retention time: 12.57 min
Precursor m/z: 205.1332
Precursor type: [M+H]+
m/z	relative intensity
51.0234	3
56.0134	12
72.0444	999
79.0543	5
91.0542	6
92.0495	3
105.0699	28
115.0542	13
117.0574	8
130.0652	5
132.0446	6
132.0808	93
160.0759	2
