Mass spectrum: Tetracycline; LC-ESI-ITFT; MS2; CE: 85%; R=15000; [M+H]+
Name: Tetracycline
Name: 2-[amino(hydroxy)methylidene]-4-(dimethylamino)-6,10,11,12a-tetrahydroxy-6-methyl-4,4a,5,5a-tetrahydrotetracene-1,3,12-trione
Formula: C22H24N2O8
Exact mass: 444.1533
SMILES: [H][C@@]12C[C@@]3([H])C(=C(O)[C@]1(O)C(=O)C(C(N)=O)=C(O)[C@H]2N(C)C)C(=O)C1=C(C=CC=C1O)[C@@]3(C)O
InChI: InChI=1S/C22H24N2O8/c1-21(31)8-5-4-6-11(25)12(8)16(26)13-9(21)7-10-15(24(2)3)17(27)14(20(23)30)19(29)22(10,32)18(13)28/h4-6,9-10,15,25,27-28,31-32H,7H2,1-3H3,(H2,23,30)/t9-,10-,15-,21+,22-/m0/s1
Instrument: LTQ Orbitrap XL Thermo Scientific
Instrument type: LC-ESI-ITFT
Ms type: MS2
Ion mode: POSITIVE
Ionization: ESI
Fragmentation mode: HCD
Collision energy: 85% (nominal)
Resolution: 15000
Column name: Kinetex Evo C18 2.6 um 50 x 2.1 mm
Retention time: 2.884 min
Base peak: 300.1475
Precursor m/z: 445.1605
Precursor type: [M+H]+
m/z	relative intensity	assigned
58.0649	57	C3H8N+
68.9971	20	C3HO2+
70.065	116	C4H8N+
86.0601	88	C4H8NO+
98.0601	766	C5H8NO+
126.0551	19	C6H8NO2+
131.0494	33	C9H7O+
152.0617	25	C12H8+
165.0705	33	C13H9+
167.0858	52	C13H11+
168.0571	62	C12H8O+
177.0703	40	C14H9+
178.0777	28	C14H10+
180.0565	41	C13H8O+
181.0647	24	C13H9O+
185.0968	19	C13H13O+
187.0752	45	C12H11O2+
195.0804	195	C14H11O+
196.0518	145	C13H8O2+
198.0673	85	C13H10O2+
205.0641	32	C15H9O+
207.0808	43	C15H11O+
208.0521	22	C14H8O2+
211.0755	113	C14H11O2+
213.0909	69	C14H13O2+
220.052	27	C15H8O2+
223.0753	170	C15H11O2+
224.0468	183	C14H8O3+
226.0624	999	C14H10O3+
235.0759	62	C16H11O2+
236.0471	49	C15H8O3+
238.063	67	C15H10O3+
239.0706	76	C15H11O3+
241.086	155	C15H13O3+
242.0574	156	C14H10O4+
247.0751	22	C17H11O2+
250.0626	46	C16H10O3+
251.0707	55	C16H11O3+
252.0418	446	C15H8O4+
254.0573	141	C15H10O4+
263.0706	22	C17H11O3+
267.0655	102	C16H11O4+
269.0807	39	C16H13O4+
276.0405	38	C17H8O4+
278.0576	103	C17H10O4+
