Mass spectrum: Metoclopramide; LC-ESI-ITFT; MS2; CE: 95%; R=15000; [M+H]+
Name: Metoclopramide
Name: 4-amino-5-chloro-N-[2-(diethylamino)ethyl]-2-methoxybenzamide
Formula: C14H22ClN3O2
Exact mass: 299.1401
SMILES: CCN(CC)CCNC(=O)C1=CC(=C(C=C1OC)N)Cl
InChI: InChI=1S/C14H22ClN3O2/c1-4-18(5-2)7-6-17-14(19)10-8-11(15)12(16)9-13(10)20-3/h8-9H,4-7,16H2,1-3H3,(H,17,19)
Instrument: LTQ Orbitrap XL Thermo Scientific
Instrument type: LC-ESI-ITFT
Ms type: MS2
Ion mode: POSITIVE
Ionization: ESI
Fragmentation mode: HCD
Collision energy: 95% (nominal)
Resolution: 15000
Column name: Kinetex Evo C18 2.6 um 50 x 2.1 mm
Retention time: 2.743 min
Base peak: 300.1474
Precursor m/z: 300.1473
Precursor type: [M+H]+
m/z	relative intensity	assigned
63.0228	14	C5H3+
65.0385	7	C5H5+
72.0807	14	C4H10N+
80.0494	4	C5H6N+
90.0339	142	C6H4N+
92.0496	18	C6H6N+
93.0574	69	C6H7N+
98.9997	22	C5H4Cl+
100.1122	24	C6H14N+
108.0445	26	C6H6NO+
113.0028	150	C5H4ClN+
120.0445	33	C7H6NO+
126.0106	142	C6H5ClN+
128.0263	67	C6H7ClN+
129.0103	29	C6H6ClO+
140.0137	12	C6H5ClN2+
140.9977	588	C6H4ClNO+
144.0212	51	C6H7ClNO+
147.0554	9	C8H7N2O+
148.0632	65	C8H8N2O+
154.0056	81	C7H5ClNO+
155.013	5	C10H3O2+
156.0212	135	C7H7ClNO+
157.0248	2	C2H8ClN3O3+
168.0087	454	C7H5ClN2O+
168.9926	199	C7H4ClNO2+
170.0005	65	C7H5ClNO2+
181.0167	15	C8H6ClN2O+
182.0244	34	C8H7ClN2O+
183.0322	137	C8H8ClN2O+
184.0162	999	C8H7ClNO2+
187.0032	75	C7H6ClNO3+
211.0272	24	C9H8ClN2O2+
212.0349	210	C9H9ClN2O2+
227.0585	25	C10H12ClN2O2+
