Mass spectrum: Cyclizine; ESI-QTOF; MS2; CE: 15eV; R=15000; [M+H]+
Name: Cyclizine
Name: 1-(Diphenylmethyl)-4-methylpiperazine
Formula: C18H22N2
Exact mass: 266.1783
SMILES: CN1CCN(CC1)C(C1=CC=CC=C1)C1=CC=CC=C1
InChI: InChI=1S/C18H22N2/c1-19-12-14-20(15-13-19)18(16-8-4-2-5-9-16)17-10-6-3-7-11-17/h2-11,18H,12-15H2,1H3
Instrument: TripleTOF 5600+SCIEX
Instrument type: ESI-QTOF
Ms type: MS2
Ion mode: POSITIVE
Ionization: ESI
Fragmentation mode: CID
Collision energy: 15 eV
Resolution: 15000
Precursor m/z: 267.1856
Precursor type: [M+H]+
m/z	relative intensity
57.0723	1
71.0872	1
72.0824	1
81.0711	1
83.0867	1
85.1022	1
95.0863	2
97.1019	1
99.0923	2
109.1015	2
111.1171	1
123.1169	1
137.1324	1
152.062	8
166.0775	2
167.0861	999
267.1856	120
