Mass spectrum: Dixyrazine; LC-ESI-ITFT; MS2; CE: 100%; R=15000; [M+H]+
Name: Dixyrazine
Name: 2-[2-[4-(2-methyl-3-phenothiazin-10-ylpropyl)piperazin-1-yl]ethoxy]ethanol
Formula: C24H33N3O2S
Exact mass: 427.2293
SMILES: CC(CN1CCN(CC1)CCOCCO)CN2C3=CC=CC=C3SC4=CC=CC=C42
InChI: InChI=1S/C24H33N3O2S/c1-20(18-26-12-10-25(11-13-26)14-16-29-17-15-28)19-27-21-6-2-4-8-23(21)30-24-9-5-3-7-22(24)27/h2-9,20,28H,10-19H2,1H3
Instrument: LTQ Orbitrap XL Thermo Scientific
Instrument type: LC-ESI-ITFT
Ms type: MS2
Ion mode: POSITIVE
Ionization: ESI
Fragmentation mode: HCD
Collision energy: 100% (nominal)
Resolution: 15000
Column name: Kinetex Evo C18 2.6 um 50 x 2.1 mm
Retention time: 8.957 min
Base peak: 428.2363
Precursor m/z: 428.2366
Precursor type: [M+H]+
m/z	relative intensity	assigned
56.0492	94	C3H6N+
57.057	11	C3H7N+
57.0696	11	C4H9+
58.0649	136	C3H8N+
68.0493	21	C4H6N+
70.065	439	C4H8N+
71.0728	8	C4H9N+
72.0806	11	C4H10N+
82.0651	116	C5H8N+
83.0603	93	C4H7N2+
84.0807	45	C5H10N+
87.044	54	C4H7O2+
97.076	495	C5H9N2+
98.0838	999	C5H10N2+
99.0916	43	C5H11N2+
101.1072	119	C5H13N2+
111.0916	14	C6H11N2+
112.0995	26	C6H12N2+
125.1077	9	C7H13N2+
144.102	17	C7H14NO2+
151.0539	23	C12H7+
152.0617	27	C12H8+
153.0573	7	C11H7N+
153.0695	15	C12H9+
167.0729	46	C12H9N+
171.0257	13	C11H7S+
178.0653	52	C13H8N+
179.073	260	C13H9N+
180.0808	913	C13H10N+
184.0338	20	C12H8S+
185.0426	7	C12H9S+
198.0374	22	C12H8NS+
199.0451	25	C12H9NS+
212.0528	74	C13H10NS+
220.112	7	C16H14N+
