Mass spectrum: Dibucaine; LC-ESI-ITFT; MS2; CE: 110%; R=15000; [M+H]+
Name: Dibucaine
Name: 2-butoxy-N-[2-(diethylamino)ethyl]quinoline-4-carboxamide
Formula: C20H29N3O2
Exact mass: 343.2260
SMILES: CCCCOC1=NC2=CC=CC=C2C(=C1)C(=O)NCCN(CC)CC
InChI: InChI=1S/C20H29N3O2/c1-4-7-14-25-19-15-17(16-10-8-9-11-18(16)22-19)20(24)21-12-13-23(5-2)6-3/h8-11,15H,4-7,12-14H2,1-3H3,(H,21,24)
Instrument: LTQ Orbitrap XL Thermo Scientific
Instrument type: LC-ESI-ITFT
Ms type: MS2
Ion mode: POSITIVE
Ionization: ESI
Fragmentation mode: HCD
Collision energy: 110% (nominal)
Resolution: 15000
Column name: Kinetex Evo C18 2.6 um 50 x 2.1 mm
Retention time: 8.747 min
Base peak: 344.2333
Precursor m/z: 344.2333
Precursor type: [M+H]+
m/z	relative intensity	assigned
57.0696	23	C4H9+
72.0806	11	C4H10N+
74.0964	7	C4H12N+
89.0385	45	C7H5+
100.112	8	C6H14N+
115.0544	4	C9H7+
116.0494	999	C8H6N+
117.0572	5	C8H7N+
118.0657	3	C8H8N+
128.0495	12	C9H6N+
129.0448	2	C8H5N2+
130.0652	7	C9H8N+
134.06	13	C8H8NO+
142.0648	2	C10H8N+
143.0363	6	C9H5NO+
143.0603	4	C9H7N2+
143.0728	2	C10H9N+
144.0443	91	C9H6NO+
145.052	11	C9H7NO+
146.0596	3	C9H8NO+
153.0448	14	C10H5N2+
157.0884	2	C11H11N+
160.0757	1	C10H10NO+
167.0722	2	C12H9N+
169.0764	1	C11H9N2+
170.0601	2	C11H8NO+
171.0552	25	C10H7N2O+
172.0392	14	C10H6NO2+
215.0819	2	C12H11N2O2+
