Mass spectrum: Aspercolorin; LC-ESI-ITFT; MS2; CE: 60%; R=7500; [M+H]+
Name: Aspercolorin
Name: 14-benzyl-19-methoxy-2,8,12,15-tetrazatricyclo[15.4.0.04,8]henicosa-1(17),18,20-triene-3,9,13,16-tetrone
Formula: C25H28N4O5
Exact mass: 464.2060
SMILES: COC1=CC2=C(C=C1)NC(=O)C3CCCN3C(=O)CCNC(=O)C(NC2=O)CC4=CC=CC=C4
InChI: InChI=1S/C25H28N4O5/c1-34-17-9-10-19-18(15-17)23(31)28-20(14-16-6-3-2-4-7-16)24(32)26-12-11-22(30)29-13-5-8-21(29)25(33)27-19/h2-4,6-7,9-10,15,20-21H,5,8,11-14H2,1H3,(H,26,32)(H,27,33)(H,28,31)
Instrument: LTQ Orbitrap XL Thermo Scientific
Instrument type: LC-ESI-ITFT
Ms type: MS2
Ion mode: POSITIVE
Ionization: ESI
Fragmentation mode: HCD
Collision energy: 60 % (nominal)
Resolution: 7500
Column name: Hypersil GOLD C18 1.9 um 100 x 2.1 mm Thermo Fisher Scientific
Retention time: 19.757 min
Base peak: 465.2133
Precursor m/z: 465.2132
Precursor type: [M+H]+
Precursor intensity: 7982286.074951
m/z	relative intensity	assigned
70.065	197	C4H8N+
120.0807	999	C8H10N+
124.0755	50	C7H10NO+
130.0648	25	C9H8N+
132.081	49	C9H10N+
141.1023	47	C7H13N2O+
150.0548	176	C8H8NO2+
172.203	9	C8H28O3+
174.0912	103	C11H12NO+
177.1023	39	C10H13N2O+
178.0499	139	C9H8NO3+
191.1174	15	C11H15N2O+
192.0654	34	C10H10NO3+
219.1125	57	C12H15N2O2+
