Mass spectrum: Cyclopeptin; LC-ESI-ITFT; MS2; CE: 50%; R=7500; [M+H]+
Name: Cyclopeptin
Name: Cyclopeptine
Name: 3-benzyl-4-methyl-1,3-dihydro-1,4-benzodiazepine-2,5-dione
Formula: C17H16N2O2
Exact mass: 280.1212
SMILES: CN1C(C(=O)NC2=CC=CC=C2C1=O)CC3=CC=CC=C3
InChI: InChI=1S/C17H16N2O2/c1-19-15(11-12-7-3-2-4-8-12)16(20)18-14-10-6-5-9-13(14)17(19)21/h2-10,15H,11H2,1H3,(H,18,20)
Instrument: LTQ Orbitrap XL Thermo Scientific
Instrument type: LC-ESI-ITFT
Ms type: MS2
Ion mode: POSITIVE
Ionization: ESI
Fragmentation mode: HCD
Collision energy: 50 % (nominal)
Resolution: 7500
Column name: Hypersil GOLD C18 1.9 um 100 x 2.1 mm Thermo Fisher Scientific
Retention time: 16.952 min
Base peak: 281.1291
Precursor m/z: 281.1285
Precursor type: [M+H]+
Precursor intensity: 17811121.11206
m/z	relative intensity	assigned
91.0542	12	C7H7+
105.07	1	C8H9+
120.0446	473	C7H6NO+
131.0495	24	C9H7O+
132.0446	12	C8H6NO+
132.0808	3	C9H10N+
134.0966	394	C9H12N+
144.0805	2	C10H10N+
146.0239	23	C8H4NO2+
146.0841	11	C9H10N2+
148.0395	93	C8H6NO2+
160.0759	53	C10H10NO+
161.0471	8	C9H7NO2+
161.0713	9	C9H9N2O+
177.0661	9	C9H9N2O2+
189.0659	30	C10H9N2O2+
190.0739	19	C10H10N2O2+
196.1123	17	C14H14N+
206.0963	4	C15H12N+
222.0917	26	C15H12NO+
238.0862	5	C15H12NO2+
250.0863	22	C16H12NO2+
253.1334	11	C16H17N2O+
263.1182	13	C17H15N2O+
281.1289	999	C17H17N2O2+
