Mass spectrum: Antipyrine; LC-ESI-ITFT; MS2; CE: 75%; R=15000; [M+H]+
Name: Antipyrine
Name: 1,5-dimethyl-2-phenylpyrazol-3-one
Formula: C11H12N2O
Exact mass: 188.0950
SMILES: CC1=CC(=O)N(N1C)C2=CC=CC=C2
InChI: InChI=1S/C11H12N2O/c1-9-8-11(14)13(12(9)2)10-6-4-3-5-7-10/h3-8H,1-2H3
Instrument: LTQ Orbitrap XL Thermo Scientific
Instrument type: LC-ESI-ITFT
Ms type: MS2
Ion mode: POSITIVE
Ionization: ESI
Fragmentation mode: HCD
Collision energy: 75% (nominal)
Resolution: 15000
Column name: Kinetex Evo C18 2.6 um 50 x 2.1 mm
Retention time: 5.661 min
Base peak: 189.1022
Precursor m/z: 189.1022
Precursor type: [M+H]+
m/z	relative intensity	assigned
55.0177	17	C3H3O+
55.054	6	C4H7+
56.0493	489	C3H6N+
58.0649	385	C3H8N+
65.0384	65	C5H5+
68.0494	15	C4H6N+
69.0571	14	C4H7N+
70.065	19	C4H8N+
77.0386	96	C6H5+
79.0542	16	C6H7+
81.0447	41	C4H5N2+
86.0599	13	C4H8NO+
91.0542	96	C7H7+
92.0495	33	C6H6N+
93.0336	23	C6H5O+
93.0573	8	C6H7N+
94.0651	21	C6H8N+
95.0492	19	C6H7O+
95.0604	52	C5H7N2+
96.0444	33	C5H6NO+
96.0682	224	C5H8N2+
98.06	103	C5H8NO+
103.0543	41	C8H7+
104.0495	542	C7H6N+
105.0335	25	C7H5O+
105.0447	39	C6H5N2+
105.0573	21	C7H7N+
105.0699	31	C8H9+
106.0651	390	C7H8N+
107.0601	4	C6H7N2+
111.0553	14	C5H7N2O+
115.0543	31	C9H7+
117.0573	58	C8H7N+
117.0699	148	C9H9+
118.0651	220	C8H8N+
119.0608	4	C7H7N2+
120.0442	9	C7H6NO+
120.0808	166	C8H10N+
128.0489	4	C9H6N+
129.0572	19	C9H7N+
130.0652	231	C9H8N+
131.0604	44	C8H7N2+
131.0729	253	C9H9N+
132.0682	33	C8H8N2+
132.0808	117	C9H10N+
133.0521	35	C8H7NO+
133.076	22	C8H9N2+
134.0964	32	C9H12N+
135.0549	4	C7H7N2O+
143.0729	13	C10H9N+
144.0808	224	C10H10N+
145.0649	108	C10H9O+
145.076	67	C9H9N2+
145.0888	11	C10H11N+
146.0839	229	C9H10N2+
146.0964	45	C10H12N+
147.0917	417	C9H11N2+
148.0758	22	C9H10NO+
149.071	35	C8H9N2O+
155.0605	6	C10H7N2+
157.0522	41	C10H7NO+
158.0598	11	C10H8NO+
159.055	9	C9H7N2O+
159.0918	15	C10H11N2+
160.0995	14	C10H12N2+
161.1073	167	C10H13N2+
162.0916	4	C10H12NO+
172.0756	34	C11H10NO+
173.0709	10	C10H9N2O+
174.0788	201	C10H10N2O+
189.1023	999	C11H13N2O+
