Mass spectrum: Tentotoxin; LC-ESI-ITFT; MS2; CE: 30%; R=7500; [M+H]+
Name: Tentotoxin
Name: 12-benzylidene-1,6,7-trimethyl-3-(2-methylpropyl)-1,4,7,10-tetrazacyclododecane-2,5,8,11-tetrone
Formula: C22H30N4O4
Exact mass: 414.2267
SMILES: CC1C(=O)NC(C(=O)N(C(=CC2=CC=CC=C2)C(=O)NCC(=O)N1C)C)CC(C)C
InChI: InChI=1S/C22H30N4O4/c1-14(2)11-17-22(30)26(5)18(12-16-9-7-6-8-10-16)21(29)23-13-19(27)25(4)15(3)20(28)24-17/h6-10,12,14-15,17H,11,13H2,1-5H3,(H,23,29)(H,24,28)
Instrument: LTQ Orbitrap XL Thermo Scientific
Instrument type: LC-ESI-ITFT
Ms type: MS2
Ion mode: POSITIVE
Ionization: ESI
Fragmentation mode: HCD
Collision energy: 30 % (nominal)
Resolution: 7500
Column name: Hypersil GOLD C18 1.9 um 100 x 2.1 mm Thermo Fisher Scientific
Retention time: 18.896 min
Base peak: 415.2344
Precursor m/z: 415.234
Precursor type: [M+H]+
Precursor intensity: 24863502.65039
m/z	relative intensity	assigned
58.065	198	C3H8N+
86.0962	22	C5H12N+
114.0909	10	C6H12NO+
115.0867	30	C5H11N2O+
132.0806	33	C9H10N+
143.0815	19	C6H11N2O2+
146.0966	12	C10H12N+
169.134	17	C9H17N2O+
171.1491	999	C9H19N2O+
173.1077	11	C11H13N2+
181.1338	32	C10H17N2O+
188.0706	42	C11H10NO2+
189.1023	362	C11H13N2O+
199.1442	191	C10H19N2O2+
210.1598	16	C11H20N3O+
217.0971	345	C12H13N2O2+
238.1551	201	C12H20N3O2+
256.1804	37	C16H22N3+
257.1652	8	C16H21N2O+
273.1592	27	C16H21N2O2+
274.1575	13	C17H22O3+
284.1766	13	C17H22N3O+
286.1904	7	C17H24N3O+
301.1547	67	C17H21N2O3+
302.15	389	C16H20N3O3+
312.1704	703	C18H22N3O2+
327.1697	48	C19H23N2O3+
330.1812	380	C18H24N3O3+
358.2127	453	C20H28N3O3+
384.1917	17	C21H26N3O4+
397.2236	17	C22H29N4O3+
415.2338	231	C22H31N4O4+
