Mass spectrum: Metoclopramide; LC-ESI-QTOF; MS2; CE: 20 eV; R=3600; [M+H]+
Name: Metoclopramide
Name: 4-Amino-5-chloro-N-[2-(diethylamino)ethyl]-2-methoxybenzamide
Formula: C14H22ClN3O2
Exact mass: 299.1401
SMILES: CCN(CC)CCNC(=O)C1=CC(Cl)=C(N)C=C1OC
InChI: InChI=1S/C14H22ClN3O2/c1-4-18(5-2)7-6-17-14(19)10-8-11(15)12(16)9-13(10)20-3/h8-9H,4-7,16H2,1-3H3,(H,17,19)
Instrument: 6623 QTOF Agilent
Instrument type: LC-ESI-QTOF
Ms type: MS2
Ion mode: POSITIVE
Ionization: ESI
Fragmentation mode: CID
Collision energy: 20 eV
Resolution: 3600
Precursor m/z: 300.1474
Precursor type: [M+H]+
m/z	relative intensity
90.0324	55
113.0007	75
126.0084	58
140.995	128
156.0186	54
168.0058	87
168.9902	68
183.0288	203
184.0132	873
212.0311	190
227.055	999
