Mass spectrum: Phentermine; LC-ESI-ITFT; MS2; CE: 55%; R=15000; [M+H]+
Name: Phentermine
Name: 2-methyl-1-phenylpropan-2-amine
Formula: C10H15N
Exact mass: 149.1204
SMILES: CC(C)(CC1=CC=CC=C1)N
InChI: InChI=1S/C10H15N/c1-10(2,11)8-9-6-4-3-5-7-9/h3-7H,8,11H2,1-2H3
Instrument: LTQ Orbitrap XL Thermo Scientific
Instrument type: LC-ESI-ITFT
Ms type: MS2
Ion mode: POSITIVE
Ionization: ESI
Fragmentation mode: HCD
Collision energy: 55% (nominal)
Resolution: 15000
Column name: Kinetex Evo C18 2.6 um 50 x 2.1 mm
Retention time: 1.065 min
Base peak: 150.1277
Precursor m/z: 150.1277
Precursor type: [M+H]+
m/z	relative intensity	assigned
91.0543	999	C7H7+
105.0699	54	C8H9+
133.1012	116	C10H13+
