Mass spectrum: Metazachlor-OH (TENTATIVE); LC-ESI-QFT; MS2; CE: 55%; R=70000; [M+H]+
Name: Metazachlor-OH
Formula: C14H16ClN3O2
Exact mass: 293.0919
SMILES: C(*)C1=C(C(=C(*)C(*)=C(*)1)C)N(C(*)N2C=C(*)C(*)=N2)C(=O)C(*)Cl *=[OH (n=1) & H (n=7)]
Instrument: Q Exactive Plus Orbitrap Thermo Scientific
Instrument type: LC-ESI-QFT
Ms type: MS2
Ion mode: POSITIVE
Ionization: ESI
Fragmentation mode: HCD
Collision energy: 55% (nominal)
Resolution: 70000
Column name: Waters UPLC BEH C18 1.7 um 2.1 mm x 100 mm with pre-column
Retention time: 11.75 min
Precursor m/z: 294.0997
Precursor type: [M+H]+
m/z	relative intensity
51.0234	6
53.0389	13
65.0387	4
76.9788	29
77.0385	38
79.0542	282
81.0335	4
91.0542	30
93.0701	4
95.0491	47
103.0542	159
105.0448	18
105.0699	999
106.0652	2
106.0777	28
107.0855	31
109.065	2
115.0541	3
117.0571	16
117.0699	4
118.0648	9
119.073	25
120.0569	3
123.0804	30
124.0758	2
132.0807	27
133.0759	15
133.0892	2
134.0964	797
183.096	2
