Mass spectrum: Epiequisetin; LC-ESI-ITFT; MS2; CE: 60%; R=7500; [M+H]+
Name: Epiequisetin
Name: 3-[(1,6-dimethyl-2-prop-1-enyl-4a,5,6,7,8,8a-hexahydro-2H-naphthalen-1-yl)-hydroxymethylidene]-5-(hydroxymethyl)-1-methylpyrrolidine-2,4-dione
Formula: C22H31NO4
Exact mass: 373.2253
SMILES: CC=CC1C=CC2CC(CCC2C1(C)C(=C3C(=O)C(N(C3=O)C)CO)O)C
InChI: InChI=1S/C22H31NO4/c1-5-6-15-9-8-14-11-13(2)7-10-16(14)22(15,3)20(26)18-19(25)17(12-24)23(4)21(18)27/h5-6,8-9,13-17,24,26H,7,10-12H2,1-4H3
Instrument: LTQ Orbitrap XL Thermo Scientific
Instrument type: LC-ESI-ITFT
Ms type: MS2
Ion mode: POSITIVE
Ionization: ESI
Fragmentation mode: HCD
Collision energy: 60 % (nominal)
Resolution: 7500
Column name: Hypersil GOLD C18 1.9 um 100 x 2.1 mm Thermo Fisher Scientific
Retention time: 28.042 min
Base peak: 374.2332
Precursor m/z: 374.2326
Precursor type: [M+H]+
Precursor intensity: 9559347.09082
m/z	relative intensity	assigned
79.0545	38	C6H7+
81.0699	259	C6H9+
83.0857	34	C6H11+
84.0446	41	C4H6NO+
91.0543	60	C7H7+
93.0699	103	C7H9+
95.0856	191	C7H11+
105.0701	266	C8H9+
107.0857	176	C8H11+
109.1012	61	C8H13+
119.0856	583	C9H11+
121.1012	52	C9H13+
123.1165	25	C9H15+
126.055	126	C6H8NO2+
131.0856	53	C10H11+
133.1013	330	C10H13+
135.117	87	C10H15+
138.0551	42	C7H8NO2+
139.0391	30	C7H7O3+
140.0343	999	C6H6NO3+
140.0704	140	C7H10NO2+
143.0859	38	C11H11+
144.0656	187	C6H10NO3+
145.101	62	C11H13+
147.1171	205	C11H15+
149.1324	126	C11H17+
152.0345	229	C7H6NO3+
152.0705	141	C8H10NO2+
154.0864	22	C8H12NO2+
156.0657	156	C7H10NO3+
157.1015	35	C12H13+
159.117	38	C12H15+
161.1329	34	C12H17+
163.1485	70	C12H19+
164.071	29	C9H10NO2+
166.0859	52	C9H12NO2+
170.045	642	C7H8NO4+
170.0814	509	C8H12NO3+
171.1164	38	C13H15+
173.1325	66	C13H17+
175.1482	549	C13H19+
182.0816	46	C9H12NO3+
184.0972	151	C9H14NO3+
187.149	30	C14H19+
189.1635	103	C14H21+
200.0923	21	C9H14NO4+
203.1797	40	C15H23+
205.196	41	C15H25+
213.1646	45	C16H21+
