Mass spectrum: Dimethenamid-OH-desmethyl (TENTATIVE); LC-ESI-QFT; MS2; CE: 30%; R=70000; [M+H]+
Name: Dimethenamid-OH-desmethyl
Formula: C11H16ClNO3S
Exact mass: 277.053
SMILES: C(*)C1=C(*)SC(=C1N(C(*)(C(*))C(*)O)C(=O)C(*)Cl)C(*) *=[OH (n=1) & H (n=6)]
Instrument: Q Exactive Plus Orbitrap Thermo Scientific
Instrument type: LC-ESI-QFT
Ms type: MS2
Ion mode: POSITIVE
Ionization: ESI
Fragmentation mode: HCD
Collision energy: 30% (nominal)
Resolution: 70000
Column name: Waters UPLC BEH C18 1.7 um 2.1 mm x 100 mm with pre-column
Retention time: 10.42 min
Precursor m/z: 278.0608
Precursor type: [M+H]+
m/z	relative intensity
58.0654	54
58.9953	34
59.0494	999
73.0107	64
83.0491	26
85.0106	25
95.0489	31
101.0055	169
108.0808	33
111.0263	161
113.0417	32
125.0421	208
126.0374	167
127.0212	125
127.0451	221
132.0809	92
133.0886	116
134.0369	48
136.0391	48
138.0374	34
143.0165	64
150.0372	46
151.0454	63
151.0995	26
152.0529	52
152.107	72
154.0684	88
158.0276	32
166.0687	129
167.0763	36
168.0841	421
170.08	62
184.0791	123
202.0095	40
230.0755	37
246.0525	165
