Mass spectrum: Epiequisetin; LC-ESI-ITFT; MS2; CE: 30%; R=7500; [M+H]+
Name: Epiequisetin
Name: 3-[(1,6-dimethyl-2-prop-1-enyl-4a,5,6,7,8,8a-hexahydro-2H-naphthalen-1-yl)-hydroxymethylidene]-5-(hydroxymethyl)-1-methylpyrrolidine-2,4-dione
Formula: C22H31NO4
Exact mass: 373.2253
SMILES: CC=CC1C=CC2CC(CCC2C1(C)C(=C3C(=O)C(N(C3=O)C)CO)O)C
InChI: InChI=1S/C22H31NO4/c1-5-6-15-9-8-14-11-13(2)7-10-16(14)22(15,3)20(26)18-19(25)17(12-24)23(4)21(18)27/h5-6,8-9,13-17,24,26H,7,10-12H2,1-4H3
Instrument: LTQ Orbitrap XL Thermo Scientific
Instrument type: LC-ESI-ITFT
Ms type: MS2
Ion mode: POSITIVE
Ionization: ESI
Fragmentation mode: HCD
Collision energy: 30 % (nominal)
Resolution: 7500
Column name: Hypersil GOLD C18 1.9 um 100 x 2.1 mm Thermo Fisher Scientific
Retention time: 28.042 min
Base peak: 374.2332
Precursor m/z: 374.2326
Precursor type: [M+H]+
Precursor intensity: 9559347.09082
m/z	relative intensity	assigned
79.0545	3	C6H7+
81.07	23	C6H9+
83.0855	16	C6H11+
95.0852	12	C7H11+
105.0701	19	C8H9+
107.086	5	C8H11+
119.0856	45	C9H11+
121.1012	6	C9H13+
126.0549	12	C6H8NO2+
133.1014	24	C10H13+
135.1168	21	C10H15+
144.0657	66	C6H10NO3+
145.1018	5	C11H13+
147.1171	61	C11H15+
149.1329	38	C11H17+
152.0346	10	C7H6NO3+
152.0705	12	C8H10NO2+
156.0658	22	C7H10NO3+
159.1172	6	C12H15+
163.1482	33	C12H19+
170.045	159	C7H8NO4+
170.0814	269	C8H12NO3+
173.133	22	C13H17+
175.1483	999	C13H19+
177.164	87	C13H21+
182.0814	27	C9H12NO3+
184.0971	96	C9H14NO3+
186.0763	29	C8H12NO4+
187.1488	14	C14H19+
189.1638	84	C14H21+
196.0963	11	C10H14NO3+
198.0768	16	C9H12NO4+
200.0921	165	C9H14NO4+
201.1644	7	C15H21+
203.1798	37	C15H23+
205.1953	151	C15H25+
212.0915	9	C10H14NO4+
213.1639	34	C16H21+
224.128	5	C12H18NO3+
226.1078	10	C11H16NO4+
228.1226	8	C11H18NO4+
231.1745	23	C16H23O+
234.112	4	C13H16NO3+
238.1075	13	C12H16NO4+
240.124	12	C12H18NO4+
248.1278	8	C14H18NO3+
255.1734	3	C18H23O+
280.153	4	C15H22NO4+
288.1587	16	C17H22NO3+
290.1752	5	C17H24NO3+
292.1545	11	C16H22NO4+
294.1697	21	C16H24NO4+
300.1598	14	C18H22NO3+
302.176	22	C18H24NO3+
304.1551	12	C17H22NO4+
314.1755	10	C19H24NO3+
346.238	187	C21H32NO3+
356.2222	355	C22H30NO3+
374.233	521	C22H32NO4+
