Mass spectrum: Sulfamethoxazole; LC-ESI-ITFT; MS2; CE: 40%; R=7500; [M+H]+
Name: Sulfamethoxazole
Name: 4-Amino-N-(5-methyl-1,2-oxazol-3-yl)benzene-1-sulfonamide
Formula: C10H11N3O3S
Exact mass: 253.0521
SMILES: CC1=CC(NS(=O)(=O)C2=CC=C(N)C=C2)=NO1
InChI: InChI=1S/C10H11N3O3S/c1-7-6-10(12-16-7)13-17(14,15)9-4-2-8(11)3-5-9/h2-6H,11H2,1H3,(H,12,13)
Instrument: LTQ Orbitrap XL Thermo Fisher Scientific
Instrument type: LC-ESI-ITFT
Ms type: MS2
Ion mode: POSITIVE
Ionization: ESI
Fragmentation mode: HCD
Collision energy: 40% (nominal)
Resolution: 7500
Column name: Hypersil GOLD C18 1.9 um 100 x 2.1 mm Thermo Fisher Scientific
Precursor m/z: 254.0594
Precursor type: [M+H]+
m/z	relative intensity
65.0385	9
92.0495	198
93.0572	104
94.0651	14
97.9619	1
99.0554	120
107.0606	16
108.0445	340
110.0601	4
120.0556	4
121.0759	2
131.0602	4
132.0679	2
133.0634	1
146.0715	26
147.0793	115
148.0871	31
156.0115	999
160.087	134
161.0017	10
163.0867	3
172.0875	3
173.0568	1
174.0205	1
176.028	6
188.0821	85
190.0977	23
194.0385	20
254.0594	182
