Mass spectrum: Dothiepin; LC-ESI-QFT; MS2; CE: 40%; R=30000; [M+H]+
Name: Dothiepin
Name: 3-(Dibenzo[b,e]thiepin-11(6H)-ylidene)-N,N-dimethylpropan-1-amine
Formula: C19H21NS
Exact mass: 295.1395
SMILES: CN(C)CCC=C1C2=CC=CC=C2CSC2=C1C=CC=C2
InChI: InChI=1S/C19H21NS/c1-20(2)13-7-11-17-16-9-4-3-8-15(16)14-21-19-12-6-5-10-18(17)19/h3-6,8-12H,7,13-14H2,1-2H3
Instrument: Orbitrap Fusion Tribrid Thermo Fisher Scientific
Instrument type: LC-ESI-QFT
Ms type: MS2
Ion mode: POSITIVE
Ionization: ESI
Fragmentation mode: HCD
Collision energy: 40% (nominal)
Resolution: 30000
Precursor m/z: 296.1468
Precursor type: [M+H]+
m/z	relative intensity
84.081	31
91.0545	216
115.0544	39
117.07	413
123.0265	197
129.07	37
135.0264	25
141.07	44
142.0779	40
147.0264	247
165.07	55
173.0421	64
178.0778	84
179.0857	37
191.0857	130
192.0935	127
202.0778	58
203.0856	241
204.0933	31
205.1013	21
209.0421	251
210.0499	122
211.0576	16
216.0933	10
217.1012	276
218.1091	930
221.042	195
222.0499	294
223.0575	999
225.0733	369
234.0499	16
235.0575	35
236.0655	195
249.0733	30
251.0889	106
253.1044	4
296.1468	33
