Mass spectrum: Dixyrazine ; LC-ESI-QFT; MS2; CE: 40%; R=30000; [M+H]+
Name: Dixyrazine
Name: 2-(2-{4-[2-Methyl-3-(10H-phenothiazin-10-yl)propyl]piperazin-1-yl}ethoxy)ethan-1-ol
Formula: C24H33N3O2S
Exact mass: 427.2293
SMILES: CC(CN1CCN(CCOCCO)CC1)CN1C2=CC=CC=C2SC2=CC=CC=C12
InChI: InChI=1S/C24H33N3O2S/c1-20(18-26-12-10-25(11-13-26)14-16-29-17-15-28)19-27-21-6-2-4-8-23(21)30-24-9-5-3-7-22(24)27/h2-9,20,28H,10-19H2,1H3
Instrument: Orbitrap Fusion Tribrid Thermo Fisher Scientific
Instrument type: LC-ESI-QFT
Ms type: MS2
Ion mode: POSITIVE
Ionization: ESI
Fragmentation mode: HCD
Collision energy: 40% (nominal)
Resolution: 30000
Precursor m/z: 428.2367
Precursor type: [M+H]+
m/z	relative intensity
97.0762	46
98.084	176
99.0918	21
101.1075	280
125.1074	98
140.1309	24
144.1019	34
155.1543	11
172.1206	78
180.0808	45
187.1442	658
199.045	10
206.0961	1
212.0527	326
221.1198	14
229.1909	999
254.0996	51
428.2367	84
