Mass spectrum: Cyclizine; LC-ESI-ITFT; MS2; CE: 180%; R=15000; [M+H]+
Name: Cyclizine
Name: 1-benzhydryl-4-methylpiperazine
Formula: C18H22N2
Exact mass: 266.1783
SMILES: CN1CCN(CC1)C(C2=CC=CC=C2)C3=CC=CC=C3
InChI: InChI=1S/C18H22N2/c1-19-12-14-20(15-13-19)18(16-8-4-2-5-9-16)17-10-6-3-7-11-17/h2-11,18H,12-15H2,1H3
Instrument: LTQ Orbitrap XL Thermo Scientific
Instrument type: LC-ESI-ITFT
Ms type: MS2
Ion mode: POSITIVE
Ionization: ESI
Fragmentation mode: HCD
Collision energy: 180% (nominal)
Resolution: 15000
Column name: Kinetex Evo C18 2.6 um 50 x 2.1 mm
Retention time: 7.682 min
Base peak: 267.1856
Precursor m/z: 267.1856
Precursor type: [M+H]+
m/z	relative intensity	assigned
63.0227	47	C5H3+
65.0384	75	C5H5+
75.0228	9	C6H3+
76.0307	19	C6H4+
77.0385	20	C6H5+
78.0464	50	C6H6+
87.0231	22	C7H3+
89.0386	109	C7H5+
91.0542	43	C7H7+
102.0464	144	C8H6+
105.0446	34	C6H5N2+
113.0385	20	C9H5+
115.0542	578	C9H7+
125.0386	13	C10H5+
126.0464	163	C10H6+
127.0545	32	C10H7+
128.0621	202	C10H8+
139.0543	234	C11H7+
141.0698	25	C11H9+
150.0464	109	C12H6+
151.0543	145	C12H7+
152.062	420	C12H8+
155.0604	29	C10H7N2+
163.0543	222	C13H7+
164.0621	324	C13H8+
165.0699	999	C13H9+
169.0646	61	C12H9O+
179.0604	86	C12H7N2+
