Mass spectrum: Amiloride; LC-ESI-QTOF; MS2; CE: 45 eV; R=3600; [M+H]+
Name: Amiloride
Name: 3,5-Diamino-N-carbamimidoyl-6-chloropyrazine-2-carboxamide
Formula: C6H8ClN7O
Exact mass: 229.0479
SMILES: NC(=N)NC(=O)C1=NC(Cl)=C(N)N=C1N
InChI: InChI=1S/C6H8ClN7O/c7-2-4(9)13-3(8)1(12-2)5(15)14-6(10)11/h(H4,8,9,13)(H4,10,11,14,15)
Instrument: 6537 QTOF Agilent
Instrument type: LC-ESI-QTOF
Ms type: MS2
Ion mode: POSITIVE
Ionization: ESI
Fragmentation mode: CID
Collision energy: 45 eV
Resolution: 3600
Precursor m/z: 230.0552
Precursor type: [M+H]+
m/z	relative intensity
53.0139	604
54.0227	5
55.0307	220
56.0362	66
60.0561	889
60.9271	14
61.0413	18
61.9794	503
63.9956	857
65.0104	6
66.0212	729
66.924	14
68.0231	30
69.0067	47
73.979	555
74.9892	17
75.9914	11
80.025	16
81.0318	55
82.0423	13
88.9895	708
89.9923	8
91.0108	2
100.9908	298
101.0562	21
102.9869	15
108.0423	296
109.0405	10
115.9998	999
117.0048	28
141.9939	18
143.0114	64
171.0072	18
