Mass spectrum: Sulfamethoxazole; LC-ESI-ITFT; MS2; CE: 65%; R=7500; [M+H]+
Name: Sulfamethoxazole
Name: 4-Amino-N-(5-methyl-1,2-oxazol-3-yl)benzene-1-sulfonamide
Formula: C10H11N3O3S
Exact mass: 253.0521
SMILES: CC1=CC(NS(=O)(=O)C2=CC=C(N)C=C2)=NO1
InChI: InChI=1S/C10H11N3O3S/c1-7-6-10(12-16-7)13-17(14,15)9-4-2-8(11)3-5-9/h2-6H,11H2,1H3,(H,12,13)
Instrument: LTQ Orbitrap XL Thermo Fisher Scientific
Instrument type: LC-ESI-ITFT
Ms type: MS2
Ion mode: POSITIVE
Ionization: ESI
Fragmentation mode: HCD
Collision energy: 65% (nominal)
Resolution: 7500
Column name: Hypersil GOLD C18 1.9 um 100 x 2.1 mm Thermo Fisher Scientific
Precursor m/z: 254.0594
Precursor type: [M+H]+
m/z	relative intensity
65.0384	70
80.0493	13
92.0494	940
93.0571	182
94.065	9
99.0553	187
107.0606	31
108.0445	999
110.06	67
119.0601	2
120.0555	24
121.0764	3
131.0605	8
132.068	6
133.0636	4
143.06	2
146.0714	41
147.0792	83
148.0868	8
156.0114	282
160.087	114
161.0018	8
173.0588	5
176.0281	5
