Mass spectrum: Sulfamethoxazole; LC-ESI-ITFT; MS2; CE: 165%; R=15000; [M+H]+
Name: Sulfamethoxazole
Name: 4-amino-N-(5-methyl-1,2-oxazol-3-yl)benzenesulfonamide
Formula: C10H11N3O3S
Exact mass: 253.0521
SMILES: CC1=CC(=NO1)NS(=O)(=O)C2=CC=C(C=C2)N
InChI: InChI=1S/C10H11N3O3S/c1-7-6-10(12-16-7)13-17(14,15)9-4-2-8(11)3-5-9/h2-6H,11H2,1H3,(H,12,13)
Instrument: LTQ Orbitrap XL Thermo Scientific
Instrument type: LC-ESI-ITFT
Ms type: MS2
Ion mode: POSITIVE
Ionization: ESI
Fragmentation mode: HCD
Collision energy: 165% (nominal)
Resolution: 15000
Column name: Kinetex Evo C18 2.6 um 50 x 2.1 mm
Retention time: 5.650 min
Base peak: 189.1024
Precursor m/z: 254.0594
Precursor type: [M+H]+
m/z	relative intensity	assigned
63.0227	4	C5H3+
65.0384	999	C5H5+
66.0336	34	C4H4N+
66.0462	39	C5H6+
78.0336	8	C5H4N+
80.0494	370	C5H6N+
91.0416	6	C6H5N+
92.0495	76	C6H6N+
93.0573	66	C6H7N+
105.0447	13	C6H5N2+
108.0444	37	C6H6NO+
