Mass spectrum: Dibucaine; LC-ESI-ITFT; MS2; CE: 95%; R=15000; [M+H]+
Name: Dibucaine
Name: 2-butoxy-N-[2-(diethylamino)ethyl]quinoline-4-carboxamide
Formula: C20H29N3O2
Exact mass: 343.2260
SMILES: CCCCOC1=NC2=CC=CC=C2C(=C1)C(=O)NCCN(CC)CC
InChI: InChI=1S/C20H29N3O2/c1-4-7-14-25-19-15-17(16-10-8-9-11-18(16)22-19)20(24)21-12-13-23(5-2)6-3/h8-11,15H,4-7,12-14H2,1-3H3,(H,21,24)
Instrument: LTQ Orbitrap XL Thermo Scientific
Instrument type: LC-ESI-ITFT
Ms type: MS2
Ion mode: POSITIVE
Ionization: ESI
Fragmentation mode: HCD
Collision energy: 95% (nominal)
Resolution: 15000
Column name: Kinetex Evo C18 2.6 um 50 x 2.1 mm
Retention time: 8.741 min
Base peak: 344.233
Precursor m/z: 344.2333
Precursor type: [M+H]+
m/z	relative intensity	assigned
57.0696	47	C4H9+
70.0285	1	C3H4NO+
72.0806	23	C4H10N+
74.0962	12	C4H12N+
86.0963	3	C5H12N+
100.1119	21	C6H14N+
116.0494	999	C8H6N+
118.065	4	C8H8N+
128.0494	14	C9H6N+
130.0651	10	C9H8N+
132.0441	3	C8H6NO+
134.06	6	C8H8NO+
142.0645	3	C10H8N+
143.0602	4	C9H7N2+
143.0733	3	C10H9N+
144.0443	275	C9H6NO+
145.052	15	C9H7NO+
146.0598	11	C9H8NO+
153.0446	12	C10H5N2+
157.0887	2	C11H11N+
158.0603	3	C10H8NO+
160.0758	4	C10H10NO+
169.0761	4	C11H9N2+
170.06	5	C11H8NO+
171.0551	61	C10H7N2O+
172.0392	79	C10H6NO2+
183.1037	2	C13H13N+
186.0784	3	C11H10N2O+
187.0865	7	C11H11N2O+
200.1069	3	C13H14NO+
215.0813	38	C12H11N2O2+
