Mass spectrum: Desipramine; ESI-QTOF; MS2; CE: 35eV; R=15000; [M+H]+
Name: Desipramine
Name: 3-(10,11-Dihydro-5H-dibenzo[b,f]azepin-5-yl)-N-methylpropan-1-amine
Formula: C18H22N2
Exact mass: 266.1783
SMILES: CNCCCN1C2=C(CCC3=C1C=CC=C3)C=CC=C2
InChI: InChI=1S/C18H22N2/c1-19-13-6-14-20-17-9-4-2-7-15(17)11-12-16-8-3-5-10-18(16)20/h2-5,7-10,19H,6,11-14H2,1H3
Instrument: TripleTOF 5600+SCIEX
Instrument type: ESI-QTOF
Ms type: MS2
Ion mode: POSITIVE
Ionization: ESI
Fragmentation mode: CID
Collision energy: 35 eV
Resolution: 15000
Precursor m/z: 267.1856
Precursor type: [M+H]+
m/z	relative intensity
55.0568	2
56.0519	6
57.0598	16
67.0559	4
69.0715	2
70.0668	2
71.0871	4
72.0829	999
79.0556	2
81.0712	4
83.0867	1
85.1022	2
91.0551	4
93.0706	1
95.0863	6
97.1021	1
103.0545	1
105.0704	4
106.0656	1
107.0859	1
109.1016	2
115.0545	1
117.0577	1
118.0652	3
130.0653	4
132.0809	1
139.0542	1
143.0728	1
144.0807	2
145.0885	1
152.0619	1
158.0962	5
166.0771	2
167.0728	5
180.0806	21
181.0885	3
192.0805	15
193.0884	289
194.0961	21
195.104	29
196.1117	23
208.112	423
210.1279	1
220.1117	16
236.143	31
267.1856	1
