Mass spectrum: Sulfamoxole; LC-ESI-QFT; MS2; CE: 80%; R=30000; [M+H]+
Name: Sulfamoxole
Name: 4-Amino-N-(4,5-dimethyl-1,3-oxazol-2-yl)benzene-1-sulfonamide
Formula: C11H13N3O3S
Exact mass: 267.0678
SMILES: CC1=C(C)N=C(NS(=O)(=O)C2=CC=C(N)C=C2)O1
InChI: InChI=1S/C11H13N3O3S/c1-7-8(2)17-11(13-7)14-18(15,16)10-5-3-9(12)4-6-10/h3-6H,12H2,1-2H3,(H,13,14)
Instrument: Orbitrap Fusion Tribrid Thermo Fisher Scientific
Instrument type: LC-ESI-QFT
Ms type: MS2
Ion mode: POSITIVE
Ionization: ESI
Fragmentation mode: HCD
Collision energy: 80% (nominal)
Resolution: 30000
Precursor m/z: 268.0751
Precursor type: [M+H]+
m/z	relative intensity
70.0653	505
76.0313	1
80.0497	706
83.0609	7
92.0497	999
93.0574	22
94.0657	2
108.0446	752
110.0602	62
111.0555	117
112.0632	30
113.0711	204
120.0562	1
140.0165	29
