Mass spectrum: Phenazone; LC-ESI-QFT; MS2; CE: CE30; R=17500; [M+H]+
Name: Phenazone
Name: Antipyrine
Name: 1,5-dimethyl-2-phenylpyrazol-3-one
Formula: C11H12N2O
Exact mass: 188.0950
SMILES: CN1N(C(=O)C=C1C)C1=CC=CC=C1
InChI: InChI=1S/C11H12N2O/c1-9-8-11(14)13(12(9)2)10-6-4-3-5-7-10/h3-8H,1-2H3
Instrument: Q Exactive Thermo Fisher Scientific
Instrument type: LC-ESI-QFT
Ms type: MS2
Ion mode: POSITIVE
Ionization: ESI
Fragmentation mode: HCD
Collision energy: CE30
Resolution: 17500
Column name: Acquity UPLC BEH C18 1.7 um, 2.1 x 150 mm, Waters
Retention time: 16.045 min
Base peak: 223.0628
Precursor m/z: 189.1022
Precursor type: [M+H]+
m/z	relative intensity	assigned
50.0156	7	C4H2+
51.0233	19	C4H3+
53.0025	7	C3HO+
53.0392	54	C4H5+
54.0342	13	C3H4N+
55.0184	32	C3H3O+
55.0421	12	C3H5N+
55.0545	5	C4H7+
56.0497	999	C3H6N+
58.0653	437	C3H8N+
65.0386	159	C5H5+
67.0182	5	C4H3O+
67.0547	3	C5H7+
68.0495	25	C4H6N+
69.0574	43	C4H7N+
70.0652	9	C4H8N+
77.0383	25	C6H5+
78.0465	15	C6H6+
79.0542	76	C6H7+
80.0497	8	C5H6N+
81.0336	14	C5H5O+
81.0447	73	C4H5N2+
82.0288	4	C4H4NO+
89.0386	4	C7H5+
91.0541	164	C7H7+
92.0496	49	C6H6N+
93.0574	25	C6H7N+
94.0652	32	C6H8N+
95.049	377	C6H7O+
95.0602	89	C5H7N2+
96.0441	17	C5H6NO+
96.068	104	C5H8N2+
97.0076	5	C8H+
98.06	91	C5H8NO+
102.0466	10	C8H6+
103.0541	99	C8H7+
104.0498	452	C7H6N+
105.0336	18	C7H5O+
105.0445	77	C6H5N2+
105.0571	17	C7H7N+
105.07	27	C8H9+
106.0651	477	C7H8N+
115.0546	107	C9H7+
117.0581	103	C8H7N+
117.0701	153	C9H9+
118.065	181	C8H8N+
120.0814	100	C8H10N+
128.0495	12	C9H6N+
129.057	43	C9H7N+
130.0657	266	C9H8N+
131.061	129	C8H7N2+
131.0738	168	C9H9N+
132.0457	9	C8H6NO+
132.0688	77	C8H8N2+
132.0803	56	C9H10N+
133.0516	43	C8H7NO+
133.0766	18	C8H9N2+
134.0473	11	C7H6N2O+
134.097	18	C9H12N+
135.0556	5	C7H7N2O+
143.0739	29	C10H9N+
144.0806	125	C10H10N+
145.0655	50	C10H9O+
145.0771	96	C9H9N2+
146.0601	7	C9H8NO+
146.0833	107	C9H10N2+
146.097	14	C10H12N+
147.0915	202	C9H11N2+
148.0751	7	C9H10NO+
149.0716	15	C8H9N2O+
157.0526	26	C10H7NO+
158.0605	6	C10H8NO+
160.0989	5	C10H12N2+
161.1072	19	C10H13N2+
172.0772	12	C11H10NO+
173.0708	16	C10H9N2O+
174.0788	69	C10H10N2O+
189.1023	117	C11H13N2O+
