Mass spectrum: Desipramine; ESI-QTOF; MS2; CE: 50eV; R=15000; [M+H]+
Name: Desipramine
Name: 3-(10,11-Dihydro-5H-dibenzo[b,f]azepin-5-yl)-N-methylpropan-1-amine
Formula: C18H22N2
Exact mass: 266.1783
SMILES: CNCCCN1C2=C(CCC3=C1C=CC=C3)C=CC=C2
InChI: InChI=1S/C18H22N2/c1-19-13-6-14-20-17-9-4-2-7-15(17)11-12-16-8-3-5-10-18(16)20/h2-5,7-10,19H,6,11-14H2,1H3
Instrument: TripleTOF 5600+SCIEX
Instrument type: ESI-QTOF
Ms type: MS2
Ion mode: POSITIVE
Ionization: ESI
Fragmentation mode: CID
Collision energy: 50 eV
Resolution: 15000
Precursor m/z: 267.1856
Precursor type: [M+H]+
m/z	relative intensity
55.0567	4
56.052	15
57.0597	39
65.0403	2
67.0559	6
69.0715	2
70.0667	4
71.0871	2
72.0826	536
77.0399	4
79.0553	5
81.071	4
83.0866	1
85.1022	1
89.0393	2
90.0472	2
91.055	16
93.0704	1
95.0861	4
103.0546	4
104.0497	1
105.0703	4
106.0654	3
107.0858	1
109.1014	1
115.0544	7
116.0496	2
117.0574	5
118.0651	12
127.0542	1
128.0494	2
129.0695	1
130.0652	12
131.0728	1
132.0806	1
139.0539	4
140.0494	2
141.0696	1
142.065	1
143.0726	3
144.0805	5
145.0883	1
152.0617	8
153.0697	2
154.0648	1
156.0804	1
158.096	3
165.0695	46
166.0771	15
167.0726	42
168.0804	2
178.0769	15
180.0803	91
181.0882	8
191.0725	31
192.0803	152
193.0884	999
194.096	117
195.1038	18
196.1115	10
206.096	28
207.1038	16
208.1117	162
220.1115	33
