Mass spectrum: Cyclopenol; LC-ESI-ITFT; MS2; CE: 20%; R=7500; [M-H]-
Name: Cyclopenol
Name: Spiro[3H-1,4-benzodiazepine-3,2`-oxirane]-2,5(1H,4H)-dione, 3`-(3-hydroxyphenyl)-4-methyl-, cis-(-)-
Name: 3`-(3-hydroxyphenyl)-4-methylspiro[1H-1,4-benzodiazepine-3,2`-oxirane]-2,5-dione
Formula: C17H14N2O4
Exact mass: 310.09536
SMILES: CN1C(=O)C2=CC=CC=C2NC(=O)C13C(O3)C4=CC(=CC=C4)O
InChI: InChI=1S/C17H14N2O4/c1-19-15(21)12-7-2-3-8-13(12)18-16(22)17(19)14(23-17)10-5-4-6-11(20)9-10/h2-9,14,20H,1H3,(H,18,22)
Instrument: LTQ Orbitrap XL Thermo Scientific
Instrument type: LC-ESI-ITFT
Ms type: MS2
Ion mode: NEGATIVE
Ionization: ESI
Fragmentation mode: HCD
Collision energy: 20 % (nominal)
Resolution: 7500
Column name: Hypersil GOLD C18 1.9 um 100 x 2.1 mm Thermo Fisher Scientific
Retention time: 11.668 min
Base peak: 309.0888
Precursor m/z: 309.0881
Precursor type: [M-H]-
Precursor intensity: 11202976.82837
m/z	relative intensity	assigned
71.9854	1	C2O3-
93.0344	2	C6H5O-
102.0351	4	C7H4N-
121.0297	131	C7H5O2-
133.0295	10	C8H5O2-
137.0246	8	C7H5O3-
159.0565	32	C9H7N2O-
175.0514	284	C9H7N2O2-
187.0514	4	C10H7N2O2-
224.071	3	C14H10NO2-
238.0876	46	C15H12NO2-
252.0667	51	C15H10NO3-
265.0982	38	C16H13N2O2-
266.0822	56	C16H12NO3-
281.093	2	C16H13N2O3-
309.0879	999	C17H13N2O4-
