Mass spectrum: Chlorotoluron-OH (TENTATIVE); LC-ESI-QFT; MS2; CE: 55%; R=70000; [M+H]+
Name: Chlorotoluron-OH
Formula: C10H13ClN2O2
Exact mass: 228.0659
SMILES: C(*)C1=C(c(*)=C(C(*)=C(*)1)NC(=O)N(C(*))C)Cl  * = [OH (n=1) & H (n=4)]
Instrument: Q Exactive Plus Orbitrap Thermo Scientific
Instrument type: LC-ESI-QFT
Ms type: MS2
Ion mode: POSITIVE
Ionization: ESI
Fragmentation mode: HCD
Collision energy: 55% (nominal)
Resolution: 70000
Column name: Waters UPLC BEH C18 1.7 um 2.1 mm x 100 mm with pre-column
Retention time: 9.38 min
Precursor m/z: 229.0737
Precursor type: [M+H]+
m/z	relative intensity
56.0134	62
65.0387	23
72.0444	999
77.0386	14
90.034	11
93.0573	46
96.9839	21
104.0494	14
122.9996	59
140.0261	10
148.0909	8
