Mass spectrum: Cyclizine; ESI-QTOF; MS2; CE: 5eV; R=15000; [M+H]+
Name: Cyclizine
Name: 1-(Diphenylmethyl)-4-methylpiperazine
Formula: C18H22N2
Exact mass: 266.1783
SMILES: CN1CCN(CC1)C(C1=CC=CC=C1)C1=CC=CC=C1
InChI: InChI=1S/C18H22N2/c1-19-12-14-20(15-13-19)18(16-8-4-2-5-9-16)17-10-6-3-7-11-17/h2-11,18H,12-15H2,1H3
Instrument: TripleTOF 5600+SCIEX
Instrument type: ESI-QTOF
Ms type: MS2
Ion mode: POSITIVE
Ionization: ESI
Fragmentation mode: CID
Collision energy: 5 eV
Resolution: 15000
Precursor m/z: 267.1856
Precursor type: [M+H]+
m/z	relative intensity
95.0861	1
97.1018	1
99.0921	1
109.1014	1
111.117	1
123.1169	1
137.1323	1
151.1479	1
152.0618	3
166.0773	1
167.0854	142
267.1856	999
