Mass spectrum: Dothiepin; ESI-QTOF; MS2; CE: 40eV; R=15000; [M+H]+
Name: Dothiepin
Name: 3-(Dibenzo[b,e]thiepin-11(6H)-ylidene)-N,N-dimethylpropan-1-amine
Formula: C19H21NS
Exact mass: 295.1395
SMILES: CN(C)CCC=C1C2=CC=CC=C2CSC2=C1C=CC=C2
InChI: InChI=1S/C19H21NS/c1-20(2)13-7-11-17-16-9-4-3-8-15(16)14-21-19-12-6-5-10-18(17)19/h3-6,8-12H,7,13-14H2,1-2H3
Instrument: TripleTOF 5600+SCIEX
Instrument type: ESI-QTOF
Ms type: MS2
Ion mode: POSITIVE
Ionization: ESI
Fragmentation mode: CID
Collision energy: 40 eV
Resolution: 15000
Precursor m/z: 296.1468
Precursor type: [M+H]+
m/z	relative intensity
56.052	1
58.0676	74
58.9972	2
65.0406	3
70.0669	3
72.0824	2
73.0123	2
77.0401	2
79.0556	2
84.0821	11
85.0898	1
89.0396	1
91.0553	127
97.0113	1
102.0474	1
103.055	6
105.0708	4
115.0548	168
116.0626	6
117.0705	321
119.0858	1
121.0109	4
123.0268	141
126.0463	1
127.0548	5
128.0625	21
129.0703	58
131.0859	2
134.0188	2
135.0266	27
137.0424	3
139.055	2
140.0624	1
141.0703	66
142.0781	42
143.0859	2
147.0268	217
148.0347	1
149.0417	2
150.0466	3
151.0547	4
152.0626	8
153.0701	2
158.0968	1
159.0266	5
160.0349	1
161.0424	2
163.0547	4
164.0624	3
165.0704	197
166.0782	3
167.0862	3
171.0269	3
172.0345	2
173.0423	57
174.0468	1
175.0553	1
176.0625	8
177.0704	5
178.0782	330
179.0861	105
180.0939	1
181.1015	6
184.0341	3
185.0426	2
186.128	1
187.0545	2
188.0625	1
189.0703	28
190.0782	29
191.0861	201
192.0939	197
193.102	1
197.0424	13
198.049	1
199.0569	2
200.0628	8
201.0705	12
202.0783	303
203.0862	753
204.0939	45
205.1017	19
206.1099	2
207.1176	1
208.0347	35
209.0426	191
210.0505	241
211.0583	12
213.0706	3
214.0788	1
215.0862	61
216.0941	30
217.102	556
218.1097	873
219.117	2
220.1248	1
221.0427	570
222.0504	353
223.0583	999
224.0661	5
225.074	208
234.0506	51
235.0584	126
236.0661	152
249.0742	24
251.0898	59
253.1055	2
296.1468	23
