Mass spectrum: Aspochalasin 1; LC-ESI-ITFT; MS2; CE: 60%; R=7500; [M+H]+
Name: Aspochalasin 1
Formula: C24H35NO5
Exact mass: 417.2515
SMILES: CC(C)C[C@@H]1NC(=O)[C@]23OC(=O)C=C[C@@H](O)[C@@H](O)CCC(C)=C[C@H]3C=C(C)[C@@H](C)[C@@H]12
InChI: InChI=1S/C24H35NO5/c1-13(2)10-18-22-16(5)15(4)12-17-11-14(3)6-7-19(26)20(27)8-9-21(28)30-24(17,22)23(29)25-18/h8-9,11-13,16-20,22,26-27H,6-7,10H2,1-5H3,(H,25,29)/t16-,17+,18+,19+,20-,22+,24-/m1/s1
Instrument: LTQ Orbitrap XL Thermo Scientific
Instrument type: LC-ESI-ITFT
Ms type: MS2
Ion mode: POSITIVE
Ionization: ESI
Fragmentation mode: HCD
Collision energy: 60 % (nominal)
Resolution: 7500
Column name: Hypersil GOLD C18 1.9 um 100 x 2.1 mm Thermo Fisher Scientific
Retention time: 23.512 min
Base peak: 835.5124
Precursor m/z: 418.2588
Precursor type: [M+H]+
Precursor intensity: 8816957.579102
m/z	relative intensity	assigned
81.07	12	C6H9+
86.0963	137	C5H12N+
91.0541	41	C7H7+
93.0697	68	C7H9+
95.0857	34	C7H11+
105.07	64	C8H9+
107.0855	104	C8H11+
117.0698	27	C9H9+
119.0855	999	C9H11+
121.0647	181	C8H9O+
121.1017	42	C9H13+
131.0855	200	C10H11+
133.0652	34	C9H9O+
133.1013	168	C10H13+
135.0803	34	C9H11O+
138.0913	57	C8H12NO+
145.1012	130	C11H13+
147.0811	50	C10H11O+
147.117	181	C11H15+
148.1121	31	C10H14N+
149.0961	55	C10H13O+
157.1009	85	C12H13+
159.0808	32	C11H11O+
159.1168	261	C12H15+
161.0956	19	C11H13O+
161.1325	134	C12H17+
162.0913	38	C10H12NO+
167.0704	12	C9H11O3+
167.0861	11	C13H11+
169.1009	46	C13H13+
171.1168	70	C13H15+
173.1325	288	C13H17+
175.0755	14	C11H11O2+
175.1482	112	C13H19+
176.1071	148	C11H14NO+
178.1589	27	C12H20N+
181.1014	34	C14H13+
183.1169	44	C14H15+
185.1324	266	C14H17+
186.1035	32	C13H14O+
186.1404	13	C14H18+
187.1118	77	C13H15O+
187.1482	48	C14H19+
188.1203	15	C13H16O+
190.1233	15	C12H16NO+
195.0797	12	C14H11O+
197.1318	28	C15H17+
199.1122	19	C14H15O+
199.148	27	C15H19+
201.1274	91	C14H17O+
203.143	118	C14H19O+
206.154	16	C13H20NO+
209.132	29	C16H17+
213.127	14	C15H17O+
213.1632	11	C16H21+
214.1225	78	C14H16NO+
215.1431	22	C15H19O+
218.1542	32	C14H20NO+
220.17	47	C14H22NO+
223.1481	32	C17H19+
232.1696	336	C15H22NO+
251.1431	69	C18H19O+
258.1851	25	C17H24NO+
260.2011	40	C17H26NO+
269.1542	21	C18H21O2+
272.201	46	C18H26NO+
273.2216	14	C19H29O+
286.2161	28	C19H28NO+
288.2322	13	C19H30NO+
298.2168	37	C20H28NO+
316.2271	75	C20H30NO2+
