Mass spectrum: Desipramine; ESI-QTOF; MS2; CE: 20eV; R=15000; [M+H]+
Name: Desipramine
Name: 3-(10,11-Dihydro-5H-dibenzo[b,f]azepin-5-yl)-N-methylpropan-1-amine
Formula: C18H22N2
Exact mass: 266.1783
SMILES: CNCCCN1C2=C(CCC3=C1C=CC=C3)C=CC=C2
InChI: InChI=1S/C18H22N2/c1-19-13-6-14-20-17-9-4-2-7-15(17)11-12-16-8-3-5-10-18(16)20/h2-5,7-10,19H,6,11-14H2,1H3
Instrument: TripleTOF 5600+SCIEX
Instrument type: ESI-QTOF
Ms type: MS2
Ion mode: POSITIVE
Ionization: ESI
Fragmentation mode: CID
Collision energy: 20 eV
Resolution: 15000
Precursor m/z: 267.1856
Precursor type: [M+H]+
m/z	relative intensity
55.057	1
56.0519	1
57.072	4
67.056	1
69.0715	1
71.0871	4
72.083	999
81.0712	2
83.0867	1
85.1023	3
95.0863	5
97.102	2
107.0858	1
109.1015	4
111.1172	1
123.117	2
137.1325	1
158.0961	1
193.0883	12
195.1041	4
196.1118	9
208.1119	101
210.1273	1
236.1431	70
267.1856	834
