Mass spectrum: Tryptophol; LC-ESI-ITFT; MS2; CE: 40%; R=7500; [M+H]+
Name: Tryptophol
Name: 2-(1H-indol-3-yl)ethanol
Formula: C10H11NO
Exact mass: 161.0841
SMILES: C1=CC=C2C(=C1)C(=CN2)CCO
InChI: InChI=1S/C10H11NO/c12-6-5-8-7-11-10-4-2-1-3-9(8)10/h1-4,7,11-12H,5-6H2
Instrument: LTQ Orbitrap XL Thermo Scientific
Instrument type: LC-ESI-ITFT
Ms type: MS2
Ion mode: POSITIVE
Ionization: ESI
Fragmentation mode: HCD
Collision energy: 40 % (nominal)
Resolution: 7500
Column name: Hypersil GOLD C18 1.9 um 100 x 2.1 mm Thermo Fisher Scientific
Retention time: 11.416 min
Base peak: 162.0911
Precursor m/z: 162.0913
Precursor type: [M+H]+
Precursor intensity: 12136566.42358
m/z	relative intensity	assigned
144.0806	403	C10H10N+
162.091	999	C10H12NO+
