Mass spectrum: Malformin A1; LC-ESI-ITFT; MS2; CE: 15%; R=7500; [M+H]+
Name: Malformin A1
Name: Malformin A
Name: 4-butan-2-yl-7-(2-methylpropyl)-10-propan-2-yl-15,16-dithia-2,5,8,11,19-pentazabicyclo[11.4.2]nonadecane-3,6,9,12,18-pentone
Formula: C23H39N5O5S2
Exact mass: 529.2393
SMILES: CCC(C)C1C(=O)NC2CSSCC(C(=O)NC(C(=O)NC(C(=O)N1)CC(C)C)C(C)C)NC2=O
InChI: InChI=1S/C23H39N5O5S2/c1-7-13(6)18-23(33)26-15-9-34-35-10-16(25-20(15)30)21(31)27-17(12(4)5)22(32)24-14(8-11(2)3)19(29)28-18/h11-18H,7-10H2,1-6H3,(H,24,32)(H,25,30)(H,26,33)(H,27,31)(H,28,29)
Instrument: LTQ Orbitrap XL Thermo Scientific
Instrument type: LC-ESI-ITFT
Ms type: MS2
Ion mode: POSITIVE
Ionization: ESI
Fragmentation mode: HCD
Collision energy: 15 % (nominal)
Resolution: 7500
Column name: Hypersil GOLD C18 1.9 um 100 x 2.1 mm Thermo Fisher Scientific
Retention time: 21.536 min
Base peak: 530.2473
Precursor m/z: 530.2465
Precursor type: [M+H]+
Precursor intensity: 8766828.852051
m/z	relative intensity	assigned
72.0808	164	C4H10N+
72.2812	30	C3H36+
86.0965	522	C5H12N+
96.2768	18	H36N2O2+
175.0899	17	C7H15N2OS+
183.1128	16	C9H15N2O2+
185.1652	386	C4H27NO4S+
199.1808	999	C11H23N2O+
201.1205	26	C5H21N4S2+
205.0102	29	C6H9N2O2S2+
207.0625	23	CH13N5O5S+
213.1601	237	C5H27NO5S+
227.1757	229	C12H23N2O2+
231.0625	648	C3H13N5O5S+
253.2287	61	C15H29N2O+
304.0789	790	C19H14NOS+
372.1415	522	C16H26N3O3S2+
389.1677	94	C16H29N4O3S2+
431.1788	20	C18H31N4O4S2+
457.23	33	C21H37N4O3S2+
485.2244	68	C22H37N4O4S2+
502.2527	70	C22H40N5O4S2+
