Mass spectrum: a Zearalenol; LC-ESI-ITFT; MS2; CE: 30%; R=7500; [M+H]+
Name: a Zearalenol
Name: 8,16,18-trihydroxy-4-methyl-3-oxabicyclo[12.4.0]octadeca-1(14),12,15,17-tetraen-2-one
Formula: C18H24O5
Exact mass: 320.1624
SMILES: CC1CCCC(CCCC=CC2=C(C(=CC(=C2)O)O)C(=O)O1)O
InChI: InChI=1S/C18H24O5/c1-12-6-5-9-14(19)8-4-2-3-7-13-10-15(20)11-16(21)17(13)18(22)23-12/h3,7,10-12,14,19-21H,2,4-6,8-9H2,1H3
Instrument: LTQ Orbitrap XL Thermo Scientific
Instrument type: LC-ESI-ITFT
Ms type: MS2
Ion mode: POSITIVE
Ionization: ESI
Fragmentation mode: HCD
Collision energy: 30 % (nominal)
Resolution: 7500
Column name: Hypersil GOLD C18 1.9 um 100 x 2.1 mm Thermo Fisher Scientific
Retention time: 20.859 min
Base peak: 321.1703
Precursor m/z: 321.1697
Precursor type: [M+H]+
Precursor intensity: 6098169.081055
m/z	relative intensity	assigned
56.0468	229	H8O3+
81.0698	379	C6H9+
121.1017	250	C9H13+
135.1171	204	C10H15+
149.0597	357	C9H9O2+
161.0596	548	C10H9O2+
163.0392	328	C9H7O3+
165.018	335	C8H5O4+
167.0339	264	C8H7O4+
175.0392	999	C10H7O3+
175.0756	473	C11H11O2+
189.055	762	C11H9O3+
193.0496	447	C10H9O4+
203.0708	295	C12H11O3+
215.0706	435	C13H11O3+
217.0863	313	C13H13O3+
229.0857	582	C14H13O3+
267.1376	271	C18H19O2+
