Mass spectrum: Fumonisin B2; LC-ESI-ITFT; MS2; CE: 50%; R=7500; [M+H]+
Name: Fumonisin B2
Name: Fumonisin B2, Fusarium moniliforme
Name: 2-[2-[19-amino-6-(3,4-dicarboxybutanoyloxy)-16,18-dihydroxy-5,9-dimethylicosan-7-yl]oxy-2-oxoethyl]butanedioic acid
Formula: C34H59NO14
Exact mass: 705.3936
SMILES: CCCCC(C)C(C(CC(C)CCCCCCC(CC(C(C)N)O)O)OC(=O)CC(CC(=O)O)C(=O)O)OC(=O)CC(CC(=O)O)C(=O)O
InChI: InChI=1S/C34H59NO14/c1-5-6-12-21(3)32(49-31(43)18-24(34(46)47)16-29(40)41)27(48-30(42)17-23(33(44)45)15-28(38)39)14-20(2)11-9-7-8-10-13-25(36)19-26(37)22(4)35/h20-27,32,36-37H,5-19,35H2,1-4H3,(H,38,39)(H,40,41)(H,44,45)(H,46,47)
Instrument: LTQ Orbitrap XL Thermo Scientific
Instrument type: LC-ESI-ITFT
Ms type: MS2
Ion mode: POSITIVE
Ionization: ESI
Fragmentation mode: HCD
Collision energy: 50 % (nominal)
Resolution: 7500
Column name: Hypersil GOLD C18 1.9 um 100 x 2.1 mm Thermo Fisher Scientific
Retention time: 22.184 min
Base peak: 706.4023
Precursor m/z: 706.4008
Precursor type: [M+H]+
Precursor intensity: 57323263.33008
m/z	relative intensity	assigned
55.0542	22	C4H7+
57.0699	11	C4H9+
67.0543	29	C5H7+
69.0698	77	C5H9+
70.0651	50	C4H8N+
73.11	10	CH15NO2+
74.0601	91	C3H8NO+
79.0542	17	C6H7+
81.0699	93	C6H9+
82.0648	5	C5H8N+
83.0855	25	C6H11+
84.0812	15	C5H10N+
85.0282	24	C4H5O2+
85.1013	16	C6H13+
91.0542	7	C7H7+
93.0699	48	C7H9+
95.0856	154	C7H11+
96.0807	16	C6H10N+
97.1013	25	C7H13+
100.0757	9	C5H10NO+
105.07	22	C8H9+
107.0857	75	C8H11+
109.1013	164	C8H13+
111.117	19	C8H15+
113.0235	144	C5H5O3+
119.0858	25	C9H11+
121.1013	79	C9H13+
123.117	95	C9H15+
124.1118	14	C8H14N+
125.0964	9	C8H13O+
133.1015	37	C10H13+
135.117	91	C10H15+
137.1326	45	C10H17+
138.1279	18	C9H16N+
141.0184	284	C6H5O4+
147.1171	49	C11H15+
149.1328	79	C11H17+
151.1482	30	C11H19+
152.1438	9	C10H18N+
159.0288	92	C6H7O5+
163.1482	44	C12H19+
165.1639	18	C12H21+
175.1486	19	C13H19+
189.164	15	C14H21+
191.179	11	C14H23+
194.1904	52	C13H24N+
203.1793	14	C15H23+
205.1951	8	C15H25+
208.2062	102	C14H26N+
220.2062	96	C15H26N+
226.2167	15	C14H28NO+
234.222	25	C16H28N+
236.237	11	C16H30N+
238.2167	101	C15H28NO+
248.2382	8	C17H30N+
252.2323	10	C16H30NO+
256.2271	24	C15H30NO2+
318.3157	972	C22H40N+
336.3263	999	C22H42NO+
354.3369	96	C22H44NO2+
