Mass spectrum: Terbutryn-diOH (TENTATIVE); LC-ESI-QFT; MS2; CE: 30%; R=70000; [M+H]+
Name: Terbutryn-diOH
Formula: C10H19N5O2S
Exact mass: 273.125
SMILES: C(*)C(*)NC1=NC(=NC(=N1)SC(*))NC(C)(C(*))C(*)  *=[OH (n=1)& H (n=4)]
Instrument: Q Exactive Plus Orbitrap Thermo Scientific
Instrument type: LC-ESI-QFT
Ms type: MS2
Ion mode: POSITIVE
Ionization: ESI
Fragmentation mode: HCD
Collision energy: 30% (nominal)
Resolution: 70000
Column name: Waters UPLC BEH C18 1.7 um 2.1 mm x 100 mm with pre-column
Retention time: 10.46 min
Precursor m/z: 274.1328
Precursor type: [M+H]+
m/z	relative intensity
55.0546	54
58.0654	73
68.0244	79
69.0084	56
69.0699	38
71.0604	135
71.9902	33
73.0648	131
81.0698	51
83.0603	92
85.0284	95
86.0349	442
88.0756	35
96.0556	161
97.0396	92
111.0665	32
112.0617	30
113.0166	88
114.0121	255
114.0662	352
115.0865	126
117.0481	90
123.0805	43
127.0069	29
138.0774	342
139.0853	40
140.0818	30
140.0932	175
141.023	169
142.0435	166
154.0724	34
155.0384	276
156.0881	999
157.0179	107
184.0651	727
185.0493	98
187.0521	239
202.076	65
228.0911	99
