Mass spectrum: Fumonisin B2; LC-ESI-ITFT; MS2; CE: 30%; R=7500; [M+H]+
Name: Fumonisin B2
Name: Fumonisin B2, Fusarium moniliforme
Name: 2-[2-[19-amino-6-(3,4-dicarboxybutanoyloxy)-16,18-dihydroxy-5,9-dimethylicosan-7-yl]oxy-2-oxoethyl]butanedioic acid
Formula: C34H59NO14
Exact mass: 705.3936
SMILES: CCCCC(C)C(C(CC(C)CCCCCCC(CC(C(C)N)O)O)OC(=O)CC(CC(=O)O)C(=O)O)OC(=O)CC(CC(=O)O)C(=O)O
InChI: InChI=1S/C34H59NO14/c1-5-6-12-21(3)32(49-31(43)18-24(34(46)47)16-29(40)41)27(48-30(42)17-23(33(44)45)15-28(38)39)14-20(2)11-9-7-8-10-13-25(36)19-26(37)22(4)35/h20-27,32,36-37H,5-19,35H2,1-4H3,(H,38,39)(H,40,41)(H,44,45)(H,46,47)
Instrument: LTQ Orbitrap XL Thermo Scientific
Instrument type: LC-ESI-ITFT
Ms type: MS2
Ion mode: POSITIVE
Ionization: ESI
Fragmentation mode: HCD
Collision energy: 30 % (nominal)
Resolution: 7500
Column name: Hypersil GOLD C18 1.9 um 100 x 2.1 mm Thermo Fisher Scientific
Retention time: 22.184 min
Base peak: 706.4023
Precursor m/z: 706.4008
Precursor type: [M+H]+
Precursor intensity: 57323263.33008
m/z	relative intensity	assigned
69.07	13	C5H9+
74.06	37	C3H8NO+
81.0701	17	C6H9+
83.0853	8	C6H11+
95.0856	15	C7H11+
97.1014	12	C7H13+
109.1016	36	C8H13+
111.117	9	C8H15+
121.1012	13	C9H13+
123.1173	21	C9H15+
125.0965	5	C8H13O+
133.1015	7	C10H13+
135.1173	27	C10H15+
137.1327	16	C10H17+
141.0185	69	C6H5O4+
149.1325	30	C11H17+
151.1478	12	C11H19+
159.0289	50	C6H7O5+
163.1485	18	C12H19+
165.1639	15	C12H21+
177.164	15	C13H21+
189.1637	15	C14H21+
199.2992	11	C12H39O+
203.1129	10	C6H19O7+
203.179	32	C15H23+
203.2367	8	C13H31O+
205.1957	13	C15H25+
220.2065	8	C15H26N+
221.1902	15	C15H25O+
226.2173	11	C14H28NO+
238.2172	28	C15H28NO+
256.2267	14	C15H30NO2+
301.29	38	C22H37+
318.3157	426	C22H40N+
336.3263	999	C22H42NO+
354.337	660	C22H44NO2+
494.3486	64	C18H54O14+
512.3583	207	C28H50NO7+
530.37	140	C28H52NO8+
688.3915	105	C34H58NO13+
706.4022	144	C34H60NO14+
