Mass spectrum: Sulfamoxole; LC-ESI-ITFT; MS2; CE: 50%; R=7500; [M+H]+
Name: Sulfamoxole
Name: 4-Amino-N-(4,5-dimethyl-1,3-oxazol-2-yl)benzene-1-sulfonamide
Formula: C11H13N3O3S
Exact mass: 267.0678
SMILES: CC1=C(C)N=C(NS(=O)(=O)C2=CC=C(N)C=C2)O1
InChI: InChI=1S/C11H13N3O3S/c1-7-8(2)17-11(13-7)14-18(15,16)10-5-3-9(12)4-6-10/h3-6H,12H2,1-2H3,(H,13,14)
Instrument: LTQ Orbitrap XL Thermo Fisher Scientific
Instrument type: LC-ESI-ITFT
Ms type: MS2
Ion mode: POSITIVE
Ionization: ESI
Fragmentation mode: HCD
Collision energy: 50% (nominal)
Resolution: 7500
Column name: Hypersil GOLD C18 1.9 um 100 x 2.1 mm Thermo Fisher Scientific
Precursor m/z: 268.0751
Precursor type: [M+H]+
m/z	relative intensity
65.038	28
69.0569	6
70.0646	2
92.0489	562
108.0439	770
110.0595	24
111.0547	25
112.0625	207
113.0703	712
120.0549	14
135.09	2
140.0157	92
156.0106	999
158.0259	7
268.0751	16
