Mass spectrum: Nylidrin; ESI-QTOF; MS2; CE: 40eV; R=15000; [M+H]+
Name: Nylidrin
Name: 4-{1-Hydroxy-2-[(4-phenylbutan-2-yl)amino]propyl}phenol
Formula: C19H25NO2
Exact mass: 299.1885
SMILES: CC(CCC1=CC=CC=C1)NC(C)C(O)C1=CC=C(O)C=C1
InChI: InChI=1S/C19H25NO2/c1-14(8-9-16-6-4-3-5-7-16)20-15(2)19(22)17-10-12-18(21)13-11-17/h3-7,10-15,19-22H,8-9H2,1-2H3
Instrument: TripleTOF 5600+SCIEX
Instrument type: ESI-QTOF
Ms type: MS2
Ion mode: POSITIVE
Ionization: ESI
Fragmentation mode: CID
Collision energy: 40 eV
Resolution: 15000
Precursor m/z: 300.1959
Precursor type: [M+H]+
m/z	relative intensity
50.0176	1
51.0254	2
55.02	5
56.0515	20
57.0354	7
63.0244	1
65.04	23
77.0394	19
79.055	30
81.0705	3
89.0387	1
91.0085	1
91.0547	990
92.0492	1
94.0412	2
95.0494	7
102.0461	1
103.0541	59
104.0617	1
105.0698	655
106.0649	1
107.0489	74
108.0807	4
109.0647	28
115.0539	34
116.0614	1
117.0568	6
118.0647	1
120.044	4
121.0642	3
122.0595	2
131.0485	12
132.0801	9
133.0084	1
133.0642	791
134.0593	8
135.0673	54
145.0642	1
148.1112	3
149.0828	2
150.0906	999
151.0744	17
162.0905	2
178.1218	8
282.1842	34
300.1959	0
