Mass spectrum: Dothiepin; ESI-QTOF; MS2; CE: 35eV; R=15000; [M+H]+
Name: Dothiepin
Name: 3-(Dibenzo[b,e]thiepin-11(6H)-ylidene)-N,N-dimethylpropan-1-amine
Formula: C19H21NS
Exact mass: 295.1395
SMILES: CN(C)CCC=C1C2=CC=CC=C2CSC2=C1C=CC=C2
InChI: InChI=1S/C19H21NS/c1-20(2)13-7-11-17-16-9-4-3-8-15(16)14-21-19-12-6-5-10-18(17)19/h3-6,8-12H,7,13-14H2,1-2H3
Instrument: TripleTOF 5600+SCIEX
Instrument type: ESI-QTOF
Ms type: MS2
Ion mode: POSITIVE
Ionization: ESI
Fragmentation mode: CID
Collision energy: 35 eV
Resolution: 15000
Precursor m/z: 296.1468
Precursor type: [M+H]+
m/z	relative intensity
58.0675	73
58.9973	2
65.0405	2
70.0668	2
71.0745	1
72.0826	1
73.0123	2
77.0401	1
79.0554	1
84.082	9
85.0898	1
91.0552	90
102.047	1
103.0549	4
105.0707	3
115.0547	91
116.0626	3
117.0704	282
119.0861	1
121.011	2
123.0268	126
127.0545	3
128.0624	10
129.0702	36
131.0858	2
134.0187	1
135.0265	21
137.0422	3
139.0543	1
141.0702	47
142.078	36
143.0857	2
147.0266	210
149.0417	1
150.0468	1
151.0545	2
152.0625	4
153.07	1
159.0265	5
160.0344	1
161.0422	2
163.0545	2
164.0623	2
165.0702	105
166.0777	2
167.0859	2
170.0268	1
171.0268	1
172.0343	1
173.0422	54
174.0469	1
175.056	1
176.0624	5
177.0701	2
178.078	165
179.0859	58
181.1016	3
184.0341	1
185.0423	1
186.1279	1
187.0548	1
188.0622	1
189.0703	13
190.0779	14
191.086	148
192.0937	141
193.1013	1
197.0422	8
198.0488	1
199.057	1
200.0622	4
201.0702	5
202.0781	145
203.0859	399
204.0939	33
205.1015	18
206.1094	1
207.1173	1
208.0344	17
209.0424	213
210.0503	146
211.0581	12
213.0708	2
215.0859	29
216.0938	16
217.1018	363
218.1096	901
219.1171	1
220.1257	1
221.0425	304
222.0502	302
223.0582	999
224.0662	3
225.0738	335
234.0503	27
235.0582	64
236.066	165
249.074	25
251.0896	155
253.1054	5
296.1468	131
