Mass spectrum: Amiloride; LC-ESI-QFT; MS2; CE: 80%; R=17500; [M+H]+
Name: Amiloride
Name: 3,5-Diamino-N-carbamimidoyl-6-chloropyrazine-2-carboxamide
Formula: C6H8ClN7O
Exact mass: 229.0479
SMILES: NC(=N)NC(=O)C1=NC(Cl)=C(N)N=C1N
InChI: InChI=1S/C6H8ClN7O/c7-2-4(9)13-3(8)1(12-2)5(15)14-6(10)11/h(H4,8,9,13)(H4,10,11,14,15)
Instrument: Q Exactive Thermo Fisher Scientific
Instrument type: LC-ESI-QFT
Ms type: MS2
Ion mode: POSITIVE
Ionization: ESI
Fragmentation mode: HCD
Collision energy: 80% (nominal)
Resolution: 17500
Column name: Hypersil GOLD 1.9 um 2.1 x 100 mm Thermo Fisher Scientific
Precursor m/z: 230.0552
Precursor type: [M+H]+
m/z	relative intensity
55.03	8
60.0565	535
61.9801	51
63.9958	152
66.0221	7
69.0092	2
73.98	11
80.0251	6
86.0356	6
88.9908	108
91.0064	10
100.9907	83
107.0358	7
108.0436	133
116.0014	999
125.0461	3
143.0121	37
161.0226	207
171.007	26
189.0176	43
