Mass spectrum: Sulthiame; LC-ESI-ITFT; MS2; CE: 30%; R=15000; [M+H]+
Name: Sulthiame
Name: 4-(1,1-dioxothiazinan-2-yl)benzenesulfonamide
Formula: C10H14N2O4S2
Exact mass: 290.0395
SMILES: C1CCS(=O)(=O)N(C1)C2=CC=C(C=C2)S(=O)(=O)N
InChI: InChI=1S/C10H14N2O4S2/c11-18(15,16)10-5-3-9(4-6-10)12-7-1-2-8-17(12,13)14/h3-6H,1-2,7-8H2,(H2,11,15,16)
Instrument: LTQ Orbitrap XL Thermo Scientific
Instrument type: LC-ESI-ITFT
Ms type: MS2
Ion mode: POSITIVE
Ionization: ESI
Fragmentation mode: CID
Collision energy: 30% (nominal)
Resolution: 15000
Column name: Kinetex Evo C18 2.6 um 50 x 2.1 mm
Retention time: 4.004 min
Base peak: 308.0733
Precursor m/z: 291.0468
Precursor type: [M+H]+
m/z	relative intensity	assigned
147.1043	32	C10H13N+
151.048	2	C5H13NS2+
156.0114	14	C6H6NO2S+
173.0378	3	C6H9N2O2S+
185.0379	617	C7H9N2O2S+
210.0587	3	C10H12NO2S+
212.0376	5	C9H10NO3S+
226.0538	2	C10H12NO3S+
227.0848	999	C10H15N2O2S+
274.0202	69	C10H12NO4S2+
