Mass spectrum: Phenazone; LC-ESI-QFT; MS2; CE: CE90; R=17500; [M+H]+
Name: Phenazone
Name: Antipyrine
Name: 1,5-dimethyl-2-phenylpyrazol-3-one
Formula: C11H12N2O
Exact mass: 188.0950
SMILES: CN1N(C(=O)C=C1C)C1=CC=CC=C1
InChI: InChI=1S/C11H12N2O/c1-9-8-11(14)13(12(9)2)10-6-4-3-5-7-10/h3-8H,1-2H3
Instrument: Q Exactive Thermo Fisher Scientific
Instrument type: LC-ESI-QFT
Ms type: MS2
Ion mode: POSITIVE
Ionization: ESI
Fragmentation mode: HCD
Collision energy: CE90
Resolution: 17500
Column name: Acquity UPLC BEH C18 1.7 um, 2.1 x 150 mm, Waters
Retention time: 16.045 min
Base peak: 223.0628
Precursor m/z: 189.1022
Precursor type: [M+H]+
m/z	relative intensity	assigned
50.0156	685	C4H2+
51.0234	999	C4H3+
52.0186	20	C3H2N+
52.0311	18	C4H4+
53.0025	163	C3HO+
53.0392	34	C4H5+
53.9977	21	C2NO+
54.0342	50	C3H4N+
55.0181	10	C3H3O+
56.0497	246	C3H6N+
62.0152	34	C5H2+
63.0233	162	C5H3+
64.031	10	C5H4+
65.0023	50	C4HO+
65.0387	89	C5H5+
66.0214	18	C3H2N2+
66.0469	8	C5H6+
67.0177	6	C4H3O+
74.0151	50	C6H2+
75.0231	46	C6H3+
76.0306	8	C6H4+
77.0387	87	C6H5+
78.0341	6	C5H4N+
78.0465	17	C6H6+
81.0337	14	C5H5O+
89.0384	81	C7H5+
91.0543	23	C7H7+
95.0491	143	C6H7O+
105.0448	32	C6H5N2+
115.0538	16	C9H7+
