Mass spectrum: Dixyrazine ; LC-ESI-QFT; MS2; CE: 80%; R=30000; [M+H]+
Name: Dixyrazine
Name: 2-(2-{4-[2-Methyl-3-(10H-phenothiazin-10-yl)propyl]piperazin-1-yl}ethoxy)ethan-1-ol
Formula: C24H33N3O2S
Exact mass: 427.2293
SMILES: CC(CN1CCN(CCOCCO)CC1)CN1C2=CC=CC=C2SC2=CC=CC=C12
InChI: InChI=1S/C24H33N3O2S/c1-20(18-26-12-10-25(11-13-26)14-16-29-17-15-28)19-27-21-6-2-4-8-23(21)30-24-9-5-3-7-22(24)27/h2-9,20,28H,10-19H2,1H3
Instrument: Orbitrap Fusion Tribrid Thermo Fisher Scientific
Instrument type: LC-ESI-QFT
Ms type: MS2
Ion mode: POSITIVE
Ionization: ESI
Fragmentation mode: HCD
Collision energy: 80% (nominal)
Resolution: 30000
Precursor m/z: 428.2367
Precursor type: [M+H]+
m/z	relative intensity
97.0762	417
98.084	959
99.0918	50
100.0758	15
101.1075	218
110.084	38
111.0918	11
112.0996	25
113.1074	15
125.1075	31
140.1308	2
144.1019	32
151.0541	12
152.062	14
167.073	31
172.1205	38
178.0651	43
179.073	246
180.0808	999
185.0419	13
187.1439	14
196.0755	10
198.0371	22
199.0449	45
206.0961	26
211.0449	17
212.0527	191
220.1119	27
224.0523	18
229.1918	1
238.0687	14
