Mass spectrum: Metazachlor-N-dealkylation (TENTATIVE); LC-ESI-QFT; MS2; CE: 30%; R=70000; [M+H]+
Name: Metazachlor-N-dealkylation
Name: 2-chloro-N-(2,6-dimethylphenyl)acetamide
Formula: C10H12ClNO
Exact mass: 197.0599
SMILES: CC1=C(C(=CC=C1)C)NC(=O)CCl
InChI: InChI=1S/C10H12ClNO/c1-7-4-3-5-8(2)10(7)12-9(13)6-11/h3-5H,6H2,1-2H3,(H,12,13)
Instrument: Q Exactive Plus Orbitrap Thermo Scientific
Instrument type: LC-ESI-QFT
Ms type: MS2
Ion mode: POSITIVE
Ionization: ESI
Fragmentation mode: HCD
Collision energy: 30% (nominal)
Resolution: 70000
Column name: Waters UPLC BEH C18 1.7 um 2.1 mm x 100 mm with pre-column
Retention time: 10.19 min
Precursor m/z: 198.0677
Precursor type: [M+H]+
m/z	relative intensity
53.0389	37
67.0542	82
75.9948	45
76.9789	89
77.0385	44
79.0543	280
81.0699	62
91.0542	157
93.0699	58
95.0492	143
95.0855	115
103.0542	110
105.0447	52
105.0699	549
106.0652	125
107.073	999
107.0856	126
108.0569	99
115.0542	30
117.0699	58
118.065	43
119.073	88
119.0855	30
120.0805	53
121.0648	42
121.0885	59
122.0965	501
123.0805	166
134.0966	162
144.0805	40
147.0679	109
