Mass spectrum: Antipyrine; LC-ESI-ITFT; MS2; CE: 135%; R=15000; [M+H]+
Name: Antipyrine
Name: 1,5-dimethyl-2-phenylpyrazol-3-one
Formula: C11H12N2O
Exact mass: 188.0950
SMILES: CC1=CC(=O)N(N1C)C2=CC=CC=C2
InChI: InChI=1S/C11H12N2O/c1-9-8-11(14)13(12(9)2)10-6-4-3-5-7-10/h3-8H,1-2H3
Instrument: LTQ Orbitrap XL Thermo Scientific
Instrument type: LC-ESI-ITFT
Ms type: MS2
Ion mode: POSITIVE
Ionization: ESI
Fragmentation mode: HCD
Collision energy: 135% (nominal)
Resolution: 15000
Column name: Kinetex Evo C18 2.6 um 50 x 2.1 mm
Retention time: 5.674 min
Base peak: 189.1022
Precursor m/z: 189.1022
Precursor type: [M+H]+
m/z	relative intensity	assigned
54.0336	15	C3H4N+
55.0414	10	C3H5N+
56.0492	999	C3H6N+
58.0649	187	C3H8N+
65.0384	179	C5H5+
67.0177	13	C4H3O+
68.0494	24	C4H6N+
69.0573	19	C4H7N+
77.0385	808	C6H5+
78.0463	65	C6H6+
79.0541	131	C6H7+
80.0494	13	C5H6N+
81.0447	42	C4H5N2+
82.0285	10	C4H4NO+
89.0383	20	C7H5+
90.0463	23	C7H6+
91.0542	197	C7H7+
92.0494	43	C6H6N+
93.0572	33	C6H7N+
94.0651	16	C6H8N+
95.0491	163	C6H7O+
95.0604	43	C5H7N2+
98.0599	56	C5H8NO+
102.0464	48	C8H6+
103.0542	106	C8H7+
104.0495	285	C7H6N+
105.0447	639	C6H5N2+
106.0651	299	C7H8N+
115.0542	177	C9H7+
116.0494	10	C8H6N+
116.0623	10	C9H8+
117.0573	106	C8H7N+
117.0698	34	C9H9+
118.0651	79	C8H8N+
119.0601	11	C7H7N2+
120.0808	23	C8H10N+
128.0494	41	C9H6N+
129.0573	40	C9H7N+
130.0651	201	C9H8N+
131.0603	195	C8H7N2+
131.0732	24	C9H9N+
132.068	63	C8H8N2+
144.0809	25	C10H10N+
145.0759	78	C9H9N2+
147.0914	16	C9H11N2+
