Mass spectrum: Cyclizine; LC-ESI-ITFT; MS2; CE: 165%; R=15000; [M+H]+
Name: Cyclizine
Name: 1-benzhydryl-4-methylpiperazine
Formula: C18H22N2
Exact mass: 266.1783
SMILES: CN1CCN(CC1)C(C2=CC=CC=C2)C3=CC=CC=C3
InChI: InChI=1S/C18H22N2/c1-19-12-14-20(15-13-19)18(16-8-4-2-5-9-16)17-10-6-3-7-11-17/h2-11,18H,12-15H2,1H3
Instrument: LTQ Orbitrap XL Thermo Scientific
Instrument type: LC-ESI-ITFT
Ms type: MS2
Ion mode: POSITIVE
Ionization: ESI
Fragmentation mode: HCD
Collision energy: 165% (nominal)
Resolution: 15000
Column name: Kinetex Evo C18 2.6 um 50 x 2.1 mm
Retention time: 7.673 min
Base peak: 267.1854
Precursor m/z: 267.1856
Precursor type: [M+H]+
m/z	relative intensity	assigned
63.0227	23	C5H3+
65.0384	45	C5H5+
75.0229	5	C6H3+
76.0307	7	C6H4+
77.0386	10	C6H5+
78.0463	27	C6H6+
87.0225	5	C7H3+
89.0385	50	C7H5+
91.0541	23	C7H7+
102.0464	81	C8H6+
105.0447	17	C6H5N2+
113.0384	7	C9H5+
115.0542	375	C9H7+
125.0387	8	C10H5+
126.0464	88	C10H6+
127.0542	17	C10H7+
128.062	186	C10H8+
129.0449	6	C8H5N2+
138.0468	3	C11H6+
139.0542	146	C11H7+
141.0698	45	C11H9+
150.0464	59	C12H6+
151.0543	105	C12H7+
152.062	501	C12H8+
155.0602	20	C10H7N2+
163.0543	102	C13H7+
164.062	192	C13H8+
165.0698	999	C13H9+
169.0647	56	C12H9O+
179.0603	60	C12H7N2+
