Mass spectrum: Chlorotoluron-OH-desmethyl (TENTATIVE); LC-ESI-QFT; MS2; CE: 55%; R=70000; [M+H]+
Name: Chlorotoluron-OH-desmethyl
Formula: C9H11ClN2O2
Exact mass: 214.0502
SMILES: C(*)C1=C(c(*)=C(C(*)=C(*)1)NC(=O)N(C(*)))Cl  * = [OH (n=1) & H (n=4)]
Instrument: Q Exactive Plus Orbitrap Thermo Scientific
Instrument type: LC-ESI-QFT
Ms type: MS2
Ion mode: POSITIVE
Ionization: ESI
Fragmentation mode: HCD
Collision energy: 55% (nominal)
Resolution: 70000
Column name: Waters UPLC BEH C18 1.7 um 2.1 mm x 100 mm with pre-column
Retention time: 8.56 min
Precursor m/z: 215.058
Precursor type: [M+H]+
m/z	relative intensity
50.0155	6
51.0233	11
53.0025	3
53.0389	3
58.029	68
63.0231	9
65.0387	54
66.0466	145
67.0417	6
72.9839	13
74.0152	3
75.0229	21
77.0385	11
78.0337	3
78.0464	11
91.0415	3
92.0494	39
93.0573	999
95.0492	12
96.984	14
98.9996	5
104.0495	34
105.0449	5
105.0573	16
110.9995	7
113.0154	4
122.9996	32
128.0262	9
129.0102	11
139.0058	16
140.0263	13
