Mass spectrum: Dixyrazine ; LC-ESI-ITFT; MS2; CE: 70%; R=7500; [M+H]+
Name: Dixyrazine
Name: 2-(2-{4-[2-Methyl-3-(10H-phenothiazin-10-yl)propyl]piperazin-1-yl}ethoxy)ethan-1-ol
Formula: C24H33N3O2S
Exact mass: 427.2293
SMILES: CC(CN1CCN(CCOCCO)CC1)CN1C2=CC=CC=C2SC2=CC=CC=C12
InChI: InChI=1S/C24H33N3O2S/c1-20(18-26-12-10-25(11-13-26)14-16-29-17-15-28)19-27-21-6-2-4-8-23(21)30-24-9-5-3-7-22(24)27/h2-9,20,28H,10-19H2,1H3
Instrument: LTQ Orbitrap XL Thermo Fisher Scientific
Instrument type: LC-ESI-ITFT
Ms type: MS2
Ion mode: POSITIVE
Ionization: ESI
Fragmentation mode: HCD
Collision energy: 70% (nominal)
Resolution: 7500
Column name: Hypersil GOLD C18 1.9 um 100 x 2.1 mm Thermo Fisher Scientific
Precursor m/z: 428.2367
Precursor type: [M+H]+
m/z	relative intensity
56.0493	7
57.0546	3
57.0587	5
57.07	7
57.0762	8
57.0801	6
57.0846	7
57.0876	6
57.0989	6
57.1013	6
57.1095	6
57.1394	5
58.065	24
70.065	127
82.065	49
83.0602	9
84.0806	36
86.0599	9
87.0439	112
97.076	302
98.0838	999
99.0916	54
100.0758	21
101.1073	578
110.0838	26
111.0915	5
112.112	30
113.1072	17
118.0862	14
124.021	4
125.1073	139
130.0861	16
132.1019	4
140.1308	27
144.1019	114
155.1544	18
172.1207	158
178.0642	7
179.0731	53
180.0809	520
187.1441	256
188.9234	14
198.037	15
198.7629	10
199.0452	45
206.0974	12
212.053	528
220.1126	17
221.1202	17
229.1914	100
238.0689	5
254.1	9
273.8041	12
