Mass spectrum: Fipronil-deschloro (Unequivocal molecular formula); LC-ESI-QFT; MS2; CE: 30%; R=70000; [M-H]-
Name: Fipronil-deschloro
Formula: C12H3ClF6N4O2S
Exact mass: 415.9569
Instrument: Q Exactive Plus Orbitrap Thermo Scientific
Instrument type: LC-ESI-QFT
Ms type: MS2
Ion mode: NEGATIVE
Ionization: ESI
Fragmentation mode: HCD
Collision energy: 30% (nominal)
Resolution: 70000
Column name: Waters UPLC BEH C18 1.7 um 2.1 mm x 100 mm with pre-column
Retention time: 15.94
Precursor m/z: 414.9479
Precursor type: [M-H]-
m/z	relative intensity
65.9984	1
76.0067	1
88.0066	7
89.0146	1
112.0001	1
130.9985	1
148.9911	5
150.0033	12
158.0098	1
170.0096	114
180.9939	1
181.975	1
182.0096	58
183.0173	413
200.9973	1
206.0099	1
207.0172	3
216.9783	13
216.992	11
217.9862	140
218.0078	4
227.0183	1
233.9811	212
235.0232	6
240.9797	1
243.9892	152
245.9812	11
246.0155	24
246.9888	2
251.0185	17
257.9807	6
257.9924	15
259.984	29
261.9862	18
268.9843	3
271.984	21
281.9922	999
283	183
283.9845	5
284.9792	11
287.9788	2
297.9871	135
300.9906	21
313.9822	3
325.9822	3
345.9541	73
348.9572	4
350.988	1
414.9493	894
