Mass spectrum: Dosulepin; LC-ESI-ITFT; MS2; CE: 105%; R=15000; [M+H]+
Name: Dosulepin
Name: Dothiepin
Name: 3-(6H-benzo[c][1]benzothiepin-11-ylidene)-N,N-dimethylpropan-1-amine
Formula: C19H21NS
Exact mass: 295.1395
SMILES: CN(C)CCC=C1C2=CC=CC=C2CSC3=CC=CC=C31
InChI: InChI=1S/C19H21NS/c1-20(2)13-7-11-17-16-9-4-3-8-15(16)14-21-19-12-6-5-10-18(17)19/h3-6,8-12H,7,13-14H2,1-2H3
Instrument: LTQ Orbitrap XL Thermo Scientific
Instrument type: LC-ESI-ITFT
Ms type: MS2
Ion mode: POSITIVE
Ionization: ESI
Fragmentation mode: CID
Collision energy: 105% (nominal)
Resolution: 15000
Column name: Kinetex Evo C18 2.6 um 50 x 2.1 mm
Retention time: 8.178 min
Base peak: 296.1467
Precursor m/z: 296.1467
Precursor type: [M+H]+
m/z	relative intensity	assigned
91.0542	14	C7H7+
115.0541	2	C9H7+
117.0698	13	C9H9+
123.0264	9	C7H7S+
141.0701	5	C11H9+
142.0776	4	C11H10+
147.0263	202	C9H7S+
173.0418	12	C11H9S+
191.0855	29	C15H11+
192.093	3	C15H12+
209.042	65	C14H9S+
210.0502	2	C14H10S+
211.0583	3	C14H11S+
217.1012	36	C17H13+
218.109	118	C17H14+
221.0417	3	C15H9S+
222.0499	35	C15H10S+
223.0577	279	C15H11S+
225.0731	999	C15H13S+
236.0653	27	C16H12S+
249.0728	2	C17H13S+
251.0889	474	C17H15S+
253.1044	48	C17H17S+
265.1047	6	C18H17S+
