Mass spectrum: Palitantin; LC-ESI-ITFT; MS2; CE: 50%; R=7500; [M+H]+
Name: Palitantin
Name: 5-hepta-1,3-dienyl-2,3-dihydroxy-6-(hydroxymethyl)cyclohexan-1-one
Formula: C14H22O4
Exact mass: 254.1518
SMILES: CCCC=CC=CC1CC(C(C(=O)C1CO)O)O
InChI: InChI=1S/C14H22O4/c1-2-3-4-5-6-7-10-8-12(16)14(18)13(17)11(10)9-15/h4-7,10-12,14-16,18H,2-3,8-9H2,1H3
Instrument: LTQ Orbitrap XL Thermo Scientific
Instrument type: LC-ESI-ITFT
Ms type: MS2
Ion mode: POSITIVE
Ionization: ESI
Fragmentation mode: HCD
Collision energy: 50 % (nominal)
Resolution: 7500
Column name: Hypersil GOLD C18 1.9 um 100 x 2.1 mm Thermo Fisher Scientific
Retention time: 18.015 min
Base peak: 277.1411
Precursor m/z: 255.1591
Precursor type: [M+H]+
Precursor intensity: 1825505.71875
m/z	relative intensity	assigned
117.0698	46	C9H9+
131.0851	122	C10H11+
133.1016	71	C10H13+
135.1167	62	C10H15+
137.0595	118	C8H9O2+
145.1009	110	C11H13+
147.1167	73	C11H15+
157.1012	85	C12H13+
159.0804	67	C11H11O+
173.1324	424	C13H17+
183.1159	82	C14H15+
191.1424	222	C13H19O+
193.1221	999	C12H17O2+
201.1275	320	C14H17O+
219.1382	470	C14H19O2+
237.1486	346	C14H21O3+
255.1597	118	C14H23O4+
