Mass spectrum: Desipramine; ESI-QTOF; MS2; CE: 40eV; R=15000; [M+H]+
Name: Desipramine
Name: 3-(10,11-Dihydro-5H-dibenzo[b,f]azepin-5-yl)-N-methylpropan-1-amine
Formula: C18H22N2
Exact mass: 266.1783
SMILES: CNCCCN1C2=C(CCC3=C1C=CC=C3)C=CC=C2
InChI: InChI=1S/C18H22N2/c1-19-13-6-14-20-17-9-4-2-7-15(17)11-12-16-8-3-5-10-18(16)20/h2-5,7-10,19H,6,11-14H2,1H3
Instrument: TripleTOF 5600+SCIEX
Instrument type: ESI-QTOF
Ms type: MS2
Ion mode: POSITIVE
Ionization: ESI
Fragmentation mode: CID
Collision energy: 40 eV
Resolution: 15000
Precursor m/z: 267.1856
Precursor type: [M+H]+
m/z	relative intensity
55.0567	4
56.0519	11
57.0598	29
65.0403	1
67.056	6
69.0715	3
70.0667	3
71.0871	4
72.0828	999
77.04	1
79.0555	4
81.0711	6
83.0867	1
85.1022	2
91.0551	9
93.0708	1
95.0862	6
97.1017	1
103.0546	2
105.0703	5
106.0655	2
107.0857	1
109.1014	2
115.0545	4
116.0496	1
117.0576	3
118.0652	6
119.0855	1
128.0494	1
130.0652	8
131.0849	1
132.0808	2
139.0542	2
140.0495	1
143.0727	2
144.0806	4
145.0884	2
152.0619	3
153.0697	1
156.0806	1
157.0883	1
158.0961	6
159.104	1
165.0696	15
166.0771	5
167.0727	13
168.0805	1
180.0805	52
181.0884	6
191.0728	11
192.0804	43
193.0884	698
194.0961	57
195.1039	39
196.1116	27
206.0961	20
207.1038	11
208.1119	459
220.1117	30
236.1429	17
267.1856	0
