Mass spectrum: Phentermine; LC-ESI-QTOF; MS2; CE: 15 eV; R=3600; [M+H]+
Name: Phentermine
Name: 2-Methyl-1-phenylpropan-2-amine
Formula: C10H15N
Exact mass: 149.1204
SMILES: CC(C)(N)CC1=CC=CC=C1
InChI: InChI=1S/C10H15N/c1-10(2,11)8-9-6-4-3-5-7-9/h3-7H,8,11H2,1-2H3
Instrument: 6652 QTOF Agilent
Instrument type: LC-ESI-QTOF
Ms type: MS2
Ion mode: POSITIVE
Ionization: ESI
Fragmentation mode: CID
Collision energy: 15 eV
Resolution: 3600
Precursor m/z: 150.1278
Precursor type: [M+H]+
m/z	relative intensity
51.0219	20
55.0531	24
58.0632	15
62.0146	14
63.0241	22
65.037	367
66.0392	28
68.0464	2
70.0634	16
77.0415	31
79.0509	20
88.0728	19
91.0516	999
92.0547	11
94.062	10
103.0518	12
105.0663	65
133.0962	40
150.1278	2
