Mass spectrum: Etilefrine; LC-ESI-ITFT; MS2; CE: 185%; R=15000; [M+H]+
Name: Etilefrine
Name: 3-[2-(ethylamino)-1-hydroxyethyl]phenol
Formula: C10H15NO2
Exact mass: 181.1103
SMILES: CCNCC(C1=CC(=CC=C1)O)O
InChI: InChI=1S/C10H15NO2/c1-2-11-7-10(13)8-4-3-5-9(12)6-8/h3-6,10-13H,2,7H2,1H3
Instrument: LTQ Orbitrap XL Thermo Scientific
Instrument type: LC-ESI-ITFT
Ms type: MS2
Ion mode: POSITIVE
Ionization: ESI
Fragmentation mode: HCD
Collision energy: 185% (nominal)
Resolution: 15000
Column name: Kinetex Evo C18 2.6 um 50 x 2.1 mm
Retention time: 0.605 min
Base peak: 182.1176
Precursor m/z: 182.1176
Precursor type: [M+H]+
m/z	relative intensity	assigned
63.0229	65	C5H3+
65.0384	999	C5H5+
66.0463	62	C5H6+
77.0385	221	C6H5+
79.0542	127	C6H7+
89.0387	73	C7H5+
90.0465	60	C7H6+
91.0543	635	C7H7+
94.0413	117	C6H6O+
105.0447	287	C6H5N2+
107.0491	229	C7H7O+
117.0571	59	C8H7N+
134.0601	40	C8H8NO+
