Mass spectrum: Metoclopramide; LC-ESI-ITFT; MS2; CE: 115%; R=15000; [M+H]+
Name: Metoclopramide
Name: 4-amino-5-chloro-N-[2-(diethylamino)ethyl]-2-methoxybenzamide
Formula: C14H22ClN3O2
Exact mass: 299.1401
SMILES: CCN(CC)CCNC(=O)C1=CC(=C(C=C1OC)N)Cl
InChI: InChI=1S/C14H22ClN3O2/c1-4-18(5-2)7-6-17-14(19)10-8-11(15)12(16)9-13(10)20-3/h8-9H,4-7,16H2,1-3H3,(H,17,19)
Instrument: LTQ Orbitrap XL Thermo Scientific
Instrument type: LC-ESI-ITFT
Ms type: MS2
Ion mode: POSITIVE
Ionization: ESI
Fragmentation mode: HCD
Collision energy: 115% (nominal)
Resolution: 15000
Column name: Kinetex Evo C18 2.6 um 50 x 2.1 mm
Retention time: 2.745 min
Base peak: 300.1477
Precursor m/z: 300.1473
Precursor type: [M+H]+
m/z	relative intensity	assigned
63.0228	62	C5H3+
65.0384	17	C5H5+
72.0808	13	C4H10N+
72.9838	5	C3H2Cl+
78.0338	146	C5H4N+
80.0496	9	C5H6N+
90.0339	341	C6H4N+
91.0417	14	C6H5N+
92.0495	26	C6H6N+
93.0573	111	C6H7N+
98.9997	100	C5H4Cl+
100.1122	8	C6H14N+
105.0448	55	C6H5N2+
106.0289	9	C6H4NO+
108.0445	64	C6H6NO+
110.9998	7	C6H4Cl+
113.0027	813	C5H4ClN+
114.0105	11	C5H5ClN+
119.0604	11	C7H7N2+
120.0444	26	C7H6NO+
121.0521	5	C7H7NO+
126.0106	134	C6H5ClN+
127.0184	24	C6H6ClN+
128.0262	58	C6H7ClN+
129.0103	37	C6H6ClO+
133.0393	6	C7H5N2O+
140.0137	60	C6H5ClN2+
140.9977	999	C6H4ClNO+
142.0021	8	CH5ClN3O3+
144.0212	38	C6H7ClNO+
147.0555	9	C8H7N2O+
148.0631	50	C8H8N2O+
154.0055	70	C7H5ClNO+
156.0212	77	C7H7ClNO+
168.0086	527	C7H5ClN2O+
168.9925	152	C7H4ClNO2+
170.0004	54	C7H5ClNO2+
181.0163	21	C8H6ClN2O+
182.0242	17	C8H7ClN2O+
183.0322	32	C8H8ClN2O+
184.0161	317	C8H7ClNO2+
187.0032	53	C7H6ClNO3+
211.027	10	C9H8ClN2O2+
212.035	35	C9H9ClN2O2+
