Mass spectrum: Fumonisin B3; LC-ESI-ITFT; MS2; CE: 60%; R=7500; [M+H]+
Name: Fumonisin B3
Name: 2-Amino-3,10-dihydroxy-14,15-bis(3,4-dicarboxybutyryloxy)-12,16-dimethylicosane
Name: 2-[2-[19-amino-6-(3,4-dicarboxybutanoyloxy)-11,18-dihydroxy-5,9-dimethylicosan-7-yl]oxy-2-oxoethyl]butanedioic acid
Formula: C34H59NO14
Exact mass: 705.3936
SMILES: CCCCC(C)C(C(CC(C)CC(CCCCCCC(C(C)N)O)O)OC(=O)CC(CC(=O)O)C(=O)O)OC(=O)CC(CC(=O)O)C(=O)O
InChI: InChI=1S/C34H59NO14/c1-5-6-11-21(3)32(49-31(43)19-24(34(46)47)17-29(40)41)27(48-30(42)18-23(33(44)45)16-28(38)39)15-20(2)14-25(36)12-9-7-8-10-13-26(37)22(4)35/h20-27,32,36-37H,5-19,35H2,1-4H3,(H,38,39)(H,40,41)(H,44,45)(H,46,47)
Instrument: LTQ Orbitrap XL Thermo Scientific
Instrument type: LC-ESI-ITFT
Ms type: MS2
Ion mode: POSITIVE
Ionization: ESI
Fragmentation mode: HCD
Collision energy: 60 % (nominal)
Resolution: 7500
Column name: Hypersil GOLD C18 1.9 um 100 x 2.1 mm Thermo Fisher Scientific
Retention time: 22.242 min
Base peak: 706.4018
Precursor m/z: 706.4008
Precursor type: [M+H]+
Precursor intensity: 23140051.16699
m/z	relative intensity	assigned
55.054	92	C4H7+
67.0542	165	C5H7+
69.0698	226	C5H9+
70.065	243	C4H8N+
74.0599	336	C3H8NO+
81.0697	506	C6H9+
83.0853	76	C6H11+
85.0281	202	C4H5O2+
93.0697	224	C7H9+
95.0854	679	C7H11+
96.0804	97	C6H10N+
105.0696	77	C8H9+
107.0852	279	C8H11+
109.101	634	C8H13+
113.0232	669	C5H5O3+
119.0851	127	C9H11+
121.1011	304	C9H13+
123.1168	190	C9H15+
133.1014	130	C10H13+
135.1166	228	C10H15+
137.132	69	C10H17+
141.018	937	C6H5O4+
147.1163	108	C11H15+
149.1323	139	C11H17+
159.0283	187	C6H7O5+
161.1322	119	C12H17+
194.1907	150	C13H24N+
201.0264	78	C7H7NO6+
208.205	191	C14H26N+
220.2064	215	C15H26N+
234.2211	76	C16H28N+
238.2163	221	C15H28NO+
318.315	905	C22H40N+
336.3258	999	C22H42NO+
