Mass spectrum: Metolachlor-desmethyl (Unequivocal molecular formula); LC-ESI-QFT; MS2; CE: 30%; R=70000; [M+H]+
Name: Metolachlor-desmethyl
Formula: C14H16ClNO2
Exact mass: 265.0859
Instrument: Q Exactive Plus Orbitrap Thermo Scientific
Instrument type: LC-ESI-QFT
Ms type: MS2
Ion mode: POSITIVE
Ionization: ESI
Fragmentation mode: HCD
Collision energy: 30% (nominal)
Resolution: 70000
Column name: Waters UPLC BEH C18 1.7 um 2.1 mm x 100 mm with pre-column
Retention time: 12.17 min
Precursor m/z: 266.0937
Precursor type: [M+H]+
m/z	relative intensity
53.039	23
57.0338	23
76.9788	75
104.0257	25
109.0649	22
115.0543	25
117.0695	26
120.0807	75
131.073	94
131.0855	34
132.0212	21
132.0808	128
133.0887	229
134.0964	90
144.0809	100
145.0887	47
146.0963	91
148.1123	29
155.0853	25
156.0809	60
157.0887	658
158.0966	43
160.0753	31
160.1125	46
162.1277	999
171.1042	28
172.1121	598
208.0521	30
