Mass spectrum: Phenazone; ESI-QTOF; MS2; CE: 50eV; R=15000; [M+H]+
Name: Phenazone
Name: 1,5-Dimethyl-2-phenyl-1,2-dihydro-3H-pyrazol-3-one
Formula: C11H12N2O
Exact mass: 188.095
SMILES: CN1N(C(=O)C=C1C)C1=CC=CC=C1
InChI: InChI=1S/C11H12N2O/c1-9-8-11(14)13(12(9)2)10-6-4-3-5-7-10/h3-8H,1-2H3
Instrument: TripleTOF 5600+SCIEX
Instrument type: ESI-QTOF
Ms type: MS2
Ion mode: POSITIVE
Ionization: ESI
Fragmentation mode: CID
Collision energy: 50 eV
Resolution: 15000
Precursor m/z: 189.1023
Precursor type: [M+H]+
m/z	relative intensity
50.0177	18
51.0254	76
52.0328	1
53.0407	3
54.036	8
55.0199	6
56.0157	1
56.0519	478
57.0592	1
58.0671	55
62.0167	1
63.0245	3
64.032	1
65.04	81
66.0476	2
67.019	4
68.0507	8
69.0584	8
70.0661	1
74.0158	1
75.0237	2
76.0314	2
77.0396	999
78.047	26
79.0549	53
80.0501	7
81.0453	22
82.0292	5
83.0608	3
86.0602	1
89.0388	15
90.0465	13
91.0543	93
92.0497	16
93.0574	15
94.0652	10
95.0604	30
96.0681	8
98.0599	22
101.0384	7
102.0461	32
103.0539	68
104.0493	216
105.0333	4
105.0569	9
105.0693	7
106.0525	6
106.0648	181
107.0599	3
111.0549	1
112.0625	1
113.0704	2
114.0459	1
115.0537	157
116.049	10
116.0611	9
117.0569	77
117.0683	34
118.0644	69
119.0597	6
119.072	5
120.08	19
121.0752	1
128.0487	41
129.0564	33
130.0642	218
131.0595	189
132.0673	58
133.0512	10
134.0464	6
143.0718	17
144.0796	30
145.0749	86
146.0827	14
147.0905	28
149.0699	2
159.0905	5
160.0983	1
161.1062	1
174.0774	4
189.1023	3
