Mass spectrum: Sulfamethoxazole; LC-ESI-QFT; MS2; CE: 65%; R=17500; [M+H]+
Name: Sulfamethoxazole
Name: 4-Amino-N-(5-methyl-1,2-oxazol-3-yl)benzene-1-sulfonamide
Formula: C10H11N3O3S
Exact mass: 253.0521
SMILES: CC1=CC(NS(=O)(=O)C2=CC=C(N)C=C2)=NO1
InChI: InChI=1S/C10H11N3O3S/c1-7-6-10(12-16-7)13-17(14,15)9-4-2-8(11)3-5-9/h2-6H,11H2,1H3,(H,12,13)
Instrument: Q Exactive Thermo Fisher Scientific
Instrument type: LC-ESI-QFT
Ms type: MS2
Ion mode: POSITIVE
Ionization: ESI
Fragmentation mode: HCD
Collision energy: 65% (nominal)
Resolution: 17500
Column name: Hypersil GOLD 1.9 um 2.1 x 100 mm Thermo Fisher Scientific
Precursor m/z: 254.0594
Precursor type: [M+H]+
m/z	relative intensity
65.0394	359
68.0503	35
72.0452	15
79.0186	6
80.0502	114
92.0501	999
93.0579	224
94.0658	11
96.045	5
99.0558	131
107.0609	37
108.0448	817
110.0605	174
120.0559	13
133.0761	6
143.0605	6
146.0714	37
147.0792	35
156.0115	33
160.087	32
