Mass spectrum: Sulfamoxole; ESI-QTOF; MS2; CE: 50eV; R=15000; [M+H]+
Name: Sulfamoxole
Name: 4-Amino-N-(4,5-dimethyl-1,3-oxazol-2-yl)benzene-1-sulfonamide
Formula: C11H13N3O3S
Exact mass: 267.0678
SMILES: CC1=C(C)N=C(NS(=O)(=O)C2=CC=C(N)C=C2)O1
InChI: InChI=1S/C11H13N3O3S/c1-7-8(2)17-11(13-7)14-18(15,16)10-5-3-9(12)4-6-10/h3-6H,12H2,1-2H3,(H,13,14)
Instrument: TripleTOF 5600+SCIEX
Instrument type: ESI-QTOF
Ms type: MS2
Ion mode: POSITIVE
Ionization: ESI
Fragmentation mode: CID
Collision energy: 50 eV
Resolution: 15000
Precursor m/z: 268.0751
Precursor type: [M+H]+
m/z	relative intensity
51.0256	1
53.0414	11
54.0367	30
55.0212	1
63.0255	1
64.0207	1
65.0073	1
65.0408	514
66.0359	10
67.0568	1
68.0515	4
69.0592	30
70.067	138
71.0511	1
76.0321	1
77.0401	2
78.0352	1
79.0562	1
80.051	170
81.0713	1
83.0618	4
90.0351	2
91.0553	1
92.0507	870
93.0585	9
94.0665	3
96.0454	1
97.0408	3
107.0864	1
107.9926	1
108.0452	999
110.0611	3
111.0561	87
112.0639	105
112.9997	1
113.0718	402
120.0559	1
123.0139	4
124.0084	1
125.0283	1
140.017	63
145.0767	1
146.0838	1
153.0227	1
156.0118	59
