Mass spectrum: Verrucarin A; LC-ESI-ITFT; MS2; CE: 20%; R=7500; [M+H]+
Name: Verrucarin A
Name: Muconomycin A
Name: 12-hydroxy-5,13,25-trimethylspiro[2,10,16,23-tetraoxatetracyclo[22.2.1.03,8.08,25]heptacosa-4,18,20-triene-26,2`-oxirane]-11,17,22-trione
Formula: C27H34O9
Exact mass: 502.2203
SMILES: CC1CCOC(=O)C=CC=CC(=O)OC2CC3C4(C2(C5(CCC(=CC5O3)C)COC(=O)C1O)C)CO4
InChI: InChI=1S/C27H34O9/c1-16-8-10-26-14-33-24(31)23(30)17(2)9-11-32-21(28)6-4-5-7-22(29)36-18-13-20(35-19(26)12-16)27(15-34-27)25(18,26)3/h4-7,12,17-20,23,30H,8-11,13-15H2,1-3H3
Instrument: LTQ Orbitrap XL Thermo Scientific
Instrument type: LC-ESI-ITFT
Ms type: MS2
Ion mode: POSITIVE
Ionization: ESI
Fragmentation mode: HCD
Collision energy: 20 % (nominal)
Resolution: 7500
Column name: Hypersil GOLD C18 1.9 um 100 x 2.1 mm Thermo Fisher Scientific
Retention time: 19.599 min
Base peak: 503.2284
Precursor m/z: 503.2276
Precursor type: [M+H]+
Precursor intensity: 5459707.901123
m/z	relative intensity	assigned
56.0259	32	C3H4O+
161.0967	40	C11H13O+
185.1333	78	C14H17+
193.1221	161	C12H17O2+
203.1425	43	C14H19O+
213.1279	84	C15H17O+
231.1379	392	C15H19O2+
249.1486	999	C15H21O3+
333.2076	50	C20H29O4+
373.1648	108	C21H25O6+
457.2225	47	C26H33O7+
