Mass spectrum: Amiloride; LC-ESI-QFT; MS2; CE: 80%; R=30000; [M+H]+
Name: Amiloride
Name: 3,5-Diamino-N-carbamimidoyl-6-chloropyrazine-2-carboxamide
Formula: C6H8ClN7O
Exact mass: 229.0479
SMILES: NC(=N)NC(=O)C1=NC(Cl)=C(N)N=C1N
InChI: InChI=1S/C6H8ClN7O/c7-2-4(9)13-3(8)1(12-2)5(15)14-6(10)11/h(H4,8,9,13)(H4,10,11,14,15)
Instrument: Orbitrap Fusion Tribrid Thermo Fisher Scientific
Instrument type: LC-ESI-QFT
Ms type: MS2
Ion mode: POSITIVE
Ionization: ESI
Fragmentation mode: HCD
Collision energy: 80% (nominal)
Resolution: 30000
Precursor m/z: 230.0552
Precursor type: [M+H]+
m/z	relative intensity
60.056	791
61.9794	286
63.9951	563
66.0215	104
73.9795	198
80.0246	15
81.0325	10
86.0354	4
88.9904	394
100.9904	272
108.0433	244
116.0013	999
143.0121	18
161.0227	26
171.0077	2
