Mass spectrum: Sulfamoxole; ESI-QTOF; MS2; CE: 25eV; R=15000; [M+H]+
Name: Sulfamoxole
Name: 4-Amino-N-(4,5-dimethyl-1,3-oxazol-2-yl)benzene-1-sulfonamide
Formula: C11H13N3O3S
Exact mass: 267.0678
SMILES: CC1=C(C)N=C(NS(=O)(=O)C2=CC=C(N)C=C2)O1
InChI: InChI=1S/C11H13N3O3S/c1-7-8(2)17-11(13-7)14-18(15,16)10-5-3-9(12)4-6-10/h3-6H,12H2,1-2H3,(H,13,14)
Instrument: TripleTOF 5600+SCIEX
Instrument type: ESI-QTOF
Ms type: MS2
Ion mode: POSITIVE
Ionization: ESI
Fragmentation mode: CID
Collision energy: 25 eV
Resolution: 15000
Precursor m/z: 268.0751
Precursor type: [M+H]+
m/z	relative intensity
54.0367	1
65.0408	14
69.0593	3
70.0671	7
80.051	5
83.0618	1
92.0507	182
93.0586	1
94.0664	2
108.0452	385
111.0561	23
112.064	87
113.0719	390
135.0813	1
140.017	91
156.0121	999
158.0277	12
161.1084	1
162.0918	1
167.9982	1
175.0178	7
186.0089	1
204.1143	1
227.0603	2
268.0751	243
