Mass spectrum: Antipyrine; LC-ESI-ITFT; MS2; CE: 105%; R=15000; [M+H]+
Name: Antipyrine
Name: 1,5-dimethyl-2-phenylpyrazol-3-one
Formula: C11H12N2O
Exact mass: 188.0950
SMILES: CC1=CC(=O)N(N1C)C2=CC=CC=C2
InChI: InChI=1S/C11H12N2O/c1-9-8-11(14)13(12(9)2)10-6-4-3-5-7-10/h3-8H,1-2H3
Instrument: LTQ Orbitrap XL Thermo Scientific
Instrument type: LC-ESI-ITFT
Ms type: MS2
Ion mode: POSITIVE
Ionization: ESI
Fragmentation mode: HCD
Collision energy: 105% (nominal)
Resolution: 15000
Column name: Kinetex Evo C18 2.6 um 50 x 2.1 mm
Retention time: 5.710 min
Base peak: 189.1023
Precursor m/z: 189.1022
Precursor type: [M+H]+
m/z	relative intensity	assigned
55.0176	29	C3H3O+
55.0414	16	C3H5N+
55.054	9	C4H7+
58.0649	546	C3H8N+
65.0384	281	C5H5+
68.0493	30	C4H6N+
69.0571	63	C4H7N+
70.0651	12	C4H8N+
77.0385	860	C6H5+
78.0464	49	C6H6+
79.0542	172	C6H7+
80.0492	12	C5H6N+
81.0447	108	C4H5N2+
82.0287	11	C4H4NO+
86.0601	10	C4H8NO+
91.0542	249	C7H7+
92.0495	86	C6H6N+
93.0572	44	C6H7N+
93.0697	9	C7H9+
94.0651	64	C6H8N+
95.0491	183	C6H7O+
95.0604	142	C5H7N2+
96.0443	11	C5H6NO+
96.0682	142	C5H8N2+
98.06	208	C5H8NO+
102.0466	18	C8H6+
103.0542	215	C8H7+
104.0495	833	C7H6N+
105.0337	27	C7H5O+
105.0447	521	C6H5N2+
105.0574	57	C7H7N+
105.0699	49	C8H9+
106.0651	999	C7H8N+
107.0605	17	C6H7N2+
113.0709	8	C5H9N2O+
115.0542	218	C9H7+
116.062	17	C9H8+
117.0573	185	C8H7N+
117.0699	227	C9H9+
118.0651	271	C8H8N+
119.0727	17	C8H9N+
120.0808	147	C8H10N+
128.0495	31	C9H6N+
129.0573	121	C9H7N+
130.0651	451	C9H8N+
131.0603	246	C8H7N2+
131.0729	184	C9H9N+
132.0444	21	C8H6NO+
132.0682	175	C8H8N2+
132.0808	55	C9H10N+
133.0522	54	C8H7NO+
133.076	20	C8H9N2+
134.0477	19	C7H6N2O+
134.0965	23	C9H12N+
143.0732	42	C10H9N+
144.0808	142	C10H10N+
145.0648	38	C10H9O+
145.076	220	C9H9N2+
146.0602	13	C9H8NO+
146.0838	112	C9H10N2+
146.0962	18	C10H12N+
147.0917	258	C9H11N2+
149.071	14	C8H9N2O+
155.0605	14	C10H7N2+
157.0523	23	C10H7NO+
159.0553	22	C9H7N2O+
159.092	24	C10H11N2+
161.1068	20	C10H13N2+
173.0709	43	C10H9N2O+
174.0787	51	C10H10N2O+
