Mass spectrum: Nylidrin; LC-ESI-ITFT; MS2; CE: 125%; R=15000; [M+H]+
Name: Nylidrin
Name: 4-[1-hydroxy-2-(4-phenylbutan-2-ylamino)propyl]phenol
Formula: C19H25NO2
Exact mass: 299.1885
SMILES: CC(CCC1=CC=CC=C1)NC(C)C(C2=CC=C(C=C2)O)O
InChI: InChI=1S/C19H25NO2/c1-14(8-9-16-6-4-3-5-7-16)20-15(2)19(22)17-10-12-18(21)13-11-17/h3-7,10-15,19-22H,8-9H2,1-2H3
Instrument: LTQ Orbitrap XL Thermo Scientific
Instrument type: LC-ESI-ITFT
Ms type: MS2
Ion mode: POSITIVE
Ionization: ESI
Fragmentation mode: HCD
Collision energy: 125% (nominal)
Resolution: 15000
Column name: Kinetex Evo C18 2.6 um 50 x 2.1 mm
Retention time: 6.861 min
Base peak: 300.1958
Precursor m/z: 300.1958
Precursor type: [M+H]+
m/z	relative intensity	assigned
65.0384	98	C5H5+
77.0385	61	C6H5+
79.0542	127	C6H7+
81.0696	3	C6H9+
89.0384	3	C7H5+
91.0542	999	C7H7+
94.0413	22	C6H6O+
95.0491	18	C6H7O+
103.0542	91	C8H7+
105.0447	75	C6H5N2+
105.0698	165	C8H9+
107.0491	78	C7H7O+
108.0572	4	C7H8O+
115.0542	47	C9H7+
117.0573	4	C8H7N+
120.0444	16	C7H6NO+
131.0491	11	C9H7O+
133.0649	7	C9H9O+
134.0598	15	C8H8NO+
135.0679	22	C8H9NO+
