Mass spectrum: Dixyrazine; LC-ESI-ITFT; MS2; CE: 55%; R=15000; [M+H]+
Name: Dixyrazine
Name: 2-[2-[4-(2-methyl-3-phenothiazin-10-ylpropyl)piperazin-1-yl]ethoxy]ethanol
Formula: C24H33N3O2S
Exact mass: 427.2293
SMILES: CC(CN1CCN(CC1)CCOCCO)CN2C3=CC=CC=C3SC4=CC=CC=C42
InChI: InChI=1S/C24H33N3O2S/c1-20(18-26-12-10-25(11-13-26)14-16-29-17-15-28)19-27-21-6-2-4-8-23(21)30-24-9-5-3-7-22(24)27/h2-9,20,28H,10-19H2,1H3
Instrument: LTQ Orbitrap XL Thermo Scientific
Instrument type: LC-ESI-ITFT
Ms type: MS2
Ion mode: POSITIVE
Ionization: ESI
Fragmentation mode: CID
Collision energy: 55% (nominal)
Resolution: 15000
Column name: Kinetex Evo C18 2.6 um 50 x 2.1 mm
Retention time: 8.957 min
Base peak: 428.2363
Precursor m/z: 428.2366
Precursor type: [M+H]+
m/z	relative intensity	assigned
125.1073	6	C7H13N2+
140.1309	2	C8H16N2+
144.1021	1	C7H14NO2+
172.1206	14	C8H16N2O2+
180.0807	9	C13H10N+
181.0845	1	C8H11N3O2+
187.1441	158	C9H19N2O2+
188.1472	8	C10H22NS+
212.0529	53	C13H10NS+
213.0564	4	C8H11N3O2S+
220.1127	1	C16H14N+
221.12	3	C16H15N+
229.191	999	C12H25N2O2+
230.1941	67	C13H28NS+
254.0997	27	C16H16NS+
366.1997	6	C22H28N3S+
