Mass spectrum: Terbutryn-OH-desmethyl (TENTATIVE); LC-ESI-QFT; MS2; CE: 55%; R=70000; [M+H]+
Name: Terbutryn-desmethyl
Name: 4-(tert-butylamino)-6-(ethylamino)-1,3,5-triazine-2-thiol
Formula: C9H17N5OS
Exact mass: 243.1199
SMILES: C(*)C(*)NC1=NC(=NC(=N1)S)NC(C)(C)C(*) * = [OH (n=1) & H (n=2)]
Instrument: Q Exactive Plus Orbitrap Thermo Scientific
Instrument type: LC-ESI-QFT
Ms type: MS2
Ion mode: POSITIVE
Ionization: ESI
Fragmentation mode: HCD
Collision energy: 55% (nominal)
Resolution: 70000
Column name: Waters UPLC BEH C18 1.7 um 2.1 mm x 100 mm with pre-column
Retention time: 11.75 min
Precursor m/z: 244.1277
Precursor type: [M+H]+
m/z	relative intensity
55.0294	61
55.0545	56
57.045	27
58.0654	66
59.9905	19
67.0293	27
67.0543	40
68.0244	999
69.0085	195
69.0448	80
69.07	21
70.04	62
71.0604	98
71.9903	52
72.9854	19
75.0012	28
79.0542	48
81.0699	27
82.04	31
83.0604	23
84.9855	278
86.0349	40
86.0714	18
87.0135	14
91.0542	64
93.07	15
95.0491	22
96.0556	60
97.0398	16
97.0508	17
99.9964	44
105.0447	23
105.0698	30
108.0557	22
109.0512	15
111.0666	81
121.0504	13
127.0074	23
135.0664	27
140.0932	20
142.1002	15
179.0249	13
