Mass spectrum: Azoxystrobin-desmethyl (Unequivocal molecular formula); LC-ESI-QFT; MS2; CE: 30%; R=70000; [M+H]+
Name: Azoxystrobin-desmethyl
Formula: C21H15N3O5
Exact mass: 389.0997
Instrument: Q Exactive Plus Orbitrap Thermo Scientific
Instrument type: LC-ESI-QFT
Ms type: MS2
Ion mode: POSITIVE
Ionization: ESI
Fragmentation mode: HCD
Collision energy: 30% (nominal)
Resolution: 70000
Column name: Waters UPLC BEH C18 1.7 um 2.1 mm x 100 mm with pre-column
Retention time: 13.23 min
Precursor m/z: 390.1075
Precursor type: [M+H]+
m/z	relative intensity
95.0855	6
107.0494	9
116.0494	12
120.0444	8
134.0601	10
143.0602	9
146.06	10
172.0392	15
173.081	7
174.055	123
183.0556	10
184.0627	8
187.0503	8
201.0654	11
216.0657	7
275.0812	23
300.0771	6
301.0844	212
302.0922	999
316.1065	7
329.0792	65
330.0679	13
330.087	169
340.0733	8
344.1025	79
358.0824	15
372.0971	21
