Mass spectrum: Cyclopenol; LC-ESI-ITFT; MS2; CE: 20%; R=7500; [M+H]+
Name: Cyclopenol
Name: Spiro[3H-1,4-benzodiazepine-3,2`-oxirane]-2,5(1H,4H)-dione, 3`-(3-hydroxyphenyl)-4-methyl-, cis-(-)-
Name: 3`-(3-hydroxyphenyl)-4-methylspiro[1H-1,4-benzodiazepine-3,2`-oxirane]-2,5-dione
Formula: C17H14N2O4
Exact mass: 310.0954
SMILES: CN1C(=O)C2=CC=CC=C2NC(=O)C13C(O3)C4=CC(=CC=C4)O
InChI: InChI=1S/C17H14N2O4/c1-19-15(21)12-7-2-3-8-13(12)18-16(22)17(19)14(23-17)10-5-4-6-11(20)9-10/h2-9,14,20H,1H3,(H,18,22)
Instrument: LTQ Orbitrap XL Thermo Scientific
Instrument type: LC-ESI-ITFT
Ms type: MS2
Ion mode: POSITIVE
Ionization: ESI
Fragmentation mode: HCD
Collision energy: 20 % (nominal)
Resolution: 7500
Column name: Hypersil GOLD C18 1.9 um 100 x 2.1 mm Thermo Fisher Scientific
Retention time: 11.691 min
Base peak: 311.1023
Precursor m/z: 311.1026
Precursor type: [M+H]+
Precursor intensity: 8180848.185547
m/z	relative intensity	assigned
120.0442	106	C7H6NO+
132.0441	10	C8H6NO+
134.0599	5	C8H8NO+
136.0755	18	C8H10NO+
146.0234	140	C8H4NO2+
148.0757	6	C9H10NO+
161.0704	6	C9H9N2O+
162.0546	23	C9H8NO2+
177.0655	999	C9H9N2O2+
198.0913	22	C13H12NO+
224.0704	9	C14H10NO2+
226.0858	66	C14H12NO2+
239.1179	10	C15H15N2O+
252.0651	80	C15H10NO3+
254.0808	32	C15H12NO3+
255.1122	57	C15H15N2O2+
267.1121	35	C16H15N2O2+
270.0769	4	C15H12NO4+
280.0598	115	C16H10NO4+
283.107	35	C16H15N2O3+
293.0931	5	C17H13N2O3+
311.1021	795	C17H15N2O4+
