Mass spectrum: Moniliformin; LC-ESI-ITFT; MS2; CE: 50%; R=7500; [M-H]-
Name: Moniliformin
Name: 3-hydroxycyclobut-3-ene-1,2-dione
Formula: C4H2O3
Exact mass: 98.00039
SMILES: C1=C(C(=O)C1=O)O
InChI: InChI=1S/C4H2O3/c5-2-1-3(6)4(2)7/h1,5H
Instrument: LTQ Orbitrap XL Thermo Scientific
Instrument type: LC-ESI-ITFT
Ms type: MS2
Ion mode: NEGATIVE
Ionization: ESI
Fragmentation mode: HCD
Collision energy: 50 % (nominal)
Resolution: 7500
Column name: Hypersil GOLD C18 1.9 um 100 x 2.1 mm Thermo Fisher Scientific
Retention time: 1.232 min
Base peak: 216.9756
Precursor m/z: 96.9931
Precursor type: [M-H]-
Precursor intensity: 332479.6584473
m/z	relative intensity	assigned
96.9934	999	C4HO3-
