Mass spectrum: Dibucaine; LC-ESI-ITFT; MS2; CE: 55%; R=7500; [M+H]+
Name: Dibucaine
Name: 2-Butoxy-N-[2-(diethylamino)ethyl]quinoline-4-carboxamide
Formula: C20H29N3O2
Exact mass: 343.226
SMILES: CCCCOC1=CC(C(=O)NCCN(CC)CC)=C2C=CC=CC2=N1
InChI: InChI=1S/C20H29N3O2/c1-4-7-14-25-19-15-17(16-10-8-9-11-18(16)22-19)20(24)21-12-13-23(5-2)6-3/h8-11,15H,4-7,12-14H2,1-3H3,(H,21,24)
Instrument: LTQ Orbitrap XL Thermo Fisher Scientific
Instrument type: LC-ESI-ITFT
Ms type: MS2
Ion mode: POSITIVE
Ionization: ESI
Fragmentation mode: HCD
Collision energy: 55% (nominal)
Resolution: 7500
Column name: Hypersil GOLD C18 1.9 um 100 x 2.1 mm Thermo Fisher Scientific
Precursor m/z: 344.2333
Precursor type: [M+H]+
m/z	relative intensity
57.07	2
57.0945	1
72.0807	2
74.0963	22
100.1121	52
116.0494	34
130.0652	1
144.0444	51
146.0601	6
158.06	8
171.0553	24
172.0394	138
182.0963	4
187.0867	7
200.107	8
202.1231	6
215.0816	830
225.1385	2
227.1183	30
228.1021	84
243.1497	8
269.2105	2
271.1443	999
