Mass spectrum: Asterric acid; LC-ESI-ITFT; MS2; CE: 30%; R=7500; [M-H]-
Name: Asterric acid
Name: 2-hydroxy-6-(4-hydroxy-2-methoxy-6-methoxycarbonylphenoxy)-4-methylbenzoic acid
Formula: C17H16O8
Exact mass: 348.08452
SMILES: CC1=CC(=C(C(=C1)OC2=C(C=C(C=C2OC)O)C(=O)OC)C(=O)O)O
InChI: InChI=1S/C17H16O8/c1-8-4-11(19)14(16(20)21)12(5-8)25-15-10(17(22)24-3)6-9(18)7-13(15)23-2/h4-7,18-19H,1-3H3,(H,20,21)
Instrument: LTQ Orbitrap XL Thermo Scientific
Instrument type: LC-ESI-ITFT
Ms type: MS2
Ion mode: NEGATIVE
Ionization: ESI
Fragmentation mode: HCD
Collision energy: 30 % (nominal)
Resolution: 7500
Column name: Hypersil GOLD C18 1.9 um 100 x 2.1 mm Thermo Fisher Scientific
Retention time: 17.901 min
Base peak: 695.1631
Precursor m/z: 347.0772
Precursor type: [M-H]-
Precursor intensity: 17597618.97949
m/z	relative intensity	assigned
105.0348	89	C7H5O-
122.0376	26	C7H6O2-
149.0246	999	C8H5O3-
166.0273	61	C8H6O4-
167.035	2	C8H7O4-
201.0706	1	C16H9-
271.0614	107	C15H11O5-
297.0412	1	C16H9O6-
303.0876	50	C16H15O6-
315.0509	9	C16H11O7-
329.0675	24	C17H13O7-
347.0775	280	C17H15O8-
