Mass spectrum: Metoclopramide; LC-ESI-ITFT; MS2; CE: 90%; R=15000; [M+H]+
Name: Metoclopramide
Name: 4-amino-5-chloro-N-[2-(diethylamino)ethyl]-2-methoxybenzamide
Formula: C14H22ClN3O2
Exact mass: 299.1401
SMILES: CCN(CC)CCNC(=O)C1=CC(=C(C=C1OC)N)Cl
InChI: InChI=1S/C14H22ClN3O2/c1-4-18(5-2)7-6-17-14(19)10-8-11(15)12(16)9-13(10)20-3/h8-9H,4-7,16H2,1-3H3,(H,17,19)
Instrument: LTQ Orbitrap XL Thermo Scientific
Instrument type: LC-ESI-ITFT
Ms type: MS2
Ion mode: POSITIVE
Ionization: ESI
Fragmentation mode: HCD
Collision energy: 90% (nominal)
Resolution: 15000
Column name: Kinetex Evo C18 2.6 um 50 x 2.1 mm
Retention time: 2.916 min
Base peak: 300.1474
Precursor m/z: 300.1473
Precursor type: [M+H]+
m/z	relative intensity	assigned
63.0228	6	C5H3+
72.0807	10	C4H10N+
90.0338	74	C6H4N+
92.0495	11	C6H6N+
93.0573	44	C6H7N+
100.1121	22	C6H14N+
108.0444	17	C6H6NO+
113.0027	64	C5H4ClN+
120.0444	26	C7H6NO+
126.0106	106	C6H5ClN+
128.0262	54	C6H7ClN+
129.0103	19	C6H6ClO+
140.0138	4	C6H5ClN2+
140.9976	359	C6H4ClNO+
144.0211	38	C6H7ClNO+
147.0553	7	C8H7N2O+
148.0632	53	C8H8N2O+
154.0055	60	C7H5ClNO+
156.0211	121	C7H7ClNO+
168.0085	305	C7H5ClN2O+
168.9925	141	C7H4ClNO2+
170.0003	51	C7H5ClNO2+
182.0243	29	C8H7ClN2O+
183.0321	161	C8H8ClN2O+
184.016	999	C8H7ClNO2+
187.003	49	C7H6ClNO3+
211.0269	19	C9H8ClN2O2+
212.0348	235	C9H9ClN2O2+
227.0582	42	C10H12ClN2O2+
