Mass spectrum: Etilefrine; LC-ESI-ITFT; MS2; CE: 105%; R=15000; [M+H]+
Name: Etilefrine
Name: 3-[2-(ethylamino)-1-hydroxyethyl]phenol
Formula: C10H15NO2
Exact mass: 181.1103
SMILES: CCNCC(C1=CC(=CC=C1)O)O
InChI: InChI=1S/C10H15NO2/c1-2-11-7-10(13)8-4-3-5-9(12)6-8/h3-6,10-13H,2,7H2,1H3
Instrument: LTQ Orbitrap XL Thermo Scientific
Instrument type: LC-ESI-ITFT
Ms type: MS2
Ion mode: POSITIVE
Ionization: ESI
Fragmentation mode: HCD
Collision energy: 105% (nominal)
Resolution: 15000
Column name: Kinetex Evo C18 2.6 um 50 x 2.1 mm
Retention time: 0.618 min
Base peak: 182.1177
Precursor m/z: 182.1176
Precursor type: [M+H]+
m/z	relative intensity	assigned
56.0492	18	C3H6N+
65.0384	28	C5H5+
77.0386	27	C6H5+
79.0542	23	C6H7+
80.0495	6	C5H6N+
81.0699	41	C6H9+
90.0465	6	C7H6+
91.0543	999	C7H7+
92.0492	5	C6H6N+
93.0573	10	C6H7N+
94.0413	31	C6H6O+
95.0492	8	C6H7O+
103.0543	34	C8H7+
104.0497	8	C7H6N+
105.0449	18	C6H5N2+
106.0652	32	C7H8N+
107.0492	112	C7H7O+
107.073	12	C7H9N+
108.0571	30	C7H8O+
108.0808	5	C7H10N+
109.0648	77	C7H9O+
117.0574	26	C8H7N+
118.0416	11	C8H6O+
118.0652	89	C8H8N+
119.0492	51	C8H7O+
120.0445	49	C7H6NO+
134.0601	180	C8H8NO+
135.0679	148	C8H9NO+
136.0757	14	C8H10NO+
164.1065	11	C10H14NO+
