Mass spectrum: Dibucaine; ESI-QTOF; MS2; CE: 40eV; R=15000; [M+H]+
Name: Dibucaine
Name: 2-Butoxy-N-[2-(diethylamino)ethyl]quinoline-4-carboxamide
Formula: C20H29N3O2
Exact mass: 343.226
SMILES: CCCCOC1=CC(C(=O)NCCN(CC)CC)=C2C=CC=CC2=N1
InChI: InChI=1S/C20H29N3O2/c1-4-7-14-25-19-15-17(16-10-8-9-11-18(16)22-19)20(24)21-12-13-23(5-2)6-3/h8-11,15H,4-7,12-14H2,1-3H3,(H,21,24)
Instrument: TripleTOF 5600+SCIEX
Instrument type: ESI-QTOF
Ms type: MS2
Ion mode: POSITIVE
Ionization: ESI
Fragmentation mode: CID
Collision energy: 40 eV
Resolution: 15000
Precursor m/z: 344.2333
Precursor type: [M+H]+
m/z	relative intensity
57.0726	6
69.0724	1
70.0307	1
72.0828	3
74.0983	18
79.0556	1
86.0977	1
89.0398	2
93.0713	1
97.0658	1
100.1131	27
115.055	1
116.0503	183
117.0578	1
118.0658	2
128.0502	5
130.0659	5
132.0453	3
135.0813	1
142.0659	1
143.0734	2
144.0452	216
145.0529	5
146.0607	16
152.0503	1
153.0454	9
154.066	1
156.0813	1
157.0895	3
158.0608	13
159.0686	1
160.0764	4
167.0736	2
169.0769	2
170.097	2
171.0561	62
172.0401	272
172.113	4
173.085	1
182.0975	6
183.1053	2
184.113	1
185.078	1
186.0793	1
187.0875	20
197.1198	1
198.1288	1
199.1241	2
200.1078	16
202.1237	7
209.1079	1
215.0827	999
225.1397	4
227.1192	31
228.1032	63
241.2371	1
243.1505	9
271.1458	856
288.1723	1
344.2333	5
