Mass spectrum: Dixyrazine ; LC-ESI-QTOF; MS2; CE: 30 eV; R=3600; [M+H]+
Name: Dixyrazine
Name: 2-(2-{4-[2-Methyl-3-(10H-phenothiazin-10-yl)propyl]piperazin-1-yl}ethoxy)ethan-1-ol
Formula: C24H33N3O2S
Exact mass: 427.2293
SMILES: CC(CN1CCN(CCOCCO)CC1)CN1C2=CC=CC=C2SC2=CC=CC=C12
InChI: InChI=1S/C24H33N3O2S/c1-20(18-26-12-10-25(11-13-26)14-16-29-17-15-28)19-27-21-6-2-4-8-23(21)30-24-9-5-3-7-22(24)27/h2-9,20,28H,10-19H2,1H3
Instrument: 6574 QTOF Agilent
Instrument type: LC-ESI-QTOF
Ms type: MS2
Ion mode: POSITIVE
Ionization: ESI
Fragmentation mode: CID
Collision energy: 30 eV
Resolution: 3600
Precursor m/z: 428.2367
Precursor type: [M+H]+
m/z	relative intensity
58.063	72
70.0622	234
87.0402	177
97.0716	287
98.0794	999
101.1027	796
125.1015	194
144.095	95
172.1122	164
180.0719	278
187.1352	768
212.0424	518
229.1801	964
254.0878	51
428.2367	121
