Mass spectrum: Sulfamethoxazole; LC-ESI-QFT; MS2; CE: 80%; R=30000; [M+H]+
Name: Sulfamethoxazole
Name: 4-Amino-N-(5-methyl-1,2-oxazol-3-yl)benzene-1-sulfonamide
Formula: C10H11N3O3S
Exact mass: 253.0521
SMILES: CC1=CC(NS(=O)(=O)C2=CC=C(N)C=C2)=NO1
InChI: InChI=1S/C10H11N3O3S/c1-7-6-10(12-16-7)13-17(14,15)9-4-2-8(11)3-5-9/h2-6H,11H2,1H3,(H,12,13)
Instrument: Orbitrap Fusion Tribrid Thermo Fisher Scientific
Instrument type: LC-ESI-QFT
Ms type: MS2
Ion mode: POSITIVE
Ionization: ESI
Fragmentation mode: HCD
Collision energy: 80% (nominal)
Resolution: 30000
Precursor m/z: 254.0594
Precursor type: [M+H]+
m/z	relative intensity
65.0388	999
66.034	16
66.0466	27
80.0497	354
92.0497	334
93.0576	155
94.0657	4
99.0555	17
107.0606	8
108.0446	236
110.0603	24
119.0606	8
131.0613	4
132.0691	1
133.0642	2
146.0714	19
147.0799	2
