Mass spectrum: Rugulotrosin A; LC-ESI-ITFT; MS2; CE: 30%; R=7500; [M+H]+
Name: Rugulotrosin A
Name: CID 118797325
Name: methyl 4,8,9-trihydroxy-6-methyl-1-oxo-7-(1,5,9-trihydroxy-10a-methoxycarbonyl-3-methyl-8-oxo-6,7-dihydro-5H-xanthen-2-yl)-3,4-dihydro-2H-xanthene-4a-carboxylate
Formula: C32H30O14
Exact mass: 638.1636
SMILES: CC1=CC2=C(C(=C1C3=C(C4=C(C=C3C)OC5(C(CCC(=O)C5=C4O)O)C(=O)OC)O)O)C(=C6C(=O)CCC(C6(O2)C(=O)OC)O)O
InChI: InChI=1S/C32H30O14/c1-11-9-15-21(27(39)23-13(33)5-7-17(35)31(23,45-15)29(41)43-3)25(37)19(11)20-12(2)10-16-22(26(20)38)28(40)24-14(34)6-8-18(36)32(24,46-16)30(42)44-4/h9-10,17-18,35-40H,5-8H2,1-4H3
Instrument: LTQ Orbitrap XL Thermo Scientific
Instrument type: LC-ESI-ITFT
Ms type: MS2
Ion mode: POSITIVE
Ionization: ESI
Fragmentation mode: HCD
Collision energy: 30 % (nominal)
Resolution: 7500
Column name: Hypersil GOLD C18 1.9 um 100 x 2.1 mm Thermo Fisher Scientific
Retention time: 21.467 min
Base peak: 639.1717
Precursor m/z: 639.1708
Precursor type: [M+H]+
Precursor intensity: 3738658.87207
m/z	relative intensity	assigned
109.0285	228	C6H5O2+
137.0232	194	C7H5O3+
141.0546	64	C7H9O3+
155.0344	44	C7H7O4+
169.0496	999	C8H9O4+
179.034	440	C9H7O4+
469.1139	377	C24H21O10+
579.1477	281	C30H27O12+
639.1688	105	C32H31O14+
