Mass spectrum: Desipramine; LC-ESI-ITFT; MS2; CE: 95%; R=15000; [M+H]+
Name: Desipramine
Name: 3-(5,6-dihydrobenzo[b][1]benzazepin-11-yl)-N-methylpropan-1-amine
Formula: C18H22N2
Exact mass: 266.1783
SMILES: CNCCCN1C2=CC=CC=C2CCC3=CC=CC=C31
InChI: InChI=1S/C18H22N2/c1-19-13-6-14-20-17-9-4-2-7-15(17)11-12-16-8-3-5-10-18(16)20/h2-5,7-10,19H,6,11-14H2,1H3
Instrument: LTQ Orbitrap XL Thermo Scientific
Instrument type: LC-ESI-ITFT
Ms type: MS2
Ion mode: POSITIVE
Ionization: ESI
Fragmentation mode: HCD
Collision energy: 95% (nominal)
Resolution: 15000
Column name: Kinetex Evo C18 2.6 um 50 x 2.1 mm
Retention time: 8.454 min
Base peak: 267.1854
Precursor m/z: 267.1856
Precursor type: [M+H]+
m/z	relative intensity	assigned
57.057	49	C3H7N+
72.0806	999	C4H10N+
91.0542	25	C7H7+
118.0652	11	C8H8N+
130.0652	9	C9H8N+
144.0808	5	C10H10N+
165.0701	9	C13H9+
166.0776	7	C13H10+
167.0729	11	C12H9N+
178.0777	6	C14H10+
180.0808	64	C13H10N+
192.0806	36	C14H10N+
193.0886	538	C14H11N+
194.0964	87	C14H12N+
195.1043	13	C14H13N+
196.1119	6	C14H14N+
206.0965	17	C15H12N+
207.1043	10	C15H13N+
208.1119	97	C15H14N+
220.1122	23	C16H14N+
