Mass spectrum: Amiloride; LC-ESI-QFT; MS2; CE: 20%; R=30000; [M+H]+
Name: Amiloride
Name: 3,5-Diamino-N-carbamimidoyl-6-chloropyrazine-2-carboxamide
Formula: C6H8ClN7O
Exact mass: 229.0479
SMILES: NC(=N)NC(=O)C1=NC(Cl)=C(N)N=C1N
InChI: InChI=1S/C6H8ClN7O/c7-2-4(9)13-3(8)1(12-2)5(15)14-6(10)11/h(H4,8,9,13)(H4,10,11,14,15)
Instrument: Orbitrap Fusion Tribrid Thermo Fisher Scientific
Instrument type: LC-ESI-QFT
Ms type: MS2
Ion mode: POSITIVE
Ionization: ESI
Fragmentation mode: HCD
Collision energy: 20% (nominal)
Resolution: 30000
Precursor m/z: 230.0552
Precursor type: [M+H]+
m/z	relative intensity
60.0558	591
61.0398	9
86.0351	55
100.9906	1
116.0012	5
143.012	3
145.0276	6
161.0226	13
170.0228	4
171.0069	982
188.0335	42
189.0175	219
213.0287	53
230.0552	999
