Mass spectrum: Metolachlor-diOH (TENTATIVE); LC-ESI-QFT; MS2; CE: 30%; R=70000; [M+H]+
Name: Metolachlor-diOH
Formula: C15H22ClNO4
Exact mass: 315.1228
SMILES: C(*)C(*)C1=C(*)C(*)=C(*)C(=C1N(C(C(*))C(*)OC(*))C(=O)C(*)Cl)C(*) *=[OH (n=2) & H (n=8)]
Instrument: Q Exactive Plus Orbitrap Thermo Scientific
Instrument type: LC-ESI-QFT
Ms type: MS2
Ion mode: POSITIVE
Ionization: ESI
Fragmentation mode: HCD
Collision energy: 30% (nominal)
Resolution: 70000
Column name: Waters UPLC BEH C18 1.7 um 2.1 mm x 100 mm with pre-column
Retention time: 1.22 min
Precursor m/z: 316.1306
Precursor type: [M+H]+
m/z	relative intensity
58.0654	22
59.0494	37
73.0648	999
81.07	17
102.0913	89
105.07	24
117.0575	22
118.065	41
123.1168	35
130.0652	81
132.0809	263
133.0649	27
133.0884	39
134.0965	37
142.0652	42
143.0729	35
144.0808	175
146.06	23
146.0964	181
156.0809	35
157.0886	130
158.0966	52
159.0678	22
160.0758	42
160.1122	106
162.1278	520
170.0966	53
172.0757	121
172.1121	500
174.0916	65
174.1274	22
178.0419	109
180.0574	81
184.1123	29
188.1073	32
190.123	51
192.0575	58
208.0524	928
210.0679	50
216.1233	22
218.073	19
226.064	18
266.0942	74
284.1036	82
