Mass spectrum: Antipyrine; LC-ESI-ITFT; MS2; CE: 100%; R=15000; [M+H]+
Name: Antipyrine
Name: 1,5-dimethyl-2-phenylpyrazol-3-one
Formula: C11H12N2O
Exact mass: 188.0950
SMILES: CC1=CC(=O)N(N1C)C2=CC=CC=C2
InChI: InChI=1S/C11H12N2O/c1-9-8-11(14)13(12(9)2)10-6-4-3-5-7-10/h3-8H,1-2H3
Instrument: LTQ Orbitrap XL Thermo Scientific
Instrument type: LC-ESI-ITFT
Ms type: MS2
Ion mode: POSITIVE
Ionization: ESI
Fragmentation mode: CID
Collision energy: 100% (nominal)
Resolution: 15000
Column name: Kinetex Evo C18 2.6 um 50 x 2.1 mm
Retention time: 5.674 min
Base peak: 189.1022
Precursor m/z: 189.1022
Precursor type: [M+H]+
m/z	relative intensity	assigned
56.0493	15	C3H6N+
58.0649	25	C3H8N+
91.0542	26	C7H7+
96.0443	20	C5H6NO+
96.0682	28	C5H8N2+
98.06	8	C5H8NO+
103.0542	22	C8H7+
104.0494	58	C7H6N+
106.0652	13	C7H8N+
111.0552	24	C5H7N2O+
115.054	8	C9H7+
117.0573	24	C8H7N+
117.0696	28	C9H9+
118.0651	235	C8H8N+
120.0808	244	C8H10N+
130.0651	344	C9H8N+
131.0729	999	C9H9N+
132.0808	233	C9H10N+
133.076	105	C8H9N2+
134.0964	24	C9H12N+
135.0553	41	C7H7N2O+
144.0808	805	C10H10N+
145.0648	82	C10H9O+
145.0759	6	C9H9N2+
145.0887	19	C10H11N+
146.0838	596	C9H10N2+
146.0964	486	C10H12N+
147.0916	568	C9H11N2+
148.0756	129	C9H10NO+
149.071	23	C8H9N2O+
158.0598	47	C10H8NO+
160.0995	24	C10H12N2+
161.1073	867	C10H13N2+
162.0912	34	C10H12NO+
171.0922	14	C11H11N2+
172.0756	367	C11H10NO+
174.0787	361	C10H10N2O+
