Mass spectrum: Sulfamoxole; ESI-QTOF; MS2; CE: 40eV; R=15000; [M+H]+
Name: Sulfamoxole
Name: 4-Amino-N-(4,5-dimethyl-1,3-oxazol-2-yl)benzene-1-sulfonamide
Formula: C11H13N3O3S
Exact mass: 267.0678
SMILES: CC1=C(C)N=C(NS(=O)(=O)C2=CC=C(N)C=C2)O1
InChI: InChI=1S/C11H13N3O3S/c1-7-8(2)17-11(13-7)14-18(15,16)10-5-3-9(12)4-6-10/h3-6H,12H2,1-2H3,(H,13,14)
Instrument: TripleTOF 5600+SCIEX
Instrument type: ESI-QTOF
Ms type: MS2
Ion mode: POSITIVE
Ionization: ESI
Fragmentation mode: CID
Collision energy: 40 eV
Resolution: 15000
Precursor m/z: 268.0751
Precursor type: [M+H]+
m/z	relative intensity
53.0415	4
54.0367	13
65.0408	175
66.0357	3
68.0514	2
69.0592	21
70.067	64
77.0404	1
79.0556	1
80.051	54
81.0711	1
83.0618	3
90.035	1
92.0507	772
93.0585	6
94.0663	3
97.0406	2
107.0862	1
107.9702	1
108.0452	999
110.061	2
111.0561	51
112.0639	122
113.0717	490
120.0563	1
123.0137	1
124.0086	1
125.0277	1
140.017	75
153.0225	1
156.0119	204
158.0276	2
167.9989	1
171.0336	1
211.0081	1
268.0751	1
