Mass spectrum: Dixyrazine; LC-ESI-ITFT; MS2; CE: 75%; R=15000; [M+H]+
Name: Dixyrazine
Name: 2-[2-[4-(2-methyl-3-phenothiazin-10-ylpropyl)piperazin-1-yl]ethoxy]ethanol
Formula: C24H33N3O2S
Exact mass: 427.2293
SMILES: CC(CN1CCN(CC1)CCOCCO)CN2C3=CC=CC=C3SC4=CC=CC=C42
InChI: InChI=1S/C24H33N3O2S/c1-20(18-26-12-10-25(11-13-26)14-16-29-17-15-28)19-27-21-6-2-4-8-23(21)30-24-9-5-3-7-22(24)27/h2-9,20,28H,10-19H2,1H3
Instrument: LTQ Orbitrap XL Thermo Scientific
Instrument type: LC-ESI-ITFT
Ms type: MS2
Ion mode: POSITIVE
Ionization: ESI
Fragmentation mode: HCD
Collision energy: 75% (nominal)
Resolution: 15000
Column name: Kinetex Evo C18 2.6 um 50 x 2.1 mm
Retention time: 8.949 min
Base peak: 428.2363
Precursor m/z: 428.2366
Precursor type: [M+H]+
m/z	relative intensity	assigned
56.0493	34	C3H6N+
58.0649	73	C3H8N+
59.0489	6	C3H7O+
68.0495	6	C4H6N+
70.065	298	C4H8N+
72.0807	9	C4H10N+
82.0651	72	C5H8N+
83.0603	15	C4H7N2+
84.0807	55	C5H10N+
86.06	15	C4H8NO+
87.044	140	C4H7O2+
94.0651	9	C6H8N+
96.0811	6	C6H10N+
97.076	346	C5H9N2+
98.0838	999	C5H10N2+
99.0916	53	C5H11N2+
100.0756	19	C5H10NO+
101.1073	381	C5H13N2+
102.1107	6	H14N4O2+
110.0838	26	C6H10N2+
111.0916	9	C6H11N2+
112.0995	26	C6H12N2+
112.1122	25	C7H14N+
113.1073	21	C6H13N2+
125.1073	70	C7H13N2+
130.086	13	C6H12NO2+
140.1307	11	C8H16N2+
144.1019	80	C7H14NO2+
167.0733	5	C12H9N+
172.1206	86	C8H16N2O2+
178.0652	12	C13H8N+
179.073	79	C13H9N+
180.0808	512	C13H10N+
181.084	25	C8H11N3O2+
185.0425	6	C12H9S+
187.1441	75	C9H19N2O2+
196.075	5	C13H10NO+
198.037	16	C12H8NS+
199.0452	36	C12H9NS+
206.0961	10	C15H12N+
212.0528	308	C13H10NS+
213.0561	16	C8H11N3O2S+
220.1119	14	C16H14N+
221.1198	5	C16H15N+
224.0528	4	C14H10NS+
229.1909	20	C12H25N2O2+
238.0688	7	C15H12NS+
