Mass spectrum: Phentermine; LC-ESI-QTOF; MS2; CE: 5 eV; R=3600; [M+H]+
Name: Phentermine
Name: 2-Methyl-1-phenylpropan-2-amine
Formula: C10H15N
Exact mass: 149.1204
SMILES: CC(C)(N)CC1=CC=CC=C1
InChI: InChI=1S/C10H15N/c1-10(2,11)8-9-6-4-3-5-7-9/h3-7H,8,11H2,1-2H3
Instrument: 6660 QTOF Agilent
Instrument type: LC-ESI-QTOF
Ms type: MS2
Ion mode: POSITIVE
Ionization: ESI
Fragmentation mode: CID
Collision energy: 5 eV
Resolution: 3600
Precursor m/z: 150.1278
Precursor type: [M+H]+
m/z	relative intensity
51.0203	5
55.0551	6
56.0523	11
63.0218	19
65.0366	217
65.0717	11
66.0417	2
68.0465	7
70.0633	38
77.0359	12
88.1225	1
91.052	999
91.0894	53
92.0563	58
105.0665	23
106.079	7
114.0929	20
132.0972	36
133.0949	143
150.1278	123
