Mass spectrum: Fusarenon X; LC-ESI-ITFT; MS2; CE: 60%; R=7500; [M+H]+
Name: Fusarenon X
Name: [3,10-dihydroxy-2-(hydroxymethyl)-1,5-dimethyl-4-oxospiro[8-oxatricyclo[7.2.1.02,7]dodec-5-ene-12,2`-oxirane]-11-yl] acetate
Formula: C17H22O8
Exact mass: 354.1315
SMILES: CC1=CC2C(C(C1=O)O)(C3(C(C(C(C34CO4)O2)O)OC(=O)C)C)CO
InChI: InChI=1S/C17H22O8/c1-7-4-9-16(5-18,12(22)10(7)20)15(3)13(24-8(2)19)11(21)14(25-9)17(15)6-23-17/h4,9,11-14,18,21-22H,5-6H2,1-3H3
Instrument: LTQ Orbitrap XL Thermo Scientific
Instrument type: LC-ESI-ITFT
Ms type: MS2
Ion mode: POSITIVE
Ionization: ESI
Fragmentation mode: HCD
Collision energy: 60 % (nominal)
Resolution: 7500
Column name: Hypersil GOLD C18 1.9 um 100 x 2.1 mm Thermo Fisher Scientific
Retention time: 8.411 min
Base peak: 355.1384
Precursor m/z: 355.1387
Precursor type: [M+H]+
Precursor intensity: 12422497.94141
m/z	relative intensity	assigned
99.0436	51	C5H7O2+
107.0488	46	C7H7O+
109.0646	56	C7H9O+
119.0851	97	C9H11+
123.0438	93	C7H7O2+
125.0594	161	C7H9O2+
131.0856	83	C10H11+
137.0594	999	C8H9O2+
141.0545	48	C7H9O3+
145.1006	75	C11H13+
147.08	243	C10H11O+
149.0593	106	C9H9O2+
151.0746	44	C9H11O2+
153.0544	86	C8H9O3+
155.0854	46	C12H11+
157.1009	50	C12H13+
159.0799	318	C11H11O+
161.0594	114	C10H9O2+
161.0958	80	C11H13O+
163.0749	256	C10H11O2+
165.0906	284	C10H13O2+
171.0807	90	C12H11O+
173.0957	208	C12H13O+
175.0748	990	C11H11O2+
177.0545	38	C10H9O3+
177.0904	319	C11H13O2+
179.0698	47	C10H11O3+
185.0954	98	C13H13O+
187.075	225	C12H11O2+
188.0826	44	C12H12O2+
189.0905	264	C12H13O2+
191.07	148	C11H11O3+
191.1061	38	C12H15O2+
199.0757	86	C13H11O2+
201.0906	616	C13H13O2+
203.1067	52	C13H15O2+
205.0855	448	C12H13O3+
211.0751	137	C14H11O2+
213.0903	134	C14H13O2+
214.0616	64	C13H10O3+
217.0854	205	C13H13O3+
219.1017	59	C13H15O3+
229.0853	507	C14H13O3+
231.1009	57	C14H15O3+
235.0966	19	C13H15O4+
247.0956	149	C14H15O4+
259.0954	36	C15H15O4+
