Mass spectrum: Sulfamethoxazole; LC-ESI-QFT; MS2; CE: 40%; R=30000; [M+H]+
Name: Sulfamethoxazole
Name: 4-Amino-N-(5-methyl-1,2-oxazol-3-yl)benzene-1-sulfonamide
Formula: C10H11N3O3S
Exact mass: 253.0521
SMILES: CC1=CC(NS(=O)(=O)C2=CC=C(N)C=C2)=NO1
InChI: InChI=1S/C10H11N3O3S/c1-7-6-10(12-16-7)13-17(14,15)9-4-2-8(11)3-5-9/h2-6H,11H2,1H3,(H,12,13)
Instrument: Orbitrap Fusion Tribrid Thermo Fisher Scientific
Instrument type: LC-ESI-QFT
Ms type: MS2
Ion mode: POSITIVE
Ionization: ESI
Fragmentation mode: HCD
Collision energy: 40% (nominal)
Resolution: 30000
Precursor m/z: 254.0594
Precursor type: [M+H]+
m/z	relative intensity
65.0388	64
80.0497	26
92.0497	999
93.0575	210
94.0654	15
99.0555	187
107.0607	36
108.0408	8
108.0446	801
110.0603	54
119.061	4
120.0558	15
131.0605	8
132.0685	5
133.0642	3
145.0767	1
146.0714	36
147.0793	81
148.087	10
156.0116	242
160.0871	108
161.0017	8
176.0281	5
