Mass spectrum: Dibucaine; LC-ESI-ITFT; MS2; CE: 75%; R=7500; [M+H]+
Name: Dibucaine
Name: 2-Butoxy-N-[2-(diethylamino)ethyl]quinoline-4-carboxamide
Formula: C20H29N3O2
Exact mass: 343.226
SMILES: CCCCOC1=CC(C(=O)NCCN(CC)CC)=C2C=CC=CC2=N1
InChI: InChI=1S/C20H29N3O2/c1-4-7-14-25-19-15-17(16-10-8-9-11-18(16)22-19)20(24)21-12-13-23(5-2)6-3/h8-11,15H,4-7,12-14H2,1-3H3,(H,21,24)
Instrument: LTQ Orbitrap XL Thermo Fisher Scientific
Instrument type: LC-ESI-ITFT
Ms type: MS2
Ion mode: POSITIVE
Ionization: ESI
Fragmentation mode: HCD
Collision energy: 75% (nominal)
Resolution: 7500
Column name: Hypersil GOLD C18 1.9 um 100 x 2.1 mm Thermo Fisher Scientific
Precursor m/z: 344.2333
Precursor type: [M+H]+
m/z	relative intensity
57.0698	17
57.0945	3
57.1099	3
57.1501	2
72.0806	17
74.0963	26
100.1121	79
116.0495	916
118.065	3
128.0493	10
130.0651	14
132.0442	8
143.0728	3
144.0445	598
145.0523	13
146.06	45
157.0887	7
158.0601	35
159.0683	2
160.0755	14
162.0551	2
167.0734	4
170.06	18
171.0554	209
172.0394	730
182.0964	11
183.1042	6
187.0865	51
199.1231	6
200.107	24
202.1227	5
215.0816	999
225.1388	3
227.1182	33
228.1021	50
243.1498	14
271.1442	113
