Mass spectrum: Pendimethalin-OH (TENTATIVE); LC-ESI-QFT; MS2; CE: 30%; R=70000; [M+H]+
Name: Pendimethalin-OH
Formula: C13H19N3O5
Exact mass: 297.1311
SMILES: C(*)C(*)C(CC)NC1=C(C(*)=C(C(=C1[N+](=O)[O-])C(*))C(*))[N+](=O)[O-] *=[OH (n=1) & H (n=4)]
Instrument: Q Exactive Plus Orbitrap Thermo Scientific
Instrument type: LC-ESI-QFT
Ms type: MS2
Ion mode: POSITIVE
Ionization: ESI
Fragmentation mode: HCD
Collision energy: 30% (nominal)
Resolution: 70000
Column name: Waters UPLC BEH C18 1.7 um 2.1 mm x 100 mm with pre-column
Retention time: 15.49 min
Precursor m/z: 298.1389
Precursor type: [M+H]+
m/z	relative intensity
53.039	30
54.0341	34
57.0701	95
63.0231	52
64.0182	54
65.0261	67
65.0387	34
66.0339	123
67.0418	90
67.0544	47
68.0131	40
68.0496	44
69.0699	68
71.0855	292
77.026	53
78.0337	82
79.0416	141
79.0541	48
80.0494	101
81.0334	71
81.0573	42
81.0698	142
82.0286	82
83.0855	45
90.0337	290
91.029	45
91.0416	431
92.0368	91
92.0494	57
93.0209	78
93.0446	86
93.0698	53
94.0288	96
95.049	46
95.0855	115
96.0443	86
97.0284	77
104.0494	811
105.0447	194
105.0574	36
106.0287	81
106.0525	67
106.0652	89
107.0365	126
107.0605	77
107.0856	51
108.0444	86
109.1012	80
116.037	160
117.0208	47
117.0448	267
118.0286	44
118.0525	381
118.0648	60
119.0476	63
119.0604	87
119.0856	54
120.0318	55
120.0443	45
121.0032	94
121.0396	141
130.0396	52
132.0317	32
133.0397	61
133.0644	34
134.0474	227
134.0598	40
134.0683	43
135.0552	576
136.0268	33
136.0392	40
136.063	39
144.0317	91
145.0396	500
146.035	111
146.0473	89
147.0427	48
148.0506	102
149.0346	66
152.0579	57
158.0346	38
163.0379	69
163.0502	304
164.0454	122
164.058	128
165.0532	248
167.0448	41
174.0297	122
175.0376	140
176.0454	176
179.0452	290
180.0405	173
192.0403	999
193.0484	47
194.0556	154
210.0508	649
211.0586	388
214.0419	43
228.0615	318
235.1231	31
