Mass spectrum: Neoxaline; LC-ESI-ITFT; MS2; CE: 50%; R=7500; [M+H]+
Name: Neoxaline
Name: 11-hydroxy-14-(1H-imidazol-5-ylmethylidene)-2-methoxy-9-(2-methylbut-3-en-2-yl)-2,13,16-triazatetracyclo[7.7.0.01,13.03,8]hexadeca-3,5,7-triene-12,15-dione
Formula: C23H25N5O4
Exact mass: 435.1907
SMILES: CC(C)(C=C)C12CC(C(=O)N3C1(NC(=O)C3=CC4=CN=CN4)N(C5=CC=CC=C25)OC)O
InChI: InChI=1S/C23H25N5O4/c1-5-21(2,3)22-11-18(29)20(31)27-17(10-14-12-24-13-25-14)19(30)26-23(22,27)28(32-4)16-9-7-6-8-15(16)22/h5-10,12-13,18,29H,1,11H2,2-4H3,(H,24,25)(H,26,30)
Instrument: LTQ Orbitrap XL Thermo Scientific
Instrument type: LC-ESI-ITFT
Ms type: MS2
Ion mode: POSITIVE
Ionization: ESI
Fragmentation mode: HCD
Collision energy: 50 % (nominal)
Resolution: 7500
Column name: Hypersil GOLD C18 1.9 um 100 x 2.1 mm Thermo Fisher Scientific
Retention time: 14.057 min
Base peak: 436.198
Precursor m/z: 436.1979
Precursor type: [M+H]+
Precursor intensity: 1058275.34375
m/z	relative intensity	assigned
185.1075	293	C12H13N2+
200.1316	113	C13H16N2+
235.0983	385	C14H11N4+
249.0769	115	C14H9N4O+
263.0929	999	C15H11N4O+
280.1191	562	C15H14N5O+
291.0881	107	C18H13NO3+
318.076	87	C17H10N4O3+
319.0821	161	C17H11N4O3+
