Mass spectrum: Mefruside; LC-ESI-ITFT; MS2; CE: 30%; R=7500; [M+H]+
Name: Mefruside
Name: 4-Chloro-N1-methyl-N1-[(2-methyloxolan-2-yl)methyl]benzene-1,3-disulfonamide
Formula: C13H19ClN2O5S2
Exact mass: 382.0424
SMILES: CN(CC1(C)CCCO1)S(=O)(=O)C1=CC=C(Cl)C(=C1)S(N)(=O)=O
InChI: InChI=1S/C13H19ClN2O5S2/c1-13(6-3-7-21-13)9-16(2)23(19,20)10-4-5-11(14)12(8-10)22(15,17)18/h4-5,8H,3,6-7,9H2,1-2H3,(H2,15,17,18)
Instrument: LTQ Orbitrap XL Thermo Fisher Scientific
Instrument type: LC-ESI-ITFT
Ms type: MS2
Ion mode: POSITIVE
Ionization: ESI
Fragmentation mode: HCD
Collision energy: 30% (nominal)
Resolution: 7500
Column name: Hypersil GOLD C18 1.9 um 100 x 2.1 mm Thermo Fisher Scientific
Precursor m/z: 383.0497
Precursor type: [M+H]+
m/z	relative intensity
57.0334	11
69.0698	10
71.0853	7
73.1388	6
79.0542	25
81.0698	558
84.0806	179
86.0599	59
96.0808	9
97.0648	39
99.0804	385
110.0964	18
111.1042	13
112.1117	7
128.1069	250
129.1148	999
188.9039	7
188.9298	9
203.1218	4
203.9886	4
212.0901	4
217.9786	11
237.9402	15
253.9347	58
267.9506	47
273.8041	15
284.9768	518
288.0445	5
296.9767	90
365.0398	16
383.0497	21
