Mass spectrum: Sulfamethoxazole; ESI-QTOF; MS2; CE: 30eV; R=15000; [M+H]+
Name: Sulfamethoxazole
Name: 4-Amino-N-(5-methyl-1,2-oxazol-3-yl)benzene-1-sulfonamide
Formula: C10H11N3O3S
Exact mass: 253.0521
SMILES: CC1=CC(NS(=O)(=O)C2=CC=C(N)C=C2)=NO1
InChI: InChI=1S/C10H11N3O3S/c1-7-6-10(12-16-7)13-17(14,15)9-4-2-8(11)3-5-9/h2-6H,11H2,1H3,(H,12,13)
Instrument: TripleTOF 5600+SCIEX
Instrument type: ESI-QTOF
Ms type: MS2
Ion mode: POSITIVE
Ionization: ESI
Fragmentation mode: CID
Collision energy: 30 eV
Resolution: 15000
Precursor m/z: 254.0594
Precursor type: [M+H]+
m/z	relative intensity
53.0414	2
55.0205	1
65.0408	63
66.0486	2
68.0512	1
69.0713	1
71.062	1
72.046	3
77.0409	1
78.0348	1
80.051	29
90.035	1
92.0053	1
92.0507	616
93.0584	136
94.0663	13
97.0403	1
99.0563	148
103.0417	1
104.0501	1
105.0456	1
106.0537	1
107.0612	35
108.0452	999
108.9647	1
110.0616	1
116.0499	1
118.0532	2
119.0612	6
120.0687	2
121.0766	8
130.0533	3
131.0608	12
132.069	9
133.064	5
134.0716	1
135.0932	1
140.0165	1
143.0606	7
145.0766	3
146.0719	62
147.0797	144
148.0876	24
149.0175	1
151.0336	1
155.0612	1
156.0121	784
158.0737	1
159.002	1
159.0559	2
160.0875	190
161.0022	15
161.0709	3
163.0874	2
167.014	1
169.0304	4
171.0791	1
172.0878	2
173.0589	6
174.0793	1
175.0207	1
176.0284	11
177.0127	1
187.004	1
188.0825	46
190.0979	8
193.0308	1
194.039	9
213.0199	1
254.0594	45
