Mass spectrum: Beauvericin; LC-ESI-ITFT; MS2; CE: 40%; R=7500; [M+H]+
Name: Beauvericin
Name: Cyclo[DL-OVal-DL-N(Me)Phe-DL-OVal-DL-N(Me)Phe-DL-OVal-DL-N(Me)Phe]
Name: 3,9,15-tribenzyl-4,10,16-trimethyl-6,12,18-tri(propan-2-yl)-1,7,13-trioxa-4,10,16-triazacyclooctadecane-2,5,8,11,14,17-hexone
Formula: C45H57N3O9
Exact mass: 783.4095
SMILES: CC(C)C1C(=O)N(C(C(=O)OC(C(=O)N(C(C(=O)OC(C(=O)N(C(C(=O)O1)CC2=CC=CC=C2)C)C(C)C)CC3=CC=CC=C3)C)C(C)C)CC4=CC=CC=C4)C
InChI: InChI=1S/C45H57N3O9/c1-28(2)37-40(49)46(7)35(26-32-21-15-11-16-22-32)44(53)56-39(30(5)6)42(51)48(9)36(27-33-23-17-12-18-24-33)45(54)57-38(29(3)4)41(50)47(8)34(43(52)55-37)25-31-19-13-10-14-20-31/h10-24,28-30,34-39H,25-27H2,1-9H3
Instrument: LTQ Orbitrap XL Thermo Scientific
Instrument type: LC-ESI-ITFT
Ms type: MS2
Ion mode: POSITIVE
Ionization: ESI
Fragmentation mode: HCD
Collision energy: 40 % (nominal)
Resolution: 7500
Column name: Hypersil GOLD C18 1.9 um 100 x 2.1 mm Thermo Fisher Scientific
Retention time: 27.034 min
Base peak: 784.4185
Precursor m/z: 784.4168
Precursor type: [M+H]+
Precursor intensity: 32830561.66602
m/z	relative intensity	assigned
134.0964	79	C9H12N+
143.0861	2	C11H11+
180.102	2	C10H14NO2+
201.3342	3	C7H43N3O2+
216.1392	9	C14H18NO+
234.1489	64	C14H20NO2+
244.1332	999	C15H18NO2+
262.1436	612	C15H20NO3+
280.153	4	C15H22NO4+
362.196	17	C20H28NO5+
