Mass spectrum: Deoxynivalenol; LC-ESI-ITFT; MS2; CE: 30%; R=7500; [M+H]+
Name: Deoxynivalenol
Name: Vomitoxin
Name: 3,10-dihydroxy-2-(hydroxymethyl)-1,5-dimethylspiro[8-oxatricyclo[7.2.1.02,7]dodec-5-ene-12,2`-oxirane]-4-one
Formula: C15H20O6
Exact mass: 296.1260
SMILES: CC1=CC2C(C(C1=O)O)(C3(CC(C(C34CO4)O2)O)C)CO
InChI: InChI=1S/C15H20O6/c1-7-3-9-14(5-16,11(19)10(7)18)13(2)4-8(17)12(21-9)15(13)6-20-15/h3,8-9,11-12,16-17,19H,4-6H2,1-2H3
Instrument: LTQ Orbitrap XL Thermo Scientific
Instrument type: LC-ESI-ITFT
Ms type: MS2
Ion mode: POSITIVE
Ionization: ESI
Fragmentation mode: HCD
Collision energy: 30 % (nominal)
Resolution: 7500
Column name: Hypersil GOLD C18 1.9 um 100 x 2.1 mm Thermo Fisher Scientific
Retention time: 5.905 min
Base peak: 297.1329
Precursor m/z: 297.1333
Precursor type: [M+H]+
Precursor intensity: 2430230.662842
m/z	relative intensity	assigned
125.0599	503	C7H9O2+
137.0593	814	C8H9O2+
159.0811	999	C11H11O+
161.0955	482	C11H13O+
173.0953	463	C12H13O+
177.0901	592	C11H13O2+
201.112	490	C10H17O4+
