Mass spectrum: Stachybotrylactam; LC-ESI-ITFT; MS2; CE: 50%; R=7500; [M+H]+
Name: Stachybotrylactam
Name: 3,4`-dihydroxy-4,4,7,8a-tetramethylspiro[2,3,4a,5,6,7-hexahydro-1H-naphthalene-8,2`-7,8-dihydro-3H-furo[2,3-e]isoindole]-6`-one
Formula: C23H31NO4
Exact mass: 385.2253
SMILES: CC1CCC2C(C(CCC2(C13CC4=C(C=C5C(=C4O3)CNC5=O)O)C)O)(C)C
InChI: InChI=1S/C23H31NO4/c1-12-5-6-17-21(2,3)18(26)7-8-22(17,4)23(12)10-14-16(25)9-13-15(19(14)28-23)11-24-20(13)27/h9,12,17-18,25-26H,5-8,10-11H2,1-4H3,(H,24,27)
Instrument: LTQ Orbitrap XL Thermo Scientific
Instrument type: LC-ESI-ITFT
Ms type: MS2
Ion mode: POSITIVE
Ionization: ESI
Fragmentation mode: HCD
Collision energy: 50 % (nominal)
Resolution: 7500
Column name: Hypersil GOLD C18 1.9 um 100 x 2.1 mm Thermo Fisher Scientific
Retention time: 23.754 min
Base peak: 771.4607
Precursor m/z: 386.2326
Precursor type: [M+H]+
Precursor intensity: 6357007.739502
m/z	relative intensity	assigned
95.0856	9	C7H11+
107.0856	5	C8H11+
119.0853	5	C9H11+
121.1011	6	C9H13+
133.1016	3	C10H13+
135.1169	17	C10H15+
147.1166	4	C11H15+
149.1324	3	C11H17+
150.0552	6	C8H8NO2+
161.0597	3	C10H9O2+
163.1475	4	C12H19+
166.0496	4	C8H8NO3+
175.1479	6	C13H19+
178.0499	332	C9H8NO3+
179.0576	21	C9H9NO3+
180.0656	10	C9H10NO3+
189.1641	24	C14H21+
190.0504	4	C10H8NO3+
190.172	11	C14H22+
191.1795	30	C14H23+
202.0505	5	C11H8NO3+
204.065	5	C11H10NO3+
216.0655	16	C12H10NO3+
218.0804	9	C12H12NO3+
230.0815	6	C13H12NO3+
232.0966	5	C13H14NO3+
256.0963	3	C15H14NO3+
258.1128	8	C15H16NO3+
272.1272	10	C16H18NO3+
284.1284	8	C17H18NO3+
286.1435	5	C17H20NO3+
368.223	12	C23H30NO3+
386.2329	999	C23H32NO4+
