Mass spectrum: Citreoviridin; LC-ESI-ITFT; MS2; CE: 50%; R=7500; [M+H]+
Name: Citreoviridin
Name: 6-[8-(3,4-dihydroxy-2,4,5-trimethyloxolan-2-yl)-7-methylocta-1,3,5,7-tetraenyl]-4-methoxy-5-methylpyran-2-one
Formula: C23H30O6
Exact mass: 402.2042
SMILES: CC1C(C(C(O1)(C)C=C(C)C=CC=CC=CC2=C(C(=CC(=O)O2)OC)C)O)(C)O
InChI: InChI=1S/C23H30O6/c1-15(14-22(4)21(25)23(5,26)17(3)29-22)11-9-7-8-10-12-18-16(2)19(27-6)13-20(24)28-18/h7-14,17,21,25-26H,1-6H3
Instrument: LTQ Orbitrap XL Thermo Scientific
Instrument type: LC-ESI-ITFT
Ms type: MS2
Ion mode: POSITIVE
Ionization: ESI
Fragmentation mode: HCD
Collision energy: 50 % (nominal)
Resolution: 7500
Column name: Hypersil GOLD C18 1.9 um 100 x 2.1 mm Thermo Fisher Scientific
Retention time: 21.725 min
Base peak: 403.2119
Precursor m/z: 403.2115
Precursor type: [M+H]+
Precursor intensity: 3639468.507568
m/z	relative intensity	assigned
83.049	191	C5H7O+
89.0598	123	C4H9O2+
109.0647	98	C7H9O+
119.086	101	C9H11+
123.0806	69	C8H11O+
127.0747	47	C7H11O2+
128.0618	55	C10H8+
129.0695	64	C10H9+
131.0858	150	C10H11+
133.1008	85	C10H13+
135.0803	67	C9H11O+
137.0955	54	C9H13O+
139.039	999	C7H7O3+
143.0855	314	C11H11+
144.0935	52	C11H12+
151.0754	224	C9H11O2+
157.1013	89	C12H13+
161.0964	70	C11H13O+
165.0906	62	C10H13O2+
167.0701	380	C9H11O3+
179.071	102	C10H11O3+
185.0968	76	C13H13O+
191.0708	158	C11H11O3+
193.0855	249	C11H13O3+
237.1268	38	C17H17O+
