Mass spectrum: Terbutryn-desaturated (TENTATIVE); LC-ESI-QFT; MS2; CE: 55%; R=70000; [M+H]+
Name: Terbutryn-desaturated
Name: N2-tert-butyl-N4-ethenyl-6-(methylsulfanyl)-1,3,5-triazine-2,4-diamine
Formula: C10H17N5S
Exact mass: 239.1193
SMILES: C=CNC1=NC(=NC(=N1)SC)NC(C)(C)C
InChI: InChI=1S/C10H17N5S/c1-6-11-7-12-8(15-10(2,3)4)14-9(13-7)16-5/h6H,1H2,2-5H3,(H2,11,12,13,14,15)
Instrument: Q Exactive Plus Orbitrap Thermo Scientific
Instrument type: LC-ESI-QFT
Ms type: MS2
Ion mode: POSITIVE
Ionization: ESI
Fragmentation mode: HCD
Collision energy: 55% (nominal)
Resolution: 70000
Column name: Waters UPLC BEH C18 1.7 um 2.1 mm x 100 mm with pre-column
Retention time: 12.99 min
Precursor m/z: 240.1271
Precursor type: [M+H]+
m/z	relative intensity
55.0294	129
57.045	59
57.0702	20
57.9749	15
58.0654	40
59.9905	37
68.0244	515
69.0447	3
71.0604	47
71.9903	204
79.0543	3
82.04	47
83.0603	7
84.9855	999
91.0542	16
96.0556	45
99.0011	43
103.0543	3
105.0445	2
107.0491	7
109.9806	3
110.0461	8
113.0168	27
114.0122	6
115.0542	4
117.0698	10
127.0073	34
138.0771	2
141.0229	7
155.0385	9
