Mass spectrum: Cypermethrin-diOH (TENTATIVE); LC-ESI-QFT; MS2; CE: 42%; R=70000; [M-H]-
Name: Cypermethrin-diOH
Name: 3-(4-hydroxyphenoxy)benzoic acid
Formula: C13H10O4
Exact mass: 230.0579
SMILES: OC(=O)C1=CC(OC2=CC=C(O)C=C2)=CC=C1
InChI: InChI=1S/C13H10O4/c14-10-4-6-11(7-5-10)17-12-3-1-2-9(8-12)13(15)16/h1-8,14H,(H,15,16)
Instrument: Q Exactive Plus Orbitrap Thermo Scientific
Instrument type: LC-ESI-QFT
Ms type: MS2
Ion mode: NEGATIVE
Ionization: ESI
Fragmentation mode: HCD
Collision energy: 42% (nominal) with stepped collision energies 30% and 55%
Resolution: 70000
Column name: Phenomenex Synergi Polar-RP 2.5 um 100 mm x 3 mm with pre-column
Retention time: 8.14
Precursor m/z: 229.0508
Precursor type: [M-H]-
m/z	relative intensity
59.0137	4
69.0346	3
81.0346	2
85.0296	14
93.0346	231
95.0139	16
96.9929	3
99.0087	3
108.0218	39
109.0296	999
113.0243	2
123.0089	18
151.0219	10
167.017	20
167.0502	6
168.0204	2
183.0452	8
185.0611	377
229.0507	112
