Mass spectrum: Terrecyclic Acid; LC-ESI-ITFT; MS2; CE: 15%; R=7500; [M+H]+
Name: Terrecyclic Acid
Name: 11,11-dimethyl-2-methylidene-3-oxotricyclo[4.3.2.01,5]undecane-9-carboxylic acid
Formula: C15H20O3
Exact mass: 248.1412
SMILES: CC1(CC23C(CCC1C2CC(=O)C3=C)C(=O)O)C
InChI: InChI=1S/C15H20O3/c1-8-12(16)6-11-9-4-5-10(13(17)18)15(8,11)7-14(9,2)3/h9-11H,1,4-7H2,2-3H3,(H,17,18)
Instrument: LTQ Orbitrap XL Thermo Scientific
Instrument type: LC-ESI-ITFT
Ms type: MS2
Ion mode: POSITIVE
Ionization: ESI
Fragmentation mode: HCD
Collision energy: 15 % (nominal)
Resolution: 7500
Column name: Hypersil GOLD C18 1.9 um 100 x 2.1 mm Thermo Fisher Scientific
Retention time: 20.486 min
Base peak: 249.1493
Precursor m/z: 249.1485
Precursor type: [M+H]+
Precursor intensity: 7451942.437256
m/z	relative intensity	assigned
133.1018	1	C10H13+
147.0798	1	C10H11O+
159.1171	2	C12H15+
161.096	3	C11H13O+
175.1485	1	C13H19+
189.1282	4	C13H17O+
203.1434	18	C14H19O+
221.1543	22	C14H21O2+
231.1386	130	C15H19O2+
249.1492	999	C15H21O3+
