Mass spectrum: Picolinafen-OH (TENTATIVE); LC-ESI-QFT; MS2; CE: 55%; R=70000; [M+H]+
Name: Picolinafen-OH
Formula: C19H12F4N2O3
Exact mass: 392.0775
SMILES: C(*)1=C(*)C(=C(*)C(=C(*)1)OC2=C(*)C(*)=C(*)C(=N2)C(=O)NC3=CC=C(C(*)=C(*)3)F)C(F)(F)F  *=[OH (n=1) & H (n=8)]
Instrument: Q Exactive Plus Orbitrap Thermo Scientific
Instrument type: LC-ESI-QFT
Ms type: MS2
Ion mode: POSITIVE
Ionization: ESI
Fragmentation mode: HCD
Collision energy: 55% (nominal)
Resolution: 70000
Column name: Waters UPLC BEH C18 1.7 um 2.1 mm x 100 mm with pre-column
Retention time: 15.65 min
Precursor m/z: 393.0853
Precursor type: [M+H]+
m/z	relative intensity
53.0025	30
53.9978	6
57.0138	18
69.0448	47
73.0084	13
83.0291	81
91.0542	7
94.0288	14
101.0198	10
125.0197	6
133.0447	8
139.0302	21
141.0571	37
143.0304	13
145.026	773
163.0365	28
173.0322	209
181.0457	7
183.0417	147
188.0509	40
190.0462	252
191.0412	15
208.0577	7
210.0525	221
212.0328	8
218.0412	41
238.0473	999
256.0579	43
305.0724	7
375.0743	16
