Mass spectrum: b Zearalenol; LC-ESI-ITFT; MS2; CE: 20%; R=7500; [M+H]+
Name: b Zearalenol
Name: 8,16,18-trihydroxy-4-methyl-3-oxabicyclo[12.4.0]octadeca-1(14),12,15,17-tetraen-2-one
Formula: C18H24O5
Exact mass: 320.1624
SMILES: CC1CCCC(CCCC=CC2=C(C(=CC(=C2)O)O)C(=O)O1)O
InChI: InChI=1S/C18H24O5/c1-12-6-5-9-14(19)8-4-2-3-7-13-10-15(20)11-16(21)17(13)18(22)23-12/h3,7,10-12,14,19-21H,2,4-6,8-9H2,1H3
Instrument: LTQ Orbitrap XL Thermo Scientific
Instrument type: LC-ESI-ITFT
Ms type: MS2
Ion mode: POSITIVE
Ionization: ESI
Fragmentation mode: HCD
Collision energy: 20 % (nominal)
Resolution: 7500
Column name: Hypersil GOLD C18 1.9 um 100 x 2.1 mm Thermo Fisher Scientific
Retention time: 21.325 min
Base peak: 219.0177
Precursor m/z: 321.1697
Precursor type: [M+H]+
Precursor intensity: 844328.515625
m/z	relative intensity	assigned
277.1789	64	C17H25O3+
285.1481	34	C18H21O3+
303.1587	999	C18H23O4+
321.1688	698	C18H25O5+
