Mass spectrum: Mefruside; ESI-QTOF; MS2; CE: 50eV; R=15000; [M+H]+
Name: Mefruside
Name: 4-Chloro-N1-methyl-N1-[(2-methyloxolan-2-yl)methyl]benzene-1,3-disulfonamide
Formula: C13H19ClN2O5S2
Exact mass: 382.0424
SMILES: CN(CC1(C)CCCO1)S(=O)(=O)C1=CC=C(Cl)C(=C1)S(N)(=O)=O
InChI: InChI=1S/C13H19ClN2O5S2/c1-13(6-3-7-21-13)9-16(2)23(19,20)10-4-5-11(14)12(8-10)22(15,17)18/h4-5,8H,3,6-7,9H2,1-2H3,(H2,15,17,18)
Instrument: TripleTOF 5600+SCIEX
Instrument type: ESI-QTOF
Ms type: MS2
Ion mode: POSITIVE
Ionization: ESI
Fragmentation mode: CID
Collision energy: 50 eV
Resolution: 15000
Precursor m/z: 383.0497
Precursor type: [M+H]+
m/z	relative intensity
50.0195	2
51.0264	5
53.0415	27
55.0568	38
56.0523	5
57.0361	119
58.0678	9
62.0082	9
65.041	11
66.0486	6
67.0556	5
68.0518	6
69.072	64
70.0676	12
71.0876	16
72.0829	3
72.9858	10
74.0172	6
77.0406	31
78.0345	2
79.0559	242
80.0513	4
81.0716	719
81.9964	1
82.0661	13
83.05	4
83.8297	10
84.0048	5
84.0824	999
84.9843	2
85.0665	5
86.0615	148
87.0006	6
88.979	1
90.0351	7
91.0188	4
92.052	2
93.071	6
94.0665	27
95.0739	26
96.082	119
97.0656	14
98.0053	2
98.0978	10
99.0005	21
99.0817	200
99.9956	3
100.1126	3
101.0166	15
104.0505	3
105.0589	2
106.03	11
107.0127	8
108.0812	5
108.9849	234
110.0973	55
110.9999	3
111.1053	15
112.1131	27
112.9796	22
114.0116	25
114.9954	69
116.9569	48
118.9722	8
119.9681	20
122.025	3
123.9956	25
126.0118	10
126.995	5
128.0271	24
128.1082	68
128.9748	2
129.1157	227
130.0011	1
130.9718	2
135.08	1
136.9951	3
139.9906	38
140.9746	141
142.0063	238
142.9903	776
143.9674	26
144.952	21
146.967	3
153.9984	1
155.0068	2
156.022	68
156.9514	3
171.962	7
172.9467	147
174.962	5
189.9735	274
190.9566	6
201.9601	4
203.9892	175
205.9641	2
207.984	43
209.9447	1
217.9797	593
218.9757	6
219.9806	3
221.9987	2
223.9614	2
225.9409	3
231.9957	2
237.9405	4
253.9356	243
267.9516	48
284.9789	15
296.9779	11
