Mass spectrum: Fumonisin B2; LC-ESI-ITFT; MS2; CE: 60%; R=7500; [M+H]+
Name: Fumonisin B2
Name: Fumonisin B2, Fusarium moniliforme
Name: 2-[2-[19-amino-6-(3,4-dicarboxybutanoyloxy)-16,18-dihydroxy-5,9-dimethylicosan-7-yl]oxy-2-oxoethyl]butanedioic acid
Formula: C34H59NO14
Exact mass: 705.3936
SMILES: CCCCC(C)C(C(CC(C)CCCCCCC(CC(C(C)N)O)O)OC(=O)CC(CC(=O)O)C(=O)O)OC(=O)CC(CC(=O)O)C(=O)O
InChI: InChI=1S/C34H59NO14/c1-5-6-12-21(3)32(49-31(43)18-24(34(46)47)16-29(40)41)27(48-30(42)17-23(33(44)45)15-28(38)39)14-20(2)11-9-7-8-10-13-25(36)19-26(37)22(4)35/h20-27,32,36-37H,5-19,35H2,1-4H3,(H,38,39)(H,40,41)(H,44,45)(H,46,47)
Instrument: LTQ Orbitrap XL Thermo Scientific
Instrument type: LC-ESI-ITFT
Ms type: MS2
Ion mode: POSITIVE
Ionization: ESI
Fragmentation mode: HCD
Collision energy: 60 % (nominal)
Resolution: 7500
Column name: Hypersil GOLD C18 1.9 um 100 x 2.1 mm Thermo Fisher Scientific
Retention time: 22.184 min
Base peak: 706.4023
Precursor m/z: 706.4008
Precursor type: [M+H]+
Precursor intensity: 57323263.33008
m/z	relative intensity	assigned
55.0542	78	C4H7+
57.0699	43	C4H9+
67.0542	152	C5H7+
69.0699	256	C5H9+
70.0651	282	C4H8N+
73.1098	18	CH15NO2+
74.0601	290	C3H8NO+
79.0542	130	C6H7+
81.0699	475	C6H9+
82.0653	43	C5H8N+
83.0855	65	C6H11+
84.081	45	C5H10N+
85.0284	218	C4H5O2+
85.101	43	C6H13+
91.0543	62	C7H7+
93.0701	253	C7H9+
95.0857	714	C7H11+
96.0809	134	C6H10N+
97.1012	64	C7H13+
100.0757	38	C5H10NO+
105.0701	78	C8H9+
107.0857	261	C8H11+
109.1014	637	C8H13+
111.1165	21	C8H15+
113.0234	583	C5H5O3+
119.0858	109	C9H11+
121.1013	301	C9H13+
123.117	236	C9H15+
124.1122	66	C8H14N+
133.1014	108	C10H13+
135.1171	223	C10H15+
137.1326	82	C10H17+
138.1279	65	C9H16N+
141.0185	733	C6H5O4+
147.1171	123	C11H15+
149.1325	121	C11H17+
151.1479	52	C11H19+
152.1434	54	C10H18N+
159.0291	196	C6H7O5+
161.1329	56	C12H17+
165.1644	19	C12H21+
194.1906	175	C13H24N+
199.2988	48	C12H39O+
203.0702	21	C12H11O3+
208.2064	204	C14H26N+
220.2063	213	C15H26N+
234.2228	56	C16H28N+
236.2375	37	C16H30N+
238.2166	150	C15H28NO+
248.2381	29	C17H30N+
252.2318	45	C16H30NO+
318.3159	999	C22H40N+
336.3268	902	C22H42NO+
354.3374	39	C22H44NO2+
