Mass spectrum: Sulfamoxole; LC-ESI-ITFT; MS2; CE: 90%; R=15000; [M+H]+
Name: Sulfamoxole
Name: 4-amino-N-(4,5-dimethyl-1,3-oxazol-2-yl)benzenesulfonamide
Formula: C11H13N3O3S
Exact mass: 267.0678
SMILES: CC1=C(OC(=N1)NS(=O)(=O)C2=CC=C(C=C2)N)C
InChI: InChI=1S/C11H13N3O3S/c1-7-8(2)17-11(13-7)14-18(15,16)10-5-3-9(12)4-6-10/h3-6H,12H2,1-2H3,(H,13,14)
Instrument: LTQ Orbitrap XL Thermo Scientific
Instrument type: LC-ESI-ITFT
Ms type: MS2
Ion mode: POSITIVE
Ionization: ESI
Fragmentation mode: CID
Collision energy: 90% (nominal)
Resolution: 15000
Column name: Kinetex Evo C18 2.6 um 50 x 2.1 mm
Retention time: 3.927 min
Base peak: 268.0751
Precursor m/z: 268.075
Precursor type: [M+H]+
m/z	relative intensity	assigned
65.0385	4	C5H5+
80.0495	1	C5H6N+
92.0495	94	C6H6N+
94.0653	2	C6H8N+
108.0445	225	C6H6NO+
111.0554	42	C5H7N2O+
112.0632	15	C5H8N2O+
113.071	145	C5H9N2O+
129.0659	2	C5H9N2O2+
140.0166	448	C6H6NOS+
156.0115	999	C6H6NO2S+
158.0269	13	C6H8NO2S+
159.0912	1	C10H11N2+
161.1073	10	C10H13N2+
162.0916	2	C10H12NO+
175.0173	16	C5H7N2O3S+
204.1135	5	C11H14N3O+
233.0381	1	C11H9N2O2S+
