Mass spectrum: Dixyrazine ; LC-ESI-QTOF; MS2; CE: 45 eV; R=3600; [M+H]+
Name: Dixyrazine
Name: 2-(2-{4-[2-Methyl-3-(10H-phenothiazin-10-yl)propyl]piperazin-1-yl}ethoxy)ethan-1-ol
Formula: C24H33N3O2S
Exact mass: 427.2293
SMILES: CC(CN1CCN(CCOCCO)CC1)CN1C2=CC=CC=C2SC2=CC=CC=C12
InChI: InChI=1S/C24H33N3O2S/c1-20(18-26-12-10-25(11-13-26)14-16-29-17-15-28)19-27-21-6-2-4-8-23(21)30-24-9-5-3-7-22(24)27/h2-9,20,28H,10-19H2,1H3
Instrument: 6577 QTOF Agilent
Instrument type: LC-ESI-QTOF
Ms type: MS2
Ion mode: POSITIVE
Ionization: ESI
Fragmentation mode: CID
Collision energy: 45 eV
Resolution: 3600
Precursor m/z: 428.2367
Precursor type: [M+H]+
m/z	relative intensity
56.048	83
58.0637	157
70.0631	323
82.0627	85
84.0782	51
87.0414	133
97.0728	379
98.0807	999
101.104	426
125.1029	85
144.0957	57
172.1149	76
179.0658	93
180.0743	496
187.1376	105
212.0457	251
229.1829	63
