Mass spectrum: Tenuazonic acid; LC-ESI-ITFT; MS2; CE: 60%; R=7500; [M+H]+
Name: Tenuazonic acid
Name: 3-Acetyl-5-(butan-2-yl)-4-hydroxy-2,5-dihydro-1H-pyrrol-2-one
Name: 4-acetyl-2-butan-2-yl-3-hydroxy-1,2-dihydropyrrol-5-one
Formula: C10H15NO3
Exact mass: 197.1052
SMILES: CCC(C)C1C(=C(C(=O)N1)C(=O)C)O
InChI: InChI=1S/C10H15NO3/c1-4-5(2)8-9(13)7(6(3)12)10(14)11-8/h5,8,13H,4H2,1-3H3,(H,11,14)
Instrument: LTQ Orbitrap XL Thermo Scientific
Instrument type: LC-ESI-ITFT
Ms type: MS2
Ion mode: POSITIVE
Ionization: ESI
Fragmentation mode: HCD
Collision energy: 60 % (nominal)
Resolution: 7500
Column name: Hypersil GOLD C18 1.9 um 100 x 2.1 mm Thermo Fisher Scientific
Retention time: 16.195 min
Base peak: 198.1122
Precursor m/z: 198.1125
Precursor type: [M+H]+
Precursor intensity: 3190439.447021
m/z	relative intensity	assigned
83.0124	91	C4H3O2+
97.0282	126	C5H5O2+
97.0646	28	C6H9O+
100.0391	62	C4H6NO2+
111.0801	107	C7H11O+
115.0388	19	C5H7O3+
121.0648	27	C8H9O+
125.0229	195	C6H5O3+
125.0595	142	C7H9O2+
125.0955	55	C8H13O+
127.0385	34	C6H7O3+
128.107	16	C7H14NO+
135.0801	82	C9H11O+
138.0913	73	C8H12NO+
139.0386	224	C7H7O3+
139.0748	125	C8H11O2+
142.0495	391	C6H8NO3+
153.0907	726	C9H13O2+
156.1015	73	C8H14NO2+
163.0752	38	C10H11O2+
180.1014	248	C10H14NO2+
181.0853	121	C10H13O3+
198.1119	999	C10H16NO3+
