Mass spectrum: Cyclopenol; LC-ESI-ITFT; MS2; CE: 60%; R=7500; [M-H]-
Name: Cyclopenol
Name: Spiro[3H-1,4-benzodiazepine-3,2`-oxirane]-2,5(1H,4H)-dione, 3`-(3-hydroxyphenyl)-4-methyl-, cis-(-)-
Name: 3`-(3-hydroxyphenyl)-4-methylspiro[1H-1,4-benzodiazepine-3,2`-oxirane]-2,5-dione
Formula: C17H14N2O4
Exact mass: 310.09536
SMILES: CN1C(=O)C2=CC=CC=C2NC(=O)C13C(O3)C4=CC(=CC=C4)O
InChI: InChI=1S/C17H14N2O4/c1-19-15(21)12-7-2-3-8-13(12)18-16(22)17(19)14(23-17)10-5-4-6-11(20)9-10/h2-9,14,20H,1H3,(H,18,22)
Instrument: LTQ Orbitrap XL Thermo Scientific
Instrument type: LC-ESI-ITFT
Ms type: MS2
Ion mode: NEGATIVE
Ionization: ESI
Fragmentation mode: HCD
Collision energy: 60 % (nominal)
Resolution: 7500
Column name: Hypersil GOLD C18 1.9 um 100 x 2.1 mm Thermo Fisher Scientific
Retention time: 11.668 min
Base peak: 309.0888
Precursor m/z: 309.0881
Precursor type: [M-H]-
Precursor intensity: 11202976.82837
m/z	relative intensity	assigned
92.0268	37	C6H4O-
93.0347	11	C6H5O-
102.035	103	C7H4N-
121.0297	999	C7H5O2-
131.0617	11	C8H7N2-
133.0297	36	C8H5O2-
137.0245	58	C7H5O3-
149.0251	3	C8H5O3-
149.0719	14	C8H9N2O-
159.0564	759	C9H7N2O-
160.0408	4	C9H6NO2-
175.0513	523	C9H7N2O2-
177.0666	15	C9H9N2O2-
187.0515	31	C10H7N2O2-
189.0673	4	C10H9N2O2-
208.0771	5	C14H10NO-
223.0639	47	C14H9NO2-
224.0717	124	C14H10NO2-
238.0873	68	C15H12NO2-
250.075	14	C15H10N2O2-
251.0587	32	C15H9NO3-
252.0668	43	C15H10NO3-
263.0825	7	C16H11N2O2-
265.0984	8	C16H13N2O2-
266.0821	100	C16H12NO3-
281.0942	4	C16H13N2O3-
291.0779	4	C17H11N2O3-
309.0883	15	C17H13N2O4-
