Mass spectrum: Metoclopramide; LC-ESI-QFT; MS2; CE: 65%; R=17500; [M+H]+
Name: Metoclopramide
Name: 4-Amino-5-chloro-N-[2-(diethylamino)ethyl]-2-methoxybenzamide
Formula: C14H22ClN3O2
Exact mass: 299.1401
SMILES: CCN(CC)CCNC(=O)C1=CC(Cl)=C(N)C=C1OC
InChI: InChI=1S/C14H22ClN3O2/c1-4-18(5-2)7-6-17-14(19)10-8-11(15)12(16)9-13(10)20-3/h8-9H,4-7,16H2,1-3H3,(H,17,19)
Instrument: Q Exactive Thermo Fisher Scientific
Instrument type: LC-ESI-QFT
Ms type: MS2
Ion mode: POSITIVE
Ionization: ESI
Fragmentation mode: HCD
Collision energy: 65% (nominal)
Resolution: 17500
Column name: Hypersil GOLD 1.9 um 2.1 x 100 mm Thermo Fisher Scientific
Precursor m/z: 300.1474
Precursor type: [M+H]+
m/z	relative intensity
90.0345	22
93.058	29
100.1127	23
120.0448	19
126.0107	26
128.0265	33
140.9977	103
144.0213	41
148.0632	47
154.0055	20
156.0211	103
168.0087	93
168.9927	27
170.0003	29
182.0243	13
183.0323	256
184.0162	999
187.0032	46
212.0349	272
227.0582	184
