Mass spectrum: Sulfamoxole; ESI-QTOF; MS2; CE: 30eV; R=15000; [M+H]+
Name: Sulfamoxole
Name: 4-Amino-N-(4,5-dimethyl-1,3-oxazol-2-yl)benzene-1-sulfonamide
Formula: C11H13N3O3S
Exact mass: 267.0678
SMILES: CC1=C(C)N=C(NS(=O)(=O)C2=CC=C(N)C=C2)O1
InChI: InChI=1S/C11H13N3O3S/c1-7-8(2)17-11(13-7)14-18(15,16)10-5-3-9(12)4-6-10/h3-6H,12H2,1-2H3,(H,13,14)
Instrument: TripleTOF 5600+SCIEX
Instrument type: ESI-QTOF
Ms type: MS2
Ion mode: POSITIVE
Ionization: ESI
Fragmentation mode: CID
Collision energy: 30 eV
Resolution: 15000
Precursor m/z: 268.0751
Precursor type: [M+H]+
m/z	relative intensity
53.0415	1
54.0366	4
65.0408	50
66.0363	1
68.0517	1
69.0592	9
70.0671	22
79.0555	1
80.051	16
83.0618	2
92.0508	524
93.0585	3
94.0662	3
97.0407	1
107.0862	1
107.9699	1
108.0452	922
110.0612	1
111.0562	41
112.064	161
113.0718	654
120.0566	1
124.0088	1
135.0812	1
140.017	117
146.0838	1
156.012	999
158.0277	11
161.1078	1
162.0921	1
163.0437	1
167.9983	2
171.0336	1
173.0495	1
175.0179	5
186.0086	1
211.0086	1
227.0601	1
268.0751	59
