Mass spectrum: Emodin; LC-ESI-ITFT; MS2; CE: 15%; R=7500; [M-H]-
Name: Emodin
Name: 1,3,8-trihydroxy-6-methylanthracene-9,10-dione
Formula: C15H10O5
Exact mass: 270.0528
SMILES: CC1=CC2=C(C(=C1)O)C(=O)C3=C(C2=O)C=C(C=C3O)O
InChI: InChI=1S/C15H10O5/c1-6-2-8-12(10(17)3-6)15(20)13-9(14(8)19)4-7(16)5-11(13)18/h2-5,16-18H,1H3
Instrument: LTQ Orbitrap XL Thermo Scientific
Instrument type: LC-ESI-ITFT
Ms type: MS2
Ion mode: NEGATIVE
Ionization: ESI
Fragmentation mode: HCD
Collision energy: 15 % (nominal)
Resolution: 7500
Column name: Hypersil GOLD C18 1.9 um 100 x 2.1 mm Thermo Fisher Scientific
Retention time: 24.803 min
Base peak: 269.0455
Precursor m/z: 269.0455
Precursor type: [M-H]-
Precursor intensity: 4465920.099854
m/z	relative intensity	assigned
269.0457	999	C15H9O5-
