Mass spectrum: Pyranonigrin A; LC-ESI-ITFT; MS2; CE: 40%; R=7500; [M+H]+
Name: Pyranonigrin A
Name: CID 73323900
Name: 3,7-dihydroxy-2-prop-1-enyl-6,7-dihydropyrano[2,3-c]pyrrole-4,5-dione
Formula: C10H9NO5
Exact mass: 223.0481
SMILES: CC=CC1=C(C(=O)C2=C(O1)C(NC2=O)O)O
InChI: InChI=1S/C10H9NO5/c1-2-3-4-6(12)7(13)5-8(16-4)10(15)11-9(5)14/h2-3,10,12,15H,1H3,(H,11,14)
Instrument: LTQ Orbitrap XL Thermo Scientific
Instrument type: LC-ESI-ITFT
Ms type: MS2
Ion mode: POSITIVE
Ionization: ESI
Fragmentation mode: HCD
Collision energy: 40 % (nominal)
Resolution: 7500
Column name: Hypersil GOLD C18 1.9 um 100 x 2.1 mm Thermo Fisher Scientific
Retention time: 8.475 min
Base peak: 224.0549
Precursor m/z: 224.0553
Precursor type: [M+H]+
Precursor intensity: 1826258.873047
m/z	relative intensity	assigned
69.0332	79	C4H5O+
123.0444	27	C7H7O2+
126.0182	133	C5H4NO3+
178.0496	37	C9H8NO3+
179.0334	128	C9H7O4+
196.0602	76	C9H10NO4+
206.0439	30	C10H8NO4+
207.0288	84	C10H7O5+
224.0549	999	C10H10NO5+
