Mass spectrum: Etilefrine; LC-ESI-ITFT; MS2; CE: 90%; R=15000; [M+H]+
Name: Etilefrine
Name: 3-[2-(ethylamino)-1-hydroxyethyl]phenol
Formula: C10H15NO2
Exact mass: 181.1103
SMILES: CCNCC(C1=CC(=CC=C1)O)O
InChI: InChI=1S/C10H15NO2/c1-2-11-7-10(13)8-4-3-5-9(12)6-8/h3-6,10-13H,2,7H2,1H3
Instrument: LTQ Orbitrap XL Thermo Scientific
Instrument type: LC-ESI-ITFT
Ms type: MS2
Ion mode: POSITIVE
Ionization: ESI
Fragmentation mode: HCD
Collision energy: 90% (nominal)
Resolution: 15000
Column name: Kinetex Evo C18 2.6 um 50 x 2.1 mm
Retention time: 0.619 min
Base peak: 182.1175
Precursor m/z: 182.1176
Precursor type: [M+H]+
m/z	relative intensity	assigned
77.0384	14	C6H5+
79.0542	12	C6H7+
81.0698	43	C6H9+
91.0542	999	C7H7+
93.057	10	C6H7N+
93.07	29	C7H9+
94.0411	11	C6H6O+
95.049	9	C6H7O+
103.0543	37	C8H7+
104.0494	46	C7H6N+
105.0447	12	C6H5N2+
106.0652	20	C7H8N+
107.0491	75	C7H7O+
108.057	22	C7H8O+
108.0808	10	C7H10N+
109.0648	159	C7H9O+
117.0573	20	C8H7N+
118.0414	10	C8H6O+
118.0651	95	C8H8N+
119.0492	99	C8H7O+
120.0443	26	C7H6NO+
121.0647	44	C8H9O+
134.0601	148	C8H8NO+
135.0679	341	C8H9NO+
136.0756	57	C8H10NO+
164.1069	81	C10H14NO+
