Mass spectrum: Mefruside; ESI-QTOF; MS2; CE: 20eV; R=15000; [M+H]+
Name: Mefruside
Name: 4-Chloro-N1-methyl-N1-[(2-methyloxolan-2-yl)methyl]benzene-1,3-disulfonamide
Formula: C13H19ClN2O5S2
Exact mass: 382.0424
SMILES: CN(CC1(C)CCCO1)S(=O)(=O)C1=CC=C(Cl)C(=C1)S(N)(=O)=O
InChI: InChI=1S/C13H19ClN2O5S2/c1-13(6-3-7-21-13)9-16(2)23(19,20)10-4-5-11(14)12(8-10)22(15,17)18/h4-5,8H,3,6-7,9H2,1-2H3,(H2,15,17,18)
Instrument: TripleTOF 5600+SCIEX
Instrument type: ESI-QTOF
Ms type: MS2
Ion mode: POSITIVE
Ionization: ESI
Fragmentation mode: CID
Collision energy: 20 eV
Resolution: 15000
Precursor m/z: 383.0497
Precursor type: [M+H]+
m/z	relative intensity
53.0412	1
55.0573	1
57.0362	8
69.0719	9
71.0879	4
77.0399	2
79.0559	11
81.0715	193
83.0864	1
84.0824	39
85.0654	1
86.0615	10
96.082	7
97.0661	23
98.0982	1
99.0817	307
100.1127	1
108.9855	2
110.0974	12
111.1052	13
112.1128	3
113.0601	1
114.0923	1
119.0863	2
128.1079	159
129.0607	1
129.1156	886
130.0269	1
131.0554	1
140.9747	1
142.0056	2
142.9902	5
156.0215	1
172.9449	1
189.9733	3
203.9893	6
207.9845	2
217.9796	12
237.941	5
253.9357	67
267.9513	49
268.9828	1
284.1003	4
284.9782	999
288.0473	8
296.0658	1
296.9782	129
301.077	1
302.0331	1
302.9891	1
314.9888	5
319.0915	1
337.0112	1
342.0202	1
352.0095	30
365.041	77
383.0497	882
