Mass spectrum: Amiloride; ESI-QTOF; MS2; CE: 45eV; R=15000; [M+H]+
Name: Amiloride
Name: 3,5-Diamino-N-carbamimidoyl-6-chloropyrazine-2-carboxamide
Formula: C6H8ClN7O
Exact mass: 229.0479
SMILES: NC(=N)NC(=O)C1=NC(Cl)=C(N)N=C1N
InChI: InChI=1S/C6H8ClN7O/c7-2-4(9)13-3(8)1(12-2)5(15)14-6(10)11/h(H4,8,9,13)(H4,10,11,14,15)
Instrument: TripleTOF 5600+SCIEX
Instrument type: ESI-QTOF
Ms type: MS2
Ion mode: POSITIVE
Ionization: ESI
Fragmentation mode: CID
Collision energy: 45 eV
Resolution: 15000
Precursor m/z: 230.0552
Precursor type: [M+H]+
m/z	relative intensity
53.0157	8
54.0226	1
55.031	6
56.0388	2
60.0573	151
61.9807	24
63.9962	54
66.0226	7
69.0095	1
73.98	11
80.0249	3
81.0325	1
82.0404	1
86.0352	2
88.9904	59
91.0058	5
100.9898	63
107.0348	5
108.0427	133
116.0005	999
125.0453	1
140.9958	2
143.0108	332
145.0263	1
161.0212	29
170.0205	1
171.0054	186
189.016	2
