Mass spectrum: Viridicatin; LC-ESI-ITFT; MS2; CE: 50%; R=7500; [M+H]+
Name: Viridicatin
Name: 3-hydroxy-4-phenyl-1H-quinolin-2-one
Formula: C15H11NO2
Exact mass: 237.0790
SMILES: C1=CC=C(C=C1)C2=C(C(=O)NC3=CC=CC=C32)O
InChI: InChI=1S/C15H11NO2/c17-14-13(10-6-2-1-3-7-10)11-8-4-5-9-12(11)16-15(14)18/h1-9,17H,(H,16,18)
Instrument: LTQ Orbitrap XL Thermo Scientific
Instrument type: LC-ESI-ITFT
Ms type: MS2
Ion mode: POSITIVE
Ionization: ESI
Fragmentation mode: HCD
Collision energy: 50 % (nominal)
Resolution: 7500
Column name: Hypersil GOLD C18 1.9 um 100 x 2.1 mm Thermo Fisher Scientific
Retention time: 20.013 min
Base peak: 238.0865
Precursor m/z: 238.0863
Precursor type: [M+H]+
Precursor intensity: 6597872.533203
m/z	relative intensity	assigned
56.0494	1	C3H6N+
105.034	1	C7H5O+
132.0443	4	C8H6NO+
192.0808	6	C14H10N+
220.0765	3	C15H10NO+
238.086	999	C15H12NO2+
