Mass spectrum: Sulfamoxole; ESI-QTOF; MS2; CE: 45eV; R=15000; [M+H]+
Name: Sulfamoxole
Name: 4-Amino-N-(4,5-dimethyl-1,3-oxazol-2-yl)benzene-1-sulfonamide
Formula: C11H13N3O3S
Exact mass: 267.0678
SMILES: CC1=C(C)N=C(NS(=O)(=O)C2=CC=C(N)C=C2)O1
InChI: InChI=1S/C11H13N3O3S/c1-7-8(2)17-11(13-7)14-18(15,16)10-5-3-9(12)4-6-10/h3-6H,12H2,1-2H3,(H,13,14)
Instrument: TripleTOF 5600+SCIEX
Instrument type: ESI-QTOF
Ms type: MS2
Ion mode: POSITIVE
Ionization: ESI
Fragmentation mode: CID
Collision energy: 45 eV
Resolution: 15000
Precursor m/z: 268.0751
Precursor type: [M+H]+
m/z	relative intensity
51.025	1
53.0414	7
54.0366	19
55.0205	1
65.0408	313
66.036	6
68.0515	3
69.0592	24
70.067	96
71.0509	1
76.0323	1
77.04	1
78.0355	1
79.0562	1
80.0509	97
83.062	3
90.0347	1
92.0507	829
93.0585	7
94.0664	2
95.9779	1
97.0404	2
107.0865	1
107.959	1
108.0452	999
110.061	2
111.0561	64
112.0639	110
113.0717	449
120.0564	1
123.0139	2
124.0083	1
125.0282	1
140.0169	65
145.0767	1
153.0224	1
156.0118	103
158.0276	1
167.9983	1
