Mass spectrum: Dosulepin; LC-ESI-ITFT; MS2; CE: 110%; R=15000; [M+H]+
Name: Dosulepin
Name: Dothiepin
Name: 3-(6H-benzo[c][1]benzothiepin-11-ylidene)-N,N-dimethylpropan-1-amine
Formula: C19H21NS
Exact mass: 295.1395
SMILES: CN(C)CCC=C1C2=CC=CC=C2CSC3=CC=CC=C31
InChI: InChI=1S/C19H21NS/c1-20(2)13-7-11-17-16-9-4-3-8-15(16)14-21-19-12-6-5-10-18(17)19/h3-6,8-12H,7,13-14H2,1-2H3
Instrument: LTQ Orbitrap XL Thermo Scientific
Instrument type: LC-ESI-ITFT
Ms type: MS2
Ion mode: POSITIVE
Ionization: ESI
Fragmentation mode: HCD
Collision energy: 110% (nominal)
Resolution: 15000
Column name: Kinetex Evo C18 2.6 um 50 x 2.1 mm
Retention time: 8.175 min
Base peak: 296.1468
Precursor m/z: 296.1467
Precursor type: [M+H]+
m/z	relative intensity	assigned
58.0649	112	C3H8N+
65.0383	10	C5H5+
77.0385	10	C6H5+
79.054	13	C6H7+
84.0807	9	C5H10N+
91.0542	334	C7H7+
103.0541	15	C8H7+
105.0445	15	C6H5N2+
115.0542	267	C9H7+
116.062	14	C9H8+
117.0698	103	C9H9+
121.0111	12	C7H5S+
123.0262	23	C7H7S+
128.0619	55	C10H8+
129.0698	39	C10H9+
134.0186	6	C8H6S+
135.0262	6	C8H7S+
141.0699	70	C11H9+
142.0777	8	C11H10+
147.0263	81	C9H7S+
152.062	11	C12H8+
155.0606	16	C10H7N2+
165.0698	263	C13H9+
166.0775	7	C13H10+
171.0267	7	C11H7S+
173.0411	7	C11H9S+
176.0612	7	C14H8+
177.0696	11	C14H9+
178.0777	548	C14H10+
179.0855	56	C14H11+
189.0699	62	C15H9+
190.0777	39	C15H10+
191.0855	197	C15H11+
192.0934	23	C15H12+
197.0417	11	C13H9S+
201.0705	10	C16H9+
202.0777	999	C16H10+
203.0855	408	C16H11+
205.1018	5	C16H13+
208.034	69	C14H8S+
209.0421	33	C14H9S+
210.0497	78	C14H10S+
215.0855	199	C17H11+
216.0935	83	C17H12+
217.1012	222	C17H13+
221.0419	723	C15H9S+
222.0498	50	C15H10S+
223.0573	22	C15H11S+
234.0497	135	C16H10S+
235.0575	100	C16H11S+
