Mass spectrum: Dibucaine; LC-ESI-ITFT; MS2; CE: 85%; R=15000; [M+H]+
Name: Dibucaine
Name: 2-butoxy-N-[2-(diethylamino)ethyl]quinoline-4-carboxamide
Formula: C20H29N3O2
Exact mass: 343.2260
SMILES: CCCCOC1=NC2=CC=CC=C2C(=C1)C(=O)NCCN(CC)CC
InChI: InChI=1S/C20H29N3O2/c1-4-7-14-25-19-15-17(16-10-8-9-11-18(16)22-19)20(24)21-12-13-23(5-2)6-3/h8-11,15H,4-7,12-14H2,1-3H3,(H,21,24)
Instrument: LTQ Orbitrap XL Thermo Scientific
Instrument type: LC-ESI-ITFT
Ms type: MS2
Ion mode: POSITIVE
Ionization: ESI
Fragmentation mode: HCD
Collision energy: 85% (nominal)
Resolution: 15000
Column name: Kinetex Evo C18 2.6 um 50 x 2.1 mm
Retention time: 8.741 min
Base peak: 344.233
Precursor m/z: 344.2333
Precursor type: [M+H]+
m/z	relative intensity	assigned
57.0696	74	C4H9+
72.0806	29	C4H10N+
74.0963	24	C4H12N+
86.0964	4	C5H12N+
100.112	47	C6H14N+
116.0494	999	C8H6N+
118.0651	4	C8H8N+
128.0494	12	C9H6N+
130.065	14	C9H8N+
132.044	4	C8H6NO+
134.06	3	C8H8NO+
142.0647	2	C10H8N+
143.0604	5	C9H7N2+
143.0725	3	C10H9N+
144.0443	497	C9H6NO+
145.0519	17	C9H7NO+
146.0598	21	C9H8NO+
153.0447	9	C10H5N2+
156.0443	2	C10H6NO+
157.0887	4	C11H11N+
158.0599	12	C10H8NO+
160.0754	8	C10H10NO+
169.0762	4	C11H9N2+
170.0598	11	C11H8NO+
171.0552	119	C10H7N2O+
172.0392	249	C10H6NO2+
176.07	4	C10H10NO2+
183.1034	2	C13H13N+
186.0787	3	C11H10N2O+
187.0865	23	C11H11N2O+
200.1067	10	C13H14NO+
215.0813	175	C12H11N2O2+
227.1183	3	C14H15N2O+
228.1022	3	C14H14NO2+
243.1493	3	C15H19N2O+
