Mass spectrum: Tentotoxin; LC-ESI-ITFT; MS2; CE: 30%; R=7500; [M-H]-
Name: Tentotoxin
Name: 12-benzylidene-1,6,7-trimethyl-3-(2-methylpropyl)-1,4,7,10-tetrazacyclododecane-2,5,8,11-tetrone
Formula: C22H30N4O4
Exact mass: 414.22671
SMILES: CC1C(=O)NC(C(=O)N(C(=CC2=CC=CC=C2)C(=O)NCC(=O)N1C)C)CC(C)C
InChI: InChI=1S/C22H30N4O4/c1-14(2)11-17-22(30)26(5)18(12-16-9-7-6-8-10-16)21(29)23-13-19(27)25(4)15(3)20(28)24-17/h6-10,12,14-15,17H,11,13H2,1-5H3,(H,23,29)(H,24,28)
Instrument: LTQ Orbitrap XL Thermo Scientific
Instrument type: LC-ESI-ITFT
Ms type: MS2
Ion mode: NEGATIVE
Ionization: ESI
Fragmentation mode: HCD
Collision energy: 30 % (nominal)
Resolution: 7500
Column name: Hypersil GOLD C18 1.9 um 100 x 2.1 mm Thermo Fisher Scientific
Retention time: 18.863 min
Base peak: 413.2183
Precursor m/z: 413.2194
Precursor type: [M-H]-
Precursor intensity: 34299889.53418
m/z	relative intensity	assigned
84.0452	2	C4H6NO-
102.0557	5	C4H8NO2-
111.056	4	C5H7N2O-
113.0357	3	C4H5N2O2-
123.0566	4	C6H7N2O-
141.0663	377	C6H9N2O2-
153.1029	5	C8H13N2O-
154.0615	7	C6H8N3O2-
167.0456	10	C7H7N2O3-
199.0871	2	C12H11N2O-
246.1236	35	C13H16N3O2-
259.1078	14	C14H15N2O3-
271.144	280	C16H19N2O2-
310.1546	14	C18H20N3O2-
338.1864	3	C20H24N3O2-
369.2284	15	C21H29N4O2-
413.2181	999	C22H29N4O4-
