Mass spectrum: Terrein; LC-ESI-ITFT; MS2; CE: 60%; R=7500; [M+H]+
Name: Terrein
Name: 4,5-dihydroxy-3-prop-1-enylcyclopent-2-en-1-one
Formula: C8H10O3
Exact mass: 154.0630
SMILES: CC=CC1=CC(=O)C(C1O)O
InChI: InChI=1S/C8H10O3/c1-2-3-5-4-6(9)8(11)7(5)10/h2-4,7-8,10-11H,1H3
Instrument: LTQ Orbitrap XL Thermo Scientific
Instrument type: LC-ESI-ITFT
Ms type: MS2
Ion mode: POSITIVE
Ionization: ESI
Fragmentation mode: HCD
Collision energy: 60 % (nominal)
Resolution: 7500
Column name: Hypersil GOLD C18 1.9 um 100 x 2.1 mm Thermo Fisher Scientific
Retention time: 4.791 min
Base peak: 155.07
Precursor m/z: 155.0703
Precursor type: [M+H]+
Precursor intensity: 3352742.85791
m/z	relative intensity	assigned
79.0539	203	C6H7+
81.0696	968	C6H9+
91.054	209	C7H7+
93.0695	57	C7H9+
95.0489	117	C6H7O+
109.0646	999	C7H9O+
111.0435	35	C6H7O2+
119.0488	87	C8H7O+
137.0593	950	C8H9O2+
155.0704	72	C8H11O3+
