Mass spectrum: Antipyrine; LC-ESI-ITFT; MS2; CE: 180%; R=15000; [M+H]+
Name: Antipyrine
Name: 1,5-dimethyl-2-phenylpyrazol-3-one
Formula: C11H12N2O
Exact mass: 188.0950
SMILES: CC1=CC(=O)N(N1C)C2=CC=CC=C2
InChI: InChI=1S/C11H12N2O/c1-9-8-11(14)13(12(9)2)10-6-4-3-5-7-10/h3-8H,1-2H3
Instrument: LTQ Orbitrap XL Thermo Scientific
Instrument type: LC-ESI-ITFT
Ms type: MS2
Ion mode: POSITIVE
Ionization: ESI
Fragmentation mode: HCD
Collision energy: 180% (nominal)
Resolution: 15000
Column name: Kinetex Evo C18 2.6 um 50 x 2.1 mm
Retention time: 5.555 min
Base peak: 189.1023
Precursor m/z: 189.1022
Precursor type: [M+H]+
m/z	relative intensity	assigned
58.0649	72	C3H8N+
65.0384	221	C5H5+
68.0492	10	C4H6N+
75.0228	9	C6H3+
77.0385	999	C6H5+
78.0463	100	C6H6+
79.0415	8	C5H5N+
79.0542	56	C6H7+
80.0496	14	C5H6N+
81.0448	21	C4H5N2+
82.0286	22	C4H4NO+
89.0386	87	C7H5+
90.0464	55	C7H6+
91.0542	218	C7H7+
92.0494	30	C6H6N+
93.0572	34	C6H7N+
95.0491	195	C6H7O+
95.0604	20	C5H7N2+
98.0602	8	C5H8NO+
102.0464	64	C8H6+
103.0542	83	C8H7+
104.0495	215	C7H6N+
105.0447	897	C6H5N2+
106.065	49	C7H8N+
115.0542	152	C9H7+
117.0573	61	C8H7N+
118.0652	31	C8H8N+
128.0496	40	C9H6N+
129.0447	25	C8H5N2+
130.0651	92	C9H8N+
131.0603	99	C8H7N2+
132.0681	8	C8H8N2+
145.0759	19	C9H9N2+
