Mass spectrum: Dibucaine; LC-ESI-ITFT; MS2; CE: 50%; R=15000; [M+H]+
Name: Dibucaine
Name: 2-butoxy-N-[2-(diethylamino)ethyl]quinoline-4-carboxamide
Formula: C20H29N3O2
Exact mass: 343.2260
SMILES: CCCCOC1=NC2=CC=CC=C2C(=C1)C(=O)NCCN(CC)CC
InChI: InChI=1S/C20H29N3O2/c1-4-7-14-25-19-15-17(16-10-8-9-11-18(16)22-19)20(24)21-12-13-23(5-2)6-3/h8-11,15H,4-7,12-14H2,1-3H3,(H,21,24)
Instrument: LTQ Orbitrap XL Thermo Scientific
Instrument type: LC-ESI-ITFT
Ms type: MS2
Ion mode: POSITIVE
Ionization: ESI
Fragmentation mode: HCD
Collision energy: 50% (nominal)
Resolution: 15000
Column name: Kinetex Evo C18 2.6 um 50 x 2.1 mm
Retention time: 8.746 min
Base peak: 344.2334
Precursor m/z: 344.2333
Precursor type: [M+H]+
m/z	relative intensity	assigned
57.0697	2	C4H9+
72.0806	2	C4H10N+
74.0963	47	C4H12N+
100.1121	73	C6H14N+
116.0495	15	C8H6N+
132.0449	1	C8H6NO+
144.0444	29	C9H6NO+
146.0601	3	C9H8NO+
158.0601	4	C10H8NO+
171.0554	13	C10H7N2O+
172.0393	78	C10H6NO2+
182.0963	3	C13H12N+
187.0866	4	C11H11N2O+
200.1074	6	C13H14NO+
202.123	5	C13H16NO+
215.0816	591	C12H11N2O2+
227.118	22	C14H15N2O+
228.1019	71	C14H14NO2+
243.1494	4	C15H19N2O+
253.1339	5	C16H17N2O+
271.1441	999	C16H19N2O2+
344.2338	2	C20H30N3O2+
