Mass spectrum: Picolinafen-Fluoroaniline (TENTATIVE); LC-ESI-QFT; MS2; CE: 30%; R=70000; [M+H]+
Name: Picolinafen-Fluoroaniline
Name: 4-fluoroaniline
Formula: C6H6FN
Exact mass: 111.0477
SMILES: C1=CC(=CC=C1N)F
InChI: InChI=1S/C6H6FN/c7-5-1-3-6(8)4-2-5/h1-4H,8H2
Instrument: Q Exactive Plus Orbitrap Thermo Scientific
Instrument type: LC-ESI-QFT
Ms type: MS2
Ion mode: POSITIVE
Ionization: ESI
Fragmentation mode: HCD
Collision energy: 30% (nominal)
Resolution: 70000
Column name: Waters UPLC BEH C18 1.7 um 2.1 mm x 100 mm with pre-column
Retention time: 2.59 min
Precursor m/z: 112.0555
Precursor type: [M+H]+
m/z	relative intensity
59.0294	18
65.0387	261
71.0291	25
74.0151	159
75.0229	999
84.037	36
92.0494	75
95.0291	131
111.0479	138
112.0556	31
