Mass spectrum: Diflufenican-metabolite (TENTATIVE); LC-ESI-QFT; MS2; CE: 30%; R=70000; [M+H]+
Name: Diflufenican-metabolite
Name: 2-[3-(trifluoromethyl)phenoxy]pyridine-3-carboxylic acid
Formula: C13H8F3NO3
Exact mass: 283.0444
SMILES: OC(=O)C1=CC=CN=C1OC1=CC(=CC=C1)C(F)(F)F
InChI: InChI=1S/C13H8F3NO3/c14-13(15,16)8-3-1-4-9(7-8)20-11-10(12(18)19)5-2-6-17-11/h1-7H,(H,18,19)
Instrument: Q Exactive Plus Orbitrap Thermo Scientific
Instrument type: LC-ESI-QFT
Ms type: MS2
Ion mode: POSITIVE
Ionization: ESI
Fragmentation mode: HCD
Collision energy: 30% (nominal)
Resolution: 70000
Column name: Waters UPLC BEH C18 1.7 um 2.1 mm x 100 mm with pre-column
Retention time: 13.2 min
Precursor m/z: 284.0522
Precursor type: [M+H]+
m/z	relative intensity
78.0338	4
96.0443	13
105.0698	5
112.0392	14
122.0236	21
140.0341	37
145.026	17
169.0522	23
172.0371	4
172.0555	12
183.0416	52
190.0463	22
192.0618	6
210.0524	37
214.0481	5
218.0412	51
220.0564	7
238.0473	238
246.036	248
264.0465	12
266.0422	999
284.0526	89
