Mass spectrum: Fumonisin B3; LC-ESI-ITFT; MS2; CE: 60%; R=7500; [M-H]-
Name: Fumonisin B3
Name: 2-Amino-3,10-dihydroxy-14,15-bis(3,4-dicarboxybutyryloxy)-12,16-dimethylicosane
Name: 2-[2-[19-amino-6-(3,4-dicarboxybutanoyloxy)-11,18-dihydroxy-5,9-dimethylicosan-7-yl]oxy-2-oxoethyl]butanedioic acid
Formula: C34H59NO14
Exact mass: 705.39356
SMILES: CCCCC(C)C(C(CC(C)CC(CCCCCCC(C(C)N)O)O)OC(=O)CC(CC(=O)O)C(=O)O)OC(=O)CC(CC(=O)O)C(=O)O
InChI: InChI=1S/C34H59NO14/c1-5-6-11-21(3)32(49-31(43)19-24(34(46)47)17-29(40)41)27(48-30(42)18-23(33(44)45)16-28(38)39)15-20(2)14-25(36)12-9-7-8-10-13-26(37)22(4)35/h20-27,32,36-37H,5-19,35H2,1-4H3,(H,38,39)(H,40,41)(H,44,45)(H,46,47)
Instrument: LTQ Orbitrap XL Thermo Scientific
Instrument type: LC-ESI-ITFT
Ms type: MS2
Ion mode: NEGATIVE
Ionization: ESI
Fragmentation mode: HCD
Collision energy: 60 % (nominal)
Resolution: 7500
Column name: Hypersil GOLD C18 1.9 um 100 x 2.1 mm Thermo Fisher Scientific
Retention time: 22.254 min
Base peak: 704.388
Precursor m/z: 704.3863
Precursor type: [M-H]-
Precursor intensity: 214387883.0313
m/z	relative intensity	assigned
69.0348	54	C4H5O-
71.0141	11	C3H3O2-
85.0296	2	C4H5O2-
113.0248	140	C5H5O3-
115.0042	5	C4H3O4-
131.0353	5	C5H7O4-
157.0147	999	C6H5O5-
175.0253	27	C6H7O6-
477.2168	1	C28H31NO6-
546.3654	10	C28H52NO9-
