Mass spectrum: Sulfamethoxazole; ESI-QTOF; MS2; CE: 40eV; R=15000; [M+H]+
Name: Sulfamethoxazole
Name: 4-Amino-N-(5-methyl-1,2-oxazol-3-yl)benzene-1-sulfonamide
Formula: C10H11N3O3S
Exact mass: 253.0521
SMILES: CC1=CC(NS(=O)(=O)C2=CC=C(N)C=C2)=NO1
InChI: InChI=1S/C10H11N3O3S/c1-7-6-10(12-16-7)13-17(14,15)9-4-2-8(11)3-5-9/h2-6H,11H2,1H3,(H,12,13)
Instrument: TripleTOF 5600+SCIEX
Instrument type: ESI-QTOF
Ms type: MS2
Ion mode: POSITIVE
Ionization: ESI
Fragmentation mode: CID
Collision energy: 40 eV
Resolution: 15000
Precursor m/z: 254.0594
Precursor type: [M+H]+
m/z	relative intensity
53.0413	6
54.0369	1
55.0207	2
56.0525	1
63.0251	1
65.0407	207
66.0481	6
67.0434	1
68.0513	1
71.0622	2
72.0463	7
77.0404	2
78.0351	1
79.0436	1
80.051	85
90.0354	1
91.0559	1
91.9956	1
92.0506	815
92.9795	1
93.0584	135
94.0661	9
97.0408	1
99.0563	98
103.0426	1
104.0504	2
105.0457	3
106.0534	3
107.0611	37
108.0451	999
110.0604	1
116.0501	3
117.0458	1
118.0532	5
119.061	10
120.0683	3
121.0766	6
122.006	1
129.0454	2
130.0527	4
131.0608	12
132.0687	8
133.0637	7
134.0721	1
140.0171	1
142.0526	1
143.0607	11
144.0561	1
145.0641	4
146.0718	62
147.0795	64
148.0875	6
149.017	1
155.0606	1
156.0118	161
158.0717	1
159.0017	2
159.0796	5
160.0875	82
161.0017	6
167.0142	2
169.03	2
170.0702	1
173.0592	4
175.0207	1
176.0283	4
254.0594	0
