Mass spectrum: Citreoviridin; LC-ESI-ITFT; MS2; CE: 60%; R=7500; [M-H]-
Name: Citreoviridin
Name: 6-[8-(3,4-dihydroxy-2,4,5-trimethyloxolan-2-yl)-7-methylocta-1,3,5,7-tetraenyl]-4-methoxy-5-methylpyran-2-one
Formula: C23H30O6
Exact mass: 402.20424
SMILES: CC1C(C(C(O1)(C)C=C(C)C=CC=CC=CC2=C(C(=CC(=O)O2)OC)C)O)(C)O
InChI: InChI=1S/C23H30O6/c1-15(14-22(4)21(25)23(5,26)17(3)29-22)11-9-7-8-10-12-18-16(2)19(27-6)13-20(24)28-18/h7-14,17,21,25-26H,1-6H3
Instrument: LTQ Orbitrap XL Thermo Scientific
Instrument type: LC-ESI-ITFT
Ms type: MS2
Ion mode: NEGATIVE
Ionization: ESI
Fragmentation mode: HCD
Collision energy: 60 % (nominal)
Resolution: 7500
Column name: Hypersil GOLD C18 1.9 um 100 x 2.1 mm Thermo Fisher Scientific
Retention time: 21.773 min
Base peak: 461.2174
Precursor m/z: 401.197
Precursor type: [M-H]-
Precursor intensity: 658677.859375
m/z	relative intensity	assigned
153.055	140	C8H9O3-
243.1027	56	C15H15O3-
285.1119	673	C17H17O4-
300.1353	999	C18H20O4-
357.1711	29	C21H25O5-
