Mass spectrum: Terrein; LC-ESI-ITFT; MS2; CE: 15%; R=7500; [M+H]+
Name: Terrein
Name: 4,5-dihydroxy-3-prop-1-enylcyclopent-2-en-1-one
Formula: C8H10O3
Exact mass: 154.0630
SMILES: CC=CC1=CC(=O)C(C1O)O
InChI: InChI=1S/C8H10O3/c1-2-3-5-4-6(9)8(11)7(5)10/h2-4,7-8,10-11H,1H3
Instrument: LTQ Orbitrap XL Thermo Scientific
Instrument type: LC-ESI-ITFT
Ms type: MS2
Ion mode: POSITIVE
Ionization: ESI
Fragmentation mode: HCD
Collision energy: 15 % (nominal)
Resolution: 7500
Column name: Hypersil GOLD C18 1.9 um 100 x 2.1 mm Thermo Fisher Scientific
Retention time: 4.669 min
Base peak: 155.0702
Precursor m/z: 155.0703
Precursor type: [M+H]+
Precursor intensity: 2735875.845215
m/z	relative intensity	assigned
81.0698	33	C6H9+
91.0542	24	C7H7+
93.0694	14	C7H9+
95.0493	9	C6H7O+
109.0647	127	C7H9O+
119.0492	8	C8H7O+
137.0596	696	C8H9O2+
155.0702	999	C8H11O3+
