Mass spectrum: Mefruside; LC-ESI-ITFT; MS2; CE: 80%; R=15000; [M+H]+
Name: Mefruside
Name: 4-chloro-1-N-methyl-1-N-[(2-methyloxolan-2-yl)methyl]benzene-1,3-disulfonamide
Formula: C13H19ClN2O5S2
Exact mass: 382.0424
SMILES: CC1(CCCO1)CN(C)S(=O)(=O)C2=CC(=C(C=C2)Cl)S(=O)(=O)N
InChI: InChI=1S/C13H19ClN2O5S2/c1-13(6-3-7-21-13)9-16(2)23(19,20)10-4-5-11(14)12(8-10)22(15,17)18/h4-5,8H,3,6-7,9H2,1-2H3,(H2,15,17,18)
Instrument: LTQ Orbitrap XL Thermo Scientific
Instrument type: LC-ESI-ITFT
Ms type: MS2
Ion mode: POSITIVE
Ionization: ESI
Fragmentation mode: HCD
Collision energy: 80% (nominal)
Resolution: 15000
Column name: Kinetex Evo C18 2.6 um 50 x 2.1 mm
Retention time: 9.006 min
Base peak: 428.2364
Precursor m/z: 383.0497
Precursor type: [M+H]+
m/z	relative intensity	assigned
69.0697	58	C5H9+
79.0542	252	C6H7+
81.0698	771	C6H9+
84.0808	999	C5H10N+
86.06	88	C4H8NO+
91.0178	64	C6H3O+
95.0729	18	C6H9N+
96.0809	67	C6H10N+
97.0651	16	C6H9O+
98.9995	45	C5H4Cl+
99.0805	50	C6H11O+
108.984	97	C6H2Cl+
110.0964	32	C7H12N+
114.0107	14	C5H5ClN+
114.9949	22	C5H4ClO+
116.9557	15	C4H2ClS+
128.1071	38	C7H14NO+
140.9739	40	C6H2ClO2+
142.0055	100	C6H5ClNO+
142.9894	225	C6H4ClO2+
217.979	55	ClH11N2O5S2+
