Mass spectrum: Amiloride; LC-ESI-QTOF; MS2; CE: 35 eV; R=3600; [M+H]+
Name: Amiloride
Name: 3,5-Diamino-N-carbamimidoyl-6-chloropyrazine-2-carboxamide
Formula: C6H8ClN7O
Exact mass: 229.0479
SMILES: NC(=N)NC(=O)C1=NC(Cl)=C(N)N=C1N
InChI: InChI=1S/C6H8ClN7O/c7-2-4(9)13-3(8)1(12-2)5(15)14-6(10)11/h(H4,8,9,13)(H4,10,11,14,15)
Instrument: 6535 QTOF Agilent
Instrument type: LC-ESI-QTOF
Ms type: MS2
Ion mode: POSITIVE
Ionization: ESI
Fragmentation mode: CID
Collision energy: 35 eV
Resolution: 3600
Precursor m/z: 230.0552
Precursor type: [M+H]+
m/z	relative intensity
53.0156	162
55.0316	77
56.0367	42
60.0574	742
61.0815	2
61.981	228
63.9968	390
64.0465	18
65.0152	14
66.0235	204
69.0144	7
73.9807	206
74.0051	15
80.0277	13
81.0353	11
82.0451	6
88.9922	248
89.9908	9
91.0063	6
100.9922	207
101.018	20
102.0152	1
108.0446	146
109.0452	12
116.003	999
117.0032	7
117.0236	3
143.012	237
143.0461	23
171.01	103
