Mass spectrum: Nylidrin; LC-ESI-QFT; MS2; CE: CE30; R=17500; [M+H]+
Name: Nylidrin
Name: 4-[1-hydroxy-2-(4-phenylbutan-2-ylamino)propyl]phenol
Formula: C19H25NO2
Exact mass: 299.1885
SMILES: CC(CCC1=CC=CC=C1)NC(C)C(O)C1=CC=C(O)C=C1
InChI: InChI=1S/C19H25NO2/c1-14(8-9-16-6-4-3-5-7-16)20-15(2)19(22)17-10-12-18(21)13-11-17/h3-7,10-15,19-22H,8-9H2,1-2H3
Instrument: Q Exactive Thermo Fisher Scientific
Instrument type: LC-ESI-QFT
Ms type: MS2
Ion mode: POSITIVE
Ionization: ESI
Fragmentation mode: HCD
Collision energy: CE30
Resolution: 17500
Column name: Acquity UPLC BEH C18 1.7 um, 2.1 x 150 mm, Waters
Retention time: 17.136 min
Base peak: 223.0629
Precursor m/z: 300.1958
Precursor type: [M+H]+
m/z	relative intensity	assigned
53.0391	1	C4H5+
55.018	4	C3H3O+
56.0497	31	C3H6N+
57.0338	9	C3H5O+
65.0386	10	C5H5+
75.0435	1	C3H7O2+
77.0392	1	C6H5+
79.0543	11	C6H7+
81.0703	4	C6H9+
91.0543	999	C7H7+
92.0615	2	C7H8+
95.0491	7	C6H7O+
103.0544	7	C8H7+
105.0693	301	C8H9+
107.0492	32	C7H7O+
108.0811	2	C7H10N+
109.0651	20	C7H9O+
115.0548	6	C9H7+
117.058	1	C8H7N+
131.0495	2	C9H7O+
132.0802	5	C9H10N+
133.0649	484	C9H9O+
135.0675	16	C8H9NO+
135.0809	44	C9H11O+
148.1127	1	C10H14N+
150.0919	661	C9H12NO+
151.075	12	C9H11O2+
178.1226	4	C11H16NO+
227.0389	3	C16H5NO+
228.0425	5	C16H6NO+
229.0185	1	C15H3NO2+
282.1866	12	C19H24NO+
