Mass spectrum: Cyclizine; LC-ESI-QFT; MS2; CE: CE30; R=17500; [M+H]+
Name: Cyclizine
Name: 1-benzhydryl-4-methylpiperazine
Formula: C18H22N2
Exact mass: 266.1783
SMILES: CN1CCN(CC1)C(C1=CC=CC=C1)C1=CC=CC=C1
InChI: InChI=1S/C18H22N2/c1-19-12-14-20(15-13-19)18(16-8-4-2-5-9-16)17-10-6-3-7-11-17/h2-11,18H,12-15H2,1H3
Instrument: Q Exactive Thermo Fisher Scientific
Instrument type: LC-ESI-QFT
Ms type: MS2
Ion mode: POSITIVE
Ionization: ESI
Fragmentation mode: HCD
Collision energy: CE30
Resolution: 17500
Column name: Acquity UPLC BEH C18 1.7 um, 2.1 x 150 mm, Waters
Retention time: 18.291 min
Base peak: 223.0628
Precursor m/z: 267.1856
Precursor type: [M+H]+
m/z	relative intensity	assigned
70.0652	1	C4H8N+
99.0917	3	C5H11N2+
128.0618	2	C10H8+
141.0687	3	C11H9+
152.0614	175	C12H8+
165.0698	193	C13H9+
166.0783	70	C13H10+
167.0858	999	C13H11+
179.0599	2	C12H7N2+
