Mass spectrum: Citromycetin; LC-ESI-ITFT; MS2; CE: 40%; R=7500; [M-H]-
Name: Citromycetin
Name: 8,9-dihydroxy-2-methyl-4-oxo-5H-pyrano[3,2-c]chromene-10-carboxylic acid
Formula: C14H10O7
Exact mass: 290.04265
SMILES: CC1=CC(=O)C2=C(O1)C3=C(C=C(C(=C3C(=O)O)O)O)OC2
InChI: InChI=1S/C14H10O7/c1-5-2-7(15)6-4-20-9-3-8(16)12(17)11(14(18)19)10(9)13(6)21-5/h2-3,16-17H,4H2,1H3,(H,18,19)
Instrument: LTQ Orbitrap XL Thermo Scientific
Instrument type: LC-ESI-ITFT
Ms type: MS2
Ion mode: NEGATIVE
Ionization: ESI
Fragmentation mode: HCD
Collision energy: 40 % (nominal)
Resolution: 7500
Column name: Hypersil GOLD C18 1.9 um 100 x 2.1 mm Thermo Fisher Scientific
Retention time: 8.700 min
Base peak: 289.0356
Precursor m/z: 289.0354
Precursor type: [M-H]-
Precursor intensity: 8472847.195313
m/z	relative intensity	assigned
117.0349	13	C8H5O-
159.045	2	C10H7O2-
173.0599	2	C11H9O2-
201.0558	49	C12H9O3-
245.0454	999	C13H9O5-
289.0351	799	C14H9O7-
