Mass spectrum: Sulfamoxole; LC-ESI-QFT; MS2; CE: 20%; R=30000; [M+H]+
Name: Sulfamoxole
Name: 4-Amino-N-(4,5-dimethyl-1,3-oxazol-2-yl)benzene-1-sulfonamide
Formula: C11H13N3O3S
Exact mass: 267.0678
SMILES: CC1=C(C)N=C(NS(=O)(=O)C2=CC=C(N)C=C2)O1
InChI: InChI=1S/C11H13N3O3S/c1-7-8(2)17-11(13-7)14-18(15,16)10-5-3-9(12)4-6-10/h3-6H,12H2,1-2H3,(H,13,14)
Instrument: Orbitrap Fusion Tribrid Thermo Fisher Scientific
Instrument type: LC-ESI-QFT
Ms type: MS2
Ion mode: POSITIVE
Ionization: ESI
Fragmentation mode: HCD
Collision energy: 20% (nominal)
Resolution: 30000
Precursor m/z: 268.0751
Precursor type: [M+H]+
m/z	relative intensity
70.0652	1
92.0496	79
93.0574	1
94.0653	4
108.0445	106
110.0601	1
111.0554	21
112.0632	69
113.071	332
120.0556	1
140.0165	106
156.0113	999
158.0269	16
175.0171	11
268.0751	422
