Mass spectrum: Verrucofortine; LC-ESI-ITFT; MS2; CE: 30%; R=7500; [M+H]+
Name: Verrucofortine
Name: 6-Acetyl-10b-(1,1-dimethyl-2-propenyl)-3-isobutyl-6,10b,11,11a-tetrahydro-2H-pyrazino[2`,1`:5,1]pyrrolo[2,3-b]indole-1,4(3H,5aH)-dione
Name: 16-acetyl-9-(2-methylbut-3-en-2-yl)-4-(2-methylpropyl)-2,5,16-triazatetracyclo[7.7.0.02,7.010,15]hexadeca-10,12,14-triene-3,6-dione
Formula: C24H31N3O3
Exact mass: 409.2365
SMILES: CC(C)CC1C(=O)N2C(CC3(C2N(C4=CC=CC=C43)C(=O)C)C(C)(C)C=C)C(=O)N1
InChI: InChI=1S/C24H31N3O3/c1-7-23(5,6)24-13-19-20(29)25-17(12-14(2)3)21(30)27(19)22(24)26(15(4)28)18-11-9-8-10-16(18)24/h7-11,14,17,19,22H,1,12-13H2,2-6H3,(H,25,29)
Instrument: LTQ Orbitrap XL Thermo Scientific
Instrument type: LC-ESI-ITFT
Ms type: MS2
Ion mode: POSITIVE
Ionization: ESI
Fragmentation mode: HCD
Collision energy: 30 % (nominal)
Resolution: 7500
Column name: Hypersil GOLD C18 1.9 um 100 x 2.1 mm Thermo Fisher Scientific
Retention time: 21.507 min
Base peak: 410.2453
Precursor m/z: 410.2438
Precursor type: [M+H]+
Precursor intensity: 39959793.96484
m/z	relative intensity	assigned
69.0698	8	C5H9+
72.2435	1	H30N3+
130.0652	128	C9H8N+
132.0808	14	C9H10N+
144.0808	3	C10H10N+
169.0978	1	C8H13N2O2+
172.0756	2	C11H10NO+
174.0913	2	C11H12NO+
198.1279	66	C14H16N+
201.0906	1	C11H11N3O+
256.1088	1	C16H16O3+
298.154	2	C17H20N3O2+
300.1707	999	C17H22N3O2+
312.1707	64	C18H22N3O2+
342.1816	445	C19H24N3O3+
354.1818	25	C20H24N3O3+
368.2334	29	C22H30N3O2+
410.2443	189	C24H32N3O3+
