Mass spectrum: Chlorpyriphos-deschloro (TENTATIVE); LC-ESI-QFT; MS2; CE: 42%; R=70000; [M-H]-
Name: Chlorpyriphos-deschloro
Name: 3,5,6-trichloro-1,2-dihydropyridin-2-one
Formula: C5H2Cl3NO
Exact mass: 196.9202
SMILES: C1=C(C(=O)NC(=C1Cl)Cl)Cl
InChI: InChI=1S/C5H2Cl3NO/c6-2-1-3(7)5(10)9-4(2)8/h1H,(H,9,10)
Instrument: Q Exactive Plus Orbitrap Thermo Scientific
Instrument type: LC-ESI-QFT
Ms type: MS2
Ion mode: NEGATIVE
Ionization: ESI
Fragmentation mode: HCD
Collision energy: 42% (nominal) with stepped collision energies 30% and 55%
Resolution: 70000
Column name: Phenomenex Synergi Polar-RP 2.5 um 100 mm x 3 mm with pre-column
Retention time: 8.56
Precursor m/z: 195.9132
Precursor type: [M-H]-
m/z	relative intensity
195.9133	999
