Mass spectrum: Terbuthylazine-desaturated (TENTATIVE); LC-ESI-QFT; MS2; CE: 42%; R=70000; [M+H]+
Name: Terbuthylazine-desaturated
Name: N2-tert-butyl-6-chloro-N4-ethenyl-1,3,5-triazine-2,4-diamine
Formula: C9H14ClN5
Exact mass: 227.093
SMILES: C=CNC1=NC(=NC(=N1)Cl)NC(C)(C)C
InChI: InChI=1S/C9H14ClN5/c1-5-11-7-12-6(10)13-8(14-7)15-9(2,3)4/h5H,1H2,2-4H3,(H2,11,12,13,14,15)
Instrument: Q Exactive Plus Orbitrap Thermo Scientific
Instrument type: LC-ESI-QFT
Ms type: MS2
Ion mode: POSITIVE
Ionization: ESI
Fragmentation mode: HCD
Collision energy: 42% (nominal) with stepped collision energies 30% and 55%
Resolution: 70000
Column name: Phenomenex Synergi Polar-RP 2.5 um 100 mm x 3 mm with pre-column
Retention time: 10.59 min
Precursor m/z: 228.1008
Precursor type: [M+H]+
m/z	relative intensity
57.0702	7
61.9799	2
68.0244	10
69.0449	2
71.0605	9
79.0058	65
81.0699	1
83.0854	0
90.0104	2
94.04	4
95.0364	0
95.0854	1
96.0556	59
104.001	20
105.0216	6
109.1013	0
110.0462	4
130.0169	3
132.0324	61
136.0618	1
138.0774	16
145.028	1
146.0228	46
159.0303	0
172.0385	98
174.0542	999
228.101	18
