Mass spectrum: Cyclizine; ESI-QTOF; MS2; CE: 40eV; R=15000; [M+H]+
Name: Cyclizine
Name: 1-(Diphenylmethyl)-4-methylpiperazine
Formula: C18H22N2
Exact mass: 266.1783
SMILES: CN1CCN(CC1)C(C1=CC=CC=C1)C1=CC=CC=C1
InChI: InChI=1S/C18H22N2/c1-19-12-14-20(15-13-19)18(16-8-4-2-5-9-16)17-10-6-3-7-11-17/h2-11,18H,12-15H2,1H3
Instrument: TripleTOF 5600+SCIEX
Instrument type: ESI-QTOF
Ms type: MS2
Ion mode: POSITIVE
Ionization: ESI
Fragmentation mode: CID
Collision energy: 40 eV
Resolution: 15000
Precursor m/z: 267.1856
Precursor type: [M+H]+
m/z	relative intensity
55.0568	1
57.0723	2
67.0561	1
69.0715	1
71.0871	1
72.0824	1
79.0556	1
81.0711	1
95.0862	1
99.0923	1
115.0545	4
126.0463	1
127.0544	1
128.0621	6
139.0543	1
141.0697	7
151.0541	17
152.0622	291
165.0701	323
166.0775	70
167.086	999
