Mass spectrum: Pendimethalin-OH (TENTATIVE); LC-ESI-QFT; MS2; CE: 42%; R=70000; [M+H]+
Name: Pendimethalin-OH
Formula: C13H19N3O5
Exact mass: 297.1315
SMILES: C(*)C(*)C(CC)NC1=C(C(*)=C(C(=C1[N+](=O)[O-])C(*))C(*))[N+](=O)[O-] *=[OH (n=1) & H (n=4)]
Instrument: Q Exactive Plus Orbitrap Thermo Scientific
Instrument type: LC-ESI-QFT
Ms type: MS2
Ion mode: POSITIVE
Ionization: ESI
Fragmentation mode: HCD
Collision energy: 42% (nominal) with stepped collision energies 30% and 55%
Resolution: 70000
Column name: Phenomenex Synergi Polar-RP 2.5 um 100 mm x 3 mm with pre-column
Retention time: 11.24 min
Precursor m/z: 298.1393
Precursor type: [M+H]+
m/z	relative intensity
58.0653	106
67.0546	44
69.0701	381
78.0338	46
81.07	74
83.0857	32
84.0805	33
87.0806	152
93.0444	29
93.0697	29
95.0854	69
103.0289	38
105.0448	116
109.1014	36
120.0556	94
120.0686	32
121.0397	35
121.0637	43
122.0838	107
123.0795	46
123.1169	86
130.04	65
131.024	115
132.0557	89
135.0804	31
145.0497	41
147.0531	26
147.0795	38
148.0507	285
149.0343	222
149.0584	90
150.0662	88
151.0498	45
151.974	27
157.0849	31
158.035	86
160.0871	32
161.0951	28
162.0661	56
163.0504	44
164.0454	37
166.0734	31
167.0691	52
168.0767	64
171.1254	101
174.1026	30
176.0456	118
177.0293	447
178.0612	96
179.0684	113
180.077	60
191.0692	90
192.0768	101
194.0552	69
196.0709	38
205.0997	34
206.0928	63
208.072	140
212.0666	999
216.0762	30
219.1	125
220.1053	51
234.0877	32
238.0825	43
280.1291	484
281.1323	84
298.1383	90
