Mass spectrum: (R)Semixanthomegnin; LC-ESI-ITFT; MS2; CE: 20%; R=7500; [M+H]+
Name: (R)Semixanthomegnin
Name: (3R)-3-Methyl-7-methoxy-10-hydroxy-3,4-dihydro-1H-naphtho[2,3-c]pyran-1,6,9-trione
Name: (3R)-10-hydroxy-7-methoxy-3-methyl-3,4-dihydrobenzo[g]isochromene-1,6,9-trione
Formula: C15H12O6
Exact mass: 288.0634
SMILES: C[C@@H]1CC2=C(C(=C3C(=C2)C(=O)C(=CC3=O)OC)O)C(=O)O1
InChI: InChI=1S/C15H12O6/c1-6-3-7-4-8-12(14(18)11(7)15(19)21-6)9(16)5-10(20-2)13(8)17/h4-6,18H,3H2,1-2H3/t6-/m1/s1
Instrument: LTQ Orbitrap XL Thermo Scientific
Instrument type: LC-ESI-ITFT
Ms type: MS2
Ion mode: POSITIVE
Ionization: ESI
Fragmentation mode: HCD
Collision energy: 20 % (nominal)
Resolution: 7500
Column name: Hypersil GOLD C18 1.9 um 100 x 2.1 mm Thermo Fisher Scientific
Retention time: 13.340 min
Base peak: 289.0701
Precursor m/z: 289.0707
Precursor type: [M+H]+
Precursor intensity: 4657255.925293
m/z	relative intensity	assigned
215.0701	33	C13H11O3+
225.0539	3	C14H9O3+
243.0648	189	C14H11O4+
271.0596	999	C15H11O5+
289.0702	170	C15H13O6+
