Mass spectrum: Zearalenone; LC-ESI-ITFT; MS2; CE: 40%; R=7500; [M+H]+
Name: Zearalenone
Name: 15,17-Dihydroxy-11-methyl-12-oxabicyclo[12.4.0]octadeca-1(14),2,15,17-tetraene-7,13-dione
Name: 16,18-dihydroxy-4-methyl-3-oxabicyclo[12.4.0]octadeca-1(14),12,15,17-tetraene-2,8-dione
Formula: C18H22O5
Exact mass: 318.1467
SMILES: CC1CCCC(=O)CCCC=CC2=C(C(=CC(=C2)O)O)C(=O)O1
InChI: InChI=1S/C18H22O5/c1-12-6-5-9-14(19)8-4-2-3-7-13-10-15(20)11-16(21)17(13)18(22)23-12/h3,7,10-12,20-21H,2,4-6,8-9H2,1H3
Instrument: LTQ Orbitrap XL Thermo Scientific
Instrument type: LC-ESI-ITFT
Ms type: MS2
Ion mode: POSITIVE
Ionization: ESI
Fragmentation mode: HCD
Collision energy: 40 % (nominal)
Resolution: 7500
Column name: Hypersil GOLD C18 1.9 um 100 x 2.1 mm Thermo Fisher Scientific
Retention time: 21.215 min
Base peak: 319.1552
Precursor m/z: 319.154
Precursor type: [M+H]+
Precursor intensity: 9215349.875732
m/z	relative intensity	assigned
97.0649	5	C6H9O+
125.0964	1	C8H13O+
151.112	2	C10H15O+
165.0189	3	C8H5O4+
185.0603	1	C12H9O2+
187.0757	21	C12H11O2+
189.0554	3	C11H9O3+
203.0702	8	C12H11O3+
205.0488	3	C11H9O4+
205.0863	8	C12H13O3+
215.0712	4	C13H11O3+
217.0862	19	C13H13O3+
221.0817	2	C12H13O4+
229.0862	4	C14H13O3+
231.0657	48	C13H11O4+
233.0818	2	C13H13O4+
241.0848	2	C15H13O3+
249.0762	52	C13H13O5+
255.138	8	C17H19O2+
257.1536	17	C17H21O2+
259.0954	3	C15H15O4+
265.1223	15	C18H17O2+
283.1335	161	C18H19O3+
301.1441	334	C18H21O4+
319.1546	999	C18H23O5+
