Mass spectrum: Fusaric acid; LC-ESI-ITFT; MS2; CE: 40%; R=7500; [M+H]+
Name: Fusaric acid
Name: 5-butylpyridine-2-carboxylic acid
Formula: C10H13NO2
Exact mass: 179.0946
SMILES: CCCCC1=CN=C(C=C1)C(=O)O
InChI: InChI=1S/C10H13NO2/c1-2-3-4-8-5-6-9(10(12)13)11-7-8/h5-7H,2-4H2,1H3,(H,12,13)
Instrument: LTQ Orbitrap XL Thermo Scientific
Instrument type: LC-ESI-ITFT
Ms type: MS2
Ion mode: POSITIVE
Ionization: ESI
Fragmentation mode: HCD
Collision energy: 40 % (nominal)
Resolution: 7500
Column name: Hypersil GOLD C18 1.9 um 100 x 2.1 mm Thermo Fisher Scientific
Retention time: 9.473 min
Base peak: 180.1014
Precursor m/z: 180.1019
Precursor type: [M+H]+
Precursor intensity: 33003527.52734
m/z	relative intensity	assigned
134.0961	11	C9H12N+
152.1067	21	C9H14NO+
162.091	49	C10H12NO+
180.1013	999	C10H14NO2+
