Mass spectrum: Dosulepin; LC-ESI-ITFT; MS2; CE: 100%; R=15000; [M+H]+
Name: Dosulepin
Name: Dothiepin
Name: 3-(6H-benzo[c][1]benzothiepin-11-ylidene)-N,N-dimethylpropan-1-amine
Formula: C19H21NS
Exact mass: 295.1395
SMILES: CN(C)CCC=C1C2=CC=CC=C2CSC3=CC=CC=C31
InChI: InChI=1S/C19H21NS/c1-20(2)13-7-11-17-16-9-4-3-8-15(16)14-21-19-12-6-5-10-18(17)19/h3-6,8-12H,7,13-14H2,1-2H3
Instrument: LTQ Orbitrap XL Thermo Scientific
Instrument type: LC-ESI-ITFT
Ms type: MS2
Ion mode: POSITIVE
Ionization: ESI
Fragmentation mode: HCD
Collision energy: 100% (nominal)
Resolution: 15000
Column name: Kinetex Evo C18 2.6 um 50 x 2.1 mm
Retention time: 8.175 min
Base peak: 296.1468
Precursor m/z: 296.1467
Precursor type: [M+H]+
m/z	relative intensity	assigned
58.0649	157	C3H8N+
70.065	16	C4H8N+
77.0382	8	C6H5+
79.0543	19	C6H7+
84.0808	26	C5H10N+
91.0542	436	C7H7+
103.0541	20	C8H7+
115.0542	381	C9H7+
116.0618	18	C9H8+
117.0698	229	C9H9+
123.0262	60	C7H7S+
128.062	65	C10H8+
129.0698	69	C10H9+
134.0187	8	C8H6S+
135.0264	25	C8H7S+
141.0698	104	C11H9+
142.0774	17	C11H10+
147.0262	138	C9H7S+
152.0624	11	C12H8+
155.0603	15	C10H7N2+
165.0699	337	C13H9+
166.0781	9	C13H10+
171.0261	10	C11H7S+
173.0417	14	C11H9S+
178.0777	766	C14H10+
179.0855	124	C14H11+
189.07	64	C15H9+
190.0777	58	C15H10+
191.0855	301	C15H11+
192.0935	63	C15H12+
197.042	20	C13H9S+
202.0777	955	C16H10+
203.0855	836	C16H11+
204.0938	15	C16H12+
208.0341	90	C14H8S+
209.042	48	C14H9S+
210.0497	193	C14H10S+
215.0855	178	C17H11+
216.0933	91	C17H12+
217.1012	572	C17H13+
218.1089	33	C17H14+
221.0419	999	C15H9S+
222.0495	123	C15H10S+
223.0577	84	C15H11S+
234.0498	141	C16H10S+
235.0575	186	C16H11S+
