Mass spectrum: Dehydrocyclopeptine; LC-ESI-ITFT; MS2; CE: 20%; R=7500; [M+H]+
Name: Dehydrocyclopeptine
Name: 1H-1,4-Benzodiazepine-2,5-dione, 3-benzylidene-3,4-dihydro-4-methyl-
Name: 3-benzylidene-4-methyl-1H-1,4-benzodiazepine-2,5-dione
Formula: C17H14N2O2
Exact mass: 278.1055
SMILES: CN1C(=CC2=CC=CC=C2)C(=O)NC3=CC=CC=C3C1=O
InChI: InChI=1S/C17H14N2O2/c1-19-15(11-12-7-3-2-4-8-12)16(20)18-14-10-6-5-9-13(14)17(19)21/h2-11H,1H3,(H,18,20)
Instrument: LTQ Orbitrap XL Thermo Scientific
Instrument type: LC-ESI-ITFT
Ms type: MS2
Ion mode: POSITIVE
Ionization: ESI
Fragmentation mode: HCD
Collision energy: 20 % (nominal)
Resolution: 7500
Column name: Hypersil GOLD C18 1.9 um 100 x 2.1 mm Thermo Fisher Scientific
Retention time: 17.684 min
Base peak: 279.1134
Precursor m/z: 279.1128
Precursor type: [M+H]+
Precursor intensity: 10369763.57202
m/z	relative intensity	assigned
56.0833	1	CH12O2+
91.0542	9	C7H7+
120.0445	35	C7H6NO+
130.0648	1	C9H8N+
132.0809	43	C9H10N+
148.0393	1	C8H6NO2+
161.071	11	C9H9N2O+
194.0969	2	C14H12N+
222.0915	4	C15H12NO+
261.1024	13	C17H13N2O+
279.113	999	C17H15N2O2+
