Mass spectrum: Dothiepin; LC-ESI-QTOF; MS2; CE: 35 eV; R=3600; [M+H]+
Name: Dothiepin
Name: 3-(Dibenzo[b,e]thiepin-11(6H)-ylidene)-N,N-dimethylpropan-1-amine
Formula: C19H21NS
Exact mass: 295.1395
SMILES: CN(C)CCC=C1C2=CC=CC=C2CSC2=C1C=CC=C2
InChI: InChI=1S/C19H21NS/c1-20(2)13-7-11-17-16-9-4-3-8-15(16)14-21-19-12-6-5-10-18(17)19/h3-6,8-12H,7,13-14H2,1-2H3
Instrument: 6585 QTOF Agilent
Instrument type: LC-ESI-QTOF
Ms type: MS2
Ion mode: POSITIVE
Ionization: ESI
Fragmentation mode: CID
Collision energy: 35 eV
Resolution: 3600
Precursor m/z: 296.1468
Precursor type: [M+H]+
m/z	relative intensity
44.9798	169
58.0651	302
65.0385	50
91.0538	454
115.053	391
117.0688	256
123.0254	106
128.0608	69
129.0688	66
141.0686	94
147.0248	177
165.0685	331
178.0761	608
179.0828	151
189.068	111
190.0749	65
191.0839	251
192.0912	130
201.0691	51
202.0758	999
203.0833	870
208.0318	90
209.0401	88
210.0483	223
215.0838	205
216.0904	83
217.0994	470
218.1064	271
221.0401	932
222.0467	273
223.0556	329
234.0476	131
235.0553	164
236.0617	64
