Mass spectrum: Sulfamethoxazole; LC-ESI-ITFT; MS2; CE: 45%; R=15000; [M+H]+
Name: Sulfamethoxazole
Name: 4-amino-N-(5-methyl-1,2-oxazol-3-yl)benzenesulfonamide
Formula: C10H11N3O3S
Exact mass: 253.0521
SMILES: CC1=CC(=NO1)NS(=O)(=O)C2=CC=C(C=C2)N
InChI: InChI=1S/C10H11N3O3S/c1-7-6-10(12-16-7)13-17(14,15)9-4-2-8(11)3-5-9/h2-6H,11H2,1H3,(H,12,13)
Instrument: LTQ Orbitrap XL Thermo Scientific
Instrument type: LC-ESI-ITFT
Ms type: MS2
Ion mode: POSITIVE
Ionization: ESI
Fragmentation mode: HCD
Collision energy: 45% (nominal)
Resolution: 15000
Column name: Kinetex Evo C18 2.6 um 50 x 2.1 mm
Retention time: 5.604 min
Base peak: 189.1022
Precursor m/z: 254.0594
Precursor type: [M+H]+
m/z	relative intensity	assigned
65.0384	34	C5H5+
80.0496	4	C5H6N+
92.0495	556	C6H6N+
93.0573	215	C6H7N+
94.0651	19	C6H8N+
99.0553	227	C4H7N2O+
107.0604	26	C6H7N2+
108.0444	645	C6H6NO+
110.06	16	C6H8NO+
120.0556	14	C6H6N3+
121.0759	3	C7H9N2+
131.0601	6	C8H7N2+
132.0683	4	C8H8N2+
133.0633	4	C7H7N3+
146.0713	31	C8H8N3+
147.0791	116	C8H9N3+
148.0868	29	C8H10N3+
156.0113	999	C6H6NO2S+
160.0868	158	C9H10N3+
161.0015	12	C4H5N2O3S+
161.0711	1	C9H9N2O+
176.0274	8	C8H6N3S+
188.0818	44	C10H10N3O+
190.0976	12	C10H12N3O+
194.0379	8	C8H8N3OS+
254.0594	43	C10H12N3O3S+
