Mass spectrum: Antipyrine; LC-ESI-ITFT; MS2; CE: 95%; R=15000; [M+H]+
Name: Antipyrine
Name: 1,5-dimethyl-2-phenylpyrazol-3-one
Formula: C11H12N2O
Exact mass: 188.0950
SMILES: CC1=CC(=O)N(N1C)C2=CC=CC=C2
InChI: InChI=1S/C11H12N2O/c1-9-8-11(14)13(12(9)2)10-6-4-3-5-7-10/h3-8H,1-2H3
Instrument: LTQ Orbitrap XL Thermo Scientific
Instrument type: LC-ESI-ITFT
Ms type: MS2
Ion mode: POSITIVE
Ionization: ESI
Fragmentation mode: HCD
Collision energy: 95% (nominal)
Resolution: 15000
Column name: Kinetex Evo C18 2.6 um 50 x 2.1 mm
Retention time: 5.661 min
Base peak: 189.1022
Precursor m/z: 189.1022
Precursor type: [M+H]+
m/z	relative intensity	assigned
55.0177	31	C3H3O+
56.0492	999	C3H6N+
58.0649	439	C3H8N+
65.0384	180	C5H5+
68.0493	32	C4H6N+
69.0571	36	C4H7N+
70.065	11	C4H8N+
77.0385	443	C6H5+
79.0542	82	C6H7+
81.0447	83	C4H5N2+
91.0542	160	C7H7+
92.0495	50	C6H6N+
93.0333	13	C6H5O+
93.0575	18	C6H7N+
94.0651	30	C6H8N+
95.049	98	C6H7O+
95.0603	92	C5H7N2+
96.0444	25	C5H6NO+
96.0681	161	C5H8N2+
98.06	158	C5H8NO+
103.0542	128	C8H7+
104.0494	669	C7H6N+
105.0334	33	C7H5O+
105.0447	244	C6H5N2+
105.0572	53	C7H7N+
105.0699	35	C8H9+
106.065	745	C7H8N+
107.0606	13	C6H7N2+
115.0542	113	C9H7+
117.0573	119	C8H7N+
117.0698	217	C9H9+
118.0651	246	C8H8N+
120.0441	11	C7H6NO+
120.0808	154	C8H10N+
128.0495	17	C9H6N+
129.0572	83	C9H7N+
130.0651	340	C9H8N+
131.0603	117	C8H7N2+
131.0729	176	C9H9N+
132.0441	9	C8H6NO+
132.0682	105	C8H8N2+
132.0807	73	C9H10N+
133.0521	54	C8H7NO+
133.0761	12	C8H9N2+
134.0964	28	C9H12N+
143.0726	24	C10H9N+
144.0808	131	C10H10N+
145.065	37	C10H9O+
145.076	141	C9H9N2+
146.0837	137	C9H10N2+
146.0963	15	C10H12N+
147.0916	316	C9H11N2+
149.0707	20	C8H9N2O+
155.0603	11	C10H7N2+
157.0523	26	C10H7NO+
159.0548	21	C9H7N2O+
159.0918	14	C10H11N2+
161.1072	28	C10H13N2+
172.0756	19	C11H10NO+
173.0709	37	C10H9N2O+
174.0788	89	C10H10N2O+
189.1021	129	C11H13N2O+
