Mass spectrum: Atrazine-deschloro-OH (PROBABLE); LC-ESI-QFT; MS2; CE: 30%; R=70000; [M+H]+
Name: Atrazine-deschloro-OH
Name: 4-(ethylamino)-6-[(propan-2-yl)amino]-1,3,5-triazin-2-ol
Formula: C8H15N5O
Exact mass: 197.1268
SMILES: CCNC1=NC(O)=NC(NC(C)C)=N1
InChI: InChI=1S/C8H15N5O/c1-4-9-6-11-7(10-5(2)3)13-8(14)12-6/h5H,4H2,1-3H3,(H3,9,10,11,12,13,14)
Instrument: Q Exactive Plus Orbitrap Thermo Scientific
Instrument type: LC-ESI-QFT
Ms type: MS2
Ion mode: POSITIVE
Ionization: ESI
Fragmentation mode: HCD
Collision energy: 30% (nominal)
Resolution: 70000
Column name: Waters UPLC BEH C18 1.7 um 2.1 mm x 100 mm with pre-column
Retention time: 9.9 min
Precursor m/z: 198.1346
Precursor type: [M+H]+
m/z	relative intensity
55.0546	299
58.0654	638
67.0544	308
68.0496	473
77.0384	250
79.0542	353
81.0699	390
86.0349	303
91.0542	999
92.0576	384
93.0699	667
95.0491	614
95.0605	557
97.0129	220
