Mass spectrum: Etilefrine; LC-ESI-ITFT; MS2; CE: 40%; R=15000; [M+H]+
Name: Etilefrine
Name: 3-[2-(ethylamino)-1-hydroxyethyl]phenol
Formula: C10H15NO2
Exact mass: 181.1103
SMILES: CCNCC(C1=CC(=CC=C1)O)O
InChI: InChI=1S/C10H15NO2/c1-2-11-7-10(13)8-4-3-5-9(12)6-8/h3-6,10-13H,2,7H2,1H3
Instrument: LTQ Orbitrap XL Thermo Scientific
Instrument type: LC-ESI-ITFT
Ms type: MS2
Ion mode: POSITIVE
Ionization: ESI
Fragmentation mode: HCD
Collision energy: 40% (nominal)
Resolution: 15000
Column name: Kinetex Evo C18 2.6 um 50 x 2.1 mm
Retention time: 0.505 min
Base peak: 182.1177
Precursor m/z: 182.1176
Precursor type: [M+H]+
m/z	relative intensity	assigned
56.0492	1	C3H6N+
91.0542	2	C7H7+
109.0648	11	C7H9O+
119.0492	5	C8H7O+
121.0648	12	C8H9O+
135.0679	15	C8H9NO+
136.0757	14	C8H10NO+
164.107	999	C10H14NO+
182.1176	19	C10H16NO2+
