Mass spectrum: Metoclopramide; ESI-QTOF; MS2; CE: 40eV; R=15000; [M+H]+
Name: Metoclopramide
Name: 4-Amino-5-chloro-N-[2-(diethylamino)ethyl]-2-methoxybenzamide
Formula: C14H22ClN3O2
Exact mass: 299.1401
SMILES: CCN(CC)CCNC(=O)C1=CC(Cl)=C(N)C=C1OC
InChI: InChI=1S/C14H22ClN3O2/c1-4-18(5-2)7-6-17-14(19)10-8-11(15)12(16)9-13(10)20-3/h8-9H,4-7,16H2,1-3H3,(H,17,19)
Instrument: TripleTOF 5600+SCIEX
Instrument type: ESI-QTOF
Ms type: MS2
Ion mode: POSITIVE
Ionization: ESI
Fragmentation mode: CID
Collision energy: 40 eV
Resolution: 15000
Precursor m/z: 300.1474
Precursor type: [M+H]+
m/z	relative intensity
78.0346	1
90.0342	2
92.0498	1
93.0575	2
98.9996	1
100.1121	3
113.0023	7
120.0438	3
126.0099	10
128.0254	5
129.0094	2
140.0128	1
140.9968	27
147.0544	2
148.0621	10
156.0201	24
168.0075	26
168.9914	16
183.0313	155
184.0154	999
212.0341	157
227.0577	682
