Mass spectrum: Dibucaine; LC-ESI-ITFT; MS2; CE: 150%; R=15000; [M+H]+
Name: Dibucaine
Name: 2-butoxy-N-[2-(diethylamino)ethyl]quinoline-4-carboxamide
Formula: C20H29N3O2
Exact mass: 343.2260
SMILES: CCCCOC1=NC2=CC=CC=C2C(=C1)C(=O)NCCN(CC)CC
InChI: InChI=1S/C20H29N3O2/c1-4-7-14-25-19-15-17(16-10-8-9-11-18(16)22-19)20(24)21-12-13-23(5-2)6-3/h8-11,15H,4-7,12-14H2,1-3H3,(H,21,24)
Instrument: LTQ Orbitrap XL Thermo Scientific
Instrument type: LC-ESI-ITFT
Ms type: MS2
Ion mode: POSITIVE
Ionization: ESI
Fragmentation mode: HCD
Collision energy: 150% (nominal)
Resolution: 15000
Column name: Kinetex Evo C18 2.6 um 50 x 2.1 mm
Retention time: 8.751 min
Base peak: 344.2333
Precursor m/z: 344.2333
Precursor type: [M+H]+
m/z	relative intensity	assigned
63.0227	26	C5H3+
72.0808	6	C4H10N+
89.0385	782	C7H5+
90.0337	24	C6H4N+
91.0541	8	C7H7+
115.0419	16	C8H5N+
116.0494	999	C8H6N+
117.0573	9	C8H7N+
128.0493	7	C9H6N+
129.0447	10	C8H5N2+
134.06	29	C8H8NO+
144.0444	11	C9H6NO+
154.0397	15	C9H4N3+
