Mass spectrum: Dixyrazine ; LC-ESI-ITFT; MS2; CE: 80%; R=7500; [M+H]+
Name: Dixyrazine
Name: 2-(2-{4-[2-Methyl-3-(10H-phenothiazin-10-yl)propyl]piperazin-1-yl}ethoxy)ethan-1-ol
Formula: C24H33N3O2S
Exact mass: 427.2293
SMILES: CC(CN1CCN(CCOCCO)CC1)CN1C2=CC=CC=C2SC2=CC=CC=C12
InChI: InChI=1S/C24H33N3O2S/c1-20(18-26-12-10-25(11-13-26)14-16-29-17-15-28)19-27-21-6-2-4-8-23(21)30-24-9-5-3-7-22(24)27/h2-9,20,28H,10-19H2,1H3
Instrument: LTQ Orbitrap XL Thermo Fisher Scientific
Instrument type: LC-ESI-ITFT
Ms type: MS2
Ion mode: POSITIVE
Ionization: ESI
Fragmentation mode: HCD
Collision energy: 80% (nominal)
Resolution: 7500
Column name: Hypersil GOLD C18 1.9 um 100 x 2.1 mm Thermo Fisher Scientific
Precursor m/z: 428.2367
Precursor type: [M+H]+
m/z	relative intensity
56.0493	13
57.0516	4
57.0556	6
57.0636	8
57.0671	6
57.0794	8
57.0869	9
57.0968	8
57.1077	6
57.1203	6
57.1324	4
58.065	36
70.065	145
82.065	58
83.0602	15
84.0807	41
86.0598	9
87.0439	88
97.076	339
98.0838	999
99.0916	49
100.0756	20
101.1073	352
110.084	30
111.092	5
112.0994	29
113.1075	19
118.0861	4
124.0209	4
125.1072	70
130.0861	13
140.1309	6
144.1019	75
155.1546	6
172.1206	86
178.0652	14
179.0731	124
180.0809	721
187.144	67
188.9159	11
198.0373	19
199.0452	45
206.0962	16
212.053	327
220.1122	16
221.1196	9
229.1916	17
238.0693	7
273.8042	14
