Mass spectrum: Tetracycline; LC-ESI-ITFT; MS2; CE: 80%; R=15000; [M+H]+
Name: Tetracycline
Name: 2-[amino(hydroxy)methylidene]-4-(dimethylamino)-6,10,11,12a-tetrahydroxy-6-methyl-4,4a,5,5a-tetrahydrotetracene-1,3,12-trione
Formula: C22H24N2O8
Exact mass: 444.1533
SMILES: [H][C@@]12C[C@@]3([H])C(=C(O)[C@]1(O)C(=O)C(C(N)=O)=C(O)[C@H]2N(C)C)C(=O)C1=C(C=CC=C1O)[C@@]3(C)O
InChI: InChI=1S/C22H24N2O8/c1-21(31)8-5-4-6-11(25)12(8)16(26)13-9(21)7-10-15(24(2)3)17(27)14(20(23)30)19(29)22(10,32)18(13)28/h4-6,9-10,15,25,27-28,31-32H,7H2,1-3H3,(H2,23,30)/t9-,10-,15-,21+,22-/m0/s1
Instrument: LTQ Orbitrap XL Thermo Scientific
Instrument type: LC-ESI-ITFT
Ms type: MS2
Ion mode: POSITIVE
Ionization: ESI
Fragmentation mode: HCD
Collision energy: 80% (nominal)
Resolution: 15000
Column name: Kinetex Evo C18 2.6 um 50 x 2.1 mm
Retention time: 2.752 min
Base peak: 300.1474
Precursor m/z: 445.1605
Precursor type: [M+H]+
m/z	relative intensity	assigned
68.0497	13	C4H6N+
70.0649	119	C4H8N+
84.0443	15	C4H6NO+
86.06	81	C4H8NO+
98.06	999	C5H8NO+
126.0551	34	C6H8NO2+
131.049	26	C9H7O+
139.0262	20	C6H5NO3+
154.0503	30	C7H8NO3+
165.0702	23	C13H9+
167.0855	45	C13H11+
168.057	24	C12H8O+
169.0648	33	C12H9O+
177.0699	23	C14H9+
179.0858	29	C14H11+
180.0573	18	C13H8O+
181.0643	22	C13H9O+
185.0955	23	C13H13O+
187.0752	56	C12H11O2+
195.0804	225	C14H11O+
196.0518	73	C13H8O2+
197.0597	30	C13H9O2+
198.0674	69	C13H10O2+
201.0544	18	C12H9O3+
205.0642	17	C15H9O+
207.0805	39	C15H11O+
208.0522	16	C14H8O2+
211.0755	111	C14H11O2+
213.0907	85	C14H13O2+
219.0806	20	C16H11O+
220.0519	19	C15H8O2+
223.0754	211	C15H11O2+
224.0467	130	C14H8O3+
225.0904	16	C15H13O2+
226.0624	990	C14H10O3+
235.0757	83	C16H11O2+
236.0468	55	C15H8O3+
238.0626	75	C15H10O3+
239.0704	86	C15H11O3+
241.0858	287	C15H13O3+
242.0575	169	C14H10O4+
243.0645	18	C14H11O4+
250.0624	43	C16H10O3+
251.0706	88	C16H11O3+
252.0417	532	C15H8O4+
254.0572	226	C15H10O4+
263.0702	59	C17H11O3+
267.0651	155	C16H11O4+
269.081	99	C16H13O4+
276.0422	36	C17H8O4+
278.0576	171	C17H10O4+
291.066	19	C18H11O4+
306.0536	25	C18H10O5+
334.048	35	C19H10O6+
