Mass spectrum: Aspterric acid; LC-ESI-ITFT; MS2; CE: 40%; R=7500; [M+H]+
Name: Aspterric acid
Name: (1S,5S,8R,9R)-8-hydroxy-4-propan-2-ylidene-10-oxatricyclo[7.2.1.01,5]dodecane-8-carboxylic acid
Formula: C15H22O4
Exact mass: 266.1518
SMILES: OC([C@]1(O)[C@@H](C2)OC[C@]2(CC/C3=C(C)/C)[C@@]3([H])CC1)=O
InChI: InChI=1S/C15H22O4/c1-9(2)10-3-5-14-7-12(19-8-14)15(18,13(16)17)6-4-11(10)14/h11-12,18H,3-8H2,1-2H3,(H,16,17)/t11-,12+,14+,15+/m0/s1
Instrument: LTQ Orbitrap XL Thermo Scientific
Instrument type: LC-ESI-ITFT
Ms type: MS2
Ion mode: POSITIVE
Ionization: ESI
Fragmentation mode: HCD
Collision energy: 40 % (nominal)
Resolution: 7500
Column name: Hypersil GOLD C18 1.9 um 100 x 2.1 mm Thermo Fisher Scientific
Retention time: 20.159 min
Base peak: 267.1597
Precursor m/z: 267.1591
Precursor type: [M+H]+
Precursor intensity: 13700680.271
m/z	relative intensity	assigned
105.0699	6	C8H9+
117.07	15	C9H9+
119.0858	11	C9H11+
121.1017	8	C9H13+
131.0859	11	C10H11+
133.1013	10	C10H13+
143.0857	11	C11H11+
145.1016	9	C11H13+
147.0807	5	C10H11O+
147.117	11	C11H15+
157.101	6	C12H13+
159.1168	13	C12H15+
161.1325	7	C12H17+
173.1327	8	C13H17+
175.1483	104	C13H19+
185.1326	49	C14H17+
193.1588	6	C13H21O+
203.1432	999	C14H19O+
213.1273	7	C15H17O+
221.1538	142	C14H21O2+
231.1382	56	C15H19O2+
249.1488	43	C15H21O3+
