Mass spectrum: Dosulepin; LC-ESI-ITFT; MS2; CE: 100%; R=15000; [M+H]+
Name: Dosulepin
Name: Dothiepin
Name: 3-(6H-benzo[c][1]benzothiepin-11-ylidene)-N,N-dimethylpropan-1-amine
Formula: C19H21NS
Exact mass: 295.1395
SMILES: CN(C)CCC=C1C2=CC=CC=C2CSC3=CC=CC=C31
InChI: InChI=1S/C19H21NS/c1-20(2)13-7-11-17-16-9-4-3-8-15(16)14-21-19-12-6-5-10-18(17)19/h3-6,8-12H,7,13-14H2,1-2H3
Instrument: LTQ Orbitrap XL Thermo Scientific
Instrument type: LC-ESI-ITFT
Ms type: MS2
Ion mode: POSITIVE
Ionization: ESI
Fragmentation mode: CID
Collision energy: 100% (nominal)
Resolution: 15000
Column name: Kinetex Evo C18 2.6 um 50 x 2.1 mm
Retention time: 8.177 min
Base peak: 296.1469
Precursor m/z: 296.1467
Precursor type: [M+H]+
m/z	relative intensity	assigned
91.0542	17	C7H7+
117.07	13	C9H9+
123.0264	9	C7H7S+
141.07	7	C11H9+
142.0778	3	C11H10+
147.0263	205	C9H7S+
173.0419	12	C11H9S+
191.0856	27	C15H11+
192.0933	5	C15H12+
209.042	66	C14H9S+
210.0493	2	C14H10S+
211.058	3	C14H11S+
217.1013	34	C17H13+
218.1091	110	C17H14+
221.0419	2	C15H9S+
222.0499	37	C15H10S+
223.0578	266	C15H11S+
225.0732	999	C15H13S+
236.0655	25	C16H12S+
249.0741	2	C17H13S+
251.089	482	C17H15S+
253.1045	48	C17H17S+
265.1044	4	C18H17S+
