Mass spectrum: Metoclopramide; LC-ESI-ITFT; MS2; CE: 180%; R=15000; [M+H]+
Name: Metoclopramide
Name: 4-amino-5-chloro-N-[2-(diethylamino)ethyl]-2-methoxybenzamide
Formula: C14H22ClN3O2
Exact mass: 299.1401
SMILES: CCN(CC)CCNC(=O)C1=CC(=C(C=C1OC)N)Cl
InChI: InChI=1S/C14H22ClN3O2/c1-4-18(5-2)7-6-17-14(19)10-8-11(15)12(16)9-13(10)20-3/h8-9H,4-7,16H2,1-3H3,(H,17,19)
Instrument: LTQ Orbitrap XL Thermo Scientific
Instrument type: LC-ESI-ITFT
Ms type: MS2
Ion mode: POSITIVE
Ionization: ESI
Fragmentation mode: HCD
Collision energy: 180% (nominal)
Resolution: 15000
Column name: Kinetex Evo C18 2.6 um 50 x 2.1 mm
Retention time: 2.819 min
Base peak: 300.1474
Precursor m/z: 300.1473
Precursor type: [M+H]+
m/z	relative intensity	assigned
63.0227	69	C5H3+
64.018	14	C4H2N+
65.0385	12	C5H5+
72.9838	41	C3H2Cl+
78.0338	999	C5H4N+
90.0338	36	C6H4N+
91.0416	15	C6H5N+
92.0494	9	C6H6N+
93.0572	9	C6H7N+
98.9997	29	C5H4Cl+
105.0446	31	C6H5N2+
113.0027	271	C5H4ClN+
139.0056	11	C6H4ClN2+
140.9976	32	C6H4ClNO+
