Mass spectrum: Phentermine; LC-ESI-QTOF; MS2; CE: 20 eV; R=3600; [M+H]+
Name: Phentermine
Name: 2-Methyl-1-phenylpropan-2-amine
Formula: C10H15N
Exact mass: 149.1204
SMILES: CC(C)(N)CC1=CC=CC=C1
InChI: InChI=1S/C10H15N/c1-10(2,11)8-9-6-4-3-5-7-9/h3-7H,8,11H2,1-2H3
Instrument: 6653 QTOF Agilent
Instrument type: LC-ESI-QTOF
Ms type: MS2
Ion mode: POSITIVE
Ionization: ESI
Fragmentation mode: CID
Collision energy: 20 eV
Resolution: 3600
Precursor m/z: 150.1278
Precursor type: [M+H]+
m/z	relative intensity
65.0373	393
77.0375	51
91.0525	999
