Mass spectrum: Etofylline; ESI-QTOF; MS2; CE: 45eV; R=15000; [M+H]+
Name: Etofylline
Name: 7-(2-Hydroxyethyl)-1,3-dimethyl-3,7-dihydro-1H-purine-2,6-dione
Formula: C9H12N4O3
Exact mass: 224.0909
SMILES: CN1C2=C(N(CCO)C=N2)C(=O)N(C)C1=O
InChI: InChI=1S/C9H12N4O3/c1-11-7-6(8(15)12(2)9(11)16)13(3-4-14)5-10-7/h5,14H,3-4H2,1-2H3
Instrument: TripleTOF 5600+SCIEX
Instrument type: ESI-QTOF
Ms type: MS2
Ion mode: POSITIVE
Ionization: ESI
Fragmentation mode: CID
Collision energy: 45 eV
Resolution: 15000
Precursor m/z: 225.0983
Precursor type: [M+H]+
m/z	relative intensity
54.0364	1
55.0315	1
67.0308	2
68.0387	2
69.0466	106
72.046	6
73.0482	1
79.0303	1
80.0144	1
81.0459	3
83.0251	8
93.0455	3
94.0408	7
95.0247	4
96.0563	191
97.0402	8
101.009	1
106.0403	1
107.0607	1
108.0561	4
109.0274	19
110.0716	3
113.0712	2
120.0558	5
121.0509	2
122.0351	7
123.0554	3
124.0508	999
134.0712	2
136.0867	1
137.0822	5
140.0818	1
147.0665	1
148.0741	1
149.0456	4
150.0659	1
153.053	1
163.0613	1
166.0484	1
168.0767	1
181.0718	164
225.0983	0
