Mass spectrum: Territrem B; LC-ESI-ITFT; MS2; CE: 20%; R=7500; [M+H]+
Name: Territrem B
Name: 1,7-dihydroxy-2,6,6,10-tetramethyl-14-(3,4,5-trimethoxyphenyl)-11,15-dioxatetracyclo[8.8.0.02,7.012,17]octadeca-4,12(17),13-triene-3,16-dione
Formula: C29H34O9
Exact mass: 526.2203
SMILES: CC1(C=CC(=O)C2(C1(CCC3(C2(CC4=C(O3)C=C(OC4=O)C5=CC(=C(C(=C5)OC)OC)OC)O)C)O)C)C
InChI: InChI=1S/C29H34O9/c1-25(2)9-8-22(30)27(4)28(25,32)11-10-26(3)29(27,33)15-17-19(38-26)14-18(37-24(17)31)16-12-20(34-5)23(36-7)21(13-16)35-6/h8-9,12-14,32-33H,10-11,15H2,1-7H3
Instrument: LTQ Orbitrap XL Thermo Scientific
Instrument type: LC-ESI-ITFT
Ms type: MS2
Ion mode: POSITIVE
Ionization: ESI
Fragmentation mode: HCD
Collision energy: 20 % (nominal)
Resolution: 7500
Column name: Hypersil GOLD C18 1.9 um 100 x 2.1 mm Thermo Fisher Scientific
Retention time: 21.132 min
Base peak: 527.228
Precursor m/z: 527.2276
Precursor type: [M+H]+
Precursor intensity: 6556556.929199
m/z	relative intensity	assigned
195.065	23	C10H11O4+
291.0864	33	C15H15O6+
491.2062	106	C29H31O7+
509.2168	161	C29H33O8+
527.2272	999	C29H35O9+
