Mass spectrum: Dibucaine; LC-ESI-ITFT; MS2; CE: 140%; R=15000; [M+H]+
Name: Dibucaine
Name: 2-butoxy-N-[2-(diethylamino)ethyl]quinoline-4-carboxamide
Formula: C20H29N3O2
Exact mass: 343.2260
SMILES: CCCCOC1=NC2=CC=CC=C2C(=C1)C(=O)NCCN(CC)CC
InChI: InChI=1S/C20H29N3O2/c1-4-7-14-25-19-15-17(16-10-8-9-11-18(16)22-19)20(24)21-12-13-23(5-2)6-3/h8-11,15H,4-7,12-14H2,1-3H3,(H,21,24)
Instrument: LTQ Orbitrap XL Thermo Scientific
Instrument type: LC-ESI-ITFT
Ms type: MS2
Ion mode: POSITIVE
Ionization: ESI
Fragmentation mode: HCD
Collision energy: 140% (nominal)
Resolution: 15000
Column name: Kinetex Evo C18 2.6 um 50 x 2.1 mm
Retention time: 8.751 min
Base peak: 344.2333
Precursor m/z: 344.2333
Precursor type: [M+H]+
m/z	relative intensity	assigned
57.0696	6	C4H9+
63.0227	6	C5H3+
72.0807	4	C4H10N+
89.0385	451	C7H5+
90.0338	10	C6H4N+
115.0416	10	C8H5N+
115.0538	6	C9H7+
116.0494	999	C8H6N+
117.0571	9	C8H7N+
128.0494	9	C9H6N+
129.0446	5	C8H5N2+
130.0653	8	C9H8N+
134.06	29	C8H8NO+
143.0367	6	C9H5NO+
144.0443	17	C9H6NO+
145.0521	8	C9H7NO+
153.0445	16	C10H5N2+
154.0398	8	C9H4N3+
171.055	4	C10H7N2O+
