Mass spectrum: Etilefrine; LC-ESI-ITFT; MS2; CE: 160%; R=15000; [M+H]+
Name: Etilefrine
Name: 3-[2-(ethylamino)-1-hydroxyethyl]phenol
Formula: C10H15NO2
Exact mass: 181.1103
SMILES: CCNCC(C1=CC(=CC=C1)O)O
InChI: InChI=1S/C10H15NO2/c1-2-11-7-10(13)8-4-3-5-9(12)6-8/h3-6,10-13H,2,7H2,1H3
Instrument: LTQ Orbitrap XL Thermo Scientific
Instrument type: LC-ESI-ITFT
Ms type: MS2
Ion mode: POSITIVE
Ionization: ESI
Fragmentation mode: HCD
Collision energy: 160% (nominal)
Resolution: 15000
Column name: Kinetex Evo C18 2.6 um 50 x 2.1 mm
Retention time: 0.473 min
Base peak: 182.1177
Precursor m/z: 182.1176
Precursor type: [M+H]+
m/z	relative intensity	assigned
63.0227	19	C5H3+
65.0384	707	C5H5+
66.0462	32	C5H6+
67.0414	6	C4H5N+
75.0228	10	C6H3+
77.0385	182	C6H5+
78.0465	6	C6H6+
79.0542	128	C6H7+
80.0495	32	C5H6N+
81.0332	5	C5H5O+
81.0699	19	C6H9+
89.0386	39	C7H5+
90.0464	54	C7H6+
91.0542	999	C7H7+
92.0495	43	C6H6N+
93.0335	9	C6H5O+
93.0572	22	C6H7N+
94.0413	131	C6H6O+
95.0491	42	C6H7O+
103.0542	14	C8H7+
105.0447	157	C6H5N2+
106.0651	88	C7H8N+
107.0491	321	C7H7O+
108.0569	10	C7H8O+
116.0494	21	C8H6N+
117.0573	79	C8H7N+
118.0411	6	C8H6O+
118.0651	55	C8H8N+
120.0444	41	C7H6NO+
121.0398	9	C6H5N2O+
133.0522	19	C8H7NO+
134.0601	111	C8H8NO+
144.0557	15	C8H6N3+
