Mass spectrum: Amiloride; LC-ESI-QTOF; MS2; CE: 30 eV; R=3600; [M+H]+
Name: Amiloride
Name: 3,5-Diamino-N-carbamimidoyl-6-chloropyrazine-2-carboxamide
Formula: C6H8ClN7O
Exact mass: 229.0479
SMILES: NC(=N)NC(=O)C1=NC(Cl)=C(N)N=C1N
InChI: InChI=1S/C6H8ClN7O/c7-2-4(9)13-3(8)1(12-2)5(15)14-6(10)11/h(H4,8,9,13)(H4,10,11,14,15)
Instrument: 6534 QTOF Agilent
Instrument type: LC-ESI-QTOF
Ms type: MS2
Ion mode: POSITIVE
Ionization: ESI
Fragmentation mode: CID
Collision energy: 30 eV
Resolution: 3600
Precursor m/z: 230.0552
Precursor type: [M+H]+
m/z	relative intensity
53.0151	86
55.028	103
60.0555	410
61.9798	81
63.9964	220
66.0283	72
73.9773	102
88.9918	160
100.9945	136
116.0006	999
143.0127	176
171.0113	72
