Mass spectrum: Dosulepin; LC-ESI-ITFT; MS2; CE: 160%; R=15000; [M+H]+
Name: Dosulepin
Name: Dothiepin
Name: 3-(6H-benzo[c][1]benzothiepin-11-ylidene)-N,N-dimethylpropan-1-amine
Formula: C19H21NS
Exact mass: 295.1395
SMILES: CN(C)CCC=C1C2=CC=CC=C2CSC3=CC=CC=C31
InChI: InChI=1S/C19H21NS/c1-20(2)13-7-11-17-16-9-4-3-8-15(16)14-21-19-12-6-5-10-18(17)19/h3-6,8-12H,7,13-14H2,1-2H3
Instrument: LTQ Orbitrap XL Thermo Scientific
Instrument type: LC-ESI-ITFT
Ms type: MS2
Ion mode: POSITIVE
Ionization: ESI
Fragmentation mode: HCD
Collision energy: 160% (nominal)
Resolution: 15000
Column name: Kinetex Evo C18 2.6 um 50 x 2.1 mm
Retention time: 8.166 min
Base peak: 296.1468
Precursor m/z: 296.1467
Precursor type: [M+H]+
m/z	relative intensity	assigned
58.0649	42	C3H8N+
65.0384	83	C5H5+
77.0385	32	C6H5+
89.0387	33	C7H5+
91.0542	236	C7H7+
102.0463	18	C8H6+
103.0543	13	C8H7+
105.0447	40	C6H5N2+
115.0542	282	C9H7+
127.0538	9	C10H7+
128.062	84	C10H8+
134.0184	13	C8H6S+
139.0543	56	C11H7+
141.0699	26	C11H9+
151.0545	45	C12H7+
152.0621	168	C12H8+
155.0598	23	C10H7N2+
163.0544	44	C13H7+
164.0621	59	C13H8+
165.0698	223	C13H9+
169.0647	16	C12H9O+
176.0621	227	C14H8+
177.0699	91	C14H9+
178.0777	211	C14H10+
179.06	22	C12H7N2+
187.0537	13	C15H7+
188.0624	19	C15H8+
189.0699	299	C15H9+
191.0858	23	C15H11+
200.0621	150	C16H8+
201.0699	183	C16H9+
202.0777	999	C16H10+
208.0346	53	C14H8S+
213.0701	49	C17H9+
214.0779	13	C17H10+
215.0855	362	C17H11+
219.0261	43	C15H7S+
219.0806	28	C16H11O+
220.0342	67	C15H8S+
221.0419	384	C15H9S+
229.0759	17	C16H9N2+
232.0343	14	C16H8S+
233.0416	13	C16H9S+
234.0498	83	C16H10S+
