Mass spectrum: Metolachlor-N-dealkylation (TENTATIVE); LC-ESI-QFT; MS2; CE: 30%; R=70000; [M+H]+
Name: Metolachlor-N-dealkylation
Name: 2-chloro-N-(2-ethyl-6-methylphenyl)acetamide
Formula: C11H14ClNO
Exact mass: 211.0754
SMILES: CCC1=CC=CC(=C1NC(=O)CCl)C
InChI: InChI=1S/C11H14ClNO/c1-3-9-6-4-5-8(2)11(9)13-10(14)7-12/h4-6H,3,7H2,1-2H3,(H,13,14)
Instrument: Q Exactive Plus Orbitrap Thermo Scientific
Instrument type: LC-ESI-QFT
Ms type: MS2
Ion mode: POSITIVE
Ionization: ESI
Fragmentation mode: HCD
Collision energy: 30% (nominal)
Resolution: 70000
Column name: Waters UPLC BEH C18 1.7 um 2.1 mm x 100 mm with pre-column
Retention time: 13.72 min
Precursor m/z: 212.0832
Precursor type: [M+H]+
m/z	relative intensity
51.0234	4
53.0389	5
55.0546	6
57.0701	3
65.0388	13
67.0544	12
69.07	5
70.0651	2
75.9948	17
76.9789	109
77.0385	3
79.0542	29
80.0493	3
81.0699	44
91.0542	311
92.0495	3
92.0621	3
93.0573	189
93.0699	138
94.0413	12
94.0651	3
95.0491	10
95.0855	5
103.0542	32
104.0495	2
104.0621	13
105.0336	4
105.0448	3
105.0574	3
105.0699	54
106.0651	34
106.0777	4
107.0492	20
107.073	184
108.057	5
108.0808	999
109.0648	319
109.1014	2
115.0542	10
116.0619	3
117.0574	7
117.0699	70
118.0651	16
119.0604	19
119.073	32
119.0856	133
120.0808	506
121.0649	6
121.0885	7
123.068	2
129.07	2
130.0652	53
131.0731	10
131.0856	8
132.0447	2
132.0807	5
133.0523	28
133.0887	12
134.0602	11
134.0964	11
135.1042	9
136.1121	57
137.0962	6
139.0309	11
141.0702	2
143.073	34
144.0809	34
145.0886	10
146.06	5
147.0679	32
148.0756	39
148.1121	28
157.0884	2
158.0964	36
159.1043	20
166.0418	60
167.0622	2
182.0372	3
183.0447	3
184.0524	183
194.0732	4
