Mass spectrum: Metoclopramide; LC-ESI-QFT; MS2; CE: CE15; R=17500; [M+H]+
Name: Metoclopramide
Name: 4-amino-5-chloro-N-[2-(diethylamino)ethyl]-2-methoxybenzamide
Formula: C14H22ClN3O2
Exact mass: 299.1401
SMILES: CCN(CC)CCNC(=O)C1=CC(Cl)=C(N)C=C1OC
InChI: InChI=1S/C14H22ClN3O2/c1-4-18(5-2)7-6-17-14(19)10-8-11(15)12(16)9-13(10)20-3/h8-9H,4-7,16H2,1-3H3,(H,17,19)
Instrument: Q Exactive Thermo Fisher Scientific
Instrument type: LC-ESI-QFT
Ms type: MS2
Ion mode: POSITIVE
Ionization: ESI
Fragmentation mode: HCD
Collision energy: CE15
Resolution: 17500
Column name: Acquity UPLC BEH C18 1.7 um, 2.1 x 150 mm, Waters
Retention time: 14.388 min
Base peak: 223.0628
Precursor m/z: 300.1473
Precursor type: [M+H]+
m/z	relative intensity	assigned
100.112	5	C6H14N+
183.0319	4	C8H8ClN2O+
184.0155	82	C8H7ClNO2+
212.0343	5	C9H9ClN2O2+
227.0584	999	C10H12ClN2O2+
