Mass spectrum: Terbutryn-diOH (TENTATIVE); LC-ESI-QFT; MS2; CE: 55%; R=70000; [M+H]+
Name: Terbutryn-diOH
Formula: C10H19N5O2S
Exact mass: 273.125
SMILES: C(*)C(*)NC1=NC(=NC(=N1)SC(*))NC(C)(C(*))C(*)  *=[OH (n=1)& H (n=4)]
Instrument: Q Exactive Plus Orbitrap Thermo Scientific
Instrument type: LC-ESI-QFT
Ms type: MS2
Ion mode: POSITIVE
Ionization: ESI
Fragmentation mode: HCD
Collision energy: 55% (nominal)
Resolution: 70000
Column name: Waters UPLC BEH C18 1.7 um 2.1 mm x 100 mm with pre-column
Retention time: 12.19 min
Precursor m/z: 274.1328
Precursor type: [M+H]+
m/z	relative intensity
56.0498	189
57.045	53
57.0702	148
67.0542	38
68.0244	385
68.0371	48
69.0084	999
69.0321	57
69.0448	520
70.0288	251
79.0542	60
82.0399	68
84.0556	38
84.9855	215
85.0508	98
86.0349	631
88.0393	39
89.0168	110
91.0542	36
94.0399	140
95.0239	133
95.0352	70
109.051	228
111.0301	294
112.0504	311
115.0543	52
136.0618	475
150.0367	30
152.0565	86
188.1147	30
