Mass spectrum: Altenuene; LC-ESI-ITFT; MS2; CE: 50%; R=7500; [M+H]+
Name: Altenuene
Name: 6H-Dibenzo[b,d]pyran-6-one, 2,3,4,4a-tetrahydro-2,3,7-trihydroxy-9-methoxy-4a-methyl-, (2R,3R,4aR)-rel-
Name: 2,3,7-trihydroxy-9-methoxy-4a-methyl-3,4-dihydro-2H-benzo[c]chromen-6-one
Formula: C15H16O6
Exact mass: 292.0947
SMILES: CC12CC(C(C=C1C3=C(C(=CC(=C3)OC)O)C(=O)O2)O)O
InChI: InChI=1S/C15H16O6/c1-15-6-12(18)10(16)5-9(15)8-3-7(20-2)4-11(17)13(8)14(19)21-15/h3-5,10,12,16-18H,6H2,1-2H3
Instrument: LTQ Orbitrap XL Thermo Scientific
Instrument type: LC-ESI-ITFT
Ms type: MS2
Ion mode: POSITIVE
Ionization: ESI
Fragmentation mode: HCD
Collision energy: 50 % (nominal)
Resolution: 7500
Column name: Hypersil GOLD C18 1.9 um 100 x 2.1 mm Thermo Fisher Scientific
Retention time: 15.043 min
Base peak: 293.1022
Precursor m/z: 293.102
Precursor type: [M+H]+
Precursor intensity: 12654529.8916
m/z	relative intensity	assigned
157.0651	9	C11H9O+
159.0811	6	C11H11O+
169.0646	78	C12H9O+
170.0721	9	C12H10O+
171.0441	14	C11H7O2+
171.0806	22	C12H11O+
173.0964	17	C12H13O+
177.0906	10	C11H13O2+
179.034	16	C9H7O4+
180.0566	8	C13H8O+
181.0649	19	C13H9O+
183.0803	40	C13H11O+
185.0968	17	C13H13O+
186.0671	13	C12H10O2+
187.0757	34	C12H11O2+
188.0835	22	C12H12O2+
189.0907	13	C12H13O2+
190.0624	4	C11H10O3+
191.1066	53	C12H15O2+
195.0801	30	C14H11O+
196.052	7	C13H8O2+
197.0597	114	C13H9O2+
198.0676	131	C13H10O2+
201.091	318	C13H13O2+
203.0703	26	C12H11O3+
203.1067	30	C13H15O2+
205.086	11	C12H13O3+
211.0754	214	C14H11O2+
213.091	110	C14H13O2+
214.0626	42	C13H10O3+
215.0702	57	C13H11O3+
219.1019	22	C13H15O3+
224.046	7	C14H8O3+
225.0547	80	C14H9O3+
229.0858	554	C14H13O3+
231.1015	57	C14H15O3+
239.0701	524	C15H11O3+
242.0571	46	C14H10O4+
247.0957	17	C14H15O4+
257.0807	999	C15H13O4+
275.0904	12	C15H15O5+
