Mass spectrum: Dothiepin; LC-ESI-ITFT; MS2; CE: 40%; R=7500; [M+H]+
Name: Dothiepin
Name: 3-(Dibenzo[b,e]thiepin-11(6H)-ylidene)-N,N-dimethylpropan-1-amine
Formula: C19H21NS
Exact mass: 295.1395
SMILES: CN(C)CCC=C1C2=CC=CC=C2CSC2=C1C=CC=C2
InChI: InChI=1S/C19H21NS/c1-20(2)13-7-11-17-16-9-4-3-8-15(16)14-21-19-12-6-5-10-18(17)19/h3-6,8-12H,7,13-14H2,1-2H3
Instrument: LTQ Orbitrap XL Thermo Fisher Scientific
Instrument type: LC-ESI-ITFT
Ms type: MS2
Ion mode: POSITIVE
Ionization: ESI
Fragmentation mode: HCD
Collision energy: 40% (nominal)
Resolution: 7500
Column name: Hypersil GOLD C18 1.9 um 100 x 2.1 mm Thermo Fisher Scientific
Precursor m/z: 296.1468
Precursor type: [M+H]+
m/z	relative intensity
57.0478	1
57.0555	2
57.0732	2
58.065	65
84.0806	9
91.0542	45
117.0699	141
123.0264	65
129.0697	5
135.0263	7
141.0699	17
142.0777	15
147.0264	115
173.0421	28
178.0777	8
179.0857	6
191.0858	48
192.0934	15
202.0771	1
203.0859	8
204.0935	8
205.101	6
209.0423	114
210.0496	7
211.0577	6
217.1016	89
218.1094	383
221.0424	13
222.0503	104
223.0581	380
225.0736	494
236.0658	78
249.0735	11
251.0894	530
253.1049	18
296.1468	999
