Mass spectrum: Sulfamethoxazole; LC-ESI-QTOF; MS2; CE: 25 eV; R=3600; [M+H]+
Name: Sulfamethoxazole
Name: 4-Amino-N-(5-methyl-1,2-oxazol-3-yl)benzene-1-sulfonamide
Formula: C10H11N3O3S
Exact mass: 253.0521
SMILES: CC1=CC(NS(=O)(=O)C2=CC=C(N)C=C2)=NO1
InChI: InChI=1S/C10H11N3O3S/c1-7-6-10(12-16-7)13-17(14,15)9-4-2-8(11)3-5-9/h2-6H,11H2,1H3,(H,12,13)
Instrument: 6664 QTOF Agilent
Instrument type: LC-ESI-QTOF
Ms type: MS2
Ion mode: POSITIVE
Ionization: ESI
Fragmentation mode: CID
Collision energy: 25 eV
Resolution: 3600
Precursor m/z: 254.0594
Precursor type: [M+H]+
m/z	relative intensity
53.0376	46
54.0325	3
55.0145	4
56.0513	3
57.044	4
64.0299	3
65.0379	854
66.0394	39
67.0516	3
72.0429	8
77.037	12
78.0414	9
79.0386	8
80.0485	273
90.0331	6
92.0483	999
93.0549	229
94.0703	6
99.0538	95
105.0395	7
106.0495	3
107.0588	23
108.0424	690
109.0536	5
116.0477	5
118.0452	3
119.0578	9
121.0806	4
131.0564	9
132.0654	6
133.0603	9
143.0543	8
145.0626	3
146.0694	31
147.0779	38
148.0811	17
156.0087	129
158.9973	5
159.0696	5
160.0806	32
161.0036	5
173.0551	3
176.0307	4
