Mass spectrum: Chlorotoluron-diOH (TENTATIVE); LC-ESI-QFT; MS2; CE: 55%; R=70000; [M-H]-
Name: Chlorotoluron-diOH
Formula: C10H13ClN2O3
Exact mass: 244.0615
SMILES: C(*)C1=C(c(*)=C(C(*)=C(*)1)NC(=O)N(C(*))C(*))Cl * = [OH (n=2) & H (n=4)]
Instrument: Q Exactive Plus Orbitrap Thermo Scientific
Instrument type: LC-ESI-QFT
Ms type: MS2
Ion mode: NEGATIVE
Ionization: ESI
Fragmentation mode: HCD
Collision energy: 55% (nominal)
Resolution: 70000
Column name: Waters UPLC BEH C18 1.7 um 2.1 mm x 100 mm with pre-column
Retention time: 12.38
Precursor m/z: 243.0564
Precursor type: [M-H]-
m/z	relative intensity
59.985	999
93.0345	664
