Mass spectrum: Sulfamethoxazole; ESI-QTOF; MS2; CE: 50eV; R=15000; [M+H]+
Name: Sulfamethoxazole
Name: 4-Amino-N-(5-methyl-1,2-oxazol-3-yl)benzene-1-sulfonamide
Formula: C10H11N3O3S
Exact mass: 253.0521
SMILES: CC1=CC(NS(=O)(=O)C2=CC=C(N)C=C2)=NO1
InChI: InChI=1S/C10H11N3O3S/c1-7-6-10(12-16-7)13-17(14,15)9-4-2-8(11)3-5-9/h2-6H,11H2,1H3,(H,12,13)
Instrument: TripleTOF 5600+SCIEX
Instrument type: ESI-QTOF
Ms type: MS2
Ion mode: POSITIVE
Ionization: ESI
Fragmentation mode: CID
Collision energy: 50 eV
Resolution: 15000
Precursor m/z: 254.0594
Precursor type: [M+H]+
m/z	relative intensity
50.0176	1
51.0258	2
52.0331	1
53.0412	15
54.0367	2
55.0202	3
55.0305	1
56.0518	1
57.0723	1
62.0169	1
63.0249	2
65.0407	642
66.0357	13
66.0486	14
67.0436	2
68.0516	1
69.0475	1
71.0621	3
72.046	8
77.0403	5
78.0345	2
79.0436	3
80.051	254
81.0584	1
82.0546	1
89.0397	1
90.0351	4
91.0431	2
92.0107	1
92.0506	887
92.0674	5
92.9797	1
92.9866	1
93.0583	177
94.0661	9
97.0404	1
98.0479	1
99.0562	79
102.0343	2
103.0429	3
104.0504	4
105.0457	7
106.0532	5
107.061	34
108.045	999
110.0613	3
110.9764	1
116.0501	4
117.0456	2
118.0534	11
119.0609	18
120.069	5
121.0765	5
122.0065	2
128.0488	1
129.0449	5
130.0528	4
131.0608	12
132.0688	7
133.064	7
134.0709	2
140.0166	2
142.0528	2
143.061	11
144.0559	3
145.0637	5
146.0716	69
147.0792	30
148.0876	2
149.017	1
156.0119	34
158.0723	1
159.0023	1
159.0796	6
160.0874	24
161.0018	2
164.997	1
167.0144	2
169.0291	1
173.0582	2
175.0212	1
176.0281	1
185.0238	1
