Mass spectrum: Stachybotrylactam; LC-ESI-ITFT; MS2; CE: 60%; R=7500; [M+H]+
Name: Stachybotrylactam
Name: 3,4`-dihydroxy-4,4,7,8a-tetramethylspiro[2,3,4a,5,6,7-hexahydro-1H-naphthalene-8,2`-7,8-dihydro-3H-furo[2,3-e]isoindole]-6`-one
Formula: C23H31NO4
Exact mass: 385.2253
SMILES: CC1CCC2C(C(CCC2(C13CC4=C(C=C5C(=C4O3)CNC5=O)O)C)O)(C)C
InChI: InChI=1S/C23H31NO4/c1-12-5-6-17-21(2,3)18(26)7-8-22(17,4)23(12)10-14-16(25)9-13-15(19(14)28-23)11-24-20(13)27/h9,12,17-18,25-26H,5-8,10-11H2,1-4H3,(H,24,27)
Instrument: LTQ Orbitrap XL Thermo Scientific
Instrument type: LC-ESI-ITFT
Ms type: MS2
Ion mode: POSITIVE
Ionization: ESI
Fragmentation mode: HCD
Collision energy: 60 % (nominal)
Resolution: 7500
Column name: Hypersil GOLD C18 1.9 um 100 x 2.1 mm Thermo Fisher Scientific
Retention time: 23.754 min
Base peak: 771.4607
Precursor m/z: 386.2326
Precursor type: [M+H]+
Precursor intensity: 6357007.739502
m/z	relative intensity	assigned
56.1436	6	C2H18N+
95.0855	25	C7H11+
107.0856	28	C8H11+
119.0855	21	C9H11+
121.1012	38	C9H13+
133.1013	27	C10H13+
135.117	57	C10H15+
147.1172	20	C11H15+
149.133	10	C11H17+
150.0551	49	C8H8NO2+
161.0603	10	C10H9O2+
163.1485	8	C12H19+
166.0498	10	C8H8NO3+
175.1483	44	C13H19+
178.05	999	C9H8NO3+
179.0577	131	C9H9NO3+
180.0654	35	C9H10NO3+
189.1638	76	C14H21+
190.0498	15	C10H8NO3+
190.1721	25	C14H22+
191.1798	36	C14H23+
202.0499	15	C11H8NO3+
204.0656	6	C11H10NO3+
216.0656	45	C12H10NO3+
218.0812	26	C12H12NO3+
230.0823	15	C13H12NO3+
232.0966	22	C13H14NO3+
256.0964	9	C15H14NO3+
258.1124	10	C15H16NO3+
272.127	15	C16H18NO3+
284.1278	15	C17H18NO3+
286.1437	15	C17H20NO3+
386.2331	558	C23H32NO4+
