Mass spectrum: Desipramine; LC-ESI-QFT; MS2; CE: CE45; R=17500; [M+H]+
Name: Desipramine
Name: 3-(5,6-dihydrobenzo[b][1]benzazepin-11-yl)-N-methylpropan-1-amine
Formula: C18H22N2
Exact mass: 266.1783
SMILES: CNCCCN1C2=C(CCC3=C1C=CC=C3)C=CC=C2
InChI: InChI=1S/C18H22N2/c1-19-13-6-14-20-17-9-4-2-7-15(17)11-12-16-8-3-5-10-18(16)20/h2-5,7-10,19H,6,11-14H2,1H3
Instrument: Q Exactive Thermo Fisher Scientific
Instrument type: LC-ESI-QFT
Ms type: MS2
Ion mode: POSITIVE
Ionization: ESI
Fragmentation mode: HCD
Collision energy: CE45
Resolution: 17500
Column name: Acquity UPLC BEH C18 1.7 um, 2.1 x 150 mm, Waters
Retention time: 19.371 min
Base peak: 223.0628
Precursor m/z: 267.1856
Precursor type: [M+H]+
m/z	relative intensity	assigned
56.0498	63	C3H6N+
57.0575	170	C3H7N+
70.0652	9	C4H8N+
72.081	999	C4H10N+
91.0543	23	C7H7+
165.0698	11	C13H9+
167.0736	19	C12H9N+
178.0776	10	C14H10+
180.08	38	C13H10N+
192.08	51	C14H10N+
193.0893	424	C14H11N+
194.0965	64	C14H12N+
206.0972	18	C15H12N+
208.1129	66	C15H14N+
220.111	15	C16H14N+
