Mass spectrum: Amiloride; LC-ESI-QTOF; MS2; CE: 50 eV; R=3600; [M+H]+
Name: Amiloride
Name: 3,5-Diamino-N-carbamimidoyl-6-chloropyrazine-2-carboxamide
Formula: C6H8ClN7O
Exact mass: 229.0479
SMILES: NC(=N)NC(=O)C1=NC(Cl)=C(N)N=C1N
InChI: InChI=1S/C6H8ClN7O/c7-2-4(9)13-3(8)1(12-2)5(15)14-6(10)11/h(H4,8,9,13)(H4,10,11,14,15)
Instrument: 6538 QTOF Agilent
Instrument type: LC-ESI-QTOF
Ms type: MS2
Ion mode: POSITIVE
Ionization: ESI
Fragmentation mode: CID
Collision energy: 50 eV
Resolution: 3600
Precursor m/z: 230.0552
Precursor type: [M+H]+
m/z	relative intensity
53.0133	733
55.0298	498
60.0577	899
61.9817	399
64.0001	315
66.0206	648
73.9812	999
81.0337	349
84.9459	50
88.9888	612
100.9899	121
103.3009	69
108.046	80
116.0004	401
116.9379	78
143.0138	87
