Mass spectrum: Violaceol I; LC-ESI-ITFT; MS2; CE: 15%; R=7500; [M+H]+
Name: Violaceol I
Name: 3-(2,3-dihydroxy-5-methylphenoxy)-5-methylbenzene-1,2-diol
Formula: C14H14O5
Exact mass: 262.0841
SMILES: CC1=CC(=C(C(=C1)OC2=CC(=CC(=C2O)O)C)O)O
InChI: InChI=1S/C14H14O5/c1-7-3-9(15)13(17)11(5-7)19-12-6-8(2)4-10(16)14(12)18/h3-6,15-18H,1-2H3
Instrument: LTQ Orbitrap XL Thermo Scientific
Instrument type: LC-ESI-ITFT
Ms type: MS2
Ion mode: POSITIVE
Ionization: ESI
Fragmentation mode: HCD
Collision energy: 15 % (nominal)
Resolution: 7500
Column name: Hypersil GOLD C18 1.9 um 100 x 2.1 mm Thermo Fisher Scientific
Retention time: 14.520 min
Base peak: 263.092
Precursor m/z: 263.0914
Precursor type: [M+H]+
Precursor intensity: 1863632.888672
m/z	relative intensity	assigned
96.0209	6	C5H4O2+
125.0598	91	C7H9O2+
139.0391	151	C7H7O3+
141.0544	18	C7H9O3+
263.0916	999	C14H15O5+
