Mass spectrum: Ochratoxin B; LC-ESI-ITFT; MS2; CE: 40%; R=7500; [M+H]+
Name: Ochratoxin B
Name: 2-[(8-Hydroxy-3-methyl-1-oxoisochroman-7-carbonyl)amino]-3-phenylpropionic acid
Name: 2-[(8-hydroxy-3-methyl-1-oxo-3,4-dihydroisochromene-7-carbonyl)amino]-3-phenylpropanoic acid
Formula: C20H19NO6
Exact mass: 369.1212
SMILES: CC1CC2=C(C(=C(C=C2)C(=O)NC(CC3=CC=CC=C3)C(=O)O)O)C(=O)O1
InChI: InChI=1S/C20H19NO6/c1-11-9-13-7-8-14(17(22)16(13)20(26)27-11)18(23)21-15(19(24)25)10-12-5-3-2-4-6-12/h2-8,11,15,22H,9-10H2,1H3,(H,21,23)(H,24,25)
Instrument: LTQ Orbitrap XL Thermo Scientific
Instrument type: LC-ESI-ITFT
Ms type: MS2
Ion mode: POSITIVE
Ionization: ESI
Fragmentation mode: HCD
Collision energy: 40 % (nominal)
Resolution: 7500
Column name: Hypersil GOLD C18 1.9 um 100 x 2.1 mm Thermo Fisher Scientific
Retention time: 19.347 min
Base peak: 370.1295
Precursor m/z: 370.1285
Precursor type: [M+H]+
Precursor intensity: 45410366.09375
m/z	relative intensity	assigned
120.0808	67	C8H10N+
187.0387	2	C11H7O3+
205.0495	999	C11H9O4+
223.0602	98	C11H11O5+
237.0763	6	C12H13O5+
307.0966	68	C19H15O4+
