Mass spectrum: Tetracycline; LC-ESI-ITFT; MS2; CE: 60%; R=15000; [M+H]+
Name: Tetracycline
Name: 2-[amino(hydroxy)methylidene]-4-(dimethylamino)-6,10,11,12a-tetrahydroxy-6-methyl-4,4a,5,5a-tetrahydrotetracene-1,3,12-trione
Formula: C22H24N2O8
Exact mass: 444.1533
SMILES: [H][C@@]12C[C@@]3([H])C(=C(O)[C@]1(O)C(=O)C(C(N)=O)=C(O)[C@H]2N(C)C)C(=O)C1=C(C=CC=C1O)[C@@]3(C)O
InChI: InChI=1S/C22H24N2O8/c1-21(31)8-5-4-6-11(25)12(8)16(26)13-9(21)7-10-15(24(2)3)17(27)14(20(23)30)19(29)22(10,32)18(13)28/h4-6,9-10,15,25,27-28,31-32H,7H2,1-3H3,(H2,23,30)/t9-,10-,15-,21+,22-/m0/s1
Instrument: LTQ Orbitrap XL Thermo Scientific
Instrument type: LC-ESI-ITFT
Ms type: MS2
Ion mode: POSITIVE
Ionization: ESI
Fragmentation mode: HCD
Collision energy: 60% (nominal)
Resolution: 15000
Column name: Kinetex Evo C18 2.6 um 50 x 2.1 mm
Retention time: 3.320 min
Base peak: 300.1474
Precursor m/z: 445.1605
Precursor type: [M+H]+
m/z	relative intensity	assigned
58.0649	43	C3H8N+
84.0443	20	C4H6NO+
86.06	111	C4H8NO+
98.06	999	C5H8NO+
126.0549	118	C6H8NO2+
139.0262	26	C6H5NO3+
152.0337	10	C7H6NO3+
154.0498	436	C7H8NO3+
187.0756	21	C12H11O2+
194.0449	11	C9H8NO4+
211.0755	31	C14H11O2+
213.0909	40	C14H13O2+
223.0752	101	C15H11O2+
239.0701	86	C15H11O3+
241.0859	612	C15H13O3+
242.0576	75	C14H10O4+
243.0653	39	C14H11O4+
251.0703	137	C16H11O3+
253.0863	14	C16H13O3+
257.0806	98	C15H13O4+
263.0698	58	C17H11O3+
267.0652	456	C16H11O4+
269.0808	565	C16H13O4+
278.0573	95	C17H10O4+
279.0652	34	C17H11O4+
291.0652	103	C18H11O4+
293.0806	46	C18H13O4+
296.1277	32	C18H18NO3+
297.0746	20	C17H13O5+
309.0759	10	C18H13O5+
319.0603	20	C19H11O5+
321.0763	52	C19H13O5+
334.0472	72	C19H10O6+
337.0709	55	C19H13O6+
349.0707	22	C20H13O6+
