Mass spectrum: Isoproturon-desaturation (TENTATIVE); LC-ESI-QFT; MS2; CE: 30%; R=70000; [M+H]+
Name: Isoproturon-desaturation
Formula: C12H16N2O
Exact mass: 204.1254
SMILES: C(*)C1=NN=C(C(=O)N1)C2=C(*)C(*)=C(*)C=C2 *=[OH (n=1) & H (n=3)]
Instrument: Q Exactive Plus Orbitrap Thermo Scientific
Instrument type: LC-ESI-QFT
Ms type: MS2
Ion mode: POSITIVE
Ionization: ESI
Fragmentation mode: HCD
Collision energy: 30% (nominal)
Resolution: 70000
Column name: Waters UPLC BEH C18 1.7 um 2.1 mm x 100 mm with pre-column
Retention time: 11.07 min
Precursor m/z: 205.1332
Precursor type: [M+H]+
m/z	relative intensity
56.0134	16
72.0444	999
79.0542	16
81.0699	28
91.0542	41
92.0496	14
95.0491	13
105.0696	22
107.0492	84
115.0544	29
117.07	64
118.0652	14
120.0445	55
132.0445	634
132.081	25
142.0652	25
160.0758	114
