Mass spectrum: Desipramine; LC-ESI-ITFT; MS2; CE: 20%; R=15000; [M+H]+
Name: Desipramine
Name: 3-(5,6-dihydrobenzo[b][1]benzazepin-11-yl)-N-methylpropan-1-amine
Formula: C18H22N2
Exact mass: 266.1783
SMILES: CNCCCN1C2=CC=CC=C2CCC3=CC=CC=C31
InChI: InChI=1S/C18H22N2/c1-19-13-6-14-20-17-9-4-2-7-15(17)11-12-16-8-3-5-10-18(16)20/h2-5,7-10,19H,6,11-14H2,1H3
Instrument: LTQ Orbitrap XL Thermo Scientific
Instrument type: LC-ESI-ITFT
Ms type: MS2
Ion mode: POSITIVE
Ionization: ESI
Fragmentation mode: HCD
Collision energy: 20% (nominal)
Resolution: 15000
Column name: Kinetex Evo C18 2.6 um 50 x 2.1 mm
Retention time: 8.479 min
Base peak: 267.1857
Precursor m/z: 267.1856
Precursor type: [M+H]+
m/z	relative intensity	assigned
72.0805	591	C4H10N+
167.0853	2	C13H11+
208.1117	6	C15H14N+
236.1434	20	C17H18N+
267.1854	999	C18H23N2+
