Mass spectrum: Sulthiame; LC-ESI-ITFT; MS2; CE: 75%; R=15000; [M+H]+
Name: Sulthiame
Name: 4-(1,1-dioxothiazinan-2-yl)benzenesulfonamide
Formula: C10H14N2O4S2
Exact mass: 290.0395
SMILES: C1CCS(=O)(=O)N(C1)C2=CC=C(C=C2)S(=O)(=O)N
InChI: InChI=1S/C10H14N2O4S2/c11-18(15,16)10-5-3-9(4-6-10)12-7-1-2-8-17(12,13)14/h3-6H,1-2,7-8H2,(H2,11,15,16)
Instrument: LTQ Orbitrap XL Thermo Scientific
Instrument type: LC-ESI-ITFT
Ms type: MS2
Ion mode: POSITIVE
Ionization: ESI
Fragmentation mode: HCD
Collision energy: 75% (nominal)
Resolution: 15000
Column name: Kinetex Evo C18 2.6 um 50 x 2.1 mm
Retention time: 4.421 min
Base peak: 313.0287
Precursor m/z: 291.0468
Precursor type: [M+H]+
m/z	relative intensity	assigned
55.054	29	C4H7+
91.0543	7	C7H7+
92.0496	23	C6H6N+
93.0573	11	C6H7N+
94.0412	10	C6H6O+
94.0653	7	C6H8N+
95.0493	4	C6H7O+
104.0495	31	C7H6N+
105.0573	422	C7H7N+
106.0651	28	C7H8N+
108.0445	16	C6H6NO+
117.0573	27	C8H7N+
118.0652	85	C8H8N+
119.0729	28	C8H9N+
121.0525	4	C7H7NO+
121.076	12	C7H9N2+
122.0601	93	C7H8NO+
132.0808	89	C9H10N+
134.0601	6	C8H8NO+
146.0963	20	C10H12N+
147.1044	33	C10H13N+
185.038	999	C7H9N2O2S+
198.0456	7	C8H10N2O2S+
227.0859	6	C10H15N2O2S+
