Mass spectrum: Citreoviridin; LC-ESI-ITFT; MS2; CE: 60%; R=7500; [M+H]+
Name: Citreoviridin
Name: 6-[8-(3,4-dihydroxy-2,4,5-trimethyloxolan-2-yl)-7-methylocta-1,3,5,7-tetraenyl]-4-methoxy-5-methylpyran-2-one
Formula: C23H30O6
Exact mass: 402.2042
SMILES: CC1C(C(C(O1)(C)C=C(C)C=CC=CC=CC2=C(C(=CC(=O)O2)OC)C)O)(C)O
InChI: InChI=1S/C23H30O6/c1-15(14-22(4)21(25)23(5,26)17(3)29-22)11-9-7-8-10-12-18-16(2)19(27-6)13-20(24)28-18/h7-14,17,21,25-26H,1-6H3
Instrument: LTQ Orbitrap XL Thermo Scientific
Instrument type: LC-ESI-ITFT
Ms type: MS2
Ion mode: POSITIVE
Ionization: ESI
Fragmentation mode: HCD
Collision energy: 60 % (nominal)
Resolution: 7500
Column name: Hypersil GOLD C18 1.9 um 100 x 2.1 mm Thermo Fisher Scientific
Retention time: 21.725 min
Base peak: 403.2119
Precursor m/z: 403.2115
Precursor type: [M+H]+
Precursor intensity: 3639468.507568
m/z	relative intensity	assigned
83.0491	295	C5H7O+
89.0595	115	C4H9O2+
95.0853	119	C7H11+
105.0697	155	C8H9+
109.0648	98	C7H9O+
119.0855	206	C9H11+
123.081	118	C8H11O+
128.0619	130	C10H8+
129.0698	162	C10H9+
131.0858	232	C10H11+
139.039	999	C7H7O3+
143.0856	279	C11H11+
151.0754	237	C9H11O2+
157.1009	145	C12H13+
165.054	105	C9H9O3+
167.0705	350	C9H11O3+
179.0698	87	C10H11O3+
191.0698	187	C11H11O3+
193.0858	104	C11H13O3+
