Mass spectrum: Sulthiame; LC-ESI-ITFT; MS2; CE: 155%; R=15000; [M+H]+
Name: Sulthiame
Name: 4-(1,1-dioxothiazinan-2-yl)benzenesulfonamide
Formula: C10H14N2O4S2
Exact mass: 290.0395
SMILES: C1CCS(=O)(=O)N(C1)C2=CC=C(C=C2)S(=O)(=O)N
InChI: InChI=1S/C10H14N2O4S2/c11-18(15,16)10-5-3-9(4-6-10)12-7-1-2-8-17(12,13)14/h3-6H,1-2,7-8H2,(H2,11,15,16)
Instrument: LTQ Orbitrap XL Thermo Scientific
Instrument type: LC-ESI-ITFT
Ms type: MS2
Ion mode: POSITIVE
Ionization: ESI
Fragmentation mode: HCD
Collision energy: 155% (nominal)
Resolution: 15000
Column name: Kinetex Evo C18 2.6 um 50 x 2.1 mm
Retention time: 4.275 min
Base peak: 313.0287
Precursor m/z: 291.0468
Precursor type: [M+H]+
m/z	relative intensity	assigned
65.0384	190	C5H5+
75.0227	49	C6H3+
76.0307	968	C6H4+
77.0385	178	C6H5+
78.0463	253	C6H6+
79.0416	111	C5H5N+
89.0389	43	C7H5+
90.0464	91	C7H6+
91.0542	327	C7H7+
92.0498	32	C6H6N+
93.0571	36	C6H7N+
94.0411	40	C6H6O+
95.0493	28	C6H7O+
96.0443	29	C5H6NO+
104.0495	999	C7H6N+
105.0448	245	C6H5N2+
105.0573	551	C7H7N+
117.0573	315	C8H7N+
118.0652	84	C8H8N+
130.0654	53	C9H8N+
