Mass spectrum: Sulfamoxole; LC-ESI-QFT; MS2; CE: CE60; R=17500; [M+H]+
Name: Sulfamoxole
Name: 4-amino-N-(4,5-dimethyl-1,3-oxazol-2-yl)benzenesulfonamide
Formula: C11H13N3O3S
Exact mass: 267.0678
SMILES: CC1=C(C)N=C(NS(=O)(=O)C2=CC=C(N)C=C2)O1
InChI: InChI=1S/C11H13N3O3S/c1-7-8(2)17-11(13-7)14-18(15,16)10-5-3-9(12)4-6-10/h3-6H,12H2,1-2H3,(H,13,14)
Instrument: Q Exactive Thermo Fisher Scientific
Instrument type: LC-ESI-QFT
Ms type: MS2
Ion mode: POSITIVE
Ionization: ESI
Fragmentation mode: HCD
Collision energy: CE60
Resolution: 17500
Column name: Acquity UPLC BEH C18 1.7 um, 2.1 x 150 mm, Waters
Retention time: 13.974 min
Base peak: 223.0628
Precursor m/z: 268.075
Precursor type: [M+H]+
m/z	relative intensity	assigned
53.0026	38	C3HO+
53.0388	34	C4H5+
54.0342	47	C3H4N+
55.0181	3	C3H3O+
55.0545	2	C4H7+
56.0497	7	C3H6N+
63.0229	2	C5H3+
65.0387	999	C5H5+
66.0341	3	C4H4N+
68.0496	12	C4H6N+
69.0575	4	C4H7N+
70.0652	118	C4H8N+
80.0497	354	C5H6N+
83.0496	10	C5H7O+
92.0497	144	C6H6N+
93.0575	3	C6H7N+
108.0447	153	C6H6NO+
110.0604	32	C6H8NO+
111.0552	35	C5H7N2O+
113.0707	25	C5H9N2O+
140.0151	4	C6H6NOS+
