Mass spectrum: Fusapyrone; LC-ESI-ITFT; MS2; CE: 60%; R=7500; [M-H]-
Name: Fusapyrone
Name: 3-[3,4-dihydroxy-6-(hydroxymethyl)oxan-2-yl]-4-hydroxy-6-[3-hydroxy-8-(hydroxymethyl)-2,6,10,12-tetramethyloctadeca-4,6,9-trien-2-yl]pyran-2-one
Formula: C34H54O9
Exact mass: 606.37678
SMILES: CCCCCCC(C)CC(=CC(CO)C=C(C)C=CC(C(C)(C)C1=CC(=C(C(=O)O1)C2C(C(CC(O2)CO)O)O)O)O)C
InChI: InChI=1S/C34H54O9/c1-7-8-9-10-11-21(2)14-23(4)16-24(19-35)15-22(3)12-13-28(39)34(5,6)29-18-26(37)30(33(41)43-29)32-31(40)27(38)17-25(20-36)42-32/h12-13,15-16,18,21,24-25,27-28,31-32,35-40H,7-11,14,17,19-20H2,1-6H3
Instrument: LTQ Orbitrap XL Thermo Scientific
Instrument type: LC-ESI-ITFT
Ms type: MS2
Ion mode: NEGATIVE
Ionization: ESI
Fragmentation mode: HCD
Collision energy: 60 % (nominal)
Resolution: 7500
Column name: Hypersil GOLD C18 1.9 um 100 x 2.1 mm Thermo Fisher Scientific
Retention time: 26.686 min
Base peak: 605.3697
Precursor m/z: 605.3695
Precursor type: [M-H]-
Precursor intensity: 11428974.63452
m/z	relative intensity	assigned
59.014	21	C2H3O2-
81.0346	80	C5H5O-
83.014	25	C4H3O2-
96.0215	25	C5H4O2-
107.0502	39	C7H7O-
108.0218	61	C6H4O2-
123.0818	135	C8H11O-
133.0659	111	C9H9O-
136.0529	21	C8H8O2-
151.0765	999	C9H11O2-
152.0118	29	C7H4O4-
177.0922	48	C11H13O2-
194.0584	190	C10H10O4-
195.0663	651	C10H11O4-
275.2377	98	C19H31O-
298.1056	358	C14H18O7-
299.1135	105	C14H19O7-
417.3024	21	C26H41O4-
471.3134	60	C29H43O5-
501.3223	217	C30H45O6-
605.3676	60	C34H53O9-
