Mass spectrum: Metoclopramide; LC-ESI-ITFT; MS2; CE: 140%; R=15000; [M+H]+
Name: Metoclopramide
Name: 4-amino-5-chloro-N-[2-(diethylamino)ethyl]-2-methoxybenzamide
Formula: C14H22ClN3O2
Exact mass: 299.1401
SMILES: CCN(CC)CCNC(=O)C1=CC(=C(C=C1OC)N)Cl
InChI: InChI=1S/C14H22ClN3O2/c1-4-18(5-2)7-6-17-14(19)10-8-11(15)12(16)9-13(10)20-3/h8-9H,4-7,16H2,1-3H3,(H,17,19)
Instrument: LTQ Orbitrap XL Thermo Scientific
Instrument type: LC-ESI-ITFT
Ms type: MS2
Ion mode: POSITIVE
Ionization: ESI
Fragmentation mode: HCD
Collision energy: 140% (nominal)
Resolution: 15000
Column name: Kinetex Evo C18 2.6 um 50 x 2.1 mm
Retention time: 2.844 min
Base peak: 300.1474
Precursor m/z: 300.1473
Precursor type: [M+H]+
m/z	relative intensity	assigned
63.0227	122	C5H3+
65.0384	24	C5H5+
66.0465	4	C5H6+
72.9839	22	C3H2Cl+
75.0227	4	C6H3+
78.0338	638	C5H4N+
90.0338	228	C6H4N+
91.0417	19	C6H5N+
92.0495	16	C6H6N+
93.0573	66	C6H7N+
98.9996	99	C5H4Cl+
105.0447	93	C6H5N2+
106.0286	8	C6H4NO+
108.0445	26	C6H6NO+
111.0079	5	C2H6ClNO2+
113.0027	999	C5H4ClN+
114.0105	20	C5H5ClN+
119.0604	9	C7H7N2+
120.0444	14	C7H6NO+
126.0105	22	C6H5ClN+
127.0183	22	C6H6ClN+
128.0259	12	C6H7ClN+
129.0103	12	C6H6ClO+
133.0398	10	C7H5N2O+
139.0056	13	C6H4ClN2+
140.0136	62	C6H5ClN2+
140.9976	410	C6H4ClNO+
142.0055	6	C6H5ClNO+
144.0212	5	C6H7ClNO+
153.0215	8	C7H6ClN2+
154.0056	12	C7H5ClNO+
156.0211	13	C7H7ClNO+
168.0085	147	C7H5ClN2O+
168.9924	23	C7H4ClNO2+
170.0005	8	C7H5ClNO2+
174.1356	2	C8H18N2O2+
184.0161	23	C8H7ClNO2+
187.0038	4	C7H6ClNO3+
