Mass spectrum: Epiequisetin; LC-ESI-ITFT; MS2; CE: 50%; R=7500; [M+H]+
Name: Epiequisetin
Name: 3-[(1,6-dimethyl-2-prop-1-enyl-4a,5,6,7,8,8a-hexahydro-2H-naphthalen-1-yl)-hydroxymethylidene]-5-(hydroxymethyl)-1-methylpyrrolidine-2,4-dione
Formula: C22H31NO4
Exact mass: 373.2253
SMILES: CC=CC1C=CC2CC(CCC2C1(C)C(=C3C(=O)C(N(C3=O)C)CO)O)C
InChI: InChI=1S/C22H31NO4/c1-5-6-15-9-8-14-11-13(2)7-10-16(14)22(15,3)20(26)18-19(25)17(12-24)23(4)21(18)27/h5-6,8-9,13-17,24,26H,7,10-12H2,1-4H3
Instrument: LTQ Orbitrap XL Thermo Scientific
Instrument type: LC-ESI-ITFT
Ms type: MS2
Ion mode: POSITIVE
Ionization: ESI
Fragmentation mode: HCD
Collision energy: 50 % (nominal)
Resolution: 7500
Column name: Hypersil GOLD C18 1.9 um 100 x 2.1 mm Thermo Fisher Scientific
Retention time: 28.042 min
Base peak: 374.2332
Precursor m/z: 374.2326
Precursor type: [M+H]+
Precursor intensity: 9559347.09082
m/z	relative intensity	assigned
79.0544	14	C6H7+
81.0698	132	C6H9+
83.0854	27	C6H11+
84.0446	27	C4H6NO+
91.0539	24	C7H7+
93.0697	31	C7H9+
95.0856	97	C7H11+
105.07	158	C8H9+
107.0857	94	C8H11+
109.1014	31	C8H13+
119.0855	324	C9H11+
121.1011	52	C9H13+
123.1171	24	C9H15+
126.0551	89	C6H8NO2+
131.0854	22	C10H11+
133.1012	215	C10H13+
135.1169	86	C10H15+
138.0552	17	C7H8NO2+
140.0343	244	C6H6NO3+
140.0705	41	C7H10NO2+
142.0494	17	C6H8NO3+
143.0858	19	C11H11+
144.0656	176	C6H10NO3+
145.1013	27	C11H13+
147.1169	188	C11H15+
149.1327	105	C11H17+
152.0343	156	C7H6NO3+
152.0707	112	C8H10NO2+
154.086	12	C8H12NO2+
156.0656	124	C7H10NO3+
159.1167	32	C12H15+
161.132	28	C12H17+
163.1482	84	C12H19+
164.0699	15	C9H10NO2+
166.0861	25	C9H12NO2+
170.0449	651	C7H8NO4+
170.0813	563	C8H12NO3+
171.1161	16	C13H15+
173.1325	51	C13H17+
175.1482	999	C13H19+
177.1638	54	C13H21+
182.0813	76	C9H12NO3+
184.0969	185	C9H14NO3+
186.0758	17	C8H12NO4+
187.1475	32	C14H19+
189.1639	139	C14H21+
196.0972	20	C10H14NO3+
198.0759	23	C9H12NO4+
198.1127	21	C10H16NO3+
200.0919	79	C9H14NO4+
203.1795	51	C15H23+
205.1952	105	C15H25+
210.1115	21	C11H16NO3+
213.1639	61	C16H21+
231.1746	30	C16H23O+
238.1076	11	C12H16NO4+
260.1281	10	C15H18NO3+
286.1446	13	C17H20NO3+
300.1598	20	C18H22NO3+
302.175	28	C18H24NO3+
346.2379	15	C21H32NO3+
356.223	44	C22H30NO3+
