Mass spectrum: Sulfamoxole; ESI-QTOF; MS2; CE: 35eV; R=15000; [M+H]+
Name: Sulfamoxole
Name: 4-Amino-N-(4,5-dimethyl-1,3-oxazol-2-yl)benzene-1-sulfonamide
Formula: C11H13N3O3S
Exact mass: 267.0678
SMILES: CC1=C(C)N=C(NS(=O)(=O)C2=CC=C(N)C=C2)O1
InChI: InChI=1S/C11H13N3O3S/c1-7-8(2)17-11(13-7)14-18(15,16)10-5-3-9(12)4-6-10/h3-6H,12H2,1-2H3,(H,13,14)
Instrument: TripleTOF 5600+SCIEX
Instrument type: ESI-QTOF
Ms type: MS2
Ion mode: POSITIVE
Ionization: ESI
Fragmentation mode: CID
Collision energy: 35 eV
Resolution: 15000
Precursor m/z: 268.0751
Precursor type: [M+H]+
m/z	relative intensity
53.0415	2
54.0365	9
65.0408	102
66.0358	2
68.0511	2
69.0593	14
70.067	41
79.0559	1
80.051	30
81.0708	1
83.0619	2
92.0507	685
93.0584	5
94.0663	3
97.0405	2
107.0861	1
107.9628	1
108.0452	999
110.0608	1
111.0561	43
112.0223	2
112.0639	150
113.0717	574
120.0564	1
123.0141	1
124.0082	1
125.028	1
135.0809	1
140.0169	91
146.0848	1
153.0226	1
156.0119	459
158.0276	4
167.9984	2
171.0336	1
173.0487	1
175.0176	2
186.0094	1
268.0751	6
