Mass spectrum: Sulfamethoxazole; LC-ESI-ITFT; MS2; CE: 50%; R=15000; [M+H]+
Name: Sulfamethoxazole
Name: 4-amino-N-(5-methyl-1,2-oxazol-3-yl)benzenesulfonamide
Formula: C10H11N3O3S
Exact mass: 253.0521
SMILES: CC1=CC(=NO1)NS(=O)(=O)C2=CC=C(C=C2)N
InChI: InChI=1S/C10H11N3O3S/c1-7-6-10(12-16-7)13-17(14,15)9-4-2-8(11)3-5-9/h2-6H,11H2,1H3,(H,12,13)
Instrument: LTQ Orbitrap XL Thermo Scientific
Instrument type: LC-ESI-ITFT
Ms type: MS2
Ion mode: POSITIVE
Ionization: ESI
Fragmentation mode: HCD
Collision energy: 50% (nominal)
Resolution: 15000
Column name: Kinetex Evo C18 2.6 um 50 x 2.1 mm
Retention time: 5.886 min
Base peak: 189.1022
Precursor m/z: 254.0594
Precursor type: [M+H]+
m/z	relative intensity	assigned
65.0384	60	C5H5+
80.0493	5	C5H6N+
92.0495	958	C6H6N+
93.0573	269	C6H7N+
94.0652	21	C6H8N+
99.0553	296	C4H7N2O+
107.0603	32	C6H7N2+
108.0444	961	C6H6NO+
110.06	35	C6H8NO+
120.0555	17	C6H6N3+
131.0602	10	C8H7N2+
146.0712	40	C8H8N3+
147.0791	126	C8H9N3+
148.0871	24	C8H10N3+
156.0114	999	C6H6NO2S+
160.0869	171	C9H10N3+
161.0013	18	C4H5N2O3S+
176.0277	7	C8H6N3S+
188.0817	27	C10H10N3O+
254.0592	8	C10H12N3O3S+
