Mass spectrum: Phenazone; ESI-QTOF; MS2; CE: 15eV; R=15000; [M+H]+
Name: Phenazone
Name: 1,5-Dimethyl-2-phenyl-1,2-dihydro-3H-pyrazol-3-one
Formula: C11H12N2O
Exact mass: 188.095
SMILES: CN1N(C(=O)C=C1C)C1=CC=CC=C1
InChI: InChI=1S/C11H12N2O/c1-9-8-11(14)13(12(9)2)10-6-4-3-5-7-10/h3-8H,1-2H3
Instrument: TripleTOF 5600+SCIEX
Instrument type: ESI-QTOF
Ms type: MS2
Ion mode: POSITIVE
Ionization: ESI
Fragmentation mode: CID
Collision energy: 15 eV
Resolution: 15000
Precursor m/z: 189.1023
Precursor type: [M+H]+
m/z	relative intensity
56.0515	1
58.067	1
104.0492	1
106.0648	1
118.0644	1
120.08	1
130.0642	2
131.0718	2
132.0797	1
144.0796	2
145.0645	1
146.083	2
147.0905	4
161.106	3
174.0773	2
189.1023	999
