Mass spectrum: Sulfamoxole; LC-ESI-QFT; MS2; CE: 40%; R=30000; [M+H]+
Name: Sulfamoxole
Name: 4-Amino-N-(4,5-dimethyl-1,3-oxazol-2-yl)benzene-1-sulfonamide
Formula: C11H13N3O3S
Exact mass: 267.0678
SMILES: CC1=C(C)N=C(NS(=O)(=O)C2=CC=C(N)C=C2)O1
InChI: InChI=1S/C11H13N3O3S/c1-7-8(2)17-11(13-7)14-18(15,16)10-5-3-9(12)4-6-10/h3-6H,12H2,1-2H3,(H,13,14)
Instrument: Orbitrap Fusion Tribrid Thermo Fisher Scientific
Instrument type: LC-ESI-QFT
Ms type: MS2
Ion mode: POSITIVE
Ionization: ESI
Fragmentation mode: HCD
Collision energy: 40% (nominal)
Resolution: 30000
Precursor m/z: 268.0751
Precursor type: [M+H]+
m/z	relative intensity
70.0653	41
83.0608	4
92.0497	999
93.0575	7
94.0653	5
108.0446	838
110.0602	39
111.0555	31
112.0633	186
113.0711	631
120.0557	11
140.0165	80
156.0115	325
158.0281	3
268.0751	1
