Mass spectrum: Sulthiame; LC-ESI-ITFT; MS2; CE: 90%; R=15000; [M+H]+
Name: Sulthiame
Name: 4-(1,1-dioxothiazinan-2-yl)benzenesulfonamide
Formula: C10H14N2O4S2
Exact mass: 290.0395
SMILES: C1CCS(=O)(=O)N(C1)C2=CC=C(C=C2)S(=O)(=O)N
InChI: InChI=1S/C10H14N2O4S2/c11-18(15,16)10-5-3-9(4-6-10)12-7-1-2-8-17(12,13)14/h3-6H,1-2,7-8H2,(H2,11,15,16)
Instrument: LTQ Orbitrap XL Thermo Scientific
Instrument type: LC-ESI-ITFT
Ms type: MS2
Ion mode: POSITIVE
Ionization: ESI
Fragmentation mode: HCD
Collision energy: 90% (nominal)
Resolution: 15000
Column name: Kinetex Evo C18 2.6 um 50 x 2.1 mm
Retention time: 4.525 min
Base peak: 61.0393
Precursor m/z: 291.0468
Precursor type: [M+H]+
m/z	relative intensity	assigned
91.0543	30	C7H7+
92.0496	20	C6H6N+
93.0574	22	C6H7N+
94.0413	34	C6H6O+
104.0496	104	C7H6N+
105.0574	999	C7H7N+
106.0655	28	C7H8N+
108.0445	19	C6H6NO+
117.0573	65	C8H7N+
118.0652	140	C8H8N+
119.0731	31	C8H9N+
121.0525	11	C7H7NO+
121.0764	20	C7H9N2+
122.0602	114	C7H8NO+
130.0651	14	C9H8N+
132.081	79	C9H10N+
146.0964	15	C10H12N+
147.1045	27	C10H13N+
185.0381	488	C7H9N2O2S+
