Mass spectrum: Metoclopramide; LC-ESI-ITFT; MS2; CE: 145%; R=15000; [M+H]+
Name: Metoclopramide
Name: 4-amino-5-chloro-N-[2-(diethylamino)ethyl]-2-methoxybenzamide
Formula: C14H22ClN3O2
Exact mass: 299.1401
SMILES: CCN(CC)CCNC(=O)C1=CC(=C(C=C1OC)N)Cl
InChI: InChI=1S/C14H22ClN3O2/c1-4-18(5-2)7-6-17-14(19)10-8-11(15)12(16)9-13(10)20-3/h8-9H,4-7,16H2,1-3H3,(H,17,19)
Instrument: LTQ Orbitrap XL Thermo Scientific
Instrument type: LC-ESI-ITFT
Ms type: MS2
Ion mode: POSITIVE
Ionization: ESI
Fragmentation mode: HCD
Collision energy: 145% (nominal)
Resolution: 15000
Column name: Kinetex Evo C18 2.6 um 50 x 2.1 mm
Retention time: 2.915 min
Base peak: 300.1475
Precursor m/z: 300.1473
Precursor type: [M+H]+
m/z	relative intensity	assigned
51.0228	5	C4H3+
54.0336	4	C3H4N+
63.0228	132	C5H3+
64.018	12	C4H2N+
65.0384	17	C5H5+
66.0463	5	C5H6+
72.0808	3	C4H10N+
72.9839	33	C3H2Cl+
78.0338	792	C5H4N+
80.0493	3	C5H6N+
90.0338	220	C6H4N+
91.0417	17	C6H5N+
92.0496	18	C6H6N+
93.0573	65	C6H7N+
98.9996	102	C5H4Cl+
105.0448	90	C6H5N2+
106.0289	4	C6H4NO+
108.0444	30	C6H6NO+
111.008	5	C2H6ClNO2+
113.0027	999	C5H4ClN+
114.0105	19	C5H5ClN+
119.0605	4	C7H7N2+
120.0444	9	C7H6NO+
126.0106	17	C6H5ClN+
127.0184	22	C6H6ClN+
128.0262	9	C6H7ClN+
129.0102	10	C6H6ClO+
133.0396	12	C7H5N2O+
139.0057	13	C6H4ClN2+
140.0136	63	C6H5ClN2+
140.9976	333	C6H4ClNO+
144.0213	4	C6H7ClNO+
153.0214	4	C7H6ClN2+
154.0054	11	C7H5ClNO+
156.0213	6	C7H7ClNO+
168.0086	108	C7H5ClN2O+
168.9924	16	C7H4ClNO2+
169.0128	4	C2H6ClN4O3+
170.0003	5	C7H5ClNO2+
174.136	4	C8H18N2O2+
181.0162	11	C8H6ClN2O+
183.031	4	C11H5NO2+
184.0158	13	C8H7ClNO2+
187.0026	4	C7H6ClNO3+
