Mass spectrum: Butyrolactone II; LC-ESI-ITFT; MS2; CE: 30%; R=7500; [M-H]-
Name: Butyrolactone II
Name: methyl 4-hydroxy-3-(4-hydroxyphenyl)-2-[(4-hydroxyphenyl)methyl]-5-oxofuran-2-carboxylate
Formula: C19H16O7
Exact mass: 356.08960
SMILES: COC(=O)C1(C(=C(C(=O)O1)O)C2=CC=C(C=C2)O)CC3=CC=C(C=C3)O
InChI: InChI=1S/C19H16O7/c1-25-18(24)19(10-11-2-6-13(20)7-3-11)15(16(22)17(23)26-19)12-4-8-14(21)9-5-12/h2-9,20-22H,10H2,1H3
Instrument: LTQ Orbitrap XL Thermo Scientific
Instrument type: LC-ESI-ITFT
Ms type: MS2
Ion mode: NEGATIVE
Ionization: ESI
Fragmentation mode: HCD
Collision energy: 30 % (nominal)
Resolution: 7500
Column name: Hypersil GOLD C18 1.9 um 100 x 2.1 mm Thermo Fisher Scientific
Retention time: 15.759 min
Base peak: 711.1693
Precursor m/z: 355.0823
Precursor type: [M-H]-
Precursor intensity: 18730409.33447
m/z	relative intensity	assigned
145.0292	3	C9H5O2-
189.0186	12	C10H5O4-
190.0267	1	C10H6O4-
204.0421	81	C11H8O4-
205.0499	55	C11H9O4-
206.0163	3	C17H2-
248.0323	3	C12H8O6-
249.0397	83	C12H9O6-
251.0707	7	C16H11O3-
283.0967	15	C17H15O4-
295.0606	9	C17H11O5-
296.0677	999	C17H12O5-
355.0807	10	C19H15O7-
