Mass spectrum: Isoproturon-desaturation (TENTATIVE); LC-ESI-QFT; MS2; CE: 30%; R=70000; [M+H]+
Name: Isoproturon-desaturation
Formula: C12H16N2O
Exact mass: 204.1255
SMILES: C=C(C)C1=CC=C(C=C1)NC(=O)N(C)C
InChI: InChI=1S/C12H16N2O/c1-9(2)10-5-7-11(8-6-10)13-12(15)14(3)4/h5-8H,1H2,2-4H3,(H,13,15)
Instrument: Q Exactive Plus Orbitrap Thermo Scientific
Instrument type: LC-ESI-QFT
Ms type: MS2
Ion mode: POSITIVE
Ionization: ESI
Fragmentation mode: HCD
Collision energy: 30% (nominal)
Resolution: 70000
Column name: Waters UPLC BEH C18 1.7 um 2.1 mm x 100 mm with pre-column
Retention time: 9.52 min
Precursor m/z: 205.1333
Precursor type: [M+H]+
m/z	relative intensity
53.039	9
72.0444	645
79.0542	9
81.0699	11
91.0543	34
92.0495	18
95.0492	19
95.0854	9
104.0496	46
105.0449	10
107.0492	17
115.0543	54
117.0574	16
117.0698	25
118.0652	38
120.0444	85
132.0444	999
132.0809	34
135.0804	11
142.0652	18
160.0756	78
