Mass spectrum: Phenazone; LC-ESI-ITFT; MS2; CE: 60%; R=7500; [M+H]+
Name: Phenazone
Name: 1,5-Dimethyl-2-phenyl-1,2-dihydro-3H-pyrazol-3-one
Formula: C11H12N2O
Exact mass: 188.095
SMILES: CN1N(C(=O)C=C1C)C1=CC=CC=C1
InChI: InChI=1S/C11H12N2O/c1-9-8-11(14)13(12(9)2)10-6-4-3-5-7-10/h3-8H,1-2H3
Instrument: LTQ Orbitrap XL Thermo Fisher Scientific
Instrument type: LC-ESI-ITFT
Ms type: MS2
Ion mode: POSITIVE
Ionization: ESI
Fragmentation mode: HCD
Collision energy: 60% (nominal)
Resolution: 7500
Column name: Hypersil GOLD C18 1.9 um 100 x 2.1 mm Thermo Fisher Scientific
Precursor m/z: 189.1023
Precursor type: [M+H]+
m/z	relative intensity
56.0493	17
58.065	18
65.0385	2
70.065	2
77.0384	2
81.0447	2
91.0542	10
92.0495	2
93.0333	1
94.0649	2
95.0606	3
96.0682	23
98.0601	7
103.0544	3
104.0496	48
106.0652	23
111.0554	2
117.07	11
118.0651	26
120.0808	27
130.0652	33
131.073	51
132.0807	24
133.076	7
134.0962	6
135.0552	2
144.0809	48
145.0647	19
146.0839	50
147.0917	81
148.0758	6
149.0711	7
160.0995	3
161.1074	71
172.0757	13
174.0789	47
189.1023	999
