Mass spectrum: Zearalenone; LC-ESI-ITFT; MS2; CE: 30%; R=7500; [M+H]+
Name: Zearalenone
Name: 15,17-Dihydroxy-11-methyl-12-oxabicyclo[12.4.0]octadeca-1(14),2,15,17-tetraene-7,13-dione
Name: 16,18-dihydroxy-4-methyl-3-oxabicyclo[12.4.0]octadeca-1(14),12,15,17-tetraene-2,8-dione
Formula: C18H22O5
Exact mass: 318.1467
SMILES: CC1CCCC(=O)CCCC=CC2=C(C(=CC(=C2)O)O)C(=O)O1
InChI: InChI=1S/C18H22O5/c1-12-6-5-9-14(19)8-4-2-3-7-13-10-15(20)11-16(21)17(13)18(22)23-12/h3,7,10-12,20-21H,2,4-6,8-9H2,1H3
Instrument: LTQ Orbitrap XL Thermo Scientific
Instrument type: LC-ESI-ITFT
Ms type: MS2
Ion mode: POSITIVE
Ionization: ESI
Fragmentation mode: HCD
Collision energy: 30 % (nominal)
Resolution: 7500
Column name: Hypersil GOLD C18 1.9 um 100 x 2.1 mm Thermo Fisher Scientific
Retention time: 21.136 min
Base peak: 319.1547
Precursor m/z: 319.154
Precursor type: [M+H]+
Precursor intensity: 8085958.734131
m/z	relative intensity	assigned
55.0179	12	C3H3O+
69.0697	68	C5H9+
97.0646	51	C6H9O+
125.096	25	C8H13O+
137.0963	11	C9H13O+
149.0594	33	C9H9O2+
157.065	313	C11H9O+
161.0599	233	C10H9O2+
163.0753	46	C10H11O2+
165.0553	23	C9H9O3+
175.0754	331	C11H11O2+
177.0547	90	C10H9O3+
177.091	102	C11H13O2+
185.0599	972	C12H9O2+
187.0754	867	C12H11O2+
189.0547	461	C11H9O3+
199.0753	75	C13H11O2+
201.091	54	C13H13O2+
203.0704	999	C12H11O3+
205.0491	64	C11H9O4+
205.0858	189	C12H13O3+
213.0551	131	C13H9O3+
213.0915	70	C14H13O2+
215.0702	77	C13H11O3+
221.0804	31	C12H13O4+
227.071	68	C14H11O3+
229.0862	81	C14H13O3+
231.0658	95	C13H11O4+
239.1064	11	C16H15O2+
241.0856	74	C15H13O3+
241.1234	16	C16H17O2+
265.1229	37	C18H17O2+
301.143	17	C18H21O4+
