Mass spectrum: Amiloride; LC-ESI-QFT; MS2; CE: CE90; R=17500; [M+H]+
Name: Amiloride
Name: 3,5-diamino-6-chloro-N-(diaminomethylidene)pyrazine-2-carboxamide
Formula: C6H8ClN7O
Exact mass: 229.0479
SMILES: NC(=N)NC(=O)C1=NC(Cl)=C(N)N=C1N
InChI: InChI=1S/C6H8ClN7O/c7-2-4(9)13-3(8)1(12-2)5(15)14-6(10)11/h(H4,8,9,13)(H4,10,11,14,15)
Instrument: Q Exactive Thermo Fisher Scientific
Instrument type: LC-ESI-QFT
Ms type: MS2
Ion mode: POSITIVE
Ionization: ESI
Fragmentation mode: HCD
Collision energy: CE90
Resolution: 17500
Column name: Acquity UPLC BEH C18 1.7 um, 2.1 x 150 mm, Waters
Retention time: 12.443 min
Base peak: 223.0628
Precursor m/z: 230.0552
Precursor type: [M+H]+
m/z	relative intensity	assigned
53.9981	35	C2NO+
54.0218	27	C2H2N2+
55.0293	40	C2H3N2+
60.0559	37	CH6N3+
61.9794	415	CHClN+
62.9635	140	CClO+
63.9949	202	CH3ClN+
66.0213	999	C3H2N2+
69.0086	10	C2HN2O+
73.9793	159	C2HClN+
81.0323	11	C3H3N3+
88.9896	83	C2H2ClN2+
