Mass spectrum: Nylidrin; ESI-QTOF; MS2; CE: 35eV; R=15000; [M+H]+
Name: Nylidrin
Name: 4-{1-Hydroxy-2-[(4-phenylbutan-2-yl)amino]propyl}phenol
Formula: C19H25NO2
Exact mass: 299.1885
SMILES: CC(CCC1=CC=CC=C1)NC(C)C(O)C1=CC=C(O)C=C1
InChI: InChI=1S/C19H25NO2/c1-14(8-9-16-6-4-3-5-7-16)20-15(2)19(22)17-10-12-18(21)13-11-17/h3-7,10-15,19-22H,8-9H2,1-2H3
Instrument: TripleTOF 5600+SCIEX
Instrument type: ESI-QTOF
Ms type: MS2
Ion mode: POSITIVE
Ionization: ESI
Fragmentation mode: CID
Collision energy: 35 eV
Resolution: 15000
Precursor m/z: 300.1959
Precursor type: [M+H]+
m/z	relative intensity
51.0254	1
55.0199	2
56.0515	8
57.0355	3
65.04	8
77.0395	6
79.055	9
81.0704	1
91.0547	488
94.0416	1
95.0494	3
103.0541	20
105.0699	258
107.0489	34
108.0805	2
109.0647	14
115.0539	12
117.0569	2
120.0443	1
121.0642	1
122.0597	1
131.0486	5
132.0801	5
133.0643	446
134.0595	3
135.0678	21
135.0797	50
148.1114	3
149.0829	1
150.0908	999
150.1258	7
151.0746	17
162.0903	1
178.1218	18
282.1845	131
300.1959	3
