Mass spectrum: Dothiepin; LC-ESI-QFT; MS2; CE: 55%; R=17500; [M+H]+
Name: Dothiepin
Name: 3-(Dibenzo[b,e]thiepin-11(6H)-ylidene)-N,N-dimethylpropan-1-amine
Formula: C19H21NS
Exact mass: 295.1395
SMILES: CN(C)CCC=C1C2=CC=CC=C2CSC2=C1C=CC=C2
InChI: InChI=1S/C19H21NS/c1-20(2)13-7-11-17-16-9-4-3-8-15(16)14-21-19-12-6-5-10-18(17)19/h3-6,8-12H,7,13-14H2,1-2H3
Instrument: Q Exactive Thermo Fisher Scientific
Instrument type: LC-ESI-QFT
Ms type: MS2
Ion mode: POSITIVE
Ionization: ESI
Fragmentation mode: HCD
Collision energy: 55% (nominal)
Resolution: 17500
Column name: Hypersil GOLD 1.9 um 2.1 x 100 mm Thermo Fisher Scientific
Precursor m/z: 296.1468
Precursor type: [M+H]+
m/z	relative intensity
58.066	417
91.0549	461
115.0547	177
117.0702	673
123.0266	298
147.0265	308
165.0699	181
178.0779	239
191.0856	186
192.0936	230
202.0779	168
203.0856	638
209.0421	214
210.0501	266
217.1016	486
218.1094	831
221.0421	450
222.0499	350
223.0576	999
225.0735	194
