Mass spectrum: Metoclopramide; LC-ESI-ITFT; MS2; CE: 70%; R=15000; [M+H]+
Name: Metoclopramide
Name: 4-amino-5-chloro-N-[2-(diethylamino)ethyl]-2-methoxybenzamide
Formula: C14H22ClN3O2
Exact mass: 299.1401
SMILES: CCN(CC)CCNC(=O)C1=CC(=C(C=C1OC)N)Cl
InChI: InChI=1S/C14H22ClN3O2/c1-4-18(5-2)7-6-17-14(19)10-8-11(15)12(16)9-13(10)20-3/h8-9H,4-7,16H2,1-3H3,(H,17,19)
Instrument: LTQ Orbitrap XL Thermo Scientific
Instrument type: LC-ESI-ITFT
Ms type: MS2
Ion mode: POSITIVE
Ionization: ESI
Fragmentation mode: HCD
Collision energy: 70% (nominal)
Resolution: 15000
Column name: Kinetex Evo C18 2.6 um 50 x 2.1 mm
Retention time: 2.916 min
Base peak: 300.1474
Precursor m/z: 300.1473
Precursor type: [M+H]+
m/z	relative intensity	assigned
72.0805	2	C4H10N+
90.0338	4	C6H4N+
92.0496	1	C6H6N+
93.0572	6	C6H7N+
100.112	26	C6H14N+
120.0443	6	C7H6NO+
126.0105	17	C6H5ClN+
128.0261	11	C6H7ClN+
129.0102	2	C6H6ClO+
140.9975	33	C6H4ClNO+
144.021	8	C6H7ClNO+
147.0553	5	C8H7N2O+
148.0631	20	C8H8N2O+
154.0053	8	C7H5ClNO+
156.021	51	C7H7ClNO+
168.0084	39	C7H5ClN2O+
168.9923	21	C7H4ClNO2+
170.0003	11	C7H5ClNO2+
182.0242	5	C8H7ClN2O+
183.032	258	C8H8ClN2O+
184.0159	999	C8H7ClNO2+
187.0028	7	C7H6ClNO3+
211.0267	4	C9H8ClN2O2+
212.0346	275	C9H9ClN2O2+
227.0581	402	C10H12ClN2O2+
