Mass spectrum: Terbutryn-OH (TENTATIVE); LC-ESI-QFT; MS2; CE: 30%; R=70000; [M+H]+
Name: Terbutryn-OH
Formula: C10H19N5OS
Exact mass: 257.13
SMILES: C(*)C(*)NC1=NC(=NC(=N1)SC(*))NC(C)(C)C(*)  *=[OH (n=1)& H (n=3)]
Instrument: Q Exactive Plus Orbitrap Thermo Scientific
Instrument type: LC-ESI-QFT
Ms type: MS2
Ion mode: POSITIVE
Ionization: ESI
Fragmentation mode: HCD
Collision energy: 30% (nominal)
Resolution: 70000
Column name: Waters UPLC BEH C18 1.7 um 2.1 mm x 100 mm with pre-column
Retention time: 12.99 min
Precursor m/z: 258.1378
Precursor type: [M+H]+
m/z	relative intensity
55.0294	46
57.045	13
57.0702	67
58.0654	154
68.0244	82
69.0084	99
71.0604	257
71.9903	92
83.0604	197
84.9855	72
85.0509	18
86.0349	560
86.0587	8
89.0168	33
96.0556	307
97.0397	201
98.0587	25
99.0013	40
110.0461	27
111.0302	29
111.0539	27
111.0666	14
112.0507	11
112.0619	26
112.0746	17
113.0168	190
113.0822	24
114.0121	327
114.0662	483
114.9961	11
117.0481	98
122.0587	22
124.0619	13
125.0821	18
127.0073	52
127.0491	10
128.0567	20
132.0225	42
138.0775	355
139.0616	35
139.0853	242
140.0931	25
141.023	271
142.0434	165
154.0723	22
155.0386	480
156.0881	999
157.0178	95
159.0212	9
166.1088	25
180.1245	29
184.0652	580
185.0491	96
187.0523	381
195.1479	10
202.076	40
243.115	30
