Mass spectrum: Chlorotoluron-Chloromethylanilin (TENTATIVE); LC-ESI-QFT; MS2; CE: 30%; R=70000; [M+H]+
Name: Chlorotoluron-Chloromethylanilin
Name: 2-chloro-4-methylaniline
Formula: C7H8ClN
Exact mass: 141.0338
SMILES: CC1=CC(=C(C=C1)N)Cl
InChI: InChI=1S/C7H8ClN/c1-5-2-3-7(9)6(8)4-5/h2-4H,9H2,1H3
Instrument: Q Exactive Plus Orbitrap Thermo Scientific
Instrument type: LC-ESI-QFT
Ms type: MS2
Ion mode: POSITIVE
Ionization: ESI
Fragmentation mode: HCD
Collision energy: 30% (nominal)
Resolution: 70000
Column name: Waters UPLC BEH C18 1.7 um 2.1 mm x 100 mm with pre-column
Retention time: 12.17 min
Precursor m/z: 142.0416
Precursor type: [M+H]+
m/z	relative intensity
53.0389	6
63.0231	22
65.0387	17
66.0465	14
72.9839	15
79.0543	39
89.0385	177
90.0464	69
91.0542	7
92.0494	18
98.9996	109
100.0074	12
106.0651	999
107.0729	538
125.0153	128
127.0183	105
