Mass spectrum: Sulthiame; LC-ESI-ITFT; MS2; CE: 85%; R=15000; [M+H]+
Name: Sulthiame
Name: 4-(1,1-dioxothiazinan-2-yl)benzenesulfonamide
Formula: C10H14N2O4S2
Exact mass: 290.0395
SMILES: C1CCS(=O)(=O)N(C1)C2=CC=C(C=C2)S(=O)(=O)N
InChI: InChI=1S/C10H14N2O4S2/c11-18(15,16)10-5-3-9(4-6-10)12-7-1-2-8-17(12,13)14/h3-6H,1-2,7-8H2,(H2,11,15,16)
Instrument: LTQ Orbitrap XL Thermo Scientific
Instrument type: LC-ESI-ITFT
Ms type: MS2
Ion mode: POSITIVE
Ionization: ESI
Fragmentation mode: HCD
Collision energy: 85% (nominal)
Resolution: 15000
Column name: Kinetex Evo C18 2.6 um 50 x 2.1 mm
Retention time: 4.421 min
Base peak: 313.0287
Precursor m/z: 291.0468
Precursor type: [M+H]+
m/z	relative intensity	assigned
55.054	32	C4H7+
91.0542	22	C7H7+
92.0495	34	C6H6N+
93.0572	23	C6H7N+
94.0412	33	C6H6O+
94.0652	9	C6H8N+
95.0491	14	C6H7O+
104.0495	93	C7H6N+
105.0573	999	C7H7N+
106.0651	32	C7H8N+
108.0445	28	C6H6NO+
117.0574	69	C8H7N+
118.0651	151	C8H8N+
119.073	51	C8H9N+
121.0521	11	C7H7NO+
121.076	22	C7H9N2+
122.0601	138	C7H8NO+
132.0808	94	C9H10N+
134.0604	12	C8H8NO+
137.0474	10	C7H7NO2+
146.0963	26	C10H12N+
147.1043	35	C10H13N+
185.038	777	C7H9N2O2S+
198.0462	8	C8H10N2O2S+
