Mass spectrum: Tentotoxin; LC-ESI-ITFT; MS2; CE: 60%; R=7500; [M-H]-
Name: Tentotoxin
Name: 12-benzylidene-1,6,7-trimethyl-3-(2-methylpropyl)-1,4,7,10-tetrazacyclododecane-2,5,8,11-tetrone
Formula: C22H30N4O4
Exact mass: 414.22671
SMILES: CC1C(=O)NC(C(=O)N(C(=CC2=CC=CC=C2)C(=O)NCC(=O)N1C)C)CC(C)C
InChI: InChI=1S/C22H30N4O4/c1-14(2)11-17-22(30)26(5)18(12-16-9-7-6-8-10-16)21(29)23-13-19(27)25(4)15(3)20(28)24-17/h6-10,12,14-15,17H,11,13H2,1-5H3,(H,23,29)(H,24,28)
Instrument: LTQ Orbitrap XL Thermo Scientific
Instrument type: LC-ESI-ITFT
Ms type: MS2
Ion mode: NEGATIVE
Ionization: ESI
Fragmentation mode: HCD
Collision energy: 60 % (nominal)
Resolution: 7500
Column name: Hypersil GOLD C18 1.9 um 100 x 2.1 mm Thermo Fisher Scientific
Retention time: 18.863 min
Base peak: 413.2183
Precursor m/z: 413.2194
Precursor type: [M-H]-
Precursor intensity: 34299889.53418
m/z	relative intensity	assigned
82.0297	2	C4H4NO-
84.0454	6	C4H6NO-
85.0406	2	C3H5N2O-
101.0716	4	C4H9N2O-
102.0557	17	C4H8NO2-
111.056	12	C5H7N2O-
113.0354	31	C4H5N2O2-
113.072	1	C5H9N2O-
123.0561	15	C6H7N2O-
126.0431	7	C5H6N2O2-
128.0501	8	C9H6N-
132.0815	11	C9H10N-
141.0664	999	C6H9N2O2-
153.1029	32	C8H13N2O-
154.0616	43	C6H8N3O2-
167.0456	55	C7H7N2O3-
185.0717	8	C11H9N2O-
186.0792	4	C11H10N2O-
189.1029	5	C11H13N2O-
201.066	5	C11H9N2O2-
214.0738	234	C12H10N2O2-
215.0817	167	C12H11N2O2-
217.0973	20	C12H13N2O2-
236.1408	3	C12H18N3O2-
243.1493	49	C15H19N2O-
246.1237	68	C13H16N3O2-
254.1501	11	C12H20N3O3-
255.1492	9	C16H19N2O-
256.1205	14	C15H16N2O2-
259.1079	24	C14H15N2O3-
271.1441	326	C16H19N2O2-
284.1773	2	C17H22N3O-
289.1547	2	C16H21N2O3-
295.1314	15	C17H17N3O2-
310.1555	5	C18H20N3O2-
321.1584	2	C15H21N4O4-
338.1869	8	C20H24N3O2-
354.2052	23	C20H26N4O2-
356.1966	24	C20H26N3O3-
369.2285	71	C21H29N4O2-
382.1758	10	C21H24N3O4-
395.2079	3	C22H27N4O3-
413.2188	85	C22H29N4O4-
