Mass spectrum: Dixyrazine ; LC-ESI-ITFT; MS2; CE: 50%; R=7500; [M+H]+
Name: Dixyrazine
Name: 2-(2-{4-[2-Methyl-3-(10H-phenothiazin-10-yl)propyl]piperazin-1-yl}ethoxy)ethan-1-ol
Formula: C24H33N3O2S
Exact mass: 427.2293
SMILES: CC(CN1CCN(CCOCCO)CC1)CN1C2=CC=CC=C2SC2=CC=CC=C12
InChI: InChI=1S/C24H33N3O2S/c1-20(18-26-12-10-25(11-13-26)14-16-29-17-15-28)19-27-21-6-2-4-8-23(21)30-24-9-5-3-7-22(24)27/h2-9,20,28H,10-19H2,1H3
Instrument: LTQ Orbitrap XL Thermo Fisher Scientific
Instrument type: LC-ESI-ITFT
Ms type: MS2
Ion mode: POSITIVE
Ionization: ESI
Fragmentation mode: HCD
Collision energy: 50% (nominal)
Resolution: 7500
Column name: Hypersil GOLD C18 1.9 um 100 x 2.1 mm Thermo Fisher Scientific
Precursor m/z: 428.2367
Precursor type: [M+H]+
m/z	relative intensity
57.1028	3
57.1118	3
57.1285	3
57.1339	4
57.1478	2
58.0649	4
70.065	29
82.065	7
84.0807	5
87.044	44
97.076	63
98.0838	276
99.0916	27
100.1124	4
101.1073	384
110.0839	5
112.112	11
113.1073	5
118.0863	11
125.1073	128
127.1228	3
132.1018	5
139.1231	3
140.1308	31
144.1019	49
155.1543	15
172.1207	106
180.0808	55
187.1441	902
198.0367	4
199.0454	14
212.053	433
220.112	3
221.1201	16
229.1914	999
254.1002	53
428.2367	19
