Mass spectrum: Butyrolactone II; LC-ESI-ITFT; MS2; CE: 15%; R=7500; [M+H]+
Name: Butyrolactone II
Name: methyl 4-hydroxy-3-(4-hydroxyphenyl)-2-[(4-hydroxyphenyl)methyl]-5-oxofuran-2-carboxylate
Formula: C19H16O7
Exact mass: 356.0896
SMILES: COC(=O)C1(C(=C(C(=O)O1)O)C2=CC=C(C=C2)O)CC3=CC=C(C=C3)O
InChI: InChI=1S/C19H16O7/c1-25-18(24)19(10-11-2-6-13(20)7-3-11)15(16(22)17(23)26-19)12-4-8-14(21)9-5-12/h2-9,20-22H,10H2,1H3
Instrument: LTQ Orbitrap XL Thermo Scientific
Instrument type: LC-ESI-ITFT
Ms type: MS2
Ion mode: POSITIVE
Ionization: ESI
Fragmentation mode: HCD
Collision energy: 15 % (nominal)
Resolution: 7500
Column name: Hypersil GOLD C18 1.9 um 100 x 2.1 mm Thermo Fisher Scientific
Retention time: 15.733 min
Base peak: 357.0985
Precursor m/z: 357.0969
Precursor type: [M+H]+
Precursor intensity: 8753816.033447
m/z	relative intensity	assigned
107.0495	9	C7H7O+
121.0286	10	C7H5O2+
131.0497	5	C9H7O+
159.0448	12	C10H7O2+
187.0387	5	C11H7O3+
203.0345	145	C11H7O4+
217.0504	26	C12H9O4+
219.028	5	C11H7O5+
224.0838	7	C15H12O2+
231.0296	16	C12H7O5+
233.0963	7	C17H13O+
235.0759	18	C16H11O2+
251.0702	120	C16H11O3+
251.1072	20	C17H15O2+
253.0863	18	C16H13O3+
263.0709	194	C17H11O3+
277.0869	15	C18H13O3+
279.0657	174	C17H11O4+
281.0818	21	C17H13O4+
289.0491	9	C18H9O4+
295.0972	61	C18H15O4+
297.0765	999	C17H13O5+
307.0608	28	C18H11O5+
311.0924	43	C18H15O5+
325.0715	204	C18H13O6+
357.0978	444	C19H17O7+
