Mass spectrum: Cyclizine; LC-ESI-ITFT; MS2; CE: 170%; R=15000; [M+H]+
Name: Cyclizine
Name: 1-benzhydryl-4-methylpiperazine
Formula: C18H22N2
Exact mass: 266.1783
SMILES: CN1CCN(CC1)C(C2=CC=CC=C2)C3=CC=CC=C3
InChI: InChI=1S/C18H22N2/c1-19-12-14-20(15-13-19)18(16-8-4-2-5-9-16)17-10-6-3-7-11-17/h2-11,18H,12-15H2,1H3
Instrument: LTQ Orbitrap XL Thermo Scientific
Instrument type: LC-ESI-ITFT
Ms type: MS2
Ion mode: POSITIVE
Ionization: ESI
Fragmentation mode: HCD
Collision energy: 170% (nominal)
Resolution: 15000
Column name: Kinetex Evo C18 2.6 um 50 x 2.1 mm
Retention time: 7.682 min
Base peak: 267.1856
Precursor m/z: 267.1856
Precursor type: [M+H]+
m/z	relative intensity	assigned
63.0226	23	C5H3+
65.0384	51	C5H5+
75.0228	5	C6H3+
76.0307	11	C6H4+
77.0385	10	C6H5+
78.0464	34	C6H6+
87.0229	8	C7H3+
89.0386	58	C7H5+
91.0542	32	C7H7+
102.0464	98	C8H6+
105.0446	17	C6H5N2+
113.0387	9	C9H5+
115.0542	432	C9H7+
125.0384	5	C10H5+
126.0464	114	C10H6+
127.054	19	C10H7+
128.062	187	C10H8+
139.0542	173	C11H7+
141.0699	36	C11H9+
150.0464	78	C12H6+
151.0542	114	C12H7+
152.062	461	C12H8+
155.0605	22	C10H7N2+
163.0542	134	C13H7+
164.062	242	C13H8+
165.0698	999	C13H9+
166.0777	6	C13H10+
169.0648	66	C12H9O+
179.0603	74	C12H7N2+
