Mass spectrum: Mefruside; LC-ESI-ITFT; MS2; CE: 20%; R=7500; [M+H]+
Name: Mefruside
Name: 4-Chloro-N1-methyl-N1-[(2-methyloxolan-2-yl)methyl]benzene-1,3-disulfonamide
Formula: C13H19ClN2O5S2
Exact mass: 382.0424
SMILES: CN(CC1(C)CCCO1)S(=O)(=O)C1=CC=C(Cl)C(=C1)S(N)(=O)=O
InChI: InChI=1S/C13H19ClN2O5S2/c1-13(6-3-7-21-13)9-16(2)23(19,20)10-4-5-11(14)12(8-10)22(15,17)18/h4-5,8H,3,6-7,9H2,1-2H3,(H2,15,17,18)
Instrument: LTQ Orbitrap XL Thermo Fisher Scientific
Instrument type: LC-ESI-ITFT
Ms type: MS2
Ion mode: POSITIVE
Ionization: ESI
Fragmentation mode: HCD
Collision energy: 20% (nominal)
Resolution: 7500
Column name: Hypersil GOLD C18 1.9 um 100 x 2.1 mm Thermo Fisher Scientific
Precursor m/z: 383.0497
Precursor type: [M+H]+
m/z	relative intensity
57.0176	5
69.0696	8
71.0857	4
73.1545	5
79.0539	24
81.0696	332
84.0805	161
86.0598	54
97.0646	66
99.0803	337
110.0965	5
111.1033	3
128.1067	347
129.1146	999
136.0684	5
188.9118	6
188.9216	23
203.2751	12
237.9385	7
253.9338	13
267.9498	20
273.8045	16
284.9764	735
288.0456	16
296.9761	95
352.0083	14
365.0386	47
383.0497	685
