Mass spectrum: Dibucaine; ESI-QTOF; MS2; CE: 30eV; R=15000; [M+H]+
Name: Dibucaine
Name: 2-Butoxy-N-[2-(diethylamino)ethyl]quinoline-4-carboxamide
Formula: C20H29N3O2
Exact mass: 343.226
SMILES: CCCCOC1=CC(C(=O)NCCN(CC)CC)=C2C=CC=CC2=N1
InChI: InChI=1S/C20H29N3O2/c1-4-7-14-25-19-15-17(16-10-8-9-11-18(16)22-19)20(24)21-12-13-23(5-2)6-3/h8-11,15H,4-7,12-14H2,1-3H3,(H,21,24)
Instrument: TripleTOF 5600+SCIEX
Instrument type: ESI-QTOF
Ms type: MS2
Ion mode: POSITIVE
Ionization: ESI
Fragmentation mode: CID
Collision energy: 30 eV
Resolution: 15000
Precursor m/z: 344.2333
Precursor type: [M+H]+
m/z	relative intensity
57.0726	1
72.0828	1
74.0983	13
100.1132	11
116.0504	18
130.0659	1
144.0453	20
146.0611	2
153.0457	1
158.0609	2
160.0765	1
172.0404	31
182.0977	1
187.0877	2
200.1081	3
202.1238	2
215.083	248
225.1402	1
228.1034	19
243.1507	2
271.1465	999
288.1727	3
344.2333	114
