Mass spectrum: Sulfamoxole; LC-ESI-QTOF; MS2; CE: 10 eV; R=3600; [M+H]+
Name: Sulfamoxole
Name: 4-Amino-N-(4,5-dimethyl-1,3-oxazol-2-yl)benzene-1-sulfonamide
Formula: C11H13N3O3S
Exact mass: 267.0678
SMILES: CC1=C(C)N=C(NS(=O)(=O)C2=CC=C(N)C=C2)O1
InChI: InChI=1S/C11H13N3O3S/c1-7-8(2)17-11(13-7)14-18(15,16)10-5-3-9(12)4-6-10/h3-6H,12H2,1-2H3,(H,13,14)
Instrument: 6671 QTOF Agilent
Instrument type: LC-ESI-QTOF
Ms type: MS2
Ion mode: POSITIVE
Ionization: ESI
Fragmentation mode: CID
Collision energy: 10 eV
Resolution: 3600
Precursor m/z: 268.0751
Precursor type: [M+H]+
m/z	relative intensity
65.0356	251
92.0455	999
108.0393	686
112.0575	138
113.0652	643
140.0095	112
156.0035	704
268.0751	507
