Mass spectrum: Chaetocin; LC-ESI-ITFT; MS2; CE: 20%; R=7500; [M+H]+
Name: Chaetocin
Name: 14-(hydroxymethyl)-3-[14-(hydroxymethyl)-18-methyl-13,17-dioxo-15,16-dithia-10,12,18-triazapentacyclo[12.2.2.01,12.03,11.04,9]octadeca-4,6,8-trien-3-yl]-18-methyl-15,16-dithia-10,12,18-triazapentacyclo[12.2.2.01,12.03,11.04,9]octadeca-4,6,8-triene-13,17-dione
Formula: C30H28N6O6S4
Exact mass: 696.0953
SMILES: CN1C(=O)C23CC4(C(N2C(=O)C1(SS3)CO)NC5=CC=CC=C54)C67CC89C(=O)N(C(C(=O)N8C6NC1=CC=CC=C71)(SS9)CO)C
InChI: InChI=1S/C30H28N6O6S4/c1-33-21(39)27-11-25(15-7-3-5-9-17(15)31-19(25)35(27)23(41)29(33,13-37)45-43-27)26-12-28-22(40)34(2)30(14-38,46-44-28)24(42)36(28)20(26)32-18-10-6-4-8-16(18)26/h3-10,19-20,31-32,37-38H,11-14H2,1-2H3
Instrument: LTQ Orbitrap XL Thermo Scientific
Instrument type: LC-ESI-ITFT
Ms type: MS2
Ion mode: POSITIVE
Ionization: ESI
Fragmentation mode: HCD
Collision energy: 20 % (nominal)
Resolution: 7500
Column name: Hypersil GOLD C18 1.9 um 100 x 2.1 mm Thermo Fisher Scientific
Retention time: 21.353 min
Base peak: 697.1035
Precursor m/z: 697.1026
Precursor type: [M+H]+
Precursor intensity: 2355487.131348
m/z	relative intensity	assigned
201.0651	144	C9H7N5O+
267.1002	312	C7H17N5O4S+
273.8888	376	C8H2O3S4+
283.0949	351	C15H13N3O3+
285.1114	308	C8H23N5S3+
286.1194	373	C9H22N2O6S+
348.0473	999	C15H14N3O3S2+
