Mass spectrum: Metoclopramide; LC-ESI-ITFT; MS2; CE: 120%; R=15000; [M+H]+
Name: Metoclopramide
Name: 4-amino-5-chloro-N-[2-(diethylamino)ethyl]-2-methoxybenzamide
Formula: C14H22ClN3O2
Exact mass: 299.1401
SMILES: CCN(CC)CCNC(=O)C1=CC(=C(C=C1OC)N)Cl
InChI: InChI=1S/C14H22ClN3O2/c1-4-18(5-2)7-6-17-14(19)10-8-11(15)12(16)9-13(10)20-3/h8-9H,4-7,16H2,1-3H3,(H,17,19)
Instrument: LTQ Orbitrap XL Thermo Scientific
Instrument type: LC-ESI-ITFT
Ms type: MS2
Ion mode: POSITIVE
Ionization: ESI
Fragmentation mode: HCD
Collision energy: 120% (nominal)
Resolution: 15000
Column name: Kinetex Evo C18 2.6 um 50 x 2.1 mm
Retention time: 2.847 min
Base peak: 300.1474
Precursor m/z: 300.1473
Precursor type: [M+H]+
m/z	relative intensity	assigned
54.0337	5	C3H4N+
63.0228	92	C5H3+
65.0384	18	C5H5+
72.0807	12	C4H10N+
78.0338	269	C5H4N+
80.0495	11	C5H6N+
90.0339	369	C6H4N+
91.0417	16	C6H5N+
92.0495	26	C6H6N+
93.0573	117	C6H7N+
98.9996	122	C5H4Cl+
100.1123	7	C6H14N+
105.0448	64	C6H5N2+
106.0291	9	C6H4NO+
108.0444	63	C6H6NO+
110.9996	5	C6H4Cl+
113.0027	978	C5H4ClN+
114.0105	14	C5H5ClN+
119.0602	13	C7H7N2+
120.0444	29	C7H6NO+
121.0524	6	C7H7NO+
126.0105	119	C6H5ClN+
127.0183	31	C6H6ClN+
128.0261	52	C6H7ClN+
129.0102	39	C6H6ClO+
133.0395	9	C7H5N2O+
140.0137	78	C6H5ClN2+
140.9976	999	C6H4ClNO+
142.0015	14	CH5ClN3O3+
144.021	33	C6H7ClNO+
147.0556	10	C8H7N2O+
148.0631	40	C8H8N2O+
154.0055	67	C7H5ClNO+
155.0132	4	C7H6ClNO+
156.0211	58	C7H7ClNO+
168.0086	500	C7H5ClN2O+
168.9925	127	C7H4ClNO2+
170.0003	43	C7H5ClNO2+
181.0163	24	C8H6ClN2O+
182.0244	12	C8H7ClN2O+
183.0323	23	C8H8ClN2O+
184.0161	216	C8H7ClNO2+
187.0031	36	C7H6ClNO3+
212.0349	19	C9H9ClN2O2+
