Mass spectrum: 15-Acetyldeoxynivalenol; LC-ESI-ITFT; MS2; CE: 40%; R=7500; [M-H]-
Name: 15-Acetyldeoxynivalenol
Formula: C17H22O7
Exact mass: 338.1366
SMILES: CC1=CC2C(C(C1=O)O)(C3(CC(C(C34CO4)O2)O)C)COC(=O)C
InChI: InChI=1S/C17H22O7/c1-8-4-11-16(6-22-9(2)18,13(21)12(8)20)15(3)5-10(19)14(24-11)17(15)7-23-17/h4,10-11,13-14,19,21H,5-7H2,1-3H3
Instrument: LTQ Orbitrap XL Thermo Scientific
Instrument type: LC-ESI-ITFT
Ms type: MS2
Ion mode: NEGATIVE
Ionization: ESI
Fragmentation mode: HCD
Collision energy: 40 % (nominal)
Resolution: 7500
Column name: Hypersil GOLD C18 1.9 um 100 x 2.1 mm Thermo Fisher Scientific
Retention time: 10.933 min
Base peak: 397.1509
Precursor m/z: 337.1293
Precursor type: [M-H]-
Precursor intensity: 969301.953125
m/z	relative intensity	assigned
135.0455	999	C8H7O2-
