Mass spectrum: Ethambutol; LC-ESI-ITFT; MS2; CE: 35%; R=15000; [M+H]+
Name: Ethambutol
Name: 2-[2-(1-hydroxybutan-2-ylamino)ethylamino]butan-1-ol
Formula: C10H24N2O2
Exact mass: 204.1838
SMILES: CCC(CO)NCCNC(CC)CO
InChI: InChI=1S/C10H24N2O2/c1-3-9(7-13)11-5-6-12-10(4-2)8-14/h9-14H,3-8H2,1-2H3
Instrument: LTQ Orbitrap XL Thermo Scientific
Instrument type: LC-ESI-ITFT
Ms type: MS2
Ion mode: POSITIVE
Ionization: ESI
Fragmentation mode: HCD
Collision energy: 35% (nominal)
Resolution: 15000
Column name: Kinetex Evo C18 2.6 um 50 x 2.1 mm
Retention time: 0.343 min
Base peak: 205.1923
Precursor m/z: 205.1911
Precursor type: [M+H]+
m/z	relative intensity	assigned
62.0599	1	C2H8NO+
74.06	1	C3H8NO+
90.0914	5	C4H12NO+
98.0964	2	C6H12N+
116.107	999	C6H14NO+
205.1911	341	C10H25N2O2+
