Mass spectrum: PR toxin; LC-ESI-ITFT; MS2; CE: 60%; R=7500; [M+H]+
Name: PR toxin
Name: Spiro(naphthalene-2(1H),2`-oxirane)-3`-carboxaldehyde, 3,5,6,7,8,8a-hexahydro-7-acetoxy-5,6-epoxy-3`,8,8a-trimethyl-3-oxo-
Name: (3`-formyl-3,3`,3a-trimethyl-6-oxospiro[2,3,4,7b-tetrahydro-1aH-naphtho[1,2-b]oxirene-5,2`-oxirane]-2-yl) acetate
Formula: C17H20O6
Exact mass: 320.1260
SMILES: CC1C(C2C(O2)C3=CC(=O)C4(CC13C)C(O4)(C)C=O)OC(=O)C
InChI: InChI=1S/C17H20O6/c1-8-12(21-9(2)19)14-13(22-14)10-5-11(20)17(6-15(8,10)3)16(4,7-18)23-17/h5,7-8,12-14H,6H2,1-4H3
Instrument: LTQ Orbitrap XL Thermo Scientific
Instrument type: LC-ESI-ITFT
Ms type: MS2
Ion mode: POSITIVE
Ionization: ESI
Fragmentation mode: HCD
Collision energy: 60 % (nominal)
Resolution: 7500
Column name: Hypersil GOLD C18 1.9 um 100 x 2.1 mm Thermo Fisher Scientific
Retention time: 15.775 min
Base peak: 321.1335
Precursor m/z: 321.1333
Precursor type: [M+H]+
Precursor intensity: 3327179.880859
m/z	relative intensity	assigned
107.0491	114	C7H7O+
107.0855	156	C8H11+
109.065	188	C7H9O+
117.0694	317	C9H9+
119.0852	277	C9H11+
121.0645	442	C8H9O+
131.0849	389	C10H11+
133.1008	120	C10H13+
135.0435	230	C8H7O2+
135.0804	456	C9H11O+
137.0592	118	C8H9O2+
143.0852	122	C11H11+
145.0644	245	C10H9O+
145.1009	999	C11H13+
146.0722	220	C10H10O+
147.0802	522	C10H11O+
149.0592	212	C9H9O2+
149.0958	133	C10H13O+
154.0774	101	C12H10+
155.0861	250	C12H11+
158.0722	700	C11H10O+
159.0806	397	C11H11O+
159.1171	198	C12H15+
161.0592	161	C10H9O2+
161.096	748	C11H13O+
163.0753	257	C10H11O2+
163.1112	128	C11H15O+
169.1012	206	C13H13+
171.0809	147	C12H11O+
172.0885	232	C12H12O+
173.0955	793	C12H13O+
175.075	426	C11H11O2+
177.091	168	C11H13O2+
187.1111	208	C13H15O+
189.0902	190	C12H13O2+
191.1072	318	C12H15O2+
197.0957	97	C14H13O+
201.0701	106	C16H9+
201.0911	113	C13H13O2+
