Mass spectrum: Dothiepin; LC-ESI-QTOF; MS2; CE: 40 eV; R=3600; [M+H]+
Name: Dothiepin
Name: 3-(Dibenzo[b,e]thiepin-11(6H)-ylidene)-N,N-dimethylpropan-1-amine
Formula: C19H21NS
Exact mass: 295.1395
SMILES: CN(C)CCC=C1C2=CC=CC=C2CSC2=C1C=CC=C2
InChI: InChI=1S/C19H21NS/c1-20(2)13-7-11-17-16-9-4-3-8-15(16)14-21-19-12-6-5-10-18(17)19/h3-6,8-12H,7,13-14H2,1-2H3
Instrument: 6586 QTOF Agilent
Instrument type: LC-ESI-QTOF
Ms type: MS2
Ion mode: POSITIVE
Ionization: ESI
Fragmentation mode: CID
Collision energy: 40 eV
Resolution: 3600
Precursor m/z: 296.1468
Precursor type: [M+H]+
m/z	relative intensity
44.98	137
58.0658	215
65.0384	62
91.0541	414
115.0536	353
117.0693	159
123.0255	57
128.061	75
129.0687	57
141.0688	82
147.0255	108
165.0692	314
178.0765	661
189.0689	117
190.0764	65
191.0846	203
192.0918	81
201.069	55
202.0766	999
203.084	621
208.033	82
209.041	54
210.0487	144
215.0846	234
216.091	81
217.1	320
218.1069	123
221.0409	985
223.0569	141
234.0485	125
235.0564	128
