Mass spectrum: Tetracycline; LC-ESI-ITFT; MS2; CE: 65%; R=15000; [M+H]+
Name: Tetracycline
Name: 2-[amino(hydroxy)methylidene]-4-(dimethylamino)-6,10,11,12a-tetrahydroxy-6-methyl-4,4a,5,5a-tetrahydrotetracene-1,3,12-trione
Formula: C22H24N2O8
Exact mass: 444.1533
SMILES: [H][C@@]12C[C@@]3([H])C(=C(O)[C@]1(O)C(=O)C(C(N)=O)=C(O)[C@H]2N(C)C)C(=O)C1=C(C=CC=C1O)[C@@]3(C)O
InChI: InChI=1S/C22H24N2O8/c1-21(31)8-5-4-6-11(25)12(8)16(26)13-9(21)7-10-15(24(2)3)17(27)14(20(23)30)19(29)22(10,32)18(13)28/h4-6,9-10,15,25,27-28,31-32H,7H2,1-3H3,(H2,23,30)/t9-,10-,15-,21+,22-/m0/s1
Instrument: LTQ Orbitrap XL Thermo Scientific
Instrument type: LC-ESI-ITFT
Ms type: MS2
Ion mode: POSITIVE
Ionization: ESI
Fragmentation mode: HCD
Collision energy: 65% (nominal)
Resolution: 15000
Column name: Kinetex Evo C18 2.6 um 50 x 2.1 mm
Retention time: 2.655 min
Base peak: 300.1475
Precursor m/z: 445.1605
Precursor type: [M+H]+
m/z	relative intensity	assigned
58.0649	46	C3H8N+
70.065	39	C4H8N+
84.0443	12	C4H6NO+
86.0601	107	C4H8NO+
98.0601	999	C5H8NO+
126.055	98	C6H8NO2+
139.0262	30	C6H5NO3+
152.0345	10	C7H6NO3+
154.0499	214	C7H8NO3+
187.0755	36	C12H11O2+
194.0454	15	C9H8NO4+
195.0802	48	C14H11O+
211.075	51	C14H11O2+
213.091	71	C14H13O2+
223.0755	133	C15H11O2+
226.0626	245	C14H10O3+
235.0753	56	C16H11O2+
236.0471	20	C15H8O3+
239.0703	80	C15H11O3+
241.086	558	C15H13O3+
242.0574	103	C14H10O4+
243.0653	32	C14H11O4+
251.0704	132	C16H11O3+
252.0418	190	C15H8O4+
253.0857	23	C16H13O3+
254.0574	146	C15H10O4+
257.0809	61	C15H13O4+
263.0702	72	C17H11O3+
267.0653	389	C16H11O4+
269.0809	372	C16H13O4+
278.0572	106	C17H10O4+
279.0656	22	C17H11O4+
281.1042	26	C17H15NO3+
291.065	69	C18H11O4+
293.0812	32	C18H13O4+
296.1287	23	C18H18NO3+
303.0657	9	C19H11O4+
306.0531	28	C18H10O5+
319.0603	16	C19H11O5+
321.076	20	C19H13O5+
334.0476	72	C19H10O6+
337.0717	22	C19H13O6+
