Mass spectrum: Penicillic acid; LC-ESI-ITFT; MS2; CE: 30%; R=7500; [M-H]-
Name: Penicillic acid
Name: 3-methoxy-5-methyl-4-oxohexa-2,5-dienoic acid
Formula: C8H10O4
Exact mass: 170.0579
SMILES: CC(=C)C(=O)C(=CC(=O)O)OC
InChI: InChI=1S/C8H10O4/c1-5(2)8(11)6(12-3)4-7(9)10/h4H,1H2,2-3H3,(H,9,10)
Instrument: LTQ Orbitrap XL Thermo Scientific
Instrument type: LC-ESI-ITFT
Ms type: MS2
Ion mode: NEGATIVE
Ionization: ESI
Fragmentation mode: HCD
Collision energy: 30 % (nominal)
Resolution: 7500
Column name: Hypersil GOLD C18 1.9 um 100 x 2.1 mm Thermo Fisher Scientific
Retention time: 8.435 min
Base peak: 169.051
Precursor m/z: 169.0506
Precursor type: [M-H]-
Precursor intensity: 8989851.105225
m/z	relative intensity	assigned
65.0396	7	C5H5-
93.0347	208	C6H5O-
97.0657	6	C6H9O-
110.0373	999	C6H6O2-
124.0166	8	C6H4O3-
169.0506	19	C8H9O4-
