Mass spectrum: Equisetin; LC-ESI-ITFT; MS2; CE: 20%; R=7500; [M+H]+
Name: Equisetin
Name: 3-[(1,6-dimethyl-2-prop-1-enyl-4a,5,6,7,8,8a-hexahydro-2H-naphthalen-1-yl)-hydroxymethylidene]-5-(hydroxymethyl)-1-methylpyrrolidine-2,4-dione
Formula: C22H31NO4
Exact mass: 373.2253
SMILES: CC=CC1C=CC2CC(CCC2C1(C)C(=C3C(=O)C(N(C3=O)C)CO)O)C
InChI: InChI=1S/C22H31NO4/c1-5-6-15-9-8-14-11-13(2)7-10-16(14)22(15,3)20(26)18-19(25)17(12-24)23(4)21(18)27/h5-6,8-9,13-17,24,26H,7,10-12H2,1-4H3
Instrument: LTQ Orbitrap XL Thermo Scientific
Instrument type: LC-ESI-ITFT
Ms type: MS2
Ion mode: POSITIVE
Ionization: ESI
Fragmentation mode: HCD
Collision energy: 20 % (nominal)
Resolution: 7500
Column name: Hypersil GOLD C18 1.9 um 100 x 2.1 mm Thermo Fisher Scientific
Retention time: 27.742 min
Base peak: 374.2333
Precursor m/z: 374.2326
Precursor type: [M+H]+
Precursor intensity: 11793795.11377
m/z	relative intensity	assigned
81.0697	3	C6H9+
83.0854	6	C6H11+
95.0856	4	C7H11+
105.0701	5	C8H9+
119.0857	17	C9H11+
133.1013	7	C10H13+
144.0661	10	C6H10NO3+
147.117	15	C11H15+
149.1329	2	C11H17+
170.0451	12	C7H8NO4+
170.0814	35	C8H12NO3+
175.1483	425	C13H19+
177.1636	20	C13H21+
184.0971	8	C9H14NO3+
189.1645	6	C14H21+
200.0921	77	C9H14NO4+
203.1803	2	C15H23+
205.1953	20	C15H25+
213.163	2	C16H21+
231.1743	4	C16H23O+
288.1606	2	C17H22NO3+
290.1738	5	C17H24NO3+
292.154	4	C16H22NO4+
294.17	9	C16H24NO4+
302.1752	6	C18H24NO3+
306.1688	6	C17H24NO4+
346.2379	84	C21H32NO3+
356.2222	233	C22H30NO3+
374.2328	999	C22H32NO4+
