Mass spectrum: Antipyrine; LC-ESI-ITFT; MS2; CE: 45%; R=15000; [M+H]+
Name: Antipyrine
Name: 1,5-dimethyl-2-phenylpyrazol-3-one
Formula: C11H12N2O
Exact mass: 188.0950
SMILES: CC1=CC(=O)N(N1C)C2=CC=CC=C2
InChI: InChI=1S/C11H12N2O/c1-9-8-11(14)13(12(9)2)10-6-4-3-5-7-10/h3-8H,1-2H3
Instrument: LTQ Orbitrap XL Thermo Scientific
Instrument type: LC-ESI-ITFT
Ms type: MS2
Ion mode: POSITIVE
Ionization: ESI
Fragmentation mode: CID
Collision energy: 45% (nominal)
Resolution: 15000
Column name: Kinetex Evo C18 2.6 um 50 x 2.1 mm
Retention time: 5.974 min
Base peak: 189.1023
Precursor m/z: 189.1022
Precursor type: [M+H]+
m/z	relative intensity	assigned
56.0492	2	C3H6N+
58.0649	5	C3H8N+
77.0387	1	C6H5+
91.0542	5	C7H7+
96.0444	4	C5H6NO+
96.0682	4	C5H8N2+
98.0599	1	C5H8NO+
103.0542	3	C8H7+
104.0495	10	C7H6N+
105.0335	1	C7H5O+
105.0699	3	C8H9+
106.0652	3	C7H8N+
111.0553	5	C5H7N2O+
115.0539	1	C9H7+
117.0574	6	C8H7N+
117.0699	6	C9H9+
118.0652	40	C8H8N+
120.0808	42	C8H10N+
129.0699	5	C10H9+
130.0652	64	C9H8N+
131.073	181	C9H9N+
132.0808	41	C9H10N+
133.0521	2	C8H7NO+
133.076	18	C8H9N2+
134.0965	4	C9H12N+
135.0553	7	C7H7N2O+
144.0809	146	C10H10N+
145.0649	18	C10H9O+
145.0757	1	C9H9N2+
145.0888	3	C10H11N+
146.0839	107	C9H10N2+
146.0965	85	C10H12N+
147.0917	100	C9H11N2+
148.0757	22	C9H10NO+
149.071	4	C8H9N2O+
154.065	1	C11H8N+
157.0522	1	C10H7NO+
158.0602	7	C10H8NO+
159.0918	3	C10H11N2+
160.0996	4	C10H12N2+
161.1074	141	C10H13N2+
162.0913	6	C10H12NO+
171.0915	3	C11H11N2+
172.0758	67	C11H10NO+
174.0788	61	C10H10N2O+
189.1023	999	C11H13N2O+
