Mass spectrum: Dixyrazine ; LC-ESI-ITFT; MS2; CE: 55%; R=7500; [M+H]+
Name: Dixyrazine
Name: 2-(2-{4-[2-Methyl-3-(10H-phenothiazin-10-yl)propyl]piperazin-1-yl}ethoxy)ethan-1-ol
Formula: C24H33N3O2S
Exact mass: 427.2293
SMILES: CC(CN1CCN(CCOCCO)CC1)CN1C2=CC=CC=C2SC2=CC=CC=C12
InChI: InChI=1S/C24H33N3O2S/c1-20(18-26-12-10-25(11-13-26)14-16-29-17-15-28)19-27-21-6-2-4-8-23(21)30-24-9-5-3-7-22(24)27/h2-9,20,28H,10-19H2,1H3
Instrument: LTQ Orbitrap XL Thermo Fisher Scientific
Instrument type: LC-ESI-ITFT
Ms type: MS2
Ion mode: POSITIVE
Ionization: ESI
Fragmentation mode: HCD
Collision energy: 55% (nominal)
Resolution: 7500
Column name: Hypersil GOLD C18 1.9 um 100 x 2.1 mm Thermo Fisher Scientific
Precursor m/z: 428.2367
Precursor type: [M+H]+
m/z	relative intensity
57.0571	4
57.062	7
57.0748	7
57.0864	6
57.1028	4
57.1049	4
57.13	5
58.065	10
70.065	58
82.065	19
84.0807	13
87.044	84
97.076	139
98.0839	600
99.0916	48
100.0759	9
101.1073	653
110.084	15
111.0913	3
112.1121	24
113.1073	11
118.0862	19
125.1073	209
127.1228	3
130.086	6
132.102	9
139.1228	3
140.1307	48
144.102	97
155.1544	27
172.1207	190
180.0809	153
187.1442	999
198.037	10
199.0452	29
212.053	669
220.1124	8
221.1202	24
229.1915	875
254.1001	54
428.2367	3
