Mass spectrum: Phenazone; LC-ESI-ITFT; MS2; CE: 55%; R=7500; [M+H]+
Name: Phenazone
Name: 1,5-Dimethyl-2-phenyl-1,2-dihydro-3H-pyrazol-3-one
Formula: C11H12N2O
Exact mass: 188.095
SMILES: CN1N(C(=O)C=C1C)C1=CC=CC=C1
InChI: InChI=1S/C11H12N2O/c1-9-8-11(14)13(12(9)2)10-6-4-3-5-7-10/h3-8H,1-2H3
Instrument: LTQ Orbitrap XL Thermo Fisher Scientific
Instrument type: LC-ESI-ITFT
Ms type: MS2
Ion mode: POSITIVE
Ionization: ESI
Fragmentation mode: HCD
Collision energy: 55% (nominal)
Resolution: 7500
Column name: Hypersil GOLD C18 1.9 um 100 x 2.1 mm Thermo Fisher Scientific
Precursor m/z: 189.1023
Precursor type: [M+H]+
m/z	relative intensity
56.0494	8
58.065	9
70.0651	1
77.0385	1
81.0449	1
91.0541	5
95.0605	1
96.0682	12
98.0601	3
104.0496	22
106.0652	9
111.0555	1
117.0699	4
118.0652	13
120.0809	14
130.0652	18
131.073	28
132.0808	15
133.076	4
134.0964	3
135.0557	1
144.0809	28
145.0649	10
146.084	28
147.0918	47
148.0759	4
149.0711	3
159.0921	1
160.0996	1
161.1075	52
174.079	27
189.1023	999
