Mass spectrum: Dibucaine; LC-ESI-ITFT; MS2; CE: 65%; R=15000; [M+H]+
Name: Dibucaine
Name: 2-butoxy-N-[2-(diethylamino)ethyl]quinoline-4-carboxamide
Formula: C20H29N3O2
Exact mass: 343.2260
SMILES: CCCCOC1=NC2=CC=CC=C2C(=C1)C(=O)NCCN(CC)CC
InChI: InChI=1S/C20H29N3O2/c1-4-7-14-25-19-15-17(16-10-8-9-11-18(16)22-19)20(24)21-12-13-23(5-2)6-3/h8-11,15H,4-7,12-14H2,1-3H3,(H,21,24)
Instrument: LTQ Orbitrap XL Thermo Scientific
Instrument type: LC-ESI-ITFT
Ms type: MS2
Ion mode: POSITIVE
Ionization: ESI
Fragmentation mode: HCD
Collision energy: 65% (nominal)
Resolution: 15000
Column name: Kinetex Evo C18 2.6 um 50 x 2.1 mm
Retention time: 8.769 min
Base peak: 344.233
Precursor m/z: 344.2333
Precursor type: [M+H]+
m/z	relative intensity	assigned
57.0696	52	C4H9+
72.0807	17	C4H10N+
74.0963	44	C4H12N+
86.0962	3	C5H12N+
100.112	103	C6H14N+
116.0494	245	C8H6N+
132.0444	4	C8H6NO+
144.0443	356	C9H6NO+
146.0599	25	C9H8NO+
158.06	23	C10H8NO+
171.0553	107	C10H7N2O+
172.0392	486	C10H6NO2+
182.0962	6	C13H12N+
187.0865	30	C11H11N2O+
200.1068	21	C13H14NO+
202.1225	6	C13H16NO+
215.0815	999	C12H11N2O2+
225.1387	4	C15H17N2+
227.1178	36	C14H15N2O+
228.1018	82	C14H14NO2+
243.1495	14	C15H19N2O+
253.1334	7	C16H17N2O+
271.144	260	C16H19N2O2+
