Mass spectrum: Dixyrazine; LC-ESI-ITFT; MS2; CE: 65%; R=15000; [M+H]+
Name: Dixyrazine
Name: 2-[2-[4-(2-methyl-3-phenothiazin-10-ylpropyl)piperazin-1-yl]ethoxy]ethanol
Formula: C24H33N3O2S
Exact mass: 427.2293
SMILES: CC(CN1CCN(CC1)CCOCCO)CN2C3=CC=CC=C3SC4=CC=CC=C42
InChI: InChI=1S/C24H33N3O2S/c1-20(18-26-12-10-25(11-13-26)14-16-29-17-15-28)19-27-21-6-2-4-8-23(21)30-24-9-5-3-7-22(24)27/h2-9,20,28H,10-19H2,1H3
Instrument: LTQ Orbitrap XL Thermo Scientific
Instrument type: LC-ESI-ITFT
Ms type: MS2
Ion mode: POSITIVE
Ionization: ESI
Fragmentation mode: HCD
Collision energy: 65% (nominal)
Resolution: 15000
Column name: Kinetex Evo C18 2.6 um 50 x 2.1 mm
Retention time: 8.979 min
Base peak: 428.2364
Precursor m/z: 428.2366
Precursor type: [M+H]+
m/z	relative intensity	assigned
58.0649	52	C3H8N+
70.065	242	C4H8N+
82.0651	54	C5H8N+
84.0808	46	C5H10N+
87.044	166	C4H7O2+
97.0761	313	C5H9N2+
98.0838	999	C5H10N2+
98.0964	50	C6H12N+
99.0916	54	C5H11N2+
100.0757	17	C5H10NO+
100.1126	5	C6H14N+
101.1073	598	C5H13N2+
110.0837	18	C6H10N2+
111.0915	7	C6H11N2+
112.0995	28	C6H12N2+
112.112	35	C7H14N+
113.1072	15	C6H13N2+
118.0862	13	C5H12NO2+
125.1073	141	C7H13N2+
130.086	12	C6H12NO2+
132.1019	6	C6H14NO2+
140.1307	24	C8H16N2+
144.1019	126	C7H14NO2+
155.1545	12	C9H19N2+
172.1207	144	C8H16N2O2+
180.0808	370	C13H10N+
187.1441	275	C9H19N2O2+
198.0369	16	C12H8NS+
199.0452	41	C12H9NS+
206.0966	8	C15H12N+
212.0529	474	C13H10NS+
221.1201	10	C16H15N+
229.1911	130	C12H25N2O2+
254.0992	11	C16H16NS+
