Mass spectrum: 15 Acetoxyscirpenol; LC-ESI-ITFT; MS2; CE: 40%; R=7500; [M+H]+
Name: 15 Acetoxyscirpenol
Name: Desacetylanguidine
Name: (10,11-dihydroxy-1,5-dimethylspiro[8-oxatricyclo[7.2.1.02,7]dodec-5-ene-12,2`-oxirane]-2-yl)methyl acetate
Formula: C17H24O6
Exact mass: 324.1573
SMILES: CC1=CC2C(CC1)(C3(C(C(C(C34CO4)O2)O)O)C)COC(=O)C
InChI: InChI=1S/C17H24O6/c1-9-4-5-16(7-21-10(2)18)11(6-9)23-14-12(19)13(20)15(16,3)17(14)8-22-17/h6,11-14,19-20H,4-5,7-8H2,1-3H3
Instrument: LTQ Orbitrap XL Thermo Scientific
Instrument type: LC-ESI-ITFT
Ms type: MS2
Ion mode: POSITIVE
Ionization: ESI
Fragmentation mode: HCD
Collision energy: 40 % (nominal)
Resolution: 7500
Column name: Hypersil GOLD C18 1.9 um 100 x 2.1 mm Thermo Fisher Scientific
Retention time: 13.166 min
Base peak: 265.1427
Precursor m/z: 325.1646
Precursor type: [M+H]+
Precursor intensity: 4425766.380859
m/z	relative intensity	assigned
71.9992	154	C6+
157.1011	150	C12H13+
159.1166	447	C12H15+
183.1165	287	C14H15+
201.1265	880	C14H17O+
219.1372	999	C14H19O2+
229.1212	991	C15H17O2+
