Mass spectrum: Dothiepin; LC-ESI-ITFT; MS2; CE: 55%; R=7500; [M+H]+
Name: Dothiepin
Name: 3-(Dibenzo[b,e]thiepin-11(6H)-ylidene)-N,N-dimethylpropan-1-amine
Formula: C19H21NS
Exact mass: 295.1395
SMILES: CN(C)CCC=C1C2=CC=CC=C2CSC2=C1C=CC=C2
InChI: InChI=1S/C19H21NS/c1-20(2)13-7-11-17-16-9-4-3-8-15(16)14-21-19-12-6-5-10-18(17)19/h3-6,8-12H,7,13-14H2,1-2H3
Instrument: LTQ Orbitrap XL Thermo Fisher Scientific
Instrument type: LC-ESI-ITFT
Ms type: MS2
Ion mode: POSITIVE
Ionization: ESI
Fragmentation mode: HCD
Collision energy: 55% (nominal)
Resolution: 7500
Column name: Hypersil GOLD C18 1.9 um 100 x 2.1 mm Thermo Fisher Scientific
Precursor m/z: 296.1468
Precursor type: [M+H]+
m/z	relative intensity
57.151	2
58.065	64
84.0807	15
85.0884	2
91.0541	120
103.054	3
115.0542	13
117.0699	383
123.0264	193
129.0698	32
135.0263	22
137.0419	5
141.0699	39
142.0777	35
147.0264	212
159.0264	5
165.0698	24
173.0421	63
178.0778	53
179.0856	26
191.0857	104
192.0935	106
197.043	4
202.0777	29
203.0858	146
204.0935	31
205.1014	17
209.0423	234
210.0501	75
211.0578	15
215.0861	5
216.0939	6
217.1016	229
218.1094	999
221.0423	118
222.0502	266
223.058	945
225.0735	409
234.0499	10
235.0582	22
236.0657	198
249.0735	28
251.0893	177
253.1042	5
296.1468	66
