Mass spectrum: Terbutryn-desaturated (TENTATIVE); LC-ESI-QFT; MS2; CE: 30%; R=70000; [M+H]+
Name: Terbutryn-desaturated
Name: N2-tert-butyl-N4-ethenyl-6-(methylsulfanyl)-1,3,5-triazine-2,4-diamine
Formula: C10H17N5S
Exact mass: 239.1195
SMILES: C=CNC1=NC(=NC(=N1)SC)NC(C)(C)C
InChI: InChI=1S/C10H17N5S/c1-6-11-7-12-8(15-10(2,3)4)14-9(13-7)16-5/h6H,1H2,2-5H3,(H2,11,12,13,14,15)
Instrument: Q Exactive Plus Orbitrap Thermo Scientific
Instrument type: LC-ESI-QFT
Ms type: MS2
Ion mode: POSITIVE
Ionization: ESI
Fragmentation mode: HCD
Collision energy: 30% (nominal)
Resolution: 70000
Column name: Waters UPLC BEH C18 1.7 um 2.1 mm x 100 mm with pre-column
Retention time: 14.28 min
Precursor m/z: 240.1273
Precursor type: [M+H]+
m/z	relative intensity
55.0546	23
57.0702	97
67.0545	14
68.0244	90
69.0448	767
69.0699	15
71.0857	12
74.0059	126
75.0263	35
79.0541	17
81.0697	12
91.0324	313
91.0542	22
93.0699	24
94.04	203
95.0856	18
100.0214	33
105.0333	12
105.07	14
107.0491	64
107.0857	11
109.065	10
110.0461	25
111.0666	202
116.0278	158
117.0481	32
117.07	29
119.0856	23
131.0852	15
136.062	76
142.0434	112
157.0548	11
169.042	14
184.0652	999
