Mass spectrum: Metoclopramide; LC-ESI-ITFT; MS2; CE: 100%; R=15000; [M+H]+
Name: Metoclopramide
Name: 4-amino-5-chloro-N-[2-(diethylamino)ethyl]-2-methoxybenzamide
Formula: C14H22ClN3O2
Exact mass: 299.1401
SMILES: CCN(CC)CCNC(=O)C1=CC(=C(C=C1OC)N)Cl
InChI: InChI=1S/C14H22ClN3O2/c1-4-18(5-2)7-6-17-14(19)10-8-11(15)12(16)9-13(10)20-3/h8-9H,4-7,16H2,1-3H3,(H,17,19)
Instrument: LTQ Orbitrap XL Thermo Scientific
Instrument type: LC-ESI-ITFT
Ms type: MS2
Ion mode: POSITIVE
Ionization: ESI
Fragmentation mode: HCD
Collision energy: 100% (nominal)
Resolution: 15000
Column name: Kinetex Evo C18 2.6 um 50 x 2.1 mm
Retention time: 2.847 min
Base peak: 300.1474
Precursor m/z: 300.1473
Precursor type: [M+H]+
m/z	relative intensity	assigned
63.0227	27	C5H3+
65.0383	7	C5H5+
72.0806	17	C4H10N+
78.0338	31	C5H4N+
80.0494	8	C5H6N+
90.0338	239	C6H4N+
91.0416	5	C6H5N+
92.0494	28	C6H6N+
93.0573	100	C6H7N+
98.9996	45	C5H4Cl+
100.1121	26	C6H14N+
105.0447	19	C6H5N2+
106.0287	5	C6H4NO+
108.0444	52	C6H6NO+
110.9995	7	C6H4Cl+
113.0027	318	C5H4ClN+
119.0602	8	C7H7N2+
120.0443	44	C7H6NO+
121.0523	6	C7H7NO+
126.0105	206	C6H5ClN+
127.0182	14	C6H6ClN+
128.0261	86	C6H7ClN+
129.0102	44	C6H6ClO+
133.0395	2	C7H5N2O+
140.0135	24	C6H5ClN2+
140.9975	904	C6H4ClNO+
142.0011	9	CH5ClN3O3+
144.021	60	C6H7ClNO+
147.0552	11	C8H7N2O+
148.0631	81	C8H8N2O+
154.0054	110	C7H5ClNO+
156.021	162	C7H7ClNO+
168.0085	658	C7H5ClN2O+
168.9924	252	C7H4ClNO2+
170.0003	84	C7H5ClNO2+
181.0163	20	C8H6ClN2O+
182.0242	43	C8H7ClN2O+
183.032	119	C8H8ClN2O+
184.016	999	C8H7ClNO2+
187.0031	94	C7H6ClNO3+
211.0268	29	C9H8ClN2O2+
212.0347	179	C9H9ClN2O2+
227.0582	16	C10H12ClN2O2+
