Mass spectrum: Butyrolactone II; LC-ESI-ITFT; MS2; CE: 20%; R=7500; [M+H]+
Name: Butyrolactone II
Name: methyl 4-hydroxy-3-(4-hydroxyphenyl)-2-[(4-hydroxyphenyl)methyl]-5-oxofuran-2-carboxylate
Formula: C19H16O7
Exact mass: 356.0896
SMILES: COC(=O)C1(C(=C(C(=O)O1)O)C2=CC=C(C=C2)O)CC3=CC=C(C=C3)O
InChI: InChI=1S/C19H16O7/c1-25-18(24)19(10-11-2-6-13(20)7-3-11)15(16(22)17(23)26-19)12-4-8-14(21)9-5-12/h2-9,20-22H,10H2,1H3
Instrument: LTQ Orbitrap XL Thermo Scientific
Instrument type: LC-ESI-ITFT
Ms type: MS2
Ion mode: POSITIVE
Ionization: ESI
Fragmentation mode: HCD
Collision energy: 20 % (nominal)
Resolution: 7500
Column name: Hypersil GOLD C18 1.9 um 100 x 2.1 mm Thermo Fisher Scientific
Retention time: 15.733 min
Base peak: 357.0985
Precursor m/z: 357.0969
Precursor type: [M+H]+
Precursor intensity: 8753816.033447
m/z	relative intensity	assigned
107.0496	15	C7H7O+
121.0288	21	C7H5O2+
131.0497	5	C9H7O+
159.0446	32	C10H7O2+
175.0396	8	C10H7O3+
187.0383	12	C11H7O3+
203.0345	202	C11H7O4+
217.0503	32	C12H9O4+
219.0295	6	C11H7O5+
223.0754	7	C15H11O2+
224.0837	22	C15H12O2+
225.0921	5	C15H13O2+
231.0294	20	C12H7O5+
233.0963	5	C17H13O+
235.0752	29	C16H11O2+
251.0703	204	C16H11O3+
251.1065	27	C17H15O2+
252.0793	16	C16H12O3+
253.0865	29	C16H13O3+
263.0709	177	C17H11O3+
277.0862	17	C18H13O3+
279.0657	225	C17H11O4+
281.0814	23	C17H13O4+
295.0979	18	C18H15O4+
297.0763	999	C17H13O5+
307.0611	33	C18H11O5+
311.0922	55	C18H15O5+
325.0715	81	C18H13O6+
357.0979	89	C19H17O7+
