Mass spectrum: Rubratoxin A; LC-ESI-ITFT; MS2; CE: 30%; R=7500; [M-H]-
Name: Rubratoxin A
Name: 3,13-dihydroxy-2-(1-hydroxyheptyl)-10-[hydroxy-(6-oxo-2,3-dihydropyran-2-yl)methyl]-6,14-dioxatricyclo[10.3.0.04,8]pentadeca-1(12),4(8)-diene-5,7,15-trione
Formula: C26H32O11
Exact mass: 520.19446
SMILES: CCCCCCC(C1C(C2=C(CC(CC3=C1C(=O)OC3O)C(C4CC=CC(=O)O4)O)C(=O)OC2=O)O)O
InChI: InChI=1S/C26H32O11/c1-2-3-4-5-7-15(27)20-18-13(23(31)36-25(18)33)10-12(21(29)16-8-6-9-17(28)35-16)11-14-19(22(20)30)26(34)37-24(14)32/h6,9,12,15-16,20-23,27,29-31H,2-5,7-8,10-11H2,1H3
Instrument: LTQ Orbitrap XL Thermo Scientific
Instrument type: LC-ESI-ITFT
Ms type: MS2
Ion mode: NEGATIVE
Ionization: ESI
Fragmentation mode: HCD
Collision energy: 30 % (nominal)
Resolution: 7500
Column name: Hypersil GOLD C18 1.9 um 100 x 2.1 mm Thermo Fisher Scientific
Retention time: 15.758 min
Base peak: 519.1877
Precursor m/z: 519.1872
Precursor type: [M-H]-
Precursor intensity: 9952376.424805
m/z	relative intensity	assigned
245.1178	23	C15H17O3-
263.0938	13	C14H15O5-
305.068	23	C15H13O7-
317.1031	78	C17H17O6-
359.0769	16	C18H15O8-
361.0934	98	C18H17O8-
369.208	30	C23H29O4-
413.1977	38	C24H29O6-
429.1906	41	C24H29O7-
431.2084	121	C24H31O7-
447.2039	73	C24H31O8-
475.1974	361	C25H31O9-
519.1875	999	C26H31O11-
