Mass spectrum: Metolachlor-desaturated (TENTATIVE); LC-ESI-QFT; MS2; CE: 42%; R=70000; [M+H]+
Name: Metolachlor-desaturated
Name: 2-chloro-N-(2-ethyl-6-methylphenyl)-N-(3-methoxyprop-1-en-2-yl)acetamide
Formula: C15H20ClNO2
Exact mass: 281.1171
SMILES: CCC1=CC=CC(=C1N(C(=C)COC)C(=O)CCl)C
InChI: InChI=1S/C15H20ClNO2/c1-5-13-8-6-7-11(2)15(13)17(14(18)9-16)12(3)10-19-4/h6-8H,3,5,9-10H2,1-2,4H3
Instrument: Q Exactive Plus Orbitrap Thermo Scientific
Instrument type: LC-ESI-QFT
Ms type: MS2
Ion mode: POSITIVE
Ionization: ESI
Fragmentation mode: HCD
Collision energy: 42% (nominal) with stepped collision energies 30% and 55%
Resolution: 70000
Column name: Phenomenex Synergi Polar-RP 2.5 um 100 mm x 3 mm with pre-column
Retention time: 10.29 min
Precursor m/z: 282.1249
Precursor type: [M+H]+
m/z	relative intensity
67.0544	16
73.0648	602
76.9787	48
79.0542	7
81.0697	14
91.0544	19
95.0854	13
105.0698	10
118.065	13
119.0853	8
120.0807	11
130.0652	21
131.073	167
131.0833	15
132.081	98
133.0882	19
134.0963	81
135.0801	9
135.104	14
144.0807	98
145.0886	283
146.0964	780
156.0804	39
157.0889	49
157.1006	13
158.0966	86
159.1042	124
160.0763	9
160.1121	165
162.1276	137
172.1121	121
173.1178	10
174.092	16
174.1277	374
176.1443	38
186.1286	20
188.107	12
190.1223	53
192.0573	62
193.0625	12
200.1069	18
205.1457	62
206.1539	999
210.0685	63
222.104	42
238.0993	15
250.0991	769
251.1026	95
252.0925	61
252.1199	45
266.0946	25
282.1252	685
