Mass spectrum: Aspterric acid; LC-ESI-ITFT; MS2; CE: 60%; R=7500; [M+H]+
Name: Aspterric acid
Name: (1S,5S,8R,9R)-8-hydroxy-4-propan-2-ylidene-10-oxatricyclo[7.2.1.01,5]dodecane-8-carboxylic acid
Formula: C15H22O4
Exact mass: 266.1518
SMILES: OC([C@]1(O)[C@@H](C2)OC[C@]2(CC/C3=C(C)/C)[C@@]3([H])CC1)=O
InChI: InChI=1S/C15H22O4/c1-9(2)10-3-5-14-7-12(19-8-14)15(18,13(16)17)6-4-11(10)14/h11-12,18H,3-8H2,1-2H3,(H,16,17)/t11-,12+,14+,15+/m0/s1
Instrument: LTQ Orbitrap XL Thermo Scientific
Instrument type: LC-ESI-ITFT
Ms type: MS2
Ion mode: POSITIVE
Ionization: ESI
Fragmentation mode: HCD
Collision energy: 60 % (nominal)
Resolution: 7500
Column name: Hypersil GOLD C18 1.9 um 100 x 2.1 mm Thermo Fisher Scientific
Retention time: 20.159 min
Base peak: 267.1597
Precursor m/z: 267.1591
Precursor type: [M+H]+
Precursor intensity: 13700680.271
m/z	relative intensity	assigned
81.07	23	C6H9+
91.0545	77	C7H7+
93.0699	42	C7H9+
95.0855	51	C7H11+
105.0701	112	C8H9+
107.0855	60	C8H11+
109.1016	63	C8H13+
117.07	389	C9H9+
119.0857	300	C9H11+
121.1014	109	C9H13+
129.0696	86	C10H9+
131.0857	227	C10H11+
133.1014	236	C10H13+
135.1171	18	C10H15+
143.0858	200	C11H11+
145.1014	129	C11H13+
147.0809	85	C10H11O+
147.1171	243	C11H15+
149.1324	19	C11H17+
157.1013	120	C12H13+
159.1171	214	C12H15+
161.0965	50	C11H13O+
161.1329	133	C12H17+
173.1325	178	C13H17+
175.1484	823	C13H19+
185.1328	498	C14H17+
203.1434	999	C14H19O+
231.139	22	C15H19O2+
