Mass spectrum: Sulfamethoxazole; ESI-QTOF; MS2; CE: 35eV; R=15000; [M+H]+
Name: Sulfamethoxazole
Name: 4-Amino-N-(5-methyl-1,2-oxazol-3-yl)benzene-1-sulfonamide
Formula: C10H11N3O3S
Exact mass: 253.0521
SMILES: CC1=CC(NS(=O)(=O)C2=CC=C(N)C=C2)=NO1
InChI: InChI=1S/C10H11N3O3S/c1-7-6-10(12-16-7)13-17(14,15)9-4-2-8(11)3-5-9/h2-6H,11H2,1H3,(H,12,13)
Instrument: TripleTOF 5600+SCIEX
Instrument type: ESI-QTOF
Ms type: MS2
Ion mode: POSITIVE
Ionization: ESI
Fragmentation mode: CID
Collision energy: 35 eV
Resolution: 15000
Precursor m/z: 254.0594
Precursor type: [M+H]+
m/z	relative intensity
53.0412	3
55.0212	1
56.0522	1
65.0408	117
66.0482	4
67.0438	1
68.0511	2
71.0621	1
72.0462	5
77.0404	1
78.0358	1
79.043	1
80.051	50
90.0348	1
92.0052	1
92.0507	715
92.9612	1
93.0584	126
94.0663	9
97.0409	2
99.0563	112
103.0417	1
104.0504	1
105.0461	1
106.0529	2
107.0612	32
108.0452	999
109.0537	1
110.0609	1
116.0503	1
118.0535	3
119.061	8
120.0689	2
121.0765	6
122.0061	1
129.045	2
130.0539	3
131.061	11
132.0687	8
133.0763	5
134.072	1
135.0932	1
140.0171	1
143.0609	8
144.0684	1
145.0639	4
146.0719	57
147.0796	89
148.0876	11
149.0171	1
156.012	339
158.0719	1
159.0008	1
159.0795	4
160.0875	126
161.0022	9
163.0877	1
167.0143	1
169.0299	4
172.0888	1
173.059	5
175.0203	1
176.0281	6
185.0241	1
187.0033	1
190.0985	1
194.0392	2
254.0594	4
