Mass spectrum: Phenazone; LC-ESI-QTOF; MS2; CE: 40 eV; R=3600; [M+H]+
Name: Phenazone
Name: 1,5-Dimethyl-2-phenyl-1,2-dihydro-3H-pyrazol-3-one
Formula: C11H12N2O
Exact mass: 188.095
SMILES: CN1N(C(=O)C=C1C)C1=CC=CC=C1
InChI: InChI=1S/C11H12N2O/c1-9-8-11(14)13(12(9)2)10-6-4-3-5-7-10/h3-8H,1-2H3
Instrument: 6647 QTOF Agilent
Instrument type: LC-ESI-QTOF
Ms type: MS2
Ion mode: POSITIVE
Ionization: ESI
Fragmentation mode: CID
Collision energy: 40 eV
Resolution: 3600
Precursor m/z: 189.1023
Precursor type: [M+H]+
m/z	relative intensity
51.0234	480
56.0497	848
58.0658	114
65.0382	121
77.0387	999
89.0384	54
91.0541	69
92.0559	52
102.0458	54
104.0491	117
106.0644	106
115.0519	79
118.0649	52
130.0641	55
131.0599	130
145.0751	63
