Mass spectrum: Eremofortin B; LC-ESI-ITFT; MS2; CE: 20%; R=7500; [M+H]+
Name: Eremofortin B
Name: 2-hydroxy-3,3a-dimethyl-5-prop-1-en-2-yl-1a,2,3,4,5,7b-hexahydronaphtho[1,2-b]oxiren-6-one
Formula: C15H20O3
Exact mass: 248.1412
SMILES: C=C(C)C1CC2(C)C(C)C(O)C3OC3C2=CC1=O
InChI: InChI=1S/C15H20O3/c1-7(2)9-6-15(4)8(3)12(17)14-13(18-14)10(15)5-11(9)16/h5,8-9,12-14,17H,1,6H2,2-4H3
Instrument: LTQ Orbitrap XL Thermo Scientific
Instrument type: LC-ESI-ITFT
Ms type: MS2
Ion mode: POSITIVE
Ionization: ESI
Fragmentation mode: HCD
Collision energy: 20 % (nominal)
Resolution: 7500
Column name: Hypersil GOLD C18 1.9 um 100 x 2.1 mm Thermo Fisher Scientific
Retention time: 15.142 min
Base peak: 249.1491
Precursor m/z: 249.1485
Precursor type: [M+H]+
Precursor intensity: 11345250.25928
m/z	relative intensity	assigned
69.07	13	C5H9+
71.049	3	C4H7O+
81.07	8	C6H9+
83.049	5	C5H7O+
91.054	4	C7H7+
93.0701	13	C7H9+
95.0493	4	C6H7O+
95.0859	16	C7H11+
97.0648	12	C6H9O+
105.0704	13	C8H9+
107.0858	32	C8H11+
109.065	32	C7H9O+
111.0808	14	C7H11O+
119.0858	57	C9H11+
121.0651	33	C8H9O+
121.1016	25	C9H13+
123.0807	42	C8H11O+
123.117	14	C9H15+
125.0602	6	C7H9O2+
131.0857	15	C10H11+
133.0652	13	C9H9O+
133.1016	52	C10H13+
135.0808	48	C9H11O+
135.1171	20	C10H15+
137.0601	14	C8H9O2+
137.0964	18	C9H13O+
139.0757	13	C8H11O2+
143.0861	16	C11H11+
145.1016	36	C11H13+
147.0808	89	C10H11O+
147.1172	31	C11H15+
149.0602	9	C9H9O2+
149.0966	37	C10H13O+
151.0756	32	C9H11O2+
151.112	39	C10H15O+
156.0935	2	C12H12+
157.1016	18	C12H13+
159.0811	22	C11H11O+
159.1173	27	C12H15+
161.0966	196	C11H13O+
161.1331	57	C12H17+
163.0758	37	C10H11O2+
163.1123	100	C11H15O+
165.0915	18	C10H13O2+
165.1279	8	C11H17O+
170.1098	8	C13H14+
171.0812	9	C12H11O+
171.1175	20	C13H15+
172.089	3	C12H12O+
173.0965	23	C12H13O+
173.1329	27	C13H17+
175.0757	18	C11H11O2+
175.1121	22	C12H15O+
175.1486	97	C13H19+
177.0914	9	C11H13O2+
177.1278	22	C12H17O+
179.1074	32	C11H15O2+
181.0865	21	C10H13O3+
185.133	47	C14H17+
187.1121	14	C13H15O+
189.0917	35	C12H13O2+
189.1279	68	C13H17O+
191.1072	76	C12H15O2+
191.1436	23	C13H19O+
193.0863	28	C11H13O3+
193.123	9	C12H17O2+
198.1047	8	C14H14O+
201.1278	19	C14H17O+
203.1435	133	C14H19O+
205.1227	7	C13H17O2+
213.1281	36	C15H17O+
221.1543	65	C14H21O2+
231.1385	59	C15H19O2+
249.1491	999	C15H21O3+
