Mass spectrum: Isoproturon-N-demethyl (PROBABLE); LC-ESI-QFT; MS2; CE: 30%; R=70000; [M+H]+
Name: Isoproturon-N-demethyl
Name: 3-methyl-1-[4-(propan-2-yl)phenyl]urea
Formula: C11H16N2O
Exact mass: 192.1254
SMILES: CC(C)C1=CC=C(C=C1)NC(=O)N(C)
InChI: InChI=1S/C11H16N2O/c1-8(2)9-4-6-10(7-5-9)13-11(14)12-3/h4-8H,1-3H3,(H2,12,13,14)
Instrument: Q Exactive Plus Orbitrap Thermo Scientific
Instrument type: LC-ESI-QFT
Ms type: MS2
Ion mode: POSITIVE
Ionization: ESI
Fragmentation mode: HCD
Collision energy: 30% (nominal)
Resolution: 70000
Column name: Waters UPLC BEH C18 1.7 um 2.1 mm x 100 mm with pre-column
Retention time: 12.75 min
Precursor m/z: 193.1332
Precursor type: [M+H]+
m/z	relative intensity
51.0233	3
53.039	18
56.0138	2
58.029	57
67.0543	3
77.0386	51
79.0542	4
91.0542	40
92.0496	9
93.0574	14
93.0699	3
94.0652	999
95.0492	45
103.0541	4
104.0622	6
105.0448	18
106.065	2
107.0857	7
117.0698	7
119.0731	7
120.0446	7
121.0888	6
134.0964	15
136.1121	64
137.0964	2
151.0868	8
