Mass spectrum: Tenuazonic acid; LC-ESI-ITFT; MS2; CE: 20%; R=7500; [M+H]+
Name: Tenuazonic acid
Name: 3-Acetyl-5-(butan-2-yl)-4-hydroxy-2,5-dihydro-1H-pyrrol-2-one
Name: 4-acetyl-2-butan-2-yl-3-hydroxy-1,2-dihydropyrrol-5-one
Formula: C10H15NO3
Exact mass: 197.1052
SMILES: CCC(C)C1C(=C(C(=O)N1)C(=O)C)O
InChI: InChI=1S/C10H15NO3/c1-4-5(2)8-9(13)7(6(3)12)10(14)11-8/h5,8,13H,4H2,1-3H3,(H,11,14)
Instrument: LTQ Orbitrap XL Thermo Scientific
Instrument type: LC-ESI-ITFT
Ms type: MS2
Ion mode: POSITIVE
Ionization: ESI
Fragmentation mode: HCD
Collision energy: 20 % (nominal)
Resolution: 7500
Column name: Hypersil GOLD C18 1.9 um 100 x 2.1 mm Thermo Fisher Scientific
Retention time: 16.135 min
Base peak: 198.1123
Precursor m/z: 198.1125
Precursor type: [M+H]+
Precursor intensity: 2569060.835449
m/z	relative intensity	assigned
97.0281	3	C5H5O2+
125.0234	8	C6H5O3+
125.0595	12	C7H9O2+
139.0386	13	C7H7O3+
139.0754	9	C8H11O2+
142.0496	20	C6H8NO3+
153.0909	69	C9H13O2+
156.1018	6	C8H14NO2+
163.0752	2	C10H11O2+
180.1017	18	C10H14NO2+
181.0854	26	C10H13O3+
198.1121	999	C10H16NO3+
