Mass spectrum: a Zearalenol; LC-ESI-ITFT; MS2; CE: 60%; R=7500; [M+H]+
Name: a Zearalenol
Name: 8,16,18-trihydroxy-4-methyl-3-oxabicyclo[12.4.0]octadeca-1(14),12,15,17-tetraen-2-one
Formula: C18H24O5
Exact mass: 320.1624
SMILES: CC1CCCC(CCCC=CC2=C(C(=CC(=C2)O)O)C(=O)O1)O
InChI: InChI=1S/C18H24O5/c1-12-6-5-9-14(19)8-4-2-3-7-13-10-15(20)11-16(21)17(13)18(22)23-12/h3,7,10-12,14,19-21H,2,4-6,8-9H2,1H3
Instrument: LTQ Orbitrap XL Thermo Scientific
Instrument type: LC-ESI-ITFT
Ms type: MS2
Ion mode: POSITIVE
Ionization: ESI
Fragmentation mode: HCD
Collision energy: 60 % (nominal)
Resolution: 7500
Column name: Hypersil GOLD C18 1.9 um 100 x 2.1 mm Thermo Fisher Scientific
Retention time: 20.888 min
Base peak: 321.1706
Precursor m/z: 321.1697
Precursor type: [M+H]+
Precursor intensity: 7292575.245605
m/z	relative intensity	assigned
81.0698	290	C6H9+
95.0857	393	C7H11+
109.1014	322	C8H13+
121.1013	455	C9H13+
123.1168	222	C9H15+
135.117	426	C10H15+
149.06	494	C9H9O2+
161.0597	688	C10H9O2+
165.0185	474	C8H5O4+
167.0337	259	C8H7O4+
175.0391	793	C10H7O3+
175.0759	353	C11H11O2+
177.0548	964	C10H9O3+
187.0754	382	C12H11O2+
189.0546	592	C11H9O3+
189.0915	269	C12H13O2+
193.0492	623	C10H9O4+
201.0911	561	C13H13O2+
203.0698	538	C12H11O3+
211.0762	386	C14H11O2+
215.0702	999	C13H11O3+
215.1062	330	C14H15O2+
217.0857	599	C13H13O3+
229.0862	728	C14H13O3+
233.0817	223	C13H13O4+
243.1027	186	C15H15O3+
257.1542	378	C17H21O2+
267.138	882	C18H19O2+
285.1496	589	C18H21O3+
303.1596	144	C18H23O4+
