Mass spectrum: Desipramine; LC-ESI-ITFT; MS2; CE: 75%; R=7500; [M+H]+
Name: Desipramine
Name: 3-(10,11-Dihydro-5H-dibenzo[b,f]azepin-5-yl)-N-methylpropan-1-amine
Formula: C18H22N2
Exact mass: 266.1783
SMILES: CNCCCN1C2=C(CCC3=C1C=CC=C3)C=CC=C2
InChI: InChI=1S/C18H22N2/c1-19-13-6-14-20-17-9-4-2-7-15(17)11-12-16-8-3-5-10-18(16)20/h2-5,7-10,19H,6,11-14H2,1H3
Instrument: LTQ Orbitrap XL Thermo Fisher Scientific
Instrument type: LC-ESI-ITFT
Ms type: MS2
Ion mode: POSITIVE
Ionization: ESI
Fragmentation mode: HCD
Collision energy: 75% (nominal)
Resolution: 7500
Column name: Hypersil GOLD C18 1.9 um 100 x 2.1 mm Thermo Fisher Scientific
Precursor m/z: 267.1856
Precursor type: [M+H]+
m/z	relative intensity
57.1313	7
57.1359	10
57.1424	5
57.1453	6
57.1562	6
57.1723	5
72.0806	999
89.0191	2
91.0542	8
130.065	4
158.0969	3
180.0809	26
193.0887	304
194.0966	24
195.1044	44
196.1122	23
208.1122	338
220.1124	20
