Mass spectrum: Antipyrine; LC-ESI-ITFT; MS2; CE: 70%; R=15000; [M+H]+
Name: Antipyrine
Name: 1,5-dimethyl-2-phenylpyrazol-3-one
Formula: C11H12N2O
Exact mass: 188.0950
SMILES: CC1=CC(=O)N(N1C)C2=CC=CC=C2
InChI: InChI=1S/C11H12N2O/c1-9-8-11(14)13(12(9)2)10-6-4-3-5-7-10/h3-8H,1-2H3
Instrument: LTQ Orbitrap XL Thermo Scientific
Instrument type: LC-ESI-ITFT
Ms type: MS2
Ion mode: POSITIVE
Ionization: ESI
Fragmentation mode: CID
Collision energy: 70% (nominal)
Resolution: 15000
Column name: Kinetex Evo C18 2.6 um 50 x 2.1 mm
Retention time: 5.661 min
Base peak: 189.1022
Precursor m/z: 189.1022
Precursor type: [M+H]+
m/z	relative intensity	assigned
55.054	5	C4H7+
58.0649	24	C3H8N+
86.0597	4	C4H8NO+
91.0542	26	C7H7+
95.0604	6	C5H7N2+
96.0444	15	C5H6NO+
96.0681	30	C5H8N2+
98.0598	6	C5H8NO+
103.0543	17	C8H7+
104.0495	56	C7H6N+
105.0332	6	C7H5O+
105.0699	17	C8H9+
106.0649	15	C7H8N+
111.0553	27	C5H7N2O+
115.0541	6	C9H7+
117.0573	30	C8H7N+
117.0699	29	C9H9+
118.0651	223	C8H8N+
119.0603	5	C7H7N2+
120.0808	243	C8H10N+
129.0698	28	C10H9+
130.0651	325	C9H8N+
131.0729	999	C9H9N+
132.0807	231	C9H10N+
133.0521	19	C8H7NO+
133.0759	103	C8H9N2+
134.0963	24	C9H12N+
135.0552	45	C7H7N2O+
144.0808	773	C10H10N+
145.0649	81	C10H9O+
145.0758	5	C9H9N2+
145.0886	21	C10H11N+
146.0838	604	C9H10N2+
146.0964	461	C10H12N+
147.0916	563	C9H11N2+
148.0756	124	C9H10NO+
149.0707	22	C8H9N2O+
154.0657	8	C11H8N+
157.0518	10	C10H7NO+
158.06	52	C10H8NO+
159.0918	10	C10H11N2+
160.0995	25	C10H12N2+
161.1072	784	C10H13N2+
162.0912	43	C10H12NO+
171.0916	16	C11H11N2+
172.0756	377	C11H10NO+
174.0787	330	C10H10N2O+
