Mass spectrum: Chrysophanol; LC-ESI-ITFT; MS2; CE: 20%; R=7500; [M+H]+
Name: Chrysophanol
Name: 1,8-dihydroxy-3-methylanthracene-9,10-dione
Formula: C15H10O4
Exact mass: 254.0579
SMILES: CC1=CC2=C(C(=C1)O)C(=O)C3=C(C2=O)C=CC=C3O
InChI: InChI=1S/C15H10O4/c1-7-5-9-13(11(17)6-7)15(19)12-8(14(9)18)3-2-4-10(12)16/h2-6,16-17H,1H3
Instrument: LTQ Orbitrap XL Thermo Scientific
Instrument type: LC-ESI-ITFT
Ms type: MS2
Ion mode: POSITIVE
Ionization: ESI
Fragmentation mode: HCD
Collision energy: 20 % (nominal)
Resolution: 7500
Column name: Hypersil GOLD C18 1.9 um 100 x 2.1 mm Thermo Fisher Scientific
Retention time: 25.330 min
Base peak: 219.0179
Precursor m/z: 255.0652
Precursor type: [M+H]+
Precursor intensity: 38037.6313476562
m/z	relative intensity	assigned
255.0655	999	C15H11O4+
