Mass spectrum: Aspochalasin 1; LC-ESI-ITFT; MS2; CE: 40%; R=7500; [M+H]+
Name: Aspochalasin 1
Formula: C24H35NO5
Exact mass: 417.2515
SMILES: CC(C)C[C@@H]1NC(=O)[C@]23OC(=O)C=C[C@@H](O)[C@@H](O)CCC(C)=C[C@H]3C=C(C)[C@@H](C)[C@@H]12
InChI: InChI=1S/C24H35NO5/c1-13(2)10-18-22-16(5)15(4)12-17-11-14(3)6-7-19(26)20(27)8-9-21(28)30-24(17,22)23(29)25-18/h8-9,11-13,16-20,22,26-27H,6-7,10H2,1-5H3,(H,25,29)/t16-,17+,18+,19+,20-,22+,24-/m1/s1
Instrument: LTQ Orbitrap XL Thermo Scientific
Instrument type: LC-ESI-ITFT
Ms type: MS2
Ion mode: POSITIVE
Ionization: ESI
Fragmentation mode: HCD
Collision energy: 40 % (nominal)
Resolution: 7500
Column name: Hypersil GOLD C18 1.9 um 100 x 2.1 mm Thermo Fisher Scientific
Retention time: 23.512 min
Base peak: 835.5124
Precursor m/z: 418.2588
Precursor type: [M+H]+
Precursor intensity: 8816957.579102
m/z	relative intensity	assigned
86.0964	58	C5H12N+
107.0857	17	C8H11+
119.0856	130	C9H11+
121.0649	71	C8H9O+
121.1011	13	C9H13+
131.0854	18	C10H11+
133.0642	8	C9H9O+
133.1015	20	C10H13+
138.0914	21	C8H12NO+
145.1014	11	C11H13+
147.0806	17	C10H11O+
147.1168	32	C11H15+
149.0959	26	C10H13O+
159.0802	12	C11H11O+
159.1171	47	C12H15+
161.1323	54	C12H17+
162.0913	24	C10H12NO+
163.0758	9	C10H11O2+
167.0707	14	C9H11O3+
171.1174	9	C13H15+
173.0959	7	C12H13O+
173.1323	52	C13H17+
175.076	9	C11H11O2+
175.1485	35	C13H19+
176.1071	78	C11H14NO+
178.1593	26	C12H20N+
183.1165	12	C14H15+
185.1326	57	C14H17+
187.1119	22	C13H15O+
187.1486	17	C14H19+
201.1275	39	C14H17O+
203.1433	55	C14H19O+
205.1585	16	C14H21O+
206.1543	52	C13H20NO+
207.1616	12	C13H21NO+
209.1325	9	C16H17+
215.1424	13	C15H19O+
217.1587	10	C15H21O+
218.154	55	C14H20NO+
220.1699	65	C14H22NO+
223.1485	33	C17H19+
232.1698	576	C15H22NO+
233.1334	19	C18H17+
241.1578	12	C17H21O+
251.1434	123	C18H19O+
258.186	14	C17H24NO+
260.2012	97	C17H26NO+
269.1537	90	C18H21O2+
271.1924	45	C18H25NO+
272.2009	70	C18H26NO+
273.2215	63	C19H29O+
274.2156	18	C18H28NO+
279.1383	37	C19H19O2+
286.2167	171	C19H28NO+
287.1638	47	C18H23O3+
288.2328	47	C19H30NO+
297.1491	42	C19H21O3+
298.2165	82	C20H28NO+
300.2316	23	C20H30NO+
316.2273	999	C20H30NO2+
320.2375	19	C23H30N+
336.2328	29	C23H30NO+
339.2327	8	C23H31O2+
356.2592	33	C23H34NO2+
364.2272	121	C24H30NO2+
372.2533	14	C23H34NO3+
382.2383	187	C24H32NO3+
400.2489	150	C24H34NO4+
418.2587	223	C24H36NO5+
