Mass spectrum: Eremofortin B; LC-ESI-ITFT; MS2; CE: 40%; R=7500; [M+H]+
Name: Eremofortin B
Name: 2-hydroxy-3,3a-dimethyl-5-prop-1-en-2-yl-1a,2,3,4,5,7b-hexahydronaphtho[1,2-b]oxiren-6-one
Formula: C15H20O3
Exact mass: 248.1412
SMILES: C=C(C)C1CC2(C)C(C)C(O)C3OC3C2=CC1=O
InChI: InChI=1S/C15H20O3/c1-7(2)9-6-15(4)8(3)12(17)14-13(18-14)10(15)5-11(9)16/h5,8-9,12-14,17H,1,6H2,2-4H3
Instrument: LTQ Orbitrap XL Thermo Scientific
Instrument type: LC-ESI-ITFT
Ms type: MS2
Ion mode: POSITIVE
Ionization: ESI
Fragmentation mode: HCD
Collision energy: 40 % (nominal)
Resolution: 7500
Column name: Hypersil GOLD C18 1.9 um 100 x 2.1 mm Thermo Fisher Scientific
Retention time: 15.198 min
Base peak: 249.1495
Precursor m/z: 249.1485
Precursor type: [M+H]+
Precursor intensity: 14756959.1958
m/z	relative intensity	assigned
55.9892	1	C2O2+
81.0699	1	C6H9+
95.0857	2	C7H11+
97.0648	2	C6H9O+
105.0703	2	C8H9+
107.0858	5	C8H11+
109.0653	5	C7H9O+
109.1014	2	C8H13+
111.0809	2	C7H11O+
119.0859	9	C9H11+
121.0649	6	C8H9O+
121.1018	4	C9H13+
123.0807	6	C8H11O+
123.1173	1	C9H15+
125.0597	1	C7H9O2+
131.0857	2	C10H11+
133.065	2	C9H9O+
133.1016	9	C10H13+
135.0807	7	C9H11O+
135.1174	4	C10H15+
137.06	3	C8H9O2+
137.0966	3	C9H13O+
139.0753	2	C8H11O2+
143.0857	2	C11H11+
145.1016	6	C11H13+
147.0809	17	C10H11O+
147.1173	6	C11H15+
149.0602	1	C9H9O2+
149.0967	6	C10H13O+
151.0758	6	C9H11O2+
151.1119	8	C10H15O+
157.1016	3	C12H13+
159.0803	3	C11H11O+
159.1172	5	C12H15+
161.0965	37	C11H13O+
161.1331	12	C12H17+
163.0756	7	C10H11O2+
163.1123	25	C11H15O+
165.0917	4	C10H13O2+
171.1176	5	C13H15+
173.0965	4	C12H13O+
173.1327	3	C13H17+
175.0755	3	C11H11O2+
175.1123	6	C12H15O+
175.1486	21	C13H19+
177.0907	2	C11H13O2+
177.1278	3	C12H17O+
179.0711	2	C10H11O3+
179.1071	7	C11H15O2+
179.1432	1	C12H19O+
181.0865	4	C10H13O3+
185.133	13	C14H17+
187.1123	3	C13H15O+
189.0919	9	C12H13O2+
189.1279	16	C13H17O+
191.1073	19	C12H15O2+
191.1435	4	C13H19O+
193.0864	6	C11H13O3+
193.1592	2	C13H21O+
195.1166	1	C15H15+
201.1278	5	C14H17O+
203.1436	38	C14H19O+
205.1224	2	C13H17O2+
213.1278	10	C15H17O+
219.1382	3	C14H19O2+
221.1542	22	C14H21O2+
231.1384	24	C15H19O2+
249.1491	999	C15H21O3+
