Mass spectrum: Amiloride; LC-ESI-QFT; MS2; CE: CE45; R=17500; [M+H]+
Name: Amiloride
Name: 3,5-diamino-6-chloro-N-(diaminomethylidene)pyrazine-2-carboxamide
Formula: C6H8ClN7O
Exact mass: 229.0479
SMILES: NC(=N)NC(=O)C1=NC(Cl)=C(N)N=C1N
InChI: InChI=1S/C6H8ClN7O/c7-2-4(9)13-3(8)1(12-2)5(15)14-6(10)11/h(H4,8,9,13)(H4,10,11,14,15)
Instrument: Q Exactive Thermo Fisher Scientific
Instrument type: LC-ESI-QFT
Ms type: MS2
Ion mode: POSITIVE
Ionization: ESI
Fragmentation mode: HCD
Collision energy: CE45
Resolution: 17500
Column name: Acquity UPLC BEH C18 1.7 um, 2.1 x 150 mm, Waters
Retention time: 12.443 min
Base peak: 223.0628
Precursor m/z: 230.0552
Precursor type: [M+H]+
m/z	relative intensity	assigned
55.0293	27	C2H3N2+
56.0374	8	C2H4N2+
60.0559	516	CH6N3+
61.9795	175	CHClN+
62.9636	19	CClO+
63.995	356	CH3ClN+
66.0214	37	C3H2N2+
69.0085	8	C2HN2O+
73.9794	27	C2HClN+
88.99	240	C2H2ClN2+
91.0057	5	C2H4ClN2+
100.99	177	C3H2ClN2+
107.0356	7	C4H3N4+
108.0427	198	C4H4N4+
116.0008	999	C3H3ClN3+
143.0125	15	C4H4ClN4+
161.0233	64	C4H6ClN4O+
189.0168	12	C3H4ClN7O+
