Mass spectrum: a Zearalanol; LC-ESI-ITFT; MS2; CE: 20%; R=7500; [M+H]+
Name: a Zearalanol
Name: Ralgro
Name: 8,16,18-trihydroxy-4-methyl-3-oxabicyclo[12.4.0]octadeca-1(14),15,17-trien-2-one
Formula: C18H26O5
Exact mass: 322.1780
SMILES: CC1CCCC(CCCCCC2=C(C(=CC(=C2)O)O)C(=O)O1)O
InChI: InChI=1S/C18H26O5/c1-12-6-5-9-14(19)8-4-2-3-7-13-10-15(20)11-16(21)17(13)18(22)23-12/h10-12,14,19-21H,2-9H2,1H3
Instrument: LTQ Orbitrap XL Thermo Scientific
Instrument type: LC-ESI-ITFT
Ms type: MS2
Ion mode: POSITIVE
Ionization: ESI
Fragmentation mode: HCD
Collision energy: 20 % (nominal)
Resolution: 7500
Column name: Hypersil GOLD C18 1.9 um 100 x 2.1 mm Thermo Fisher Scientific
Retention time: 20.382 min
Base peak: 323.185
Precursor m/z: 323.1853
Precursor type: [M+H]+
Precursor intensity: 9550691.638184
m/z	relative intensity	assigned
163.0754	35	C10H11O2+
167.0333	54	C8H7O4+
177.0903	44	C11H13O2+
277.181	28	C17H25O3+
287.1636	109	C18H23O3+
305.174	999	C18H25O4+
