Mass spectrum: Sulfamoxole; LC-ESI-QFT; MS2; CE: CE90; R=17500; [M+H]+
Name: Sulfamoxole
Name: 4-amino-N-(4,5-dimethyl-1,3-oxazol-2-yl)benzenesulfonamide
Formula: C11H13N3O3S
Exact mass: 267.0678
SMILES: CC1=C(C)N=C(NS(=O)(=O)C2=CC=C(N)C=C2)O1
InChI: InChI=1S/C11H13N3O3S/c1-7-8(2)17-11(13-7)14-18(15,16)10-5-3-9(12)4-6-10/h3-6H,12H2,1-2H3,(H,13,14)
Instrument: Q Exactive Thermo Fisher Scientific
Instrument type: LC-ESI-QFT
Ms type: MS2
Ion mode: POSITIVE
Ionization: ESI
Fragmentation mode: HCD
Collision energy: CE90
Resolution: 17500
Column name: Acquity UPLC BEH C18 1.7 um, 2.1 x 150 mm, Waters
Retention time: 13.974 min
Base peak: 223.0628
Precursor m/z: 268.075
Precursor type: [M+H]+
m/z	relative intensity	assigned
50.0152	6	C4H2+
51.0234	20	C4H3+
52.0186	19	C3H2N+
53.0026	279	C3HO+
53.0388	203	C4H5+
53.9977	42	C2NO+
54.0342	65	C3H4N+
55.0181	16	C3H3O+
56.0497	6	C3H6N+
63.0233	18	C5H3+
65.0387	999	C5H5+
66.0341	14	C4H4N+
68.0496	13	C4H6N+
70.0652	23	C4H8N+
80.0497	360	C5H6N+
83.0489	10	C5H7O+
108.0449	20	C6H6NO+
171.0137	8	C10H5NS+
