Mass spectrum: Sulfamoxole; LC-ESI-QFT; MS2; CE: 10%; R=17500; [M+H]+
Name: Sulfamoxole
Name: 4-Amino-N-(4,5-dimethyl-1,3-oxazol-2-yl)benzene-1-sulfonamide
Formula: C11H13N3O3S
Exact mass: 267.0678
SMILES: CC1=C(C)N=C(NS(=O)(=O)C2=CC=C(N)C=C2)O1
InChI: InChI=1S/C11H13N3O3S/c1-7-8(2)17-11(13-7)14-18(15,16)10-5-3-9(12)4-6-10/h3-6H,12H2,1-2H3,(H,13,14)
Instrument: Q Exactive Thermo Fisher Scientific
Instrument type: LC-ESI-QFT
Ms type: MS2
Ion mode: POSITIVE
Ionization: ESI
Fragmentation mode: HCD
Collision energy: 10% (nominal)
Resolution: 17500
Column name: Hypersil GOLD 1.9 um 2.1 x 100 mm Thermo Fisher Scientific
Precursor m/z: 268.0751
Precursor type: [M+H]+
m/z	relative intensity
65.0396	4
68.0504	1
70.0659	1
92.05	38
94.0657	3
108.0449	54
110.0605	1
111.0557	22
112.0635	52
113.0714	268
140.0167	128
156.0115	897
158.0273	15
175.0175	11
268.0751	999
