Mass spectrum: Desipramine; LC-ESI-QFT; MS2; CE: 80%; R=30000; [M+H]+
Name: Desipramine
Name: 3-(10,11-Dihydro-5H-dibenzo[b,f]azepin-5-yl)-N-methylpropan-1-amine
Formula: C18H22N2
Exact mass: 266.1783
SMILES: CNCCCN1C2=C(CCC3=C1C=CC=C3)C=CC=C2
InChI: InChI=1S/C18H22N2/c1-19-13-6-14-20-17-9-4-2-7-15(17)11-12-16-8-3-5-10-18(16)20/h2-5,7-10,19H,6,11-14H2,1H3
Instrument: Orbitrap Fusion Tribrid Thermo Fisher Scientific
Instrument type: LC-ESI-QFT
Ms type: MS2
Ion mode: POSITIVE
Ionization: ESI
Fragmentation mode: HCD
Collision energy: 80% (nominal)
Resolution: 30000
Precursor m/z: 267.1856
Precursor type: [M+H]+
m/z	relative intensity
70.0653	20
72.081	999
90.0469	11
91.0544	59
115.0547	10
118.0652	17
130.0653	14
165.07	51
166.0777	22
167.073	65
178.0778	22
180.0808	87
191.073	23
192.0808	227
193.0887	593
194.0964	115
206.0964	32
207.1043	16
208.1121	29
220.1122	21
