Mass spectrum: Fenpropimorph-desaturated-desisopropyl (TENTATIVE); LC-ESI-QFT; MS2; CE: 42%; R=70000; [M+H]+
Name: Fenpropimorph-desaturated-desisopropyl
Formula: C17H27NO
Exact mass: 261.2085
SMILES: N(CC(O)C)CC(=C)CC2=CC=C(C=C2)C(C)(C)C
InChI: InChI=1S/C17H27NO/c1-13(11-18-12-14(2)19)10-15-6-8-16(9-7-15)17(3,4)5/h6-9,14,18-19H,1,10-12H2,2-5H3
Instrument: Q Exactive Plus Orbitrap Thermo Scientific
Instrument type: LC-ESI-QFT
Ms type: MS2
Ion mode: POSITIVE
Ionization: ESI
Fragmentation mode: HCD
Collision energy: 42% (nominal) with stepped collision energies 30% and 55%
Resolution: 70000
Column name: Phenomenex Synergi Polar-RP 2.5 um 100 mm x 3 mm with pre-column
Retention time: 10.43 min
Precursor m/z: 262.2163
Precursor type: [M+H]+
m/z	relative intensity
56.05	1
57.0702	64
58.0654	57
59.0495	2
67.0544	3
69.0698	2
70.0652	4
71.0491	1
72.0808	224
74.0601	17
79.0543	3
81.0699	4
83.0857	1
85.0649	1
86.0964	3
88.0758	13
91.0543	15
93.07	5
95.0494	1
95.0856	5
97.065	0
97.1012	2
105.07	23
107.0856	7
109.0647	1
109.1015	3
114.0908	1
117.0704	2
119.0856	22
121.1012	4
123.1169	1
131.0857	4
132.0935	10
133.1014	6
135.1168	3
137.0964	1
145.1012	4
147.1169	431
149.1329	2
159.1175	2
161.1326	12
163.1123	1
163.1482	1
165.1281	1
173.1325	1
175.1488	1
187.1485	1
189.164	25
190.1578	3
206.1538	3
208.1691	4
214.2166	3
246.1839	1
246.2218	33
262.2163	107
