Mass spectrum: Amiloride; LC-ESI-ITFT; MS2; CE: 140%; R=15000; [M+H]+
Name: Amiloride
Name: 3,5-diamino-6-chloro-N-(diaminomethylidene)pyrazine-2-carboxamide
Formula: C6H8ClN7O
Exact mass: 229.0479
SMILES: C1(=C(N=C(C(=N1)Cl)N)N)C(=O)N=C(N)N
InChI: InChI=1S/C6H8ClN7O/c7-2-4(9)13-3(8)1(12-2)5(15)14-6(10)11/h(H4,8,9,13)(H4,10,11,14,15)
Instrument: LTQ Orbitrap XL Thermo Scientific
Instrument type: LC-ESI-ITFT
Ms type: MS2
Ion mode: POSITIVE
Ionization: ESI
Fragmentation mode: HCD
Collision energy: 140% (nominal)
Resolution: 15000
Column name: Kinetex Evo C18 2.6 um 50 x 2.1 mm
Retention time: 0.799 min
Base peak: 230.0552
Precursor m/z: 230.0552
Precursor type: [M+H]+
m/z	relative intensity	assigned
53.0132	18	C2HN2+
60.0554	640	CH6N3+
61.979	374	CHClN+
63.9947	699	CH3ClN+
66.0211	444	C3H2N2+
73.9791	692	C2HClN+
80.0243	23	C3H2N3+
81.0321	17	C3H3N3+
88.9901	797	C2H2ClN2+
100.9901	650	C3H2ClN2+
108.043	359	C4H4N4+
116.001	999	C3H3ClN3+
