Mass spectrum: PR toxin; LC-ESI-ITFT; MS2; CE: 30%; R=7500; [M+H]+
Name: PR toxin
Name: Spiro(naphthalene-2(1H),2`-oxirane)-3`-carboxaldehyde, 3,5,6,7,8,8a-hexahydro-7-acetoxy-5,6-epoxy-3`,8,8a-trimethyl-3-oxo-
Name: (3`-formyl-3,3`,3a-trimethyl-6-oxospiro[2,3,4,7b-tetrahydro-1aH-naphtho[1,2-b]oxirene-5,2`-oxirane]-2-yl) acetate
Formula: C17H20O6
Exact mass: 320.1260
SMILES: CC1C(C2C(O2)C3=CC(=O)C4(CC13C)C(O4)(C)C=O)OC(=O)C
InChI: InChI=1S/C17H20O6/c1-8-12(21-9(2)19)14-13(22-14)10-5-11(20)17(6-15(8,10)3)16(4,7-18)23-17/h5,7-8,12-14H,6H2,1-4H3
Instrument: LTQ Orbitrap XL Thermo Scientific
Instrument type: LC-ESI-ITFT
Ms type: MS2
Ion mode: POSITIVE
Ionization: ESI
Fragmentation mode: HCD
Collision energy: 30 % (nominal)
Resolution: 7500
Column name: Hypersil GOLD C18 1.9 um 100 x 2.1 mm Thermo Fisher Scientific
Retention time: 15.775 min
Base peak: 321.1335
Precursor m/z: 321.1333
Precursor type: [M+H]+
Precursor intensity: 3327179.880859
m/z	relative intensity	assigned
109.0648	42	C7H9O+
117.0694	38	C9H9+
121.0648	48	C8H9O+
121.1006	36	C9H13+
125.0597	48	C7H9O2+
131.0852	49	C10H11+
133.0647	36	C9H9O+
135.0441	56	C8H7O2+
135.0801	99	C9H11O+
145.101	177	C11H13+
147.0799	101	C10H11O+
149.0594	50	C9H9O2+
149.0963	48	C10H13O+
159.0803	152	C11H11O+
159.1165	93	C12H15+
161.096	441	C11H13O+
163.0751	160	C10H11O2+
163.1118	87	C11H15O+
169.1003	64	C13H13+
173.0959	612	C12H13O+
175.0755	265	C11H11O2+
177.0905	110	C11H13O2+
187.1117	342	C13H15O+
189.0908	253	C12H13O2+
191.0701	129	C11H11O3+
191.1067	461	C12H15O2+
193.0853	39	C11H13O3+
197.0958	138	C14H13O+
201.0911	262	C13H13O2+
203.1059	45	C13H15O2+
205.1218	121	C13H17O2+
209.0806	51	C11H13O4+
215.1063	427	C14H15O2+
219.1012	479	C13H15O3+
233.1172	279	C14H17O3+
237.1125	115	C13H17O4+
243.1011	60	C15H15O3+
251.1287	38	C14H19O4+
261.1121	269	C15H17O4+
279.1224	999	C15H19O5+
293.1377	189	C16H21O5+
321.1329	604	C17H21O6+
