Mass spectrum: Tentotoxin; LC-ESI-ITFT; MS2; CE: 60%; R=7500; [M+H]+
Name: Tentotoxin
Name: 12-benzylidene-1,6,7-trimethyl-3-(2-methylpropyl)-1,4,7,10-tetrazacyclododecane-2,5,8,11-tetrone
Formula: C22H30N4O4
Exact mass: 414.2267
SMILES: CC1C(=O)NC(C(=O)N(C(=CC2=CC=CC=C2)C(=O)NCC(=O)N1C)C)CC(C)C
InChI: InChI=1S/C22H30N4O4/c1-14(2)11-17-22(30)26(5)18(12-16-9-7-6-8-10-16)21(29)23-13-19(27)25(4)15(3)20(28)24-17/h6-10,12,14-15,17H,11,13H2,1-5H3,(H,23,29)(H,24,28)
Instrument: LTQ Orbitrap XL Thermo Scientific
Instrument type: LC-ESI-ITFT
Ms type: MS2
Ion mode: POSITIVE
Ionization: ESI
Fragmentation mode: HCD
Collision energy: 60 % (nominal)
Resolution: 7500
Column name: Hypersil GOLD C18 1.9 um 100 x 2.1 mm Thermo Fisher Scientific
Retention time: 18.896 min
Base peak: 415.2344
Precursor m/z: 415.234
Precursor type: [M+H]+
Precursor intensity: 24863502.65039
m/z	relative intensity	assigned
58.065	391	C3H8N+
73.0889	17	C4H11N+
73.1701	13	C2H21N2+
86.0964	108	C5H12N+
91.0541	133	C7H7+
113.0709	28	C5H9N2O+
114.0911	21	C6H12NO+
115.0541	26	C9H7+
115.0866	24	C5H11N2O+
130.0649	68	C9H8N+
132.0806	999	C9H10N+
144.0809	38	C10H10N+
146.0964	169	C10H12N+
160.0754	45	C10H10NO+
169.1336	40	C9H17N2O+
171.0917	66	C11H11N2+
171.1496	47	C9H19N2O+
173.1071	39	C11H13N2+
181.1341	12	C10H17N2O+
188.0706	138	C11H10NO2+
189.1022	701	C11H13N2O+
200.1185	41	C12H14N3+
201.1018	16	C12H13N2O+
210.1595	20	C11H20N3O+
217.0969	54	C12H13N2O2+
227.155	22	C15H19N2+
239.1546	45	C16H19N2+
245.1639	34	C15H21N2O+
256.1806	524	C16H22N3+
330.1807	21	C18H24N3O3+
