Mass spectrum: Dibucaine; LC-ESI-ITFT; MS2; CE: 40%; R=15000; [M+H]+
Name: Dibucaine
Name: 2-butoxy-N-[2-(diethylamino)ethyl]quinoline-4-carboxamide
Formula: C20H29N3O2
Exact mass: 343.2260
SMILES: CCCCOC1=NC2=CC=CC=C2C(=C1)C(=O)NCCN(CC)CC
InChI: InChI=1S/C20H29N3O2/c1-4-7-14-25-19-15-17(16-10-8-9-11-18(16)22-19)20(24)21-12-13-23(5-2)6-3/h8-11,15H,4-7,12-14H2,1-3H3,(H,21,24)
Instrument: LTQ Orbitrap XL Thermo Scientific
Instrument type: LC-ESI-ITFT
Ms type: MS2
Ion mode: POSITIVE
Ionization: ESI
Fragmentation mode: HCD
Collision energy: 40% (nominal)
Resolution: 15000
Column name: Kinetex Evo C18 2.6 um 50 x 2.1 mm
Retention time: 8.746 min
Base peak: 344.2334
Precursor m/z: 344.2333
Precursor type: [M+H]+
m/z	relative intensity	assigned
74.0963	48	C4H12N+
100.112	47	C6H14N+
144.0442	1	C9H6NO+
172.0391	3	C10H6NO2+
215.0814	146	C12H11N2O2+
227.118	2	C14H15N2O+
228.1018	18	C14H14NO2+
271.1441	999	C16H19N2O2+
288.1702	1	C16H22N3O2+
344.2332	43	C20H30N3O2+
