Mass spectrum: Dosulepin; LC-ESI-ITFT; MS2; CE: 95%; R=15000; [M+H]+
Name: Dosulepin
Name: Dothiepin
Name: 3-(6H-benzo[c][1]benzothiepin-11-ylidene)-N,N-dimethylpropan-1-amine
Formula: C19H21NS
Exact mass: 295.1395
SMILES: CN(C)CCC=C1C2=CC=CC=C2CSC3=CC=CC=C31
InChI: InChI=1S/C19H21NS/c1-20(2)13-7-11-17-16-9-4-3-8-15(16)14-21-19-12-6-5-10-18(17)19/h3-6,8-12H,7,13-14H2,1-2H3
Instrument: LTQ Orbitrap XL Thermo Scientific
Instrument type: LC-ESI-ITFT
Ms type: MS2
Ion mode: POSITIVE
Ionization: ESI
Fragmentation mode: HCD
Collision energy: 95% (nominal)
Resolution: 15000
Column name: Kinetex Evo C18 2.6 um 50 x 2.1 mm
Retention time: 8.168 min
Base peak: 296.1465
Precursor m/z: 296.1467
Precursor type: [M+H]+
m/z	relative intensity	assigned
58.0649	180	C3H8N+
70.0649	19	C4H8N+
84.0808	25	C5H10N+
91.0542	446	C7H7+
103.0545	19	C8H7+
115.0542	359	C9H7+
116.0622	10	C9H8+
117.0698	293	C9H9+
123.0261	83	C7H7S+
128.0621	54	C10H8+
129.0698	99	C10H9+
135.0264	28	C8H7S+
141.0698	130	C11H9+
142.0776	25	C11H10+
147.0262	174	C9H7S+
165.0698	330	C13H9+
173.0418	35	C11H9S+
178.0777	726	C14H10+
179.0855	149	C14H11+
189.0697	34	C15H9+
190.0777	48	C15H10+
191.0854	310	C15H11+
192.0934	120	C15H12+
197.0417	28	C13H9S+
202.0776	779	C16H10+
203.0854	999	C16H11+
204.0933	28	C16H12+
208.034	86	C14H8S+
209.0418	43	C14H9S+
210.0496	248	C14H10S+
215.0854	149	C17H11+
216.0931	77	C17H12+
217.101	690	C17H13+
218.1091	89	C17H14+
221.0418	947	C15H9S+
222.0494	179	C15H10S+
223.0574	121	C15H11S+
234.0496	121	C16H10S+
235.0574	229	C16H11S+
236.0652	22	C16H12S+
