Mass spectrum: Dibucaine; ESI-QTOF; MS2; CE: 20eV; R=15000; [M+H]+
Name: Dibucaine
Name: 2-Butoxy-N-[2-(diethylamino)ethyl]quinoline-4-carboxamide
Formula: C20H29N3O2
Exact mass: 343.226
SMILES: CCCCOC1=CC(C(=O)NCCN(CC)CC)=C2C=CC=CC2=N1
InChI: InChI=1S/C20H29N3O2/c1-4-7-14-25-19-15-17(16-10-8-9-11-18(16)22-19)20(24)21-12-13-23(5-2)6-3/h8-11,15H,4-7,12-14H2,1-3H3,(H,21,24)
Instrument: TripleTOF 5600+SCIEX
Instrument type: ESI-QTOF
Ms type: MS2
Ion mode: POSITIVE
Ionization: ESI
Fragmentation mode: CID
Collision energy: 20 eV
Resolution: 15000
Precursor m/z: 344.2333
Precursor type: [M+H]+
m/z	relative intensity
74.0982	8
100.1131	4
116.0502	4
144.0451	3
215.0826	41
241.2368	1
271.146	434
288.1723	5
344.2333	999
