Mass spectrum: Metoclopramide; LC-ESI-QTOF; MS2; CE: 50 eV; R=3600; [M+H]+
Name: Metoclopramide
Name: 4-Amino-5-chloro-N-[2-(diethylamino)ethyl]-2-methoxybenzamide
Formula: C14H22ClN3O2
Exact mass: 299.1401
SMILES: CCN(CC)CCNC(=O)C1=CC(Cl)=C(N)C=C1OC
InChI: InChI=1S/C14H22ClN3O2/c1-4-18(5-2)7-6-17-14(19)10-8-11(15)12(16)9-13(10)20-3/h8-9H,4-7,16H2,1-3H3,(H,17,19)
Instrument: 6629 QTOF Agilent
Instrument type: LC-ESI-QTOF
Ms type: MS2
Ion mode: POSITIVE
Ionization: ESI
Fragmentation mode: CID
Collision energy: 50 eV
Resolution: 3600
Precursor m/z: 300.1474
Precursor type: [M+H]+
m/z	relative intensity
63.023	179
78.033	721
90.033	470
93.057	141
98.9985	93
105.0432	94
113.001	999
126.0082	139
128.0242	66
129.007	54
140.011	61
140.9958	730
148.0611	64
154.0034	50
156.0195	92
168.0057	415
168.9893	176
169.9987	85
183.0281	84
184.0122	405
212.0326	84
