Mass spectrum: Sulthiame; LC-ESI-ITFT; MS2; CE: 100%; R=15000; [M+H]+
Name: Sulthiame
Name: 4-(1,1-dioxothiazinan-2-yl)benzenesulfonamide
Formula: C10H14N2O4S2
Exact mass: 290.0395
SMILES: C1CCS(=O)(=O)N(C1)C2=CC=C(C=C2)S(=O)(=O)N
InChI: InChI=1S/C10H14N2O4S2/c11-18(15,16)10-5-3-9(4-6-10)12-7-1-2-8-17(12,13)14/h3-6H,1-2,7-8H2,(H2,11,15,16)
Instrument: LTQ Orbitrap XL Thermo Scientific
Instrument type: LC-ESI-ITFT
Ms type: MS2
Ion mode: POSITIVE
Ionization: ESI
Fragmentation mode: HCD
Collision energy: 100% (nominal)
Resolution: 15000
Column name: Kinetex Evo C18 2.6 um 50 x 2.1 mm
Retention time: 4.280 min
Base peak: 308.0734
Precursor m/z: 291.0468
Precursor type: [M+H]+
m/z	relative intensity	assigned
55.054	27	C4H7+
65.0385	16	C5H5+
76.0308	15	C6H4+
77.0386	19	C6H5+
78.0463	22	C6H6+
79.0417	13	C5H5N+
90.0466	8	C7H6+
91.0542	52	C7H7+
92.0494	22	C6H6N+
93.0573	32	C6H7N+
94.0413	35	C6H6O+
95.0492	16	C6H7O+
104.0495	167	C7H6N+
105.0573	999	C7H7N+
106.0651	32	C7H8N+
108.0442	13	C6H6NO+
117.0573	87	C8H7N+
118.0651	117	C8H8N+
119.0729	27	C8H9N+
122.0601	75	C7H8NO+
130.065	12	C9H8N+
132.0808	49	C9H10N+
134.0603	14	C8H8NO+
137.0473	9	C7H7NO2+
146.0965	15	C10H12N+
147.104	12	C10H13N+
185.038	195	C7H9N2O2S+
