Mass spectrum: Dixyrazine ; ESI-QTOF; MS2; CE: 35eV; R=15000; [M+H]+
Name: Dixyrazine
Name: 2-(2-{4-[2-Methyl-3-(10H-phenothiazin-10-yl)propyl]piperazin-1-yl}ethoxy)ethan-1-ol
Formula: C24H33N3O2S
Exact mass: 427.2293
SMILES: CC(CN1CCN(CCOCCO)CC1)CN1C2=CC=CC=C2SC2=CC=CC=C12
InChI: InChI=1S/C24H33N3O2S/c1-20(18-26-12-10-25(11-13-26)14-16-29-17-15-28)19-27-21-6-2-4-8-23(21)30-24-9-5-3-7-22(24)27/h2-9,20,28H,10-19H2,1H3
Instrument: TripleTOF 5600+SCIEX
Instrument type: ESI-QTOF
Ms type: MS2
Ion mode: POSITIVE
Ionization: ESI
Fragmentation mode: CID
Collision energy: 35 eV
Resolution: 15000
Precursor m/z: 428.2367
Precursor type: [M+H]+
m/z	relative intensity
58.0675	1
70.067	3
82.0664	1
87.0451	4
97.0768	10
98.0848	42
99.0923	4
100.1127	1
101.1081	73
110.0842	2
112.1123	2
113.1078	1
118.0864	1
125.1076	21
127.1231	1
132.1019	1
139.1229	1
140.1308	5
144.1019	7
152.0619	1
155.1542	2
167.1541	1
172.1205	20
178.065	1
179.0728	1
180.0806	19
187.1446	369
198.0373	1
199.0452	2
212.0532	119
220.1121	1
221.12	3
229.1918	999
254.1002	15
366.2002	1
428.2367	596
