Mass spectrum: Ethambutol; LC-ESI-QFT; MS2; CE: 55%; R=17500; [M+H]+
Name: Ethambutol
Name: (2S,2'S)-2,2'-(Ethane-1,2-diyldiazanediyl)di(butan-1-ol)
Formula: C10H24N2O2
Exact mass: 204.1838
SMILES: CC[C@@H](CO)NCCN[C@@H](CC)CO
InChI: InChI=1S/C10H24N2O2/c1-3-9(7-13)11-5-6-12-10(4-2)8-14/h9-14H,3-8H2,1-2H3/t9-,10-/m0/s1
Instrument: Q Exactive Thermo Fisher Scientific
Instrument type: LC-ESI-QFT
Ms type: MS2
Ion mode: POSITIVE
Ionization: ESI
Fragmentation mode: HCD
Collision energy: 55% (nominal)
Resolution: 17500
Column name: Hypersil GOLD 1.9 um 2.1 x 100 mm Thermo Fisher Scientific
Precursor m/z: 205.1911
Precursor type: [M+H]+
m/z	relative intensity
53.0395	3
55.0551	22
62.0609	16
69.0707	6
70.0659	7
72.0816	11
74.0608	15
79.0549	1
81.0707	4
90.092	7
98.097	40
116.1074	999
205.1911	0
