Mass spectrum: Sulfamethoxazole; LC-ESI-QTOF; MS2; CE: 35 eV; R=3600; [M+H]+
Name: Sulfamethoxazole
Name: 4-Amino-N-(5-methyl-1,2-oxazol-3-yl)benzene-1-sulfonamide
Formula: C10H11N3O3S
Exact mass: 253.0521
SMILES: CC1=CC(NS(=O)(=O)C2=CC=C(N)C=C2)=NO1
InChI: InChI=1S/C10H11N3O3S/c1-7-6-10(12-16-7)13-17(14,15)9-4-2-8(11)3-5-9/h2-6H,11H2,1H3,(H,12,13)
Instrument: 6666 QTOF Agilent
Instrument type: LC-ESI-QTOF
Ms type: MS2
Ion mode: POSITIVE
Ionization: ESI
Fragmentation mode: CID
Collision energy: 35 eV
Resolution: 3600
Precursor m/z: 254.0594
Precursor type: [M+H]+
m/z	relative intensity
51.0234	2
52.0295	5
53.0412	48
54.0329	2
55.0228	4
56.0501	3
64.0197	2
65.0398	999
66.0441	41
67.0473	7
71.0607	4
72.0458	3
78.0341	12
79.0385	2
80.0505	288
90.0291	4
92.0505	553
93.0582	197
99.0562	46
105.0483	2
107.0613	24
108.0456	390
109.0553	4
118.0546	7
119.0647	4
129.0527	2
131.068	4
132.065	5
133.0676	2
143.0542	5
146.073	24
147.0837	5
156.0118	8
159.0003	5
160.0885	7
