Mass spectrum: Mefruside; ESI-QTOF; MS2; CE: 25eV; R=15000; [M+H]+
Name: Mefruside
Name: 4-Chloro-N1-methyl-N1-[(2-methyloxolan-2-yl)methyl]benzene-1,3-disulfonamide
Formula: C13H19ClN2O5S2
Exact mass: 382.0424
SMILES: CN(CC1(C)CCCO1)S(=O)(=O)C1=CC=C(Cl)C(=C1)S(N)(=O)=O
InChI: InChI=1S/C13H19ClN2O5S2/c1-13(6-3-7-21-13)9-16(2)23(19,20)10-4-5-11(14)12(8-10)22(15,17)18/h4-5,8H,3,6-7,9H2,1-2H3,(H2,15,17,18)
Instrument: TripleTOF 5600+SCIEX
Instrument type: ESI-QTOF
Ms type: MS2
Ion mode: POSITIVE
Ionization: ESI
Fragmentation mode: CID
Collision energy: 25 eV
Resolution: 15000
Precursor m/z: 383.0497
Precursor type: [M+H]+
m/z	relative intensity
53.0417	2
55.0577	3
57.0363	16
58.0674	1
65.0406	1
66.0495	1
69.072	14
70.0674	2
71.0874	8
73.0903	1
77.0401	2
79.0559	23
81.0095	1
81.0716	297
82.0667	1
83.0863	1
84.0825	104
85.0658	1
86.0617	20
87.0689	1
93.0718	1
94.0663	1
95.0738	1
96.082	17
97.066	19
98.0971	3
99.0816	322
100.0772	1
101.1211	1
108.9852	3
110.0973	22
111.1051	23
112.113	8
113.0606	1
114.0921	1
114.9944	1
116.9561	1
119.086	2
126.0896	1
128.0261	1
128.1079	145
129.0153	1
129.0388	1
129.1156	999
130.0468	1
131.0019	1
131.9328	1
135.0805	1
139.9901	1
140.9738	3
142.0064	4
142.9904	14
143.9658	1
156.0214	1
172.9466	3
189.9737	11
190.9579	1
203.989	17
207.984	5
217.9796	39
218.977	1
219.9809	1
221.9988	1
225.9382	1
231.9966	1
237.9409	7
250.0377	1
253.9356	188
267.9515	111
284.1023	4
284.9782	941
285.0172	6
285.9595	1
288.0475	5
293.0285	1
296.0639	1
296.9782	150
301.0775	1
302.0352	1
310.9928	1
314.9878	1
342.0223	1
352.0088	15
353.0366	1
365.0412	47
383.0497	209
