Mass spectrum: Phenazone; ESI-QTOF; MS2; CE: 40eV; R=15000; [M+H]+
Name: Phenazone
Name: 1,5-Dimethyl-2-phenyl-1,2-dihydro-3H-pyrazol-3-one
Formula: C11H12N2O
Exact mass: 188.095
SMILES: CN1N(C(=O)C=C1C)C1=CC=CC=C1
InChI: InChI=1S/C11H12N2O/c1-9-8-11(14)13(12(9)2)10-6-4-3-5-7-10/h3-8H,1-2H3
Instrument: TripleTOF 5600+SCIEX
Instrument type: ESI-QTOF
Ms type: MS2
Ion mode: POSITIVE
Ionization: ESI
Fragmentation mode: CID
Collision energy: 40 eV
Resolution: 15000
Precursor m/z: 189.1023
Precursor type: [M+H]+
m/z	relative intensity
50.0176	10
51.0254	37
52.0329	1
53.0408	3
54.0359	8
55.0199	12
55.0436	8
56.0155	1
56.052	757
57.0593	1
58.0305	3
58.0671	196
63.0245	1
65.04	109
66.0476	1
67.019	4
68.0505	13
69.0584	22
70.0661	4
71.0373	1
73.0476	1
75.0237	1
76.0315	1
77.0396	999
78.047	20
79.0549	72
80.05	7
81.0453	47
82.0291	4
83.0608	4
84.0446	1
86.0603	2
89.0387	8
90.0465	9
91.0543	136
92.0496	30
93.0335	9
93.0573	20
94.0651	23
95.0603	67
96.0444	7
96.0681	58
97.0392	1
98.0598	64
101.0383	5
102.046	28
103.0539	125
104.0492	576
105.0331	15
105.0569	28
105.0691	24
106.0501	6
106.0648	617
107.0599	11
108.0676	1
111.0548	5
112.0626	2
113.0703	5
114.0457	1
115.0536	248
116.0489	13
116.061	12
117.0575	171
117.0684	163
118.0644	227
119.0719	14
120.08	109
121.0752	5
127.0533	19
128.0487	52
129.0563	89
130.0642	548
131.0605	291
132.0436	14
132.0674	148
133.0511	45
133.0749	19
134.0953	20
135.0542	4
143.0717	44
144.0796	160
145.0745	218
146.0591	6
146.0827	137
147.0905	263
148.0741	5
149.0698	15
157.051	26
159.0539	16
159.0904	17
160.0982	8
161.1059	30
162.0902	1
172.0742	15
173.0694	30
174.0773	76
189.1023	184
