Mass spectrum: Dibucaine; LC-ESI-ITFT; MS2; CE: 70%; R=7500; [M+H]+
Name: Dibucaine
Name: 2-Butoxy-N-[2-(diethylamino)ethyl]quinoline-4-carboxamide
Formula: C20H29N3O2
Exact mass: 343.226
SMILES: CCCCOC1=CC(C(=O)NCCN(CC)CC)=C2C=CC=CC2=N1
InChI: InChI=1S/C20H29N3O2/c1-4-7-14-25-19-15-17(16-10-8-9-11-18(16)22-19)20(24)21-12-13-23(5-2)6-3/h8-11,15H,4-7,12-14H2,1-3H3,(H,21,24)
Instrument: LTQ Orbitrap XL Thermo Fisher Scientific
Instrument type: LC-ESI-ITFT
Ms type: MS2
Ion mode: POSITIVE
Ionization: ESI
Fragmentation mode: HCD
Collision energy: 70% (nominal)
Resolution: 7500
Column name: Hypersil GOLD C18 1.9 um 100 x 2.1 mm Thermo Fisher Scientific
Precursor m/z: 344.2333
Precursor type: [M+H]+
m/z	relative intensity
57.0696	11
57.0834	2
57.0996	3
57.1047	5
57.1239	2
57.1651	2
72.0807	10
74.0963	21
100.1121	63
116.0495	438
118.0652	2
128.0495	4
130.065	6
132.0444	5
144.0445	347
145.0524	8
146.06	28
157.0887	5
158.0601	26
159.0681	2
160.0758	7
162.0559	2
167.0734	2
170.0962	2
171.0554	134
172.0394	531
182.0964	9
183.1044	4
187.0867	34
199.1229	3
200.1072	18
202.123	6
215.0816	999
225.1384	5
227.1182	33
228.1021	61
243.1494	15
271.1443	202
