Mass spectrum: Dibucaine; LC-ESI-ITFT; MS2; CE: 75%; R=15000; [M+H]+
Name: Dibucaine
Name: 2-butoxy-N-[2-(diethylamino)ethyl]quinoline-4-carboxamide
Formula: C20H29N3O2
Exact mass: 343.2260
SMILES: CCCCOC1=NC2=CC=CC=C2C(=C1)C(=O)NCCN(CC)CC
InChI: InChI=1S/C20H29N3O2/c1-4-7-14-25-19-15-17(16-10-8-9-11-18(16)22-19)20(24)21-12-13-23(5-2)6-3/h8-11,15H,4-7,12-14H2,1-3H3,(H,21,24)
Instrument: LTQ Orbitrap XL Thermo Scientific
Instrument type: LC-ESI-ITFT
Ms type: MS2
Ion mode: POSITIVE
Ionization: ESI
Fragmentation mode: HCD
Collision energy: 75% (nominal)
Resolution: 15000
Column name: Kinetex Evo C18 2.6 um 50 x 2.1 mm
Retention time: 8.741 min
Base peak: 344.233
Precursor m/z: 344.2333
Precursor type: [M+H]+
m/z	relative intensity	assigned
57.0696	128	C4H9+
70.0285	5	C3H4NO+
72.0806	48	C4H10N+
74.0963	51	C4H12N+
86.0962	6	C5H12N+
100.112	124	C6H14N+
116.0494	999	C8H6N+
128.0494	8	C9H6N+
130.0653	19	C9H8N+
132.0443	9	C8H6NO+
143.0601	5	C9H7N2+
143.073	5	C10H9N+
144.0443	922	C9H6NO+
145.0521	21	C9H7NO+
146.06	49	C9H8NO+
153.0442	8	C10H5N2+
156.0439	7	C10H6NO+
157.0891	5	C11H11N+
158.06	42	C10H8NO+
159.2074	4	C6H27N2O2+
160.0757	15	C10H10NO+
170.0601	17	C11H8NO+
171.0552	229	C10H7N2O+
172.0392	764	C10H6NO2+
176.0707	5	C10H10NO2+
186.0789	6	C11H10N2O+
187.0864	64	C11H11N2O+
200.1069	22	C13H14NO+
215.0814	864	C12H11N2O2+
227.1175	30	C14H15N2O+
228.1018	37	C14H14NO2+
243.1494	12	C15H19N2O+
271.1437	79	C16H19N2O2+
