Mass spectrum: Aspercolorin; LC-ESI-ITFT; MS2; CE: 50%; R=7500; [M-H]-
Name: Aspercolorin
Name: 14-benzyl-19-methoxy-2,8,12,15-tetrazatricyclo[15.4.0.04,8]henicosa-1(17),18,20-triene-3,9,13,16-tetrone
Formula: C25H28N4O5
Exact mass: 464.20597
SMILES: COC1=CC2=C(C=C1)NC(=O)C3CCCN3C(=O)CCNC(=O)C(NC2=O)CC4=CC=CC=C4
InChI: InChI=1S/C25H28N4O5/c1-34-17-9-10-19-18(15-17)23(31)28-20(14-16-6-3-2-4-7-16)24(32)26-12-11-22(30)29-13-5-8-21(29)25(33)27-19/h2-4,6-7,9-10,15,20-21H,5,8,11-14H2,1H3,(H,26,32)(H,27,33)(H,28,31)
Instrument: LTQ Orbitrap XL Thermo Scientific
Instrument type: LC-ESI-ITFT
Ms type: MS2
Ion mode: NEGATIVE
Ionization: ESI
Fragmentation mode: HCD
Collision energy: 50 % (nominal)
Resolution: 7500
Column name: Hypersil GOLD C18 1.9 um 100 x 2.1 mm Thermo Fisher Scientific
Retention time: 19.779 min
Base peak: 463.1976
Precursor m/z: 463.1987
Precursor type: [M-H]-
Precursor intensity: 19163363.63037
m/z	relative intensity	assigned
71.0248	19	C2H3N2O-
138.0554	7	C7H8NO2-
146.0608	15	C9H8NO-
163.0873	30	C9H11N2O-
165.0661	9	C8H9N2O2-
166.0501	12	C6H6N4O2-
167.082	42	C8H11N2O2-
189.067	8	C10H9N2O2-
203.0494	4	C13H5N3-
244.1085	5	C13H14N3O2-
262.1191	13	C13H16N3O3-
278.1021	6	C14H16NO5-
279.1119	2	C14H17NO5-
294.1242	5	C17H16N3O2-
295.1075	45	C17H15N2O3-
316.1289	117	C16H18N3O4-
354.1317	28	C18H18N4O4-
372.1429	18	C18H20N4O5-
445.1863	137	C25H25N4O4-
448.1753	13	C24H24N4O5-
463.1969	999	C25H27N4O5-
