Mass spectrum: Sulfamethoxazole; LC-ESI-ITFT; MS2; CE: 35%; R=15000; [M+H]+
Name: Sulfamethoxazole
Name: 4-amino-N-(5-methyl-1,2-oxazol-3-yl)benzenesulfonamide
Formula: C10H11N3O3S
Exact mass: 253.0521
SMILES: CC1=CC(=NO1)NS(=O)(=O)C2=CC=C(C=C2)N
InChI: InChI=1S/C10H11N3O3S/c1-7-6-10(12-16-7)13-17(14,15)9-4-2-8(11)3-5-9/h2-6H,11H2,1H3,(H,12,13)
Instrument: LTQ Orbitrap XL Thermo Scientific
Instrument type: LC-ESI-ITFT
Ms type: MS2
Ion mode: POSITIVE
Ionization: ESI
Fragmentation mode: CID
Collision energy: 35% (nominal)
Resolution: 15000
Column name: Kinetex Evo C18 2.6 um 50 x 2.1 mm
Retention time: 5.886 min
Base peak: 189.1022
Precursor m/z: 254.0594
Precursor type: [M+H]+
m/z	relative intensity	assigned
65.0384	3	C5H5+
80.0494	2	C5H6N+
92.0495	94	C6H6N+
93.0574	27	C6H7N+
94.0652	30	C6H8N+
99.0553	17	C4H7N2O+
107.0604	26	C6H7N2+
108.0444	207	C6H6NO+
121.076	2	C7H9N2+
131.0604	6	C8H7N2+
133.0637	2	C7H7N3+
145.0761	3	C9H9N2+
146.0714	147	C8H8N3+
147.0792	600	C8H9N3+
148.0869	156	C8H10N3+
156.0114	999	C6H6NO2S+
160.0869	397	C9H10N3+
161.0016	6	C4H5N2O3S+
161.0709	10	C9H9N2O+
163.0867	5	C9H11N2O+
172.0871	15	C10H10N3+
176.0278	33	C8H6N3S+
177.0118	7	C8H5N2OS+
188.082	960	C10H10N3O+
190.0975	366	C10H12N3O+
193.0304	3	C8H7N3OS+
194.0383	391	C8H8N3OS+
236.0489	36	C10H10N3O2S+
254.0595	34	C10H12N3O3S+
