Mass spectrum: Antipyrine; LC-ESI-ITFT; MS2; CE: 140%; R=15000; [M+H]+
Name: Antipyrine
Name: 1,5-dimethyl-2-phenylpyrazol-3-one
Formula: C11H12N2O
Exact mass: 188.0950
SMILES: CC1=CC(=O)N(N1C)C2=CC=CC=C2
InChI: InChI=1S/C11H12N2O/c1-9-8-11(14)13(12(9)2)10-6-4-3-5-7-10/h3-8H,1-2H3
Instrument: LTQ Orbitrap XL Thermo Scientific
Instrument type: LC-ESI-ITFT
Ms type: MS2
Ion mode: POSITIVE
Ionization: ESI
Fragmentation mode: HCD
Collision energy: 140% (nominal)
Resolution: 15000
Column name: Kinetex Evo C18 2.6 um 50 x 2.1 mm
Retention time: 5.578 min
Base peak: 189.1024
Precursor m/z: 189.1022
Precursor type: [M+H]+
m/z	relative intensity	assigned
54.0336	12	C3H4N+
55.0176	14	C3H3O+
55.0414	15	C3H5N+
56.0492	999	C3H6N+
58.0649	177	C3H8N+
65.0384	199	C5H5+
67.0177	7	C4H3O+
68.0494	26	C4H6N+
69.0571	19	C4H7N+
77.0385	913	C6H5+
78.0464	80	C6H6+
79.0542	127	C6H7+
80.0494	16	C5H6N+
81.0447	46	C4H5N2+
82.0287	17	C4H4NO+
83.0601	6	C4H7N2+
89.0387	23	C7H5+
90.0339	15	C6H4N+
90.0464	31	C7H6+
91.0542	208	C7H7+
92.0495	39	C6H6N+
93.0573	34	C6H7N+
94.0651	21	C6H8N+
95.0492	198	C6H7O+
95.0604	51	C5H7N2+
96.0443	5	C5H6NO+
96.0681	5	C5H8N2+
98.0601	40	C5H8NO+
102.0465	53	C8H6+
103.0543	126	C8H7+
104.0495	314	C7H6N+
105.0447	694	C6H5N2+
106.0651	261	C7H8N+
115.0542	177	C9H7+
116.0495	13	C8H6N+
116.0621	14	C9H8+
117.0573	101	C8H7N+
117.07	31	C9H9+
118.0651	76	C8H8N+
119.0606	10	C7H7N2+
120.081	20	C8H10N+
128.0495	43	C9H6N+
129.0449	10	C8H5N2+
129.0574	38	C9H7N+
130.0651	204	C9H8N+
131.0604	184	C8H7N2+
131.073	18	C9H9N+
132.0442	10	C8H6NO+
132.0682	62	C8H8N2+
132.0806	10	C9H10N+
133.0522	10	C8H7NO+
134.0474	7	C7H6N2O+
143.0732	14	C10H9N+
144.0811	22	C10H10N+
145.076	71	C9H9N2+
146.0599	11	C9H8NO+
146.0839	9	C9H10N2+
147.0918	11	C9H11N2+
