Mass spectrum: Nylidrin; LC-ESI-QFT; MS2; CE: CE15; R=17500; [M+H]+
Name: Nylidrin
Name: 4-[1-hydroxy-2-(4-phenylbutan-2-ylamino)propyl]phenol
Formula: C19H25NO2
Exact mass: 299.1885
SMILES: CC(CCC1=CC=CC=C1)NC(C)C(O)C1=CC=C(O)C=C1
InChI: InChI=1S/C19H25NO2/c1-14(8-9-16-6-4-3-5-7-16)20-15(2)19(22)17-10-12-18(21)13-11-17/h3-7,10-15,19-22H,8-9H2,1-2H3
Instrument: Q Exactive Thermo Fisher Scientific
Instrument type: LC-ESI-QFT
Ms type: MS2
Ion mode: POSITIVE
Ionization: ESI
Fragmentation mode: HCD
Collision energy: CE15
Resolution: 17500
Column name: Acquity UPLC BEH C18 1.7 um, 2.1 x 150 mm, Waters
Retention time: 17.136 min
Base peak: 223.0629
Precursor m/z: 300.1958
Precursor type: [M+H]+
m/z	relative intensity	assigned
56.0497	1	C3H6N+
91.0542	122	C7H7+
105.0695	7	C8H9+
107.0493	3	C7H7O+
109.0641	1	C7H9O+
133.065	29	C9H9O+
135.0809	26	C9H11O+
148.1127	5	C10H14N+
150.0919	383	C9H12NO+
151.0753	20	C9H11O2+
178.1227	56	C11H16NO+
282.1865	999	C19H24NO+
