Mass spectrum: 3 Acetyldeoxynivalenol; LC-ESI-ITFT; MS2; CE: 20%; R=7500; [M+H]+
Name: 3 Acetyldeoxynivalenol
Name: Acetyldeoxynivalenol
Name: [3-hydroxy-2-(hydroxymethyl)-1,5-dimethyl-4-oxospiro[8-oxatricyclo[7.2.1.02,7]dodec-5-ene-12,2`-oxirane]-10-yl] acetate
Formula: C17H22O7
Exact mass: 338.1366
SMILES: CC1=CC2C(C(C1=O)O)(C3(CC(C(C34CO4)O2)OC(=O)C)C)CO
InChI: InChI=1S/C17H22O7/c1-8-4-11-16(6-18,13(21)12(8)20)15(3)5-10(23-9(2)19)14(24-11)17(15)7-22-17/h4,10-11,13-14,18,21H,5-7H2,1-3H3
Instrument: LTQ Orbitrap XL Thermo Scientific
Instrument type: LC-ESI-ITFT
Ms type: MS2
Ion mode: POSITIVE
Ionization: ESI
Fragmentation mode: HCD
Collision energy: 20 % (nominal)
Resolution: 7500
Column name: Hypersil GOLD C18 1.9 um 100 x 2.1 mm Thermo Fisher Scientific
Retention time: 10.741 min
Base peak: 339.1436
Precursor m/z: 339.1438
Precursor type: [M+H]+
Precursor intensity: 15478757.75732
m/z	relative intensity	assigned
109.0646	7	C7H9O+
125.0593	9	C7H9O2+
137.0595	22	C8H9O2+
153.0544	7	C8H9O3+
163.075	4	C10H11O2+
173.0957	3	C12H13O+
175.0747	12	C11H11O2+
179.0697	4	C10H11O3+
187.1109	8	C13H15O+
189.0908	24	C12H13O2+
193.0856	2	C11H13O3+
197.0962	4	C14H13O+
201.0907	29	C13H13O2+
203.1063	39	C13H15O2+
205.0854	4	C12H13O3+
213.0909	60	C14H13O2+
215.1065	31	C14H15O2+
219.1012	13	C13H15O3+
223.0965	7	C12H15O4+
225.0903	5	C15H13O2+
231.1011	195	C14H15O3+
233.1168	11	C14H17O3+
243.1012	44	C15H15O3+
249.1119	20	C14H17O4+
261.1117	69	C15H17O4+
279.1222	175	C15H19O5+
291.1215	17	C16H19O5+
293.1372	2	C16H21O5+
297.1326	44	C15H21O6+
321.1328	76	C17H21O6+
339.1436	999	C17H23O7+
