Mass spectrum: Dixyrazine; LC-ESI-ITFT; MS2; CE: 50%; R=15000; [M+H]+
Name: Dixyrazine
Name: 2-[2-[4-(2-methyl-3-phenothiazin-10-ylpropyl)piperazin-1-yl]ethoxy]ethanol
Formula: C24H33N3O2S
Exact mass: 427.2293
SMILES: CC(CN1CCN(CC1)CCOCCO)CN2C3=CC=CC=C3SC4=CC=CC=C42
InChI: InChI=1S/C24H33N3O2S/c1-20(18-26-12-10-25(11-13-26)14-16-29-17-15-28)19-27-21-6-2-4-8-23(21)30-24-9-5-3-7-22(24)27/h2-9,20,28H,10-19H2,1H3
Instrument: LTQ Orbitrap XL Thermo Scientific
Instrument type: LC-ESI-ITFT
Ms type: MS2
Ion mode: POSITIVE
Ionization: ESI
Fragmentation mode: HCD
Collision energy: 50% (nominal)
Resolution: 15000
Column name: Kinetex Evo C18 2.6 um 50 x 2.1 mm
Retention time: 8.968 min
Base peak: 428.2362
Precursor m/z: 428.2366
Precursor type: [M+H]+
m/z	relative intensity	assigned
58.0649	13	C3H8N+
70.065	92	C4H8N+
82.0651	11	C5H8N+
84.0807	7	C5H10N+
87.044	90	C4H7O2+
97.076	133	C5H9N2+
98.0838	540	C5H10N2+
98.0963	50	C6H12N+
99.0916	46	C5H11N2+
100.0756	6	C5H10NO+
100.1119	6	C6H14N+
101.1073	597	C5H13N2+
110.0837	8	C6H10N2+
112.0995	12	C6H12N2+
112.112	24	C7H14N+
113.1075	9	C6H13N2+
118.0862	21	C5H12NO2+
125.1072	169	C7H13N2+
127.1225	6	C7H15N2+
132.1021	7	C6H14NO2+
140.1307	40	C8H16N2+
144.1018	78	C7H14NO2+
155.1541	26	C9H19N2+
169.0046	4	C4H3N5OS+
172.1206	156	C8H16N2O2+
180.0807	84	C13H10N+
187.144	999	C9H19N2O2+
198.0368	4	C12H8NS+
199.0449	19	C12H9NS+
212.0528	527	C13H10NS+
220.1129	4	C16H14N+
221.1198	18	C16H15N+
229.1909	892	C12H25N2O2+
254.0996	48	C16H16NS+
