Mass spectrum: Desipramine; LC-ESI-QFT; MS2; CE: CE30; R=17500; [M+H]+
Name: Desipramine
Name: 3-(5,6-dihydrobenzo[b][1]benzazepin-11-yl)-N-methylpropan-1-amine
Formula: C18H22N2
Exact mass: 266.1783
SMILES: CNCCCN1C2=C(CCC3=C1C=CC=C3)C=CC=C2
InChI: InChI=1S/C18H22N2/c1-19-13-6-14-20-17-9-4-2-7-15(17)11-12-16-8-3-5-10-18(16)20/h2-5,7-10,19H,6,11-14H2,1H3
Instrument: Q Exactive Thermo Fisher Scientific
Instrument type: LC-ESI-QFT
Ms type: MS2
Ion mode: POSITIVE
Ionization: ESI
Fragmentation mode: HCD
Collision energy: CE30
Resolution: 17500
Column name: Acquity UPLC BEH C18 1.7 um, 2.1 x 150 mm, Waters
Retention time: 19.371 min
Base peak: 223.0628
Precursor m/z: 267.1856
Precursor type: [M+H]+
m/z	relative intensity	assigned
56.0498	9	C3H6N+
57.0575	32	C3H7N+
70.0652	2	C4H8N+
72.081	999	C4H10N+
91.0543	4	C7H7+
130.0661	2	C9H8N+
167.0858	1	C13H11+
180.0794	6	C13H10N+
193.0893	77	C14H11N+
194.0965	5	C14H12N+
195.1056	14	C14H13N+
196.1128	11	C14H14N+
206.0971	4	C15H12N+
207.1028	2	C15H13N+
208.1124	134	C15H14N+
220.1111	7	C16H14N+
222.129	2	C16H16N+
236.1433	8	C17H18N+
