Mass spectrum: Citromycetin; LC-ESI-ITFT; MS2; CE: 60%; R=7500; [M-H]-
Name: Citromycetin
Name: 8,9-dihydroxy-2-methyl-4-oxo-5H-pyrano[3,2-c]chromene-10-carboxylic acid
Formula: C14H10O7
Exact mass: 290.04265
SMILES: CC1=CC(=O)C2=C(O1)C3=C(C=C(C(=C3C(=O)O)O)O)OC2
InChI: InChI=1S/C14H10O7/c1-5-2-7(15)6-4-20-9-3-8(16)12(17)11(14(18)19)10(9)13(6)21-5/h2-3,16-17H,4H2,1H3,(H,18,19)
Instrument: LTQ Orbitrap XL Thermo Scientific
Instrument type: LC-ESI-ITFT
Ms type: MS2
Ion mode: NEGATIVE
Ionization: ESI
Fragmentation mode: HCD
Collision energy: 60 % (nominal)
Resolution: 7500
Column name: Hypersil GOLD C18 1.9 um 100 x 2.1 mm Thermo Fisher Scientific
Retention time: 8.700 min
Base peak: 289.0356
Precursor m/z: 289.0354
Precursor type: [M-H]-
Precursor intensity: 8472847.195313
m/z	relative intensity	assigned
117.0348	108	C8H5O-
131.0504	9	C9H7O-
147.0453	23	C9H7O2-
157.0659	9	C11H9O-
159.0452	19	C10H7O2-
173.0607	42	C11H9O2-
177.0559	10	C10H9O3-
183.045	14	C12H7O2-
186.0325	6	C11H6O3-
199.0403	11	C12H7O3-
201.0557	379	C12H9O3-
203.0347	4	C11H7O4-
217.0507	20	C12H9O4-
227.0349	60	C13H7O4-
245.0454	999	C13H9O5-
289.0351	78	C14H9O7-
