Mass spectrum: Dixyrazine; LC-ESI-ITFT; MS2; CE: 125%; R=15000; [M+H]+
Name: Dixyrazine
Name: 2-[2-[4-(2-methyl-3-phenothiazin-10-ylpropyl)piperazin-1-yl]ethoxy]ethanol
Formula: C24H33N3O2S
Exact mass: 427.2293
SMILES: CC(CN1CCN(CC1)CCOCCO)CN2C3=CC=CC=C3SC4=CC=CC=C42
InChI: InChI=1S/C24H33N3O2S/c1-20(18-26-12-10-25(11-13-26)14-16-29-17-15-28)19-27-21-6-2-4-8-23(21)30-24-9-5-3-7-22(24)27/h2-9,20,28H,10-19H2,1H3
Instrument: LTQ Orbitrap XL Thermo Scientific
Instrument type: LC-ESI-ITFT
Ms type: MS2
Ion mode: POSITIVE
Ionization: ESI
Fragmentation mode: HCD
Collision energy: 125% (nominal)
Resolution: 15000
Column name: Kinetex Evo C18 2.6 um 50 x 2.1 mm
Retention time: 8.945 min
Base peak: 428.2365
Precursor m/z: 428.2366
Precursor type: [M+H]+
m/z	relative intensity	assigned
58.0648	117	C3H8N+
68.0492	58	C4H6N+
70.065	293	C4H8N+
82.065	77	C5H8N+
83.0603	184	C4H7N2+
97.0759	391	C5H9N2+
98.0838	616	C5H10N2+
101.1078	30	C5H13N2+
151.0541	58	C12H7+
152.0619	286	C12H8+
153.0573	37	C11H7N+
153.0696	105	C12H9+
166.0652	39	C12H8N+
167.0732	122	C12H9N+
178.065	151	C13H8N+
179.073	195	C13H9N+
180.0807	999	C13H10N+
