Mass spectrum: Sulfamethoxazole; LC-ESI-ITFT; MS2; CE: 30%; R=15000; [M+H]+
Name: Sulfamethoxazole
Name: 4-amino-N-(5-methyl-1,2-oxazol-3-yl)benzenesulfonamide
Formula: C10H11N3O3S
Exact mass: 253.0521
SMILES: CC1=CC(=NO1)NS(=O)(=O)C2=CC=C(C=C2)N
InChI: InChI=1S/C10H11N3O3S/c1-7-6-10(12-16-7)13-17(14,15)9-4-2-8(11)3-5-9/h2-6H,11H2,1H3,(H,12,13)
Instrument: LTQ Orbitrap XL Thermo Scientific
Instrument type: LC-ESI-ITFT
Ms type: MS2
Ion mode: POSITIVE
Ionization: ESI
Fragmentation mode: HCD
Collision energy: 30% (nominal)
Resolution: 15000
Column name: Kinetex Evo C18 2.6 um 50 x 2.1 mm
Retention time: 5.654 min
Base peak: 254.0592
Precursor m/z: 254.0594
Precursor type: [M+H]+
m/z	relative intensity	assigned
92.0495	156	C6H6N+
93.0572	151	C6H7N+
94.0651	27	C6H8N+
99.0552	145	C4H7N2O+
107.0604	25	C6H7N2+
108.0444	240	C6H6NO+
131.0604	2	C8H7N2+
146.0713	28	C8H8N3+
147.079	137	C8H9N3+
148.0868	51	C8H10N3+
156.0114	999	C6H6NO2S+
160.0869	130	C9H10N3+
161.0016	9	C4H5N2O3S+
163.087	2	C9H11N2O+
172.0873	2	C10H10N3+
176.0278	7	C8H6N3S+
188.0818	137	C10H10N3O+
190.0974	69	C10H12N3O+
194.0382	39	C8H8N3OS+
254.0594	771	C10H12N3O3S+
