Mass spectrum: Terbutryn-OH-desaturated (TENTATIVE); LC-ESI-QFT; MS2; CE: 30%; R=70000; [M+H]+
Name: Terbutryn-OH-desaturated
Formula: C10H17N5OS
Exact mass: 255.1144
SMILES: C(*)=C(*)NC1=NC(=NC(=N1)SC(*))NC(C)(C)C(*)  *=[OH (n=1)& H (n=3)]
Instrument: Q Exactive Plus Orbitrap Thermo Scientific
Instrument type: LC-ESI-QFT
Ms type: MS2
Ion mode: POSITIVE
Ionization: ESI
Fragmentation mode: HCD
Collision energy: 30% (nominal)
Resolution: 70000
Column name: Waters UPLC BEH C18 1.7 um 2.1 mm x 100 mm with pre-column
Retention time: 13.67 min
Precursor m/z: 256.1222
Precursor type: [M+H]+
m/z	relative intensity
55.0545	2
57.0702	12
58.041	1
59.0494	1
67.0543	3
68.0244	8
69.0698	2
74.0059	3
81.0698	4
85.0509	29
85.0645	2
86.0348	4
89.0596	3
91.0324	3
91.0543	2
91.0629	1
93.0698	2
95.0495	1
95.0855	4
107.0855	1
109.1012	3
110.0461	14
111.0805	1
116.0277	12
117.0114	2
119.0854	3
128.0569	2
133.1014	1
143.0258	3
158.0495	999
159.0334	9
200.0601	36
