Mass spectrum: Phenazone; LC-ESI-QFT; MS2; CE: CE60; R=17500; [M+H]+
Name: Phenazone
Name: Antipyrine
Name: 1,5-dimethyl-2-phenylpyrazol-3-one
Formula: C11H12N2O
Exact mass: 188.0950
SMILES: CN1N(C(=O)C=C1C)C1=CC=CC=C1
InChI: InChI=1S/C11H12N2O/c1-9-8-11(14)13(12(9)2)10-6-4-3-5-7-10/h3-8H,1-2H3
Instrument: Q Exactive Thermo Fisher Scientific
Instrument type: LC-ESI-QFT
Ms type: MS2
Ion mode: POSITIVE
Ionization: ESI
Fragmentation mode: HCD
Collision energy: CE60
Resolution: 17500
Column name: Acquity UPLC BEH C18 1.7 um, 2.1 x 150 mm, Waters
Retention time: 16.045 min
Base peak: 223.0628
Precursor m/z: 189.1022
Precursor type: [M+H]+
m/z	relative intensity	assigned
50.0156	180	C4H2+
51.0234	466	C4H3+
52.0314	6	C4H4+
53.0026	47	C3HO+
53.0391	171	C4H5+
53.9977	9	C2NO+
54.0342	40	C3H4N+
55.0181	21	C3H3O+
55.0421	10	C3H5N+
56.0497	999	C3H6N+
58.0654	56	C3H8N+
62.0156	6	C5H2+
63.0233	32	C5H3+
65.0386	223	C5H5+
66.0469	20	C5H6+
67.0183	13	C4H3O+
67.0542	5	C5H7+
68.0496	13	C4H6N+
75.0232	13	C6H3+
76.0313	10	C6H4+
77.0385	196	C6H5+
78.0464	71	C6H6+
79.0541	44	C6H7+
80.0497	16	C5H6N+
81.0337	28	C5H5O+
81.0447	17	C4H5N2+
82.0288	17	C4H4NO+
89.0385	75	C7H5+
90.0351	7	C6H4N+
90.0465	26	C7H6+
91.0541	160	C7H7+
92.0498	25	C6H6N+
93.0575	21	C6H7N+
95.049	706	C6H7O+
97.0076	6	C8H+
102.0466	52	C8H6+
103.0543	47	C8H7+
104.0499	136	C7H6N+
105.0446	157	C6H5N2+
106.0656	30	C7H8N+
115.0547	116	C9H7+
117.0565	28	C8H7N+
118.0653	21	C8H8N+
128.0495	21	C9H6N+
130.0655	53	C9H8N+
131.0607	69	C8H7N2+
132.0688	6	C8H8N2+
145.0772	13	C9H9N2+
