Mass spectrum: Carviolin; LC-ESI-ITFT; MS2; CE: 30%; R=7500; [M-H]-
Name: Carviolin
Name: 1,3-dihydroxy-6-(hydroxymethyl)-8-methoxyanthracene-9,10-dione
Formula: C16H12O6
Exact mass: 300.06339
SMILES: COC1=CC(=CC2=C1C(=O)C3=C(C2=O)C=C(C=C3O)O)CO
InChI: InChI=1S/C16H12O6/c1-22-12-3-7(6-17)2-9-14(12)16(21)13-10(15(9)20)4-8(18)5-11(13)19/h2-5,17-19H,6H2,1H3
Instrument: LTQ Orbitrap XL Thermo Scientific
Instrument type: LC-ESI-ITFT
Ms type: MS2
Ion mode: NEGATIVE
Ionization: ESI
Fragmentation mode: HCD
Collision energy: 30 % (nominal)
Resolution: 7500
Column name: Hypersil GOLD C18 1.9 um 100 x 2.1 mm Thermo Fisher Scientific
Retention time: 16.086 min
Base peak: 299.0565
Precursor m/z: 299.0561
Precursor type: [M-H]-
Precursor intensity: 9667547.334473
m/z	relative intensity	assigned
299.0557	999	C16H11O6-
