Mass spectrum: Fusarenon X; LC-ESI-ITFT; MS2; CE: 15%; R=7500; [M+H]+
Name: Fusarenon X
Name: [3,10-dihydroxy-2-(hydroxymethyl)-1,5-dimethyl-4-oxospiro[8-oxatricyclo[7.2.1.02,7]dodec-5-ene-12,2`-oxirane]-11-yl] acetate
Formula: C17H22O8
Exact mass: 354.1315
SMILES: CC1=CC2C(C(C1=O)O)(C3(C(C(C(C34CO4)O2)O)OC(=O)C)C)CO
InChI: InChI=1S/C17H22O8/c1-7-4-9-16(5-18,12(22)10(7)20)15(3)13(24-8(2)19)11(21)14(25-9)17(15)6-23-17/h4,9,11-14,18,21-22H,5-6H2,1-3H3
Instrument: LTQ Orbitrap XL Thermo Scientific
Instrument type: LC-ESI-ITFT
Ms type: MS2
Ion mode: POSITIVE
Ionization: ESI
Fragmentation mode: HCD
Collision energy: 15 % (nominal)
Resolution: 7500
Column name: Hypersil GOLD C18 1.9 um 100 x 2.1 mm Thermo Fisher Scientific
Retention time: 8.309 min
Base peak: 355.1389
Precursor m/z: 355.1387
Precursor type: [M+H]+
Precursor intensity: 11139168.93213
m/z	relative intensity	assigned
99.044	69	C5H7O2+
107.0494	19	C7H7O+
109.0647	30	C7H9O+
123.0436	48	C7H7O2+
125.06	76	C7H9O2+
137.0595	670	C8H9O2+
145.0642	11	C10H9O+
147.08	109	C10H11O+
149.0598	47	C9H9O2+
151.0751	20	C9H11O2+
153.0546	66	C8H9O3+
159.0802	87	C11H11O+
161.059	107	C10H9O2+
161.0962	38	C11H13O+
163.0751	168	C10H11O2+
165.0907	294	C10H13O2+
171.0803	47	C12H11O+
175.075	866	C11H11O2+
177.0907	375	C11H13O2+
179.07	50	C10H11O3+
185.0961	84	C13H13O+
187.0755	81	C12H11O2+
189.0907	208	C12H13O2+
191.07	191	C11H11O3+
193.0856	132	C11H13O3+
201.0907	406	C13H13O2+
203.0702	26	C12H11O3+
203.1067	88	C13H15O2+
205.0856	794	C12H13O3+
211.0748	29	C14H11O2+
213.0906	181	C14H13O2+
217.0857	334	C13H13O3+
219.1009	173	C13H15O3+
223.0967	51	C12H15O4+
229.0856	977	C14H13O3+
231.1015	219	C14H15O3+
235.0967	59	C13H15O4+
247.0959	999	C14H15O4+
249.1122	42	C14H17O4+
259.096	319	C15H15O4+
277.1065	363	C15H17O5+
295.1176	139	C15H19O6+
337.1277	204	C17H21O7+
355.1375	152	C17H23O8+
