Mass spectrum: Cyclizine; ESI-QTOF; MS2; CE: 45eV; R=15000; [M+H]+
Name: Cyclizine
Name: 1-(Diphenylmethyl)-4-methylpiperazine
Formula: C18H22N2
Exact mass: 266.1783
SMILES: CN1CCN(CC1)C(C1=CC=CC=C1)C1=CC=CC=C1
InChI: InChI=1S/C18H22N2/c1-19-12-14-20(15-13-19)18(16-8-4-2-5-9-16)17-10-6-3-7-11-17/h2-11,18H,12-15H2,1H3
Instrument: TripleTOF 5600+SCIEX
Instrument type: ESI-QTOF
Ms type: MS2
Ion mode: POSITIVE
Ionization: ESI
Fragmentation mode: CID
Collision energy: 45 eV
Resolution: 15000
Precursor m/z: 267.1856
Precursor type: [M+H]+
m/z	relative intensity
55.0567	1
57.0722	2
67.0561	2
69.0716	1
71.0871	1
72.0823	1
79.0554	1
81.071	2
95.0863	2
99.0922	1
102.0467	1
115.0545	9
126.0463	2
127.0544	1
128.0621	16
139.0541	3
141.0697	17
151.0541	37
152.0622	663
165.0701	720
166.0775	142
167.0858	999
