Mass spectrum: Dixyrazine; LC-ESI-ITFT; MS2; CE: 85%; R=15000; [M+H]+
Name: Dixyrazine
Name: 2-[2-[4-(2-methyl-3-phenothiazin-10-ylpropyl)piperazin-1-yl]ethoxy]ethanol
Formula: C24H33N3O2S
Exact mass: 427.2293
SMILES: CC(CN1CCN(CC1)CCOCCO)CN2C3=CC=CC=C3SC4=CC=CC=C42
InChI: InChI=1S/C24H33N3O2S/c1-20(18-26-12-10-25(11-13-26)14-16-29-17-15-28)19-27-21-6-2-4-8-23(21)30-24-9-5-3-7-22(24)27/h2-9,20,28H,10-19H2,1H3
Instrument: LTQ Orbitrap XL Thermo Scientific
Instrument type: LC-ESI-ITFT
Ms type: MS2
Ion mode: POSITIVE
Ionization: ESI
Fragmentation mode: HCD
Collision energy: 85% (nominal)
Resolution: 15000
Column name: Kinetex Evo C18 2.6 um 50 x 2.1 mm
Retention time: 8.949 min
Base peak: 428.2363
Precursor m/z: 428.2366
Precursor type: [M+H]+
m/z	relative intensity	assigned
56.0492	53	C3H6N+
58.0649	114	C3H8N+
59.0491	6	C3H7O+
68.0493	7	C4H6N+
70.065	353	C4H8N+
72.0807	8	C4H10N+
82.065	86	C5H8N+
83.0604	33	C4H7N2+
84.0807	59	C5H10N+
86.06	15	C4H8NO+
87.044	91	C4H7O2+
94.0648	7	C6H8N+
96.0812	7	C6H10N+
97.076	390	C5H9N2+
98.0838	999	C5H10N2+
99.0916	50	C5H11N2+
100.0755	16	C5H10NO+
101.1072	234	C5H13N2+
102.1111	4	H14N4O2+
110.0838	19	C6H10N2+
111.0916	8	C6H11N2+
112.0995	33	C6H12N2+
112.1119	13	C7H14N+
113.1072	23	C6H13N2+
125.1072	36	C7H13N2+
130.0861	9	C6H12NO2+
144.1018	49	C7H14NO2+
151.0543	6	C12H7+
167.0726	19	C12H9N+
168.081	4	C12H10N+
172.1205	36	C8H16N2O2+
178.0652	19	C13H8N+
179.0729	152	C13H9N+
180.0807	666	C13H10N+
181.0837	17	C8H11N3O2+
184.0347	6	C12H8S+
185.0418	8	C12H9S+
187.1444	15	C9H19N2O2+
196.0754	5	C13H10NO+
198.0373	14	C12H8NS+
199.0449	33	C12H9NS+
206.0964	12	C15H12N+
211.0452	8	C13H9NS+
212.0527	195	C13H10NS+
220.1121	12	C16H14N+
224.0518	10	C14H10NS+
