Mass spectrum: Chlorotoluron-OH-desmethyl (TENTATIVE); LC-ESI-QFT; MS2; CE: 55%; R=70000; [M+H]+
Name: Chlorotoluron-OH-desmethyl
Formula: C9H11ClN2O2
Exact mass: 214.0501
SMILES: C(*)C1=C(c(*)=C(C(*)=C(*)1)NC(=O)N(C(*)))Cl  * = [OH (n=1) & H (n=4)]
Instrument: Q Exactive Plus Orbitrap Thermo Scientific
Instrument type: LC-ESI-QFT
Ms type: MS2
Ion mode: POSITIVE
Ionization: ESI
Fragmentation mode: HCD
Collision energy: 55% (nominal)
Resolution: 70000
Column name: Waters UPLC BEH C18 1.7 um 2.1 mm x 100 mm with pre-column
Retention time: 8.44 min
Precursor m/z: 215.0579
Precursor type: [M+H]+
m/z	relative intensity
50.0155	5
51.0233	9
52.0186	1
53.0026	2
53.0389	5
54.0341	2
58.029	75
62.0153	1
63.0232	8
65.0261	1
65.0387	52
66.0465	150
67.0417	4
67.0544	1
72.984	13
74.015	4
75.0229	36
76.0305	1
77.0385	9
78.0338	4
78.0464	9
79.0178	1
81.0336	1
84.984	3
85.0751	1
86.9997	4
87.0229	3
91.0417	1
91.0542	1
92.0494	50
93.0573	999
95.0491	14
96.0444	2
96.984	15
98.9996	4
100.0073	1
104.0494	25
105.0446	5
105.0573	14
110.9996	7
113.0153	1
122.9996	35
127.0184	3
128.0261	5
129.0102	7
139.0058	17
140.0262	10
