Mass spectrum: Fusarenon X; LC-ESI-ITFT; MS2; CE: 15%; R=7500; [M-H]-
Name: Fusarenon X
Name: [3,10-dihydroxy-2-(hydroxymethyl)-1,5-dimethyl-4-oxospiro[8-oxatricyclo[7.2.1.02,7]dodec-5-ene-12,2`-oxirane]-11-yl] acetate
Formula: C17H22O8
Exact mass: 354.1315
SMILES: CC1=CC2C(C(C1=O)O)(C3(C(C(C(C34CO4)O2)O)OC(=O)C)C)CO
InChI: InChI=1S/C17H22O8/c1-7-4-9-16(5-18,12(22)10(7)20)15(3)13(24-8(2)19)11(21)14(25-9)17(15)6-23-17/h4,9,11-14,18,21-22H,5-6H2,1-3H3
Instrument: LTQ Orbitrap XL Thermo Scientific
Instrument type: LC-ESI-ITFT
Ms type: MS2
Ion mode: NEGATIVE
Ionization: ESI
Fragmentation mode: HCD
Collision energy: 15 % (nominal)
Resolution: 7500
Column name: Hypersil GOLD C18 1.9 um 100 x 2.1 mm Thermo Fisher Scientific
Retention time: 8.381 min
Base peak: 413.1452
Precursor m/z: 353.1242
Precursor type: [M-H]-
Precursor intensity: 1958273.571777
m/z	relative intensity	assigned
59.0138	58	C2H3O2-
150.0329	24	C8H6O3-
165.0564	47	C9H9O3-
168.0426	44	C8H8O4-
187.0762	203	C12H11O2-
203.0723	48	C12H11O3-
205.087	190	C12H13O3-
215.0709	125	C13H11O3-
217.0871	34	C13H13O3-
233.0819	85	C13H13O4-
245.0812	131	C14H13O4-
263.0922	999	C14H15O5-
293.1024	164	C15H17O6-
305.1032	66	C16H17O6-
323.1142	107	C16H19O7-
