Mass spectrum: Dosulepin; LC-ESI-ITFT; MS2; CE: 155%; R=15000; [M+H]+
Name: Dosulepin
Name: Dothiepin
Name: 3-(6H-benzo[c][1]benzothiepin-11-ylidene)-N,N-dimethylpropan-1-amine
Formula: C19H21NS
Exact mass: 295.1395
SMILES: CN(C)CCC=C1C2=CC=CC=C2CSC3=CC=CC=C31
InChI: InChI=1S/C19H21NS/c1-20(2)13-7-11-17-16-9-4-3-8-15(16)14-21-19-12-6-5-10-18(17)19/h3-6,8-12H,7,13-14H2,1-2H3
Instrument: LTQ Orbitrap XL Thermo Scientific
Instrument type: LC-ESI-ITFT
Ms type: MS2
Ion mode: POSITIVE
Ionization: ESI
Fragmentation mode: HCD
Collision energy: 155% (nominal)
Resolution: 15000
Column name: Kinetex Evo C18 2.6 um 50 x 2.1 mm
Retention time: 8.177 min
Base peak: 296.1469
Precursor m/z: 296.1467
Precursor type: [M+H]+
m/z	relative intensity	assigned
58.0649	45	C3H8N+
65.0384	66	C5H5+
77.0386	30	C6H5+
89.0387	25	C7H5+
91.0542	255	C7H7+
102.0461	10	C8H6+
103.0542	13	C8H7+
105.0448	36	C6H5N2+
115.0542	297	C9H7+
121.0106	12	C7H5S+
128.062	76	C10H8+
139.0544	33	C11H7+
141.07	28	C11H9+
147.0256	13	C9H7S+
151.0544	28	C12H7+
152.062	147	C12H8+
155.0602	12	C10H7N2+
163.0542	32	C13H7+
164.062	56	C13H8+
165.0698	206	C13H9+
169.065	20	C12H9O+
176.0621	180	C14H8+
177.0698	80	C14H9+
178.0778	225	C14H10+
189.0698	274	C15H9+
190.0779	29	C15H10+
191.0858	21	C15H11+
195.0271	9	C13H7S+
200.062	106	C16H8+
201.0699	163	C16H9+
202.0776	999	C16H10+
203.0859	14	C16H11+
208.0342	51	C14H8S+
213.0698	40	C17H9+
215.0854	389	C17H11+
216.0943	9	C17H12+
219.0259	27	C15H7S+
220.0341	56	C15H8S+
221.0418	417	C15H9S+
232.034	17	C16H8S+
233.0416	20	C16H9S+
234.0497	96	C16H10S+
