Mass spectrum: Tetracycline; LC-ESI-ITFT; MS2; CE: 175%; R=15000; [M+H]+
Name: Tetracycline
Name: 2-[amino(hydroxy)methylidene]-4-(dimethylamino)-6,10,11,12a-tetrahydroxy-6-methyl-4,4a,5,5a-tetrahydrotetracene-1,3,12-trione
Formula: C22H24N2O8
Exact mass: 444.1533
SMILES: [H][C@@]12C[C@@]3([H])C(=C(O)[C@]1(O)C(=O)C(C(N)=O)=C(O)[C@H]2N(C)C)C(=O)C1=C(C=CC=C1O)[C@@]3(C)O
InChI: InChI=1S/C22H24N2O8/c1-21(31)8-5-4-6-11(25)12(8)16(26)13-9(21)7-10-15(24(2)3)17(27)14(20(23)30)19(29)22(10,32)18(13)28/h4-6,9-10,15,25,27-28,31-32H,7H2,1-3H3,(H2,23,30)/t9-,10-,15-,21+,22-/m0/s1
Instrument: LTQ Orbitrap XL Thermo Scientific
Instrument type: LC-ESI-ITFT
Ms type: MS2
Ion mode: POSITIVE
Ionization: ESI
Fragmentation mode: HCD
Collision energy: 175% (nominal)
Resolution: 15000
Column name: Kinetex Evo C18 2.6 um 50 x 2.1 mm
Retention time: 2.902 min
Base peak: 300.1474
Precursor m/z: 445.1605
Precursor type: [M+H]+
m/z	relative intensity	assigned
115.0543	169	C9H7+
139.0544	933	C11H7+
151.054	468	C12H7+
152.0622	999	C12H8+
163.0542	295	C13H7+
165.0699	272	C13H9+
176.0615	237	C14H8+
