Mass spectrum: 3 Acetyldeoxynivalenol; LC-ESI-ITFT; MS2; CE: 15%; R=7500; [M+H]+
Name: 3 Acetyldeoxynivalenol
Name: Acetyldeoxynivalenol
Name: [3-hydroxy-2-(hydroxymethyl)-1,5-dimethyl-4-oxospiro[8-oxatricyclo[7.2.1.02,7]dodec-5-ene-12,2`-oxirane]-10-yl] acetate
Formula: C17H22O7
Exact mass: 338.1366
SMILES: CC1=CC2C(C(C1=O)O)(C3(CC(C(C34CO4)O2)OC(=O)C)C)CO
InChI: InChI=1S/C17H22O7/c1-8-4-11-16(6-18,13(21)12(8)20)15(3)5-10(23-9(2)19)14(24-11)17(15)7-22-17/h4,10-11,13-14,18,21H,5-7H2,1-3H3
Instrument: LTQ Orbitrap XL Thermo Scientific
Instrument type: LC-ESI-ITFT
Ms type: MS2
Ion mode: POSITIVE
Ionization: ESI
Fragmentation mode: HCD
Collision energy: 15 % (nominal)
Resolution: 7500
Column name: Hypersil GOLD C18 1.9 um 100 x 2.1 mm Thermo Fisher Scientific
Retention time: 10.741 min
Base peak: 339.1436
Precursor m/z: 339.1438
Precursor type: [M+H]+
Precursor intensity: 15478757.75732
m/z	relative intensity	assigned
81.0695	17	C6H9+
97.0647	11	C6H9O+
107.0491	24	C7H7O+
109.0646	79	C7H9O+
123.0438	20	C7H7O2+
125.0595	134	C7H9O2+
131.0855	8	C10H11+
133.0649	16	C9H9O+
135.0438	17	C8H7O2+
135.0799	18	C9H11O+
136.0513	11	C8H8O2+
137.0595	217	C8H9O2+
143.0857	8	C11H11+
145.0654	8	C10H9O+
145.1005	17	C11H13+
147.0802	26	C10H11O+
149.0602	14	C9H9O2+
149.0958	13	C10H13O+
151.039	11	C8H7O3+
151.0748	10	C9H11O2+
153.0545	77	C8H9O3+
157.1009	28	C12H13+
159.0802	41	C11H11O+
159.1168	35	C12H15+
161.0594	36	C10H9O2+
161.096	19	C11H13O+
163.0751	95	C10H11O2+
165.0908	10	C10H13O2+
167.0862	9	C13H11+
169.1012	36	C13H13+
171.0803	20	C12H11O+
173.0959	100	C12H13O+
175.0752	168	C11H11O2+
175.1117	36	C12H15O+
177.0908	40	C11H13O2+
179.07	29	C10H11O3+
179.0856	8	C14H11+
183.0804	8	C13H11O+
185.0957	91	C13H13O+
187.0745	21	C12H11O2+
187.1115	122	C13H15O+
189.0908	247	C12H13O2+
191.1067	19	C12H15O2+
193.0854	55	C11H13O3+
195.0813	10	C14H11O+
197.0959	72	C14H13O+
201.0909	219	C13H13O2+
203.1063	598	C13H15O2+
205.0857	65	C12H13O3+
213.0908	570	C14H13O2+
215.1064	304	C14H15O2+
219.1012	119	C13H15O3+
223.0965	78	C12H15O4+
225.0906	56	C15H13O2+
231.1013	999	C14H15O3+
233.117	67	C14H17O3+
243.1012	218	C15H15O3+
249.112	108	C14H17O4+
251.1267	12	C14H19O4+
261.1118	202	C15H17O4+
279.1222	470	C15H19O5+
291.1226	36	C16H19O5+
293.1372	18	C16H21O5+
297.1332	166	C15H21O6+
321.133	126	C17H21O6+
339.1439	198	C17H23O7+
