Mass spectrum: Desipramine; LC-ESI-ITFT; MS2; CE: 110%; R=15000; [M+H]+
Name: Desipramine
Name: 3-(5,6-dihydrobenzo[b][1]benzazepin-11-yl)-N-methylpropan-1-amine
Formula: C18H22N2
Exact mass: 266.1783
SMILES: CNCCCN1C2=CC=CC=C2CCC3=CC=CC=C31
InChI: InChI=1S/C18H22N2/c1-19-13-6-14-20-17-9-4-2-7-15(17)11-12-16-8-3-5-10-18(16)20/h2-5,7-10,19H,6,11-14H2,1H3
Instrument: LTQ Orbitrap XL Thermo Scientific
Instrument type: LC-ESI-ITFT
Ms type: MS2
Ion mode: POSITIVE
Ionization: ESI
Fragmentation mode: HCD
Collision energy: 110% (nominal)
Resolution: 15000
Column name: Kinetex Evo C18 2.6 um 50 x 2.1 mm
Retention time: 8.462 min
Base peak: 267.1854
Precursor m/z: 267.1856
Precursor type: [M+H]+
m/z	relative intensity	assigned
57.0571	117	C3H7N+
70.065	12	C4H8N+
72.0807	999	C4H10N+
89.0384	5	C7H5+
90.0465	10	C7H6+
91.0543	55	C7H7+
103.0539	7	C8H7+
106.065	8	C7H8N+
115.0546	8	C9H7+
117.0572	15	C8H7N+
118.0652	24	C8H8N+
130.0652	9	C9H8N+
143.0734	7	C10H9N+
152.0619	11	C12H8+
165.0698	61	C13H9+
166.0777	22	C13H10+
167.0729	60	C12H9N+
178.0778	22	C14H10+
179.0734	10	C13H9N+
180.0808	111	C13H10N+
191.0726	13	C14H9N+
192.0808	224	C14H10N+
193.0886	795	C14H11N+
194.0964	176	C14H12N+
206.0962	39	C15H12N+
207.1044	16	C15H13N+
208.1123	42	C15H14N+
220.1121	23	C16H14N+
