Mass spectrum: Etofylline; ESI-QTOF; MS2; CE: 35eV; R=15000; [M+H]+
Name: Etofylline
Name: 7-(2-Hydroxyethyl)-1,3-dimethyl-3,7-dihydro-1H-purine-2,6-dione
Formula: C9H12N4O3
Exact mass: 224.0909
SMILES: CN1C2=C(N(CCO)C=N2)C(=O)N(C)C1=O
InChI: InChI=1S/C9H12N4O3/c1-11-7-6(8(15)12(2)9(11)16)13(3-4-14)5-10-7/h5,14H,3-4H2,1-2H3
Instrument: TripleTOF 5600+SCIEX
Instrument type: ESI-QTOF
Ms type: MS2
Ion mode: POSITIVE
Ionization: ESI
Fragmentation mode: CID
Collision energy: 35 eV
Resolution: 15000
Precursor m/z: 225.0983
Precursor type: [M+H]+
m/z	relative intensity
69.0465	24
72.046	4
81.0711	1
83.0251	2
93.0457	1
94.0407	2
95.0611	2
96.0563	75
97.0403	3
101.0089	1
107.0607	1
108.056	2
109.0274	4
110.0717	3
113.0712	5
120.0558	3
121.0507	1
122.0351	2
123.0554	3
124.0509	999
134.0713	2
136.087	1
137.0822	7
140.0819	5
148.0742	1
149.0457	3
150.0661	2
153.0532	1
163.0977	1
166.0484	1
168.0767	5
181.0722	859
225.0983	13
