Mass spectrum: a Zearalanol; LC-ESI-ITFT; MS2; CE: 60%; R=7500; [M+H]+
Name: a Zearalanol
Name: Ralgro
Name: 8,16,18-trihydroxy-4-methyl-3-oxabicyclo[12.4.0]octadeca-1(14),15,17-trien-2-one
Formula: C18H26O5
Exact mass: 322.1780
SMILES: CC1CCCC(CCCCCC2=C(C(=CC(=C2)O)O)C(=O)O1)O
InChI: InChI=1S/C18H26O5/c1-12-6-5-9-14(19)8-4-2-3-7-13-10-15(20)11-16(21)17(13)18(22)23-12/h10-12,14,19-21H,2-9H2,1H3
Instrument: LTQ Orbitrap XL Thermo Scientific
Instrument type: LC-ESI-ITFT
Ms type: MS2
Ion mode: POSITIVE
Ionization: ESI
Fragmentation mode: HCD
Collision energy: 60 % (nominal)
Resolution: 7500
Column name: Hypersil GOLD C18 1.9 um 100 x 2.1 mm Thermo Fisher Scientific
Retention time: 20.421 min
Base peak: 323.1853
Precursor m/z: 323.1853
Precursor type: [M+H]+
Precursor intensity: 11853700.02588
m/z	relative intensity	assigned
123.0439	768	C7H7O2+
123.1169	59	C9H15+
149.0596	493	C9H9O2+
161.0592	314	C10H9O2+
163.075	917	C10H11O2+
167.0334	378	C8H7O4+
175.075	267	C11H11O2+
177.0538	158	C10H9O3+
177.0913	296	C11H13O2+
189.0541	242	C11H9O3+
189.0907	999	C12H13O2+
191.0699	135	C11H11O3+
191.1064	81	C12H15O2+
203.1067	232	C13H15O2+
207.101	346	C12H15O3+
259.1697	82	C17H23O2+
269.1535	163	C18H21O2+
