Mass spectrum: Tetracycline; LC-ESI-ITFT; MS2; CE: 50%; R=15000; [M+H]+
Name: Tetracycline
Name: 2-[amino(hydroxy)methylidene]-4-(dimethylamino)-6,10,11,12a-tetrahydroxy-6-methyl-4,4a,5,5a-tetrahydrotetracene-1,3,12-trione
Formula: C22H24N2O8
Exact mass: 444.1533
SMILES: [H][C@@]12C[C@@]3([H])C(=C(O)[C@]1(O)C(=O)C(C(N)=O)=C(O)[C@H]2N(C)C)C(=O)C1=C(C=CC=C1O)[C@@]3(C)O
InChI: InChI=1S/C22H24N2O8/c1-21(31)8-5-4-6-11(25)12(8)16(26)13-9(21)7-10-15(24(2)3)17(27)14(20(23)30)19(29)22(10,32)18(13)28/h4-6,9-10,15,25,27-28,31-32H,7H2,1-3H3,(H2,23,30)/t9-,10-,15-,21+,22-/m0/s1
Instrument: LTQ Orbitrap XL Thermo Scientific
Instrument type: LC-ESI-ITFT
Ms type: MS2
Ion mode: POSITIVE
Ionization: ESI
Fragmentation mode: HCD
Collision energy: 50% (nominal)
Resolution: 15000
Column name: Kinetex Evo C18 2.6 um 50 x 2.1 mm
Retention time: 3.320 min
Base peak: 300.1474
Precursor m/z: 445.1605
Precursor type: [M+H]+
m/z	relative intensity	assigned
58.0649	31	C3H8N+
84.0444	10	C4H6NO+
86.06	79	C4H8NO+
98.06	645	C5H8NO+
126.0548	137	C6H8NO2+
139.0259	15	C6H5NO3+
152.0342	12	C7H6NO3+
154.0498	999	C7H8NO3+
187.0751	16	C12H11O2+
194.0443	15	C9H8NO4+
211.0755	13	C14H11O2+
213.0915	12	C14H13O2+
223.075	20	C15H11O2+
239.0703	25	C15H11O3+
241.0858	370	C15H13O3+
242.0575	15	C14H10O4+
243.0653	37	C14H11O4+
251.0702	79	C16H11O3+
253.0866	11	C16H13O3+
257.0807	120	C15H13O4+
263.071	20	C17H11O3+
267.0652	259	C16H11O4+
269.0807	444	C16H13O4+
278.0571	20	C17H10O4+
279.0652	26	C17H11O4+
291.0649	76	C18H11O4+
293.081	35	C18H13O4+
296.1287	30	C18H18NO3+
297.0757	51	C17H13O5+
309.0768	9	C18H13O5+
319.0605	33	C19H11O5+
321.0756	102	C19H13O5+
334.0465	23	C19H10O6+
337.0706	157	C19H13O6+
349.0708	72	C20H13O6+
365.0659	17	C20H13O7+
410.1236	18	C22H20NO7+
