Mass spectrum: Fumifungin; LC-ESI-ITFT; MS2; CE: 40%; R=7500; [M-H]-
Name: Fumifungin
Name: CID 196633
Name: 4-acetyloxy-2-amino-3,5,14-trihydroxyicos-6-enoic acid
Formula: C22H41NO7
Exact mass: 431.28830
SMILES: CCCCCCC(CCCCCCC=CC(C(C(C(C(=O)O)N)O)OC(=O)C)O)O
InChI: InChI=1S/C22H41NO7/c1-3-4-5-10-13-17(25)14-11-8-6-7-9-12-15-18(26)21(30-16(2)24)20(27)19(23)22(28)29/h12,15,17-21,25-27H,3-11,13-14,23H2,1-2H3,(H,28,29)
Instrument: LTQ Orbitrap XL Thermo Scientific
Instrument type: LC-ESI-ITFT
Ms type: MS2
Ion mode: NEGATIVE
Ionization: ESI
Fragmentation mode: HCD
Collision energy: 40 % (nominal)
Resolution: 7500
Column name: Hypersil GOLD C18 1.9 um 100 x 2.1 mm Thermo Fisher Scientific
Retention time: 23.868 min
Base peak: 430.2796
Precursor m/z: 430.281
Precursor type: [M-H]-
Precursor intensity: 10606889.65796
m/z	relative intensity	assigned
58.0299	2	C2H4NO-
70.0298	4	C3H4NO-
72.0451	8	C3H6NO-
74.0245	231	C2H4NO2-
86.0246	3	C3H4NO2-
98.0245	10	C4H4NO2-
99.0084	34	C4H3O3-
112.04	8	C5H6NO2-
116.035	501	C4H6NO3-
140.0349	57	C6H6NO3-
158.0451	8	C6H8NO4-
199.027	3	C11H5NO3-
203.1017	2	C5H17NO7-
253.2163	7	C16H29O2-
291.2329	8	C19H31O2-
376.248	5	C22H34NO4-
430.2795	999	C22H40NO7-
