Mass spectrum: Nylidrin; LC-ESI-ITFT; MS2; CE: 135%; R=15000; [M+H]+
Name: Nylidrin
Name: 4-[1-hydroxy-2-(4-phenylbutan-2-ylamino)propyl]phenol
Formula: C19H25NO2
Exact mass: 299.1885
SMILES: CC(CCC1=CC=CC=C1)NC(C)C(C2=CC=C(C=C2)O)O
InChI: InChI=1S/C19H25NO2/c1-14(8-9-16-6-4-3-5-7-16)20-15(2)19(22)17-10-12-18(21)13-11-17/h3-7,10-15,19-22H,8-9H2,1-2H3
Instrument: LTQ Orbitrap XL Thermo Scientific
Instrument type: LC-ESI-ITFT
Ms type: MS2
Ion mode: POSITIVE
Ionization: ESI
Fragmentation mode: HCD
Collision energy: 135% (nominal)
Resolution: 15000
Column name: Kinetex Evo C18 2.6 um 50 x 2.1 mm
Retention time: 6.878 min
Base peak: 300.1959
Precursor m/z: 300.1958
Precursor type: [M+H]+
m/z	relative intensity	assigned
65.0384	189	C5H5+
77.0385	77	C6H5+
79.0542	134	C6H7+
89.0385	7	C7H5+
91.0542	999	C7H7+
94.0413	31	C6H6O+
95.0491	24	C6H7O+
103.0542	97	C8H7+
105.0447	112	C6H5N2+
105.0699	102	C8H9+
107.0491	100	C7H7O+
115.0542	48	C9H7+
118.0415	4	C8H6O+
118.0651	5	C8H8N+
120.0444	16	C7H6NO+
131.0491	16	C9H7O+
132.057	4	C9H8O+
134.06	23	C8H8NO+
135.068	14	C8H9NO+
