Mass spectrum: Malformin A1; LC-ESI-ITFT; MS2; CE: 30%; R=7500; [M-H]-
Name: Malformin A1
Name: Malformin A
Name: 4-butan-2-yl-7-(2-methylpropyl)-10-propan-2-yl-15,16-dithia-2,5,8,11,19-pentazabicyclo[11.4.2]nonadecane-3,6,9,12,18-pentone
Formula: C23H39N5O5S2
Exact mass: 529.23926
SMILES: CCC(C)C1C(=O)NC2CSSCC(C(=O)NC(C(=O)NC(C(=O)N1)CC(C)C)C(C)C)NC2=O
InChI: InChI=1S/C23H39N5O5S2/c1-7-13(6)18-23(33)26-15-9-34-35-10-16(25-20(15)30)21(31)27-17(12(4)5)22(32)24-14(8-11(2)3)19(29)28-18/h11-18H,7-10H2,1-6H3,(H,24,32)(H,25,30)(H,26,33)(H,27,31)(H,28,29)
Instrument: LTQ Orbitrap XL Thermo Scientific
Instrument type: LC-ESI-ITFT
Ms type: MS2
Ion mode: NEGATIVE
Ionization: ESI
Fragmentation mode: HCD
Collision energy: 30 % (nominal)
Resolution: 7500
Column name: Hypersil GOLD C18 1.9 um 100 x 2.1 mm Thermo Fisher Scientific
Retention time: 21.516 min
Base peak: 588.2532
Precursor m/z: 528.232
Precursor type: [M-H]-
Precursor intensity: 8388116.305176
m/z	relative intensity	assigned
55.9902	12	C2O2-
109.0405	10	C5H5N2O-
141.0668	30	C6H9N2O2-
143.0288	32	C5H7N2OS-
155.0822	9	C7H11N2O2-
350.2076	7	C18H28N3O4-
367.2354	29	C18H31N4O4-
448.2595	5	C23H38N5S2-
451.2395	50	C22H35N4O4S-
460.2575	40	C23H34N5O5-
462.2734	142	C23H36N5O5-
494.245	281	C23H36N5O5S-
528.2321	999	C23H38N5O5S2-
