Mass spectrum: Fumagillin; LC-ESI-ITFT; MS2; CE: 60%; R=7500; [M-H]-
Name: Fumagillin
Name: 10-[[5-methoxy-4-[2-methyl-3-(3-methylbut-2-enyl)oxiran-2-yl]-1-oxaspiro[2.5]octan-6-yl]oxy]-10-oxodeca-2,4,6,8-tetraenoic acid
Formula: C26H34O7
Exact mass: 458.23045
SMILES: CC(=CCC1C(O1)(C)C2C(C(CCC23CO3)OC(=O)C=CC=CC=CC=CC(=O)O)OC)C
InChI: InChI=1S/C26H34O7/c1-18(2)13-14-20-25(3,33-20)24-23(30-4)19(15-16-26(24)17-31-26)32-22(29)12-10-8-6-5-7-9-11-21(27)28/h5-13,19-20,23-24H,14-17H2,1-4H3,(H,27,28)
Instrument: LTQ Orbitrap XL Thermo Scientific
Instrument type: LC-ESI-ITFT
Ms type: MS2
Ion mode: NEGATIVE
Ionization: ESI
Fragmentation mode: HCD
Collision energy: 60 % (nominal)
Resolution: 7500
Column name: Hypersil GOLD C18 1.9 um 100 x 2.1 mm Thermo Fisher Scientific
Retention time: 24.079 min
Base peak: 457.2218
Precursor m/z: 457.2232
Precursor type: [M-H]-
Precursor intensity: 2232744.341553
m/z	relative intensity	assigned
103.055	189	C8H7-
105.0712	20	C8H9-
111.045	22	C6H7O2-
121.0664	22	C8H9O-
123.0814	58	C8H11O-
130.042	126	C9H6O-
131.0498	999	C9H7O-
147.0447	21	C9H7O2-
149.0603	34	C9H9O2-
157.0291	31	C10H5O2-
161.0605	12	C10H9O2-
199.0032	15	C11H3O4-
