Mass spectrum: Fumigaclavine A; LC-ESI-ITFT; MS2; CE: 60%; R=7500; [M+H]+
Name: Fumigaclavine A
Name: Isofumigaclavine A
Name: (7,9-dimethyl-6,6a,8,9,10,10a-hexahydro-4H-indolo[4,3-fg]quinolin-10-yl) acetate
Formula: C18H22N2O2
Exact mass: 298.1681
SMILES: CC1CN(C2CC3=CNC4=CC=CC(=C34)C2C1OC(=O)C)C
InChI: InChI=1S/C18H22N2O2/c1-10-9-20(3)15-7-12-8-19-14-6-4-5-13(16(12)14)17(15)18(10)22-11(2)21/h4-6,8,10,15,17-19H,7,9H2,1-3H3
Instrument: LTQ Orbitrap XL Thermo Scientific
Instrument type: LC-ESI-ITFT
Ms type: MS2
Ion mode: POSITIVE
Ionization: ESI
Fragmentation mode: HCD
Collision energy: 60 % (nominal)
Resolution: 7500
Column name: Hypersil GOLD C18 1.9 um 100 x 2.1 mm Thermo Fisher Scientific
Retention time: 8.566 min
Base peak: 299.175
Precursor m/z: 299.1754
Precursor type: [M+H]+
Precursor intensity: 35977347.03613
m/z	relative intensity	assigned
72.0808	9	C4H10N+
84.0805	15	C5H10N+
108.0809	5	C7H10N+
130.0648	20	C9H8N+
144.0807	40	C10H10N+
154.0649	115	C11H8N+
155.0728	22	C11H9N+
156.0806	75	C11H10N+
156.1018	22	C8H14NO2+
167.0728	86	C12H9N+
168.0806	354	C12H10N+
170.0833	16	C11H10N2+
170.0963	23	C12H12N+
172.0755	20	C11H10NO+
179.0854	34	C14H11+
180.0809	20	C13H10N+
181.1004	44	C14H13+
182.096	78	C13H12N+
183.0914	185	C12H11N2+
184.0759	7	C12H10NO+
184.0996	40	C12H12N2+
186.0913	18	C12H12NO+
192.0806	58	C14H10N+
193.0885	219	C14H11N+
194.096	16	C14H12N+
196.1117	216	C14H14N+
197.1071	85	C13H13N2+
198.1274	173	C14H16N+
206.0963	17	C15H12N+
207.1037	20	C15H13N+
208.1118	999	C15H14N+
210.1269	71	C15H16N+
224.1306	49	C15H16N2+
226.1221	9	C15H16NO+
237.138	11	C16H17N2+
239.1539	384	C16H19N2+
299.1748	731	C18H23N2O2+
