Mass spectrum: Fusaric acid; LC-ESI-ITFT; MS2; CE: 20%; R=7500; [M-H]-
Name: Fusaric acid
Name: 5-butylpyridine-2-carboxylic acid
Formula: C10H13NO2
Exact mass: 179.09463
SMILES: CCCCC1=CN=C(C=C1)C(=O)O
InChI: InChI=1S/C10H13NO2/c1-2-3-4-8-5-6-9(10(12)13)11-7-8/h5-7H,2-4H2,1H3,(H,12,13)
Instrument: LTQ Orbitrap XL Thermo Scientific
Instrument type: LC-ESI-ITFT
Ms type: MS2
Ion mode: NEGATIVE
Ionization: ESI
Fragmentation mode: HCD
Collision energy: 20 % (nominal)
Resolution: 7500
Column name: Hypersil GOLD C18 1.9 um 100 x 2.1 mm Thermo Fisher Scientific
Retention time: 9.369 min
Base peak: 649.2091
Precursor m/z: 178.0874
Precursor type: [M-H]-
Precursor intensity: 1520384.858887
m/z	relative intensity	assigned
134.0979	52	C9H12N-
178.0877	999	C10H12NO2-
