Mass spectrum: Phenazone; ESI-QTOF; MS2; CE: 30eV; R=15000; [M+H]+
Name: Phenazone
Name: 1,5-Dimethyl-2-phenyl-1,2-dihydro-3H-pyrazol-3-one
Formula: C11H12N2O
Exact mass: 188.095
SMILES: CN1N(C(=O)C=C1C)C1=CC=CC=C1
InChI: InChI=1S/C11H12N2O/c1-9-8-11(14)13(12(9)2)10-6-4-3-5-7-10/h3-8H,1-2H3
Instrument: TripleTOF 5600+SCIEX
Instrument type: ESI-QTOF
Ms type: MS2
Ion mode: POSITIVE
Ionization: ESI
Fragmentation mode: CID
Collision energy: 30 eV
Resolution: 15000
Precursor m/z: 189.1023
Precursor type: [M+H]+
m/z	relative intensity
51.0254	1
55.0199	2
56.0519	63
58.0672	38
65.04	7
68.0506	2
69.0584	2
70.0661	1
77.0395	42
78.047	1
79.0548	4
81.0452	5
86.0602	1
91.0543	14
92.0495	3
93.0335	2
94.065	2
95.0603	7
96.0681	19
98.0598	10
102.046	1
103.0539	11
104.0493	99
105.0692	5
106.0648	75
107.0599	1
111.0547	2
113.0702	1
115.0536	17
116.0489	1
117.0684	29
118.0644	48
119.0719	1
120.08	33
121.0751	1
128.0602	1
129.0564	8
130.0642	84
131.0712	77
132.0792	27
133.0512	9
134.0953	7
135.0543	2
143.0717	5
144.0796	65
145.0704	24
146.0831	64
147.0906	110
148.0743	4
149.0697	6
159.0903	3
160.0982	3
161.106	37
162.09	1
172.0743	11
174.0773	48
189.1023	999
