Mass spectrum: Questin; LC-ESI-ITFT; MS2; CE: 30%; R=7500; [M-H]-
Name: Questin
Name: 1,6-dihydroxy-8-methoxy-3-methylanthracene-9,10-dione
Formula: C16H12O5
Exact mass: 284.06847
SMILES: CC1=CC2=C(C(=C1)O)C(=O)C3=C(C2=O)C=C(C=C3OC)O
InChI: InChI=1S/C16H12O5/c1-7-3-9-13(11(18)4-7)16(20)14-10(15(9)19)5-8(17)6-12(14)21-2/h3-6,17-18H,1-2H3
Instrument: LTQ Orbitrap XL Thermo Scientific
Instrument type: LC-ESI-ITFT
Ms type: MS2
Ion mode: NEGATIVE
Ionization: ESI
Fragmentation mode: HCD
Collision energy: 30 % (nominal)
Resolution: 7500
Column name: Hypersil GOLD C18 1.9 um 100 x 2.1 mm Thermo Fisher Scientific
Retention time: 21.639 min
Base peak: 283.06
Precursor m/z: 283.0612
Precursor type: [M-H]-
Precursor intensity: 5686701.725586
m/z	relative intensity	assigned
240.0428	999	C14H8O4-
