Mass spectrum: Trypacidin; LC-ESI-ITFT; MS2; CE: 30%; R=7500; [M+H]+
Name: Trypacidin
Name: methyl 4,5`-dimethoxy-6-methyl-3,3`-dioxospiro[1-benzofuran-2,6`-cyclohexa-1,4-diene]-1`-carboxylate
Formula: C18H16O7
Exact mass: 344.0896
SMILES: CC1=CC2=C(C(=C1)OC)C(=O)C3(O2)C(=CC(=O)C=C3OC)C(=O)OC
InChI: InChI=1S/C18H16O7/c1-9-5-12(22-2)15-13(6-9)25-18(16(15)20)11(17(21)24-4)7-10(19)8-14(18)23-3/h5-8H,1-4H3
Instrument: LTQ Orbitrap XL Thermo Scientific
Instrument type: LC-ESI-ITFT
Ms type: MS2
Ion mode: POSITIVE
Ionization: ESI
Fragmentation mode: HCD
Collision energy: 30 % (nominal)
Resolution: 7500
Column name: Hypersil GOLD C18 1.9 um 100 x 2.1 mm Thermo Fisher Scientific
Retention time: 17.352 min
Base peak: 345.098
Precursor m/z: 345.0969
Precursor type: [M+H]+
Precursor intensity: 30402486.30908
m/z	relative intensity	assigned
240.0788	3	C15H12O3+
241.0866	3	C15H13O3+
252.0782	2	C16H12O3+
255.0655	3	C15H11O4+
256.0739	2	C15H12O4+
257.081	51	C15H13O4+
258.0891	5	C15H14O4+
268.0737	10	C16H12O4+
269.0811	7	C16H13O4+
270.0892	6	C16H14O4+
271.0605	136	C15H11O5+
285.076	54	C16H13O5+
286.0839	192	C16H14O5+
298.0458	2	C16H10O6+
301.1073	999	C17H17O5+
313.0708	351	C17H13O6+
345.0977	26	C18H17O7+
