Mass spectrum: Dibucaine; LC-ESI-ITFT; MS2; CE: 65%; R=7500; [M+H]+
Name: Dibucaine
Name: 2-Butoxy-N-[2-(diethylamino)ethyl]quinoline-4-carboxamide
Formula: C20H29N3O2
Exact mass: 343.226
SMILES: CCCCOC1=CC(C(=O)NCCN(CC)CC)=C2C=CC=CC2=N1
InChI: InChI=1S/C20H29N3O2/c1-4-7-14-25-19-15-17(16-10-8-9-11-18(16)22-19)20(24)21-12-13-23(5-2)6-3/h8-11,15H,4-7,12-14H2,1-3H3,(H,21,24)
Instrument: LTQ Orbitrap XL Thermo Fisher Scientific
Instrument type: LC-ESI-ITFT
Ms type: MS2
Ion mode: POSITIVE
Ionization: ESI
Fragmentation mode: HCD
Collision energy: 65% (nominal)
Resolution: 7500
Column name: Hypersil GOLD C18 1.9 um 100 x 2.1 mm Thermo Fisher Scientific
Precursor m/z: 344.2333
Precursor type: [M+H]+
m/z	relative intensity
57.0699	6
57.0874	2
57.1009	1
57.1089	2
72.0807	6
74.0963	20
100.1121	56
116.0495	199
128.0491	1
130.0652	4
132.0444	3
143.0731	1
144.0445	203
145.0524	3
146.06	18
157.0888	1
158.0601	18
159.0681	1
160.0757	3
170.0963	2
171.0554	82
172.0394	372
182.0963	8
183.1043	2
187.0867	23
200.1069	15
202.1226	6
215.0816	999
225.1384	5
227.1182	36
228.1021	74
243.1495	13
271.1443	361
