Mass spectrum: Aspergillin PZ; LC-ESI-ITFT; MS2; CE: 30%; R=7500; [M+H]+
Name: Aspergillin PZ
Name: 16-hydroxy-1,5,6-trimethyl-8-(2-methylpropyl)-19-oxa-9-azapentacyclo[13.3.1.02,14.03,11.07,11]nonadec-4-ene-10,12-dione
Formula: C24H35NO4
Exact mass: 401.2566
SMILES: CC1C2C(NC(=O)C23C(C=C1C)C4C(CC3=O)C5C(CCC4(O5)C)O)CC(C)C
InChI: InChI=1S/C24H35NO4/c1-11(2)8-16-19-13(4)12(3)9-15-20-14(10-18(27)24(15,19)22(28)25-16)21-17(26)6-7-23(20,5)29-21/h9,11,13-17,19-21,26H,6-8,10H2,1-5H3,(H,25,28)
Instrument: LTQ Orbitrap XL Thermo Scientific
Instrument type: LC-ESI-ITFT
Ms type: MS2
Ion mode: POSITIVE
Ionization: ESI
Fragmentation mode: HCD
Collision energy: 30 % (nominal)
Resolution: 7500
Column name: Hypersil GOLD C18 1.9 um 100 x 2.1 mm Thermo Fisher Scientific
Retention time: 21.677 min
Base peak: 402.2649
Precursor m/z: 402.2639
Precursor type: [M+H]+
Precursor intensity: 7960247.711426
m/z	relative intensity	assigned
138.0913	34	C8H12NO+
161.1329	32	C12H17+
166.0861	51	C9H12NO2+
179.1432	25	C12H19O+
182.1173	15	C10H16NO2+
185.1329	12	C14H17+
195.1166	8	C15H15+
206.1176	18	C12H16NO2+
213.1276	25	C15H17O+
219.1743	13	C15H23O+
220.1697	31	C14H22NO+
225.1647	9	C17H21+
227.1429	26	C16H19O+
245.1542	42	C16H21O2+
253.1587	45	C18H21O+
270.1855	60	C18H24NO+
271.1694	56	C18H23O2+
272.2021	17	C18H26NO+
282.1825	8	C16H26O4+
284.2012	51	C19H26NO+
286.2161	16	C19H28NO+
300.1958	184	C19H26NO2+
324.232	49	C22H30NO+
338.2488	41	C23H32NO+
341.2475	24	C23H33O2+
342.2412	35	C22H32NO2+
348.232	57	C24H30NO+
356.2574	13	C23H34NO2+
359.2567	20	C23H35O3+
366.243	258	C24H32NO2+
384.2534	999	C24H34NO3+
402.2642	599	C24H36NO4+
