Mass spectrum: Penicillic acid; LC-ESI-ITFT; MS2; CE: 50%; R=7500; [M+H]+
Name: Penicillic acid
Name: 3-methoxy-5-methyl-4-oxohexa-2,5-dienoic acid
Formula: C8H10O4
Exact mass: 170.0579
SMILES: CC(=C)C(=O)C(=CC(=O)O)OC
InChI: InChI=1S/C8H10O4/c1-5(2)8(11)6(12-3)4-7(9)10/h4H,1H2,2-3H3,(H,9,10)
Instrument: LTQ Orbitrap XL Thermo Scientific
Instrument type: LC-ESI-ITFT
Ms type: MS2
Ion mode: POSITIVE
Ionization: ESI
Fragmentation mode: HCD
Collision energy: 50 % (nominal)
Resolution: 7500
Column name: Hypersil GOLD C18 1.9 um 100 x 2.1 mm Thermo Fisher Scientific
Retention time: 8.509 min
Base peak: 171.065
Precursor m/z: 171.0652
Precursor type: [M+H]+
Precursor intensity: 9314653.657715
m/z	relative intensity	assigned
65.0385	3	C5H5+
67.0539	6	C5H7+
69.0695	2	C5H9+
79.0539	4	C6H7+
82.0412	2	C5H6O+
83.0489	12	C5H7O+
93.0332	10	C6H5O+
94.041	16	C6H6O+
95.0489	8	C6H7O+
97.0645	42	C6H9O+
110.0362	6	C6H6O2+
111.0438	77	C6H7O2+
112.0517	75	C6H8O2+
121.0283	18	C7H5O2+
125.0594	999	C7H9O2+
126.0672	3	C7H10O2+
127.075	32	C7H11O2+
129.0542	10	C6H9O3+
139.0387	19	C7H7O3+
143.0699	4	C7H11O3+
153.0543	128	C8H9O3+
171.0647	697	C8H11O4+
