Mass spectrum: Metoclopramide; LC-ESI-QTOF; MS2; CE: 40 eV; R=3600; [M+H]+
Name: Metoclopramide
Name: 4-Amino-5-chloro-N-[2-(diethylamino)ethyl]-2-methoxybenzamide
Formula: C14H22ClN3O2
Exact mass: 299.1401
SMILES: CCN(CC)CCNC(=O)C1=CC(Cl)=C(N)C=C1OC
InChI: InChI=1S/C14H22ClN3O2/c1-4-18(5-2)7-6-17-14(19)10-8-11(15)12(16)9-13(10)20-3/h8-9H,4-7,16H2,1-3H3,(H,17,19)
Instrument: 6627 QTOF Agilent
Instrument type: LC-ESI-QTOF
Ms type: MS2
Ion mode: POSITIVE
Ionization: ESI
Fragmentation mode: CID
Collision energy: 40 eV
Resolution: 3600
Precursor m/z: 300.1474
Precursor type: [M+H]+
m/z	relative intensity
63.0227	81
78.0332	333
90.0328	329
92.0487	50
93.0563	123
98.9986	63
105.0435	56
113.0011	670
126.0091	171
128.025	71
140.9958	710
148.0612	92
154.0032	63
156.0184	139
168.0065	441
168.9903	223
169.9984	78
183.0298	203
184.0138	999
212.032	258
227.0557	132
