Mass spectrum: Desipramine; LC-ESI-ITFT; MS2; CE: 70%; R=7500; [M+H]+
Name: Desipramine
Name: 3-(10,11-Dihydro-5H-dibenzo[b,f]azepin-5-yl)-N-methylpropan-1-amine
Formula: C18H22N2
Exact mass: 266.1783
SMILES: CNCCCN1C2=C(CCC3=C1C=CC=C3)C=CC=C2
InChI: InChI=1S/C18H22N2/c1-19-13-6-14-20-17-9-4-2-7-15(17)11-12-16-8-3-5-10-18(16)20/h2-5,7-10,19H,6,11-14H2,1H3
Instrument: LTQ Orbitrap XL Thermo Fisher Scientific
Instrument type: LC-ESI-ITFT
Ms type: MS2
Ion mode: POSITIVE
Ionization: ESI
Fragmentation mode: HCD
Collision energy: 70% (nominal)
Resolution: 7500
Column name: Hypersil GOLD C18 1.9 um 100 x 2.1 mm Thermo Fisher Scientific
Precursor m/z: 267.1856
Precursor type: [M+H]+
m/z	relative intensity
57.1293	4
57.1364	4
57.1487	4
57.1613	2
57.1629	2
72.0806	999
91.0541	5
130.0651	3
158.0965	3
180.081	16
193.0887	205
194.0966	14
195.1045	42
196.1123	27
208.1122	359
220.1128	17
236.1437	20
