Mass spectrum: Desipramine; LC-ESI-QFT; MS2; CE: CE90; R=17500; [M+H]+
Name: Desipramine
Name: 3-(5,6-dihydrobenzo[b][1]benzazepin-11-yl)-N-methylpropan-1-amine
Formula: C18H22N2
Exact mass: 266.1783
SMILES: CNCCCN1C2=C(CCC3=C1C=CC=C3)C=CC=C2
InChI: InChI=1S/C18H22N2/c1-19-13-6-14-20-17-9-4-2-7-15(17)11-12-16-8-3-5-10-18(16)20/h2-5,7-10,19H,6,11-14H2,1H3
Instrument: Q Exactive Thermo Fisher Scientific
Instrument type: LC-ESI-QFT
Ms type: MS2
Ion mode: POSITIVE
Ionization: ESI
Fragmentation mode: HCD
Collision energy: CE90
Resolution: 17500
Column name: Acquity UPLC BEH C18 1.7 um, 2.1 x 150 mm, Waters
Retention time: 19.371 min
Base peak: 223.0628
Precursor m/z: 267.1856
Precursor type: [M+H]+
m/z	relative intensity	assigned
51.0234	113	C4H3+
56.0497	743	C3H6N+
57.0575	508	C3H7N+
63.0233	128	C5H3+
65.0386	255	C5H5+
72.0805	110	C4H10N+
89.0386	529	C7H5+
90.0465	82	C7H6+
91.0542	312	C7H7+
115.0538	313	C9H7+
117.0569	62	C8H7N+
128.0495	71	C9H6N+
139.0534	440	C11H7+
140.0497	137	C10H6N+
152.061	352	C12H8+
165.0698	876	C13H9+
166.0648	256	C12H8N+
167.0736	205	C12H9N+
176.0616	83	C14H8+
178.0641	190	C13H8N+
178.0776	71	C14H10+
179.0714	86	C13H9N+
180.0803	71	C13H10N+
190.0643	380	C14H8N+
191.072	999	C14H9N+
192.0806	267	C14H10N+
193.0898	96	C14H11N+
204.0801	96	C15H10N+
