Mass spectrum: Rubrofusarin; LC-ESI-ITFT; MS2; CE: 60%; R=7500; [M+H]+
Name: Rubrofusarin
Name: 5,6-dihydroxy-8-methoxy-2-methylbenzo[g]chromen-4-one
Formula: C15H12O5
Exact mass: 272.0685
SMILES: CC1=CC(=O)C2=C(C3=C(C=C(C=C3C=C2O1)OC)O)O
InChI: InChI=1S/C15H12O5/c1-7-3-10(16)14-12(20-7)5-8-4-9(19-2)6-11(17)13(8)15(14)18/h3-6,17-18H,1-2H3
Instrument: LTQ Orbitrap XL Thermo Scientific
Instrument type: LC-ESI-ITFT
Ms type: MS2
Ion mode: POSITIVE
Ionization: ESI
Fragmentation mode: HCD
Collision energy: 60 % (nominal)
Resolution: 7500
Column name: Hypersil GOLD C18 1.9 um 100 x 2.1 mm Thermo Fisher Scientific
Retention time: 24.130 min
Base peak: 273.0759
Precursor m/z: 273.0757
Precursor type: [M+H]+
Precursor intensity: 27048183.06055
m/z	relative intensity	assigned
185.0595	11	C12H9O2+
199.0752	13	C13H11O2+
207.0649	3	C11H11O4+
213.0545	5	C13H9O3+
216.0411	3	C12H8O4+
225.0544	43	C14H9O3+
227.0702	157	C14H11O3+
230.0572	465	C13H10O4+
231.0651	2	C13H11O4+
240.0416	27	C14H8O4+
241.0491	2	C14H9O4+
242.057	4	C14H10O4+
255.0649	105	C15H11O4+
258.0519	258	C14H10O5+
273.0754	999	C15H13O5+
