Mass spectrum: Cypermethrin-3-phenoxybenzoic-acid (TENTATIVE); LC-ESI-QFT; MS2; CE: 42%; R=70000; [M-H]-
Name: Cypermethrin-3-phenoxybenzoic-acid
Name: 3-(2,2-dichloroethenyl)-2,2-dimethylcyclopropane-1-carboxylic acid
Formula: C8H10Cl2O2
Exact mass: 208.0058
SMILES: CC1(C(C1C(=O)O)C=C(Cl)Cl)C
InChI: InChI=1S/C8H10Cl2O2/c1-8(2)4(3-5(9)10)6(8)7(11)12/h3-4,6H,1-2H3,(H,11,12)
Instrument: Q Exactive Plus Orbitrap Thermo Scientific
Instrument type: LC-ESI-QFT
Ms type: MS2
Ion mode: NEGATIVE
Ionization: ESI
Fragmentation mode: HCD
Collision energy: 42% (nominal) with stepped collision energies 30% and 55%
Resolution: 70000
Column name: Phenomenex Synergi Polar-RP 2.5 um 100 mm x 3 mm with pre-column
Retention time: 9.82
Precursor m/z: 206.9989
Precursor type: [M-H]-
m/z	relative intensity
206.9983	999
