Mass spectrum: Desipramine; LC-ESI-QFT; MS2; CE: CE60; R=17500; [M+H]+
Name: Desipramine
Name: 3-(5,6-dihydrobenzo[b][1]benzazepin-11-yl)-N-methylpropan-1-amine
Formula: C18H22N2
Exact mass: 266.1783
SMILES: CNCCCN1C2=C(CCC3=C1C=CC=C3)C=CC=C2
InChI: InChI=1S/C18H22N2/c1-19-13-6-14-20-17-9-4-2-7-15(17)11-12-16-8-3-5-10-18(16)20/h2-5,7-10,19H,6,11-14H2,1H3
Instrument: Q Exactive Thermo Fisher Scientific
Instrument type: LC-ESI-QFT
Ms type: MS2
Ion mode: POSITIVE
Ionization: ESI
Fragmentation mode: HCD
Collision energy: CE60
Resolution: 17500
Column name: Acquity UPLC BEH C18 1.7 um, 2.1 x 150 mm, Waters
Retention time: 19.371 min
Base peak: 223.0628
Precursor m/z: 267.1856
Precursor type: [M+H]+
m/z	relative intensity	assigned
56.0498	271	C3H6N+
57.0575	603	C3H7N+
65.0387	51	C5H5+
70.0652	34	C4H8N+
72.0811	999	C4H10N+
79.0542	10	C6H7+
89.0386	56	C7H5+
90.0467	45	C7H6+
91.0543	142	C7H7+
103.0544	13	C8H7+
115.0538	35	C9H7+
117.0569	31	C8H7N+
118.0653	39	C8H8N+
128.0495	14	C9H6N+
130.0647	12	C9H8N+
140.0623	15	C11H8+
152.0612	47	C12H8+
153.0695	12	C12H9+
165.0698	257	C13H9+
166.0661	26	C12H8N+
166.0783	41	C13H10+
167.0737	212	C12H9N+
178.0641	17	C13H8N+
178.0775	58	C14H10+
179.0736	45	C13H9N+
180.0802	182	C13H10N+
190.0639	13	C14H8N+
191.0718	161	C14H9N+
192.0806	666	C14H10N+
193.0873	714	C14H11N+
194.0965	197	C14H12N+
204.08	34	C15H10N+
206.098	42	C15H12N+
207.1056	11	C15H13N+
208.1101	13	C15H14N+
220.111	27	C16H14N+
