Mass spectrum: Sulfamethoxazole; ESI-QTOF; MS2; CE: 45eV; R=15000; [M+H]+
Name: Sulfamethoxazole
Name: 4-Amino-N-(5-methyl-1,2-oxazol-3-yl)benzene-1-sulfonamide
Formula: C10H11N3O3S
Exact mass: 253.0521
SMILES: CC1=CC(NS(=O)(=O)C2=CC=C(N)C=C2)=NO1
InChI: InChI=1S/C10H11N3O3S/c1-7-6-10(12-16-7)13-17(14,15)9-4-2-8(11)3-5-9/h2-6H,11H2,1H3,(H,12,13)
Instrument: TripleTOF 5600+SCIEX
Instrument type: ESI-QTOF
Ms type: MS2
Ion mode: POSITIVE
Ionization: ESI
Fragmentation mode: CID
Collision energy: 45 eV
Resolution: 15000
Precursor m/z: 254.0594
Precursor type: [M+H]+
m/z	relative intensity
51.0261	1
52.0325	1
53.0414	9
54.0367	2
55.0208	2
56.0522	1
63.0253	1
65.0407	369
66.0485	9
67.0434	1
68.0511	1
71.0625	2
72.0459	8
77.0401	3
78.0352	1
79.043	2
80.051	150
82.0539	1
89.04	1
90.0347	3
91.0426	1
92.0009	1
92.0506	846
93.0019	1
93.0583	152
94.0662	9
97.0413	2
99.0562	91
102.0342	1
103.0425	2
104.0502	3
105.0455	5
106.0533	5
107.061	40
108.0451	999
110.0607	2
116.0497	3
117.0456	1
118.0536	5
119.061	14
120.0686	3
121.0766	5
122.0053	1
127.966	1
129.0454	3
130.0534	4
131.0607	10
132.0685	8
133.0638	6
134.0718	2
135.0125	1
140.0177	2
142.0536	1
143.0611	10
144.0566	2
145.0639	5
146.0717	68
147.0794	48
148.0873	3
149.0173	1
156.0118	69
159.0018	1
159.0795	5
160.0873	41
161.0017	4
167.014	2
169.029	2
172.0515	1
173.0588	3
175.0202	1
176.0283	2
