Mass spectrum: Antipyrine; LC-ESI-ITFT; MS2; CE: 115%; R=15000; [M+H]+
Name: Antipyrine
Name: 1,5-dimethyl-2-phenylpyrazol-3-one
Formula: C11H12N2O
Exact mass: 188.0950
SMILES: CC1=CC(=O)N(N1C)C2=CC=CC=C2
InChI: InChI=1S/C11H12N2O/c1-9-8-11(14)13(12(9)2)10-6-4-3-5-7-10/h3-8H,1-2H3
Instrument: LTQ Orbitrap XL Thermo Scientific
Instrument type: LC-ESI-ITFT
Ms type: MS2
Ion mode: POSITIVE
Ionization: ESI
Fragmentation mode: CID
Collision energy: 115% (nominal)
Resolution: 15000
Column name: Kinetex Evo C18 2.6 um 50 x 2.1 mm
Retention time: 5.555 min
Base peak: 189.1023
Precursor m/z: 189.1022
Precursor type: [M+H]+
m/z	relative intensity	assigned
58.0649	28	C3H8N+
91.0543	24	C7H7+
103.0539	13	C8H7+
104.0496	45	C7H6N+
106.0653	15	C7H8N+
117.0576	34	C8H7N+
117.0699	42	C9H9+
118.0652	220	C8H8N+
120.0808	242	C8H10N+
130.0652	364	C9H8N+
131.073	999	C9H9N+
132.0808	204	C9H10N+
133.076	93	C8H9N2+
134.0962	36	C9H12N+
144.0809	762	C10H10N+
145.0648	78	C10H9O+
146.0839	621	C9H10N2+
146.0965	452	C10H12N+
147.0917	621	C9H11N2+
148.0756	106	C9H10NO+
158.0601	28	C10H8NO+
161.1074	870	C10H13N2+
172.0757	341	C11H10NO+
174.0789	327	C10H10N2O+
