Mass spectrum: Chlorotoluron-metabolite (Unequivocal molecular formula); LC-ESI-QFT; MS2; CE: 30%; R=70000; [M+H]+
Name: Chlorotoluron-metabolite
Formula: C10H11ClN2O2
Exact mass: 226.05
Instrument: Q Exactive Plus Orbitrap Thermo Scientific
Instrument type: LC-ESI-QFT
Ms type: MS2
Ion mode: POSITIVE
Ionization: ESI
Fragmentation mode: HCD
Collision energy: 30% (nominal)
Resolution: 70000
Column name: Waters UPLC BEH C18 1.7 um 2.1 mm x 100 mm with pre-column
Retention time: 9.62 min
Precursor m/z: 227.0578
Precursor type: [M+H]+
m/z	relative intensity
55.0546	128
69.0699	145
79.0542	236
91.0542	282
93.0572	138
93.0699	236
95.049	153
105.07	122
107.0731	217
107.086	140
140.0262	999
166.0053	290
170.0369	560
171.0469	167
