Mass spectrum: 3-Acetyldeoxynivalenol; LC-ESI-ITFT; MS2; CE: 40%; R=7500; [M-H]-
Name: 3-Acetyldeoxynivalenol
Name: Acetyldeoxynivalenol
Name: [3-hydroxy-2-(hydroxymethyl)-1,5-dimethyl-4-oxospiro[8-oxatricyclo[7.2.1.02,7]dodec-5-ene-12,2`-oxirane]-10-yl] acetate
Formula: C17H22O7
Exact mass: 338.1366
SMILES: CC1=CC2C(C(C1=O)O)(C3(CC(C(C34CO4)O2)OC(=O)C)C)CO
InChI: InChI=1S/C17H22O7/c1-8-4-11-16(6-18,13(21)12(8)20)15(3)5-10(23-9(2)19)14(24-11)17(15)7-22-17/h4,10-11,13-14,18,21H,5-7H2,1-3H3
Instrument: LTQ Orbitrap XL Thermo Scientific
Instrument type: LC-ESI-ITFT
Ms type: MS2
Ion mode: NEGATIVE
Ionization: ESI
Fragmentation mode: HCD
Collision energy: 40 % (nominal)
Resolution: 7500
Column name: Hypersil GOLD C18 1.9 um 100 x 2.1 mm Thermo Fisher Scientific
Retention time: 10.822 min
Base peak: 397.1505
Precursor m/z: 337.1293
Precursor type: [M-H]-
Precursor intensity: 4720813.125
m/z	relative intensity	assigned
59.0139	100	C2H3O2-
168.0432	10	C8H8O4-
173.0606	923	C11H9O2-
175.0763	17	C11H11O2-
191.0714	149	C11H11O3-
201.0919	25	C13H13O2-
217.0871	130	C13H13O3-
221.0817	31	C12H13O4-
229.0868	72	C14H13O3-
247.0976	295	C14H15O4-
265.1081	21	C14H17O5-
277.1081	45	C15H17O5-
307.1185	999	C16H19O6-
337.1292	772	C17H21O7-
