Mass spectrum: Malformin C; LC-ESI-ITFT; MS2; CE: 50%; R=7500; [M-H]-
Name: Malformin C
Name: Malformin B1b
Name: (1S,4S,7R,10S,13S)-4,7-bis(2-methylpropyl)-10-propan-2-yl-15,16-dithia-2,5,8,11,19-pentazabicyclo[11.4.2]nonadecane-3,6,9,12,18-pentone
Formula: C23H39N5O5S2
Exact mass: 529.23926
SMILES: O=C1[C@H](CC(C)C)NC([C@@H](CC(C)C)NC([C@H](C(C)C)NC([C@@H]2NC([C@@H](CSSC2)N1)=O)=O)=O)=O
InChI: InChI=1S/C23H39N5O5S2/c1-11(2)7-14-20(30)26-16-9-34-35-10-17(27-21(16)31)22(32)28-18(13(5)6)23(33)25-15(8-12(3)4)19(29)24-14/h11-18H,7-10H2,1-6H3,(H,24,29)(H,25,33)(H,26,30)(H,27,31)(H,28,32)/t14-,15+,16+,17+,18-/m0/s1
Instrument: LTQ Orbitrap XL Thermo Scientific
Instrument type: LC-ESI-ITFT
Ms type: MS2
Ion mode: NEGATIVE
Ionization: ESI
Fragmentation mode: HCD
Collision energy: 50 % (nominal)
Resolution: 7500
Column name: Hypersil GOLD C18 1.9 um 100 x 2.1 mm Thermo Fisher Scientific
Retention time: 21.909 min
Base peak: 588.2535
Precursor m/z: 528.232
Precursor type: [M-H]-
Precursor intensity: 6831499.900391
m/z	relative intensity	assigned
90.9682	11	C2H3S2-
97.041	64	C4H5N2O-
100.0227	95	C4H6NS-
109.0409	184	C5H5N2O-
111.0567	42	C5H7N2O-
113.0352	7	C4H5N2O2-
126.0023	142	C5H4NOS-
128.0181	11	C5H6NOS-
139.0512	24	C6H7N2O2-
139.088	31	C7H11N2O-
141.0671	999	C6H9N2O2-
143.0286	346	C5H7N2OS-
155.0829	76	C7H11N2O2-
156.0492	9	C7H10NOS-
167.083	24	C8H11N2O2-
181.0986	125	C9H13N2O2-
191.0829	30	C10H11N2O2-
198.1243	9	CH20N5O4S-
201.0523	13	C8H13N2S2-
205.0991	15	C5H19NO5S-
208.1096	71	C10H14N3O2-
210.0884	101	C9H12N3O3-
210.1257	9	C12H18O3-
211.1453	31	C11H19N2O2-
225.1608	16	C12H21N2O2-
233.1663	54	C8H27NO4S-
234.0885	11	C11H12N3O3-
239.0845	12	C3H19N4O4S2-
239.1155	10	C10H15N4O3-
242.0972	21	C10H16N3O2S-
251.1149	31	C11H15N4O3-
253.1308	49	C11H17N4O3-
254.1512	35	C12H20N3O3-
268.167	30	C13H22N3O3-
306.2186	29	C17H28N3O2-
326.1546	57	C23H20NO-
350.208	47	C18H28N3O4-
367.2357	528	C18H31N4O4-
405.2505	8	C21H33N4O4-
419.2333	30	C18H35N4O5S-
425.2227	28	C22H35NO5S-
436.2597	29	C18H38N5O5S-
451.2395	333	C22H35N4O4S-
460.2573	192	C23H34N5O5-
462.273	213	C23H36N5O5-
476.2368	15	C20H38N5O4S2-
494.2453	281	C23H36N5O5S-
