Mass spectrum: Ethambutol; LC-ESI-ITFT; MS2; CE: 20%; R=15000; [M+H]+
Name: Ethambutol
Name: 2-[2-(1-hydroxybutan-2-ylamino)ethylamino]butan-1-ol
Formula: C10H24N2O2
Exact mass: 204.1838
SMILES: CCC(CO)NCCNC(CC)CO
InChI: InChI=1S/C10H24N2O2/c1-3-9(7-13)11-5-6-12-10(4-2)8-14/h9-14H,3-8H2,1-2H3
Instrument: LTQ Orbitrap XL Thermo Scientific
Instrument type: LC-ESI-ITFT
Ms type: MS2
Ion mode: POSITIVE
Ionization: ESI
Fragmentation mode: CID
Collision energy: 20% (nominal)
Resolution: 15000
Column name: Kinetex Evo C18 2.6 um 50 x 2.1 mm
Retention time: 0.343 min
Base peak: 205.1923
Precursor m/z: 205.1911
Precursor type: [M+H]+
m/z	relative intensity	assigned
90.0915	1	C4H12NO+
98.0965	2	C6H12N+
116.1071	531	C6H14NO+
187.181	1	C10H23N2O+
205.1913	999	C10H25N2O2+
