Mass spectrum: Terbutryn-diOH (TENTATIVE); LC-ESI-QFT; MS2; CE: 30%; R=70000; [M+H]+
Name: Terbutryn-diOH
Formula: C10H19N5O2S
Exact mass: 273.1249
SMILES: C(*)C(*)NC1=NC(=NC(=N1)SC(*))NC(C)(C(*))C(*)  *=[OH (n=1)& H (n=4)]
Instrument: Q Exactive Plus Orbitrap Thermo Scientific
Instrument type: LC-ESI-QFT
Ms type: MS2
Ion mode: POSITIVE
Ionization: ESI
Fragmentation mode: HCD
Collision energy: 30% (nominal)
Resolution: 70000
Column name: Waters UPLC BEH C18 1.7 um 2.1 mm x 100 mm with pre-column
Retention time: 12.73 min
Precursor m/z: 274.1327
Precursor type: [M+H]+
m/z	relative intensity
57.0701	36
67.0542	9
68.0244	116
69.0084	42
71.0604	147
81.07	11
85.0396	22
85.0509	14
86.0349	443
95.0854	11
96.0556	345
97.0396	68
110.0349	22
110.0461	118
113.0822	17
114.0662	227
119.0731	11
127.0489	17
128.0566	17
138.0774	999
139.0616	12
139.0853	14
154.0725	10
156.088	881
158.0497	55
200.0601	138
218.0706	481
