Mass spectrum: Desipramine; LC-ESI-ITFT; MS2; CE: 185%; R=15000; [M+H]+
Name: Desipramine
Name: 3-(5,6-dihydrobenzo[b][1]benzazepin-11-yl)-N-methylpropan-1-amine
Formula: C18H22N2
Exact mass: 266.1783
SMILES: CNCCCN1C2=CC=CC=C2CCC3=CC=CC=C31
InChI: InChI=1S/C18H22N2/c1-19-13-6-14-20-17-9-4-2-7-15(17)11-12-16-8-3-5-10-18(16)20/h2-5,7-10,19H,6,11-14H2,1H3
Instrument: LTQ Orbitrap XL Thermo Scientific
Instrument type: LC-ESI-ITFT
Ms type: MS2
Ion mode: POSITIVE
Ionization: ESI
Fragmentation mode: HCD
Collision energy: 185% (nominal)
Resolution: 15000
Column name: Kinetex Evo C18 2.6 um 50 x 2.1 mm
Retention time: 8.447 min
Base peak: 267.1857
Precursor m/z: 267.1856
Precursor type: [M+H]+
m/z	relative intensity	assigned
57.057	225	C3H7N+
65.0383	141	C5H5+
72.0806	79	C4H10N+
77.0385	90	C6H5+
89.0386	290	C7H5+
90.0465	105	C7H6+
91.0543	209	C7H7+
105.0446	128	C6H5N2+
115.0543	212	C9H7+
117.0572	56	C8H7N+
139.0542	330	C11H7+
140.0496	118	C10H6N+
140.0621	62	C11H8+
151.0543	88	C12H7+
152.0619	320	C12H8+
163.0546	168	C13H7+
164.0622	245	C13H8+
165.0699	764	C13H9+
166.0652	186	C12H8N+
167.073	182	C12H9N+
169.0651	62	C12H9O+
177.0572	63	C13H7N+
178.065	166	C13H8N+
178.0781	91	C14H10+
179.0724	108	C13H9N+
190.0651	405	C14H8N+
191.073	999	C14H9N+
192.0808	284	C14H10N+
193.0889	81	C14H11N+
204.0806	86	C15H10N+
