Mass spectrum: Metazachlor-OH (TENTATIVE); LC-ESI-QFT; MS2; CE: 30%; R=70000; [M+H]+
Name: Metazachlor-OH
Formula: C14H16ClN3O2
Exact mass: 293.0918
SMILES: C(*)C1=C(C(=C(*)C(*)=C(*)1)C)N(C(*)N2C=C(*)C(*)=N2)C(=O)C(*)Cl *=[OH (n=1) & H (n=7)]
Instrument: Q Exactive Plus Orbitrap Thermo Scientific
Instrument type: LC-ESI-QFT
Ms type: MS2
Ion mode: POSITIVE
Ionization: ESI
Fragmentation mode: HCD
Collision energy: 30% (nominal)
Resolution: 70000
Column name: Waters UPLC BEH C18 1.7 um 2.1 mm x 100 mm with pre-column
Retention time: 11.2 min
Precursor m/z: 294.0996
Precursor type: [M+H]+
m/z	relative intensity
65.9872	3
69.0448	999
105.0699	30
115.0543	7
117.0573	110
120.0808	41
121.0649	24
130.0653	5
132.0808	622
142.0652	15
144.0807	3
147.0678	3
150.0915	12
160.0757	343
161.0836	4
166.0417	14
168.0576	4
178.0418	206
196.0524	405
