Mass spectrum: Dixyrazine ; LC-ESI-QTOF; MS2; CE: 40 eV; R=3600; [M+H]+
Name: Dixyrazine
Name: 2-(2-{4-[2-Methyl-3-(10H-phenothiazin-10-yl)propyl]piperazin-1-yl}ethoxy)ethan-1-ol
Formula: C24H33N3O2S
Exact mass: 427.2293
SMILES: CC(CN1CCN(CCOCCO)CC1)CN1C2=CC=CC=C2SC2=CC=CC=C12
InChI: InChI=1S/C24H33N3O2S/c1-20(18-26-12-10-25(11-13-26)14-16-29-17-15-28)19-27-21-6-2-4-8-23(21)30-24-9-5-3-7-22(24)27/h2-9,20,28H,10-19H2,1H3
Instrument: 6576 QTOF Agilent
Instrument type: LC-ESI-QTOF
Ms type: MS2
Ion mode: POSITIVE
Ionization: ESI
Fragmentation mode: CID
Collision energy: 40 eV
Resolution: 3600
Precursor m/z: 428.2367
Precursor type: [M+H]+
m/z	relative intensity
56.0481	65
58.0639	118
70.0635	264
82.0631	59
84.0789	46
87.0417	133
97.0736	302
98.0811	999
101.1045	482
125.1034	92
144.098	77
172.1147	99
179.0677	49
180.0754	360
187.1379	214
212.0462	316
229.184	161
