Mass spectrum: Dosulepin; LC-ESI-ITFT; MS2; CE: 35%; R=15000; [M+H]+
Name: Dosulepin
Name: Dothiepin
Name: 3-(6H-benzo[c][1]benzothiepin-11-ylidene)-N,N-dimethylpropan-1-amine
Formula: C19H21NS
Exact mass: 295.1395
SMILES: CN(C)CCC=C1C2=CC=CC=C2CSC3=CC=CC=C31
InChI: InChI=1S/C19H21NS/c1-20(2)13-7-11-17-16-9-4-3-8-15(16)14-21-19-12-6-5-10-18(17)19/h3-6,8-12H,7,13-14H2,1-2H3
Instrument: LTQ Orbitrap XL Thermo Scientific
Instrument type: LC-ESI-ITFT
Ms type: MS2
Ion mode: POSITIVE
Ionization: ESI
Fragmentation mode: CID
Collision energy: 35% (nominal)
Resolution: 15000
Column name: Kinetex Evo C18 2.6 um 50 x 2.1 mm
Retention time: 8.351 min
Base peak: 296.1467
Precursor m/z: 296.1467
Precursor type: [M+H]+
m/z	relative intensity	assigned
91.0543	13	C7H7+
117.0699	12	C9H9+
123.0263	6	C7H7S+
141.0699	3	C11H9+
142.0778	3	C11H10+
147.0263	162	C9H7S+
173.0421	9	C11H9S+
179.0858	1	C14H11+
186.1276	1	C13H16N+
191.0857	25	C15H11+
192.0934	2	C15H12+
205.1013	1	C16H13+
209.0421	47	C14H9S+
210.0501	1	C14H10S+
211.0578	3	C14H11S+
217.1014	28	C17H13+
218.1092	84	C17H14+
221.0422	2	C15H9S+
222.0501	25	C15H10S+
223.0579	207	C15H11S+
225.0733	999	C15H13S+
236.0654	18	C16H12S+
249.0734	2	C17H13S+
251.089	448	C17H15S+
253.1045	52	C17H17S+
265.1046	8	C18H17S+
296.1469	762	C19H22NS+
