Mass spectrum: Sulfamethoxazole; ESI-QTOF; MS2; CE: 20eV; R=15000; [M+H]+
Name: Sulfamethoxazole
Name: 4-Amino-N-(5-methyl-1,2-oxazol-3-yl)benzene-1-sulfonamide
Formula: C10H11N3O3S
Exact mass: 253.0521
SMILES: CC1=CC(NS(=O)(=O)C2=CC=C(N)C=C2)=NO1
InChI: InChI=1S/C10H11N3O3S/c1-7-6-10(12-16-7)13-17(14,15)9-4-2-8(11)3-5-9/h2-6H,11H2,1H3,(H,12,13)
Instrument: TripleTOF 5600+SCIEX
Instrument type: ESI-QTOF
Ms type: MS2
Ion mode: POSITIVE
Ionization: ESI
Fragmentation mode: CID
Collision energy: 20 eV
Resolution: 15000
Precursor m/z: 254.0594
Precursor type: [M+H]+
m/z	relative intensity
65.0409	8
66.0479	1
72.046	1
80.051	5
92.0506	122
93.0584	62
94.0662	13
99.0563	81
107.0612	20
108.0451	275
118.0531	1
119.0609	2
121.0765	3
130.0528	1
131.061	5
132.0688	3
133.0639	2
140.0159	1
143.0603	1
145.0763	2
146.0717	37
147.0796	135
148.0874	36
151.0329	1
155.9538	1
156.0119	994
159.0022	1
159.0555	1
160.0874	106
161.002	12
161.0714	2
163.0877	3
169.0304	1
172.0874	3
173.0583	2
174.079	1
176.0282	9
177.0119	1
187.0042	2
188.0824	161
190.098	50
193.0307	1
194.0388	32
213.0199	2
236.0496	26
254.0594	999
