Mass spectrum: Tentotoxin; LC-ESI-ITFT; MS2; CE: 15%; R=7500; [M+H]+
Name: Tentotoxin
Name: 12-benzylidene-1,6,7-trimethyl-3-(2-methylpropyl)-1,4,7,10-tetrazacyclododecane-2,5,8,11-tetrone
Formula: C22H30N4O4
Exact mass: 414.2267
SMILES: CC1C(=O)NC(C(=O)N(C(=CC2=CC=CC=C2)C(=O)NCC(=O)N1C)C)CC(C)C
InChI: InChI=1S/C22H30N4O4/c1-14(2)11-17-22(30)26(5)18(12-16-9-7-6-8-10-16)21(29)23-13-19(27)25(4)15(3)20(28)24-17/h6-10,12,14-15,17H,11,13H2,1-5H3,(H,23,29)(H,24,28)
Instrument: LTQ Orbitrap XL Thermo Scientific
Instrument type: LC-ESI-ITFT
Ms type: MS2
Ion mode: POSITIVE
Ionization: ESI
Fragmentation mode: HCD
Collision energy: 15 % (nominal)
Resolution: 7500
Column name: Hypersil GOLD C18 1.9 um 100 x 2.1 mm Thermo Fisher Scientific
Retention time: 18.896 min
Base peak: 415.2344
Precursor m/z: 415.234
Precursor type: [M+H]+
Precursor intensity: 24863502.65039
m/z	relative intensity	assigned
58.065	19	C3H8N+
73.0887	2	C4H11N+
115.0861	1	C5H11N2O+
171.1491	108	C9H19N2O+
189.1022	19	C11H13N2O+
199.144	124	C10H19N2O2+
217.0969	50	C12H13N2O2+
238.1547	5	C12H20N3O2+
301.1541	2	C17H21N2O3+
302.1497	210	C16H20N3O3+
312.1698	18	C18H22N3O2+
327.1699	2	C19H23N2O3+
330.1811	44	C18H24N3O3+
358.2126	45	C20H28N3O3+
415.2337	999	C22H31N4O4+
