Mass spectrum: Sulfamethoxazole; LC-ESI-ITFT; MS2; CE: 75%; R=7500; [M+H]+
Name: Sulfamethoxazole
Name: 4-Amino-N-(5-methyl-1,2-oxazol-3-yl)benzene-1-sulfonamide
Formula: C10H11N3O3S
Exact mass: 253.0521
SMILES: CC1=CC(NS(=O)(=O)C2=CC=C(N)C=C2)=NO1
InChI: InChI=1S/C10H11N3O3S/c1-7-6-10(12-16-7)13-17(14,15)9-4-2-8(11)3-5-9/h2-6H,11H2,1H3,(H,12,13)
Instrument: LTQ Orbitrap XL Thermo Fisher Scientific
Instrument type: LC-ESI-ITFT
Ms type: MS2
Ion mode: POSITIVE
Ionization: ESI
Fragmentation mode: HCD
Collision energy: 75% (nominal)
Resolution: 7500
Column name: Hypersil GOLD C18 1.9 um 100 x 2.1 mm Thermo Fisher Scientific
Precursor m/z: 254.0594
Precursor type: [M+H]+
m/z	relative intensity
65.0384	116
72.0444	4
80.0493	26
92.0494	999
93.0571	180
94.065	7
99.0553	151
107.0606	29
108.0445	930
110.06	99
119.0603	2
120.0556	19
121.0758	2
131.0599	6
132.0677	4
133.0765	4
143.0603	6
146.0714	35
147.0792	52
148.0869	5
156.0114	83
160.0869	62
161.0011	5
173.0585	2
