Mass spectrum: Nylidrin; LC-ESI-ITFT; MS2; CE: 55%; R=15000; [M+H]+
Name: Nylidrin
Name: 4-[1-hydroxy-2-(4-phenylbutan-2-ylamino)propyl]phenol
Formula: C19H25NO2
Exact mass: 299.1885
SMILES: CC(CCC1=CC=CC=C1)NC(C)C(C2=CC=C(C=C2)O)O
InChI: InChI=1S/C19H25NO2/c1-14(8-9-16-6-4-3-5-7-16)20-15(2)19(22)17-10-12-18(21)13-11-17/h3-7,10-15,19-22H,8-9H2,1-2H3
Instrument: LTQ Orbitrap XL Thermo Scientific
Instrument type: LC-ESI-ITFT
Ms type: MS2
Ion mode: POSITIVE
Ionization: ESI
Fragmentation mode: HCD
Collision energy: 55% (nominal)
Resolution: 15000
Column name: Kinetex Evo C18 2.6 um 50 x 2.1 mm
Retention time: 6.812 min
Base peak: 300.1956
Precursor m/z: 300.1958
Precursor type: [M+H]+
m/z	relative intensity	assigned
56.0492	16	C3H6N+
57.0332	7	C3H5O+
91.0541	850	C7H7+
95.0487	2	C6H7O+
105.0698	155	C8H9+
107.0491	18	C7H7O+
109.0647	21	C7H9O+
132.0804	3	C9H10N+
133.0647	395	C9H9O+
135.0678	8	C8H9NO+
135.0803	42	C9H11O+
148.1114	3	C10H14N+
150.0912	999	C9H12NO+
151.0752	34	C9H11O2+
178.1222	6	C11H16NO+
240.1381	3	C16H18NO+
282.1852	31	C19H24NO+
