Mass spectrum: Mefruside; ESI-QTOF; MS2; CE: 30eV; R=15000; [M+H]+
Name: Mefruside
Name: 4-Chloro-N1-methyl-N1-[(2-methyloxolan-2-yl)methyl]benzene-1,3-disulfonamide
Formula: C13H19ClN2O5S2
Exact mass: 382.0424
SMILES: CN(CC1(C)CCCO1)S(=O)(=O)C1=CC=C(Cl)C(=C1)S(N)(=O)=O
InChI: InChI=1S/C13H19ClN2O5S2/c1-13(6-3-7-21-13)9-16(2)23(19,20)10-4-5-11(14)12(8-10)22(15,17)18/h4-5,8H,3,6-7,9H2,1-2H3,(H2,15,17,18)
Instrument: TripleTOF 5600+SCIEX
Instrument type: ESI-QTOF
Ms type: MS2
Ion mode: POSITIVE
Ionization: ESI
Fragmentation mode: CID
Collision energy: 30 eV
Resolution: 15000
Precursor m/z: 383.0497
Precursor type: [M+H]+
m/z	relative intensity
53.0414	5
55.0572	7
56.0512	1
57.0361	36
58.0684	1
62.007	1
65.0403	2
66.048	1
68.0513	1
69.0718	28
70.0677	2
71.0873	13
77.0407	4
79.0559	50
80.0511	1
81.0066	1
81.0365	1
81.0715	492
82.0658	2
84.0241	1
84.0824	251
85.0898	1
86.0615	47
87.0696	1
93.0702	1
94.0665	3
95.0742	3
96.0822	30
97.0661	17
98.0974	5
98.9998	1
99.0815	381
99.097	1
101.1202	1
106.03	1
107.013	1
108.0802	1
108.9849	8
110.0975	31
111.1052	31
112.113	12
112.9796	1
114.0925	2
114.9954	3
116.9566	3
119.0864	2
119.9673	1
123.9952	1
126.0094	1
126.9948	1
128.0267	2
128.1079	118
129.0095	1
129.1156	999
129.9436	1
130.9128	1
131.9376	1
135.0804	1
139.99	1
140.9748	5
142.006	15
142.9901	42
143.9675	2
144.9507	2
156.0217	7
172.9467	8
174.9612	1
189.9733	48
190.9566	2
201.9628	1
203.9889	53
207.9839	12
217.9795	136
218.9755	1
219.9833	1
222.0001	1
223.9626	1
225.9388	1
231.9951	3
237.9404	8
253.9356	459
267.9514	226
282.9635	1
284.1012	3
284.978	779
285.9626	1
288.0474	3
293.0241	1
296.0624	1
296.978	168
301.0786	1
302.0331	1
310.9927	1
319.086	1
337.0105	1
342.0184	1
365.0411	22
383.0497	35
