Mass spectrum: Dosulepin; LC-ESI-ITFT; MS2; CE: 80%; R=15000; [M+H]+
Name: Dosulepin
Name: Dothiepin
Name: 3-(6H-benzo[c][1]benzothiepin-11-ylidene)-N,N-dimethylpropan-1-amine
Formula: C19H21NS
Exact mass: 295.1395
SMILES: CN(C)CCC=C1C2=CC=CC=C2CSC3=CC=CC=C31
InChI: InChI=1S/C19H21NS/c1-20(2)13-7-11-17-16-9-4-3-8-15(16)14-21-19-12-6-5-10-18(17)19/h3-6,8-12H,7,13-14H2,1-2H3
Instrument: LTQ Orbitrap XL Thermo Scientific
Instrument type: LC-ESI-ITFT
Ms type: MS2
Ion mode: POSITIVE
Ionization: ESI
Fragmentation mode: HCD
Collision energy: 80% (nominal)
Resolution: 15000
Column name: Kinetex Evo C18 2.6 um 50 x 2.1 mm
Retention time: 8.175 min
Base peak: 296.1468
Precursor m/z: 296.1467
Precursor type: [M+H]+
m/z	relative intensity	assigned
70.065	18	C4H8N+
84.0807	26	C5H10N+
91.0542	314	C7H7+
103.0545	17	C8H7+
115.0542	226	C9H7+
117.0699	499	C9H9+
123.0263	187	C7H7S+
128.0621	26	C10H8+
129.0699	94	C10H9+
135.0263	40	C8H7S+
141.0698	82	C11H9+
142.0777	45	C11H10+
147.0263	196	C9H7S+
165.0698	279	C13H9+
173.0417	46	C11H9S+
178.0777	514	C14H10+
179.0855	156	C14H11+
189.0707	13	C15H9+
190.0775	35	C15H10+
191.0855	219	C15H11+
192.0933	195	C15H12+
197.0414	12	C13H9S+
202.0776	305	C16H10+
203.0855	999	C16H11+
204.0931	42	C16H12+
205.101	8	C16H13+
208.0342	46	C14H8S+
209.042	86	C14H9S+
210.0497	314	C14H10S+
215.0855	55	C17H11+
216.093	30	C17H12+
217.1012	755	C17H13+
218.1089	388	C17H14+
221.0419	681	C15H9S+
222.0497	297	C15H10S+
223.0575	476	C15H11S+
225.0731	34	C15H13S+
234.0498	53	C16H10S+
235.0575	208	C16H11S+
236.0653	73	C16H12S+
249.0722	11	C17H13S+
