Mass spectrum: Fenpropimorph-N-dealkylation (TENTATIVE); LC-ESI-QFT; MS2; CE: 42%; R=70000; [M-H]-
Name: Fenpropimorph-N-dealkylation
Name: 3-(4-tert-butylphenyl)-2-methylpropanoic acid
Formula: C14H20O2
Exact mass: 220.1463
SMILES: OC(=O)C(C)CC2=CC=C(C=C2)C(C)(C)C
InChI: InChI=1S/C14H20O2/c1-10(13(15)16)9-11-5-7-12(8-6-11)14(2,3)4/h5-8,10H,9H2,1-4H3,(H,15,16)
Instrument: Q Exactive Plus Orbitrap Thermo Scientific
Instrument type: LC-ESI-QFT
Ms type: MS2
Ion mode: NEGATIVE
Ionization: ESI
Fragmentation mode: HCD
Collision energy: 42% (nominal) with stepped collision energies 30% and 55%
Resolution: 70000
Column name: Phenomenex Synergi Polar-RP 2.5 um 100 mm x 3 mm with pre-column
Retention time: 10.42
Precursor m/z: 219.1392
Precursor type: [M-H]-
m/z	relative intensity
93.0346	65
111.0235	3
173.1339	17
219.1393	999
