Mass spectrum: Desipramine; LC-ESI-ITFT; MS2; CE: 180%; R=15000; [M+H]+
Name: Desipramine
Name: 3-(5,6-dihydrobenzo[b][1]benzazepin-11-yl)-N-methylpropan-1-amine
Formula: C18H22N2
Exact mass: 266.1783
SMILES: CNCCCN1C2=CC=CC=C2CCC3=CC=CC=C31
InChI: InChI=1S/C18H22N2/c1-19-13-6-14-20-17-9-4-2-7-15(17)11-12-16-8-3-5-10-18(16)20/h2-5,7-10,19H,6,11-14H2,1H3
Instrument: LTQ Orbitrap XL Thermo Scientific
Instrument type: LC-ESI-ITFT
Ms type: MS2
Ion mode: POSITIVE
Ionization: ESI
Fragmentation mode: HCD
Collision energy: 180% (nominal)
Resolution: 15000
Column name: Kinetex Evo C18 2.6 um 50 x 2.1 mm
Retention time: 8.452 min
Base peak: 267.1855
Precursor m/z: 267.1856
Precursor type: [M+H]+
m/z	relative intensity	assigned
65.0384	131	C5H5+
72.0807	84	C4H10N+
77.0386	93	C6H5+
89.0386	270	C7H5+
90.0464	141	C7H6+
91.0542	199	C7H7+
105.0446	107	C6H5N2+
115.0542	150	C9H7+
117.0571	77	C8H7N+
128.0495	73	C9H6N+
139.0542	243	C11H7+
140.0495	81	C10H6N+
140.062	62	C11H8+
151.0539	75	C12H7+
152.062	293	C12H8+
153.0571	49	C11H7N+
163.0541	79	C13H7+
164.0621	224	C13H8+
165.0699	811	C13H9+
166.0651	246	C12H8N+
167.0731	246	C12H9N+
176.0615	80	C14H8+
177.0574	93	C13H7N+
177.069	41	C14H9+
178.065	195	C13H8N+
178.0778	106	C14H10+
179.073	128	C13H9N+
180.081	68	C13H10N+
190.0651	355	C14H8N+
191.0729	999	C14H9N+
192.0808	455	C14H10N+
193.0881	111	C14H11N+
204.0807	76	C15H10N+
