Mass spectrum: Metazachlor-OH (TENTATIVE); LC-ESI-QFT; MS2; CE: 30%; R=70000; [M+H]+
Name: Metazachlor-OH
Formula: C14H16ClN3O2
Exact mass: 293.0918
SMILES: C(*)C1=C(C(=C(*)C(*)=C(*)1)C)N(C(*)N2C=C(*)C(*)=N2)C(=O)C(*)Cl *=[OH (n=1) & H (n=7)]
Instrument: Q Exactive Plus Orbitrap Thermo Scientific
Instrument type: LC-ESI-QFT
Ms type: MS2
Ion mode: POSITIVE
Ionization: ESI
Fragmentation mode: HCD
Collision energy: 30% (nominal)
Resolution: 70000
Column name: Waters UPLC BEH C18 1.7 um 2.1 mm x 100 mm with pre-column
Retention time: 11.81 min
Precursor m/z: 294.0996
Precursor type: [M+H]+
m/z	relative intensity
68.9965	3
76.9788	17
77.0388	2
90.0106	2
105.0699	9
107.0856	1
132.0807	2
133.0886	1
134.0964	999
210.0678	3
