Mass spectrum: Desipramine; LC-ESI-ITFT; MS2; CE: 150%; R=15000; [M+H]+
Name: Desipramine
Name: 3-(5,6-dihydrobenzo[b][1]benzazepin-11-yl)-N-methylpropan-1-amine
Formula: C18H22N2
Exact mass: 266.1783
SMILES: CNCCCN1C2=CC=CC=C2CCC3=CC=CC=C31
InChI: InChI=1S/C18H22N2/c1-19-13-6-14-20-17-9-4-2-7-15(17)11-12-16-8-3-5-10-18(16)20/h2-5,7-10,19H,6,11-14H2,1H3
Instrument: LTQ Orbitrap XL Thermo Scientific
Instrument type: LC-ESI-ITFT
Ms type: MS2
Ion mode: POSITIVE
Ionization: ESI
Fragmentation mode: HCD
Collision energy: 150% (nominal)
Resolution: 15000
Column name: Kinetex Evo C18 2.6 um 50 x 2.1 mm
Retention time: 8.465 min
Base peak: 267.1855
Precursor m/z: 267.1856
Precursor type: [M+H]+
m/z	relative intensity	assigned
65.0383	60	C5H5+
72.0806	574	C4H10N+
77.0383	32	C6H5+
89.0385	139	C7H5+
90.0464	116	C7H6+
91.0541	235	C7H7+
103.0537	34	C8H7+
105.0446	60	C6H5N2+
115.0542	62	C9H7+
117.0574	59	C8H7N+
118.0653	51	C8H8N+
128.0494	51	C9H6N+
139.054	48	C11H7+
152.0619	162	C12H8+
164.0617	41	C13H8+
165.0698	793	C13H9+
166.0651	153	C12H8N+
166.0777	27	C13H10+
167.0728	370	C12H9N+
177.0577	41	C13H7N+
178.0647	74	C13H8N+
178.0777	92	C14H10+
179.0728	186	C13H9N+
180.0807	227	C13H10N+
189.0702	31	C15H9+
190.0652	101	C14H8N+
191.0729	744	C14H9N+
192.0807	999	C14H10N+
193.0885	513	C14H11N+
194.0962	141	C14H12N+
204.0805	92	C15H10N+
206.0958	46	C15H12N+
