Mass spectrum: Cyclizine; LC-ESI-QFT; MS2; CE: CE60; R=17500; [M+H]+
Name: Cyclizine
Name: 1-benzhydryl-4-methylpiperazine
Formula: C18H22N2
Exact mass: 266.1783
SMILES: CN1CCN(CC1)C(C1=CC=CC=C1)C1=CC=CC=C1
InChI: InChI=1S/C18H22N2/c1-19-12-14-20(15-13-19)18(16-8-4-2-5-9-16)17-10-6-3-7-11-17/h2-11,18H,12-15H2,1H3
Instrument: Q Exactive Thermo Fisher Scientific
Instrument type: LC-ESI-QFT
Ms type: MS2
Ion mode: POSITIVE
Ionization: ESI
Fragmentation mode: HCD
Collision energy: CE60
Resolution: 17500
Column name: Acquity UPLC BEH C18 1.7 um, 2.1 x 150 mm, Waters
Retention time: 18.291 min
Base peak: 223.0628
Precursor m/z: 267.1856
Precursor type: [M+H]+
m/z	relative intensity	assigned
63.0233	4	C5H3+
65.0386	16	C5H5+
74.0157	1	C6H2+
78.0465	1	C6H6+
89.0386	5	C7H5+
91.0543	5	C7H7+
102.0466	5	C8H6+
115.0538	91	C9H7+
126.0458	6	C10H6+
127.0546	3	C10H7+
128.0618	131	C10H8+
139.0535	15	C11H7+
141.0693	81	C11H9+
150.0464	9	C12H6+
151.0542	4	C12H7+
152.0612	756	C12H8+
155.0612	3	C10H7N2+
163.0543	5	C13H7+
164.0623	6	C13H8+
165.0697	999	C13H9+
166.0782	90	C13H10+
167.0857	15	C13H11+
179.0598	10	C12H7N2+
