Mass spectrum: Antipyrine; LC-ESI-ITFT; MS2; CE: 145%; R=15000; [M+H]+
Name: Antipyrine
Name: 1,5-dimethyl-2-phenylpyrazol-3-one
Formula: C11H12N2O
Exact mass: 188.0950
SMILES: CC1=CC(=O)N(N1C)C2=CC=CC=C2
InChI: InChI=1S/C11H12N2O/c1-9-8-11(14)13(12(9)2)10-6-4-3-5-7-10/h3-8H,1-2H3
Instrument: LTQ Orbitrap XL Thermo Scientific
Instrument type: LC-ESI-ITFT
Ms type: MS2
Ion mode: POSITIVE
Ionization: ESI
Fragmentation mode: HCD
Collision energy: 145% (nominal)
Resolution: 15000
Column name: Kinetex Evo C18 2.6 um 50 x 2.1 mm
Retention time: 5.674 min
Base peak: 189.1022
Precursor m/z: 189.1022
Precursor type: [M+H]+
m/z	relative intensity	assigned
55.0414	17	C3H5N+
56.0492	999	C3H6N+
58.0649	142	C3H8N+
65.0383	217	C5H5+
67.0179	17	C4H3O+
68.0494	16	C4H6N+
69.057	18	C4H7N+
77.0385	924	C6H5+
78.0462	80	C6H6+
79.0542	110	C6H7+
80.0493	20	C5H6N+
81.0447	33	C4H5N2+
82.0288	16	C4H4NO+
89.0385	28	C7H5+
90.0341	10	C6H4N+
90.0463	35	C7H6+
91.0542	218	C7H7+
92.0494	30	C6H6N+
93.0572	36	C6H7N+
95.0491	211	C6H7O+
95.0603	55	C5H7N2+
98.0599	47	C5H8NO+
102.0464	53	C8H6+
103.0542	104	C8H7+
104.0494	293	C7H6N+
105.0447	753	C6H5N2+
106.065	228	C7H8N+
115.0542	184	C9H7+
116.0497	14	C8H6N+
116.0619	17	C9H8+
117.0572	97	C8H7N+
117.07	16	C9H9+
118.065	71	C8H8N+
128.0494	32	C9H6N+
129.0572	18	C9H7N+
130.065	178	C9H8N+
131.0603	172	C8H7N2+
131.0725	14	C9H9N+
132.0444	10	C8H6NO+
132.0681	41	C8H8N2+
144.0809	18	C10H10N+
145.0759	62	C9H9N2+
