Mass spectrum: Eremofortin A; LC-ESI-ITFT; MS2; CE: 50%; R=7500; [M-H]-
Name: Eremofortin A
Name: (3,3`,3`,3a-tetramethyl-6-oxospiro[2,3,4,7b-tetrahydro-1aH-naphtho[1,2-b]oxirene-5,2`-oxirane]-2-yl) acetate
Formula: C17H22O5
Exact mass: 306.14672
SMILES: CC1C(C2C(O2)C3=CC(=O)C4(CC13C)C(O4)(C)C)OC(=O)C
InChI: InChI=1S/C17H22O5/c1-8-12(20-9(2)18)14-13(21-14)10-6-11(19)17(7-16(8,10)5)15(3,4)22-17/h6,8,12-14H,7H2,1-5H3
Instrument: LTQ Orbitrap XL Thermo Scientific
Instrument type: LC-ESI-ITFT
Ms type: MS2
Ion mode: NEGATIVE
Ionization: ESI
Fragmentation mode: HCD
Collision energy: 50 % (nominal)
Resolution: 7500
Column name: Hypersil GOLD C18 1.9 um 100 x 2.1 mm Thermo Fisher Scientific
Retention time: 16.486 min
Base peak: 293.093
Precursor m/z: 305.1394
Precursor type: [M-H]-
Precursor intensity: 338289.9414062
m/z	relative intensity	assigned
263.1292	476	C15H19O4-
305.1397	999	C17H21O5-
