Mass spectrum: Phenazone; LC-ESI-ITFT; MS2; CE: 70%; R=7500; [M+H]+
Name: Phenazone
Name: 1,5-Dimethyl-2-phenyl-1,2-dihydro-3H-pyrazol-3-one
Formula: C11H12N2O
Exact mass: 188.095
SMILES: CN1N(C(=O)C=C1C)C1=CC=CC=C1
InChI: InChI=1S/C11H12N2O/c1-9-8-11(14)13(12(9)2)10-6-4-3-5-7-10/h3-8H,1-2H3
Instrument: LTQ Orbitrap XL Thermo Fisher Scientific
Instrument type: LC-ESI-ITFT
Ms type: MS2
Ion mode: POSITIVE
Ionization: ESI
Fragmentation mode: HCD
Collision energy: 70% (nominal)
Resolution: 7500
Column name: Hypersil GOLD C18 1.9 um 100 x 2.1 mm Thermo Fisher Scientific
Precursor m/z: 189.1023
Precursor type: [M+H]+
m/z	relative intensity
56.0493	51
58.065	60
65.0385	9
68.0494	2
70.0651	4
77.0384	14
81.0445	10
91.0542	29
92.0493	8
93.0333	6
94.0652	3
95.0603	11
96.0682	71
98.06	24
103.0543	10
104.0496	172
106.0652	106
111.0557	5
115.0542	8
117.0698	44
118.0651	82
120.0808	71
129.0574	5
130.0651	97
131.0729	131
132.0808	56
133.0521	15
134.0964	18
135.0553	4
143.0733	2
144.0809	109
145.0647	43
146.0839	119
147.0917	198
148.0759	12
149.0709	16
157.0525	16
159.0917	5
160.0995	7
161.1074	109
172.0758	25
174.0788	106
189.1023	999
