Mass spectrum: Isoproturon-OH (TENTATIVE); LC-ESI-QFT; MS2; CE: 30%; R=70000; [M+H]+
Name: Isoproturon-OH
Formula: C12H18N2O2
Exact mass: 222.1358
SMILES: C(*)C(C)C1=C(*)C(*)=C(C=C1)NC(=O)N(C)C(*) *=[OH (n=1) & H (n=3)] 
Instrument: Q Exactive Plus Orbitrap Thermo Scientific
Instrument type: LC-ESI-QFT
Ms type: MS2
Ion mode: POSITIVE
Ionization: ESI
Fragmentation mode: HCD
Collision energy: 30% (nominal)
Resolution: 70000
Column name: Waters UPLC BEH C18 1.7 um 2.1 mm x 100 mm with pre-column
Retention time: 12.85 min
Precursor m/z: 223.1436
Precursor type: [M+H]+
m/z	relative intensity
67.0543	42
72.0444	67
79.0542	65
81.0699	50
91.0542	108
93.0699	41
95.0854	48
105.0701	51
106.0652	557
107.0857	77
109.1016	25
117.0696	38
119.0853	32
121.0283	43
121.0649	30
124.0758	51
132.0444	999
134.0964	128
149.0711	212
