Mass spectrum: Pendimethalin-desethyl (TENTATIVE); LC-ESI-QFT; MS2; CE: 30%; R=70000; [M+H]+
Name: Pendimethalin-desethyl
Formula: C11H13N3O4
Exact mass: 251.0898
SMILES: CCC=NC1=C(C=C(C(=C1[N+](=O)[O-])C)C)[N+](=O)[O-]
InChI: InChI=1S/C11H13N3O4/c1-4-5-12-10-9(13(15)16)6-7(2)8(3)11(10)14(17)18/h5-6H,4H2,1-3H3
Instrument: Q Exactive Plus Orbitrap Thermo Scientific
Instrument type: LC-ESI-QFT
Ms type: MS2
Ion mode: POSITIVE
Ionization: ESI
Fragmentation mode: HCD
Collision energy: 30% (nominal)
Resolution: 70000
Column name: Waters UPLC BEH C18 1.7 um 2.1 mm x 100 mm with pre-column
Retention time: 8.46 min
Precursor m/z: 252.0976
Precursor type: [M+H]+
m/z	relative intensity
57.0338	653
58.0654	65
73.0284	80
80.0495	43
83.0492	52
86.0962	72
93.0699	51
104.0496	49
105.0447	123
106.0653	75
108.0807	60
119.0238	38
119.0606	60
120.0682	86
121.076	132
122.0839	334
131.0605	103
132.0684	92
132.0809	59
132.1021	65
135.0556	83
136.0616	251
147.0552	126
148.0629	257
149.0709	189
151.0739	43
159.0553	716
159.0918	182
160.0633	107
161.0708	163
163.0503	92
171.0918	314
172.076	46
173.0704	48
175.0868	82
177.0536	94
177.066	222
177.1025	66
178.0613	333
178.0738	256
187.0866	259
189.0534	238
193.061	409
194.0561	54
196.0722	57
200.082	87
202.0609	157
206.056	80
206.0923	53
206.1052	139
207.0635	285
217.0846	685
221.0921	187
224.0669	71
234.0867	69
