Mass spectrum: Cyclizine; ESI-QTOF; MS2; CE: 50eV; R=15000; [M+H]+
Name: Cyclizine
Name: 1-(Diphenylmethyl)-4-methylpiperazine
Formula: C18H22N2
Exact mass: 266.1783
SMILES: CN1CCN(CC1)C(C1=CC=CC=C1)C1=CC=CC=C1
InChI: InChI=1S/C18H22N2/c1-19-12-14-20(15-13-19)18(16-8-4-2-5-9-16)17-10-6-3-7-11-17/h2-11,18H,12-15H2,1H3
Instrument: TripleTOF 5600+SCIEX
Instrument type: ESI-QTOF
Ms type: MS2
Ion mode: POSITIVE
Ionization: ESI
Fragmentation mode: CID
Collision energy: 50 eV
Resolution: 15000
Precursor m/z: 267.1856
Precursor type: [M+H]+
m/z	relative intensity
55.0568	1
57.0722	2
67.0561	2
69.0717	1
71.0871	1
72.0823	1
77.0399	1
79.0554	1
81.071	1
95.0862	1
99.0922	1
102.0468	1
115.0545	16
125.0385	1
126.0464	3
127.0543	2
128.0621	28
139.0542	6
141.0697	27
151.0541	50
152.0622	901
164.0618	15
165.0702	999
166.0775	171
167.0856	631
