Mass spectrum: Dothiepin; ESI-QTOF; MS2; CE: 15eV; R=15000; [M+H]+
Name: Dothiepin
Name: 3-(Dibenzo[b,e]thiepin-11(6H)-ylidene)-N,N-dimethylpropan-1-amine
Formula: C19H21NS
Exact mass: 295.1395
SMILES: CN(C)CCC=C1C2=CC=CC=C2CSC2=C1C=CC=C2
InChI: InChI=1S/C19H21NS/c1-20(2)13-7-11-17-16-9-4-3-8-15(16)14-21-19-12-6-5-10-18(17)19/h3-6,8-12H,7,13-14H2,1-2H3
Instrument: TripleTOF 5600+SCIEX
Instrument type: ESI-QTOF
Ms type: MS2
Ion mode: POSITIVE
Ionization: ESI
Fragmentation mode: CID
Collision energy: 15 eV
Resolution: 15000
Precursor m/z: 296.1468
Precursor type: [M+H]+
m/z	relative intensity
58.0674	2
117.0704	2
123.0267	1
147.0267	2
178.0781	1
191.0861	1
202.0783	1
203.086	1
217.1019	2
218.1097	6
225.074	11
251.0898	14
296.1468	999
