Mass spectrum: Dimethenamid-OH (TENTATIVE); LC-ESI-QFT; MS2; CE: 30%; R=70000; [M+H]+
Name: Dimethenamid-OH
Formula: C12H18ClNO3S
Exact mass: 291.0685
SMILES: C(*)C1=C(*)SC(=C1N(C(*)(C(*))C(*)OC(*))C(=O)C(*)Cl)C(*) *=[OH (n=1) & H (n=7)]
Instrument: Q Exactive Plus Orbitrap Thermo Scientific
Instrument type: LC-ESI-QFT
Ms type: MS2
Ion mode: POSITIVE
Ionization: ESI
Fragmentation mode: HCD
Collision energy: 30% (nominal)
Resolution: 70000
Column name: Waters UPLC BEH C18 1.7 um 2.1 mm x 100 mm with pre-column
Retention time: 11.76 min
Precursor m/z: 292.0763
Precursor type: [M+H]+
m/z	relative intensity
58.0654	12
58.9953	99
65.0388	8
67.0544	18
68.0495	7
71.0492	13
73.0648	999
76.9789	43
79.0544	8
85.0106	9
86.0601	16
87.0441	9
90.0176	5
91.0542	15
94.0653	7
97.0107	9
99.0264	46
105.0699	8
106.0652	6
108.0807	40
110.0601	19
111.0264	75
113.0417	9
115.0543	10
117.0573	20
118.0653	18
119.0731	6
120.9684	6
122.0965	15
125.042	336
126.0373	287
127.0213	63
127.0451	12
132.0808	216
133.0887	345
134.0185	6
134.0965	19
135.1044	6
137.0295	15
137.0422	14
138.0373	45
139.0577	32
140.0528	8
142.032	8
144.048	6
146.0369	34
149.0422	69
150.0373	38
150.0913	11
151.0451	129
151.0576	19
152.0164	10
152.0529	125
153.0244	9
153.0608	7
154.0685	8
156.0844	8
158.0365	9
164.0528	40
164.107	8
165.0607	14
166.032	18
166.0686	827
167.0765	16
168.0478	10
168.0842	254
178.0684	9
179.0406	8
182.0635	191
183.999	6
184.0791	56
186.0142	21
197.087	82
198.0948	323
202.0087	19
203.0169	13
206.0639	31
242.0397	39
244.0558	157
260.0507	99
274.0665	8
