Mass spectrum: Sulfamethoxazole; LC-ESI-ITFT; MS2; CE: 80%; R=15000; [M+H]+
Name: Sulfamethoxazole
Name: 4-amino-N-(5-methyl-1,2-oxazol-3-yl)benzenesulfonamide
Formula: C10H11N3O3S
Exact mass: 253.0521
SMILES: CC1=CC(=NO1)NS(=O)(=O)C2=CC=C(C=C2)N
InChI: InChI=1S/C10H11N3O3S/c1-7-6-10(12-16-7)13-17(14,15)9-4-2-8(11)3-5-9/h2-6H,11H2,1H3,(H,12,13)
Instrument: LTQ Orbitrap XL Thermo Scientific
Instrument type: LC-ESI-ITFT
Ms type: MS2
Ion mode: POSITIVE
Ionization: ESI
Fragmentation mode: HCD
Collision energy: 80% (nominal)
Resolution: 15000
Column name: Kinetex Evo C18 2.6 um 50 x 2.1 mm
Retention time: 5.620 min
Base peak: 189.1022
Precursor m/z: 254.0594
Precursor type: [M+H]+
m/z	relative intensity	assigned
65.0384	221	C5H5+
71.0603	2	C3H7N2+
72.0443	8	C3H6NO+
80.0495	52	C5H6N+
92.0496	999	C6H6N+
93.0573	170	C6H7N+
94.0651	8	C6H8N+
99.0554	117	C4H7N2O+
107.0605	23	C6H7N2+
108.0445	653	C6H6NO+
110.0601	91	C6H8NO+
118.0529	1	C7H6N2+
119.0605	5	C7H7N2+
120.0557	16	C6H6N3+
121.0765	2	C7H9N2+
131.0601	3	C8H7N2+
132.0682	3	C8H8N2+
133.0761	2	C8H9N2+
143.0605	3	C9H7N2+
145.0629	1	C8H7N3+
146.0714	26	C8H8N3+
147.0792	27	C8H9N3+
148.0864	1	C8H10N3+
156.0115	22	C6H6NO2S+
159.0788	2	C9H9N3+
160.087	24	C9H10N3+
161.0015	2	C4H5N2O3S+
