Mass spectrum: Aspercolorin; LC-ESI-ITFT; MS2; CE: 30%; R=7500; [M-H]-
Name: Aspercolorin
Name: 14-benzyl-19-methoxy-2,8,12,15-tetrazatricyclo[15.4.0.04,8]henicosa-1(17),18,20-triene-3,9,13,16-tetrone
Formula: C25H28N4O5
Exact mass: 464.20597
SMILES: COC1=CC2=C(C=C1)NC(=O)C3CCCN3C(=O)CCNC(=O)C(NC2=O)CC4=CC=CC=C4
InChI: InChI=1S/C25H28N4O5/c1-34-17-9-10-19-18(15-17)23(31)28-20(14-16-6-3-2-4-7-16)24(32)26-12-11-22(30)29-13-5-8-21(29)25(33)27-19/h2-4,6-7,9-10,15,20-21H,5,8,11-14H2,1H3,(H,26,32)(H,27,33)(H,28,31)
Instrument: LTQ Orbitrap XL Thermo Scientific
Instrument type: LC-ESI-ITFT
Ms type: MS2
Ion mode: NEGATIVE
Ionization: ESI
Fragmentation mode: HCD
Collision energy: 30 % (nominal)
Resolution: 7500
Column name: Hypersil GOLD C18 1.9 um 100 x 2.1 mm Thermo Fisher Scientific
Retention time: 19.779 min
Base peak: 463.1976
Precursor m/z: 463.1987
Precursor type: [M-H]-
Precursor intensity: 19163363.63037
m/z	relative intensity	assigned
199.0191	2	C15H3O-
203.1081	2	C13H15O2-
295.1074	2	C17H15N2O3-
463.197	999	C25H27N4O5-
