Mass spectrum: Tentotoxin; LC-ESI-ITFT; MS2; CE: 40%; R=7500; [M-H]-
Name: Tentotoxin
Name: 12-benzylidene-1,6,7-trimethyl-3-(2-methylpropyl)-1,4,7,10-tetrazacyclododecane-2,5,8,11-tetrone
Formula: C22H30N4O4
Exact mass: 414.22671
SMILES: CC1C(=O)NC(C(=O)N(C(=CC2=CC=CC=C2)C(=O)NCC(=O)N1C)C)CC(C)C
InChI: InChI=1S/C22H30N4O4/c1-14(2)11-17-22(30)26(5)18(12-16-9-7-6-8-10-16)21(29)23-13-19(27)25(4)15(3)20(28)24-17/h6-10,12,14-15,17H,11,13H2,1-5H3,(H,23,29)(H,24,28)
Instrument: LTQ Orbitrap XL Thermo Scientific
Instrument type: LC-ESI-ITFT
Ms type: MS2
Ion mode: NEGATIVE
Ionization: ESI
Fragmentation mode: HCD
Collision energy: 40 % (nominal)
Resolution: 7500
Column name: Hypersil GOLD C18 1.9 um 100 x 2.1 mm Thermo Fisher Scientific
Retention time: 18.863 min
Base peak: 413.2183
Precursor m/z: 413.2194
Precursor type: [M-H]-
Precursor intensity: 34299889.53418
m/z	relative intensity	assigned
82.0298	2	C4H4NO-
84.0453	5	C4H6NO-
85.0405	3	C3H5N2O-
101.0723	1	C4H9N2O-
102.0556	20	C4H8NO2-
110.0246	2	C5H4NO2-
111.056	10	C5H7N2O-
113.0352	12	C4H5N2O2-
123.0561	14	C6H7N2O-
126.0433	2	C5H6N2O2-
127.0509	2	C5H7N2O2-
128.0502	6	C9H6N-
132.0814	2	C9H10N-
141.0663	999	C6H9N2O2-
153.1028	30	C8H13N2O-
154.0614	24	C6H8N3O2-
189.103	2	C11H13N2O-
217.0974	7	C12H13N2O2-
225.1241	3	C11H17N2O3-
255.1494	3	C16H19N2O-
271.1439	620	C16H19N2O2-
289.1563	2	C16H21N2O3-
295.1312	10	C17H17N3O2-
310.1548	29	C18H20N3O2-
321.1571	5	C15H21N4O4-
338.1858	10	C20H24N3O2-
354.2059	4	C20H26N4O2-
356.1987	8	C20H26N3O3-
369.2282	76	C21H29N4O2-
382.1768	4	C21H24N3O4-
395.2078	9	C22H27N4O3-
413.218	792	C22H29N4O4-
