Mass spectrum: Etofylline; LC-ESI-ITFT; MS2; CE: 95%; R=15000; [M+H]+
Name: Etofylline
Name: 7-(2-hydroxyethyl)-1,3-dimethylpurine-2,6-dione
Formula: C9H12N4O3
Exact mass: 224.0909
SMILES: CN1C2=C(C(=O)N(C1=O)C)N(C=N2)CCO
InChI: InChI=1S/C9H12N4O3/c1-11-7-6(8(15)12(2)9(11)16)13(3-4-14)5-10-7/h5,14H,3-4H2,1-2H3
Instrument: LTQ Orbitrap XL Thermo Scientific
Instrument type: LC-ESI-ITFT
Ms type: MS2
Ion mode: POSITIVE
Ionization: ESI
Fragmentation mode: HCD
Collision energy: 95% (nominal)
Resolution: 15000
Column name: Kinetex Evo C18 2.6 um 50 x 2.1 mm
Retention time: 2.579 min
Base peak: 300.1474
Precursor m/z: 225.0982
Precursor type: [M+H]+
m/z	relative intensity	assigned
69.0446	216	C3H5N2+
72.0441	2	C3H6NO+
81.0446	4	C4H5N2+
83.0239	14	C3H3N2O+
93.0448	3	C5H5N2+
95.0243	4	C4H3N2O+
96.0556	254	C4H6N3+
97.0397	12	C4H5N2O+
108.0557	3	C5H6N3+
109.0271	15	C4H3N3O+
110.0713	3	C5H8N3+
120.0558	2	C6H6N3+
122.0348	4	C5H4N3O+
122.0588	2	C5H6N4+
124.0505	999	C5H6N3O+
137.0822	5	C6H9N4+
142.0611	20	C5H8N3O2+
149.0463	2	C6H5N4O+
181.072	127	C7H9N4O2+
