Mass spectrum: Rubratoxin A; LC-ESI-ITFT; MS2; CE: 40%; R=7500; [M-H]-
Name: Rubratoxin A
Name: 3,13-dihydroxy-2-(1-hydroxyheptyl)-10-[hydroxy-(6-oxo-2,3-dihydropyran-2-yl)methyl]-6,14-dioxatricyclo[10.3.0.04,8]pentadeca-1(12),4(8)-diene-5,7,15-trione
Formula: C26H32O11
Exact mass: 520.19446
SMILES: CCCCCCC(C1C(C2=C(CC(CC3=C1C(=O)OC3O)C(C4CC=CC(=O)O4)O)C(=O)OC2=O)O)O
InChI: InChI=1S/C26H32O11/c1-2-3-4-5-7-15(27)20-18-13(23(31)36-25(18)33)10-12(21(29)16-8-6-9-17(28)35-16)11-14-19(22(20)30)26(34)37-24(14)32/h6,9,12,15-16,20-23,27,29-31H,2-5,7-8,10-11H2,1H3
Instrument: LTQ Orbitrap XL Thermo Scientific
Instrument type: LC-ESI-ITFT
Ms type: MS2
Ion mode: NEGATIVE
Ionization: ESI
Fragmentation mode: HCD
Collision energy: 40 % (nominal)
Resolution: 7500
Column name: Hypersil GOLD C18 1.9 um 100 x 2.1 mm Thermo Fisher Scientific
Retention time: 15.758 min
Base peak: 519.1877
Precursor m/z: 519.1872
Precursor type: [M-H]-
Precursor intensity: 9952376.424805
m/z	relative intensity	assigned
175.0758	41	C11H11O2-
211.1129	47	C15H15O-
229.0867	28	C14H13O3-
229.1235	46	C15H17O2-
245.1187	98	C15H17O3-
263.0932	38	C14H15O5-
273.1131	90	C16H17O4-
281.1915	93	C20H25O-
289.1077	76	C16H17O5-
303.0886	35	C16H15O6-
305.067	65	C15H13O7-
307.2063	90	C22H27O-
317.1029	244	C17H17O6-
323.2025	54	C22H27O2-
325.2179	94	C22H29O2-
333.0991	38	C17H17O7-
343.229	38	C22H31O3-
359.0762	98	C18H15O8-
369.207	168	C23H29O4-
385.202	120	C23H29O5-
395.1914	25	C17H31O10-
403.2138	20	C23H31O6-
411.1823	76	C24H27O6-
413.1977	146	C24H29O6-
429.1914	240	C24H29O7-
431.2077	522	C24H31O7-
447.2028	194	C24H31O8-
475.1971	999	C25H31O9-
519.1875	643	C26H31O11-
