Mass spectrum: Eremofortin B; LC-ESI-ITFT; MS2; CE: 15%; R=7500; [M+H]+
Name: Eremofortin B
Name: 2-hydroxy-3,3a-dimethyl-5-prop-1-en-2-yl-1a,2,3,4,5,7b-hexahydronaphtho[1,2-b]oxiren-6-one
Formula: C15H20O3
Exact mass: 248.1412
SMILES: C=C(C)C1CC2(C)C(C)C(O)C3OC3C2=CC1=O
InChI: InChI=1S/C15H20O3/c1-7(2)9-6-15(4)8(3)12(17)14-13(18-14)10(15)5-11(9)16/h5,8-9,12-14,17H,1,6H2,2-4H3
Instrument: LTQ Orbitrap XL Thermo Scientific
Instrument type: LC-ESI-ITFT
Ms type: MS2
Ion mode: POSITIVE
Ionization: ESI
Fragmentation mode: HCD
Collision energy: 15 % (nominal)
Resolution: 7500
Column name: Hypersil GOLD C18 1.9 um 100 x 2.1 mm Thermo Fisher Scientific
Retention time: 15.142 min
Base peak: 249.1491
Precursor m/z: 249.1485
Precursor type: [M+H]+
Precursor intensity: 11345250.25928
m/z	relative intensity	assigned
107.0855	2	C8H11+
109.065	2	C7H9O+
119.0857	3	C9H11+
121.065	2	C8H9O+
121.1015	1	C9H13+
123.0808	2	C8H11O+
133.1014	3	C10H13+
135.0807	2	C9H11O+
135.117	1	C10H15+
137.0963	1	C9H13O+
145.1013	2	C11H13+
147.0808	6	C10H11O+
147.1173	2	C11H15+
149.059	1	C9H9O2+
149.0964	3	C10H13O+
151.0759	2	C9H11O2+
151.1119	2	C10H15O+
157.1014	1	C12H13+
159.0812	1	C11H11O+
159.1169	2	C12H15+
161.0964	13	C11H13O+
161.133	5	C12H17+
163.0754	2	C10H11O2+
163.1121	11	C11H15O+
171.117	2	C13H15+
173.0962	1	C12H13O+
173.1319	1	C13H17+
175.0756	1	C11H11O2+
175.1117	2	C12H15O+
175.1483	8	C13H19+
177.1281	1	C12H17O+
179.1067	2	C11H15O2+
181.0863	1	C10H13O3+
185.1328	5	C14H17+
187.1115	1	C13H15O+
189.0911	4	C12H13O2+
189.1278	8	C13H17O+
191.1071	7	C12H15O2+
191.1423	1	C13H19O+
193.0867	1	C11H13O3+
193.1231	1	C12H17O2+
201.1271	2	C14H17O+
203.1432	16	C14H19O+
205.1225	1	C13H17O2+
213.1279	4	C15H17O+
221.154	12	C14H21O2+
231.1382	11	C15H19O2+
249.1488	999	C15H21O3+
