Mass spectrum: Fumonisin B3; LC-ESI-ITFT; MS2; CE: 40%; R=7500; [M+H]+
Name: Fumonisin B3
Name: 2-Amino-3,10-dihydroxy-14,15-bis(3,4-dicarboxybutyryloxy)-12,16-dimethylicosane
Name: 2-[2-[19-amino-6-(3,4-dicarboxybutanoyloxy)-11,18-dihydroxy-5,9-dimethylicosan-7-yl]oxy-2-oxoethyl]butanedioic acid
Formula: C34H59NO14
Exact mass: 705.3936
SMILES: CCCCC(C)C(C(CC(C)CC(CCCCCCC(C(C)N)O)O)OC(=O)CC(CC(=O)O)C(=O)O)OC(=O)CC(CC(=O)O)C(=O)O
InChI: InChI=1S/C34H59NO14/c1-5-6-11-21(3)32(49-31(43)19-24(34(46)47)17-29(40)41)27(48-30(42)18-23(33(44)45)16-28(38)39)15-20(2)14-25(36)12-9-7-8-10-13-26(37)22(4)35/h20-27,32,36-37H,5-19,35H2,1-4H3,(H,38,39)(H,40,41)(H,44,45)(H,46,47)
Instrument: LTQ Orbitrap XL Thermo Scientific
Instrument type: LC-ESI-ITFT
Ms type: MS2
Ion mode: POSITIVE
Ionization: ESI
Fragmentation mode: HCD
Collision energy: 40 % (nominal)
Resolution: 7500
Column name: Hypersil GOLD C18 1.9 um 100 x 2.1 mm Thermo Fisher Scientific
Retention time: 22.242 min
Base peak: 706.4018
Precursor m/z: 706.4008
Precursor type: [M+H]+
Precursor intensity: 23140051.16699
m/z	relative intensity	assigned
55.054	3	C4H7+
67.0541	6	C5H7+
69.0698	19	C5H9+
70.065	7	C4H8N+
74.06	39	C3H8NO+
81.0698	27	C6H9+
83.0856	11	C6H11+
85.0283	3	C4H5O2+
93.0698	8	C7H9+
95.0855	40	C7H11+
97.1012	7	C7H13+
105.0701	3	C8H9+
107.0855	17	C8H11+
109.1012	47	C8H13+
113.0232	26	C5H5O3+
119.0854	5	C9H11+
121.101	25	C9H13+
123.1168	37	C9H15+
133.1012	16	C10H13+
135.1169	36	C10H15+
137.1326	19	C10H17+
141.0183	110	C6H5O4+
147.117	18	C11H15+
149.1325	37	C11H17+
151.148	24	C11H19+
159.0288	53	C6H7O5+
161.1325	10	C12H17+
163.148	22	C12H19+
177.1639	15	C13H21+
189.164	12	C14H21+
191.1799	12	C14H23+
199.3929	5	C11H51O+
203.1796	24	C15H23+
205.1942	9	H31NO10+
208.2061	20	C14H26N+
220.2059	25	C15H26N+
226.2166	15	C14H28NO+
234.2211	3	C16H28N+
238.2167	48	C15H28NO+
245.2267	4	C3H35NO10+
256.2271	24	C15H30NO2+
281.2821	5	C4H43NO11+
301.2887	13	C22H37+
318.3154	693	C22H40N+
319.3007	14	C22H39O+
336.3258	999	C22H42NO+
337.3109	5	C22H41O2+
354.3366	237	C22H44NO2+
494.3476	9	C28H48NO6+
512.3592	23	C28H50NO7+
