Mass spectrum: Terbutryn-OH (TENTATIVE); LC-ESI-QFT; MS2; CE: 55%; R=70000; [M+H]+
Name: Terbutryn-OH
Formula: C10H19N5OS
Exact mass: 257.1305
SMILES: C(*)C(*)NC1=NC(=NC(=N1)SC(*))NC(C)(C)C(*)  *=[OH (n=1)& H (n=3)]
Instrument: Q Exactive Plus Orbitrap Thermo Scientific
Instrument type: LC-ESI-QFT
Ms type: MS2
Ion mode: POSITIVE
Ionization: ESI
Fragmentation mode: HCD
Collision energy: 55% (nominal)
Resolution: 70000
Column name: Waters UPLC BEH C18 1.7 um 2.1 mm x 100 mm with pre-column
Retention time: 11.58 min
Precursor m/z: 258.1383
Precursor type: [M+H]+
m/z	relative intensity
52.0305	2
53.0389	4
55.0546	58
58.9826	2
68.0244	999
70.0401	2
71.0604	239
73.0648	12
74.0059	320
76.0088	2
80.0495	2
85.0509	68
91.0324	124
96.0556	143
99.0013	3
102.0373	2
110.0462	36
113.0823	6
116.0277	98
131.0391	2
138.0776	11
144.0592	9
158.0495	9
186.081	4
206.1178	2
