Mass spectrum: Desipramine; LC-ESI-ITFT; MS2; CE: 75%; R=15000; [M+H]+
Name: Desipramine
Name: 3-(5,6-dihydrobenzo[b][1]benzazepin-11-yl)-N-methylpropan-1-amine
Formula: C18H22N2
Exact mass: 266.1783
SMILES: CNCCCN1C2=CC=CC=C2CCC3=CC=CC=C31
InChI: InChI=1S/C18H22N2/c1-19-13-6-14-20-17-9-4-2-7-15(17)11-12-16-8-3-5-10-18(16)20/h2-5,7-10,19H,6,11-14H2,1H3
Instrument: LTQ Orbitrap XL Thermo Scientific
Instrument type: LC-ESI-ITFT
Ms type: MS2
Ion mode: POSITIVE
Ionization: ESI
Fragmentation mode: HCD
Collision energy: 75% (nominal)
Resolution: 15000
Column name: Kinetex Evo C18 2.6 um 50 x 2.1 mm
Retention time: 8.454 min
Base peak: 267.1854
Precursor m/z: 267.1856
Precursor type: [M+H]+
m/z	relative intensity	assigned
57.057	9	C3H7N+
72.0807	999	C4H10N+
91.0542	7	C7H7+
105.0697	4	C8H9+
118.0648	3	C8H8N+
158.0961	2	C11H12N+
167.0853	5	C13H11+
180.081	18	C13H10N+
193.0886	201	C14H11N+
194.0963	22	C14H12N+
195.1042	25	C14H13N+
196.1123	13	C14H14N+
206.0968	7	C15H12N+
207.1046	2	C15H13N+
208.112	185	C15H14N+
220.112	13	C16H14N+
236.1434	5	C17H18N+
