Mass spectrum: Fusarochromanone; LC-ESI-ITFT; MS2; CE: 60%; R=7500; [M+H]+
Name: Fusarochromanone
Name: 5-amino-6-(3-amino-4-hydroxybutanoyl)-2,2-dimethyl-3H-chromen-4-one
Formula: C15H20N2O4
Exact mass: 292.1423
SMILES: CC1(CC(=O)C2=C(O1)C=CC(=C2N)C(=O)CC(CO)N)C
InChI: InChI=1S/C15H20N2O4/c1-15(2)6-11(20)13-12(21-15)4-3-9(14(13)17)10(19)5-8(16)7-18/h3-4,8,18H,5-7,16-17H2,1-2H3
Instrument: LTQ Orbitrap XL Thermo Scientific
Instrument type: LC-ESI-ITFT
Ms type: MS2
Ion mode: POSITIVE
Ionization: ESI
Fragmentation mode: HCD
Collision energy: 60 % (nominal)
Resolution: 7500
Column name: Hypersil GOLD C18 1.9 um 100 x 2.1 mm Thermo Fisher Scientific
Retention time: 10.122 min
Base peak: 293.1491
Precursor m/z: 293.1496
Precursor type: [M+H]+
Precursor intensity: 29005851.85498
m/z	relative intensity	assigned
60.0442	48	C2H6NO+
134.0597	3	C8H8NO+
136.0391	223	C7H6NO2+
162.0183	32	C8H4NO3+
174.0545	88	C10H8NO2+
178.0495	999	C9H8NO3+
192.1014	665	C11H14NO2+
196.0598	11	C9H10NO4+
202.0496	294	C11H8NO3+
216.1016	55	C13H14NO2+
218.0807	91	C12H12NO3+
219.0754	5	C11H11N2O3+
220.06	124	C11H10NO4+
230.1171	35	C14H16NO2+
234.1119	311	C13H16NO3+
258.1117	159	C15H16NO3+
276.1222	9	C15H18NO4+
