Mass spectrum: Asperphenamate; LC-ESI-ITFT; MS2; CE: 15%; R=7500; [M-H]-
Name: Asperphenamate
Name: (2-benzamido-3-phenylpropyl) 2-benzamido-3-phenylpropanoate
Formula: C32H30N2O4
Exact mass: 506.22056
SMILES: C1=CC=C(C=C1)CC(COC(=O)C(CC2=CC=CC=C2)NC(=O)C3=CC=CC=C3)NC(=O)C4=CC=CC=C4
InChI: InChI=1S/C32H30N2O4/c35-30(26-17-9-3-10-18-26)33-28(21-24-13-5-1-6-14-24)23-38-32(37)29(22-25-15-7-2-8-16-25)34-31(36)27-19-11-4-12-20-27/h1-20,28-29H,21-23H2,(H,33,35)(H,34,36)
Instrument: LTQ Orbitrap XL Thermo Scientific
Instrument type: LC-ESI-ITFT
Ms type: MS2
Ion mode: NEGATIVE
Ionization: ESI
Fragmentation mode: HCD
Collision energy: 15 % (nominal)
Resolution: 7500
Column name: Hypersil GOLD C18 1.9 um 100 x 2.1 mm Thermo Fisher Scientific
Retention time: 23.957 min
Base peak: 505.2145
Precursor m/z: 505.2133
Precursor type: [M-H]-
Precursor intensity: 5480214.932617
m/z	relative intensity	assigned
268.0978	999	C16H14NO3-
