Mass spectrum: Isoproturon-desaturation (TENTATIVE); LC-ESI-QFT; MS2; CE: 30%; R=70000; [M+H]+
Name: Isoproturon-desaturation
Formula: C12H16N2O
Exact mass: 204.1255
SMILES: C=C(C)C1=CC=C(C=C1)NC(=O)N(C)C
InChI: InChI=1S/C12H16N2O/c1-9(2)10-5-7-11(8-6-10)13-12(15)14(3)4/h5-8H,1H2,2-4H3,(H,13,15)
Instrument: Q Exactive Plus Orbitrap Thermo Scientific
Instrument type: LC-ESI-QFT
Ms type: MS2
Ion mode: POSITIVE
Ionization: ESI
Fragmentation mode: HCD
Collision energy: 30% (nominal)
Resolution: 70000
Column name: Waters UPLC BEH C18 1.7 um 2.1 mm x 100 mm with pre-column
Retention time: 9.8 min
Precursor m/z: 205.1333
Precursor type: [M+H]+
m/z	relative intensity
55.0546	16
56.0134	5
59.0494	33
69.0336	6
71.0605	7
72.0444	732
73.0648	3
77.0386	3
91.0544	9
92.0495	17
93.0698	3
95.0493	9
104.0496	26
105.07	8
107.0492	37
115.0543	26
116.0497	3
117.0574	19
117.0699	13
118.065	23
120.0445	79
132.0445	999
132.081	38
133.0651	4
133.0891	3
135.0804	11
140.0494	4
142.0652	25
144.0445	11
145.0518	3
160.0758	130
