Mass spectrum: Rubratoxin A; LC-ESI-ITFT; MS2; CE: 60%; R=7500; [M-H]-
Name: Rubratoxin A
Name: 3,13-dihydroxy-2-(1-hydroxyheptyl)-10-[hydroxy-(6-oxo-2,3-dihydropyran-2-yl)methyl]-6,14-dioxatricyclo[10.3.0.04,8]pentadeca-1(12),4(8)-diene-5,7,15-trione
Formula: C26H32O11
Exact mass: 520.19446
SMILES: CCCCCCC(C1C(C2=C(CC(CC3=C1C(=O)OC3O)C(C4CC=CC(=O)O4)O)C(=O)OC2=O)O)O
InChI: InChI=1S/C26H32O11/c1-2-3-4-5-7-15(27)20-18-13(23(31)36-25(18)33)10-12(21(29)16-8-6-9-17(28)35-16)11-14-19(22(20)30)26(34)37-24(14)32/h6,9,12,15-16,20-23,27,29-31H,2-5,7-8,10-11H2,1H3
Instrument: LTQ Orbitrap XL Thermo Scientific
Instrument type: LC-ESI-ITFT
Ms type: MS2
Ion mode: NEGATIVE
Ionization: ESI
Fragmentation mode: HCD
Collision energy: 60 % (nominal)
Resolution: 7500
Column name: Hypersil GOLD C18 1.9 um 100 x 2.1 mm Thermo Fisher Scientific
Retention time: 15.758 min
Base peak: 519.1877
Precursor m/z: 519.1872
Precursor type: [M-H]-
Precursor intensity: 9952376.424805
m/z	relative intensity	assigned
59.014	114	C2H3O2-
65.0398	119	C5H5-
127.113	193	C8H15O-
145.0659	93	C10H9O-
167.108	68	C10H15O2-
175.0765	69	C11H11O2-
185.0971	124	C13H13O-
209.1175	199	C12H17O3-
211.1129	358	C15H15O-
213.0921	186	C14H13O2-
227.1079	164	C15H15O2-
229.0878	94	C14H13O3-
229.1232	216	C15H17O2-
245.1179	245	C15H17O3-
255.1033	168	C16H15O3-
259.098	261	C15H15O4-
263.0923	82	C14H15O5-
271.0977	114	C16H15O4-
273.1135	214	C16H17O4-
275.0933	88	C15H15O5-
281.1913	357	C20H25O-
289.1076	156	C16H17O5-
297.1856	99	C20H25O2-
297.2233	87	C21H29O-
299.2011	116	C20H27O2-
301.1436	116	C18H21O4-
303.087	127	C16H15O6-
305.0659	108	C15H13O7-
307.1693	148	C21H23O2-
307.2064	315	C22H27O-
309.1857	177	C21H25O2-
317.1031	508	C17H17O6-
323.2023	222	C22H27O2-
325.2175	256	C22H29O2-
333.0965	74	C17H17O7-
341.2108	190	C22H29O3-
343.2277	51	C22H31O3-
346.1063	106	C18H18O7-
351.1604	145	C22H23O4-
359.0775	237	C18H15O8-
367.1917	230	C23H27O4-
369.2068	291	C23H29O4-
385.2026	308	C23H29O5-
395.1921	47	C17H31O10-
401.1975	93	C23H29O6-
403.2138	82	C23H31O6-
411.183	46	C24H27O6-
413.1953	336	C24H29O6-
429.193	279	C24H29O7-
431.2083	999	C24H31O7-
447.2019	88	C24H31O8-
475.1971	326	C25H31O9-
