Mass spectrum: Terbutryn-OH-desaturated (TENTATIVE); LC-ESI-QFT; MS2; CE: 30%; R=70000; [M+H]+
Name: Terbutryn-OH-desaturated
Formula: C10H17N5OS
Exact mass: 255.1145
SMILES: C(*)=C(*)NC1=NC(=NC(=N1)SC(*))NC(C)(C)C(*)  *=[OH (n=1)& H (n=3)]
Instrument: Q Exactive Plus Orbitrap Thermo Scientific
Instrument type: LC-ESI-QFT
Ms type: MS2
Ion mode: POSITIVE
Ionization: ESI
Fragmentation mode: HCD
Collision energy: 30% (nominal)
Resolution: 70000
Column name: Waters UPLC BEH C18 1.7 um 2.1 mm x 100 mm with pre-column
Retention time: 13.03 min
Precursor m/z: 256.1223
Precursor type: [M+H]+
m/z	relative intensity
55.0294	45
56.0498	263
57.045	136
57.0702	190
58.9952	71
61.0108	60
68.0244	79
69.0084	49
69.0448	405
70.0288	73
70.0399	48
74.0059	56
81.0448	44
81.0699	33
82.0399	52
83.0492	22
84.9854	33
85.0396	467
85.0508	72
86.0059	295
86.0349	433
86.0712	41
88.0392	24
89.0168	119
90.0372	30
91.0324	555
93.0698	34
94.04	46
95.024	58
95.0854	20
97.0508	107
98.0713	381
99.0664	54
102.012	20
105.0335	45
105.0701	21
109.051	143
109.0648	35
110.0349	506
111.0012	124
111.0301	161
112.0506	999
114.0121	78
114.9959	24
115.0324	67
116.0277	127
123.0665	120
124.0616	42
125.0696	36
127.0613	77
128.0278	22
130.0434	25
131.0389	22
136.0619	279
137.0698	73
138.0773	33
140.0277	357
141.0228	35
143.0387	27
152.0568	310
153.0228	93
154.0724	449
157.0177	169
158.0384	74
167.0259	22
168.01	27
168.0342	28
171.0573	138
182.0496	305
183.0336	32
184.0288	62
185.0365	205
200.0601	992
