Mass spectrum: Tetracycline; LC-ESI-ITFT; MS2; CE: 75%; R=15000; [M+H]+
Name: Tetracycline
Name: 2-[amino(hydroxy)methylidene]-4-(dimethylamino)-6,10,11,12a-tetrahydroxy-6-methyl-4,4a,5,5a-tetrahydrotetracene-1,3,12-trione
Formula: C22H24N2O8
Exact mass: 444.1533
SMILES: [H][C@@]12C[C@@]3([H])C(=C(O)[C@]1(O)C(=O)C(C(N)=O)=C(O)[C@H]2N(C)C)C(=O)C1=C(C=CC=C1O)[C@@]3(C)O
InChI: InChI=1S/C22H24N2O8/c1-21(31)8-5-4-6-11(25)12(8)16(26)13-9(21)7-10-15(24(2)3)17(27)14(20(23)30)19(29)22(10,32)18(13)28/h4-6,9-10,15,25,27-28,31-32H,7H2,1-3H3,(H2,23,30)/t9-,10-,15-,21+,22-/m0/s1
Instrument: LTQ Orbitrap XL Thermo Scientific
Instrument type: LC-ESI-ITFT
Ms type: MS2
Ion mode: POSITIVE
Ionization: ESI
Fragmentation mode: HCD
Collision energy: 75% (nominal)
Resolution: 15000
Column name: Kinetex Evo C18 2.6 um 50 x 2.1 mm
Retention time: 2.884 min
Base peak: 300.1475
Precursor m/z: 445.1605
Precursor type: [M+H]+
m/z	relative intensity	assigned
58.065	37	C3H8N+
70.065	75	C4H8N+
86.0601	86	C4H8NO+
98.0601	999	C5H8NO+
126.0549	56	C6H8NO2+
131.0489	20	C9H7O+
152.0618	14	C12H8+
154.0502	61	C7H8NO3+
167.0855	21	C13H11+
185.0964	14	C13H13O+
187.0757	38	C12H11O2+
195.0806	153	C14H11O+
196.0524	36	C13H8O2+
197.0597	28	C13H9O2+
198.0673	44	C13H10O2+
207.0813	36	C15H11O+
211.0755	73	C14H11O2+
213.0912	82	C14H13O2+
221.0596	14	C15H9O2+
223.0755	193	C15H11O2+
224.0471	79	C14H8O3+
226.0626	674	C14H10O3+
235.0754	79	C16H11O2+
236.0469	47	C15H8O3+
238.063	56	C15H10O3+
239.0706	90	C15H11O3+
241.0861	351	C15H13O3+
242.0574	172	C14H10O4+
247.075	28	C17H11O2+
250.0627	26	C16H10O3+
251.0707	106	C16H11O3+
252.0419	426	C15H8O4+
254.0576	244	C15H10O4+
263.0706	66	C17H11O3+
267.0655	218	C16H11O4+
269.081	194	C16H13O4+
276.042	30	C17H8O4+
278.0575	127	C17H10O4+
