Mass spectrum: Fumigaclavine A; LC-ESI-ITFT; MS2; CE: 40%; R=7500; [M+H]+
Name: Fumigaclavine A
Name: Isofumigaclavine A
Name: (7,9-dimethyl-6,6a,8,9,10,10a-hexahydro-4H-indolo[4,3-fg]quinolin-10-yl) acetate
Formula: C18H22N2O2
Exact mass: 298.1681
SMILES: CC1CN(C2CC3=CNC4=CC=CC(=C34)C2C1OC(=O)C)C
InChI: InChI=1S/C18H22N2O2/c1-10-9-20(3)15-7-12-8-19-14-6-4-5-13(16(12)14)17(15)18(10)22-11(2)21/h4-6,8,10,15,17-19H,7,9H2,1-3H3
Instrument: LTQ Orbitrap XL Thermo Scientific
Instrument type: LC-ESI-ITFT
Ms type: MS2
Ion mode: POSITIVE
Ionization: ESI
Fragmentation mode: HCD
Collision energy: 40 % (nominal)
Resolution: 7500
Column name: Hypersil GOLD C18 1.9 um 100 x 2.1 mm Thermo Fisher Scientific
Retention time: 8.566 min
Base peak: 299.175
Precursor m/z: 299.1754
Precursor type: [M+H]+
Precursor intensity: 35977347.03613
m/z	relative intensity	assigned
154.0648	2	C11H8N+
167.0724	1	C12H9N+
168.0803	9	C12H10N+
182.0968	1	C13H12N+
183.0915	7	C12H11N2+
193.0886	1	C14H11N+
194.0961	1	C14H12N+
196.1116	18	C14H14N+
197.1068	1	C13H13N2+
198.1271	4	C14H16N+
208.1117	55	C15H14N+
239.1537	73	C16H19N2+
299.1746	999	C18H23N2O2+
