Mass spectrum: Metazachlor-diOH (TENTATIVE); LC-ESI-QFT; MS2; CE: 55%; R=70000; [M+H]+
Name: Metazachlor-diOH
Formula: C14H16ClN3O3
Exact mass: 309.087
SMILES: C(*)C1=C(C(=C(*)C(*)=C(*)1)C(*))N(C(*)N2C(*)=C(*)C(*)=N2)C(=O)C(*)Cl *=[OH (n=2) & H (n=8)]
Instrument: Q Exactive Plus Orbitrap Thermo Scientific
Instrument type: LC-ESI-QFT
Ms type: MS2
Ion mode: POSITIVE
Ionization: ESI
Fragmentation mode: HCD
Collision energy: 55% (nominal)
Resolution: 70000
Column name: Waters UPLC BEH C18 1.7 um 2.1 mm x 100 mm with pre-column
Retention time: 7.99 min
Precursor m/z: 310.0948
Precursor type: [M+H]+
m/z	relative intensity
53.039	10
65.0387	54
69.0448	999
76.9788	264
77.0386	10
79.0542	20
90.0105	10
90.0468	6
91.0542	625
92.0494	12
93.0573	12
93.0699	12
95.0491	33
103.0542	242
104.0494	8
105.0448	13
105.07	21
116.0495	75
117.0573	112
118.0651	718
119.0493	24
119.061	7
119.073	14
120.0807	68
128.0495	12
130.0652	338
131.073	82
133.0523	29
139.0312	40
145.0525	12
146.0601	11
148.0757	12
158.06	32
159.0679	67
164.0263	20
194.0368	146
194.0447	6
212.0471	47
