Mass spectrum: Cyclopenin; LC-ESI-ITFT; MS2; CE: 20%; R=7500; [M+H]+
Name: Cyclopenin
Name: 4-methyl-3`-phenylspiro[1H-1,4-benzodiazepine-3,2`-oxirane]-2,5-dione
Formula: C17H14N2O3
Exact mass: 294.1004
SMILES: CN1C(=O)C2=CC=CC=C2NC(=O)C13C(O3)C4=CC=CC=C4
InChI: InChI=1S/C17H14N2O3/c1-19-15(20)12-9-5-6-10-13(12)18-16(21)17(19)14(22-17)11-7-3-2-4-8-11/h2-10,14H,1H3,(H,18,21)
Instrument: LTQ Orbitrap XL Thermo Scientific
Instrument type: LC-ESI-ITFT
Ms type: MS2
Ion mode: POSITIVE
Ionization: ESI
Fragmentation mode: HCD
Collision energy: 20 % (nominal)
Resolution: 7500
Column name: Hypersil GOLD C18 1.9 um 100 x 2.1 mm Thermo Fisher Scientific
Retention time: 15.046 min
Base peak: 295.1086
Precursor m/z: 295.1077
Precursor type: [M+H]+
Precursor intensity: 25511948.48047
m/z	relative intensity	assigned
105.0333	2	C7H5O+
118.0655	2	C8H8N+
120.0445	104	C7H6NO+
120.0811	12	C8H10N+
132.0444	11	C8H6NO+
132.0809	9	C9H10N+
146.0239	136	C8H4NO2+
161.0709	6	C9H9N2O+
177.0659	999	C9H9N2O2+
182.0965	19	C13H12N+
208.0759	12	C14H10NO+
210.0916	37	C14H12NO+
223.1231	17	C15H15N2+
236.0709	77	C15H10NO2+
238.0864	20	C15H12NO2+
239.1181	60	C15H15N2O+
249.1025	3	C16H13N2O+
251.1181	22	C16H15N2O+
264.0658	81	C16H10NO3+
267.1129	35	C16H15N2O2+
277.0974	4	C17H13N2O2+
295.1079	611	C17H15N2O3+
