Mass spectrum: Eremofortin A; LC-ESI-ITFT; MS2; CE: 60%; R=7500; [M+H]+
Name: Eremofortin A
Name: (3,3`,3`,3a-tetramethyl-6-oxospiro[2,3,4,7b-tetrahydro-1aH-naphtho[1,2-b]oxirene-5,2`-oxirane]-2-yl) acetate
Formula: C17H22O5
Exact mass: 306.1467
SMILES: CC1C(C2C(O2)C3=CC(=O)C4(CC13C)C(O4)(C)C)OC(=O)C
InChI: InChI=1S/C17H22O5/c1-8-12(20-9(2)18)14-13(21-14)10-6-11(19)17(7-16(8,10)5)15(3,4)22-17/h6,8,12-14H,7H2,1-5H3
Instrument: LTQ Orbitrap XL Thermo Scientific
Instrument type: LC-ESI-ITFT
Ms type: MS2
Ion mode: POSITIVE
Ionization: ESI
Fragmentation mode: HCD
Collision energy: 60 % (nominal)
Resolution: 7500
Column name: Hypersil GOLD C18 1.9 um 100 x 2.1 mm Thermo Fisher Scientific
Retention time: 15.832 min
Base peak: 307.1542
Precursor m/z: 307.154
Precursor type: [M+H]+
Precursor intensity: 10341978.54785
m/z	relative intensity	assigned
107.0853	65	C8H11+
119.085	85	C9H11+
121.0648	100	C8H9O+
121.1015	78	C9H13+
131.0854	265	C10H11+
133.1014	116	C10H13+
135.0803	235	C9H11O+
143.0857	49	C11H11+
145.1012	134	C11H13+
149.0959	473	C10H13O+
151.0746	33	C9H11O2+
159.0802	193	C11H11O+
159.1167	325	C12H15+
161.0958	309	C11H13O+
163.0755	53	C10H11O2+
172.0884	121	C12H12O+
173.0962	85	C12H13O+
173.1318	275	C13H17+
175.1125	59	C12H15O+
176.1204	66	C12H16O+
177.0907	999	C11H13O2+
177.1276	108	C12H17O+
183.117	71	C14H15+
186.1038	158	C13H14O+
187.1115	322	C13H15O+
189.0913	69	C12H13O2+
191.1432	100	C13H19O+
201.1272	434	C14H17O+
205.1222	232	C13H17O2+
211.1115	50	C15H15O+
219.1373	93	C14H19O2+
222.1245	67	C13H18O3+
229.1224	183	C15H17O2+
247.1325	106	C15H19O3+
