Mass spectrum: Cyclizine; LC-ESI-ITFT; MS2; CE: 125%; R=15000; [M+H]+
Name: Cyclizine
Name: 1-benzhydryl-4-methylpiperazine
Formula: C18H22N2
Exact mass: 266.1783
SMILES: CN1CCN(CC1)C(C2=CC=CC=C2)C3=CC=CC=C3
InChI: InChI=1S/C18H22N2/c1-19-12-14-20(15-13-19)18(16-8-4-2-5-9-16)17-10-6-3-7-11-17/h2-11,18H,12-15H2,1H3
Instrument: LTQ Orbitrap XL Thermo Scientific
Instrument type: LC-ESI-ITFT
Ms type: MS2
Ion mode: POSITIVE
Ionization: ESI
Fragmentation mode: HCD
Collision energy: 125% (nominal)
Resolution: 15000
Column name: Kinetex Evo C18 2.6 um 50 x 2.1 mm
Retention time: 7.469 min
Base peak: 267.1858
Precursor m/z: 267.1856
Precursor type: [M+H]+
m/z	relative intensity	assigned
65.0384	11	C5H5+
89.0386	3	C7H5+
91.0542	5	C7H7+
115.0542	95	C9H7+
127.0545	4	C10H7+
128.062	138	C10H8+
139.0543	15	C11H7+
141.0698	89	C11H9+
150.0463	4	C12H6+
151.0543	32	C12H7+
152.062	763	C12H8+
155.0602	9	C10H7N2+
164.0621	36	C13H8+
165.0699	999	C13H9+
166.0774	117	C13H10+
167.0852	24	C13H11+
169.0646	15	C12H9O+
179.0604	19	C12H7N2+
