Mass spectrum: Picolinafen-OH-O-dealkylation (TENTATIVE); LC-ESI-QFT; MS2; CE: 30%; R=70000; [M+H]+
Name: Picolinafen-OH-O-dealkylation
Name: 6-[3-(trifluoromethyl)phenoxy]pyridine-2-carboxylic acid
Formula: C13H8F3NO3
Exact mass: 283.0444
SMILES: C1=CC(=CC(=C1)OC2=CC=CC(=N2)C(=O)O)C(F)(F)F
InChI: InChI=1S/C13H8F3NO3/c14-13(15,16)8-3-1-4-9(7-8)20-11-6-2-5-10(17-11)12(18)19/h1-7H,(H,18,19)
Instrument: Q Exactive Plus Orbitrap Thermo Scientific
Instrument type: LC-ESI-QFT
Ms type: MS2
Ion mode: POSITIVE
Ionization: ESI
Fragmentation mode: HCD
Collision energy: 30% (nominal)
Resolution: 70000
Column name: Waters UPLC BEH C18 1.7 um 2.1 mm x 100 mm with pre-column
Retention time: 13.93 min
Precursor m/z: 284.0522
Precursor type: [M+H]+
m/z	relative intensity
53.0025	1
67.9892	2
73.0084	7
94.0289	2
101.0197	4
141.0573	2
143.03	2
145.0259	34
163.0365	9
166.0464	2
173.0322	52
183.0417	16
188.0505	6
190.0462	32
210.0525	45
218.0413	14
236.0519	21
238.0473	999
256.0579	580
