Mass spectrum: Phenazone; LC-ESI-ITFT; MS2; CE: 50%; R=7500; [M+H]+
Name: Phenazone
Name: 1,5-Dimethyl-2-phenyl-1,2-dihydro-3H-pyrazol-3-one
Formula: C11H12N2O
Exact mass: 188.095
SMILES: CN1N(C(=O)C=C1C)C1=CC=CC=C1
InChI: InChI=1S/C11H12N2O/c1-9-8-11(14)13(12(9)2)10-6-4-3-5-7-10/h3-8H,1-2H3
Instrument: LTQ Orbitrap XL Thermo Fisher Scientific
Instrument type: LC-ESI-ITFT
Ms type: MS2
Ion mode: POSITIVE
Ionization: ESI
Fragmentation mode: HCD
Collision energy: 50% (nominal)
Resolution: 7500
Column name: Hypersil GOLD C18 1.9 um 100 x 2.1 mm Thermo Fisher Scientific
Precursor m/z: 189.1023
Precursor type: [M+H]+
m/z	relative intensity
56.0493	4
58.065	5
70.0648	1
91.0541	2
96.0682	5
98.06	1
104.0496	9
106.0653	3
111.0554	1
117.0701	2
118.0651	7
120.0809	7
130.0652	9
131.073	15
132.0808	7
133.0759	2
134.0963	1
144.081	15
145.0648	5
146.084	15
147.0917	26
148.076	2
149.0708	1
161.1074	34
174.0789	15
189.1023	999
