Mass spectrum: Sulfamoxole; LC-ESI-ITFT; MS2; CE: 65%; R=15000; [M+H]+
Name: Sulfamoxole
Name: 4-amino-N-(4,5-dimethyl-1,3-oxazol-2-yl)benzenesulfonamide
Formula: C11H13N3O3S
Exact mass: 267.0678
SMILES: CC1=C(OC(=N1)NS(=O)(=O)C2=CC=C(C=C2)N)C
InChI: InChI=1S/C11H13N3O3S/c1-7-8(2)17-11(13-7)14-18(15,16)10-5-3-9(12)4-6-10/h3-6H,12H2,1-2H3,(H,13,14)
Instrument: LTQ Orbitrap XL Thermo Scientific
Instrument type: LC-ESI-ITFT
Ms type: MS2
Ion mode: POSITIVE
Ionization: ESI
Fragmentation mode: CID
Collision energy: 65% (nominal)
Resolution: 15000
Column name: Kinetex Evo C18 2.6 um 50 x 2.1 mm
Retention time: 3.950 min
Base peak: 268.0749
Precursor m/z: 268.075
Precursor type: [M+H]+
m/z	relative intensity	assigned
65.0384	4	C5H5+
70.0649	1	C4H8N+
80.0493	2	C5H6N+
92.0496	93	C6H6N+
94.0652	1	C6H8N+
108.0445	219	C6H6NO+
110.0598	1	C6H8NO+
111.0554	44	C5H7N2O+
112.022	1	C5H6NS+
112.0632	13	C5H8N2O+
113.071	144	C5H9N2O+
129.0658	2	C5H9N2O2+
140.0166	461	C6H6NOS+
156.0115	999	C6H6NO2S+
158.027	14	C6H8NO2S+
161.1074	10	C10H13N2+
162.0915	2	C10H12NO+
168.089	1	C8H12N2O2+
175.0173	16	C5H7N2O3S+
204.1133	6	C11H14N3O+
233.0382	1	C11H9N2O2S+
