Mass spectrum: Butyrolactone II; LC-ESI-ITFT; MS2; CE: 30%; R=7500; [M+H]+
Name: Butyrolactone II
Name: methyl 4-hydroxy-3-(4-hydroxyphenyl)-2-[(4-hydroxyphenyl)methyl]-5-oxofuran-2-carboxylate
Formula: C19H16O7
Exact mass: 356.0896
SMILES: COC(=O)C1(C(=C(C(=O)O1)O)C2=CC=C(C=C2)O)CC3=CC=C(C=C3)O
InChI: InChI=1S/C19H16O7/c1-25-18(24)19(10-11-2-6-13(20)7-3-11)15(16(22)17(23)26-19)12-4-8-14(21)9-5-12/h2-9,20-22H,10H2,1H3
Instrument: LTQ Orbitrap XL Thermo Scientific
Instrument type: LC-ESI-ITFT
Ms type: MS2
Ion mode: POSITIVE
Ionization: ESI
Fragmentation mode: HCD
Collision energy: 30 % (nominal)
Resolution: 7500
Column name: Hypersil GOLD C18 1.9 um 100 x 2.1 mm Thermo Fisher Scientific
Retention time: 15.733 min
Base peak: 357.0985
Precursor m/z: 357.0969
Precursor type: [M+H]+
Precursor intensity: 8753816.033447
m/z	relative intensity	assigned
107.0494	63	C7H7O+
121.0287	103	C7H5O2+
131.0497	29	C9H7O+
159.0445	147	C10H7O2+
175.0395	27	C10H7O3+
185.0238	9	C11H5O3+
187.0395	31	C11H7O3+
203.0344	461	C11H7O4+
217.0499	63	C12H9O4+
219.0293	42	C11H7O5+
219.0804	7	C16H11O+
223.076	75	C15H11O2+
224.0836	157	C15H12O2+
225.0915	39	C15H13O2+
231.0294	44	C12H7O5+
233.0971	22	C17H13O+
235.076	207	C16H11O2+
251.0708	999	C16H11O3+
252.0788	93	C16H12O3+
253.0863	121	C16H13O3+
263.0709	257	C17H11O3+
269.0812	13	C16H13O4+
277.087	29	C18H13O3+
279.0659	419	C17H11O4+
281.0817	35	C17H13O4+
289.0493	21	C18H9O4+
297.0764	661	C17H13O5+
307.0611	63	C18H11O5+
311.0919	33	C18H15O5+
325.0706	26	C18H13O6+
