Mass spectrum: Etofylline; LC-ESI-QTOF; MS2; CE: 15 eV; R=3600; [M+H]+
Name: Etofylline
Name: 7-(2-Hydroxyethyl)-1,3-dimethyl-3,7-dihydro-1H-purine-2,6-dione
Formula: C9H12N4O3
Exact mass: 224.0909
SMILES: CN1C2=C(N(CCO)C=N2)C(=O)N(C)C1=O
InChI: InChI=1S/C9H12N4O3/c1-11-7-6(8(15)12(2)9(11)16)13(3-4-14)5-10-7/h5,14H,3-4H2,1-2H3
Instrument: 6602 QTOF Agilent
Instrument type: LC-ESI-QTOF
Ms type: MS2
Ion mode: POSITIVE
Ionization: ESI
Fragmentation mode: CID
Collision energy: 15 eV
Resolution: 3600
Precursor m/z: 225.0983
Precursor type: [M+H]+
m/z	relative intensity
54.029	3
57.0479	10
62.9796	11
67.0293	40
68.045	31
69.0406	226
72.0421	186
80.0551	16
81.0383	20
92.0415	28
94.0395	7
95.0539	33
96.0504	141
97.0326	12
107.0552	13
109.0241	14
110.0633	15
113.0648	68
118.9926	11
119.051	35
120.0483	31
121.0323	30
122.0676	20
124.0449	820
125.0511	14
126.056	17
134.0602	12
140.0766	45
148.074	20
150.0606	46
164.0984	23
168.0714	84
178.1662	16
179.055	14
181.0652	999
182.0654	35
207.075	70
209.0154	19
225.0983	388
