Mass spectrum: Altenuene; LC-ESI-ITFT; MS2; CE: 60%; R=7500; [M+H]+
Name: Altenuene
Name: 6H-Dibenzo[b,d]pyran-6-one, 2,3,4,4a-tetrahydro-2,3,7-trihydroxy-9-methoxy-4a-methyl-, (2R,3R,4aR)-rel-
Name: 2,3,7-trihydroxy-9-methoxy-4a-methyl-3,4-dihydro-2H-benzo[c]chromen-6-one
Formula: C15H16O6
Exact mass: 292.0947
SMILES: CC12CC(C(C=C1C3=C(C(=CC(=C3)OC)O)C(=O)O2)O)O
InChI: InChI=1S/C15H16O6/c1-15-6-12(18)10(16)5-9(15)8-3-7(20-2)4-11(17)13(8)14(19)21-15/h3-5,10,12,16-18H,6H2,1-2H3
Instrument: LTQ Orbitrap XL Thermo Scientific
Instrument type: LC-ESI-ITFT
Ms type: MS2
Ion mode: POSITIVE
Ionization: ESI
Fragmentation mode: HCD
Collision energy: 60 % (nominal)
Resolution: 7500
Column name: Hypersil GOLD C18 1.9 um 100 x 2.1 mm Thermo Fisher Scientific
Retention time: 15.043 min
Base peak: 293.1022
Precursor m/z: 293.102
Precursor type: [M+H]+
Precursor intensity: 12654529.8916
m/z	relative intensity	assigned
157.0646	58	C11H9O+
159.0803	49	C11H11O+
169.0648	531	C12H9O+
170.0726	100	C12H10O+
171.0436	59	C11H7O2+
171.0805	132	C12H11O+
173.0961	88	C12H13O+
177.0917	27	C11H13O2+
179.034	51	C9H7O4+
180.0569	72	C13H8O+
181.0649	123	C13H9O+
183.0806	210	C13H11O+
185.0953	24	C13H13O+
186.0677	132	C12H10O2+
187.0754	137	C12H11O2+
188.0831	69	C12H12O2+
189.0913	31	C12H13O2+
190.063	19	C11H10O3+
191.1069	117	C12H15O2+
195.0804	118	C14H11O+
196.052	116	C13H8O2+
197.0598	485	C13H9O2+
198.0676	435	C13H10O2+
201.0911	999	C13H13O2+
203.0706	86	C12H11O3+
203.1061	39	C13H15O2+
205.0863	30	C12H13O3+
211.0756	967	C14H11O2+
213.091	151	C14H13O2+
214.0626	269	C13H10O3+
215.0702	128	C13H11O3+
219.1024	27	C13H15O3+
224.0465	67	C14H8O3+
225.0547	180	C14H9O3+
229.086	865	C14H13O3+
231.1011	83	C14H15O3+
239.0702	944	C15H11O3+
242.0574	221	C14H10O4+
257.0808	972	C15H13O4+
