Mass spectrum: Aspterric acid; LC-ESI-ITFT; MS2; CE: 30%; R=7500; [M+H]+
Name: Aspterric acid
Name: (1S,5S,8R,9R)-8-hydroxy-4-propan-2-ylidene-10-oxatricyclo[7.2.1.01,5]dodecane-8-carboxylic acid
Formula: C15H22O4
Exact mass: 266.1518
SMILES: OC([C@]1(O)[C@@H](C2)OC[C@]2(CC/C3=C(C)/C)[C@@]3([H])CC1)=O
InChI: InChI=1S/C15H22O4/c1-9(2)10-3-5-14-7-12(19-8-14)15(18,13(16)17)6-4-11(10)14/h11-12,18H,3-8H2,1-2H3,(H,16,17)/t11-,12+,14+,15+/m0/s1
Instrument: LTQ Orbitrap XL Thermo Scientific
Instrument type: LC-ESI-ITFT
Ms type: MS2
Ion mode: POSITIVE
Ionization: ESI
Fragmentation mode: HCD
Collision energy: 30 % (nominal)
Resolution: 7500
Column name: Hypersil GOLD C18 1.9 um 100 x 2.1 mm Thermo Fisher Scientific
Retention time: 20.111 min
Base peak: 267.1597
Precursor m/z: 267.1591
Precursor type: [M+H]+
Precursor intensity: 10181257.6792
m/z	relative intensity	assigned
81.0699	71	C6H9+
105.0699	367	C8H9+
117.0699	948	C9H9+
119.0855	834	C9H11+
121.1013	281	C9H13+
131.0855	694	C10H11+
133.1012	637	C10H13+
143.0857	642	C11H11+
145.1013	361	C11H13+
147.1167	502	C11H15+
159.1169	501	C12H15+
161.1329	243	C12H17+
173.1324	266	C13H17+
175.1482	999	C13H19+
185.1327	767	C14H17+
203.1429	701	C14H19O+
