Mass spectrum: Antipyrine; LC-ESI-ITFT; MS2; CE: 125%; R=15000; [M+H]+
Name: Antipyrine
Name: 1,5-dimethyl-2-phenylpyrazol-3-one
Formula: C11H12N2O
Exact mass: 188.0950
SMILES: CC1=CC(=O)N(N1C)C2=CC=CC=C2
InChI: InChI=1S/C11H12N2O/c1-9-8-11(14)13(12(9)2)10-6-4-3-5-7-10/h3-8H,1-2H3
Instrument: LTQ Orbitrap XL Thermo Scientific
Instrument type: LC-ESI-ITFT
Ms type: MS2
Ion mode: POSITIVE
Ionization: ESI
Fragmentation mode: HCD
Collision energy: 125% (nominal)
Resolution: 15000
Column name: Kinetex Evo C18 2.6 um 50 x 2.1 mm
Retention time: 5.710 min
Base peak: 189.1023
Precursor m/z: 189.1022
Precursor type: [M+H]+
m/z	relative intensity	assigned
54.0336	13	C3H4N+
55.0176	16	C3H3O+
55.0414	12	C3H5N+
56.0492	999	C3H6N+
58.0649	239	C3H8N+
65.0384	212	C5H5+
67.0178	6	C4H3O+
68.0493	19	C4H6N+
69.0572	19	C4H7N+
77.0385	811	C6H5+
78.0464	63	C6H6+
79.0542	152	C6H7+
80.0494	17	C5H6N+
81.0448	59	C4H5N2+
82.0287	12	C4H4NO+
83.0606	7	C4H7N2+
89.0386	11	C7H5+
90.0464	25	C7H6+
91.0543	212	C7H7+
92.0496	48	C6H6N+
93.0574	37	C6H7N+
93.0699	4	C7H9+
94.0651	33	C6H8N+
95.0492	189	C6H7O+
95.0604	66	C5H7N2+
96.0445	8	C5H6NO+
96.0682	26	C5H8N2+
98.0601	83	C5H8NO+
102.0464	40	C8H6+
103.0543	141	C8H7+
104.0495	359	C7H6N+
105.0448	558	C6H5N2+
106.0651	438	C7H8N+
107.0604	7	C6H7N2+
115.0543	189	C9H7+
116.0495	13	C8H6N+
116.062	13	C9H8+
117.0574	113	C8H7N+
117.0699	75	C9H9+
118.0652	112	C8H8N+
119.0605	7	C7H7N2+
119.0731	8	C8H9N+
120.0808	39	C8H10N+
128.0496	37	C9H6N+
129.0573	59	C9H7N+
130.0652	251	C9H8N+
131.0604	197	C8H7N2+
131.073	45	C9H9N+
132.0443	12	C8H6NO+
132.0682	99	C8H8N2+
132.0808	17	C9H10N+
133.0519	18	C8H7NO+
134.0475	9	C7H6N2O+
143.073	18	C10H9N+
144.0809	42	C10H10N+
145.076	114	C9H9N2+
146.06	13	C9H8NO+
146.0837	20	C9H10N2+
147.0917	47	C9H11N2+
155.0608	8	C10H7N2+
157.0522	6	C10H7NO+
159.0556	7	C9H7N2O+
159.0912	6	C10H11N2+
173.0709	11	C10H9N2O+
174.0785	5	C10H10N2O+
