Mass spectrum: Terbutryn-OH (TENTATIVE); LC-ESI-QFT; MS2; CE: 55%; R=70000; [M+H]+
Name: Terbutryn-OH
Formula: C10H19N5OS
Exact mass: 257.1306
SMILES: C(*)C(*)NC1=NC(=NC(=N1)SC(*))NC(C)(C)C(*)  *=[OH (n=1)& H (n=3)]
Instrument: Q Exactive Plus Orbitrap Thermo Scientific
Instrument type: LC-ESI-QFT
Ms type: MS2
Ion mode: POSITIVE
Ionization: ESI
Fragmentation mode: HCD
Collision energy: 55% (nominal)
Resolution: 70000
Column name: Waters UPLC BEH C18 1.7 um 2.1 mm x 100 mm with pre-column
Retention time: 11.82 min
Precursor m/z: 258.1384
Precursor type: [M+H]+
m/z	relative intensity
53.0389	124
55.0545	214
67.0544	187
68.0245	999
71.0605	244
74.0059	373
79.0542	283
85.0508	145
91.0324	130
91.0542	114
93.0698	103
95.0489	127
96.0555	162
147.0813	138
