Mass spectrum: Rugulosin; LC-ESI-ITFT; MS2; CE: 50%; R=7500; [M+H]+
Name: Rugulosin
Name: 8,10,14,23,25,28-hexahydroxy-6,21-dimethyloctacyclo[14.11.1.02,11.02,15.04,9.013,17.017,26.019,24]octacosa-4(9),5,7,10,19(24),20,22,25-octaene-3,12,18,27-tetrone
Formula: C30H22O10
Exact mass: 542.1213
SMILES: CC1=CC2=C(C(=C1)O)C(=C3C(=O)C4C(C5C3(C2=O)C6C(C5C47C(=C(C8=C(C7=O)C=C(C=C8O)C)O)C6=O)O)O)O
InChI: InChI=1S/C30H22O10/c1-7-3-9-13(11(31)5-7)21(33)17-25(37)20-23(35)15-16-24(36)19(29(15,17)27(9)39)26(38)18-22(34)14-10(28(40)30(16,18)20)4-8(2)6-12(14)32/h3-6,15-16,19-20,23-24,31-36H,1-2H3
Instrument: LTQ Orbitrap XL Thermo Scientific
Instrument type: LC-ESI-ITFT
Ms type: MS2
Ion mode: POSITIVE
Ionization: ESI
Fragmentation mode: HCD
Collision energy: 50 % (nominal)
Resolution: 7500
Column name: Hypersil GOLD C18 1.9 um 100 x 2.1 mm Thermo Fisher Scientific
Retention time: 22.389 min
Base peak: 543.1288
Precursor m/z: 543.1286
Precursor type: [M+H]+
Precursor intensity: 2295000.393555
m/z	relative intensity	assigned
201.0756	19	C9H13O5+
201.1646	21	C15H21+
213.0551	84	C13H9O3+
217.0502	29	C12H9O4+
227.071	96	C14H11O3+
255.0654	999	C15H11O4+
256.0731	66	C15H12O4+
258.0532	66	C14H10O5+
271.0612	57	C15H11O5+
273.076	286	C15H13O5+
