Mass spectrum: Gliotoxin; LC-ESI-ITFT; MS2; CE: 50%; R=7500; [M-H]-
Name: Gliotoxin
Name: Aspergillin
Name: 7-hydroxy-11-(hydroxymethyl)-15-methyl-12,13-dithia-9,15-diazatetracyclo[9.2.2.01,9.03,8]pentadeca-3,5-diene-10,14-dione
Formula: C13H14N2O4S2
Exact mass: 326.03950
SMILES: CN1C(=O)C23CC4=CC=CC(C4N2C(=O)C1(SS3)CO)O
InChI: InChI=1S/C13H14N2O4S2/c1-14-10(18)12-5-7-3-2-4-8(17)9(7)15(12)11(19)13(14,6-16)21-20-12/h2-4,8-9,16-17H,5-6H2,1H3
Instrument: LTQ Orbitrap XL Thermo Scientific
Instrument type: LC-ESI-ITFT
Ms type: MS2
Ion mode: NEGATIVE
Ionization: ESI
Fragmentation mode: HCD
Collision energy: 50 % (nominal)
Resolution: 7500
Column name: Hypersil GOLD C18 1.9 um 100 x 2.1 mm Thermo Fisher Scientific
Retention time: 15.226 min
Base peak: 325.0323
Precursor m/z: 325.0322
Precursor type: [M-H]-
Precursor intensity: 2269707.696289
m/z	relative intensity	assigned
116.0503	31	C8H6N-
168.0456	52	C11H6NO-
173.0719	76	C10H9N2O-
199.0514	106	C11H7N2O2-
217.0618	670	C11H9N2O3-
243.0775	999	C13H11N2O3-
261.0878	474	C13H13N2O4-
