Mass spectrum: Atrazine-despropyl-desethyl (TENTATIVE); LC-ESI-QFT; MS2; CE: 30%; R=70000; [M+H]+
Name: Atrazine-despropyl-desethyl
Name: 6-chloro-1,2,3-triazine-4,5-diamine
Formula: C3H4ClN5
Exact mass: 145.0146
SMILES: C1(=NC(=NC(=N1)Cl)N)N
InChI: InChI=1S/C3H4ClN5/c4-1-7-2(5)9-3(6)8-1/h(H4,5,6,7,8,9)
Instrument: Q Exactive Plus Orbitrap Thermo Scientific
Instrument type: LC-ESI-QFT
Ms type: MS2
Ion mode: POSITIVE
Ionization: ESI
Fragmentation mode: HCD
Collision energy: 30% (nominal)
Resolution: 70000
Column name: Waters UPLC BEH C18 1.7 um 2.1 mm x 100 mm with pre-column
Retention time: 9.74 min
Precursor m/z: 146.0224
Precursor type: [M+H]+
m/z	relative intensity
61.9794	417
68.0244	999
79.0058	496
104.0009	537
146.023	131
