Mass spectrum: Sulthiame; LC-ESI-ITFT; MS2; CE: 165%; R=15000; [M+H]+
Name: Sulthiame
Name: 4-(1,1-dioxothiazinan-2-yl)benzenesulfonamide
Formula: C10H14N2O4S2
Exact mass: 290.0395
SMILES: C1CCS(=O)(=O)N(C1)C2=CC=C(C=C2)S(=O)(=O)N
InChI: InChI=1S/C10H14N2O4S2/c11-18(15,16)10-5-3-9(4-6-10)12-7-1-2-8-17(12,13)14/h3-6H,1-2,7-8H2,(H2,11,15,16)
Instrument: LTQ Orbitrap XL Thermo Scientific
Instrument type: LC-ESI-ITFT
Ms type: MS2
Ion mode: POSITIVE
Ionization: ESI
Fragmentation mode: HCD
Collision energy: 165% (nominal)
Resolution: 15000
Column name: Kinetex Evo C18 2.6 um 50 x 2.1 mm
Retention time: 4.272 min
Base peak: 313.0286
Precursor m/z: 291.0468
Precursor type: [M+H]+
m/z	relative intensity	assigned
65.0384	199	C5H5+
75.0228	78	C6H3+
76.0306	999	C6H4+
77.0385	150	C6H5+
78.0463	295	C6H6+
79.0414	79	C5H5N+
89.0386	88	C7H5+
90.0463	142	C7H6+
91.0542	391	C7H7+
104.0494	917	C7H6N+
105.0447	277	C6H5N2+
105.0573	332	C7H7N+
117.0571	246	C8H7N+
