Mass spectrum: Nylidrin; LC-ESI-ITFT; MS2; CE: 175%; R=15000; [M+H]+
Name: Nylidrin
Name: 4-[1-hydroxy-2-(4-phenylbutan-2-ylamino)propyl]phenol
Formula: C19H25NO2
Exact mass: 299.1885
SMILES: CC(CCC1=CC=CC=C1)NC(C)C(C2=CC=C(C=C2)O)O
InChI: InChI=1S/C19H25NO2/c1-14(8-9-16-6-4-3-5-7-16)20-15(2)19(22)17-10-12-18(21)13-11-17/h3-7,10-15,19-22H,8-9H2,1-2H3
Instrument: LTQ Orbitrap XL Thermo Scientific
Instrument type: LC-ESI-ITFT
Ms type: MS2
Ion mode: POSITIVE
Ionization: ESI
Fragmentation mode: HCD
Collision energy: 175% (nominal)
Resolution: 15000
Column name: Kinetex Evo C18 2.6 um 50 x 2.1 mm
Retention time: 6.845 min
Base peak: 300.196
Precursor m/z: 300.1958
Precursor type: [M+H]+
m/z	relative intensity	assigned
63.0227	58	C5H3+
65.0383	918	C5H5+
66.0462	27	C5H6+
77.0384	340	C6H5+
79.054	114	C6H7+
89.0384	62	C7H5+
91.0541	999	C7H7+
94.0415	51	C6H6O+
95.0493	59	C6H7O+
103.0541	72	C8H7+
105.0446	335	C6H5N2+
105.0694	37	C8H9+
107.049	154	C7H7O+
115.0545	33	C9H7+
