Mass spectrum: Dosulepin; LC-ESI-ITFT; MS2; CE: 185%; R=15000; [M+H]+
Name: Dosulepin
Name: Dothiepin
Name: 3-(6H-benzo[c][1]benzothiepin-11-ylidene)-N,N-dimethylpropan-1-amine
Formula: C19H21NS
Exact mass: 295.1395
SMILES: CN(C)CCC=C1C2=CC=CC=C2CSC3=CC=CC=C31
InChI: InChI=1S/C19H21NS/c1-20(2)13-7-11-17-16-9-4-3-8-15(16)14-21-19-12-6-5-10-18(17)19/h3-6,8-12H,7,13-14H2,1-2H3
Instrument: LTQ Orbitrap XL Thermo Scientific
Instrument type: LC-ESI-ITFT
Ms type: MS2
Ion mode: POSITIVE
Ionization: ESI
Fragmentation mode: HCD
Collision energy: 185% (nominal)
Resolution: 15000
Column name: Kinetex Evo C18 2.6 um 50 x 2.1 mm
Retention time: 8.160 min
Base peak: 296.1469
Precursor m/z: 296.1467
Precursor type: [M+H]+
m/z	relative intensity	assigned
65.0383	160	C5H5+
77.0386	70	C6H5+
89.0386	91	C7H5+
91.0542	255	C7H7+
102.0466	61	C8H6+
105.0448	54	C6H5N2+
115.0542	458	C9H7+
128.0618	110	C10H8+
139.0543	168	C11H7+
150.046	118	C12H6+
151.0542	232	C12H7+
152.062	442	C12H8+
155.0607	57	C10H7N2+
163.0541	244	C13H7+
164.0621	129	C13H8+
165.0699	218	C13H9+
169.0654	109	C12H9O+
176.0621	883	C14H8+
177.0701	174	C14H9+
178.0776	189	C14H10+
179.0601	187	C12H7N2+
187.0541	115	C15H7+
188.0623	131	C15H8+
189.0698	775	C15H9+
200.062	999	C16H8+
201.07	581	C16H9+
202.0778	970	C16H10+
213.0699	336	C17H9+
214.0769	80	C17H10+
215.0854	538	C17H11+
219.0263	152	C15H7S+
220.0339	128	C15H8S+
221.0422	262	C15H9S+
232.0345	75	C16H8S+
