Mass spectrum: Ascladiol Z; LC-ESI-ITFT; MS2; CE: 40%; R=7500; [M-H]-
Name: Ascladiol Z
Name: 5-(2-hydroxyethylidene)-4-(hydroxymethyl)furan-2-one
Formula: C7H8O4
Exact mass: 156.0423
SMILES: C1=C(C(=CCO)OC1=O)CO
InChI: InChI=1S/C7H8O4/c8-2-1-6-5(4-9)3-7(10)11-6/h1,3,8-9H,2,4H2
Instrument: LTQ Orbitrap XL Thermo Scientific
Instrument type: LC-ESI-ITFT
Ms type: MS2
Ion mode: NEGATIVE
Ionization: ESI
Fragmentation mode: HCD
Collision energy: 40 % (nominal)
Resolution: 7500
Column name: Hypersil GOLD C18 1.9 um 100 x 2.1 mm Thermo Fisher Scientific
Retention time: 2.427 min
Base peak: 155.035
Precursor m/z: 155.035
Precursor type: [M-H]-
Precursor intensity: 889358.7783203
m/z	relative intensity	assigned
65.0396	35	C5H5-
81.0346	144	C5H5O-
83.0503	210	C5H7O-
93.0346	121	C6H5O-
109.0295	126	C6H5O2-
111.0454	179	C6H7O2-
125.0247	566	C6H5O3-
127.0405	108	C6H7O3-
137.0244	575	C7H5O3-
155.035	999	C7H7O4-
