Mass spectrum: Terbutryn-OH-desethyl (TENTATIVE); LC-ESI-QFT; MS2; CE: 30%; R=70000; [M+H]+
Name: Terbutryn-OH-desethyl
Name: N2-tert-butyl-6-(methylsulfanyl)-1,3,5-triazine-2,4-diamine
Formula: C8H15N5S
Exact mass: 213.1038
SMILES: NC1=NC(=NC(=N1)SC)NC(C)(C)C
InChI: InChI=1S/C8H15N5S/c1-8(2,3)13-6-10-5(9)11-7(12-6)14-4/h1-4H3,(H3,9,10,11,12,13)
Instrument: Q Exactive Plus Orbitrap Thermo Scientific
Instrument type: LC-ESI-QFT
Ms type: MS2
Ion mode: POSITIVE
Ionization: ESI
Fragmentation mode: HCD
Collision energy: 30% (nominal)
Resolution: 70000
Column name: Waters UPLC BEH C18 1.7 um 2.1 mm x 100 mm with pre-column
Retention time: 12.09 min
Precursor m/z: 214.1116
Precursor type: [M+H]+
m/z	relative intensity
57.0702	24
68.0244	226
74.0038	5
74.0059	87
85.0509	374
91.0324	46
102.012	4
108.0699	2
110.0462	217
112.0617	6
116.0277	181
125.0696	3
143.0257	2
154.1345	2
158.0495	999
