Mass spectrum: Cyclizine; LC-ESI-ITFT; MS2; CE: 100%; R=15000; [M+H]+
Name: Cyclizine
Name: 1-benzhydryl-4-methylpiperazine
Formula: C18H22N2
Exact mass: 266.1783
SMILES: CN1CCN(CC1)C(C2=CC=CC=C2)C3=CC=CC=C3
InChI: InChI=1S/C18H22N2/c1-19-12-14-20(15-13-19)18(16-8-4-2-5-9-16)17-10-6-3-7-11-17/h2-11,18H,12-15H2,1H3
Instrument: LTQ Orbitrap XL Thermo Scientific
Instrument type: LC-ESI-ITFT
Ms type: MS2
Ion mode: POSITIVE
Ionization: ESI
Fragmentation mode: HCD
Collision energy: 100% (nominal)
Resolution: 15000
Column name: Kinetex Evo C18 2.6 um 50 x 2.1 mm
Retention time: 7.485 min
Base peak: 267.1856
Precursor m/z: 267.1856
Precursor type: [M+H]+
m/z	relative intensity	assigned
65.0385	1	C5H5+
70.0648	2	C4H8N+
115.0543	17	C9H7+
128.0621	71	C10H8+
141.0699	74	C11H9+
151.0543	34	C12H7+
152.0621	973	C12H8+
164.0622	3	C13H8+
165.07	999	C13H9+
166.0776	312	C13H10+
167.0854	301	C13H11+
169.0648	16	C12H9O+
179.0605	25	C12H7N2+
