Mass spectrum: Flufenacet-OH (TENTATIVE); LC-ESI-QFT; MS2; CE: 30%; R=70000; [M+H]+
Name: Flufenacet-OH
Formula: C14H13F4N3O3S
Exact mass: 379.0599
SMILES: C(*)C(C)N(C1=C(*)C(*)=C(C=C1)F)C(=O)C(*)OC2=NN=C(S2)C(F)(F)F *=[OH (n=1) & H (n=3)]
Instrument: Q Exactive Plus Orbitrap Thermo Scientific
Instrument type: LC-ESI-QFT
Ms type: MS2
Ion mode: POSITIVE
Ionization: ESI
Fragmentation mode: HCD
Collision energy: 30% (nominal)
Resolution: 70000
Column name: Waters UPLC BEH C18 1.7 um 2.1 mm x 100 mm with pre-column
Retention time: 13.71 min
Precursor m/z: 380.0677
Precursor type: [M+H]+
m/z	relative intensity
59.0494	9
67.9713	3
67.9733	23
93.9834	4
109.0448	10
110.0401	12
111.0479	9
122.04	6
124.0558	176
125.0635	19
135.0478	24
135.0602	5
136.0558	247
137.0634	13
149.0636	128
150.0715	38
151.0793	56
152.0506	550
152.087	920
164.0871	999
170.9833	12
180.0818	20
182.0976	79
192.082	46
193.09	13
208.0769	485
210.0925	81
