Mass spectrum: a Zearalenol; LC-ESI-ITFT; MS2; CE: 50%; R=7500; [M+H]+
Name: a Zearalenol
Name: 8,16,18-trihydroxy-4-methyl-3-oxabicyclo[12.4.0]octadeca-1(14),12,15,17-tetraen-2-one
Formula: C18H24O5
Exact mass: 320.1624
SMILES: CC1CCCC(CCCC=CC2=C(C(=CC(=C2)O)O)C(=O)O1)O
InChI: InChI=1S/C18H24O5/c1-12-6-5-9-14(19)8-4-2-3-7-13-10-15(20)11-16(21)17(13)18(22)23-12/h3,7,10-12,14,19-21H,2,4-6,8-9H2,1H3
Instrument: LTQ Orbitrap XL Thermo Scientific
Instrument type: LC-ESI-ITFT
Ms type: MS2
Ion mode: POSITIVE
Ionization: ESI
Fragmentation mode: HCD
Collision energy: 50 % (nominal)
Resolution: 7500
Column name: Hypersil GOLD C18 1.9 um 100 x 2.1 mm Thermo Fisher Scientific
Retention time: 20.888 min
Base peak: 321.1706
Precursor m/z: 321.1697
Precursor type: [M+H]+
Precursor intensity: 7292575.245605
m/z	relative intensity	assigned
81.0698	83	C6H9+
95.0857	56	C7H11+
109.1014	119	C8H13+
121.1013	127	C9H13+
123.1171	88	C9H15+
135.1174	171	C10H15+
149.0595	72	C9H9O2+
161.0601	122	C10H9O2+
165.018	104	C8H5O4+
167.0343	88	C8H7O4+
175.039	193	C10H7O3+
175.0755	83	C11H11O2+
177.0549	242	C10H9O3+
187.0747	58	C12H11O2+
189.0551	193	C11H9O3+
193.0494	181	C10H9O4+
201.0917	152	C13H13O2+
203.0707	161	C12H11O3+
203.107	43	C13H15O2+
211.076	57	C14H11O2+
215.0706	278	C13H11O3+
215.1072	63	C14H15O2+
217.0863	239	C13H13O3+
229.0861	310	C14H13O3+
233.0811	102	C13H13O4+
243.1016	129	C15H15O3+
257.1533	373	C17H21O2+
259.1705	71	C17H23O2+
267.138	542	C18H19O2+
285.1489	999	C18H21O3+
303.1604	171	C18H23O4+
