Mass spectrum: Metolachlor-OH (TENTATIVE); LC-ESI-QFT; MS2; CE: 30%; R=70000; [M+H]+
Name: Metolachlor-OH
Formula: C15H22ClNO3
Exact mass: 299.1288
SMILES: C(*)C(*)C1=C(*)C(*)=C(*)C(=C1N(C(C(*))C(*)OC(*))C(=O)C(*)Cl)C(*) *=[OH (n=1) & H (n=9)]
Instrument: Q Exactive Plus Orbitrap Thermo Scientific
Instrument type: LC-ESI-QFT
Ms type: MS2
Ion mode: POSITIVE
Ionization: ESI
Fragmentation mode: HCD
Collision energy: 30% (nominal)
Resolution: 70000
Column name: Waters UPLC BEH C18 1.7 um 2.1 mm x 100 mm with pre-column
Retention time: 10.27 min
Precursor m/z: 300.1366
Precursor type: [M+H]+
m/z	relative intensity
59.0494	5
73.0648	999
76.9788	25
91.0543	7
107.0852	3
117.0573	8
117.0699	5
118.065	31
119.0856	6
120.0807	4
130.0651	10
131.0683	6
131.0729	93
132.0808	61
133.0888	5
134.0964	82
135.0807	21
135.1042	12
142.0777	5
143.0729	5
144.0808	63
145.0886	323
146.06	34
146.0964	764
150.092	5
156.0805	17
157.0885	15
157.1015	7
158.0965	31
159.1043	104
160.0756	7
160.1121	101
162.1277	11
164.0255	5
172.0755	5
172.112	89
173.1197	4
174.0914	44
174.1277	328
176.1065	6
176.1433	42
177.0335	4
177.1148	8
180.0573	5
186.0915	4
186.1278	41
190.1225	52
192.0574	43
205.146	21
206.1539	374
208.0519	7
210.068	202
214.1225	20
222.1047	9
250.099	52
252.1144	26
268.1096	85
282.1253	8
