Mass spectrum: Fusapyrone; LC-ESI-ITFT; MS2; CE: 30%; R=7500; [M+H]+
Name: Fusapyrone
Name: 3-[3,4-dihydroxy-6-(hydroxymethyl)oxan-2-yl]-4-hydroxy-6-[3-hydroxy-8-(hydroxymethyl)-2,6,10,12-tetramethyloctadeca-4,6,9-trien-2-yl]pyran-2-one
Formula: C34H54O9
Exact mass: 606.3768
SMILES: CCCCCCC(C)CC(=CC(CO)C=C(C)C=CC(C(C)(C)C1=CC(=C(C(=O)O1)C2C(C(CC(O2)CO)O)O)O)O)C
InChI: InChI=1S/C34H54O9/c1-7-8-9-10-11-21(2)14-23(4)16-24(19-35)15-22(3)12-13-28(39)34(5,6)29-18-26(37)30(33(41)43-29)32-31(40)27(38)17-25(20-36)42-32/h12-13,15-16,18,21,24-25,27-28,31-32,35-40H,7-11,14,17,19-20H2,1-6H3
Instrument: LTQ Orbitrap XL Thermo Scientific
Instrument type: LC-ESI-ITFT
Ms type: MS2
Ion mode: POSITIVE
Ionization: ESI
Fragmentation mode: HCD
Collision energy: 30 % (nominal)
Resolution: 7500
Column name: Hypersil GOLD C18 1.9 um 100 x 2.1 mm Thermo Fisher Scientific
Retention time: 26.680 min
Base peak: 607.3855
Precursor m/z: 607.3841
Precursor type: [M+H]+
Precursor intensity: 6682809.754395
m/z	relative intensity	assigned
155.0707	244	C8H11O3+
197.0814	129	C10H13O4+
229.0864	329	C14H13O3+
247.0968	330	C14H15O4+
289.2535	255	C20H33O+
301.129	467	C14H21O7+
330.1085	72	C18H18O6+
607.3852	999	C34H55O9+
