Mass spectrum: Antipyrine; LC-ESI-ITFT; MS2; CE: 110%; R=15000; [M+H]+
Name: Antipyrine
Name: 1,5-dimethyl-2-phenylpyrazol-3-one
Formula: C11H12N2O
Exact mass: 188.0950
SMILES: CC1=CC(=O)N(N1C)C2=CC=CC=C2
InChI: InChI=1S/C11H12N2O/c1-9-8-11(14)13(12(9)2)10-6-4-3-5-7-10/h3-8H,1-2H3
Instrument: LTQ Orbitrap XL Thermo Scientific
Instrument type: LC-ESI-ITFT
Ms type: MS2
Ion mode: POSITIVE
Ionization: ESI
Fragmentation mode: CID
Collision energy: 110% (nominal)
Resolution: 15000
Column name: Kinetex Evo C18 2.6 um 50 x 2.1 mm
Retention time: 5.674 min
Base peak: 189.1022
Precursor m/z: 189.1022
Precursor type: [M+H]+
m/z	relative intensity	assigned
58.0648	24	C3H8N+
91.0539	27	C7H7+
96.0444	21	C5H6NO+
96.0681	20	C5H8N2+
104.0492	62	C7H6N+
111.0552	20	C5H7N2O+
117.0573	30	C8H7N+
118.065	213	C8H8N+
120.0807	235	C8H10N+
130.065	338	C9H8N+
131.0728	999	C9H9N+
132.0807	262	C9H10N+
133.0759	79	C8H9N2+
134.0968	27	C9H12N+
135.055	35	C7H7N2O+
144.0806	831	C10H10N+
145.0646	88	C10H9O+
145.0888	18	C10H11N+
146.0837	610	C9H10N2+
146.0963	488	C10H12N+
147.0915	610	C9H11N2+
148.0755	125	C9H10NO+
149.071	28	C8H9N2O+
158.0601	45	C10H8NO+
160.099	24	C10H12N2+
161.1071	880	C10H13N2+
162.0913	30	C10H12NO+
171.0909	22	C11H11N2+
172.0755	369	C11H10NO+
174.0785	355	C10H10N2O+
