Mass spectrum: Phentermine; LC-ESI-ITFT; MS2; CE: 130%; R=15000; [M+H]+
Name: Phentermine
Name: 2-methyl-1-phenylpropan-2-amine
Formula: C10H15N
Exact mass: 149.1204
SMILES: CC(C)(CC1=CC=CC=C1)N
InChI: InChI=1S/C10H15N/c1-10(2,11)8-9-6-4-3-5-7-9/h3-7H,8,11H2,1-2H3
Instrument: LTQ Orbitrap XL Thermo Scientific
Instrument type: LC-ESI-ITFT
Ms type: MS2
Ion mode: POSITIVE
Ionization: ESI
Fragmentation mode: HCD
Collision energy: 130% (nominal)
Resolution: 15000
Column name: Kinetex Evo C18 2.6 um 50 x 2.1 mm
Retention time: 1.091 min
Base peak: 150.1277
Precursor m/z: 150.1277
Precursor type: [M+H]+
m/z	relative intensity	assigned
65.0384	110	C5H5+
77.0384	9	C6H5+
79.0542	12	C6H7+
91.0542	999	C7H7+
103.0541	8	C8H7+
105.0447	5	C6H5N2+
105.0699	26	C8H9+
