Mass spectrum: Etilefrine; LC-ESI-ITFT; MS2; CE: 65%; R=15000; [M+H]+
Name: Etilefrine
Name: 3-[2-(ethylamino)-1-hydroxyethyl]phenol
Formula: C10H15NO2
Exact mass: 181.1103
SMILES: CCNCC(C1=CC(=CC=C1)O)O
InChI: InChI=1S/C10H15NO2/c1-2-11-7-10(13)8-4-3-5-9(12)6-8/h3-6,10-13H,2,7H2,1H3
Instrument: LTQ Orbitrap XL Thermo Scientific
Instrument type: LC-ESI-ITFT
Ms type: MS2
Ion mode: POSITIVE
Ionization: ESI
Fragmentation mode: HCD
Collision energy: 65% (nominal)
Resolution: 15000
Column name: Kinetex Evo C18 2.6 um 50 x 2.1 mm
Retention time: 0.617 min
Base peak: 182.1176
Precursor m/z: 182.1176
Precursor type: [M+H]+
m/z	relative intensity	assigned
56.0492	43	C3H6N+
81.0699	16	C6H9+
91.0543	383	C7H7+
93.07	23	C7H9+
109.0648	214	C7H9O+
118.0651	34	C8H8N+
119.0492	127	C8H7O+
119.086	11	C9H11+
121.0648	125	C8H9O+
134.0603	25	C8H8NO+
135.0679	419	C8H9NO+
136.0757	195	C8H10NO+
147.081	6	C10H11O+
164.107	999	C10H14NO+
