Mass spectrum: NT 2 Toxin; LC-ESI-ITFT; MS2; CE: 60%; R=7500; [M-H]-
Name: NT 2 Toxin
Name: 15-Deacetylneosolaniol
Name: [4,10-dihydroxy-2-(hydroxymethyl)-1,5-dimethylspiro[8-oxatricyclo[7.2.1.02,7]dodec-5-ene-12,2`-oxirane]-11-yl] acetate
Formula: C17H24O7
Exact mass: 340.1522
SMILES: CC1=CC2C(CC1O)(C3(C(C(C(C34CO4)O2)O)OC(=O)C)C)CO
InChI: InChI=1S/C17H24O7/c1-8-4-11-16(6-18,5-10(8)20)15(3)13(23-9(2)19)12(21)14(24-11)17(15)7-22-17/h4,10-14,18,20-21H,5-7H2,1-3H3
Instrument: LTQ Orbitrap XL Thermo Scientific
Instrument type: LC-ESI-ITFT
Ms type: MS2
Ion mode: NEGATIVE
Ionization: ESI
Fragmentation mode: HCD
Collision energy: 60 % (nominal)
Resolution: 7500
Column name: Hypersil GOLD C18 1.9 um 100 x 2.1 mm Thermo Fisher Scientific
Retention time: 8.105 min
Base peak: 399.1662
Precursor m/z: 339.1449
Precursor type: [M-H]-
Precursor intensity: 402775.9726562
m/z	relative intensity	assigned
59.0139	999	C2H3O2-
219.1024	245	C13H15O3-
297.1336	312	C15H21O6-
