Mass spectrum: Ochratoxin B; LC-ESI-ITFT; MS2; CE: 50%; R=7500; [M-H]-
Name: Ochratoxin B
Name: 2-[(8-Hydroxy-3-methyl-1-oxoisochroman-7-carbonyl)amino]-3-phenylpropionic acid
Name: 2-[(8-hydroxy-3-methyl-1-oxo-3,4-dihydroisochromene-7-carbonyl)amino]-3-phenylpropanoic acid
Formula: C20H19NO6
Exact mass: 369.1212
SMILES: CC1CC2=C(C(=C(C=C2)C(=O)NC(CC3=CC=CC=C3)C(=O)O)O)C(=O)O1
InChI: InChI=1S/C20H19NO6/c1-11-9-13-7-8-14(17(22)16(13)20(26)27-11)18(23)21-15(19(24)25)10-12-5-3-2-4-6-12/h2-8,11,15,22H,9-10H2,1H3,(H,21,23)(H,24,25)
Instrument: LTQ Orbitrap XL Thermo Scientific
Instrument type: LC-ESI-ITFT
Ms type: MS2
Ion mode: NEGATIVE
Ionization: ESI
Fragmentation mode: HCD
Collision energy: 50 % (nominal)
Resolution: 7500
Column name: Hypersil GOLD C18 1.9 um 100 x 2.1 mm Thermo Fisher Scientific
Retention time: 19.397 min
Base peak: 368.114
Precursor m/z: 368.114
Precursor type: [M-H]-
Precursor intensity: 94825848.57129
m/z	relative intensity	assigned
147.0447	3	C9H7O2-
164.0713	6	C9H10NO2-
177.056	2	C10H9O3-
190.0509	4	C10H8NO3-
215.059	4	C12H9NO3-
220.0615	24	C11H10NO4-
221.0458	1	C11H9O5-
236.1076	3	C16H14NO-
280.1346	7	C18H18NO2-
306.1132	5	C19H16NO3-
324.1238	446	C19H18NO4-
368.1134	999	C20H18NO6-
