Mass spectrum: Tetracycline; LC-ESI-ITFT; MS2; CE: 70%; R=15000; [M+H]+
Name: Tetracycline
Name: 2-[amino(hydroxy)methylidene]-4-(dimethylamino)-6,10,11,12a-tetrahydroxy-6-methyl-4,4a,5,5a-tetrahydrotetracene-1,3,12-trione
Formula: C22H24N2O8
Exact mass: 444.1533
SMILES: [H][C@@]12C[C@@]3([H])C(=C(O)[C@]1(O)C(=O)C(C(N)=O)=C(O)[C@H]2N(C)C)C(=O)C1=C(C=CC=C1O)[C@@]3(C)O
InChI: InChI=1S/C22H24N2O8/c1-21(31)8-5-4-6-11(25)12(8)16(26)13-9(21)7-10-15(24(2)3)17(27)14(20(23)30)19(29)22(10,32)18(13)28/h4-6,9-10,15,25,27-28,31-32H,7H2,1-3H3,(H2,23,30)/t9-,10-,15-,21+,22-/m0/s1
Instrument: LTQ Orbitrap XL Thermo Scientific
Instrument type: LC-ESI-ITFT
Ms type: MS2
Ion mode: POSITIVE
Ionization: ESI
Fragmentation mode: HCD
Collision energy: 70% (nominal)
Resolution: 15000
Column name: Kinetex Evo C18 2.6 um 50 x 2.1 mm
Retention time: 2.752 min
Base peak: 300.1474
Precursor m/z: 445.1605
Precursor type: [M+H]+
m/z	relative intensity	assigned
70.0649	55	C4H8N+
84.0444	19	C4H6NO+
86.06	92	C4H8NO+
98.06	999	C5H8NO+
126.0549	65	C6H8NO2+
139.0264	23	C6H5NO3+
154.0498	107	C7H8NO3+
187.0753	33	C12H11O2+
195.0804	110	C14H11O+
196.051	16	C13H8O2+
197.0593	19	C13H9O2+
198.0676	18	C13H10O2+
201.0546	22	C12H9O3+
207.0805	21	C15H11O+
211.0754	73	C14H11O2+
213.0909	63	C14H13O2+
223.0752	184	C15H11O2+
224.0469	23	C14H8O3+
225.0909	13	C15H13O2+
226.0624	452	C14H10O3+
235.0749	74	C16H11O2+
236.047	39	C15H8O3+
238.0618	32	C15H10O3+
239.0703	97	C15H11O3+
241.0859	480	C15H13O3+
242.0573	145	C14H10O4+
243.0653	24	C14H11O4+
250.0626	17	C16H10O3+
251.0704	127	C16H11O3+
252.0417	329	C15H8O4+
254.0574	195	C15H10O4+
263.0704	68	C17H11O3+
267.0653	301	C16H11O4+
269.0808	277	C16H13O4+
276.0417	31	C17H8O4+
278.0574	125	C17H10O4+
291.0651	45	C18H11O4+
306.0527	36	C18H10O5+
334.0473	66	C19H10O6+
