Mass spectrum: Amiloride; LC-ESI-ITFT; MS2; CE: 125%; R=15000; [M+H]+
Name: Amiloride
Name: 3,5-diamino-6-chloro-N-(diaminomethylidene)pyrazine-2-carboxamide
Formula: C6H8ClN7O
Exact mass: 229.0479
SMILES: C1(=C(N=C(C(=N1)Cl)N)N)C(=O)N=C(N)N
InChI: InChI=1S/C6H8ClN7O/c7-2-4(9)13-3(8)1(12-2)5(15)14-6(10)11/h(H4,8,9,13)(H4,10,11,14,15)
Instrument: LTQ Orbitrap XL Thermo Scientific
Instrument type: LC-ESI-ITFT
Ms type: MS2
Ion mode: POSITIVE
Ionization: ESI
Fragmentation mode: HCD
Collision energy: 125% (nominal)
Resolution: 15000
Column name: Kinetex Evo C18 2.6 um 50 x 2.1 mm
Retention time: 0.777 min
Base peak: 230.0552
Precursor m/z: 230.0552
Precursor type: [M+H]+
m/z	relative intensity	assigned
56.0367	10	C2H4N2+
60.0554	419	CH6N3+
61.979	166	CHClN+
63.9946	375	CH3ClN+
66.021	84	C3H2N2+
69.0082	3	C2HN2O+
73.9791	212	C2HClN+
80.0243	15	C3H2N3+
81.032	6	C3H3N3+
86.0351	4	C2H4N3O+
88.9901	390	C2H2ClN2+
91.0057	4	C2H4ClN2+
100.9901	354	C3H2ClN2+
108.043	235	C4H4N4+
116.001	999	C3H3ClN3+
143.0118	14	C4H4ClN4+
161.0223	18	C4H6ClN4O+
171.0072	3	C5H4ClN4O+
