Mass spectrum: Dothiepin; ESI-QTOF; MS2; CE: 45eV; R=15000; [M+H]+
Name: Dothiepin
Name: 3-(Dibenzo[b,e]thiepin-11(6H)-ylidene)-N,N-dimethylpropan-1-amine
Formula: C19H21NS
Exact mass: 295.1395
SMILES: CN(C)CCC=C1C2=CC=CC=C2CSC2=C1C=CC=C2
InChI: InChI=1S/C19H21NS/c1-20(2)13-7-11-17-16-9-4-3-8-15(16)14-21-19-12-6-5-10-18(17)19/h3-6,8-12H,7,13-14H2,1-2H3
Instrument: TripleTOF 5600+SCIEX
Instrument type: ESI-QTOF
Ms type: MS2
Ion mode: POSITIVE
Ionization: ESI
Fragmentation mode: CID
Collision energy: 45 eV
Resolution: 15000
Precursor m/z: 296.1468
Precursor type: [M+H]+
m/z	relative intensity
51.0259	1
56.0518	1
58.0676	61
58.9972	2
63.0247	1
65.0405	6
70.0671	4
71.0746	1
72.0825	2
73.0122	2
77.0401	3
79.0555	3
84.0821	10
85.0899	1
89.0397	1
91.0553	144
97.0117	1
102.0473	1
103.055	9
105.0707	4
115.0549	236
116.0627	9
117.0705	274
119.0865	1
121.0112	6
123.0269	108
126.047	1
127.0547	8
128.0626	33
129.0703	65
131.086	2
134.0192	3
135.0267	27
137.0425	2
139.0547	3
140.0625	2
141.0703	75
142.0781	36
143.086	1
147.0269	188
148.0343	1
149.0415	2
150.0469	4
151.0547	6
152.0626	12
153.0705	3
158.0975	1
159.0267	5
160.0347	2
161.0419	2
162.047	1
163.0547	5
164.0627	5
165.0705	278
166.0783	6
167.086	3
171.0269	4
172.0345	3
173.0424	46
174.0472	1
175.055	2
176.0627	14
177.0705	8
178.0783	497
179.0862	129
180.0934	1
181.1018	6
184.0349	4
185.0423	2
186.0481	1
187.0549	3
188.0624	2
189.0705	47
190.0783	43
191.0862	230
192.094	190
193.1013	1
197.0426	17
198.0488	1
199.0565	2
200.0628	13
201.0706	19
202.0785	500
203.0862	999
204.094	39
205.1019	14
206.1094	2
207.118	1
208.0347	57
209.0427	125
210.0506	280
211.0584	9
213.0705	5
214.0788	1
215.0863	103
216.0941	44
217.1021	661
218.1099	509
219.1181	1
220.107	1
221.0428	829
222.0505	320
223.0584	660
224.0663	7
225.0741	91
234.0507	78
235.0584	176
236.0662	93
249.0742	17
251.0899	15
296.1468	2
