Mass spectrum: Fumigaclavine C; LC-ESI-ITFT; MS2; CE: 20%; R=7500; [M-H]-
Name: Fumigaclavine C
Name: CID 75144606
Name: [7,9-dimethyl-5-(2-methylbut-3-en-2-yl)-6,6a,8,9,10,10a-hexahydro-4H-indolo[4,3-fg]quinolin-10-yl] acetate
Formula: C23H30N2O2
Exact mass: 366.23073
SMILES: CC1CN(C2CC3=C(NC4=CC=CC(=C34)C2C1OC(=O)C)C(C)(C)C=C)C
InChI: InChI=1S/C23H30N2O2/c1-7-23(4,5)22-16-11-18-20(15-9-8-10-17(24-22)19(15)16)21(27-14(3)26)13(2)12-25(18)6/h7-10,13,18,20-21,24H,1,11-12H2,2-6H3
Instrument: LTQ Orbitrap XL Thermo Scientific
Instrument type: LC-ESI-ITFT
Ms type: MS2
Ion mode: NEGATIVE
Ionization: ESI
Fragmentation mode: HCD
Collision energy: 20 % (nominal)
Resolution: 7500
Column name: Hypersil GOLD C18 1.9 um 100 x 2.1 mm Thermo Fisher Scientific
Retention time: 13.210 min
Base peak: 141.017
Precursor m/z: 365.2235
Precursor type: [M-H]-
Precursor intensity: 80724.5678710938
m/z	relative intensity	assigned
201.1033	377	C12H13N2O-
365.225	999	C23H29N2O2-
