Mass spectrum: Dixyrazine; LC-ESI-ITFT; MS2; CE: 95%; R=15000; [M+H]+
Name: Dixyrazine
Name: 2-[2-[4-(2-methyl-3-phenothiazin-10-ylpropyl)piperazin-1-yl]ethoxy]ethanol
Formula: C24H33N3O2S
Exact mass: 427.2293
SMILES: CC(CN1CCN(CC1)CCOCCO)CN2C3=CC=CC=C3SC4=CC=CC=C42
InChI: InChI=1S/C24H33N3O2S/c1-20(18-26-12-10-25(11-13-26)14-16-29-17-15-28)19-27-21-6-2-4-8-23(21)30-24-9-5-3-7-22(24)27/h2-9,20,28H,10-19H2,1H3
Instrument: LTQ Orbitrap XL Thermo Scientific
Instrument type: LC-ESI-ITFT
Ms type: MS2
Ion mode: POSITIVE
Ionization: ESI
Fragmentation mode: HCD
Collision energy: 95% (nominal)
Resolution: 15000
Column name: Kinetex Evo C18 2.6 um 50 x 2.1 mm
Retention time: 8.949 min
Base peak: 428.2363
Precursor m/z: 428.2366
Precursor type: [M+H]+
m/z	relative intensity	assigned
56.0492	77	C3H6N+
58.0649	143	C3H8N+
68.0494	22	C4H6N+
70.065	415	C4H8N+
72.0805	9	C4H10N+
82.0651	106	C5H8N+
83.0603	62	C4H7N2+
84.0808	52	C5H10N+
86.0601	21	C4H8NO+
87.044	56	C4H7O2+
97.076	427	C5H9N2+
98.0838	999	C5H10N2+
99.0916	47	C5H11N2+
100.0757	12	C5H10NO+
101.1072	141	C5H13N2+
110.0842	19	C6H10N2+
112.0995	32	C6H12N2+
112.112	14	C7H14N+
113.1072	15	C6H13N2+
125.1075	9	C7H13N2+
144.1019	24	C7H14NO2+
151.0545	9	C12H7+
167.0729	37	C12H9N+
168.0804	8	C12H10N+
172.1207	9	C8H16N2O2+
178.0651	39	C13H8N+
179.073	226	C13H9N+
180.0808	866	C13H10N+
181.0849	7	C8H11N3O2+
184.0342	12	C12H8S+
185.0416	13	C12H9S+
196.0752	10	C13H10NO+
198.0372	17	C12H8NS+
199.045	28	C12H9NS+
206.0973	13	C15H12N+
211.046	11	C13H9NS+
212.053	118	C13H10NS+
220.1126	11	C16H14N+
224.0535	11	C14H10NS+
238.0688	10	C15H12NS+
