Mass spectrum: Dosulepin; LC-ESI-ITFT; MS2; CE: 175%; R=15000; [M+H]+
Name: Dosulepin
Name: Dothiepin
Name: 3-(6H-benzo[c][1]benzothiepin-11-ylidene)-N,N-dimethylpropan-1-amine
Formula: C19H21NS
Exact mass: 295.1395
SMILES: CN(C)CCC=C1C2=CC=CC=C2CSC3=CC=CC=C31
InChI: InChI=1S/C19H21NS/c1-20(2)13-7-11-17-16-9-4-3-8-15(16)14-21-19-12-6-5-10-18(17)19/h3-6,8-12H,7,13-14H2,1-2H3
Instrument: LTQ Orbitrap XL Thermo Scientific
Instrument type: LC-ESI-ITFT
Ms type: MS2
Ion mode: POSITIVE
Ionization: ESI
Fragmentation mode: HCD
Collision energy: 175% (nominal)
Resolution: 15000
Column name: Kinetex Evo C18 2.6 um 50 x 2.1 mm
Retention time: 8.160 min
Base peak: 296.1469
Precursor m/z: 296.1467
Precursor type: [M+H]+
m/z	relative intensity	assigned
58.0648	54	C3H8N+
65.0383	147	C5H5+
68.9791	26	C3HS+
77.0385	76	C6H5+
89.0386	68	C7H5+
91.0542	269	C7H7+
102.0464	35	C8H6+
105.0448	81	C6H5N2+
115.0542	424	C9H7+
121.011	19	C7H5S+
126.0465	25	C10H6+
128.062	120	C10H8+
139.0543	94	C11H7+
141.0694	23	C11H9+
150.0464	50	C12H6+
151.0542	128	C12H7+
152.0621	329	C12H8+
155.0601	29	C10H7N2+
163.0544	142	C13H7+
164.0621	108	C13H8+
165.07	271	C13H9+
169.0648	71	C12H9O+
175.0539	28	C14H7+
176.062	538	C14H8+
177.0698	103	C14H9+
178.0778	211	C14H10+
179.0605	82	C12H7N2+
187.0542	57	C15H7+
188.0622	64	C15H8+
189.0699	536	C15H9+
190.0774	31	C15H10+
195.0266	28	C13H7S+
200.0621	546	C16H8+
201.07	414	C16H9+
202.0778	999	C16H10+
208.0342	55	C14H8S+
213.0699	156	C17H9+
214.0772	27	C17H10+
215.0855	526	C17H11+
219.0264	101	C15H7S+
219.0802	64	C16H11O+
220.0342	64	C15H8S+
221.0421	347	C15H9S+
232.0343	57	C16H8S+
234.0499	60	C16H10S+
