Mass spectrum: Aspochalasin 1; LC-ESI-ITFT; MS2; CE: 15%; R=7500; [M+H]+
Name: Aspochalasin 1
Formula: C24H35NO5
Exact mass: 417.2515
SMILES: CC(C)C[C@@H]1NC(=O)[C@]23OC(=O)C=C[C@@H](O)[C@@H](O)CCC(C)=C[C@H]3C=C(C)[C@@H](C)[C@@H]12
InChI: InChI=1S/C24H35NO5/c1-13(2)10-18-22-16(5)15(4)12-17-11-14(3)6-7-19(26)20(27)8-9-21(28)30-24(17,22)23(29)25-18/h8-9,11-13,16-20,22,26-27H,6-7,10H2,1-5H3,(H,25,29)/t16-,17+,18+,19+,20-,22+,24-/m1/s1
Instrument: LTQ Orbitrap XL Thermo Scientific
Instrument type: LC-ESI-ITFT
Ms type: MS2
Ion mode: POSITIVE
Ionization: ESI
Fragmentation mode: HCD
Collision energy: 15 % (nominal)
Resolution: 7500
Column name: Hypersil GOLD C18 1.9 um 100 x 2.1 mm Thermo Fisher Scientific
Retention time: 23.512 min
Base peak: 835.5124
Precursor m/z: 418.2588
Precursor type: [M+H]+
Precursor intensity: 8816957.579102
m/z	relative intensity	assigned
204.0868	3	C8H14NO5+
316.2271	92	C20H30NO2+
382.2368	7	C24H32NO3+
400.2488	68	C24H34NO4+
418.2586	999	C24H36NO5+
