Mass spectrum: Altenuene; LC-ESI-ITFT; MS2; CE: 20%; R=7500; [M+H]+
Name: Altenuene
Name: 6H-Dibenzo[b,d]pyran-6-one, 2,3,4,4a-tetrahydro-2,3,7-trihydroxy-9-methoxy-4a-methyl-, (2R,3R,4aR)-rel-
Name: 2,3,7-trihydroxy-9-methoxy-4a-methyl-3,4-dihydro-2H-benzo[c]chromen-6-one
Formula: C15H16O6
Exact mass: 292.0947
SMILES: CC12CC(C(C=C1C3=C(C(=CC(=C3)OC)O)C(=O)O2)O)O
InChI: InChI=1S/C15H16O6/c1-15-6-12(18)10(16)5-9(15)8-3-7(20-2)4-11(17)13(8)14(19)21-15/h3-5,10,12,16-18H,6H2,1-2H3
Instrument: LTQ Orbitrap XL Thermo Scientific
Instrument type: LC-ESI-ITFT
Ms type: MS2
Ion mode: POSITIVE
Ionization: ESI
Fragmentation mode: HCD
Collision energy: 20 % (nominal)
Resolution: 7500
Column name: Hypersil GOLD C18 1.9 um 100 x 2.1 mm Thermo Fisher Scientific
Retention time: 15.043 min
Base peak: 293.1022
Precursor m/z: 293.102
Precursor type: [M+H]+
Precursor intensity: 12654529.8916
m/z	relative intensity	assigned
203.1067	13	C13H15O2+
213.0914	35	C14H13O2+
219.1011	4	C13H15O3+
229.0861	68	C14H13O3+
231.1019	45	C14H15O3+
239.0704	136	C15H11O3+
247.0967	44	C14H15O4+
257.0809	999	C15H13O4+
275.0916	577	C15H15O5+
293.102	265	C15H17O6+
