Mass spectrum: Desipramine; LC-ESI-ITFT; MS2; CE: 170%; R=15000; [M+H]+
Name: Desipramine
Name: 3-(5,6-dihydrobenzo[b][1]benzazepin-11-yl)-N-methylpropan-1-amine
Formula: C18H22N2
Exact mass: 266.1783
SMILES: CNCCCN1C2=CC=CC=C2CCC3=CC=CC=C31
InChI: InChI=1S/C18H22N2/c1-19-13-6-14-20-17-9-4-2-7-15(17)11-12-16-8-3-5-10-18(16)20/h2-5,7-10,19H,6,11-14H2,1H3
Instrument: LTQ Orbitrap XL Thermo Scientific
Instrument type: LC-ESI-ITFT
Ms type: MS2
Ion mode: POSITIVE
Ionization: ESI
Fragmentation mode: HCD
Collision energy: 170% (nominal)
Resolution: 15000
Column name: Kinetex Evo C18 2.6 um 50 x 2.1 mm
Retention time: 8.452 min
Base peak: 267.1855
Precursor m/z: 267.1856
Precursor type: [M+H]+
m/z	relative intensity	assigned
65.0384	90	C5H5+
72.0806	160	C4H10N+
77.0384	64	C6H5+
89.0386	253	C7H5+
90.0463	120	C7H6+
91.0543	212	C7H7+
105.0447	91	C6H5N2+
115.0543	112	C9H7+
116.0499	39	C8H6N+
117.0571	36	C8H7N+
128.0494	78	C9H6N+
139.0543	132	C11H7+
140.0495	71	C10H6N+
151.0539	36	C12H7+
152.0619	256	C12H8+
153.0572	36	C11H7N+
163.0539	36	C13H7+
164.062	116	C13H8+
165.0699	919	C13H9+
166.0652	222	C12H8N+
167.0728	269	C12H9N+
176.0621	48	C14H8+
177.0576	81	C13H7N+
178.0652	170	C13H8N+
178.0776	102	C14H10+
179.0729	201	C13H9N+
180.0809	103	C13H10N+
190.0651	230	C14H8N+
191.073	999	C14H9N+
192.0808	642	C14H10N+
193.0887	167	C14H11N+
194.0959	49	C14H12N+
204.0807	94	C15H10N+
