Mass spectrum: Dixyrazine; LC-ESI-ITFT; MS2; CE: 90%; R=15000; [M+H]+
Name: Dixyrazine
Name: 2-[2-[4-(2-methyl-3-phenothiazin-10-ylpropyl)piperazin-1-yl]ethoxy]ethanol
Formula: C24H33N3O2S
Exact mass: 427.2293
SMILES: CC(CN1CCN(CC1)CCOCCO)CN2C3=CC=CC=C3SC4=CC=CC=C42
InChI: InChI=1S/C24H33N3O2S/c1-20(18-26-12-10-25(11-13-26)14-16-29-17-15-28)19-27-21-6-2-4-8-23(21)30-24-9-5-3-7-22(24)27/h2-9,20,28H,10-19H2,1H3
Instrument: LTQ Orbitrap XL Thermo Scientific
Instrument type: LC-ESI-ITFT
Ms type: MS2
Ion mode: POSITIVE
Ionization: ESI
Fragmentation mode: HCD
Collision energy: 90% (nominal)
Resolution: 15000
Column name: Kinetex Evo C18 2.6 um 50 x 2.1 mm
Retention time: 8.957 min
Base peak: 428.2363
Precursor m/z: 428.2366
Precursor type: [M+H]+
m/z	relative intensity	assigned
68.0494	16	C4H6N+
70.0649	390	C4H8N+
72.0807	8	C4H10N+
73.0282	13	C3H5O2+
82.0651	104	C5H8N+
83.0604	49	C4H7N2+
84.0807	59	C5H10N+
86.06	21	C4H8NO+
87.044	77	C4H7O2+
96.0806	8	C6H10N+
97.076	440	C5H9N2+
98.0838	999	C5H10N2+
99.0916	42	C5H11N2+
100.0756	19	C5H10NO+
101.1073	189	C5H13N2+
110.0836	22	C6H10N2+
111.0914	10	C6H11N2+
112.0994	29	C6H12N2+
112.1119	13	C7H14N+
113.1071	27	C6H13N2+
125.107	16	C7H13N2+
130.0865	12	C6H12NO2+
144.1018	30	C7H14NO2+
167.0733	22	C12H9N+
172.1202	21	C8H16N2O2+
178.0653	23	C13H8N+
179.0729	195	C13H9N+
180.0807	808	C13H10N+
184.0349	7	C12H8S+
185.0417	8	C12H9S+
198.0371	26	C12H8NS+
199.0451	30	C12H9NS+
206.0965	14	C15H12N+
211.0445	11	C13H9NS+
212.0528	139	C13H10NS+
220.1123	15	C16H14N+
224.0519	9	C14H10NS+
