Mass spectrum: Sulfamethoxazole; LC-ESI-QTOF; MS2; CE: 5 eV; R=3600; [M+H]+
Name: Sulfamethoxazole
Name: 4-Amino-N-(5-methyl-1,2-oxazol-3-yl)benzene-1-sulfonamide
Formula: C10H11N3O3S
Exact mass: 253.0521
SMILES: CC1=CC(NS(=O)(=O)C2=CC=C(N)C=C2)=NO1
InChI: InChI=1S/C10H11N3O3S/c1-7-6-10(12-16-7)13-17(14,15)9-4-2-8(11)3-5-9/h2-6H,11H2,1H3,(H,12,13)
Instrument: 6670 QTOF Agilent
Instrument type: LC-ESI-QTOF
Ms type: MS2
Ion mode: POSITIVE
Ionization: ESI
Fragmentation mode: CID
Collision energy: 5 eV
Resolution: 3600
Precursor m/z: 254.0594
Precursor type: [M+H]+
m/z	relative intensity
53.0372	15
54.0347	4
55.0164	4
65.0368	192
66.0496	8
80.0473	69
81.0512	11
92.0464	897
93.0534	254
94.0668	5
99.0525	160
107.0527	37
108.0407	686
109.0489	10
119.0653	8
121.0687	4
129.0493	4
131.0506	4
132.0659	5
133.0743	9
146.0656	46
147.0744	129
148.0886	8
156.0052	577
160.0808	102
160.9969	13
173.0559	9
188.076	58
190.0956	17
194.0301	25
236.0383	19
254.0594	999
