Mass spectrum: Dothiepin; ESI-QTOF; MS2; CE: 50eV; R=15000; [M+H]+
Name: Dothiepin
Name: 3-(Dibenzo[b,e]thiepin-11(6H)-ylidene)-N,N-dimethylpropan-1-amine
Formula: C19H21NS
Exact mass: 295.1395
SMILES: CN(C)CCC=C1C2=CC=CC=C2CSC2=C1C=CC=C2
InChI: InChI=1S/C19H21NS/c1-20(2)13-7-11-17-16-9-4-3-8-15(16)14-21-19-12-6-5-10-18(17)19/h3-6,8-12H,7,13-14H2,1-2H3
Instrument: TripleTOF 5600+SCIEX
Instrument type: ESI-QTOF
Ms type: MS2
Ion mode: POSITIVE
Ionization: ESI
Fragmentation mode: CID
Collision energy: 50 eV
Resolution: 15000
Precursor m/z: 296.1468
Precursor type: [M+H]+
m/z	relative intensity
51.0255	1
56.0523	1
58.0675	52
58.9971	2
63.0248	1
65.0406	9
68.981	1
70.067	4
72.0822	2
73.0124	1
77.0401	5
79.0557	4
84.0821	8
85.0898	1
89.0397	2
91.0553	149
97.0114	1
98.0155	1
102.0472	2
103.0551	10
105.0704	3
113.0391	1
114.0473	1
115.0549	280
116.0627	11
117.0705	188
119.0863	1
121.0111	7
123.0268	72
126.0468	2
127.0549	13
128.0626	45
129.0703	58
131.0867	1
134.0188	4
135.0267	22
137.0421	1
139.0546	5
140.0627	2
141.0703	83
142.078	25
143.0863	1
147.0268	150
148.0346	1
149.0409	2
150.0467	6
151.0546	9
152.0625	20
153.0704	3
158.0185	1
159.0271	3
160.0346	2
161.0411	1
162.0467	1
163.0546	8
164.0625	8
165.0705	323
166.0783	8
167.086	2
170.097	1
171.0268	7
172.0347	3
173.0424	32
174.0474	2
175.0547	3
176.0626	20
177.0706	13
178.0782	640
179.0861	131
180.0931	1
181.1015	4
184.0347	6
185.0419	2
186.048	1
187.0547	4
188.0623	3
189.0704	70
190.0783	55
191.0862	249
192.0939	145
193.1024	1
197.0426	17
198.0478	1
199.0553	2
200.0626	18
201.0705	29
202.0784	774
203.0862	999
204.0939	31
205.1018	9
206.11	1
208.0347	73
209.0426	78
210.0505	250
211.0579	5
213.0704	6
214.0779	2
215.0862	154
216.094	58
217.102	627
218.1098	244
219.1177	1
221.0428	952
222.0505	242
223.0583	357
224.066	6
225.074	32
234.0506	100
235.0584	188
236.0662	47
296.1468	0
