Mass spectrum: Antipyrine; LC-ESI-ITFT; MS2; CE: 100%; R=15000; [M+H]+
Name: Antipyrine
Name: 1,5-dimethyl-2-phenylpyrazol-3-one
Formula: C11H12N2O
Exact mass: 188.0950
SMILES: CC1=CC(=O)N(N1C)C2=CC=CC=C2
InChI: InChI=1S/C11H12N2O/c1-9-8-11(14)13(12(9)2)10-6-4-3-5-7-10/h3-8H,1-2H3
Instrument: LTQ Orbitrap XL Thermo Scientific
Instrument type: LC-ESI-ITFT
Ms type: MS2
Ion mode: POSITIVE
Ionization: ESI
Fragmentation mode: HCD
Collision energy: 100% (nominal)
Resolution: 15000
Column name: Kinetex Evo C18 2.6 um 50 x 2.1 mm
Retention time: 5.575 min
Base peak: 189.1023
Precursor m/z: 189.1022
Precursor type: [M+H]+
m/z	relative intensity	assigned
55.0177	24	C3H3O+
56.0492	999	C3H6N+
58.0649	412	C3H8N+
65.0384	187	C5H5+
68.0494	23	C4H6N+
69.0573	36	C4H7N+
70.0651	16	C4H8N+
77.0385	500	C6H5+
78.0465	16	C6H6+
79.0542	97	C6H7+
81.0447	75	C4H5N2+
83.0606	7	C4H7N2+
91.0543	172	C7H7+
92.0495	57	C6H6N+
93.0573	23	C6H7N+
94.0652	37	C6H8N+
95.0492	99	C6H7O+
95.0604	108	C5H7N2+
96.0448	9	C5H6NO+
96.0682	126	C5H8N2+
98.0601	161	C5H8NO+
102.0463	10	C8H6+
103.0542	135	C8H7+
104.0495	616	C7H6N+
105.0334	21	C7H5O+
105.0447	295	C6H5N2+
105.0573	42	C7H7N+
105.0699	35	C8H9+
106.0651	745	C7H8N+
107.0603	15	C6H7N2+
115.0542	131	C9H7+
117.0574	110	C8H7N+
117.0699	187	C9H9+
118.0651	204	C8H8N+
119.073	15	C8H9N+
120.0808	123	C8H10N+
128.0496	28	C9H6N+
129.0573	78	C9H7N+
130.0652	326	C9H8N+
131.0603	143	C8H7N2+
131.0729	155	C9H9N+
132.0445	11	C8H6NO+
132.0682	96	C8H8N2+
132.0807	61	C9H10N+
133.0523	44	C8H7NO+
133.0763	16	C8H9N2+
134.0476	13	C7H6N2O+
134.0967	15	C9H12N+
143.073	26	C10H9N+
144.0808	101	C10H10N+
145.0647	28	C10H9O+
145.076	143	C9H9N2+
146.0604	8	C9H8NO+
146.0839	102	C9H10N2+
147.0917	226	C9H11N2+
149.0707	8	C8H9N2O+
157.0522	21	C10H7NO+
159.0553	20	C9H7N2O+
159.0919	12	C10H11N2+
161.1079	15	C10H13N2+
172.0758	13	C11H10NO+
173.0708	26	C10H9N2O+
174.0787	55	C10H10N2O+
189.1021	67	C11H13N2O+
