Mass spectrum: Dimethenamid-OH-desmethyl-N-Dealkylation (TENTATIVE); LC-ESI-QFT; MS2; CE: 30%; R=70000; [M+H]+
Name: Dimethenamid-OH-desmethyl-N-Dealkylation
Formula: C9H15NO2S
Exact mass: 201.0814
SMILES: C(*)C1=C(*)SC(=C1N(C(*)(C(*))C(*)O))C(*) *=[OH (n=1) & H (n=5)]
Instrument: Q Exactive Plus Orbitrap Thermo Scientific
Instrument type: LC-ESI-QFT
Ms type: MS2
Ion mode: POSITIVE
Ionization: ESI
Fragmentation mode: HCD
Collision energy: 30% (nominal)
Resolution: 70000
Column name: Waters UPLC BEH C18 1.7 um 2.1 mm x 100 mm with pre-column
Retention time: 8.59 min
Precursor m/z: 202.0892
Precursor type: [M+H]+
m/z	relative intensity
55.0181	14
55.0546	21
57.0701	5
58.0654	27
58.9952	92
59.0494	41
65.0387	62
67.0417	16
67.0543	80
69.0699	13
73.0285	21
75.0262	6
79.0542	17
80.0494	12
81.0574	5
81.0699	22
82.0651	229
83.0494	4
84.0808	50
85.0646	4
91.0541	18
92.0494	8
92.9792	3
93.0335	5
93.0699	19
94.0411	4
95.0491	11
95.0728	3
95.0855	7
96.0445	7
97.0106	4
97.0648	10
97.101	5
99.0263	117
99.044	40
100.0757	8
101.0291	4
102.0913	30
105.0697	9
107.0728	13
107.0856	23
108.0807	6
109.0648	10
110.0601	999
110.0965	14
111.0679	74
112.0756	4
114.1277	13
116.0528	60
121.1012	14
122.0599	6
122.0963	32
126.0373	16
127.0212	104
135.068	10
138.0913	32
140.107	9
142.032	23
143.04	52
144.0478	57
150.0915	41
168.102	5
169.1093	6
174.0948	17
202.0896	11
