Mass spectrum: Dosulepin; LC-ESI-ITFT; MS2; CE: 140%; R=15000; [M+H]+
Name: Dosulepin
Name: Dothiepin
Name: 3-(6H-benzo[c][1]benzothiepin-11-ylidene)-N,N-dimethylpropan-1-amine
Formula: C19H21NS
Exact mass: 295.1395
SMILES: CN(C)CCC=C1C2=CC=CC=C2CSC3=CC=CC=C31
InChI: InChI=1S/C19H21NS/c1-20(2)13-7-11-17-16-9-4-3-8-15(16)14-21-19-12-6-5-10-18(17)19/h3-6,8-12H,7,13-14H2,1-2H3
Instrument: LTQ Orbitrap XL Thermo Scientific
Instrument type: LC-ESI-ITFT
Ms type: MS2
Ion mode: POSITIVE
Ionization: ESI
Fragmentation mode: HCD
Collision energy: 140% (nominal)
Resolution: 15000
Column name: Kinetex Evo C18 2.6 um 50 x 2.1 mm
Retention time: 8.178 min
Base peak: 296.1467
Precursor m/z: 296.1467
Precursor type: [M+H]+
m/z	relative intensity	assigned
58.0648	61	C3H8N+
65.0383	37	C5H5+
77.0384	16	C6H5+
79.054	7	C6H7+
89.0385	7	C7H5+
91.0542	262	C7H7+
103.054	11	C8H7+
105.0446	25	C6H5N2+
115.0542	252	C9H7+
116.0621	12	C9H8+
117.0698	8	C9H9+
121.0109	15	C7H5S+
128.062	67	C10H8+
129.0705	5	C10H9+
134.0183	19	C8H6S+
139.0541	18	C11H7+
141.07	30	C11H9+
147.0261	20	C9H7S+
151.0539	11	C12H7+
152.062	74	C12H8+
155.0602	14	C10H7N2+
163.0543	8	C13H7+
164.0619	34	C13H8+
165.0698	218	C13H9+
169.0653	6	C12H9O+
176.0621	75	C14H8+
177.07	57	C14H9+
178.0777	347	C14H10+
179.085	6	C14H11+
184.0338	7	C12H8S+
189.0699	147	C15H9+
190.0773	36	C15H10+
191.0854	63	C15H11+
200.0622	23	C16H8+
201.0699	59	C16H9+
202.0777	999	C16H10+
203.0857	45	C16H11+
208.034	58	C14H8S+
213.0701	9	C17H9+
214.0768	7	C17H10+
215.0854	310	C17H11+
216.0929	28	C17H12+
217.1002	13	C17H13+
219.0261	6	C15H7S+
220.0343	25	C15H8S+
221.0419	488	C15H9S+
229.076	12	C16H9N2+
233.0417	15	C16H9S+
234.0497	113	C16H10S+
235.0569	9	C16H11S+
