Mass spectrum: Sulfamethoxazole; LC-ESI-ITFT; MS2; CE: 15%; R=15000; [M+H]+
Name: Sulfamethoxazole
Name: 4-amino-N-(5-methyl-1,2-oxazol-3-yl)benzenesulfonamide
Formula: C10H11N3O3S
Exact mass: 253.0521
SMILES: CC1=CC(=NO1)NS(=O)(=O)C2=CC=C(C=C2)N
InChI: InChI=1S/C10H11N3O3S/c1-7-6-10(12-16-7)13-17(14,15)9-4-2-8(11)3-5-9/h2-6H,11H2,1H3,(H,12,13)
Instrument: LTQ Orbitrap XL Thermo Scientific
Instrument type: LC-ESI-ITFT
Ms type: MS2
Ion mode: POSITIVE
Ionization: ESI
Fragmentation mode: HCD
Collision energy: 15% (nominal)
Resolution: 15000
Column name: Kinetex Evo C18 2.6 um 50 x 2.1 mm
Retention time: 5.487 min
Base peak: 189.102
Precursor m/z: 254.0594
Precursor type: [M+H]+
m/z	relative intensity	assigned
92.0495	2	C6H6N+
93.0573	1	C6H7N+
94.0652	2	C6H8N+
99.0551	2	C4H7N2O+
108.0444	5	C6H6NO+
146.0712	1	C8H8N3+
147.0791	6	C8H9N3+
156.0113	30	C6H6NO2S+
160.0869	5	C9H10N3+
188.0816	11	C10H10N3O+
190.0973	13	C10H12N3O+
194.0376	4	C8H8N3OS+
236.0491	3	C10H10N3O2S+
254.0592	999	C10H12N3O3S+
