Mass spectrum: Metoclopramide; LC-ESI-QTOF; MS2; CE: 35 eV; R=3600; [M+H]+
Name: Metoclopramide
Name: 4-Amino-5-chloro-N-[2-(diethylamino)ethyl]-2-methoxybenzamide
Formula: C14H22ClN3O2
Exact mass: 299.1401
SMILES: CCN(CC)CCNC(=O)C1=CC(Cl)=C(N)C=C1OC
InChI: InChI=1S/C14H22ClN3O2/c1-4-18(5-2)7-6-17-14(19)10-8-11(15)12(16)9-13(10)20-3/h8-9H,4-7,16H2,1-3H3,(H,17,19)
Instrument: 6626 QTOF Agilent
Instrument type: LC-ESI-QTOF
Ms type: MS2
Ion mode: POSITIVE
Ionization: ESI
Fragmentation mode: CID
Collision energy: 35 eV
Resolution: 3600
Precursor m/z: 300.1474
Precursor type: [M+H]+
m/z	relative intensity
63.0232	59
78.0341	157
90.0335	207
93.057	78
113.0018	329
126.0096	129
128.0255	57
140.9965	468
148.0626	66
156.0198	119
168.0071	318
168.9924	168
170.0001	67
183.0307	201
184.015	999
212.0335	267
227.0578	240
