Mass spectrum: Palitantin; LC-ESI-ITFT; MS2; CE: 20%; R=7500; [M+H]+
Name: Palitantin
Name: 5-hepta-1,3-dienyl-2,3-dihydroxy-6-(hydroxymethyl)cyclohexan-1-one
Formula: C14H22O4
Exact mass: 254.1518
SMILES: CCCC=CC=CC1CC(C(C(=O)C1CO)O)O
InChI: InChI=1S/C14H22O4/c1-2-3-4-5-6-7-10-8-12(16)14(18)13(17)11(10)9-15/h4-7,10-12,14-16,18H,2-3,8-9H2,1H3
Instrument: LTQ Orbitrap XL Thermo Scientific
Instrument type: LC-ESI-ITFT
Ms type: MS2
Ion mode: POSITIVE
Ionization: ESI
Fragmentation mode: HCD
Collision energy: 20 % (nominal)
Resolution: 7500
Column name: Hypersil GOLD C18 1.9 um 100 x 2.1 mm Thermo Fisher Scientific
Retention time: 17.930 min
Base peak: 277.1413
Precursor m/z: 255.1591
Precursor type: [M+H]+
Precursor intensity: 778690.8859863
m/z	relative intensity	assigned
159.1165	76	C12H15+
173.1324	337	C13H17+
191.143	239	C13H19O+
193.1221	925	C12H17O2+
201.1268	460	C14H17O+
211.1324	118	C12H19O3+
219.138	598	C14H19O2+
237.1483	999	C14H21O3+
255.1589	822	C14H23O4+
