Mass spectrum: Etilefrine; LC-ESI-ITFT; MS2; CE: 175%; R=15000; [M+H]+
Name: Etilefrine
Name: 3-[2-(ethylamino)-1-hydroxyethyl]phenol
Formula: C10H15NO2
Exact mass: 181.1103
SMILES: CCNCC(C1=CC(=CC=C1)O)O
InChI: InChI=1S/C10H15NO2/c1-2-11-7-10(13)8-4-3-5-9(12)6-8/h3-6,10-13H,2,7H2,1H3
Instrument: LTQ Orbitrap XL Thermo Scientific
Instrument type: LC-ESI-ITFT
Ms type: MS2
Ion mode: POSITIVE
Ionization: ESI
Fragmentation mode: HCD
Collision energy: 175% (nominal)
Resolution: 15000
Column name: Kinetex Evo C18 2.6 um 50 x 2.1 mm
Retention time: 0.605 min
Base peak: 182.1176
Precursor m/z: 182.1176
Precursor type: [M+H]+
m/z	relative intensity	assigned
53.0383	30	C4H5+
65.0384	999	C5H5+
66.0461	39	C5H6+
75.0228	28	C6H3+
77.0385	269	C6H5+
79.0542	166	C6H7+
89.0384	89	C7H5+
90.0464	67	C7H6+
91.0542	844	C7H7+
92.0491	53	C6H6N+
94.0413	144	C6H6O+
95.049	54	C6H7O+
105.0447	275	C6H5N2+
106.0651	77	C7H8N+
107.0491	295	C7H7O+
116.0489	32	C8H6N+
117.0571	75	C8H7N+
118.0651	39	C8H8N+
120.0443	33	C7H6NO+
134.0598	35	C8H8NO+
