Mass spectrum: Brefeldin A; LC-ESI-ITFT; MS2; CE: 15%; R=7500; [M+H]+
Name: Brefeldin A
Name: 12,15-Dihydroxy-7-methyl-8-oxabicyclo[11.3.0]hexadeca-2,10-dien-9-one
Name: 2,15-dihydroxy-7-methyl-6-oxabicyclo[11.3.0]hexadeca-3,11-dien-5-one
Formula: C16H24O4
Exact mass: 280.1675
SMILES: CC1CCCC=CC2CC(CC2C(C=CC(=O)O1)O)O
InChI: InChI=1S/C16H24O4/c1-11-5-3-2-4-6-12-9-13(17)10-14(12)15(18)7-8-16(19)20-11/h4,6-8,11-15,17-18H,2-3,5,9-10H2,1H3
Instrument: LTQ Orbitrap XL Thermo Scientific
Instrument type: LC-ESI-ITFT
Ms type: MS2
Ion mode: POSITIVE
Ionization: ESI
Fragmentation mode: HCD
Collision energy: 15 % (nominal)
Resolution: 7500
Column name: Hypersil GOLD C18 1.9 um 100 x 2.1 mm Thermo Fisher Scientific
Retention time: 18.606 min
Base peak: 561.3436
Precursor m/z: 281.1747
Precursor type: [M+H]+
Precursor intensity: 7882021.0625
m/z	relative intensity	assigned
199.1482	82	C15H19+
217.1594	82	C15H21O+
245.1541	258	C16H21O2+
263.164	264	C16H23O3+
281.1746	999	C16H25O4+
