Mass spectrum: Phenazone; LC-ESI-QFT; MS2; CE: CE45; R=17500; [M+H]+
Name: Phenazone
Name: Antipyrine
Name: 1,5-dimethyl-2-phenylpyrazol-3-one
Formula: C11H12N2O
Exact mass: 188.0950
SMILES: CN1N(C(=O)C=C1C)C1=CC=CC=C1
InChI: InChI=1S/C11H12N2O/c1-9-8-11(14)13(12(9)2)10-6-4-3-5-7-10/h3-8H,1-2H3
Instrument: Q Exactive Thermo Fisher Scientific
Instrument type: LC-ESI-QFT
Ms type: MS2
Ion mode: POSITIVE
Ionization: ESI
Fragmentation mode: HCD
Collision energy: CE45
Resolution: 17500
Column name: Acquity UPLC BEH C18 1.7 um, 2.1 x 150 mm, Waters
Retention time: 16.045 min
Base peak: 223.0628
Precursor m/z: 189.1022
Precursor type: [M+H]+
m/z	relative intensity	assigned
50.0156	29	C4H2+
51.0234	93	C4H3+
53.0025	24	C3HO+
53.0391	135	C4H5+
54.0342	18	C3H4N+
55.018	23	C3H3O+
55.0421	9	C3H5N+
56.0497	999	C3H6N+
58.0654	132	C3H8N+
63.0233	4	C5H3+
65.0386	184	C5H5+
66.0469	7	C5H6+
67.0183	4	C4H3O+
67.0542	5	C5H7+
68.0496	15	C4H6N+
69.0575	14	C4H7N+
77.0385	82	C6H5+
78.0464	49	C6H6+
79.0542	95	C6H7+
80.0497	14	C5H6N+
81.0335	23	C5H5O+
81.0447	34	C4H5N2+
82.0288	5	C4H4NO+
89.0386	20	C7H5+
90.0343	6	C6H4N+
90.0465	12	C7H6+
91.0542	151	C7H7+
92.0498	18	C6H6N+
93.0575	19	C6H7N+
94.0653	14	C6H8N+
95.0491	628	C6H7O+
95.0606	36	C5H7N2+
96.0682	7	C5H8N2+
98.0602	21	C5H8NO+
102.0463	37	C8H6+
103.0543	74	C8H7+
104.0498	177	C7H6N+
105.0446	142	C6H5N2+
105.056	7	C7H7N+
106.0651	148	C7H8N+
115.0547	107	C9H7+
117.0578	66	C8H7N+
117.07	26	C9H9+
118.0649	49	C8H8N+
120.0805	6	C8H10N+
128.0495	21	C9H6N+
129.0575	18	C9H7N+
130.0658	122	C9H8N+
131.0606	123	C8H7N2+
131.0724	11	C9H9N+
132.0443	6	C8H6NO+
132.0686	42	C8H8N2+
134.0474	5	C7H6N2O+
143.0742	9	C10H9N+
144.0811	11	C10H10N+
145.0656	7	C10H9O+
145.0767	44	C9H9N2+
146.0601	11	C9H8NO+
146.0836	6	C9H10N2+
147.0921	9	C9H11N2+
173.0708	6	C10H9N2O+
