Mass spectrum: 3 Acetyldeoxynivalenol; LC-ESI-ITFT; MS2; CE: 50%; R=7500; [M+H]+
Name: 3 Acetyldeoxynivalenol
Name: Acetyldeoxynivalenol
Name: [3-hydroxy-2-(hydroxymethyl)-1,5-dimethyl-4-oxospiro[8-oxatricyclo[7.2.1.02,7]dodec-5-ene-12,2`-oxirane]-10-yl] acetate
Formula: C17H22O7
Exact mass: 338.1366
SMILES: CC1=CC2C(C(C1=O)O)(C3(CC(C(C34CO4)O2)OC(=O)C)C)CO
InChI: InChI=1S/C17H22O7/c1-8-4-11-16(6-18,13(21)12(8)20)15(3)5-10(23-9(2)19)14(24-11)17(15)7-22-17/h4,10-11,13-14,18,21H,5-7H2,1-3H3
Instrument: LTQ Orbitrap XL Thermo Scientific
Instrument type: LC-ESI-ITFT
Ms type: MS2
Ion mode: POSITIVE
Ionization: ESI
Fragmentation mode: HCD
Collision energy: 50 % (nominal)
Resolution: 7500
Column name: Hypersil GOLD C18 1.9 um 100 x 2.1 mm Thermo Fisher Scientific
Retention time: 10.782 min
Base peak: 339.1435
Precursor m/z: 339.1438
Precursor type: [M+H]+
Precursor intensity: 14418024.08105
m/z	relative intensity	assigned
79.0541	17	C6H7+
81.0698	30	C6H9+
93.0697	13	C7H9+
95.0492	11	C6H7O+
97.0644	19	C6H9O+
105.0694	12	C8H9+
107.0491	66	C7H7O+
109.0646	147	C7H9O+
111.0437	8	C6H7O2+
117.0696	14	C9H9+
119.0852	9	C9H11+
121.0647	43	C8H9O+
123.0442	76	C7H7O2+
125.0596	261	C7H9O2+
129.0696	14	C10H9+
131.0855	35	C10H11+
133.0647	51	C9H9O+
133.1017	11	C10H13+
135.044	38	C8H7O2+
135.0799	53	C9H11O+
137.0595	427	C8H9O2+
143.0849	31	C11H11+
145.0649	47	C10H9O+
145.101	58	C11H13+
147.0803	78	C10H11O+
147.1166	10	C11H15+
149.0594	43	C9H9O2+
149.0961	32	C10H13O+
151.0385	42	C8H7O3+
151.0751	23	C9H11O2+
153.0541	111	C8H9O3+
154.0783	11	C12H10+
155.0856	17	C12H11+
157.0646	13	C11H9O+
157.101	149	C12H13+
159.0801	129	C11H11O+
159.1163	112	C12H15+
161.0594	119	C10H9O2+
161.0962	91	C11H13O+
162.0676	14	C10H10O2+
163.075	239	C10H11O2+
165.0906	42	C10H13O2+
167.0855	29	C13H11+
169.1009	99	C13H13+
170.0727	15	C12H10O+
171.0802	67	C12H11O+
172.0874	12	C12H12O+
173.0959	261	C12H13O+
174.0669	28	C11H10O2+
175.075	475	C11H11O2+
175.1116	119	C12H15O+
177.0906	119	C11H13O2+
179.0697	39	C10H11O3+
179.0854	16	C14H11+
182.0724	12	C13H10O+
183.0802	30	C13H11O+
185.0957	342	C13H13O+
187.075	60	C12H11O2+
187.1115	238	C13H15O+
188.0828	24	C12H12O2+
189.0907	374	C12H13O2+
191.0704	29	C11H11O3+
191.1066	35	C12H15O2+
193.0856	81	C11H13O3+
195.0801	58	C14H11O+
197.0958	159	C14H13O+
198.0675	65	C13H10O2+
201.0907	385	C13H13O2+
203.1063	999	C13H15O2+
205.0853	127	C12H13O3+
205.1225	35	C13H17O2+
207.1006	18	C12H15O3+
213.0907	893	C14H13O2+
215.1063	363	C14H15O2+
216.0791	9	C13H12O3+
217.0856	18	C13H13O3+
219.1011	216	C13H15O3+
221.1182	16	C13H17O3+
223.0963	100	C12H15O4+
225.0903	74	C15H13O2+
231.1012	905	C14H15O3+
233.1171	87	C14H17O3+
243.101	185	C15H15O3+
249.112	101	C14H17O4+
261.1114	150	C15H17O4+
279.1222	457	C15H19O5+
293.138	11	C16H21O5+
297.1326	69	C15H21O6+
321.1333	62	C17H21O6+
339.1449	11	C17H23O7+
