Mass spectrum: Cyclopenin; LC-ESI-ITFT; MS2; CE: 40%; R=7500; [M+H]+
Name: Cyclopenin
Name: 4-methyl-3`-phenylspiro[1H-1,4-benzodiazepine-3,2`-oxirane]-2,5-dione
Formula: C17H14N2O3
Exact mass: 294.1004
SMILES: CN1C(=O)C2=CC=CC=C2NC(=O)C13C(O3)C4=CC=CC=C4
InChI: InChI=1S/C17H14N2O3/c1-19-15(20)12-9-5-6-10-13(12)18-16(21)17(19)14(22-17)11-7-3-2-4-8-11/h2-10,14H,1H3,(H,18,21)
Instrument: LTQ Orbitrap XL Thermo Scientific
Instrument type: LC-ESI-ITFT
Ms type: MS2
Ion mode: POSITIVE
Ionization: ESI
Fragmentation mode: HCD
Collision energy: 40 % (nominal)
Resolution: 7500
Column name: Hypersil GOLD C18 1.9 um 100 x 2.1 mm Thermo Fisher Scientific
Retention time: 15.046 min
Base peak: 295.1086
Precursor m/z: 295.1077
Precursor type: [M+H]+
Precursor intensity: 25511948.48047
m/z	relative intensity	assigned
105.0332	4	C7H5O+
118.0653	6	C8H8N+
120.0445	98	C7H6NO+
120.0811	12	C8H10N+
132.0445	30	C8H6NO+
132.0808	4	C9H10N+
145.0288	4	C9H5O2+
146.0238	999	C8H4NO2+
148.0396	2	C8H6NO2+
148.0758	2	C9H10NO+
158.0603	1	C10H8NO+
159.0553	5	C9H7N2O+
161.0711	9	C9H9N2O+
177.0659	468	C9H9N2O2+
178.0499	1	C9H8NO3+
180.0815	1	C13H10N+
182.0964	21	C13H12N+
194.096	2	C14H12N+
208.0758	71	C14H10NO+
210.0911	9	C14H12NO+
218.0601	2	C15H8NO+
220.076	5	C15H10NO+
223.1234	4	C15H15N2+
236.0708	108	C15H10NO2+
238.0859	3	C15H12NO2+
239.1186	3	C15H15N2O+
249.1026	13	C16H13N2O+
251.1175	2	C16H15N2O+
254.081	1	C15H12NO3+
264.0655	7	C16H10NO3+
267.1134	7	C16H15N2O2+
295.1081	2	C17H15N2O3+
