Mass spectrum: Mefruside; ESI-QTOF; MS2; CE: 45eV; R=15000; [M+H]+
Name: Mefruside
Name: 4-Chloro-N1-methyl-N1-[(2-methyloxolan-2-yl)methyl]benzene-1,3-disulfonamide
Formula: C13H19ClN2O5S2
Exact mass: 382.0424
SMILES: CN(CC1(C)CCCO1)S(=O)(=O)C1=CC=C(Cl)C(=C1)S(N)(=O)=O
InChI: InChI=1S/C13H19ClN2O5S2/c1-13(6-3-7-21-13)9-16(2)23(19,20)10-4-5-11(14)12(8-10)22(15,17)18/h4-5,8H,3,6-7,9H2,1-2H3,(H2,15,17,18)
Instrument: TripleTOF 5600+SCIEX
Instrument type: ESI-QTOF
Ms type: MS2
Ion mode: POSITIVE
Ionization: ESI
Fragmentation mode: CID
Collision energy: 45 eV
Resolution: 15000
Precursor m/z: 383.0497
Precursor type: [M+H]+
m/z	relative intensity
51.0271	3
53.0419	19
55.0569	37
56.0528	3
57.0362	122
58.0312	2
58.0679	5
62.0082	14
65.041	11
66.0483	7
68.0507	7
69.0719	72
70.0673	11
71.0877	21
72.0818	2
72.9847	7
73.054	4
74.017	4
77.0404	28
78.0358	3
79.056	233
80.0529	3
81.0036	3
81.0717	844
82.0669	9
83.0516	3
83.0858	3
84.0047	5
84.0825	999
84.9865	2
85.0651	4
86.0617	157
87.0712	3
88.9786	2
90.0345	4
91.0188	3
92.0502	2
93.0714	4
94.0665	15
95.0746	23
96.0821	111
97.066	14
98.0069	2
98.0981	11
99.0005	15
99.0817	264
100.0761	4
100.9798	1
101.0162	12
102.012	1
104.0512	4
105.0577	3
106.0295	7
107.0131	4
108.0808	5
108.9849	133
110.0975	60
111.1055	31
111.9944	5
112.1131	32
112.9794	10
114.0113	14
114.9955	50
116.9569	38
119.0856	6
119.9679	17
122.0232	3
123.9954	11
126.0109	7
126.9955	6
128.108	104
129.1157	419
130.0032	2
131.0016	2
135.0807	2
136.9929	4
139.9906	26
140.9747	86
142.0063	195
142.9903	571
143.9679	18
144.9515	19
146.9658	4
153.9971	2
155.0075	1
156.0219	67
156.9507	2
171.9637	4
172.9468	131
174.9639	3
176.9396	1
189.9736	339
190.9571	8
201.9641	4
203.9894	242
205.9678	2
207.9839	59
208.9165	2
209.9453	3
217.9798	738
218.9764	9
219.9822	2
221.999	3
223.9591	2
225.9433	3
231.9952	5
237.9418	7
253.9358	584
254.9172	1
267.9516	152
284.9783	77
296.9783	29
337.0118	1
