Mass spectrum: Etilefrine; LC-ESI-ITFT; MS2; CE: 180%; R=15000; [M+H]+
Name: Etilefrine
Name: 3-[2-(ethylamino)-1-hydroxyethyl]phenol
Formula: C10H15NO2
Exact mass: 181.1103
SMILES: CCNCC(C1=CC(=CC=C1)O)O
InChI: InChI=1S/C10H15NO2/c1-2-11-7-10(13)8-4-3-5-9(12)6-8/h3-6,10-13H,2,7H2,1H3
Instrument: LTQ Orbitrap XL Thermo Scientific
Instrument type: LC-ESI-ITFT
Ms type: MS2
Ion mode: POSITIVE
Ionization: ESI
Fragmentation mode: HCD
Collision energy: 180% (nominal)
Resolution: 15000
Column name: Kinetex Evo C18 2.6 um 50 x 2.1 mm
Retention time: 0.473 min
Base peak: 182.1177
Precursor m/z: 182.1176
Precursor type: [M+H]+
m/z	relative intensity	assigned
55.0176	20	C3H3O+
63.0227	47	C5H3+
65.0384	999	C5H5+
66.0463	60	C5H6+
67.0415	11	C4H5N+
75.0229	29	C6H3+
77.0386	260	C6H5+
78.0466	14	C6H6+
79.0542	153	C6H7+
80.0495	36	C5H6N+
81.0336	10	C5H5O+
89.0387	87	C7H5+
90.0464	77	C7H6+
91.0543	741	C7H7+
92.0495	42	C6H6N+
93.0332	9	C6H5O+
93.0572	13	C6H7N+
94.0414	129	C6H6O+
95.0491	55	C6H7O+
105.0448	248	C6H5N2+
106.0651	59	C7H8N+
107.0492	274	C7H7O+
116.0494	22	C8H6N+
117.0574	69	C8H7N+
118.0416	7	C8H6O+
118.0652	28	C8H8N+
120.0447	16	C7H6NO+
133.0523	27	C8H7NO+
134.06	41	C8H8NO+
144.0554	9	C8H6N3+
