Mass spectrum: Dehydrocyclopeptine; LC-ESI-ITFT; MS2; CE: 30%; R=7500; [M+H]+
Name: Dehydrocyclopeptine
Name: 1H-1,4-Benzodiazepine-2,5-dione, 3-benzylidene-3,4-dihydro-4-methyl-
Name: 3-benzylidene-4-methyl-1H-1,4-benzodiazepine-2,5-dione
Formula: C17H14N2O2
Exact mass: 278.1055
SMILES: CN1C(=CC2=CC=CC=C2)C(=O)NC3=CC=CC=C3C1=O
InChI: InChI=1S/C17H14N2O2/c1-19-15(11-12-7-3-2-4-8-12)16(20)18-14-10-6-5-9-13(14)17(19)21/h2-11H,1H3,(H,18,20)
Instrument: LTQ Orbitrap XL Thermo Scientific
Instrument type: LC-ESI-ITFT
Ms type: MS2
Ion mode: POSITIVE
Ionization: ESI
Fragmentation mode: HCD
Collision energy: 30 % (nominal)
Resolution: 7500
Column name: Hypersil GOLD C18 1.9 um 100 x 2.1 mm Thermo Fisher Scientific
Retention time: 17.684 min
Base peak: 279.1134
Precursor m/z: 279.1128
Precursor type: [M+H]+
Precursor intensity: 10369763.57202
m/z	relative intensity	assigned
56.0258	6	C3H4O+
56.0831	5	CH12O2+
91.0543	770	C7H7+
120.0445	960	C7H6NO+
130.0652	203	C9H8N+
132.0808	999	C9H10N+
148.0395	78	C8H6NO2+
161.0711	117	C9H9N2O+
194.0964	30	C14H12N+
222.0915	20	C15H12NO+
261.1019	78	C17H13N2O+
279.1132	90	C17H15N2O2+
