Mass spectrum: Metoclopramide; LC-ESI-ITFT; MS2; CE: 130%; R=15000; [M+H]+
Name: Metoclopramide
Name: 4-amino-5-chloro-N-[2-(diethylamino)ethyl]-2-methoxybenzamide
Formula: C14H22ClN3O2
Exact mass: 299.1401
SMILES: CCN(CC)CCNC(=O)C1=CC(=C(C=C1OC)N)Cl
InChI: InChI=1S/C14H22ClN3O2/c1-4-18(5-2)7-6-17-14(19)10-8-11(15)12(16)9-13(10)20-3/h8-9H,4-7,16H2,1-3H3,(H,17,19)
Instrument: LTQ Orbitrap XL Thermo Scientific
Instrument type: LC-ESI-ITFT
Ms type: MS2
Ion mode: POSITIVE
Ionization: ESI
Fragmentation mode: HCD
Collision energy: 130% (nominal)
Resolution: 15000
Column name: Kinetex Evo C18 2.6 um 50 x 2.1 mm
Retention time: 2.844 min
Base peak: 300.1474
Precursor m/z: 300.1473
Precursor type: [M+H]+
m/z	relative intensity	assigned
63.0227	94	C5H3+
65.0384	21	C5H5+
72.9839	13	C3H2Cl+
75.0227	3	C6H3+
78.0338	394	C5H4N+
80.0493	5	C5H6N+
90.0338	285	C6H4N+
91.0416	16	C6H5N+
92.0495	16	C6H6N+
93.0573	80	C6H7N+
98.9996	108	C5H4Cl+
105.0447	74	C6H5N2+
106.0287	6	C6H4NO+
108.0444	45	C6H6NO+
113.0027	999	C5H4ClN+
114.0106	14	C5H5ClN+
119.0604	8	C7H7N2+
120.0443	15	C7H6NO+
126.0105	55	C6H5ClN+
127.0184	26	C6H6ClN+
128.0261	23	C6H7ClN+
129.0101	19	C6H6ClO+
133.0398	7	C7H5N2O+
139.0059	10	C6H4ClN2+
140.0136	61	C6H5ClN2+
140.9976	634	C6H4ClNO+
142.0055	6	C6H5ClNO+
144.0211	12	C6H7ClNO+
153.0214	6	C7H6ClN2+
154.0055	24	C7H5ClNO+
156.021	27	C7H7ClNO+
168.0085	256	C7H5ClN2O+
168.9925	56	C7H4ClNO2+
170.0004	19	C7H5ClNO2+
184.016	65	C8H7ClNO2+
187.0033	19	C7H6ClNO3+
