Mass spectrum: Nylidrin; LC-ESI-QTOF; MS2; CE: 45 eV; R=3600; [M+H]+
Name: Nylidrin
Name: 4-{1-Hydroxy-2-[(4-phenylbutan-2-yl)amino]propyl}phenol
Formula: C19H25NO2
Exact mass: 299.1885
SMILES: CC(CCC1=CC=CC=C1)NC(C)C(O)C1=CC=C(O)C=C1
InChI: InChI=1S/C19H25NO2/c1-14(8-9-16-6-4-3-5-7-16)20-15(2)19(22)17-10-12-18(21)13-11-17/h3-7,10-15,19-22H,8-9H2,1-2H3
Instrument: 6638 QTOF Agilent
Instrument type: LC-ESI-QTOF
Ms type: MS2
Ion mode: POSITIVE
Ionization: ESI
Fragmentation mode: CID
Collision energy: 45 eV
Resolution: 3600
Precursor m/z: 300.1959
Precursor type: [M+H]+
m/z	relative intensity
65.037	207
77.0359	174
79.0519	139
91.0511	999
103.0507	114
105.0663	314
107.0452	75
133.059	70
