Mass spectrum: Chlorotoluron-desmethyl (TENTATIVE); LC-ESI-QFT; MS2; CE: 42%; R=70000; [M-H]-
Name: Chlorotoluron-desmethyl
Name: 1-(3-chloro-4-methylphenyl)-3-methylurea
Formula: C9H11ClN2O
Exact mass: 198.056
SMILES: CC1=C(C=C(C=C1)NC(=O)NC)Cl
InChI: InChI=1S/C9H11ClN2O/c1-6-3-4-7(5-8(6)10)12-9(13)11-2/h3-5H,1-2H3,(H2,11,12,13)
Instrument: Q Exactive Plus Orbitrap Thermo Scientific
Instrument type: LC-ESI-QFT
Ms type: MS2
Ion mode: NEGATIVE
Ionization: ESI
Fragmentation mode: HCD
Collision energy: 42% (nominal) with stepped collision energies 30% and 55%
Resolution: 70000
Column name: Phenomenex Synergi Polar-RP 2.5 um 100 mm x 3 mm with pre-column
Retention time: 10.02
Precursor m/z: 197.049
Precursor type: [M-H]-
m/z	relative intensity
90.9817	3
140.0275	999
197.0491	12
