Mass spectrum: Amiloride; LC-ESI-QTOF; MS2; CE: 15 eV; R=3600; [M+H]+
Name: Amiloride
Name: 3,5-Diamino-N-carbamimidoyl-6-chloropyrazine-2-carboxamide
Formula: C6H8ClN7O
Exact mass: 229.0479
SMILES: NC(=N)NC(=O)C1=NC(Cl)=C(N)N=C1N
InChI: InChI=1S/C6H8ClN7O/c7-2-4(9)13-3(8)1(12-2)5(15)14-6(10)11/h(H4,8,9,13)(H4,10,11,14,15)
Instrument: 6531 QTOF Agilent
Instrument type: LC-ESI-QTOF
Ms type: MS2
Ion mode: POSITIVE
Ionization: ESI
Fragmentation mode: CID
Collision energy: 15 eV
Resolution: 3600
Precursor m/z: 230.0552
Precursor type: [M+H]+
m/z	relative intensity
60.0564	857
63.9958	201
88.9903	116
100.9895	51
108.0423	154
116.0009	789
143.0118	300
171.006	999
230.0552	172
