Mass spectrum: Dothiepin; LC-ESI-ITFT; MS2; CE: 80%; R=7500; [M+H]+
Name: Dothiepin
Name: 3-(Dibenzo[b,e]thiepin-11(6H)-ylidene)-N,N-dimethylpropan-1-amine
Formula: C19H21NS
Exact mass: 295.1395
SMILES: CN(C)CCC=C1C2=CC=CC=C2CSC2=C1C=CC=C2
InChI: InChI=1S/C19H21NS/c1-20(2)13-7-11-17-16-9-4-3-8-15(16)14-21-19-12-6-5-10-18(17)19/h3-6,8-12H,7,13-14H2,1-2H3
Instrument: LTQ Orbitrap XL Thermo Fisher Scientific
Instrument type: LC-ESI-ITFT
Ms type: MS2
Ion mode: POSITIVE
Ionization: ESI
Fragmentation mode: HCD
Collision energy: 80% (nominal)
Resolution: 7500
Column name: Hypersil GOLD C18 1.9 um 100 x 2.1 mm Thermo Fisher Scientific
Precursor m/z: 296.1468
Precursor type: [M+H]+
m/z	relative intensity
57.1465	3
57.1694	3
58.065	57
70.065	5
84.0806	20
91.0541	222
103.0543	10
115.0542	166
117.0698	455
123.0263	189
128.0621	15
129.0698	92
135.0262	40
141.0699	76
142.0778	44
147.0264	192
159.0255	3
165.0698	248
173.042	51
178.0778	430
179.0855	145
181.1009	7
189.0698	13
190.0777	33
191.0856	199
192.0935	221
197.0423	18
202.0778	255
203.0858	999
204.0933	45
205.1011	12
208.0341	46
209.0422	102
210.05	322
211.0577	9
215.0858	55
216.0937	36
217.1014	772
218.1093	471
221.0423	686
222.0501	331
223.0579	617
224.065	7
225.0734	58
234.05	60
235.058	202
236.0657	85
249.073	18
273.8044	10
