Mass spectrum: Nylidrin; ESI-QTOF; MS2; CE: 50eV; R=15000; [M+H]+
Name: Nylidrin
Name: 4-{1-Hydroxy-2-[(4-phenylbutan-2-yl)amino]propyl}phenol
Formula: C19H25NO2
Exact mass: 299.1885
SMILES: CC(CCC1=CC=CC=C1)NC(C)C(O)C1=CC=C(O)C=C1
InChI: InChI=1S/C19H25NO2/c1-14(8-9-16-6-4-3-5-7-16)20-15(2)19(22)17-10-12-18(21)13-11-17/h3-7,10-15,19-22H,8-9H2,1-2H3
Instrument: TripleTOF 5600+SCIEX
Instrument type: ESI-QTOF
Ms type: MS2
Ion mode: POSITIVE
Ionization: ESI
Fragmentation mode: CID
Collision energy: 50 eV
Resolution: 15000
Precursor m/z: 300.1959
Precursor type: [M+H]+
m/z	relative intensity
50.0177	1
51.0252	4
55.02	8
56.0515	21
57.0355	5
62.0169	1
63.0244	2
65.04	46
77.0395	48
79.055	70
81.0705	5
89.0387	1
90.047	1
91.0144	1
91.0547	999
92.0504	1
93.033	1
94.0415	5
95.0493	7
102.0463	2
103.0541	107
104.0618	1
105.0699	722
106.065	3
107.0489	88
108.0568	3
109.0646	25
115.0539	52
116.0613	1
117.057	9
118.0647	3
120.0438	9
121.0644	3
122.0596	2
127.0538	1
130.0646	1
131.0486	22
132.0561	6
133.0642	386
134.0594	14
135.0673	72
145.0644	1
148.0747	1
149.0829	1
150.0905	190
151.0745	3
162.0902	1
