Mass spectrum: Ethambutol; LC-ESI-ITFT; MS2; CE: 100%; R=15000; [M+H]+
Name: Ethambutol
Name: 2-[2-(1-hydroxybutan-2-ylamino)ethylamino]butan-1-ol
Formula: C10H24N2O2
Exact mass: 204.1838
SMILES: CCC(CO)NCCNC(CC)CO
InChI: InChI=1S/C10H24N2O2/c1-3-9(7-13)11-5-6-12-10(4-2)8-14/h9-14H,3-8H2,1-2H3
Instrument: LTQ Orbitrap XL Thermo Scientific
Instrument type: LC-ESI-ITFT
Ms type: MS2
Ion mode: POSITIVE
Ionization: ESI
Fragmentation mode: HCD
Collision energy: 100% (nominal)
Resolution: 15000
Column name: Kinetex Evo C18 2.6 um 50 x 2.1 mm
Retention time: 0.540 min
Base peak: 182.1176
Precursor m/z: 205.1911
Precursor type: [M+H]+
m/z	relative intensity	assigned
53.0384	15	C4H5+
55.054	999	C4H7+
56.0493	115	C3H6N+
62.0598	12	C2H8NO+
69.0699	13	C5H9+
70.065	24	C4H8N+
72.0807	32	C4H10N+
74.06	18	C3H8NO+
79.0541	8	C6H7+
91.0543	11	C7H7+
98.0965	64	C6H12N+
116.107	678	C6H14NO+
