Mass spectrum: Equisetin; LC-ESI-ITFT; MS2; CE: 60%; R=7500; [M+H]+
Name: Equisetin
Name: 3-[(1,6-dimethyl-2-prop-1-enyl-4a,5,6,7,8,8a-hexahydro-2H-naphthalen-1-yl)-hydroxymethylidene]-5-(hydroxymethyl)-1-methylpyrrolidine-2,4-dione
Formula: C22H31NO4
Exact mass: 373.2253
SMILES: CC=CC1C=CC2CC(CCC2C1(C)C(=C3C(=O)C(N(C3=O)C)CO)O)C
InChI: InChI=1S/C22H31NO4/c1-5-6-15-9-8-14-11-13(2)7-10-16(14)22(15,3)20(26)18-19(25)17(12-24)23(4)21(18)27/h5-6,8-9,13-17,24,26H,7,10-12H2,1-4H3
Instrument: LTQ Orbitrap XL Thermo Scientific
Instrument type: LC-ESI-ITFT
Ms type: MS2
Ion mode: POSITIVE
Ionization: ESI
Fragmentation mode: HCD
Collision energy: 60 % (nominal)
Resolution: 7500
Column name: Hypersil GOLD C18 1.9 um 100 x 2.1 mm Thermo Fisher Scientific
Retention time: 27.742 min
Base peak: 374.2333
Precursor m/z: 374.2326
Precursor type: [M+H]+
Precursor intensity: 11793795.11377
m/z	relative intensity	assigned
72.2324	34	CH30NO+
81.0698	292	C6H9+
83.0857	29	C6H11+
84.0442	47	C4H6NO+
91.0543	78	C7H7+
93.0701	86	C7H9+
95.0856	185	C7H11+
105.07	338	C8H9+
107.0856	234	C8H11+
109.1011	44	C8H13+
119.0856	709	C9H11+
121.1009	88	C9H13+
126.0553	137	C6H8NO2+
131.0859	63	C10H11+
133.1012	371	C10H13+
135.117	122	C10H15+
140.0343	999	C6H6NO3+
140.0705	149	C7H10NO2+
143.086	31	C11H11+
144.0657	194	C6H10NO3+
145.1012	57	C11H13+
147.1169	275	C11H15+
149.1327	123	C11H17+
152.0342	218	C7H6NO3+
152.0706	200	C8H10NO2+
156.0657	179	C7H10NO3+
157.1008	53	C12H13+
159.1167	72	C12H15+
161.1323	37	C12H17+
163.1479	70	C12H19+
166.0868	61	C9H12NO2+
170.0449	694	C7H8NO4+
170.0814	606	C8H12NO3+
173.1317	78	C13H17+
175.1481	655	C13H19+
177.1645	41	C13H21+
182.0814	47	C9H12NO3+
184.0971	134	C9H14NO3+
187.1478	48	C14H19+
189.1635	78	C14H21+
203.1795	32	C15H23+
213.1631	43	C16H21+
