Mass spectrum: Dosulepin; LC-ESI-ITFT; MS2; CE: 40%; R=15000; [M+H]+
Name: Dosulepin
Name: Dothiepin
Name: 3-(6H-benzo[c][1]benzothiepin-11-ylidene)-N,N-dimethylpropan-1-amine
Formula: C19H21NS
Exact mass: 295.1395
SMILES: CN(C)CCC=C1C2=CC=CC=C2CSC3=CC=CC=C31
InChI: InChI=1S/C19H21NS/c1-20(2)13-7-11-17-16-9-4-3-8-15(16)14-21-19-12-6-5-10-18(17)19/h3-6,8-12H,7,13-14H2,1-2H3
Instrument: LTQ Orbitrap XL Thermo Scientific
Instrument type: LC-ESI-ITFT
Ms type: MS2
Ion mode: POSITIVE
Ionization: ESI
Fragmentation mode: HCD
Collision energy: 40% (nominal)
Resolution: 15000
Column name: Kinetex Evo C18 2.6 um 50 x 2.1 mm
Retention time: 8.351 min
Base peak: 296.1467
Precursor m/z: 296.1467
Precursor type: [M+H]+
m/z	relative intensity	assigned
58.0649	367	C3H8N+
73.0105	5	C3H5S+
84.0807	25	C5H10N+
91.0542	144	C7H7+
105.0699	3	C8H9+
117.0698	344	C9H9+
123.0262	159	C7H7S+
129.0698	16	C10H9+
135.0263	15	C8H7S+
137.0418	3	C8H9S+
141.0698	39	C11H9+
142.0776	31	C11H10+
147.0262	230	C9H7S+
159.0261	5	C10H7S+
173.0419	60	C11H9S+
178.0777	18	C14H10+
179.0853	14	C14H11+
186.1277	3	C13H16N+
191.0855	90	C15H11+
192.0933	30	C15H12+
203.0855	23	C16H11+
204.0933	11	C16H12+
205.1013	14	C16H13+
209.0419	194	C14H9S+
210.0496	11	C14H10S+
211.0578	6	C14H11S+
217.1012	148	C17H13+
218.109	698	C17H14+
221.0419	16	C15H9S+
222.0497	179	C15H10S+
223.0575	640	C15H11S+
225.0731	735	C15H13S+
236.0653	128	C16H12S+
249.0735	19	C17H13S+
251.0888	787	C17H15S+
253.1046	25	C17H17S+
265.1046	4	C18H17S+
296.1467	999	C19H22NS+
