Mass spectrum: Territrem B; LC-ESI-ITFT; MS2; CE: 50%; R=7500; [M+H]+
Name: Territrem B
Name: 1,7-dihydroxy-2,6,6,10-tetramethyl-14-(3,4,5-trimethoxyphenyl)-11,15-dioxatetracyclo[8.8.0.02,7.012,17]octadeca-4,12(17),13-triene-3,16-dione
Formula: C29H34O9
Exact mass: 526.2203
SMILES: CC1(C=CC(=O)C2(C1(CCC3(C2(CC4=C(O3)C=C(OC4=O)C5=CC(=C(C(=C5)OC)OC)OC)O)C)O)C)C
InChI: InChI=1S/C29H34O9/c1-25(2)9-8-22(30)27(4)28(25,32)11-10-26(3)29(27,33)15-17-19(38-26)14-18(37-24(17)31)16-12-20(34-5)23(36-7)21(13-16)35-6/h8-9,12-14,32-33H,10-11,15H2,1-7H3
Instrument: LTQ Orbitrap XL Thermo Scientific
Instrument type: LC-ESI-ITFT
Ms type: MS2
Ion mode: POSITIVE
Ionization: ESI
Fragmentation mode: HCD
Collision energy: 50 % (nominal)
Resolution: 7500
Column name: Hypersil GOLD C18 1.9 um 100 x 2.1 mm Thermo Fisher Scientific
Retention time: 21.132 min
Base peak: 527.228
Precursor m/z: 527.2276
Precursor type: [M+H]+
Precursor intensity: 6556556.929199
m/z	relative intensity	assigned
119.0858	24	C9H11+
123.0079	20	C6H3O3+
141.0178	19	C6H5O4+
143.0852	28	C11H11+
149.0963	148	C10H13O+
154.0625	140	C8H10O3+
157.1008	49	C12H13+
169.0859	114	C9H13O3+
170.1091	43	C13H14+
173.1325	286	C13H17+
175.1113	49	C12H15O+
181.086	324	C10H13O3+
185.1325	140	C14H17+
189.1274	52	C13H17O+
195.0654	999	C10H11O4+
201.1268	46	C14H17O+
209.132	38	C16H17+
213.1278	94	C15H17O+
221.0806	81	C12H13O4+
227.143	40	C16H19O+
237.0758	81	C12H13O5+
237.1273	79	C17H17O+
255.1375	94	C17H19O2+
263.1069	28	C18H15O2+
279.0859	33	C14H15O6+
281.1178	44	C18H17O3+
291.0863	705	C15H15O6+
305.0643	26	C15H13O7+
327.1229	24	C19H19O5+
329.1017	44	C18H17O6+
355.1177	32	C20H19O6+
