Mass spectrum: Dibucaine; LC-ESI-QTOF; MS2; CE: 20 eV; R=3600; [M+H]+
Name: Dibucaine
Name: 2-Butoxy-N-[2-(diethylamino)ethyl]quinoline-4-carboxamide
Formula: C20H29N3O2
Exact mass: 343.226
SMILES: CCCCOC1=CC(C(=O)NCCN(CC)CC)=C2C=CC=CC2=N1
InChI: InChI=1S/C20H29N3O2/c1-4-7-14-25-19-15-17(16-10-8-9-11-18(16)22-19)20(24)21-12-13-23(5-2)6-3/h8-11,15H,4-7,12-14H2,1-3H3,(H,21,24)
Instrument: 6562 QTOF Agilent
Instrument type: LC-ESI-QTOF
Ms type: MS2
Ion mode: POSITIVE
Ionization: ESI
Fragmentation mode: CID
Collision energy: 20 eV
Resolution: 3600
Precursor m/z: 344.2333
Precursor type: [M+H]+
m/z	relative intensity
57.0717	31
74.0976	53
89.041	20
100.1137	59
116.0493	80
117.0561	20
144.0446	241
146.0608	18
153.0449	34
167.0718	16
171.0574	41
172.0391	275
173.0822	25
182.0932	18
187.0859	25
202.1314	16
215.0812	654
216.0825	48
217.0926	16
223.98	16
227.117	28
228.1042	28
229.0932	27
243.1414	16
271.144	999
272.1456	97
344.2333	88
