Mass spectrum: Cyclizine; LC-ESI-ITFT; MS2; CE: 175%; R=15000; [M+H]+
Name: Cyclizine
Name: 1-benzhydryl-4-methylpiperazine
Formula: C18H22N2
Exact mass: 266.1783
SMILES: CN1CCN(CC1)C(C2=CC=CC=C2)C3=CC=CC=C3
InChI: InChI=1S/C18H22N2/c1-19-12-14-20(15-13-19)18(16-8-4-2-5-9-16)17-10-6-3-7-11-17/h2-11,18H,12-15H2,1H3
Instrument: LTQ Orbitrap XL Thermo Scientific
Instrument type: LC-ESI-ITFT
Ms type: MS2
Ion mode: POSITIVE
Ionization: ESI
Fragmentation mode: HCD
Collision energy: 175% (nominal)
Resolution: 15000
Column name: Kinetex Evo C18 2.6 um 50 x 2.1 mm
Retention time: 7.673 min
Base peak: 267.1854
Precursor m/z: 267.1856
Precursor type: [M+H]+
m/z	relative intensity	assigned
63.0227	31	C5H3+
65.0384	60	C5H5+
75.023	6	C6H3+
76.0307	18	C6H4+
77.0385	24	C6H5+
78.0463	42	C6H6+
87.023	10	C7H3+
89.0386	85	C7H5+
91.0542	37	C7H7+
102.0464	133	C8H6+
105.0449	29	C6H5N2+
113.0387	15	C9H5+
115.0543	515	C9H7+
125.0386	11	C10H5+
126.0464	143	C10H6+
127.0543	25	C10H7+
128.0621	193	C10H8+
129.0447	10	C8H5N2+
138.0466	8	C11H6+
139.0542	192	C11H7+
141.0699	26	C11H9+
150.0464	91	C12H6+
151.0543	135	C12H7+
152.0621	457	C12H8+
155.0602	24	C10H7N2+
163.0543	166	C13H7+
164.0621	268	C13H8+
165.0699	999	C13H9+
169.0647	56	C12H9O+
179.0605	84	C12H7N2+
