Mass spectrum: Atrazine-OH (TENTATIVE); LC-ESI-QFT; MS2; CE: 30%; R=70000; [M+H]+
Name: Atrazine-OH
Formula: C8H14ClN5O
Exact mass: 231.0877
SMILES: C(*)C(*)NC1=NC(=NC(=N1)Cl)NC(C*)C* * = [OH (n=1) & H (n=3)]
Instrument: Q Exactive Plus Orbitrap Thermo Scientific
Instrument type: LC-ESI-QFT
Ms type: MS2
Ion mode: POSITIVE
Ionization: ESI
Fragmentation mode: HCD
Collision energy: 30% (nominal)
Resolution: 70000
Column name: Waters UPLC BEH C18 1.7 um 2.1 mm x 100 mm with pre-column
Retention time: 10.56 min
Precursor m/z: 232.0955
Precursor type: [M+H]+
m/z	relative intensity
61.9794	16
67.0543	10
68.0244	144
69.0448	172
71.0604	8
79.0057	250
81.0699	15
87.0553	20
94.04	164
95.0854	14
96.0556	18
104.001	424
105.0214	200
110.0462	16
111.0664	22
112.0505	147
130.0166	141
136.0617	116
145.0278	14
146.0227	52
148.0271	62
172.0384	999
173.0428	22
174.0545	14
190.049	174
214.0855	26
232.0958	20
