Mass spectrum: Sulfamoxole; LC-ESI-ITFT; MS2; CE: 35%; R=15000; [M+H]+
Name: Sulfamoxole
Name: 4-amino-N-(4,5-dimethyl-1,3-oxazol-2-yl)benzenesulfonamide
Formula: C11H13N3O3S
Exact mass: 267.0678
SMILES: CC1=C(OC(=N1)NS(=O)(=O)C2=CC=C(C=C2)N)C
InChI: InChI=1S/C11H13N3O3S/c1-7-8(2)17-11(13-7)14-18(15,16)10-5-3-9(12)4-6-10/h3-6H,12H2,1-2H3,(H,13,14)
Instrument: LTQ Orbitrap XL Thermo Scientific
Instrument type: LC-ESI-ITFT
Ms type: MS2
Ion mode: POSITIVE
Ionization: ESI
Fragmentation mode: CID
Collision energy: 35% (nominal)
Resolution: 15000
Column name: Kinetex Evo C18 2.6 um 50 x 2.1 mm
Retention time: 4.511 min
Base peak: 268.0751
Precursor m/z: 268.075
Precursor type: [M+H]+
m/z	relative intensity	assigned
92.0495	47	C6H6N+
108.0444	104	C6H6NO+
111.0554	22	C5H7N2O+
112.0632	5	C5H8N2O+
113.071	73	C5H9N2O+
140.0165	269	C6H6NOS+
156.0115	546	C6H6NO2S+
158.0269	6	C6H8NO2S+
161.1071	5	C10H13N2+
175.0173	8	C5H7N2O3S+
204.1137	3	C11H14N3O+
268.0752	999	C11H14N3O3S+
