Mass spectrum: Antipyrine; LC-ESI-ITFT; MS2; CE: 150%; R=15000; [M+H]+
Name: Antipyrine
Name: 1,5-dimethyl-2-phenylpyrazol-3-one
Formula: C11H12N2O
Exact mass: 188.0950
SMILES: CC1=CC(=O)N(N1C)C2=CC=CC=C2
InChI: InChI=1S/C11H12N2O/c1-9-8-11(14)13(12(9)2)10-6-4-3-5-7-10/h3-8H,1-2H3
Instrument: LTQ Orbitrap XL Thermo Scientific
Instrument type: LC-ESI-ITFT
Ms type: MS2
Ion mode: POSITIVE
Ionization: ESI
Fragmentation mode: HCD
Collision energy: 150% (nominal)
Resolution: 15000
Column name: Kinetex Evo C18 2.6 um 50 x 2.1 mm
Retention time: 5.578 min
Base peak: 189.1024
Precursor m/z: 189.1022
Precursor type: [M+H]+
m/z	relative intensity	assigned
54.0336	22	C3H4N+
55.0177	9	C3H3O+
56.0492	980	C3H6N+
58.0649	143	C3H8N+
65.0384	232	C5H5+
67.0176	11	C4H3O+
68.0493	17	C4H6N+
69.0573	9	C4H7N+
77.0386	999	C6H5+
78.0464	87	C6H6+
79.0542	108	C6H7+
80.0494	17	C5H6N+
81.0447	42	C4H5N2+
82.0287	20	C4H4NO+
83.0604	7	C4H7N2+
89.0386	35	C7H5+
90.0338	13	C6H4N+
90.0464	44	C7H6+
91.0543	215	C7H7+
92.0495	38	C6H6N+
93.0573	34	C6H7N+
94.0418	9	C6H6O+
94.0652	11	C6H8N+
95.0492	216	C6H7O+
95.0604	43	C5H7N2+
98.06	33	C5H8NO+
102.0465	54	C8H6+
103.0543	112	C8H7+
104.0495	284	C7H6N+
105.0448	765	C6H5N2+
106.0651	183	C7H8N+
115.0543	170	C9H7+
116.0495	14	C8H6N+
116.0623	8	C9H8+
117.0574	89	C8H7N+
117.0698	17	C9H9+
118.0651	63	C8H8N+
128.0495	37	C9H6N+
129.0447	9	C8H5N2+
129.0574	21	C9H7N+
130.0652	189	C9H8N+
131.0604	168	C8H7N2+
131.073	15	C9H9N+
132.0447	8	C8H6NO+
132.0682	41	C8H8N2+
143.0729	11	C10H9N+
144.081	15	C10H10N+
145.076	61	C9H9N2+
146.0595	7	C9H8NO+
