Mass spectrum: Imidacloprid-OH (TENTATIVE); LC-ESI-QFT; MS2; CE: 30%; R=70000; [M+H]+
Name: Imidacloprid-OH
Formula: C9H10ClN5O3
Exact mass: 271.0473
SMILES: C(*)1C(*)N(C(=N[N+](=O)[O-])N1)C(*)C2=C(*)N=C(C(*)=C(*)2)Cl *=[OH (n=1) & H (n=5)]
Instrument: Q Exactive Plus Orbitrap Thermo Scientific
Instrument type: LC-ESI-QFT
Ms type: MS2
Ion mode: POSITIVE
Ionization: ESI
Fragmentation mode: HCD
Collision energy: 30% (nominal)
Resolution: 70000
Column name: Waters UPLC BEH C18 1.7 um 2.1 mm x 100 mm with pre-column
Retention time: 8.06 min
Precursor m/z: 272.0551
Precursor type: [M+H]+
m/z	relative intensity
57.0702	8
58.0654	18
59.0368	22
60.0446	5
69.045	6
69.0699	7
72.0556	13
78.0338	9
80.0495	42
81.0698	16
85.0396	30
90.0339	16
92.0493	7
95.0855	6
96.0444	6
100.0505	111
102.0914	12
107.0603	24
108.0444	63
109.0524	7
114.0107	6
118.0525	17
119.0604	29
120.0556	10
125.0713	6
126.0105	349
126.0549	30
127.0184	97
128.0262	60
132.0681	17
133.0634	38
134.0666	9
134.0713	102
135.0555	8
139.0182	5
140.0139	8
140.0191	4
140.0262	6
141.0214	212
142.0051	5
142.0293	40
144.0154	11
144.0211	228
144.0556	35
145.0635	108
146.0713	775
147.0665	281
148.0505	17
148.0744	18
149.0234	6
149.0704	6
150.0662	6
151.0503	14
153.0214	109
155.0374	6
157.0637	5
161.0822	358
162.09	114
164.0824	5
165.0214	13
165.0532	7
166.0165	32
167.0244	7
167.0372	41
168.0325	40
169.0163	103
171.0664	6
172.0744	25
173.0586	7
173.0822	140
174.0662	554
180.0323	14
181.0275	22
183.0433	223
189.0771	12
190.0849	122
191.0927	720
197.0589	15
207.0432	100
208.0273	25
209.0588	32
210.0429	21
225.0537	999
228.0535	14
