Mass spectrum: Fumonisin B2; LC-ESI-ITFT; MS2; CE: 40%; R=7500; [M+H]+
Name: Fumonisin B2
Name: Fumonisin B2, Fusarium moniliforme
Name: 2-[2-[19-amino-6-(3,4-dicarboxybutanoyloxy)-16,18-dihydroxy-5,9-dimethylicosan-7-yl]oxy-2-oxoethyl]butanedioic acid
Formula: C34H59NO14
Exact mass: 705.3936
SMILES: CCCCC(C)C(C(CC(C)CCCCCCC(CC(C(C)N)O)O)OC(=O)CC(CC(=O)O)C(=O)O)OC(=O)CC(CC(=O)O)C(=O)O
InChI: InChI=1S/C34H59NO14/c1-5-6-12-21(3)32(49-31(43)18-24(34(46)47)16-29(40)41)27(48-30(42)17-23(33(44)45)15-28(38)39)14-20(2)11-9-7-8-10-13-25(36)19-26(37)22(4)35/h20-27,32,36-37H,5-19,35H2,1-4H3,(H,38,39)(H,40,41)(H,44,45)(H,46,47)
Instrument: LTQ Orbitrap XL Thermo Scientific
Instrument type: LC-ESI-ITFT
Ms type: MS2
Ion mode: POSITIVE
Ionization: ESI
Fragmentation mode: HCD
Collision energy: 40 % (nominal)
Resolution: 7500
Column name: Hypersil GOLD C18 1.9 um 100 x 2.1 mm Thermo Fisher Scientific
Retention time: 22.184 min
Base peak: 706.4023
Precursor m/z: 706.4008
Precursor type: [M+H]+
Precursor intensity: 57323263.33008
m/z	relative intensity	assigned
57.0697	5	C4H9+
67.0541	7	C5H7+
69.0698	25	C5H9+
70.0651	7	C4H8N+
73.11	4	CH15NO2+
74.0601	47	C3H8NO+
81.07	25	C6H9+
85.0283	5	C4H5O2+
93.0698	16	C7H9+
95.0855	49	C7H11+
97.1013	15	C7H13+
97.3912	5	H51NO2+
107.0856	17	C8H11+
109.1013	53	C8H13+
111.1173	8	C8H15+
113.0234	28	C5H5O3+
121.1013	29	C9H13+
123.1169	36	C9H15+
133.1013	15	C10H13+
135.117	35	C10H15+
137.1327	19	C10H17+
141.0185	121	C6H5O4+
147.1172	24	C11H15+
149.1327	40	C11H17+
151.1484	17	C11H19+
159.029	55	C6H7O5+
161.1323	10	C12H17+
163.1484	28	C12H19+
175.1478	14	C13H19+
177.1636	18	C13H21+
191.1799	12	C14H23+
203.0695	7	C12H11O3+
203.1125	7	C6H19O7+
205.1947	7	C15H25+
208.2068	24	C14H26N+
220.2057	33	C15H26N+
221.1905	6	C15H25O+
226.2174	11	C14H28NO+
238.2167	42	C15H28NO+
256.2277	25	C15H30NO2+
301.2893	11	C22H37+
318.3157	721	C22H40N+
336.3263	999	C22H42NO+
354.3369	242	C22H44NO2+
494.3505	11	C18H54O14+
512.3589	15	C28H50NO7+
