Mass spectrum: Metamitron-OH (TENTATIVE); LC-ESI-QFT; MS2; CE: 30%; R=70000; [M+H]+
Name: Metamitron-OH
Formula: C10H10N4O2
Exact mass: 218.0795
SMILES: C(*)C1=NN=C(C(=O)N1N)C2=C(*)C(*)=C(*)C=C2 *=[OH (n=1) & H (n=3)]
Instrument: Q Exactive Plus Orbitrap Thermo Scientific
Instrument type: LC-ESI-QFT
Ms type: MS2
Ion mode: POSITIVE
Ionization: ESI
Fragmentation mode: HCD
Collision energy: 30% (nominal)
Resolution: 70000
Column name: Waters UPLC BEH C18 1.7 um 2.1 mm x 100 mm with pre-column
Retention time: 7.19 min
Precursor m/z: 219.0873
Precursor type: [M+H]+
m/z	relative intensity
56.0135	42
57.045	117
57.0702	31
59.0243	68
65.0387	79
67.0543	34
83.024	136
91.0543	54
95.0491	69
105.0335	104
107.049	26
108.0444	30
111.044	50
119.0365	35
120.0444	999
121.0396	94
121.0523	36
133.0396	357
134.0475	122
161.0345	30
175.0739	196
190.0738	46
191.093	152
219.0866	32
