Mass spectrum: Ethambutol; LC-ESI-QFT; MS2; CE: 40%; R=30000; [M+H]+
Name: Ethambutol
Name: (2S,2'S)-2,2'-(Ethane-1,2-diyldiazanediyl)di(butan-1-ol)
Formula: C10H24N2O2
Exact mass: 204.1838
SMILES: CC[C@@H](CO)NCCN[C@@H](CC)CO
InChI: InChI=1S/C10H24N2O2/c1-3-9(7-13)11-5-6-12-10(4-2)8-14/h9-14H,3-8H2,1-2H3/t9-,10-/m0/s1
Instrument: Orbitrap Fusion Tribrid Thermo Fisher Scientific
Instrument type: LC-ESI-QFT
Ms type: MS2
Ion mode: POSITIVE
Ionization: ESI
Fragmentation mode: HCD
Collision energy: 40% (nominal)
Resolution: 30000
Precursor m/z: 205.1911
Precursor type: [M+H]+
m/z	relative intensity
55.0546	243
56.0499	50
62.0603	27
70.0654	12
72.081	19
74.0603	22
90.0916	8
98.0967	52
116.1073	999
