Mass spectrum: Antipyrine; LC-ESI-ITFT; MS2; CE: 55%; R=15000; [M+H]+
Name: Antipyrine
Name: 1,5-dimethyl-2-phenylpyrazol-3-one
Formula: C11H12N2O
Exact mass: 188.0950
SMILES: CC1=CC(=O)N(N1C)C2=CC=CC=C2
InChI: InChI=1S/C11H12N2O/c1-9-8-11(14)13(12(9)2)10-6-4-3-5-7-10/h3-8H,1-2H3
Instrument: LTQ Orbitrap XL Thermo Scientific
Instrument type: LC-ESI-ITFT
Ms type: MS2
Ion mode: POSITIVE
Ionization: ESI
Fragmentation mode: CID
Collision energy: 55% (nominal)
Resolution: 15000
Column name: Kinetex Evo C18 2.6 um 50 x 2.1 mm
Retention time: 5.578 min
Base peak: 189.1022
Precursor m/z: 189.1022
Precursor type: [M+H]+
m/z	relative intensity	assigned
70.0651	8	C4H8N+
91.0542	26	C7H7+
96.0443	24	C5H6NO+
96.0681	34	C5H8N2+
103.0543	19	C8H7+
104.0495	65	C7H6N+
105.07	21	C8H9+
106.0651	13	C7H8N+
111.0553	26	C5H7N2O+
117.0572	30	C8H7N+
117.0699	36	C9H9+
118.0652	242	C8H8N+
120.0808	244	C8H10N+
129.07	26	C10H9+
130.0652	348	C9H8N+
131.0729	999	C9H9N+
132.0807	234	C9H10N+
133.0525	17	C8H7NO+
133.0759	109	C8H9N2+
134.0963	17	C9H12N+
135.0554	46	C7H7N2O+
144.0808	812	C10H10N+
145.0648	92	C10H9O+
145.0887	24	C10H11N+
146.0838	651	C9H10N2+
146.0964	496	C10H12N+
147.0916	571	C9H11N2+
148.0757	129	C9H10NO+
149.0709	24	C8H9N2O+
154.0652	9	C11H8N+
157.052	10	C10H7NO+
158.0601	53	C10H8NO+
159.092	9	C10H11N2+
160.0996	20	C10H12N2+
161.1073	819	C10H13N2+
162.0913	36	C10H12NO+
171.0912	13	C11H11N2+
172.0756	351	C11H10NO+
174.0787	349	C10H10N2O+
189.1021	7	C11H13N2O+
