Mass spectrum: Dothiepin; LC-ESI-QTOF; MS2; CE: 10 eV; R=3600; [M+H]+
Name: Dothiepin
Name: 3-(Dibenzo[b,e]thiepin-11(6H)-ylidene)-N,N-dimethylpropan-1-amine
Formula: C19H21NS
Exact mass: 295.1395
SMILES: CN(C)CCC=C1C2=CC=CC=C2CSC2=C1C=CC=C2
InChI: InChI=1S/C19H21NS/c1-20(2)13-7-11-17-16-9-4-3-8-15(16)14-21-19-12-6-5-10-18(17)19/h3-6,8-12H,7,13-14H2,1-2H3
Instrument: 6580 QTOF Agilent
Instrument type: LC-ESI-QTOF
Ms type: MS2
Ion mode: POSITIVE
Ionization: ESI
Fragmentation mode: CID
Collision energy: 10 eV
Resolution: 3600
Precursor m/z: 296.1468
Precursor type: [M+H]+
m/z	relative intensity
58.0653	189
91.0535	100
117.0691	145
123.0254	68
147.025	95
178.0766	77
191.0835	62
192.0908	54
202.0762	60
203.0837	144
209.0404	87
210.0478	63
217.0997	135
218.1071	283
221.0402	120
222.0472	113
223.056	313
225.0718	179
236.064	61
251.0876	123
296.1468	999
