Mass spectrum: Skyrin; LC-ESI-ITFT; MS2; CE: 60%; R=7500; [M+H]+
Name: Skyrin
Name: 2,4,5-trihydroxy-7-methyl-1-(2,4,5-trihydroxy-7-methyl-9,10-dioxoanthracen-1-yl)anthracene-9,10-dione
Formula: C30H18O10
Exact mass: 538.0900
SMILES: CC1=CC2=C(C(=C1)O)C(=O)C3=C(C=C(C(=C3C2=O)C4=C5C(=C(C=C4O)O)C(=O)C6=C(C5=O)C=C(C=C6O)C)O)O
InChI: InChI=1S/C30H18O10/c1-9-3-11-19(13(31)5-9)29(39)23-17(35)7-15(33)21(25(23)27(11)37)22-16(34)8-18(36)24-26(22)28(38)12-4-10(2)6-14(32)20(12)30(24)40/h3-8,31-36H,1-2H3
Instrument: LTQ Orbitrap XL Thermo Scientific
Instrument type: LC-ESI-ITFT
Ms type: MS2
Ion mode: POSITIVE
Ionization: ESI
Fragmentation mode: HCD
Collision energy: 60 % (nominal)
Resolution: 7500
Column name: Hypersil GOLD C18 1.9 um 100 x 2.1 mm Thermo Fisher Scientific
Retention time: 26.963 min
Base peak: 539.0974
Precursor m/z: 539.0973
Precursor type: [M+H]+
Precursor intensity: 5222717.011719
m/z	relative intensity	assigned
135.0441	908	C8H7O2+
189.0545	686	C11H9O3+
203.0338	842	C11H7O4+
217.0492	447	C12H9O4+
241.0487	279	C14H9O4+
267.0648	281	C16H11O4+
269.0446	218	C15H9O5+
270.0523	296	C15H10O5+
282.0522	557	C16H10O5+
283.0603	556	C16H11O5+
295.06	425	C17H11O5+
297.0393	999	C16H9O6+
321.0383	271	C18H9O6+
395.0904	492	C25H15O5+
399.0864	625	C24H15O6+
413.1021	221	C25H17O6+
423.085	597	C26H15O6+
427.0806	300	C25H15O7+
451.0822	796	C27H15O7+
465.0954	342	C28H17O7+
469.0911	558	C27H17O8+
479.076	360	C28H15O8+
493.0894	204	C29H17O8+
503.0776	170	C30H15O8+
504.0837	951	C30H16O8+
