Mass spectrum: Antipyrine; LC-ESI-ITFT; MS2; CE: 175%; R=15000; [M+H]+
Name: Antipyrine
Name: 1,5-dimethyl-2-phenylpyrazol-3-one
Formula: C11H12N2O
Exact mass: 188.0950
SMILES: CC1=CC(=O)N(N1C)C2=CC=CC=C2
InChI: InChI=1S/C11H12N2O/c1-9-8-11(14)13(12(9)2)10-6-4-3-5-7-10/h3-8H,1-2H3
Instrument: LTQ Orbitrap XL Thermo Scientific
Instrument type: LC-ESI-ITFT
Ms type: MS2
Ion mode: POSITIVE
Ionization: ESI
Fragmentation mode: HCD
Collision energy: 175% (nominal)
Resolution: 15000
Column name: Kinetex Evo C18 2.6 um 50 x 2.1 mm
Retention time: 5.733 min
Base peak: 189.1023
Precursor m/z: 189.1022
Precursor type: [M+H]+
m/z	relative intensity	assigned
53.0383	8	C4H5+
54.0336	22	C3H4N+
55.0415	16	C3H5N+
56.0492	960	C3H6N+
58.0649	79	C3H8N+
63.0227	18	C5H3+
65.0384	216	C5H5+
66.0462	11	C5H6+
68.0494	16	C4H6N+
76.0308	16	C6H4+
77.0386	999	C6H5+
78.0339	12	C5H4N+
78.0464	107	C6H6+
79.0542	63	C6H7+
80.0496	10	C5H6N+
81.0448	26	C4H5N2+
82.0288	20	C4H4NO+
83.0605	10	C4H7N2+
89.0386	86	C7H5+
90.0338	22	C6H4N+
90.0465	58	C7H6+
91.0543	202	C7H7+
92.0496	30	C6H6N+
93.0574	27	C6H7N+
95.0492	222	C6H7O+
95.0604	19	C5H7N2+
98.0598	11	C5H8NO+
102.0464	58	C8H6+
103.0417	8	C7H5N+
103.0543	88	C8H7+
104.0496	204	C7H6N+
105.0448	867	C6H5N2+
106.0652	52	C7H8N+
115.0543	147	C9H7+
116.0497	10	C8H6N+
116.0622	13	C9H8+
117.0574	64	C8H7N+
118.0651	39	C8H8N+
128.0494	44	C9H6N+
129.045	23	C8H5N2+
130.0653	113	C9H8N+
131.0604	116	C8H7N2+
132.0681	11	C8H8N2+
145.0759	21	C9H9N2+
