Mass spectrum: b Zearalanol; LC-ESI-ITFT; MS2; CE: 60%; R=7500; [M+H]+
Name: b Zearalanol
Name: Ralgro
Name: 8,16,18-trihydroxy-4-methyl-3-oxabicyclo[12.4.0]octadeca-1(14),15,17-trien-2-one
Formula: C18H26O5
Exact mass: 322.1780
SMILES: CC1CCCC(CCCCCC2=C(C(=CC(=C2)O)O)C(=O)O1)O
InChI: InChI=1S/C18H26O5/c1-12-6-5-9-14(19)8-4-2-3-7-13-10-15(20)11-16(21)17(13)18(22)23-12/h10-12,14,19-21H,2-9H2,1H3
Instrument: LTQ Orbitrap XL Thermo Scientific
Instrument type: LC-ESI-ITFT
Ms type: MS2
Ion mode: POSITIVE
Ionization: ESI
Fragmentation mode: HCD
Collision energy: 60 % (nominal)
Resolution: 7500
Column name: Hypersil GOLD C18 1.9 um 100 x 2.1 mm Thermo Fisher Scientific
Retention time: 18.692 min
Base peak: 323.1851
Precursor m/z: 323.1853
Precursor type: [M+H]+
Precursor intensity: 9109356.525879
m/z	relative intensity	assigned
81.0701	35	C6H9+
123.0438	545	C7H7O2+
123.1166	48	C9H15+
149.0595	315	C9H9O2+
161.0594	218	C10H9O2+
163.0751	408	C10H11O2+
167.0337	142	C8H7O4+
175.0755	136	C11H11O2+
177.0541	108	C10H9O3+
177.0909	118	C11H13O2+
189.0907	999	C12H13O2+
191.0694	79	C11H11O3+
203.1062	117	C13H15O2+
207.1012	284	C12H15O3+
269.154	57	C18H21O2+
277.1789	148	C17H25O3+
287.1637	88	C18H23O3+
