Mass spectrum: Cyclizine; LC-ESI-ITFT; MS2; CE: 185%; R=15000; [M+H]+
Name: Cyclizine
Name: 1-benzhydryl-4-methylpiperazine
Formula: C18H22N2
Exact mass: 266.1783
SMILES: CN1CCN(CC1)C(C2=CC=CC=C2)C3=CC=CC=C3
InChI: InChI=1S/C18H22N2/c1-19-12-14-20(15-13-19)18(16-8-4-2-5-9-16)17-10-6-3-7-11-17/h2-11,18H,12-15H2,1H3
Instrument: LTQ Orbitrap XL Thermo Scientific
Instrument type: LC-ESI-ITFT
Ms type: MS2
Ion mode: POSITIVE
Ionization: ESI
Fragmentation mode: HCD
Collision energy: 185% (nominal)
Resolution: 15000
Column name: Kinetex Evo C18 2.6 um 50 x 2.1 mm
Retention time: 7.673 min
Base peak: 267.1854
Precursor m/z: 267.1856
Precursor type: [M+H]+
m/z	relative intensity	assigned
63.0228	64	C5H3+
65.0384	98	C5H5+
75.023	11	C6H3+
76.0306	44	C6H4+
77.0385	28	C6H5+
78.0463	65	C6H6+
87.0228	29	C7H3+
89.0385	138	C7H5+
91.0542	46	C7H7+
102.0464	191	C8H6+
105.0448	43	C6H5N2+
113.0385	29	C9H5+
115.0542	638	C9H7+
125.0386	15	C10H5+
126.0464	209	C10H6+
127.0542	32	C10H7+
128.0621	177	C10H8+
129.045	10	C8H5N2+
139.0542	285	C11H7+
141.0703	22	C11H9+
150.0464	158	C12H6+
151.0543	166	C12H7+
152.0621	358	C12H8+
155.0605	39	C10H7N2+
163.0543	302	C13H7+
164.0621	382	C13H8+
165.0699	999	C13H9+
169.0648	80	C12H9O+
179.0605	108	C12H7N2+
