Mass spectrum: Dosulepin; LC-ESI-ITFT; MS2; CE: 45%; R=15000; [M+H]+
Name: Dosulepin
Name: Dothiepin
Name: 3-(6H-benzo[c][1]benzothiepin-11-ylidene)-N,N-dimethylpropan-1-amine
Formula: C19H21NS
Exact mass: 295.1395
SMILES: CN(C)CCC=C1C2=CC=CC=C2CSC3=CC=CC=C31
InChI: InChI=1S/C19H21NS/c1-20(2)13-7-11-17-16-9-4-3-8-15(16)14-21-19-12-6-5-10-18(17)19/h3-6,8-12H,7,13-14H2,1-2H3
Instrument: LTQ Orbitrap XL Thermo Scientific
Instrument type: LC-ESI-ITFT
Ms type: MS2
Ion mode: POSITIVE
Ionization: ESI
Fragmentation mode: CID
Collision energy: 45% (nominal)
Resolution: 15000
Column name: Kinetex Evo C18 2.6 um 50 x 2.1 mm
Retention time: 8.351 min
Base peak: 296.1467
Precursor m/z: 296.1467
Precursor type: [M+H]+
m/z	relative intensity	assigned
91.0542	11	C7H7+
115.054	1	C9H7+
117.0699	10	C9H9+
123.0262	6	C7H7S+
141.0698	4	C11H9+
142.0774	2	C11H10+
147.0263	156	C9H7S+
173.042	9	C11H9S+
178.0773	1	C14H10+
179.085	1	C14H11+
191.0856	20	C15H11+
192.0927	1	C15H12+
205.102	2	C16H13+
209.0421	43	C14H9S+
210.0497	1	C14H10S+
211.0578	2	C14H11S+
217.1013	26	C17H13+
218.1091	76	C17H14+
221.0412	2	C15H9S+
222.05	23	C15H10S+
223.0578	198	C15H11S+
225.0732	999	C15H13S+
236.0656	19	C16H12S+
251.089	436	C17H15S+
253.1045	51	C17H17S+
265.1046	7	C18H17S+
