Mass spectrum: Nylidrin; LC-ESI-ITFT; MS2; CE: 110%; R=15000; [M+H]+
Name: Nylidrin
Name: 4-[1-hydroxy-2-(4-phenylbutan-2-ylamino)propyl]phenol
Formula: C19H25NO2
Exact mass: 299.1885
SMILES: CC(CCC1=CC=CC=C1)NC(C)C(C2=CC=C(C=C2)O)O
InChI: InChI=1S/C19H25NO2/c1-14(8-9-16-6-4-3-5-7-16)20-15(2)19(22)17-10-12-18(21)13-11-17/h3-7,10-15,19-22H,8-9H2,1-2H3
Instrument: LTQ Orbitrap XL Thermo Scientific
Instrument type: LC-ESI-ITFT
Ms type: MS2
Ion mode: POSITIVE
Ionization: ESI
Fragmentation mode: HCD
Collision energy: 110% (nominal)
Resolution: 15000
Column name: Kinetex Evo C18 2.6 um 50 x 2.1 mm
Retention time: 6.880 min
Base peak: 300.1958
Precursor m/z: 300.1958
Precursor type: [M+H]+
m/z	relative intensity	assigned
55.0177	10	C3H3O+
56.0493	19	C3H6N+
65.0385	31	C5H5+
77.0386	40	C6H5+
79.0542	126	C6H7+
81.0697	4	C6H9+
91.0542	999	C7H7+
94.0413	13	C6H6O+
95.0491	12	C6H7O+
103.0542	81	C8H7+
105.0447	43	C6H5N2+
105.0699	319	C8H9+
107.0491	71	C7H7O+
108.057	3	C7H8O+
109.0649	10	C7H9O+
115.0542	37	C9H7+
117.0574	3	C8H7N+
118.0417	2	C8H6O+
120.0443	7	C7H6NO+
131.0492	14	C9H7O+
132.0567	4	C9H8O+
133.0648	29	C9H9O+
134.0601	12	C8H8NO+
135.0679	46	C8H9NO+
