Mass spectrum: Isoproturon-OH (TENTATIVE); LC-ESI-QFT; MS2; CE: 30%; R=70000; [M+H]+
Name: Isoproturon-OH
Formula: C12H18N2O2
Exact mass: 222.1359
SMILES: C(*)C(C)C1=C(*)C(*)=C(C=C1)NC(=O)N(C)C(*) *=[OH (n=1) & H (n=3)] 
Instrument: Q Exactive Plus Orbitrap Thermo Scientific
Instrument type: LC-ESI-QFT
Ms type: MS2
Ion mode: POSITIVE
Ionization: ESI
Fragmentation mode: HCD
Collision energy: 30% (nominal)
Resolution: 70000
Column name: Waters UPLC BEH C18 1.7 um 2.1 mm x 100 mm with pre-column
Retention time: 11.21 min
Precursor m/z: 223.1437
Precursor type: [M+H]+
m/z	relative intensity
53.0391	6
55.0545	7
59.0494	761
67.0543	12
69.0089	8
72.0444	999
79.0542	9
91.0543	10
92.0496	6
93.0574	9
93.07	18
95.0491	5
103.0543	8
106.0652	26
107.0857	8
108.0807	41
111.0438	7
117.07	18
119.0856	8
120.0446	21
131.0496	7
132.0445	40
134.0965	35
137.0963	7
160.0756	43
