Mass spectrum: Dimethenamid-OH (TENTATIVE); LC-ESI-QFT; MS2; CE: 30%; R=70000; [M+H]+
Name: Dimethenamid-OH
Formula: C12H18ClNO3S
Exact mass: 291.0684
SMILES: C(*)C1=C(*)SC(=C1N(C(*)(C(*))C(*)OC(*))C(=O)C(*)Cl)C(*) *=[OH (n=1) & H (n=7)]
Instrument: Q Exactive Plus Orbitrap Thermo Scientific
Instrument type: LC-ESI-QFT
Ms type: MS2
Ion mode: POSITIVE
Ionization: ESI
Fragmentation mode: HCD
Collision energy: 30% (nominal)
Resolution: 70000
Column name: Waters UPLC BEH C18 1.7 um 2.1 mm x 100 mm with pre-column
Retention time: 9.68 min
Precursor m/z: 292.0762
Precursor type: [M+H]+
m/z	relative intensity
53.039	2
55.0546	8
57.0338	2
58.0654	44
58.9952	28
61.0111	2
65.0387	75
67.0543	6
70.9951	3
72.057	4
73.0107	3
73.0648	999
76.9789	13
79.0543	4
82.0652	5
83.0492	8
84.0028	2
84.0807	2
85.0107	17
91.0542	3
92.0494	2
93.0698	2
94.0652	5
95.0492	2
95.0729	3
96.0569	2
96.0807	6
97.0107	18
99.0263	151
101.0421	4
105.0573	3
106.0652	2
107.0729	3
108.0808	9
109.0109	1
110.0601	15
111.0263	19
111.0441	9
111.0679	4
113.0422	2
118.0652	4
119.0727	2
120.0807	2
122.0598	3
122.0964	11
123.0264	3
123.08	2
124.0216	3
125.0056	3
125.042	13
126.0326	3
126.0372	57
127.0213	303
127.045	5
128.0167	3
128.0291	5
128.0528	5
132.0809	6
133.0886	11
134.0184	2
134.0367	24
134.0965	3
136.0219	2
136.0395	3
136.0758	4
136.1121	5
137.0294	3
137.0422	2
138.0373	14
138.0915	13
139.0577	3
140.053	6
142.0322	4
143.0405	2
144.0479	5
145.0318	14
147.0029	2
149.042	2
150.0373	6
150.0554	2
150.0914	11
151.0212	2
151.0451	7
151.0992	3
152.0165	13
152.0529	13
152.0703	4
153.0243	33
154.0321	8
154.0685	110
155.132	1
156.0211	2
158.0367	6
159.0029	2
159.9985	2
164.1074	3
166.0323	20
166.0686	23
167.0764	2
168.0478	5
168.0841	7
168.138	9
171.9982	4
172.0525	7
174.0139	3
182.0634	6
183.9982	3
184.0429	2
184.0788	2
186.0319	2
192.102	11
194.0633	13
198.0948	2
202.0088	8
203.0165	9
206.0634	3
208.079	3
230.0399	7
244.0557	2
