Mass spectrum: Phenazone; LC-ESI-QFT; MS2; CE: CE75; R=17500; [M+H]+
Name: Phenazone
Name: Antipyrine
Name: 1,5-dimethyl-2-phenylpyrazol-3-one
Formula: C11H12N2O
Exact mass: 188.0950
SMILES: CN1N(C(=O)C=C1C)C1=CC=CC=C1
InChI: InChI=1S/C11H12N2O/c1-9-8-11(14)13(12(9)2)10-6-4-3-5-7-10/h3-8H,1-2H3
Instrument: Q Exactive Thermo Fisher Scientific
Instrument type: LC-ESI-QFT
Ms type: MS2
Ion mode: POSITIVE
Ionization: ESI
Fragmentation mode: HCD
Collision energy: CE75
Resolution: 17500
Column name: Acquity UPLC BEH C18 1.7 um, 2.1 x 150 mm, Waters
Retention time: 16.045 min
Base peak: 223.0628
Precursor m/z: 189.1022
Precursor type: [M+H]+
m/z	relative intensity	assigned
50.0156	429	C4H2+
51.0234	999	C4H3+
52.0186	16	C3H2N+
52.0311	20	C4H4+
53.0025	107	C3HO+
53.0391	110	C4H5+
53.9977	21	C2NO+
54.0342	51	C3H4N+
55.0181	20	C3H3O+
55.0421	8	C3H5N+
56.0497	623	C3H6N+
58.0654	25	C3H8N+
62.0152	15	C5H2+
63.0233	111	C5H3+
64.031	7	C5H4+
65.0024	23	C4HO+
65.0386	178	C5H5+
66.0214	11	C3H2N2+
66.0463	22	C5H6+
67.0183	11	C4H3O+
74.0151	19	C6H2+
75.0232	29	C6H3+
76.0306	18	C6H4+
77.0385	158	C6H5+
78.0341	10	C5H4N+
78.0465	59	C6H6+
81.0337	13	C5H5O+
89.0383	113	C7H5+
90.0465	17	C7H6+
91.0542	72	C7H7+
95.0491	416	C6H7O+
97.0076	11	C8H+
102.0467	18	C8H6+
103.0535	15	C8H7+
104.0489	38	C7H6N+
105.0446	111	C6H5N2+
115.0548	41	C9H7+
130.0647	12	C9H8N+
131.0596	15	C8H7N2+
