Mass spectrum: Etilefrine; LC-ESI-ITFT; MS2; CE: 85%; R=15000; [M+H]+
Name: Etilefrine
Name: 3-[2-(ethylamino)-1-hydroxyethyl]phenol
Formula: C10H15NO2
Exact mass: 181.1103
SMILES: CCNCC(C1=CC(=CC=C1)O)O
InChI: InChI=1S/C10H15NO2/c1-2-11-7-10(13)8-4-3-5-9(12)6-8/h3-6,10-13H,2,7H2,1H3
Instrument: LTQ Orbitrap XL Thermo Scientific
Instrument type: LC-ESI-ITFT
Ms type: MS2
Ion mode: POSITIVE
Ionization: ESI
Fragmentation mode: HCD
Collision energy: 85% (nominal)
Resolution: 15000
Column name: Kinetex Evo C18 2.6 um 50 x 2.1 mm
Retention time: 0.618 min
Base peak: 182.1176
Precursor m/z: 182.1176
Precursor type: [M+H]+
m/z	relative intensity	assigned
56.0493	41	C3H6N+
77.0386	14	C6H5+
79.0544	12	C6H7+
81.0699	45	C6H9+
91.0543	999	C7H7+
93.0699	34	C7H9+
94.0414	10	C6H6O+
95.0495	7	C6H7O+
103.0543	35	C8H7+
104.0496	13	C7H6N+
105.0451	6	C6H5N2+
106.065	12	C7H8N+
107.0491	63	C7H7O+
107.0728	10	C7H9N+
108.0571	28	C7H8O+
108.0809	16	C7H10N+
109.0649	197	C7H9O+
117.0576	13	C8H7N+
118.0652	102	C8H8N+
119.0492	116	C8H7O+
120.0445	24	C7H6NO+
121.0648	70	C8H9O+
134.0601	138	C8H8NO+
135.0679	425	C8H9NO+
136.0758	102	C8H10NO+
164.1072	162	C10H14NO+
