Mass spectrum: Nylidrin; LC-ESI-ITFT; MS2; CE: 65%; R=7500; [M+H]+
Name: Nylidrin
Name: 4-{1-Hydroxy-2-[(4-phenylbutan-2-yl)amino]propyl}phenol
Formula: C19H25NO2
Exact mass: 299.1885
SMILES: CC(CCC1=CC=CC=C1)NC(C)C(O)C1=CC=C(O)C=C1
InChI: InChI=1S/C19H25NO2/c1-14(8-9-16-6-4-3-5-7-16)20-15(2)19(22)17-10-12-18(21)13-11-17/h3-7,10-15,19-22H,8-9H2,1-2H3
Instrument: LTQ Orbitrap XL Thermo Fisher Scientific
Instrument type: LC-ESI-ITFT
Ms type: MS2
Ion mode: POSITIVE
Ionization: ESI
Fragmentation mode: HCD
Collision energy: 65% (nominal)
Resolution: 7500
Column name: Hypersil GOLD C18 1.9 um 100 x 2.1 mm Thermo Fisher Scientific
Precursor m/z: 300.1959
Precursor type: [M+H]+
m/z	relative intensity
56.0493	10
57.0039	2
79.0542	3
91.0541	999
95.0491	6
103.0547	2
107.0492	35
108.0808	1
109.0649	30
115.0543	8
131.0489	2
132.0807	7
133.0648	759
135.0803	40
148.1126	2
150.0914	945
151.0753	18
