Mass spectrum: Sulfamethoxazole; LC-ESI-QFT; MS2; CE: 50%; R=17500; [M+H]+
Name: Sulfamethoxazole
Name: 4-Amino-N-(5-methyl-1,2-oxazol-3-yl)benzene-1-sulfonamide
Formula: C10H11N3O3S
Exact mass: 253.0521
SMILES: CC1=CC(NS(=O)(=O)C2=CC=C(N)C=C2)=NO1
InChI: InChI=1S/C10H11N3O3S/c1-7-6-10(12-16-7)13-17(14,15)9-4-2-8(11)3-5-9/h2-6H,11H2,1H3,(H,12,13)
Instrument: Q Exactive Thermo Fisher Scientific
Instrument type: LC-ESI-QFT
Ms type: MS2
Ion mode: POSITIVE
Ionization: ESI
Fragmentation mode: HCD
Collision energy: 50% (nominal)
Resolution: 17500
Column name: Hypersil GOLD 1.9 um 2.1 x 100 mm Thermo Fisher Scientific
Precursor m/z: 254.0594
Precursor type: [M+H]+
m/z	relative intensity
65.0394	117
68.0503	56
72.0451	9
79.0186	10
80.0502	41
92.0501	981
93.0579	247
94.0658	19
96.045	9
99.0558	218
107.0608	40
108.0448	999
110.0605	130
120.0559	19
146.0713	37
147.0793	74
148.0871	8
156.0114	273
160.0872	102
161.0017	8
