Mass spectrum: Dosulepin; LC-ESI-ITFT; MS2; CE: 130%; R=15000; [M+H]+
Name: Dosulepin
Name: Dothiepin
Name: 3-(6H-benzo[c][1]benzothiepin-11-ylidene)-N,N-dimethylpropan-1-amine
Formula: C19H21NS
Exact mass: 295.1395
SMILES: CN(C)CCC=C1C2=CC=CC=C2CSC3=CC=CC=C31
InChI: InChI=1S/C19H21NS/c1-20(2)13-7-11-17-16-9-4-3-8-15(16)14-21-19-12-6-5-10-18(17)19/h3-6,8-12H,7,13-14H2,1-2H3
Instrument: LTQ Orbitrap XL Thermo Scientific
Instrument type: LC-ESI-ITFT
Ms type: MS2
Ion mode: POSITIVE
Ionization: ESI
Fragmentation mode: HCD
Collision energy: 130% (nominal)
Resolution: 15000
Column name: Kinetex Evo C18 2.6 um 50 x 2.1 mm
Retention time: 8.178 min
Base peak: 296.1467
Precursor m/z: 296.1467
Precursor type: [M+H]+
m/z	relative intensity	assigned
58.0648	69	C3H8N+
65.0384	21	C5H5+
77.0384	14	C6H5+
79.0541	10	C6H7+
89.0384	8	C7H5+
91.0542	267	C7H7+
103.0541	12	C8H7+
105.0445	19	C6H5N2+
115.0542	240	C9H7+
116.0617	7	C9H8+
117.0698	19	C9H9+
121.0106	11	C7H5S+
128.062	66	C10H8+
129.0697	13	C10H9+
134.0186	6	C8H6S+
135.0268	4	C8H7S+
139.0543	7	C11H7+
141.0698	57	C11H9+
147.0264	38	C9H7S+
152.0619	41	C12H8+
155.0602	16	C10H7N2+
164.0622	16	C13H8+
165.0699	222	C13H9+
171.0261	13	C11H7S+
176.0621	32	C14H8+
177.0697	38	C14H9+
178.0777	402	C14H10+
179.0855	14	C14H11+
184.0335	6	C12H8S+
189.0699	118	C15H9+
190.0776	37	C15H10+
191.0854	99	C15H11+
200.062	17	C16H8+
201.07	38	C16H9+
202.0777	999	C16H10+
203.0854	94	C16H11+
208.0341	56	C14H8S+
209.0421	15	C14H9S+
210.0498	15	C14H10S+
215.0854	267	C17H11+
216.0931	41	C17H12+
217.1011	33	C17H13+
219.0805	7	C16H11O+
220.0338	11	C15H8S+
221.0419	533	C15H9S+
222.0495	8	C15H10S+
233.042	9	C16H9S+
234.0498	126	C16H10S+
235.0578	25	C16H11S+
