Mass spectrum: Dosulepin; LC-ESI-ITFT; MS2; CE: 135%; R=15000; [M+H]+
Name: Dosulepin
Name: Dothiepin
Name: 3-(6H-benzo[c][1]benzothiepin-11-ylidene)-N,N-dimethylpropan-1-amine
Formula: C19H21NS
Exact mass: 295.1395
SMILES: CN(C)CCC=C1C2=CC=CC=C2CSC3=CC=CC=C31
InChI: InChI=1S/C19H21NS/c1-20(2)13-7-11-17-16-9-4-3-8-15(16)14-21-19-12-6-5-10-18(17)19/h3-6,8-12H,7,13-14H2,1-2H3
Instrument: LTQ Orbitrap XL Thermo Scientific
Instrument type: LC-ESI-ITFT
Ms type: MS2
Ion mode: POSITIVE
Ionization: ESI
Fragmentation mode: HCD
Collision energy: 135% (nominal)
Resolution: 15000
Column name: Kinetex Evo C18 2.6 um 50 x 2.1 mm
Retention time: 8.177 min
Base peak: 296.1469
Precursor m/z: 296.1467
Precursor type: [M+H]+
m/z	relative intensity	assigned
58.0649	60	C3H8N+
65.0385	24	C5H5+
68.9792	6	C3HS+
77.0386	16	C6H5+
79.0542	12	C6H7+
91.0543	275	C7H7+
103.0542	15	C8H7+
105.0448	28	C6H5N2+
115.0543	248	C9H7+
116.0623	9	C9H8+
117.0699	13	C9H9+
121.0107	11	C7H5S+
128.0622	72	C10H8+
134.0182	9	C8H6S+
139.0544	9	C11H7+
141.07	42	C11H9+
147.0264	31	C9H7S+
151.0547	8	C12H7+
152.0621	52	C12H8+
155.0603	16	C10H7N2+
163.0541	5	C13H7+
164.062	17	C13H8+
165.07	224	C13H9+
171.0259	9	C11H7S+
176.0621	53	C14H8+
177.0701	49	C14H9+
178.0778	368	C14H10+
189.07	136	C15H9+
190.0778	38	C15H10+
191.0856	77	C15H11+
195.0263	6	C13H7S+
200.0623	21	C16H8+
201.07	44	C16H9+
202.0778	999	C16H10+
203.0856	69	C16H11+
208.0341	54	C14H8S+
209.0423	12	C14H9S+
210.0506	9	C14H10S+
213.0698	11	C17H9+
215.0855	315	C17H11+
216.0936	39	C17H12+
217.1011	25	C17H13+
220.034	23	C15H8S+
221.042	535	C15H9S+
232.0334	6	C16H8S+
233.0421	14	C16H9S+
234.0498	118	C16H10S+
