Mass spectrum: Sulthiame; LC-ESI-ITFT; MS2; CE: 125%; R=15000; [M+H]+
Name: Sulthiame
Name: 4-(1,1-dioxothiazinan-2-yl)benzenesulfonamide
Formula: C10H14N2O4S2
Exact mass: 290.0395
SMILES: C1CCS(=O)(=O)N(C1)C2=CC=C(C=C2)S(=O)(=O)N
InChI: InChI=1S/C10H14N2O4S2/c11-18(15,16)10-5-3-9(4-6-10)12-7-1-2-8-17(12,13)14/h3-6H,1-2,7-8H2,(H2,11,15,16)
Instrument: LTQ Orbitrap XL Thermo Scientific
Instrument type: LC-ESI-ITFT
Ms type: MS2
Ion mode: POSITIVE
Ionization: ESI
Fragmentation mode: HCD
Collision energy: 125% (nominal)
Resolution: 15000
Column name: Kinetex Evo C18 2.6 um 50 x 2.1 mm
Retention time: 4.254 min
Base peak: 313.0289
Precursor m/z: 291.0468
Precursor type: [M+H]+
m/z	relative intensity	assigned
65.0383	74	C5H5+
75.0226	14	C6H3+
76.0307	210	C6H4+
77.0386	49	C6H5+
78.0463	132	C6H6+
79.0415	50	C5H5N+
79.0543	11	C6H7+
90.0464	28	C7H6+
91.0542	167	C7H7+
92.0495	23	C6H6N+
93.0573	32	C6H7N+
94.0413	58	C6H6O+
95.0494	19	C6H7O+
104.0495	566	C7H6N+
105.0573	999	C7H7N+
106.0651	22	C7H8N+
107.0493	18	C7H7O+
108.0447	12	C6H6NO+
117.0573	206	C8H7N+
118.0651	120	C8H8N+
119.0731	11	C8H9N+
122.0601	20	C7H8NO+
130.0651	28	C9H8N+
131.0734	13	C9H9N+
132.0805	18	C9H10N+
137.0478	11	C7H7NO2+
