Mass spectrum: Sulfamethoxazole; LC-ESI-ITFT; MS2; CE: 75%; R=15000; [M+H]+
Name: Sulfamethoxazole
Name: 4-amino-N-(5-methyl-1,2-oxazol-3-yl)benzenesulfonamide
Formula: C10H11N3O3S
Exact mass: 253.0521
SMILES: CC1=CC(=NO1)NS(=O)(=O)C2=CC=C(C=C2)N
InChI: InChI=1S/C10H11N3O3S/c1-7-6-10(12-16-7)13-17(14,15)9-4-2-8(11)3-5-9/h2-6H,11H2,1H3,(H,12,13)
Instrument: LTQ Orbitrap XL Thermo Scientific
Instrument type: LC-ESI-ITFT
Ms type: MS2
Ion mode: POSITIVE
Ionization: ESI
Fragmentation mode: CID
Collision energy: 75% (nominal)
Resolution: 15000
Column name: Kinetex Evo C18 2.6 um 50 x 2.1 mm
Retention time: 5.617 min
Base peak: 189.1023
Precursor m/z: 254.0594
Precursor type: [M+H]+
m/z	relative intensity	assigned
65.0385	6	C5H5+
80.0494	5	C5H6N+
92.0496	111	C6H6N+
93.0574	29	C6H7N+
94.0652	30	C6H8N+
99.0554	20	C4H7N2O+
107.0606	28	C6H7N2+
108.0445	252	C6H6NO+
119.0605	1	C7H7N2+
121.0762	5	C7H9N2+
131.0605	9	C8H7N2+
132.0683	3	C8H8N2+
133.0637	2	C7H7N3+
145.0763	2	C9H9N2+
146.0715	158	C8H8N3+
147.0793	626	C8H9N3+
148.087	151	C8H10N3+
156.0116	999	C6H6NO2S+
160.087	452	C9H10N3+
161.0017	8	C4H5N2O3S+
161.071	12	C9H9N2O+
161.0943	3	C9H11N3+
163.0865	5	C9H11N2O+
172.0872	16	C10H10N3+
173.0583	1	C9H7N3O+
173.0713	2	C10H9N2O+
176.0279	35	C8H6N3S+
177.0121	5	C8H5N2OS+
188.0821	911	C10H10N3O+
190.0976	285	C10H12N3O+
193.0306	3	C8H7N3OS+
194.0384	370	C8H8N3OS+
236.0492	14	C10H10N3O2S+
254.0596	8	C10H12N3O3S+
