Mass spectrum: Mefruside; LC-ESI-QTOF; MS2; CE: 45 eV; R=3600; [M+H]+
Name: Mefruside
Name: 4-Chloro-N1-methyl-N1-[(2-methyloxolan-2-yl)methyl]benzene-1,3-disulfonamide
Formula: C13H19ClN2O5S2
Exact mass: 382.0424
SMILES: CN(CC1(C)CCCO1)S(=O)(=O)C1=CC=C(Cl)C(=C1)S(N)(=O)=O
InChI: InChI=1S/C13H19ClN2O5S2/c1-13(6-3-7-21-13)9-16(2)23(19,20)10-4-5-11(14)12(8-10)22(15,17)18/h4-5,8H,3,6-7,9H2,1-2H3,(H2,15,17,18)
Instrument: 6618 QTOF Agilent
Instrument type: LC-ESI-QTOF
Ms type: MS2
Ion mode: POSITIVE
Ionization: ESI
Fragmentation mode: CID
Collision energy: 45 eV
Resolution: 3600
Precursor m/z: 383.0497
Precursor type: [M+H]+
m/z	relative intensity
53.0396	110
55.0547	127
57.034	269
69.07	82
79.0542	325
81.0697	478
84.0805	999
86.0596	99
96.0803	106
99.0803	55
108.9833	400
114.9928	100
140.9722	83
142.0042	105
142.9879	317
172.945	54
189.9687	76
