Mass spectrum: Metoclopramide; LC-ESI-ITFT; MS2; CE: 135%; R=15000; [M+H]+
Name: Metoclopramide
Name: 4-amino-5-chloro-N-[2-(diethylamino)ethyl]-2-methoxybenzamide
Formula: C14H22ClN3O2
Exact mass: 299.1401
SMILES: CCN(CC)CCNC(=O)C1=CC(=C(C=C1OC)N)Cl
InChI: InChI=1S/C14H22ClN3O2/c1-4-18(5-2)7-6-17-14(19)10-8-11(15)12(16)9-13(10)20-3/h8-9H,4-7,16H2,1-3H3,(H,17,19)
Instrument: LTQ Orbitrap XL Thermo Scientific
Instrument type: LC-ESI-ITFT
Ms type: MS2
Ion mode: POSITIVE
Ionization: ESI
Fragmentation mode: HCD
Collision energy: 135% (nominal)
Resolution: 15000
Column name: Kinetex Evo C18 2.6 um 50 x 2.1 mm
Retention time: 2.915 min
Base peak: 300.1475
Precursor m/z: 300.1473
Precursor type: [M+H]+
m/z	relative intensity	assigned
52.0181	2	C3H2N+
54.0337	3	C3H4N+
63.0228	106	C5H3+
64.0181	5	C4H2N+
65.0385	22	C5H5+
66.0461	4	C5H6+
72.0808	5	C4H10N+
72.9839	20	C3H2Cl+
78.0338	513	C5H4N+
80.0494	5	C5H6N+
82.0288	4	C4H4NO+
86.9995	3	C4H4Cl+
90.0339	254	C6H4N+
91.0416	16	C6H5N+
92.0495	16	C6H6N+
93.0574	71	C6H7N+
98.9997	108	C5H4Cl+
105.0448	83	C6H5N2+
106.0289	8	C6H4NO+
108.0445	36	C6H6NO+
113.0028	999	C5H4ClN+
114.0061	13	ClH5N3O2+
114.0106	17	C5H5ClN+
119.0604	9	C7H7N2+
120.0446	12	C7H6NO+
126.0106	34	C6H5ClN+
127.0184	22	C6H6ClN+
128.0262	18	C6H7ClN+
129.0103	15	C6H6ClO+
139.0058	10	C6H4ClN2+
140.0137	60	C6H5ClN2+
140.9977	508	C6H4ClNO+
144.021	8	C6H7ClNO+
148.0633	15	C8H8N2O+
153.0221	5	C7H6ClN2+
154.0054	22	C7H5ClNO+
156.0212	17	C7H7ClNO+
168.0086	193	C7H5ClN2O+
168.9927	38	C7H4ClNO2+
169.0119	4	C2H6ClN4O3+
170.0008	16	C7H5ClNO2+
181.0164	11	C8H6ClN2O+
183.0322	5	C11H5NO2+
184.0161	36	C8H7ClNO2+
187.0033	13	C7H6ClNO3+
212.0331	3	C7H7ClN5O+
