Mass spectrum: Dothiepin; LC-ESI-QTOF; MS2; CE: 15 eV; R=3600; [M+H]+
Name: Dothiepin
Name: 3-(Dibenzo[b,e]thiepin-11(6H)-ylidene)-N,N-dimethylpropan-1-amine
Formula: C19H21NS
Exact mass: 295.1395
SMILES: CN(C)CCC=C1C2=CC=CC=C2CSC2=C1C=CC=C2
InChI: InChI=1S/C19H21NS/c1-20(2)13-7-11-17-16-9-4-3-8-15(16)14-21-19-12-6-5-10-18(17)19/h3-6,8-12H,7,13-14H2,1-2H3
Instrument: 6581 QTOF Agilent
Instrument type: LC-ESI-QTOF
Ms type: MS2
Ion mode: POSITIVE
Ionization: ESI
Fragmentation mode: CID
Collision energy: 15 eV
Resolution: 3600
Precursor m/z: 296.1468
Precursor type: [M+H]+
m/z	relative intensity
44.9797	58
58.0654	357
91.0538	224
115.0533	110
117.0686	320
123.0252	154
141.0685	49
147.025	220
165.0686	120
173.0403	58
178.0766	221
179.0837	75
191.0847	134
192.0911	124
202.0761	189
203.084	469
209.0402	163
210.0479	149
217.0997	326
218.1074	619
221.0403	332
222.0479	248
223.0557	684
225.072	340
235.056	81
236.0637	110
251.0875	233
296.1468	999
