Mass spectrum: Dothiepin; LC-ESI-ITFT; MS2; CE: 75%; R=7500; [M+H]+
Name: Dothiepin
Name: 3-(Dibenzo[b,e]thiepin-11(6H)-ylidene)-N,N-dimethylpropan-1-amine
Formula: C19H21NS
Exact mass: 295.1395
SMILES: CN(C)CCC=C1C2=CC=CC=C2CSC2=C1C=CC=C2
InChI: InChI=1S/C19H21NS/c1-20(2)13-7-11-17-16-9-4-3-8-15(16)14-21-19-12-6-5-10-18(17)19/h3-6,8-12H,7,13-14H2,1-2H3
Instrument: LTQ Orbitrap XL Thermo Fisher Scientific
Instrument type: LC-ESI-ITFT
Ms type: MS2
Ion mode: POSITIVE
Ionization: ESI
Fragmentation mode: HCD
Collision energy: 75% (nominal)
Resolution: 7500
Column name: Hypersil GOLD C18 1.9 um 100 x 2.1 mm Thermo Fisher Scientific
Precursor m/z: 296.1468
Precursor type: [M+H]+
m/z	relative intensity
57.1071	10
57.1275	11
57.1525	5
57.1639	6
58.065	63
70.0652	5
84.0807	22
91.0541	243
103.0541	9
115.0542	146
117.0699	585
123.0263	249
128.0621	11
129.0698	99
135.0262	46
141.07	74
142.0777	56
147.0264	240
165.0698	244
173.0421	69
178.0779	388
179.0855	146
181.1006	6
189.0699	6
190.0779	27
191.0856	214
192.0935	274
197.0421	16
198.736	11
202.0777	225
203.0858	999
204.0934	57
205.1011	16
208.0342	41
209.0421	161
210.05	355
211.0581	9
215.0858	49
216.0938	36
217.1014	763
218.1093	790
221.0422	665
222.0501	407
223.0579	943
224.0654	6
225.0734	109
234.0501	57
235.058	199
236.0657	145
249.0736	21
251.0894	12
