Mass spectrum: Dosulepin; LC-ESI-ITFT; MS2; CE: 150%; R=15000; [M+H]+
Name: Dosulepin
Name: Dothiepin
Name: 3-(6H-benzo[c][1]benzothiepin-11-ylidene)-N,N-dimethylpropan-1-amine
Formula: C19H21NS
Exact mass: 295.1395
SMILES: CN(C)CCC=C1C2=CC=CC=C2CSC3=CC=CC=C31
InChI: InChI=1S/C19H21NS/c1-20(2)13-7-11-17-16-9-4-3-8-15(16)14-21-19-12-6-5-10-18(17)19/h3-6,8-12H,7,13-14H2,1-2H3
Instrument: LTQ Orbitrap XL Thermo Scientific
Instrument type: LC-ESI-ITFT
Ms type: MS2
Ion mode: POSITIVE
Ionization: ESI
Fragmentation mode: HCD
Collision energy: 150% (nominal)
Resolution: 15000
Column name: Kinetex Evo C18 2.6 um 50 x 2.1 mm
Retention time: 8.178 min
Base peak: 296.1467
Precursor m/z: 296.1467
Precursor type: [M+H]+
m/z	relative intensity	assigned
58.0649	52	C3H8N+
65.0384	53	C5H5+
77.0384	20	C6H5+
79.0541	9	C6H7+
89.0385	9	C7H5+
91.0542	252	C7H7+
103.0542	8	C8H7+
105.0447	34	C6H5N2+
115.0542	257	C9H7+
117.0701	6	C9H9+
128.0621	64	C10H8+
134.0187	15	C8H6S+
139.0542	24	C11H7+
141.0699	40	C11H9+
147.0262	16	C9H7S+
151.0541	20	C12H7+
152.062	114	C12H8+
155.0604	15	C10H7N2+
163.0541	22	C13H7+
164.0621	40	C13H8+
165.0699	207	C13H9+
169.0649	9	C12H9O+
171.0259	10	C11H7S+
176.0621	140	C14H8+
177.0699	81	C14H9+
178.0778	259	C14H10+
189.07	226	C15H9+
190.0777	39	C15H10+
191.0855	45	C15H11+
200.0622	71	C16H8+
201.07	120	C16H9+
202.0778	999	C16H10+
203.0854	16	C16H11+
208.0342	56	C14H8S+
213.0697	26	C17H9+
214.0768	9	C17H10+
215.0855	364	C17H11+
216.0935	14	C17H12+
219.0264	12	C15H7S+
219.0804	18	C16H11O+
220.0341	46	C15H8S+
221.0419	444	C15H9S+
229.0765	11	C16H9N2+
233.042	21	C16H9S+
234.0498	90	C16H10S+
