Mass spectrum: Kojic acid; LC-ESI-ITFT; MS2; CE: 40%; R=7500; [M-H]-
Name: Kojic acid
Name: 5-hydroxy-2-(hydroxymethyl)pyran-4-one
Formula: C6H6O4
Exact mass: 142.0266
SMILES: C1=C(OC=C(C1=O)O)CO
InChI: InChI=1S/C6H6O4/c7-2-4-1-5(8)6(9)3-10-4/h1,3,7,9H,2H2
Instrument: LTQ Orbitrap XL Thermo Scientific
Instrument type: LC-ESI-ITFT
Ms type: MS2
Ion mode: NEGATIVE
Ionization: ESI
Fragmentation mode: HCD
Collision energy: 40 % (nominal)
Resolution: 7500
Column name: Hypersil GOLD C18 1.9 um 100 x 2.1 mm Thermo Fisher Scientific
Retention time: 1.515 min
Base peak: 173.0454
Precursor m/z: 141.0193
Precursor type: [M-H]-
Precursor intensity: 58621.89453125
m/z	relative intensity	assigned
141.0195	999	C6H5O4-
