Mass spectrum: Etilefrine; LC-ESI-ITFT; MS2; CE: 125%; R=15000; [M+H]+
Name: Etilefrine
Name: 3-[2-(ethylamino)-1-hydroxyethyl]phenol
Formula: C10H15NO2
Exact mass: 181.1103
SMILES: CCNCC(C1=CC(=CC=C1)O)O
InChI: InChI=1S/C10H15NO2/c1-2-11-7-10(13)8-4-3-5-9(12)6-8/h3-6,10-13H,2,7H2,1H3
Instrument: LTQ Orbitrap XL Thermo Scientific
Instrument type: LC-ESI-ITFT
Ms type: MS2
Ion mode: POSITIVE
Ionization: ESI
Fragmentation mode: HCD
Collision energy: 125% (nominal)
Resolution: 15000
Column name: Kinetex Evo C18 2.6 um 50 x 2.1 mm
Retention time: 0.618 min
Base peak: 182.1177
Precursor m/z: 182.1176
Precursor type: [M+H]+
m/z	relative intensity	assigned
65.0384	141	C5H5+
77.0385	53	C6H5+
79.0542	52	C6H7+
81.07	32	C6H9+
90.0466	9	C7H6+
91.0543	999	C7H7+
92.0492	11	C6H6N+
94.0413	64	C6H6O+
95.0493	14	C6H7O+
103.0541	26	C8H7+
104.0494	11	C7H6N+
105.0449	46	C6H5N2+
106.0651	47	C7H8N+
107.0491	172	C7H7O+
108.0571	25	C7H8O+
109.0648	27	C7H9O+
117.0572	37	C8H7N+
118.0651	64	C8H8N+
119.0494	16	C8H7O+
120.0445	56	C7H6NO+
134.0601	161	C8H8NO+
135.0679	33	C8H9NO+
