Mass spectrum: Etilefrine; LC-ESI-ITFT; MS2; CE: 120%; R=15000; [M+H]+
Name: Etilefrine
Name: 3-[2-(ethylamino)-1-hydroxyethyl]phenol
Formula: C10H15NO2
Exact mass: 181.1103
SMILES: CCNCC(C1=CC(=CC=C1)O)O
InChI: InChI=1S/C10H15NO2/c1-2-11-7-10(13)8-4-3-5-9(12)6-8/h3-6,10-13H,2,7H2,1H3
Instrument: LTQ Orbitrap XL Thermo Scientific
Instrument type: LC-ESI-ITFT
Ms type: MS2
Ion mode: POSITIVE
Ionization: ESI
Fragmentation mode: HCD
Collision energy: 120% (nominal)
Resolution: 15000
Column name: Kinetex Evo C18 2.6 um 50 x 2.1 mm
Retention time: 0.619 min
Base peak: 182.1175
Precursor m/z: 182.1176
Precursor type: [M+H]+
m/z	relative intensity	assigned
56.0494	11	C3H6N+
65.0384	100	C5H5+
77.0385	60	C6H5+
79.0542	37	C6H7+
80.0496	11	C5H6N+
81.0699	31	C6H9+
90.0463	15	C7H6+
91.0542	999	C7H7+
92.0497	14	C6H6N+
93.0574	13	C6H7N+
94.0413	44	C6H6O+
95.0493	10	C6H7O+
103.0541	14	C8H7+
104.0496	21	C7H6N+
105.0447	42	C6H5N2+
106.0651	42	C7H8N+
107.0492	172	C7H7O+
108.0571	23	C7H8O+
109.0647	31	C7H9O+
117.0573	33	C8H7N+
118.0418	8	C8H6O+
118.0651	78	C8H8N+
119.0491	23	C8H7O+
120.0444	57	C7H6NO+
134.06	177	C8H8NO+
135.0678	47	C8H9NO+
