Mass spectrum: Dixyrazine ; LC-ESI-ITFT; MS2; CE: 65%; R=7500; [M+H]+
Name: Dixyrazine
Name: 2-(2-{4-[2-Methyl-3-(10H-phenothiazin-10-yl)propyl]piperazin-1-yl}ethoxy)ethan-1-ol
Formula: C24H33N3O2S
Exact mass: 427.2293
SMILES: CC(CN1CCN(CCOCCO)CC1)CN1C2=CC=CC=C2SC2=CC=CC=C12
InChI: InChI=1S/C24H33N3O2S/c1-20(18-26-12-10-25(11-13-26)14-16-29-17-15-28)19-27-21-6-2-4-8-23(21)30-24-9-5-3-7-22(24)27/h2-9,20,28H,10-19H2,1H3
Instrument: LTQ Orbitrap XL Thermo Fisher Scientific
Instrument type: LC-ESI-ITFT
Ms type: MS2
Ion mode: POSITIVE
Ionization: ESI
Fragmentation mode: HCD
Collision energy: 65% (nominal)
Resolution: 7500
Column name: Hypersil GOLD C18 1.9 um 100 x 2.1 mm Thermo Fisher Scientific
Precursor m/z: 428.2367
Precursor type: [M+H]+
m/z	relative intensity
56.0494	5
57.0518	4
57.0614	4
57.0644	10
57.0707	7
57.0755	6
57.08	6
57.0819	7
57.092	7
57.0966	6
57.1014	6
57.1066	6
57.1141	6
57.121	6
57.1322	5
58.065	22
70.065	117
82.065	38
83.0603	5
84.0806	32
87.0439	132
97.076	265
98.0838	999
99.0917	59
100.0758	19
101.1073	702
110.0839	25
112.1121	31
113.1073	20
118.0864	17
125.1073	190
130.0861	14
132.1018	7
140.1307	40
144.102	124
155.1543	26
172.1207	205
179.073	28
180.0809	419
187.1441	472
188.9293	11
198.0374	17
199.0452	46
206.0967	10
212.053	660
220.1121	16
221.1203	25
229.1915	251
254.1001	21
273.8046	11
