Mass spectrum: Sulthiame; LC-ESI-ITFT; MS2; CE: 95%; R=15000; [M+H]+
Name: Sulthiame
Name: 4-(1,1-dioxothiazinan-2-yl)benzenesulfonamide
Formula: C10H14N2O4S2
Exact mass: 290.0395
SMILES: C1CCS(=O)(=O)N(C1)C2=CC=C(C=C2)S(=O)(=O)N
InChI: InChI=1S/C10H14N2O4S2/c11-18(15,16)10-5-3-9(4-6-10)12-7-1-2-8-17(12,13)14/h3-6H,1-2,7-8H2,(H2,11,15,16)
Instrument: LTQ Orbitrap XL Thermo Scientific
Instrument type: LC-ESI-ITFT
Ms type: MS2
Ion mode: POSITIVE
Ionization: ESI
Fragmentation mode: HCD
Collision energy: 95% (nominal)
Resolution: 15000
Column name: Kinetex Evo C18 2.6 um 50 x 2.1 mm
Retention time: 4.421 min
Base peak: 313.0287
Precursor m/z: 291.0468
Precursor type: [M+H]+
m/z	relative intensity	assigned
55.054	28	C4H7+
91.0542	41	C7H7+
92.0495	27	C6H6N+
93.0573	24	C6H7N+
94.0413	38	C6H6O+
94.0651	12	C6H8N+
95.0492	10	C6H7O+
104.0495	130	C7H6N+
105.0573	999	C7H7N+
106.0651	29	C7H8N+
108.0444	10	C6H6NO+
117.0573	67	C8H7N+
118.0651	121	C8H8N+
119.073	25	C8H9N+
121.076	19	C7H9N2+
122.06	90	C7H8NO+
132.0808	58	C9H10N+
134.0601	8	C8H8NO+
137.047	12	C7H7NO2+
146.0961	18	C10H12N+
147.1045	20	C10H13N+
169.0081	7	H11NO5S2+
185.038	311	C7H9N2O2S+
