Mass spectrum: Dixyrazine; LC-ESI-ITFT; MS2; CE: 55%; R=15000; [M+H]+
Name: Dixyrazine
Name: 2-[2-[4-(2-methyl-3-phenothiazin-10-ylpropyl)piperazin-1-yl]ethoxy]ethanol
Formula: C24H33N3O2S
Exact mass: 427.2293
SMILES: CC(CN1CCN(CC1)CCOCCO)CN2C3=CC=CC=C3SC4=CC=CC=C42
InChI: InChI=1S/C24H33N3O2S/c1-20(18-26-12-10-25(11-13-26)14-16-29-17-15-28)19-27-21-6-2-4-8-23(21)30-24-9-5-3-7-22(24)27/h2-9,20,28H,10-19H2,1H3
Instrument: LTQ Orbitrap XL Thermo Scientific
Instrument type: LC-ESI-ITFT
Ms type: MS2
Ion mode: POSITIVE
Ionization: ESI
Fragmentation mode: HCD
Collision energy: 55% (nominal)
Resolution: 15000
Column name: Kinetex Evo C18 2.6 um 50 x 2.1 mm
Retention time: 8.979 min
Base peak: 428.2364
Precursor m/z: 428.2366
Precursor type: [M+H]+
m/z	relative intensity	assigned
58.0649	38	C3H8N+
70.065	199	C4H8N+
82.0651	40	C5H8N+
84.0807	30	C5H10N+
87.044	180	C4H7O2+
97.076	275	C5H9N2+
98.0838	998	C5H10N2+
98.0964	77	C6H12N+
99.0916	75	C5H11N2+
100.0757	21	C5H10NO+
100.112	9	C6H14N+
101.1073	903	C5H13N2+
110.0838	18	C6H10N2+
111.0915	6	C6H11N2+
112.0995	20	C6H12N2+
112.112	48	C7H14N+
113.1075	22	C6H13N2+
118.0861	28	C5H12NO2+
125.1073	250	C7H13N2+
127.1235	7	C7H15N2+
130.0865	11	C6H12NO2+
132.1016	9	C6H14NO2+
140.1307	52	C8H16N2+
144.1018	155	C7H14NO2+
155.1542	36	C9H19N2+
172.1206	218	C8H16N2O2+
180.0807	205	C13H10N+
187.144	999	C9H19N2O2+
198.0368	11	C12H8NS+
199.0449	38	C12H9NS+
206.0965	6	C15H12N+
212.0528	761	C13H10NS+
220.112	11	C16H14N+
221.1198	22	C16H15N+
229.191	706	C12H25N2O2+
230.1942	12	C13H28NS+
254.0996	38	C16H16NS+
