Mass spectrum: Dosulepin; LC-ESI-ITFT; MS2; CE: 60%; R=15000; [M+H]+
Name: Dosulepin
Name: Dothiepin
Name: 3-(6H-benzo[c][1]benzothiepin-11-ylidene)-N,N-dimethylpropan-1-amine
Formula: C19H21NS
Exact mass: 295.1395
SMILES: CN(C)CCC=C1C2=CC=CC=C2CSC3=CC=CC=C31
InChI: InChI=1S/C19H21NS/c1-20(2)13-7-11-17-16-9-4-3-8-15(16)14-21-19-12-6-5-10-18(17)19/h3-6,8-12H,7,13-14H2,1-2H3
Instrument: LTQ Orbitrap XL Thermo Scientific
Instrument type: LC-ESI-ITFT
Ms type: MS2
Ion mode: POSITIVE
Ionization: ESI
Fragmentation mode: HCD
Collision energy: 60% (nominal)
Resolution: 15000
Column name: Kinetex Evo C18 2.6 um 50 x 2.1 mm
Retention time: 8.351 min
Base peak: 296.1467
Precursor m/z: 296.1467
Precursor type: [M+H]+
m/z	relative intensity	assigned
58.0649	199	C3H8N+
73.0106	11	C3H5S+
84.0808	25	C5H10N+
91.0543	230	C7H7+
115.0543	37	C9H7+
117.0699	538	C9H9+
123.0264	254	C7H7S+
129.07	51	C10H9+
135.0265	27	C8H7S+
141.0699	45	C11H9+
142.0778	49	C11H10+
147.0263	208	C9H7S+
165.0699	65	C13H9+
173.0419	72	C11H9S+
178.0778	107	C14H10+
179.0857	53	C14H11+
191.0856	127	C15H11+
192.0934	189	C15H12+
202.0776	54	C16H10+
203.0856	353	C16H11+
204.0934	34	C16H12+
205.101	22	C16H13+
209.0421	225	C14H9S+
210.0498	141	C14H10S+
211.0586	11	C14H11S+
217.1013	336	C17H13+
218.1091	999	C17H14+
221.042	219	C15H9S+
222.0498	273	C15H10S+
223.0577	898	C15H11S+
225.0733	257	C15H13S+
235.0577	55	C16H11S+
236.0655	179	C16H12S+
249.0734	32	C17H13S+
251.0891	57	C17H15S+
296.147	10	C19H22NS+
