Mass spectrum: Metoclopramide; LC-ESI-ITFT; MS2; CE: 125%; R=15000; [M+H]+
Name: Metoclopramide
Name: 4-amino-5-chloro-N-[2-(diethylamino)ethyl]-2-methoxybenzamide
Formula: C14H22ClN3O2
Exact mass: 299.1401
SMILES: CCN(CC)CCNC(=O)C1=CC(=C(C=C1OC)N)Cl
InChI: InChI=1S/C14H22ClN3O2/c1-4-18(5-2)7-6-17-14(19)10-8-11(15)12(16)9-13(10)20-3/h8-9H,4-7,16H2,1-3H3,(H,17,19)
Instrument: LTQ Orbitrap XL Thermo Scientific
Instrument type: LC-ESI-ITFT
Ms type: MS2
Ion mode: POSITIVE
Ionization: ESI
Fragmentation mode: HCD
Collision energy: 125% (nominal)
Resolution: 15000
Column name: Kinetex Evo C18 2.6 um 50 x 2.1 mm
Retention time: 2.745 min
Base peak: 300.1477
Precursor m/z: 300.1473
Precursor type: [M+H]+
m/z	relative intensity	assigned
63.0227	89	C5H3+
65.0384	22	C5H5+
72.0806	10	C4H10N+
72.9838	13	C3H2Cl+
78.0338	326	C5H4N+
80.0495	6	C5H6N+
82.0288	5	C4H4NO+
90.0338	310	C6H4N+
91.0417	14	C6H5N+
92.0495	19	C6H6N+
93.0573	90	C6H7N+
98.9996	120	C5H4Cl+
105.0448	76	C6H5N2+
106.0287	6	C6H4NO+
108.0444	47	C6H6NO+
113.0027	999	C5H4ClN+
114.0104	12	C5H5ClN+
119.0604	12	C7H7N2+
120.0444	23	C7H6NO+
121.0521	4	C7H7NO+
126.0106	70	C6H5ClN+
127.0184	28	C6H6ClN+
128.0262	33	C6H7ClN+
129.0103	33	C6H6ClO+
133.0395	10	C7H5N2O+
140.0137	71	C6H5ClN2+
140.9976	770	C6H4ClNO+
144.0212	16	C6H7ClNO+
147.0553	5	C8H7N2O+
148.0632	24	C8H8N2O+
154.0055	39	C7H5ClNO+
155.0132	4	C7H6ClNO+
156.021	34	C7H7ClNO+
168.0086	360	C7H5ClN2O+
168.9926	87	C7H4ClNO2+
170.0004	33	C7H5ClNO2+
181.0164	18	C8H6ClN2O+
182.0243	7	C8H7ClN2O+
183.0321	15	C8H8ClN2O+
184.0161	111	C8H7ClNO2+
187.0032	32	C7H6ClNO3+
212.0345	11	C9H9ClN2O2+
