Mass spectrum: Equisetin; LC-ESI-ITFT; MS2; CE: 30%; R=7500; [M+H]+
Name: Equisetin
Name: 3-[(1,6-dimethyl-2-prop-1-enyl-4a,5,6,7,8,8a-hexahydro-2H-naphthalen-1-yl)-hydroxymethylidene]-5-(hydroxymethyl)-1-methylpyrrolidine-2,4-dione
Formula: C22H31NO4
Exact mass: 373.2253
SMILES: CC=CC1C=CC2CC(CCC2C1(C)C(=C3C(=O)C(N(C3=O)C)CO)O)C
InChI: InChI=1S/C22H31NO4/c1-5-6-15-9-8-14-11-13(2)7-10-16(14)22(15,3)20(26)18-19(25)17(12-24)23(4)21(18)27/h5-6,8-9,13-17,24,26H,7,10-12H2,1-4H3
Instrument: LTQ Orbitrap XL Thermo Scientific
Instrument type: LC-ESI-ITFT
Ms type: MS2
Ion mode: POSITIVE
Ionization: ESI
Fragmentation mode: HCD
Collision energy: 30 % (nominal)
Resolution: 7500
Column name: Hypersil GOLD C18 1.9 um 100 x 2.1 mm Thermo Fisher Scientific
Retention time: 27.742 min
Base peak: 374.2333
Precursor m/z: 374.2326
Precursor type: [M+H]+
Precursor intensity: 11793795.11377
m/z	relative intensity	assigned
72.1717	5	H24O3+
81.0698	21	C6H9+
83.0855	13	C6H11+
95.0857	8	C7H11+
105.0698	15	C8H9+
107.0852	7	C8H11+
119.0857	33	C9H11+
126.0549	7	C6H8NO2+
133.1011	21	C10H13+
135.1171	11	C10H15+
144.0657	56	C6H10NO3+
147.117	50	C11H15+
149.133	26	C11H17+
152.0701	6	C8H10NO2+
156.0663	9	C7H10NO3+
159.1163	5	C12H15+
163.1483	23	C12H19+
166.0861	4	C9H12NO2+
170.045	124	C7H8NO4+
170.0813	219	C8H12NO3+
173.1331	15	C13H17+
175.1482	999	C13H19+
177.1638	75	C13H21+
182.0814	17	C9H12NO3+
184.097	71	C9H14NO3+
186.0758	13	C8H12NO4+
187.1487	12	C14H19+
189.1638	57	C14H21+
196.0968	6	C10H14NO3+
198.0762	8	C9H12NO4+
198.1121	9	C10H16NO3+
200.092	141	C9H14NO4+
201.1646	5	C15H21+
203.1799	31	C15H23+
205.1952	125	C15H25+
210.1125	4	C11H16NO3+
212.0911	7	C10H14NO4+
213.1633	25	C16H21+
224.1292	4	C12H18NO3+
231.174	25	C16H23O+
238.1065	9	C12H16NO4+
288.159	13	C17H22NO3+
290.1765	7	C17H24NO3+
292.1545	8	C16H22NO4+
294.1705	14	C16H24NO4+
300.1608	12	C18H22NO3+
302.1751	15	C18H24NO3+
306.1689	12	C17H24NO4+
326.2122	11	C21H28NO2+
346.2378	153	C21H32NO3+
356.222	315	C22H30NO3+
374.2328	387	C22H32NO4+
