Mass spectrum: Phenazone; LC-ESI-ITFT; MS2; CE: 65%; R=7500; [M+H]+
Name: Phenazone
Name: 1,5-Dimethyl-2-phenyl-1,2-dihydro-3H-pyrazol-3-one
Formula: C11H12N2O
Exact mass: 188.095
SMILES: CN1N(C(=O)C=C1C)C1=CC=CC=C1
InChI: InChI=1S/C11H12N2O/c1-9-8-11(14)13(12(9)2)10-6-4-3-5-7-10/h3-8H,1-2H3
Instrument: LTQ Orbitrap XL Thermo Fisher Scientific
Instrument type: LC-ESI-ITFT
Ms type: MS2
Ion mode: POSITIVE
Ionization: ESI
Fragmentation mode: HCD
Collision energy: 65% (nominal)
Resolution: 7500
Column name: Hypersil GOLD C18 1.9 um 100 x 2.1 mm Thermo Fisher Scientific
Precursor m/z: 189.1023
Precursor type: [M+H]+
m/z	relative intensity
56.0494	26
58.065	30
65.0385	4
68.0494	2
70.065	4
77.0385	6
81.0447	5
91.0542	14
92.0495	3
93.0334	3
94.065	2
95.0605	6
96.0682	37
98.0601	14
103.0543	5
104.0496	91
106.0652	47
111.0554	3
115.0541	3
117.0699	20
118.0652	46
120.0809	42
129.0574	2
130.0652	55
131.073	80
132.0808	40
133.0761	10
134.0964	10
135.0552	3
143.0734	2
144.081	74
145.0649	31
146.084	79
147.0918	131
148.0758	10
149.071	8
159.092	3
160.0996	5
161.1075	91
172.0758	17
174.079	70
189.1023	999
