Mass spectrum: Tetracycline; LC-ESI-ITFT; MS2; CE: 100%; R=15000; [M+H]+
Name: Tetracycline
Name: 2-[amino(hydroxy)methylidene]-4-(dimethylamino)-6,10,11,12a-tetrahydroxy-6-methyl-4,4a,5,5a-tetrahydrotetracene-1,3,12-trione
Formula: C22H24N2O8
Exact mass: 444.1533
SMILES: [H][C@@]12C[C@@]3([H])C(=C(O)[C@]1(O)C(=O)C(C(N)=O)=C(O)[C@H]2N(C)C)C(=O)C1=C(C=CC=C1O)[C@@]3(C)O
InChI: InChI=1S/C22H24N2O8/c1-21(31)8-5-4-6-11(25)12(8)16(26)13-9(21)7-10-15(24(2)3)17(27)14(20(23)30)19(29)22(10,32)18(13)28/h4-6,9-10,15,25,27-28,31-32H,7H2,1-3H3,(H2,23,30)/t9-,10-,15-,21+,22-/m0/s1
Instrument: LTQ Orbitrap XL Thermo Scientific
Instrument type: LC-ESI-ITFT
Ms type: MS2
Ion mode: POSITIVE
Ionization: ESI
Fragmentation mode: HCD
Collision energy: 100% (nominal)
Resolution: 15000
Column name: Kinetex Evo C18 2.6 um 50 x 2.1 mm
Retention time: 2.761 min
Base peak: 300.1474
Precursor m/z: 445.1605
Precursor type: [M+H]+
m/z	relative intensity	assigned
70.0649	147	C4H8N+
71.0366	20	C3H5NO+
86.0601	45	C4H8NO+
98.06	411	C5H8NO+
131.049	38	C9H7O+
141.07	39	C11H9+
152.062	164	C12H8+
153.0694	30	C12H9+
157.0647	29	C11H9O+
164.0619	16	C13H8+
165.0699	134	C13H9+
166.0776	33	C13H10+
167.0856	68	C13H11+
168.0569	387	C12H8O+
169.0649	43	C12H9O+
170.0728	20	C12H10O+
176.062	58	C14H8+
177.0698	57	C14H9+
178.0777	64	C14H10+
179.0859	22	C14H11+
180.0569	177	C13H8O+
181.0649	68	C13H9O+
189.0698	52	C15H9+
192.0571	42	C14H8O+
193.0649	23	C14H9O+
194.0722	34	C14H10O+
195.0804	188	C14H11O+
196.0519	312	C13H8O2+
197.0596	86	C13H9O2+
198.0675	150	C13H10O2+
204.057	55	C15H8O+
205.0646	36	C15H9O+
208.0517	83	C14H8O2+
210.0677	35	C14H10O2+
211.0754	90	C14H11O2+
220.0517	43	C15H8O2+
221.06	27	C15H9O2+
223.0751	71	C15H11O2+
224.0468	155	C14H8O3+
226.0624	999	C14H10O3+
252.0419	162	C15H8O4+
