Mass spectrum: Dothiepin; LC-ESI-QFT; MS2; CE: 20%; R=30000; [M+H]+
Name: Dothiepin
Name: 3-(Dibenzo[b,e]thiepin-11(6H)-ylidene)-N,N-dimethylpropan-1-amine
Formula: C19H21NS
Exact mass: 295.1395
SMILES: CN(C)CCC=C1C2=CC=CC=C2CSC2=C1C=CC=C2
InChI: InChI=1S/C19H21NS/c1-20(2)13-7-11-17-16-9-4-3-8-15(16)14-21-19-12-6-5-10-18(17)19/h3-6,8-12H,7,13-14H2,1-2H3
Instrument: Orbitrap Fusion Tribrid Thermo Fisher Scientific
Instrument type: LC-ESI-QFT
Ms type: MS2
Ion mode: POSITIVE
Ionization: ESI
Fragmentation mode: HCD
Collision energy: 20% (nominal)
Resolution: 30000
Precursor m/z: 296.1468
Precursor type: [M+H]+
m/z	relative intensity
84.0809	3
91.0544	12
117.07	22
123.0265	10
135.0265	1
141.07	4
142.0779	3
147.0264	22
173.0421	5
178.0778	2
179.0856	1
191.0857	10
192.0934	2
202.0781	1
203.0854	2
204.0932	1
209.042	20
210.0495	1
211.0577	1
217.1011	16
218.1091	54
222.0499	16
223.0575	59
225.0733	142
236.0656	13
251.0888	168
253.1049	6
296.1468	999
