Mass spectrum: Etilefrine; LC-ESI-ITFT; MS2; CE: 80%; R=15000; [M+H]+
Name: Etilefrine
Name: 3-[2-(ethylamino)-1-hydroxyethyl]phenol
Formula: C10H15NO2
Exact mass: 181.1103
SMILES: CCNCC(C1=CC(=CC=C1)O)O
InChI: InChI=1S/C10H15NO2/c1-2-11-7-10(13)8-4-3-5-9(12)6-8/h3-6,10-13H,2,7H2,1H3
Instrument: LTQ Orbitrap XL Thermo Scientific
Instrument type: LC-ESI-ITFT
Ms type: MS2
Ion mode: POSITIVE
Ionization: ESI
Fragmentation mode: HCD
Collision energy: 80% (nominal)
Resolution: 15000
Column name: Kinetex Evo C18 2.6 um 50 x 2.1 mm
Retention time: 0.619 min
Base peak: 182.1175
Precursor m/z: 182.1176
Precursor type: [M+H]+
m/z	relative intensity	assigned
77.0385	13	C6H5+
81.0697	42	C6H9+
91.0542	999	C7H7+
93.0699	45	C7H9+
94.0414	11	C6H6O+
95.0495	7	C6H7O+
103.0543	30	C8H7+
104.0495	38	C7H6N+
105.0443	10	C6H5N2+
106.0649	8	C7H8N+
107.0491	59	C7H7O+
108.0568	16	C7H8O+
108.0809	17	C7H10N+
109.0648	253	C7H9O+
117.0573	9	C8H7N+
118.0411	10	C8H6O+
118.0651	100	C8H8N+
119.0491	175	C8H7O+
120.0443	23	C7H6NO+
121.0648	115	C8H9O+
134.06	120	C8H8NO+
135.0679	561	C8H9NO+
136.0757	149	C8H10NO+
164.107	347	C10H14NO+
