Mass spectrum: Diflufenican-OH (TENTATIVE); LC-ESI-QFT; MS2; CE: 30%; R=70000; [M+H]+
Name: Diflufenican-OH
Formula: C19H11F5N2O3
Exact mass: 410.0686
SMILES: C(*)1=C(*)C(=C(*)C(=C(*)1)OC2=C(C(*)=C(*)C(*)=N2)C(=O)NC3=C(C(*)=C(C(*)=C(*)3)F)F)C(F)(F)F  *=[OH (n=1) & H (n=9)]
Instrument: Q Exactive Plus Orbitrap Thermo Scientific
Instrument type: LC-ESI-QFT
Ms type: MS2
Ion mode: POSITIVE
Ionization: ESI
Fragmentation mode: HCD
Collision energy: 30% (nominal)
Resolution: 70000
Column name: Waters UPLC BEH C18 1.7 um 2.1 mm x 100 mm with pre-column
Retention time: 15.14 min
Precursor m/z: 411.0764
Precursor type: [M+H]+
m/z	relative intensity
203.0709	5
246.036	58
249.0471	22
265.0542	10
266.0422	999
267.0458	11
284.0527	46
351.0574	11
371.064	7
391.0702	10
393.0647	6
411.0761	18
