Mass spectrum: Antipyrine; LC-ESI-ITFT; MS2; CE: 110%; R=15000; [M+H]+
Name: Antipyrine
Name: 1,5-dimethyl-2-phenylpyrazol-3-one
Formula: C11H12N2O
Exact mass: 188.0950
SMILES: CC1=CC(=O)N(N1C)C2=CC=CC=C2
InChI: InChI=1S/C11H12N2O/c1-9-8-11(14)13(12(9)2)10-6-4-3-5-7-10/h3-8H,1-2H3
Instrument: LTQ Orbitrap XL Thermo Scientific
Instrument type: LC-ESI-ITFT
Ms type: MS2
Ion mode: POSITIVE
Ionization: ESI
Fragmentation mode: HCD
Collision energy: 110% (nominal)
Resolution: 15000
Column name: Kinetex Evo C18 2.6 um 50 x 2.1 mm
Retention time: 5.575 min
Base peak: 189.1023
Precursor m/z: 189.1022
Precursor type: [M+H]+
m/z	relative intensity	assigned
56.0492	999	C3H6N+
58.0649	309	C3H8N+
65.0384	162	C5H5+
67.0176	13	C4H3O+
68.0493	20	C4H6N+
69.0572	36	C4H7N+
77.0385	581	C6H5+
78.0464	19	C6H6+
79.0541	107	C6H7+
81.0447	61	C4H5N2+
82.0287	12	C4H4NO+
91.0542	163	C7H7+
92.0495	60	C6H6N+
93.0572	26	C6H7N+
94.0652	41	C6H8N+
95.0491	122	C6H7O+
95.0603	82	C5H7N2+
96.0682	60	C5H8N2+
98.06	130	C5H8NO+
102.0466	13	C8H6+
103.0542	152	C8H7+
104.0495	474	C7H6N+
105.0447	395	C6H5N2+
105.0571	26	C7H7N+
105.0699	26	C8H9+
106.0651	611	C7H8N+
115.0542	149	C9H7+
116.0495	15	C8H6N+
116.0622	13	C9H8+
117.0572	115	C8H7N+
117.0699	136	C9H9+
118.0651	133	C8H8N+
119.0603	11	C7H7N2+
120.0807	73	C8H10N+
128.0496	15	C9H6N+
129.0573	69	C9H7N+
130.0651	262	C9H8N+
131.0604	153	C8H7N2+
131.0729	78	C9H9N+
132.0682	120	C8H8N2+
132.0807	30	C9H10N+
133.0522	25	C8H7NO+
143.0734	14	C10H9N+
144.0807	73	C10H10N+
145.076	119	C9H9N2+
146.0606	9	C9H8NO+
146.0838	50	C9H10N2+
147.0916	100	C9H11N2+
159.056	12	C9H7N2O+
161.1068	9	C10H13N2+
173.0705	12	C10H9N2O+
189.1024	14	C11H13N2O+
