Mass spectrum: CLC_317.1417_14.6; LC-ESI-QFT; MS2; CE: 45; R=17500; [M+H]+
Name: CLC_317.1417_14.6
Formula: C18H21ClN2O
Exact mass: 316.1342
Instrument: Q Exactive Plus Orbitrap Thermo Scientific
Instrument type: LC-ESI-QFT
Ms type: MS2
Ion mode: POSITIVE
Ionization: ESI
Fragmentation mode: HCD
Collision energy: 45 (nominal)
Resolution: 17500
Column name: Atlantis T3 3um, 3x150mm, Waters with guard column
Retention time: 14.5 min
Base peak: 65.0597
Precursor m/z: 317.1415
Precursor type: [M+H]+
m/z	relative intensity	assigned
56.0495	17	C3H6N+
57.0573	1	C3H7N+
58.0652	156	C3H8N+
70.0651	28	C4H8N+
72.0808	24	C4H10N+
77.0389	1	C6H5+
84.0682	4	C4H8N2+
85.0886	17	C5H11N+
91.0542	2	C7H7+
99.0917	154	C5H11N2+
100.0995	95	C5H12N2+
101.1072	1	C5H13N2+
103.054	4	C8H7+
104.062	54	C8H8+
105.0333	1	C7H5O+
125.0153	2	C7H6Cl+
130.0652	6	C9H8N+
137.0151	3	C8H6Cl+
138.0231	36	C8H7Cl+
153.0699	19	C12H9+
154.0776	4	C12H10+
161.1072	1	C10H13N2+
164.0262	5	C9H7ClN+
165.0697	54	C13H9+
166.0777	171	C13H10+
179.0855	95	C14H11+
181.0644	4	C13H9O+
182.0727	6	C13H10O+
183.0805	10	C13H11O+
189.0465	11	C12H10Cl+
189.1391	1	C12H17N2+
193.0758	16	C13H9N2+
194.0962	2	C14H12N+
195.0692	1	C10H12ClN2+
199.0309	4	C13H8Cl+
201.0465	999	C13H10Cl+
206.0964	165	C15H12N+
214.0541	5	C14H11Cl+
215.062	2	C14H12Cl+
216.0569	1	C16H8O+
217.0416	12	C13H10ClO+
228.0575	325	C14H11ClN+
229.0653	60	C14H12ClN+
240.0575	445	C15H11ClN+
241.0652	94	C15H12ClN+
242.0731	248	C15H13ClN+
256.0886	10	C16H15ClN+
285.1152	7	C17H18ClN2+
299.1304	3	C18H20ClN2+
300.1385	1	C18H21ClN2+
317.1414	4	C18H22ClN2O+
