Mass spectrum: CLC_317.1417_14.6; LC-ESI-QFT; MS2; CE: 90; R=17500; [M+H]+
Name: CLC_317.1417_14.6
Formula: C18H21ClN2O
Exact mass: 316.1342
Instrument: Q Exactive Plus Orbitrap Thermo Scientific
Instrument type: LC-ESI-QFT
Ms type: MS2
Ion mode: POSITIVE
Ionization: ESI
Fragmentation mode: HCD
Collision energy: 90 (nominal)
Resolution: 17500
Column name: Atlantis T3 3um, 3x150mm, Waters with guard column
Retention time: 14.5 min
Base peak: 65.0597
Precursor m/z: 317.1415
Precursor type: [M+H]+
m/z	relative intensity	assigned
53.0387	2	C4H5+
56.0495	87	C3H6N+
57.0574	1	C3H7N+
58.0652	130	C3H8N+
70.0651	87	C4H8N+
71.0603	1	C3H7N2+
72.0808	18	C4H10N+
75.023	2	C6H3+
77.0383	2	C6H5+
78.0464	50	C6H6+
79.0542	2	C6H7+
83.0603	1	C4H7N2+
84.0682	12	C4H8N2+
89.0383	4	C7H5+
91.0542	18	C7H7+
95.0492	7	C6H7O+
99.0917	38	C5H11N2+
102.0463	12	C8H6+
103.0542	118	C8H7+
104.062	61	C8H8+
105.0446	5	C6H5N2+
105.07	5	C8H9+
112.0076	4	C6H5Cl+
115.054	4	C9H7+
116.0495	101	C8H6N+
117.0576	3	C8H7N+
118.0651	2	C8H8N+
125.0153	20	C7H6Cl+
128.0495	71	C9H6N+
130.0652	15	C9H8N+
134.06	22	C8H8NO+
137.0153	27	C8H6Cl+
138.0106	15	C7H5ClN+
138.0231	19	C8H7Cl+
139.0059	2	C6H4ClN2+
139.0306	3	C8H8Cl+
139.0537	3	C11H7+
146.06	29	C9H8NO+
150.0106	6	C8H5ClN+
152.062	18	C12H8+
153.0698	8	C12H9+
154.0776	4	C12H10+
160.0757	1	C10H10NO+
162.0105	10	C9H5ClN+
163.0538	1	C13H7+
164.0262	10	C9H7ClN+
164.0616	4	C13H8+
165.0699	999	C13H9+
166.0777	654	C13H10+
167.0854	1	C13H11+
168.0566	5	C12H8O+
178.0777	63	C14H10+
179.0855	64	C14H11+
180.021	4	C9H7ClNO+
180.0935	5	C14H12+
181.0648	3	C13H9O+
183.0804	4	C13H11O+
193.0888	182	C14H11N+
194.0965	4	C14H12N+
195.0682	1	C10H12ClN2+
199.0309	30	C13H8Cl+
201.0466	16	C13H10Cl+
204.0807	9	C15H10N+
205.0888	7	C15H11N+
206.0965	29	C15H12N+
216.0572	2	C16H8O+
227.0495	13	C14H10ClN+
228.0575	287	C14H11ClN+
240.0574	76	C15H11ClN+
242.0733	7	C15H13ClN+
