Mass spectrum: CLC_317.1417_14.6; LC-ESI-QFT; MS2; CE: 30; R=17500; [M+H]+
Name: CLC_317.1417_14.6
Formula: C18H21ClN2O
Exact mass: 316.1342
Instrument: Q Exactive Plus Orbitrap Thermo Scientific
Instrument type: LC-ESI-QFT
Ms type: MS2
Ion mode: POSITIVE
Ionization: ESI
Fragmentation mode: HCD
Collision energy: 30 (nominal)
Resolution: 17500
Column name: Atlantis T3 3um, 3x150mm, Waters with guard column
Retention time: 14.5 min
Base peak: 65.0597
Precursor m/z: 317.1415
Precursor type: [M+H]+
m/z	relative intensity	assigned
56.0495	10	C3H6N+
58.0652	117	C3H8N+
70.0652	17	C4H8N+
72.0808	22	C4H10N+
84.0683	3	C4H8N2+
85.0886	15	C5H11N+
99.0917	236	C5H11N2+
100.0995	334	C5H12N2+
101.1073	6	C5H13N2+
104.0619	8	C8H8+
105.0335	2	C7H5O+
125.0152	1	C7H6Cl+
130.0656	2	C9H8N+
138.0107	1	C7H5ClN+
138.0231	4	C8H7Cl+
153.0702	5	C12H9+
179.0855	14	C14H11+
182.0732	2	C10H13ClN+
189.0465	14	C12H10Cl+
189.1385	3	C12H17N2+
199.0302	1	C13H8Cl+
201.0466	999	C13H10Cl+
206.0964	71	C15H12N+
214.0543	3	C14H11Cl+
216.0576	1	C13H11ClN+
217.0416	77	C13H10ClO+
223.0996	2	C12H16ClN2+
228.0575	47	C14H11ClN+
229.0654	133	C14H12ClN+
240.0575	248	C15H11ClN+
241.0653	586	C15H12ClN+
242.0731	392	C15H13ClN+
243.0808	19	
256.0884	12	C16H15ClN+
285.1159	5	C17H18ClN2+
299.131	24	C18H20ClN2+
300.1388	136	C18H21ClN2+
317.1416	462	C18H22ClN2O+
