Mass spectrum: CLC_317.1417_14.6; LC-ESI-QFT; MS2; CE: 60; R=17500; [M+H]+
Name: CLC_317.1417_14.6
Formula: C18H21ClN2O
Exact mass: 316.1342
Instrument: Q Exactive Plus Orbitrap Thermo Scientific
Instrument type: LC-ESI-QFT
Ms type: MS2
Ion mode: POSITIVE
Ionization: ESI
Fragmentation mode: HCD
Collision energy: 60 (nominal)
Resolution: 17500
Column name: Atlantis T3 3um, 3x150mm, Waters with guard column
Retention time: 14.5 min
Base peak: 65.0597
Precursor m/z: 317.1415
Precursor type: [M+H]+
m/z	relative intensity	assigned
56.0495	44	C3H6N+
57.0573	1	C3H7N+
58.0652	218	C3H8N+
70.0651	74	C4H8N+
72.0808	41	C4H10N+
78.0464	11	C6H6+
84.0683	11	C4H8N2+
85.0887	13	C5H11N+
91.0542	10	C7H7+
99.0917	183	C5H11N2+
100.0995	29	C5H12N2+
103.0542	42	C8H7+
104.062	153	C8H8+
105.0698	4	C8H9+
115.0544	1	C9H7+
116.05	2	C8H6N+
118.0651	1	C8H8N+
125.0153	12	C7H6Cl+
128.0492	4	C9H6N+
130.0652	18	C9H8N+
137.0153	30	C8H6Cl+
138.0231	82	C8H7Cl+
139.0307	5	C8H8Cl+
146.06	3	C9H8NO+
152.0619	6	C12H8+
153.07	36	C12H9+
154.0778	10	C12H10+
161.1076	2	C10H13N2+
164.0262	12	C9H7ClN+
165.07	330	C13H9+
166.0778	999	C13H10+
178.077	6	C14H10+
179.0856	197	C14H11+
180.0938	5	C14H12+
181.0645	7	C13H9O+
182.0728	4	C13H10O+
183.0805	35	C13H11O+
189.0465	3	C12H10Cl+
189.1383	2	C12H17N2+
193.0757	55	C13H9N2+
194.0969	7	C14H12N+
195.068	2	C10H12ClN2+
199.0311	18	C13H8Cl+
201.0466	735	C13H10Cl+
204.0804	1	C15H10N+
205.0888	2	C15H11N+
206.0965	201	C15H12N+
207.1037	1	C15H13N+
213.0469	3	C14H10Cl+
214.0545	2	C14H11Cl+
215.0623	14	C14H12Cl+
216.0576	5	C13H11ClN+
223.0993	4	C12H16ClN2+
227.0496	3	C14H10ClN+
228.0575	751	C14H11ClN+
229.065	5	C17H9O+
240.0575	453	C15H11ClN+
242.0731	192	C15H13ClN+
244.0894	2	C15H15ClN+
256.0887	6	C16H15ClN+
285.1158	7	C17H18ClN2+
