Mass spectrum: CLC_317.1417_14.6; LC-ESI-QFT; MS2; CE: 75; R=17500; [M+H]+
Name: CLC_317.1417_14.6
Formula: C18H21ClN2O
Exact mass: 316.1342
Instrument: Q Exactive Plus Orbitrap Thermo Scientific
Instrument type: LC-ESI-QFT
Ms type: MS2
Ion mode: POSITIVE
Ionization: ESI
Fragmentation mode: HCD
Collision energy: 75 (nominal)
Resolution: 17500
Column name: Atlantis T3 3um, 3x150mm, Waters with guard column
Retention time: 14.5 min
Base peak: 65.0597
Precursor m/z: 317.1415
Precursor type: [M+H]+
m/z	relative intensity	assigned
56.0495	62	C3H6N+
57.0573	2	C3H7N+
58.0652	159	C3H8N+
70.0651	89	C4H8N+
71.0604	1	C3H7N2+
72.0808	29	C4H10N+
77.0387	1	C6H5+
78.0464	29	C6H6+
84.0682	11	C4H8N2+
85.0886	3	C5H11N+
91.0542	13	C7H7+
95.0491	2	C6H7O+
99.0917	85	C5H11N2+
100.0995	3	C5H12N2+
102.0465	2	C8H6+
103.0542	87	C8H7+
104.062	106	C8H8+
105.0449	1	C6H5N2+
105.07	6	C8H9+
112.0074	2	C6H5Cl+
116.0495	24	C8H6N+
118.0652	2	C8H8N+
125.0153	18	C7H6Cl+
128.0495	30	C9H6N+
130.0651	22	C9H8N+
134.0602	5	C8H8NO+
137.0153	36	C8H6Cl+
138.011	5	C7H5ClN+
138.023	47	C8H7Cl+
139.0057	2	C6H4ClN2+
139.0307	5	C8H8Cl+
146.0601	20	C9H8NO+
152.062	13	C12H8+
153.0699	14	C12H9+
154.0777	7	C12H10+
161.1076	2	C10H13N2+
162.011	2	C9H5ClN+
164.0263	15	C9H7ClN+
164.0628	1	C13H8+
165.07	582	C13H9+
166.0777	999	C13H10+
167.0848	2	C13H11+
178.0778	24	C14H10+
179.0856	121	C14H11+
180.0211	2	C9H7ClNO+
180.0933	7	C14H12+
181.0648	4	C13H9O+
183.0804	15	C13H11O+
189.1386	1	C12H17N2+
193.0753	14	C13H9N2+
193.089	60	C14H11N+
194.0965	6	C14H12N+
195.0688	1	C10H12ClN2+
199.0309	25	C13H8Cl+
201.0466	127	C13H10Cl+
204.0811	4	C15H10N+
205.0884	5	C15H11N+
206.0965	89	C15H12N+
207.1046	2	C15H13N+
213.0469	2	C14H10Cl+
215.062	6	C14H12Cl+
216.0576	4	C13H11ClN+
228.0575	546	C14H11ClN+
240.0575	200	C15H11ClN+
242.0732	44	C15H13ClN+
256.0886	1	C16H15ClN+
