Mass spectrum: CLC_301.1468_14.3; LC-ESI-QFT; MS2; CE: 15-90; R=17500; [M+H]+
Name: CLC_301.1468_14.3
Name: Chlorcyclizine
Name: 1-[(4-chlorophenyl)-phenylmethyl]-4-methylpiperazine
Formula: C18H21ClN2
Exact mass: 300.1393
SMILES: CN1CCN(CC1)C(C1=CC=CC=C1)C1=CC=C(Cl)C=C1
InChI: InChI=1S/C18H21ClN2/c1-20-11-13-21(14-12-20)18(15-5-3-2-4-6-15)16-7-9-17(19)10-8-16/h2-10,18H,11-14H2,1H3
Instrument: Q Exactive Orbitrap Thermo Scientific
Instrument type: LC-ESI-QFT
Ms type: MS2
Ion mode: POSITIVE
Ionization: ESI
Fragmentation mode: HCD
Collision energy: 15, 30, 45, 60, 70 or 90 (nominal)
Resolution: 17500
Column name: Atlantis T3 3um, 3x150mm, Waters with guard column
Retention time: 14.6 min
Base peak: 301.1468
Precursor m/z: 301.1466
Precursor type: [M+H]+
m/z	relative intensity	assigned
70.0653	1	C4H8N+
99.0918	2	C5H11N2+
115.0541	1	C9H7+
139.0536	2	C11H7+
163.0536	1	C13H7+
164.0625	1	C13H8+
165.0702	393	C13H9+
166.0779	999	C13H10+
183.0805	45	C10H14ClN+
193.0762	29	C13H9N2+
199.0309	12	C13H8Cl+
201.0466	340	C13H10Cl+
