Mass spectrum: CLC_317.1417_14.6; LC-ESI-QFT; MS2; CE: 15; R=17500; [M+H]+
Name: CLC_317.1417_14.6
Formula: C18H21ClN2O
Exact mass: 316.1342
Instrument: Q Exactive Plus Orbitrap Thermo Scientific
Instrument type: LC-ESI-QFT
Ms type: MS2
Ion mode: POSITIVE
Ionization: ESI
Fragmentation mode: HCD
Collision energy: 15 (nominal)
Resolution: 17500
Column name: Atlantis T3 3um, 3x150mm, Waters with guard column
Retention time: 14.5 min
Base peak: 65.0597
Precursor m/z: 317.1415
Precursor type: [M+H]+
m/z	relative intensity	assigned
58.0652	2	C3H8N+
99.0917	28	C5H11N2+
100.0995	27	C5H12N2+
201.0464	41	C13H10Cl+
217.0417	7	C13H10ClO+
229.0643	1	C17H9O+
241.0651	16	C15H12ClN+
242.0728	14	
243.08	1	C18H11O+
299.1307	5	C18H20ClN2+
300.1389	45	C18H21ClN2+
317.1415	999	C18H22ClN2O+
