Mass spectrum: CLE_291.1026_12.2; LC-ESI-QFT; MS2; CE: 15-90; R=17500; [M+H]+
Name: CLE_291.1026_12.2
Name: Clensiopenterol
Name: 1-(4-amino-3,5-dichlorophenyl)-2-(3-methylbutylamino)ethanol
Formula: C13H20Cl2N2O
Exact mass: 290.0953
SMILES: CC(C)CCNCC(O)C1=CC(Cl)=C(N)C(Cl)=C1
InChI: InChI=1S/C13H20Cl2N2O/c1-8(2)3-4-17-7-12(18)9-5-10(14)13(16)11(15)6-9/h5-6,8,12,17-18H,3-4,7,16H2,1-2H3
Instrument: Q Exactive Orbitrap Thermo Scientific
Instrument type: LC-ESI-QFT
Ms type: MS2
Ion mode: POSITIVE
Ionization: ESI
Fragmentation mode: HCD
Collision energy: 15, 30, 45, 60, 70 or 90 (nominal)
Resolution: 17500
Column name: Atlantis T3 3um, 3x150mm, Waters with guard column
Retention time: 12.2 min
Base peak: 291.1019
Precursor m/z: 291.1025
Precursor type: [M+H]+
m/z	relative intensity	assigned
71.0855	17	C5H11+
131.06	27	C8H7N2+
132.0678	103	C8H8N2+
140.0255	4	C10H4O+
145.0756	16	C9H9N2+
146.0834	27	C9H10N2+
151.0179	4	C11H3O+
152.0255	3	C11H4O+
153.0334	48	C11H5O+
154.0411	2	C11H6O+
165.0335	7	C12H5O+
167.0366	39	C11H5NO+
168.0443	56	C11H6NO+
173.9862	4	C10H3ClO+
181.0522	19	C12H7NO+
185.9868	7	C11H3ClO+
188.0023	999	C11H5ClO+
200.0022	11	C12H5ClO+
201.1385	4	C13H17N2+
202.0053	22	C11H5ClNO+
202.1457	8	C13H18N2+
203.013	130	C11H6ClNO+
217.0288	189	C12H8ClNO+
237.1146	12	C13H18ClN2+
238.1223	12	C13H19ClN2+
273.0911	85	C13H19Cl2N2+
