Mass spectrum: CLE_291.1026_12.2; LC-ESI-QFT; MS2; CE: 15-90; R=17500; [M+H]+
Name: CLE_291.1026_12.2
Name: Clensiopenterol
Name: 1-(4-amino-3,5-dichlorophenyl)-2-(3-methylbutylamino)ethanol
Formula: C13H20Cl2N2O
Exact mass: 290.0953
SMILES: CC(C)CCNCC(O)C1=CC(Cl)=C(N)C(Cl)=C1
InChI: InChI=1S/C13H20Cl2N2O/c1-8(2)3-4-17-7-12(18)9-5-10(14)13(16)11(15)6-9/h5-6,8,12,17-18H,3-4,7,16H2,1-2H3
Instrument: Q Exactive Orbitrap Thermo Scientific
Instrument type: LC-ESI-QFT
Ms type: MS2
Ion mode: POSITIVE
Ionization: ESI
Fragmentation mode: HCD
Collision energy: 15, 30, 45, 60, 70 or 90 (nominal)
Resolution: 17500
Column name: Atlantis T3 3um, 3x150mm, Waters with guard column
Retention time: 12.2 min
Base peak: 291.1019
Precursor m/z: 291.1025
Precursor type: [M+H]+
m/z	relative intensity	assigned
71.0855	7	C5H11+
132.0677	13	C8H8N2+
145.0756	4	C9H9N2+
146.0835	7	C9H10N2+
153.0333	7	C11H5O+
167.0365	7	C11H5NO+
168.044	6	C11H6NO+
173.9871	2	C10H3ClO+
181.0521	9	C12H7NO+
185.9867	1	C11H3ClO+
188.0023	500	C11H5ClO+
200.0025	5	C12H5ClO+
201.1383	3	C13H17N2+
202.0052	5	C11H5ClNO+
202.1457	3	C13H18N2+
203.013	65	C11H6ClNO+
217.0288	512	C12H8ClNO+
237.1142	6	C13H18ClN2+
238.1233	3	C13H19ClN2+
273.091	999	C13H19Cl2N2+
