Mass spectrum: CLE_291.1026_12.2; LC-ESI-QFT; MS2; CE: 15-90; R=17500; [M+H]+
Name: CLE_291.1026_12.2
Name: Clensiopenterol
Name: 1-(4-amino-3,5-dichlorophenyl)-2-(3-methylbutylamino)ethanol
Formula: C13H20Cl2N2O
Exact mass: 290.0953
SMILES: CC(C)CCNCC(O)C1=CC(Cl)=C(N)C(Cl)=C1
InChI: InChI=1S/C13H20Cl2N2O/c1-8(2)3-4-17-7-12(18)9-5-10(14)13(16)11(15)6-9/h5-6,8,12,17-18H,3-4,7,16H2,1-2H3
Instrument: Q Exactive Orbitrap Thermo Scientific
Instrument type: LC-ESI-QFT
Ms type: MS2
Ion mode: POSITIVE
Ionization: ESI
Fragmentation mode: HCD
Collision energy: 15, 30, 45, 60, 70 or 90 (nominal)
Resolution: 17500
Column name: Atlantis T3 3um, 3x150mm, Waters with guard column
Retention time: 12.2 min
Base peak: 291.1019
Precursor m/z: 291.1025
Precursor type: [M+H]+
m/z	relative intensity	assigned
53.0026	5	ClH4N+
71.0855	13	C5H11+
98.0962	3	C6H12N+
104.0492	5	C7H6N+
131.06	82	C8H7N2+
132.0678	336	C8H8N2+
133.0758	5	C8H9N2+
140.0257	25	C10H4O+
141.0335	4	C10H5O+
145.0756	39	C9H9N2+
146.0834	45	C9H10N2+
151.0179	27	C11H3O+
152.0257	22	C11H4O+
153.0335	408	C11H5O+
154.0406	1	C11H6O+
160.9788	1	C9H2ClO+
164.0253	1	C12H4O+
165.0334	13	C12H5O+
166.0289	4	C11H4NO+
167.0366	95	C11H5NO+
168.0444	218	C11H6NO+
173.9869	15	C10H3ClO+
176.0022	1	C10H5ClO+
181.0522	31	C12H7NO+
182.0602	9	C12H8NO+
185.9868	16	C11H3ClO+
188.0023	999	C11H5ClO+
200.0022	3	C12H5ClO+
202.0052	44	C11H5ClNO+
202.1459	4	C13H18N2+
203.013	68	C11H6ClNO+
217.0287	22	C12H8ClNO+
237.115	7	C13H18ClN2+
238.1222	7	C13H19ClN2+
273.0915	2	C13H19Cl2N2+
