Mass spectrum: CLE_291.1026_12.2; LC-ESI-QFT; MS2; CE: 15-90; R=17500; [M+H]+
Name: CLE_291.1026_12.2
Name: Clensiopenterol
Name: 1-(4-amino-3,5-dichlorophenyl)-2-(3-methylbutylamino)ethanol
Formula: C13H20Cl2N2O
Exact mass: 290.0953
SMILES: CC(C)CCNCC(O)C1=CC(Cl)=C(N)C(Cl)=C1
InChI: InChI=1S/C13H20Cl2N2O/c1-8(2)3-4-17-7-12(18)9-5-10(14)13(16)11(15)6-9/h5-6,8,12,17-18H,3-4,7,16H2,1-2H3
Instrument: Q Exactive Orbitrap Thermo Scientific
Instrument type: LC-ESI-QFT
Ms type: MS2
Ion mode: POSITIVE
Ionization: ESI
Fragmentation mode: HCD
Collision energy: 15, 30, 45, 60, 70 or 90 (nominal)
Resolution: 17500
Column name: Atlantis T3 3um, 3x150mm, Waters with guard column
Retention time: 12.2 min
Base peak: 291.1019
Precursor m/z: 291.1025
Precursor type: [M+H]+
m/z	relative intensity	assigned
53.0025	9	ClH4N+
71.0854	1	C5H11+
91.0539	12	
104.0492	78	C7H6N+
105.0571	36	
106.0649	25	
117.057	73	C8H7N+
118.0648	79	C8H8N+
125.0148	10	
127.0178	10	C9H3O+
131.06	134	C8H7N2+
132.0678	540	C8H8N2+
133.0756	62	C8H9N2+
138.0099	5	C10H2O+
140.0257	184	C10H4O+
141.0336	17	C10H5O+
145.0756	87	C9H9N2+
146.0835	24	C9H10N2+
147.0916	1	C9H11N2+
151.018	69	C11H3O+
152.0258	87	C11H4O+
153.0336	999	C11H5O+
154.0413	3	C11H6O+
160.9792	10	
166.0287	13	C11H4NO+
167.0367	103	C11H5NO+
168.0444	192	C11H6NO+
173.9868	52	C10H3ClO+
174.9955	1	C7H7Cl2N+
176.0024	1	C10H5ClO+
181.0528	2	C12H7NO+
188.0024	93	C11H5ClO+
202.0059	10	
