Mass spectrum: CLE_291.1026_12.2; LC-ESI-QFT; MS2; CE: 15-90; R=17500; [M+H]+
Name: CLE_291.1026_12.2
Name: Clensiopenterol
Name: 1-(4-amino-3,5-dichlorophenyl)-2-(3-methylbutylamino)ethanol
Formula: C13H20Cl2N2O
Exact mass: 290.0953
SMILES: CC(C)CCNCC(O)C1=CC(Cl)=C(N)C(Cl)=C1
InChI: InChI=1S/C13H20Cl2N2O/c1-8(2)3-4-17-7-12(18)9-5-10(14)13(16)11(15)6-9/h5-6,8,12,17-18H,3-4,7,16H2,1-2H3
Instrument: Q Exactive Orbitrap Thermo Scientific
Instrument type: LC-ESI-QFT
Ms type: MS2
Ion mode: POSITIVE
Ionization: ESI
Fragmentation mode: HCD
Collision energy: 15, 30, 45, 60, 70 or 90 (nominal)
Resolution: 17500
Column name: Atlantis T3 3um, 3x150mm, Waters with guard column
Retention time: 12.2 min
Base peak: 291.1019
Precursor m/z: 291.1025
Precursor type: [M+H]+
m/z	relative intensity	assigned
153.0331	1	C11H5O+
173.9859	1	C10H3ClO+
188.0022	25	C11H5ClO+
203.0128	2	C11H6ClNO+
217.0288	63	C12H8ClNO+
273.091	999	C13H19Cl2N2+
291.1014	85	C13H21Cl2N2O+
