Mass spectrum: CPP_287.1310_14.5; LC-ESI-QFT; MS2; CE: 15-90; R=17500; [M+H]+
Name: CPP_287.1310_14.5
Name: Norchlorcyclizine
Name: 1-[(4-chlorophenyl)-phenylmethyl]piperazine
Formula: C17H19ClN2
Exact mass: 286.1237
SMILES: ClC1=CC=C(C=C1)C(N1CCNCC1)C1=CC=CC=C1
InChI: InChI=1S/C17H19ClN2/c18-16-8-6-15(7-9-16)17(14-4-2-1-3-5-14)20-12-10-19-11-13-20/h1-9,17,19H,10-13H2
Instrument: Q Exactive Orbitrap Thermo Scientific
Instrument type: LC-ESI-QFT
Ms type: MS2
Ion mode: POSITIVE
Ionization: ESI
Fragmentation mode: HCD
Collision energy: 15, 30, 45, 60, 70 or 90 (nominal)
Resolution: 17500
Column name: Atlantis T3 3um, 3.0x150mm, Waters with guard column
Retention time: 14.8 min
Base peak: 310.1412
Precursor m/z: 287.131
Precursor type: [M+H]+
m/z	relative intensity	assigned
115.0541	1	C9H7+
121.0646	1	C8H9O+
164.0616	4	C13H8+
165.07	816	C13H9+
166.0775	999	C13H10+
183.0803	18	C10H14ClN+
193.076	10	C13H9N2+
199.0307	19	C13H8Cl+
201.0464	56	C13H10Cl+
