Mass spectrum: CPP_387.1471_17.0; LC-ESI-QFT; MS2; CE: 30; R=17500; [M+H]+
Name: CPP_387.1471_17.0
Name: N-succinyl-1[(4-chlorophenyl)phenylmethyl]piperazine
Formula: C21H23ClN2O3
Exact mass: 386.1397
SMILES: OC(=O)CCC(=O)N1CCN(CC1)C(C1=CC=CC=C1)C1=CC=C(Cl)C=C1
InChI: InChI=1S/C21H23ClN2O3/c22-18-8-6-17(7-9-18)21(16-4-2-1-3-5-16)24-14-12-23(13-15-24)19(25)10-11-20(26)27/h1-9,21H,10-15H2,(H,26,27)
Instrument: Q Exactive Plus Orbitrap Thermo Scientific
Instrument type: LC-ESI-QFT
Ms type: MS2
Ion mode: POSITIVE
Ionization: ESI
Fragmentation mode: HCD
Collision energy: 30 (nominal)
Resolution: 17500
Column name: Atlantis T3 3um, 3x150mm, Waters with guard column
Retention time: 16.6 min
Base peak: 65.0597
Precursor m/z: 387.147
Precursor type: [M+H]+
m/z	relative intensity	assigned
57.0698	12	C4H9+
60.0808	40	C3H10N+
105.0699	87	C8H9+
165.0697	10	C13H9+
201.0467	999	C13H10Cl+
285.0097	13	C20HN2O+
