Mass spectrum: CPP_287.1310_14.5; LC-ESI-QFT; MS2; CE: 15-90; R=17500; [M+H]+
Name: CPP_287.1310_14.5
Name: Norchlorcyclizine
Name: 1-[(4-chlorophenyl)-phenylmethyl]piperazine
Formula: C17H19ClN2
Exact mass: 286.1237
SMILES: ClC1=CC=C(C=C1)C(N1CCNCC1)C1=CC=CC=C1
InChI: InChI=1S/C17H19ClN2/c18-16-8-6-15(7-9-16)17(14-4-2-1-3-5-14)20-12-10-19-11-13-20/h1-9,17,19H,10-13H2
Instrument: Q Exactive Orbitrap Thermo Scientific
Instrument type: LC-ESI-QFT
Ms type: MS2
Ion mode: POSITIVE
Ionization: ESI
Fragmentation mode: HCD
Collision energy: 15, 30, 45, 60, 70 or 90 (nominal)
Resolution: 17500
Column name: Atlantis T3 3um, 3x150mm, Waters with guard column
Retention time: 14.8 min
Base peak: 310.1412
Precursor m/z: 287.131
Precursor type: [M+H]+
m/z	relative intensity	assigned
85.076	1	C4H9N2+
165.0694	17	C13H9+
166.0776	31	C13H10+
183.0805	2	C10H14ClN+
193.0766	1	C13H9N2+
201.0464	999	C13H10Cl+
