Mass spectrum: CPP_329.1415_17.9; LC-ESI-QFT; MS2; CE: 45; R=17500; [M+H]+
Name: CPP_329.1415_17.9
Name: N-acetyl-1[(4-chlorophenyl)phenylmethyl]piperazine
Name: 1-[4-[(4-chlorophenyl)-phenylmethyl]piperazin-1-yl]ethanone
Formula: C19H21ClN2O
Exact mass: 328.1342
SMILES: CC(=O)N1CCN(CC1)C(C1=CC=CC=C1)C1=CC=C(Cl)C=C1
InChI: InChI=1S/C19H21ClN2O/c1-15(23)21-11-13-22(14-12-21)19(16-5-3-2-4-6-16)17-7-9-18(20)10-8-17/h2-10,19H,11-14H2,1H3
Instrument: Q Exactive Plus Orbitrap Thermo Scientific
Instrument type: LC-ESI-QFT
Ms type: MS2
Ion mode: POSITIVE
Ionization: ESI
Fragmentation mode: HCD
Collision energy: 45 (nominal)
Resolution: 17500
Column name: Atlantis T3 3um, 3.0x150mm, Waters with guard column
Retention time: 17.3 min
Base peak: 65.0597
Precursor m/z: 329.1415
Precursor type: [M+H]+
m/z	relative intensity	assigned
53.0021	43	C3HO+
77.0151	999	C3H6Cl+
81.9814	115	CH3ClO2+
201.0462	524	C13H10Cl+
