Mass spectrum: DCA_172.0523_8.8; LC-ESI-QFT; MS2; CE: 90; R=17500; [M+H]+
Name: DCA_172.0523_8.8
Name: 5-Chloro-2-dimethylamino-phenol
Name: 5-chloro-2-(dimethylamino)phenol
Formula: C8H10ClNO
Exact mass: 171.0451
Instrument: Q Exactive Plus Orbitrap Thermo Scientific
Instrument type: LC-ESI-QFT
Ms type: MS2
Ion mode: POSITIVE
Ionization: ESI
Fragmentation mode: HCD
Collision energy: 90 (nominal)
Resolution: 17500
Column name: Atlantis T3 3um, 3x150mm, Waters with guard column
Retention time: 8.6 min
Base peak: 65.0597
Precursor m/z: 172.0524
Precursor type: [M+H]+
m/z	relative intensity	assigned
55.0543	12	C4H7+
56.0495	1	C3H6N+
67.0541	2	C5H7+
72.0444	10	C3H6NO+
91.0543	9	C7H7+
94.0651	5	C6H8N+
95.049	2	C6H7O+
112.0074	1	C6H5Cl+
112.9658	1	C4ClNO+
118.065	49	C8H8N+
119.0729	56	C8H9N+
122.0599	10	C7H8NO+
136.0759	8	C8H10NO+
137.0841	1	C8H11NO+
138.0101	8	C7H5ClN+
139.0181	32	C7H6ClN+
154.0418	999	C8H9ClN+
155.0496	141	C8H10ClN+
