Mass spectrum: DCA_170.0367_15.5; LC-ESI-QFT; MS2; CE: 60; R=17500; [M+H]+
Name: DCA_170.0367_15.5
Name: 4`-Chloro-N-methylformanilide
Name: N-(4-chlorophenyl)-N-methylformamide
Formula: C8H8ClNO
Exact mass: 169.0294
SMILES: CN(C=O)C1=CC=C(Cl)C=C1
InChI: InChI=1S/C8H8ClNO/c1-10(6-11)8-4-2-7(9)3-5-8/h2-6H,1H3
Instrument: Q Exactive Plus Orbitrap Thermo Scientific
Instrument type: LC-ESI-QFT
Ms type: MS2
Ion mode: POSITIVE
Ionization: ESI
Fragmentation mode: HCD
Collision energy: 60 (nominal)
Resolution: 17500
Column name: Atlantis T3 3um, 3x150mm, Waters with guard column
Retention time: 15.2 min
Base peak: 65.0597
Precursor m/z: 170.0367
Precursor type: [M+H]+
m/z	relative intensity	assigned
53.0386	3	C4H5+
65.0384	9	C5H5+
66.0464	4	C5H6+
77.0384	3	C6H5+
79.0542	5	C6H7+
92.0494	21	C6H6N+
93.0336	5	C6H5O+
93.0573	67	C6H7N+
94.0413	42	C6H6O+
95.0492	9	C6H7O+
101.0154	4	C5H6Cl+
105.045	5	C6H5N2+
106.0651	137	C7H8N+
107.0729	999	C7H9N+
111.0439	14	C6H7O2+
113.0151	13	C6H6Cl+
121.0395	4	C6H5N2O+
125.0599	1	C7H9O2+
127.0183	198	C6H6ClN+
128.0021	2	C6H5ClO+
128.026	11	C6H7ClN+
129.0101	227	C6H6ClO+
134.06	8	C8H8NO+
135.0677	27	C8H9NO+
139.0055	2	C6H4ClN2+
140.0262	14	C7H7ClN+
141.0339	12	C7H8ClN+
142.0418	50	C7H9ClN+
155.0131	16	C7H6ClNO+
168.0206	1	C8H7ClNO+
170.0366	518	C8H9ClNO+
