Mass spectrum: DCA_170.0367_15.5; LC-ESI-QFT; MS2; CE: 90; R=17500; [M+H]+
Name: DCA_170.0367_15.5
Name: 4`-Chloro-N-methylformanilide
Name: N-(4-chlorophenyl)-N-methylformamide
Formula: C8H8ClNO
Exact mass: 169.0294
SMILES: CN(C=O)C1=CC=C(Cl)C=C1
InChI: InChI=1S/C8H8ClNO/c1-10(6-11)8-4-2-7(9)3-5-8/h2-6H,1H3
Instrument: Q Exactive Plus Orbitrap Thermo Scientific
Instrument type: LC-ESI-QFT
Ms type: MS2
Ion mode: POSITIVE
Ionization: ESI
Fragmentation mode: HCD
Collision energy: 90 (nominal)
Resolution: 17500
Column name: Atlantis T3 3um, 3x150mm, Waters with guard column
Retention time: 15.2 min
Base peak: 65.0597
Precursor m/z: 170.0367
Precursor type: [M+H]+
m/z	relative intensity	assigned
50.0151	2	C4H2+
51.023	2	C4H3+
53.0386	8	C4H5+
65.0385	51	C5H5+
66.0464	28	C5H6+
75.0229	6	C6H3+
77.0383	8	C6H5+
78.0464	9	C6H6+
79.0541	24	C6H7+
86.9995	2	C4H4Cl+
91.0415	1	C6H5N+
91.0541	4	C7H7+
92.0494	25	C6H6N+
93.0573	109	C6H7N+
94.0413	62	C6H6O+
95.0491	19	C6H7O+
98.9996	3	C5H4Cl+
100.0073	19	C5H5Cl+
101.0152	3	C5H6Cl+
104.0493	3	C7H6N+
105.0447	13	C6H5N2+
105.057	2	C7H7N+
106.0651	999	C7H8N+
107.0728	718	C7H9N+
110.0599	2	C6H8NO+
110.9994	2	C6H4Cl+
111.0439	12	C6H7O2+
113.0152	2	C6H6Cl+
120.0444	1	C7H6NO+
121.0397	7	C6H5N2O+
127.0182	318	C6H6ClN+
128.0021	4	C6H5ClO+
128.0263	1	C6H7ClN+
129.01	40	C6H6ClO+
134.0599	7	C8H8NO+
135.0674	5	C8H9NO+
139.0056	13	C6H4ClN2+
140.026	32	C7H7ClN+
141.0338	11	C7H8ClN+
142.0419	4	C7H9ClN+
155.0131	3	C7H6ClNO+
170.0365	20	C8H9ClNO+
