Mass spectrum: DCA_170.0367_15.5; LC-ESI-QFT; MS2; CE: 45; R=17500; [M+H]+
Name: DCA_170.0367_15.5
Name: 4`-Chloro-N-methylformanilide
Name: N-(4-chlorophenyl)-N-methylformamide
Formula: C8H8ClNO
Exact mass: 169.0294
SMILES: CN(C=O)C1=CC=C(Cl)C=C1
InChI: InChI=1S/C8H8ClNO/c1-10(6-11)8-4-2-7(9)3-5-8/h2-6H,1H3
Instrument: Q Exactive Plus Orbitrap Thermo Scientific
Instrument type: LC-ESI-QFT
Ms type: MS2
Ion mode: POSITIVE
Ionization: ESI
Fragmentation mode: HCD
Collision energy: 45 (nominal)
Resolution: 17500
Column name: Atlantis T3 3um, 3x150mm, Waters with guard column
Retention time: 15.2 min
Base peak: 65.0597
Precursor m/z: 170.0367
Precursor type: [M+H]+
m/z	relative intensity	assigned
65.0387	1	C5H5+
92.0494	8	C6H6N+
93.0335	1	C6H5O+
93.0573	15	C6H7N+
94.0412	7	C6H6O+
95.0492	1	C6H7O+
101.015	1	C5H6Cl+
105.0447	1	C6H5N2+
106.065	15	C7H8N+
107.0729	338	C7H9N+
111.0437	3	C6H7O2+
113.0151	8	C6H6Cl+
127.0182	62	C6H6ClN+
128.0262	7	C6H7ClN+
129.0101	153	C6H6ClO+
134.0597	2	C8H8NO+
135.0677	16	C8H9NO+
140.026	3	C7H7ClN+
141.0339	4	C7H8ClN+
142.0418	49	C7H9ClN+
155.013	4	C7H6ClNO+
170.0366	999	C8H9ClNO+
