Mass spectrum: DCA_172.0523_8.8; LC-ESI-QFT; MS2; CE: 30; R=17500; [M+H]+
Name: DCA_172.0523_8.8
Name: 5-Chloro-2-dimethylamino-phenol
Name: 5-chloro-2-(dimethylamino)phenol
Formula: C8H10ClNO
Exact mass: 171.0451
Instrument: Q Exactive Plus Orbitrap Thermo Scientific
Instrument type: LC-ESI-QFT
Ms type: MS2
Ion mode: POSITIVE
Ionization: ESI
Fragmentation mode: HCD
Collision energy: 30 (nominal)
Resolution: 17500
Column name: Atlantis T3 3um, 3x150mm, Waters with guard column
Retention time: 8.6 min
Base peak: 65.0597
Precursor m/z: 172.0524
Precursor type: [M+H]+
m/z	relative intensity	assigned
67.0544	1	C5H7+
69.0337	1	C4H5O+
69.0701	1	C5H9+
72.0445	3	C3H6NO+
74.0603	1	C3H8NO+
89.0711	5	C3H9N2O+
95.0494	1	C6H7O+
99.0807	3	C6H11O+
119.0608	1	C7H7N2+
128.0457	1	C4H6N3O2+
130.0507	1	C2H11ClN2O2+
136.0757	9	C8H10NO+
137.0835	43	C8H11NO+
154.0414	11	C8H9ClN+
155.0496	999	C8H10ClN+
172.0523	75	C8H11ClNO+
