Mass spectrum: DCA_172.0523_8.8; LC-ESI-QFT; MS2; CE: 60; R=17500; [M+H]+
Name: DCA_172.0523_8.8
Name: 5-Chloro-2-dimethylamino-phenol
Name: 5-chloro-2-(dimethylamino)phenol
Formula: C8H10ClNO
Exact mass: 171.0451
Instrument: Q Exactive Plus Orbitrap Thermo Scientific
Instrument type: LC-ESI-QFT
Ms type: MS2
Ion mode: POSITIVE
Ionization: ESI
Fragmentation mode: HCD
Collision energy: 60 (nominal)
Resolution: 17500
Column name: Atlantis T3 3um, 3x150mm, Waters with guard column
Retention time: 8.6 min
Base peak: 65.0597
Precursor m/z: 172.0524
Precursor type: [M+H]+
m/z	relative intensity	assigned
55.0541	5	C4H7+
57.0698	1	C4H9+
58.0651	2	C3H8N+
67.0541	7	C5H7+
69.0698	2	C5H9+
72.0445	13	C3H6NO+
83.0854	1	C6H11+
89.0708	2	C3H9N2O+
91.0541	6	C7H7+
95.0487	1	C6H7O+
122.0601	10	C7H8NO+
128.046	2	C4H6N3O2+
136.0757	12	C8H10NO+
137.0836	28	C8H11NO+
154.0418	466	C8H9ClN+
155.0496	999	C8H10ClN+
