Mass spectrum: DCA_170.0367_15.5; LC-ESI-QFT; MS2; CE: 15; R=17500; [M+H]+
Name: DCA_170.0367_15.5
Name: 4`-Chloro-N-methylformanilide
Name: N-(4-chlorophenyl)-N-methylformamide
Formula: C8H8ClNO
Exact mass: 169.0294
SMILES: CN(C=O)C1=CC=C(Cl)C=C1
InChI: InChI=1S/C8H8ClNO/c1-10(6-11)8-4-2-7(9)3-5-8/h2-6H,1H3
Instrument: Q Exactive Plus Orbitrap Thermo Scientific
Instrument type: LC-ESI-QFT
Ms type: MS2
Ion mode: POSITIVE
Ionization: ESI
Fragmentation mode: HCD
Collision energy: 15 (nominal)
Resolution: 17500
Column name: Atlantis T3 3um, 3x150mm, Waters with guard column
Retention time: 15.2 min
Base peak: 65.0597
Precursor m/z: 170.0367
Precursor type: [M+H]+
m/z	relative intensity	assigned
106.0648	2	C7H8N+
107.0729	24	C7H9N+
113.0153	1	C6H6Cl+
127.018	6	C6H6ClN+
129.0101	23	C6H6ClO+
135.0675	1	C8H9NO+
142.0419	7	C7H9ClN+
170.0366	999	C8H9ClNO+
