Mass spectrum: DCA_170.0367_15.5; LC-ESI-QFT; MS2; CE: 75; R=17500; [M+H]+
Name: DCA_170.0367_15.5
Name: 4`-Chloro-N-methylformanilide
Name: N-(4-chlorophenyl)-N-methylformamide
Formula: C8H8ClNO
Exact mass: 169.0294
SMILES: CN(C=O)C1=CC=C(Cl)C=C1
InChI: InChI=1S/C8H8ClNO/c1-10(6-11)8-4-2-7(9)3-5-8/h2-6H,1H3
Instrument: Q Exactive Plus Orbitrap Thermo Scientific
Instrument type: LC-ESI-QFT
Ms type: MS2
Ion mode: POSITIVE
Ionization: ESI
Fragmentation mode: HCD
Collision energy: 75 (nominal)
Resolution: 17500
Column name: Atlantis T3 3um, 3x150mm, Waters with guard column
Retention time: 15.2 min
Base peak: 65.0597
Precursor m/z: 170.0367
Precursor type: [M+H]+
m/z	relative intensity	assigned
51.0229	2	C4H3+
53.0386	5	C4H5+
65.0385	23	C5H5+
66.0464	13	C5H6+
78.0463	3	C6H6+
79.0541	10	C6H7+
86.9995	1	C4H4Cl+
91.0543	3	C7H7+
92.0494	21	C6H6N+
93.0335	5	C6H5O+
93.0573	104	C6H7N+
94.0413	59	C6H6O+
95.0491	11	C6H7O+
98.9996	2	C5H4Cl+
100.0072	3	C5H5Cl+
101.0151	5	C5H6Cl+
104.0493	2	C7H6N+
105.0448	8	C6H5N2+
106.0651	474	C7H8N+
107.0729	999	C7H9N+
110.9996	1	C6H4Cl+
111.0439	17	C6H7O2+
113.0151	6	C6H6Cl+
120.0442	2	C7H6NO+
121.0397	8	C6H5N2O+
127.0183	262	C6H6ClN+
128.002	3	C6H5ClO+
128.026	5	C6H7ClN+
129.01	102	C6H6ClO+
134.0599	7	C8H8NO+
135.0677	14	C8H9NO+
138.0105	1	C7H5ClN+
139.0055	6	C6H4ClN2+
140.026	22	C7H7ClN+
141.0339	17	C7H8ClN+
142.0418	18	C7H9ClN+
155.0131	11	C7H6ClNO+
170.0366	108	C8H9ClNO+
