Mass spectrum: DCA_142.0419_14.6; LC-ESI-QFT; MS2; CE: (160-0.41mz or 15) NCE; R=17500; [M+H]+
Name: DCA_142.0419_14.6
Name: 4-chloro-N-methylaniline
Formula: C7H8ClN
Exact mass: 141.0345
SMILES: CNC1=CC=C(Cl)C=C1
InChI: InChI=1S/C7H8ClN/c1-9-7-4-2-6(8)3-5-7/h2-5,9H,1H3
Instrument: Q Exactive Orbitrap Thermo Scientific
Instrument type: LC-ESI-QFT
Ms type: MS2
Ion mode: POSITIVE
Ionization: ESI
Fragmentation mode: HCD
Collision energy: 160-0.41mz or 15 (mz>350) nominal units
Resolution: 17500
Column name: Atlantis T3 3um, 3x150mm, Waters with guard column
Retention time: 14.6 min
Base peak: 79.0212
Precursor m/z: 142.0418
Precursor type: [M+H]+
m/z	relative intensity	assigned
65.0386	36	C5H5+
91.0415	10	C6H5N+
92.0494	64	C6H6N+
98.9994	3	C5H4Cl+
100.0074	72	C5H5Cl+
106.0649	8	C7H8N+
107.073	4	C7H9N+
110.06	8	C6H8NO+
126.0106	4	C6H5ClN+
127.0183	999	C6H6ClN+
142.0417	1	C7H9ClN+
