Mass spectrum: DCA_172.0523_8.8; LC-ESI-QFT; MS2; CE: 45; R=17500; [M+H]+
Name: DCA_172.0523_8.8
Name: 5-Chloro-2-dimethylamino-phenol
Name: 5-chloro-2-(dimethylamino)phenol
Formula: C8H10ClNO
Exact mass: 171.0451
Instrument: Q Exactive Plus Orbitrap Thermo Scientific
Instrument type: LC-ESI-QFT
Ms type: MS2
Ion mode: POSITIVE
Ionization: ESI
Fragmentation mode: HCD
Collision energy: 45 (nominal)
Resolution: 17500
Column name: Atlantis T3 3um, 3x150mm, Waters with guard column
Retention time: 8.6 min
Base peak: 65.0597
Precursor m/z: 172.0524
Precursor type: [M+H]+
m/z	relative intensity	assigned
55.0542	1	C4H7+
67.0543	2	C5H7+
69.0335	1	C4H5O+
69.0698	1	C5H9+
72.0444	7	C3H6NO+
74.0601	1	C3H8NO+
81.0697	1	C6H9+
83.0854	1	C6H11+
89.0708	5	C3H9N2O+
109.0647	1	C7H9O+
119.0601	1	C7H7N2+
122.0599	1	C7H8NO+
128.0453	4	C4H6N3O2+
130.0499	1	C2H11ClN2O2+
136.0758	7	C8H10NO+
137.0835	33	C8H11NO+
154.0417	68	C8H9ClN+
155.0496	999	C8H10ClN+
172.0524	6	C8H11ClNO+
