Mass spectrum: DCA_172.0523_8.8; LC-ESI-QFT; MS2; CE: 15; R=17500; [M+H]+
Name: DCA_172.0523_8.8
Name: 5-Chloro-2-dimethylamino-phenol
Name: 5-chloro-2-(dimethylamino)phenol
Formula: C8H10ClNO
Exact mass: 171.0451
Instrument: Q Exactive Plus Orbitrap Thermo Scientific
Instrument type: LC-ESI-QFT
Ms type: MS2
Ion mode: POSITIVE
Ionization: ESI
Fragmentation mode: HCD
Collision energy: 15 (nominal)
Resolution: 17500
Column name: Atlantis T3 3um, 3x150mm, Waters with guard column
Retention time: 8.6 min
Base peak: 65.0597
Precursor m/z: 172.0524
Precursor type: [M+H]+
m/z	relative intensity	assigned
67.0542	1	C5H7+
69.0338	1	C4H5O+
72.0447	1	C3H6NO+
74.0601	2	C3H8NO+
89.0709	7	C3H9N2O+
99.0805	1	C6H11O+
112.0392	1	C5H6NO2+
112.9658	23	C4ClNO+
119.0601	3	C7H7N2+
128.0456	1	C4H6N3O2+
130.0499	4	C2H11ClN2O2+
136.0756	7	C8H10NO+
137.0835	42	C8H11NO+
155.0496	999	C8H10ClN+
172.0523	80	C8H11ClNO+
