Mass spectrum: DCA_156.0575_17.7; LC-ESI-QFT; MS2; CE: 15-90; R=17500; [M+H]+
Name: DCA_156.0575_17.7
Name: 4-Chloro-N,N-dimethylaniline
Name: N,N-dimethyl-p-chloroaniline
Formula: C8H10ClN
Exact mass: 155.0502
SMILES: CN(C)C1=CC=C(Cl)C=C1
InChI: InChI=1S/C8H10ClN/c1-10(2)8-5-3-7(9)4-6-8/h3-6H,1-2H3
Instrument: Q Exactive Orbitrap Thermo Scientific
Instrument type: LC-ESI-QFT
Ms type: MS2
Ion mode: POSITIVE
Ionization: ESI
Fragmentation mode: HCD
Collision energy: 15, 30, 45, 60, 70 or 90 (nominal)
Resolution: 17500
Column name: Atlantis T3 3um, 3x150mm, Waters with guard column
Retention time: 17.6 min
Base peak: 261.1211
Precursor m/z: 156.0575
Precursor type: [M+H]+
m/z	relative intensity	assigned
106.0652	3	C7H8N+
112.0074	1	C6H5Cl+
120.0809	2	C8H10N+
121.0886	21	C8H11N+
140.0264	113	C7H7ClN+
141.0341	999	C7H8ClN+
156.0575	131	C8H11ClN+
