Mass spectrum: DCA_172.0523_8.8; LC-ESI-QFT; MS2; CE: 75; R=17500; [M+H]+
Name: DCA_172.0523_8.8
Name: 5-Chloro-2-dimethylamino-phenol
Name: 5-chloro-2-(dimethylamino)phenol
Formula: C8H10ClNO
Exact mass: 171.0451
Instrument: Q Exactive Plus Orbitrap Thermo Scientific
Instrument type: LC-ESI-QFT
Ms type: MS2
Ion mode: POSITIVE
Ionization: ESI
Fragmentation mode: HCD
Collision energy: 75 (nominal)
Resolution: 17500
Column name: Atlantis T3 3um, 3x150mm, Waters with guard column
Retention time: 8.6 min
Base peak: 65.0597
Precursor m/z: 172.0524
Precursor type: [M+H]+
m/z	relative intensity	assigned
55.0543	9	C4H7+
56.0493	2	C3H6N+
57.0699	2	C4H9+
58.065	1	C3H8N+
67.0541	8	C5H7+
69.0698	2	C5H9+
72.0443	18	C3H6NO+
81.0695	1	C6H9+
91.0543	10	C7H7+
94.065	2	C6H8N+
95.0491	2	C6H7O+
112.0072	1	C6H5Cl+
118.065	8	C8H8N+
119.0729	11	C8H9N+
122.06	16	C7H8NO+
128.0456	1	C4H6N3O2+
136.0757	15	C8H10NO+
137.0835	12	C8H11NO+
138.0102	2	C7H5ClN+
139.018	6	C7H6ClN+
154.0418	999	C8H9ClN+
155.0496	504	C8H10ClN+
