Mass spectrum: DEP_178.1226_15.3; LC-ESI-QFT; MS2; CE: 30; R=17500; [M+H]+
Name: DEP_178.1226_15.3
Name: N-formylmethamphetamine
Name: N-methyl-N-(1-phenylpropan-2-yl)formamide
Formula: C11H15NO
Exact mass: 177.1154
SMILES: CC(CC1=CC=CC=C1)N(C)C=O
InChI: InChI=1S/C11H15NO/c1-10(12(2)9-13)8-11-6-4-3-5-7-11/h3-7,9-10H,8H2,1-2H3
Instrument: Q Exactive Orbitrap Thermo Scientific
Instrument type: LC-ESI-QFT
Ms type: MS2
Ion mode: POSITIVE
Ionization: ESI
Fragmentation mode: HCD
Collision energy: 30 (nominal)
Resolution: 17500
Column name: Atlantis T3 3um, 3x150mm, Waters with guard column
Retention time: 15.3 min
Base peak: 60.0809
Precursor m/z: 178.1226
Precursor type: [M+H]+
m/z	relative intensity	assigned
91.0542	999	C7H7+
119.0854	668	C9H11+
