Mass spectrum: DEP_202.1225_16.0; LC-ESI-QFT; MS2; CE: 15; R=17500; [M+H]+
Name: DEP_202.1225_16.0
Formula: C13H15NO
Exact mass: 201.1154
Instrument: Q Exactive Orbitrap Thermo Scientific
Instrument type: LC-ESI-QFT
Ms type: MS2
Ion mode: POSITIVE
Ionization: ESI
Fragmentation mode: HCD
Collision energy: 15 (nominal)
Resolution: 17500
Column name: Atlantis T3 3um, 3x150mm, Waters with guard column
Retention time: 15.9 min
Base peak: 60.0809
Precursor m/z: 202.1226
Precursor type: [M+H]+
m/z	relative intensity	assigned
84.0443	167	C4H6NO+
91.0542	999	C7H7+
119.0855	676	C9H11+
130.0646	36	C9H8N+
184.0758	457	C12H10NO+
