Mass spectrum: DEP_204.1384_15.1; LC-ESI-QFT; MS2; CE: 75; R=17500; [M+H]+
Name: DEP_204.1384_15.1
Formula: C13H17NO
Exact mass: 203.1310
Instrument: Q Exactive Orbitrap Thermo Scientific
Instrument type: LC-ESI-QFT
Ms type: MS2
Ion mode: POSITIVE
Ionization: ESI
Fragmentation mode: HCD
Collision energy: 75 (nominal)
Resolution: 17500
Column name: Atlantis T3 3um, 3.0x150mm, Waters with guard column
Retention time: 15.0 min
Base peak: 60.0809
Precursor m/z: 204.1383
Precursor type: [M+H]+
m/z	relative intensity	assigned
56.0496	4	C3H6N+
58.0652	20	C3H8N+
65.0384	11	C5H5+
68.0495	49	C4H6N+
86.0601	50	C4H8NO+
91.0542	999	C7H7+
96.0807	5	C6H10N+
