Mass spectrum: DEP_174.1277_10.3; LC-ESI-QFT; MS2; CE: 15-90; R=17500; [M+H]+
Name: DEP_174.1277_10.3
Name: N-desmethyldeprenyl (Desmethylselegiline)
Name: 1-phenyl-N-prop-2-ynylpropan-2-amine
Formula: C12H15N
Exact mass: 173.1204
SMILES: CC(CC1=CC=CC=C1)NCC#C
InChI: InChI=1S/C12H15N/c1-3-9-13-11(2)10-12-7-5-4-6-8-12/h1,4-8,11,13H,9-10H2,2H3
Instrument: Q Exactive Orbitrap Thermo Scientific
Instrument type: LC-ESI-QFT
Ms type: MS2
Ion mode: POSITIVE
Ionization: ESI
Fragmentation mode: HCD
Collision energy: 15, 30, 45, 60, 70 or 90 (nominal)
Resolution: 17500
Column name: Atlantis T3 3um, 3x150mm, Waters with guard column
Retention time: 10.5 min
Base peak: 174.1275
Precursor m/z: 174.1277
Precursor type: [M+H]+
m/z	relative intensity	assigned
65.0388	3	C5H5+
82.0651	1	C5H8N+
91.054	999	C7H7+
119.0853	688	C9H11+
174.1274	142	C12H16N+
