Mass spectrum: DEP_204.1383_10.9; LC-ESI-QFT; MS2; CE: 15-90; R=17500; [M+H]+
Name: DEP_204.1383_10.9
Name: Deprenyl N-Oxide
Name: N-methyl-1-phenyl-N-prop-2-ynylpropan-2-amine oxide
Formula: C13H17NO
Exact mass: 203.1310
SMILES: CC(CC1=CC=CC=C1)N(C)(=O)CC#C
InChI: InChI=1S/C13H17NO/c1-4-10-14(3,15)12(2)11-13-8-6-5-7-9-13/h1,5-9,12H,10-11H2,2-3H3
Instrument: Q Exactive Orbitrap Thermo Scientific
Instrument type: LC-ESI-QFT
Ms type: MS2
Ion mode: POSITIVE
Ionization: ESI
Fragmentation mode: HCD
Collision energy: 15, 30, 45, 60, 70 or 90 (nominal)
Resolution: 17500
Column name: Atlantis T3 3um, 3x150mm, Waters with guard column
Retention time: 11.2 min
Base peak: 204.1389
Precursor m/z: 204.1383
Precursor type: [M+H]+
m/z	relative intensity	assigned
65.0389	3	C5H5+
86.0602	73	C4H8NO+
91.0544	999	C7H7+
119.0858	142	C9H11+
204.1387	1	C13H18NO+
