Mass spectrum: DEP_150.1278_9.6; LC-ESI-QFT; MS2; CE: 75; R=17500; [M+H]+
Name: DEP_150.1278_9.6
Name: Methamphetamine
Name: N-methyl-1-phenylpropan-2-amine
Formula: C10H15N
Exact mass: 149.1204
SMILES: CNC(C)CC1=CC=CC=C1
InChI: InChI=1S/C10H15N/c1-9(11-2)8-10-6-4-3-5-7-10/h3-7,9,11H,8H2,1-2H3
Instrument: Q Exactive Orbitrap Thermo Scientific
Instrument type: LC-ESI-QFT
Ms type: MS2
Ion mode: POSITIVE
Ionization: ESI
Fragmentation mode: HCD
Collision energy: 75 (nominal)
Resolution: 17500
Column name: Atlantis T3 3um, 3x150mm, Waters with guard column
Retention time: 9.6 min
Base peak: 61.0285
Precursor m/z: 150.1277
Precursor type: [M+H]+
m/z	relative intensity	assigned
58.0653	2	C3H8N+
65.0386	11	C5H5+
91.0543	999	C7H7+
119.0857	6	C9H11+
