Mass spectrum: DEP_204.1384_15.1; LC-ESI-QFT; MS2; CE: 15; R=17500; [M+H]+
Name: DEP_204.1384_15.1
Formula: C13H17NO
Exact mass: 203.1310
Instrument: Q Exactive Orbitrap Thermo Scientific
Instrument type: LC-ESI-QFT
Ms type: MS2
Ion mode: POSITIVE
Ionization: ESI
Fragmentation mode: HCD
Collision energy: 15 (nominal)
Resolution: 17500
Column name: Atlantis T3 3um, 3x150mm, Waters with guard column
Retention time: 15.0 min
Base peak: 60.0809
Precursor m/z: 204.1383
Precursor type: [M+H]+
m/z	relative intensity	assigned
51.0231	1	C4H3+
58.0651	2	C3H8N+
68.0495	6	C4H6N+
70.0652	3	C4H8N+
86.0601	198	C4H8NO+
91.0542	165	C7H7+
119.0856	124	C9H11+
204.1385	999	C13H18NO+
