Mass spectrum: DEP_188.1433_10.1; LC-ESI-QFT; MS2; CE: 15-90; R=17500; [M+H]+
Name: DEP_188.1433_10.1
Name: Deprenyl (Selegiline)
Name: N-methyl-1-phenyl-N-prop-2-ynylpropan-2-amine
Formula: C13H17N
Exact mass: 187.1361
SMILES: CC(CC1=CC=CC=C1)N(C)CC#C
InChI: InChI=1S/C13H17N/c1-4-10-14(3)12(2)11-13-8-6-5-7-9-13/h1,5-9,12H,10-11H2,2-3H3
Instrument: Q Exactive Orbitrap Thermo Scientific
Instrument type: LC-ESI-QFT
Ms type: MS2
Ion mode: POSITIVE
Ionization: ESI
Fragmentation mode: HCD
Collision energy: 15, 30, 45, 60, 70 or 90 (nominal)
Resolution: 17500
Column name: Atlantis T3 3um, 3x150mm, Waters with guard column
Retention time: 10.3 min
Base peak: 188.1436
Precursor m/z: 188.1434
Precursor type: [M+H]+
m/z	relative intensity	assigned
65.0389	15	C5H5+
70.0654	14	C4H8N+
89.0385	1	C7H5+
91.0543	999	C7H7+
119.0859	3	C9H11+
