Mass spectrum: DEP_204.1384_15.1; LC-ESI-QFT; MS2; CE: 45; R=17500; [M+H]+
Name: DEP_204.1384_15.1
Formula: C13H17NO
Exact mass: 203.1310
Instrument: Q Exactive Orbitrap Thermo Scientific
Instrument type: LC-ESI-QFT
Ms type: MS2
Ion mode: POSITIVE
Ionization: ESI
Fragmentation mode: HCD
Collision energy: 45 (nominal)
Resolution: 17500
Column name: Atlantis T3 3um, 3x150mm, Waters with guard column
Retention time: 15.0 min
Base peak: 60.0809
Precursor m/z: 204.1383
Precursor type: [M+H]+
m/z	relative intensity	assigned
56.0497	2	C3H6N+
58.0653	13	C3H8N+
65.0386	3	C5H5+
68.0495	62	C4H6N+
70.0651	2	C4H8N+
86.0601	313	C4H8NO+
91.0542	999	C7H7+
96.0808	2	C6H10N+
109.065	3	C7H9O+
119.0856	128	C9H11+
204.1384	86	C13H18NO+
