Mass spectrum: DEP_216.1383_16.4; LC-ESI-QFT; MS2; CE: 90; R=17500; [M+H]+
Name: DEP_216.1383_16.4
Formula: C14H17NO
Exact mass: 215.1310
SMILES: CC(CC1=CC=CC=C1)N(CC#C)C(C)=O
InChI: InChI=1S/C14H17NO/c1-4-10-15(13(3)16)12(2)11-14-8-6-5-7-9-14/h1,5-9,12H,10-11H2,2-3H3
Instrument: Q Exactive Orbitrap Thermo Scientific
Instrument type: LC-ESI-QFT
Ms type: MS2
Ion mode: POSITIVE
Ionization: ESI
Fragmentation mode: HCD
Collision energy: 90 (nominal)
Resolution: 17500
Column name: Atlantis T3 3um, 3x150mm, Waters with guard column
Retention time: 16.3 min
Base peak: 60.0809
Precursor m/z: 216.1383
Precursor type: [M+H]+
m/z	relative intensity	assigned
50.0153	46	C4H2+
51.0232	54	C4H3+
53.0387	151	C4H5+
55.0181	9	C3H3O+
77.0386	358	C6H5+
81.0338	20	C5H5O+
91.0543	216	C7H7+
95.0492	999	C6H7O+
105.0447	627	C6H5N2+
