Mass spectrum: FEN_246.1101_16.1; LC-ESI-QFT; MS2; CE: 15; R=17500; [M+H]+
Name: FEN_246.1101_16.1
Name: N-desethyl-N-acetylfeniramine
Name: N-[1-[3-(trifluoromethyl)phenyl]propan-2-yl]acetamide
Formula: C12H14F3NO
Exact mass: 245.1027
SMILES: CC(CC1=CC(=CC=C1)C(F)(F)F)NC(C)=O
InChI: InChI=1S/C12H14F3NO/c1-8(16-9(2)17)6-10-4-3-5-11(7-10)12(13,14)15/h3-5,7-8H,6H2,1-2H3,(H,16,17)
Instrument: Q Exactive Plus Orbitrap Thermo Scientific
Instrument type: LC-ESI-QFT
Ms type: MS2
Ion mode: POSITIVE
Ionization: ESI
Fragmentation mode: HCD
Collision energy: 15 (nominal)
Resolution: 17500
Column name: Atlantis T3 3um, 3x150mm, Waters with guard column
Retention time: 15.8 min
Base peak: 65.0597
Precursor m/z: 246.11
Precursor type: [M+H]+
m/z	relative intensity	assigned
60.0444	180	C2H6NO+
60.0808	16	C3H10N+
123.1162	10	C9H15+
141.0006	48	C9FN+
158.0272	147	C9H3FN2+
159.0416	447	C8H6F3+
187.073	999	C10H10F3+
214.0897	134	
246.1102	776	C12H15F3NO+
