Mass spectrum: FEN_204.0996_12.2; LC-ESI-QFT; MS2; CE: 15-90; R=17500; [M+H]+
Name: FEN_204.0996_12.2
Name: N-desethylfeniramine (Norfenfluramine)
Name: 1-[3-(trifluoromethyl)phenyl]propan-2-amine
Formula: C10H12F3N
Exact mass: 203.0922
SMILES: CC(N)CC1=CC=CC(=C1)C(F)(F)F
InChI: InChI=1S/C10H12F3N/c1-7(14)5-8-3-2-4-9(6-8)10(11,12)13/h2-4,6-7H,5,14H2,1H3
Instrument: Q Exactive Orbitrap Thermo Scientific
Instrument type: LC-ESI-QFT
Ms type: MS2
Ion mode: POSITIVE
Ionization: ESI
Fragmentation mode: HCD
Collision energy: 15, 30, 45, 60, 70 or 90 (nominal)
Resolution: 17500
Column name: Atlantis T3 3um, 3x150mm, Waters with guard column
Retention time: 12.4 min
Base peak: 204.0994
Precursor m/z: 204.0995
Precursor type: [M+H]+
m/z	relative intensity	assigned
83.0293	1	C5H4F+
89.0388	1	C7H5+
91.0539	1	C7H7+
109.0446	27	C7H6F+
139.0351	3	C8H5F2+
147.0351	1	C8H4FN2+
147.0604	1	C10H8F+
159.0416	999	C8H6F3+
187.0732	2	C10H10F3+
200.068	1	C10H9F3N+
