Mass spectrum: FEN_246.1101_16.9; LC-ESI-QFT; MS2; CE: 15; R=17500; [M+H]+
Name: FEN_246.1101_16.9
Formula: C12H14F3NO
Exact mass: 245.1027
Instrument: Q Exactive Plus Orbitrap Thermo Scientific
Instrument type: LC-ESI-QFT
Ms type: MS2
Ion mode: POSITIVE
Ionization: ESI
Fragmentation mode: HCD
Collision energy: 15 (nominal)
Resolution: 17500
Column name: Atlantis T3 3um, 3x150mm, Waters with guard column
Retention time: 16.5 min
Base peak: 65.0597
Precursor m/z: 246.11
Precursor type: [M+H]+
m/z	relative intensity	assigned
60.0444	16	C2H6NO+
158.0274	4	C9H3FN2+
159.0414	14	C8H6F3+
164.0872	2	C10H11FN+
183.062	1	C10H9F2O+
184.0931	13	C10H12F2N+
187.0731	15	C10H10F3+
204.1014	58	C12H14NO2+
222.1126	999	
224.1077	11	C12H15FNO2+
226.1035	12	C12H14F2NO+
236.1283	30	
246.1101	167	C12H15F3NO+
