Mass spectrum: FEN_246.1101_16.1; LC-ESI-QFT; MS2; CE: 45; R=17500; [M+H]+
Name: FEN_246.1101_16.1
Name: N-desethyl-N-acetylfeniramine
Name: N-[1-[3-(trifluoromethyl)phenyl]propan-2-yl]acetamide
Formula: C12H14F3NO
Exact mass: 245.1027
SMILES: CC(CC1=CC(=CC=C1)C(F)(F)F)NC(C)=O
InChI: InChI=1S/C12H14F3NO/c1-8(16-9(2)17)6-10-4-3-5-11(7-10)12(13,14)15/h3-5,7-8H,6H2,1-2H3,(H,16,17)
Instrument: Q Exactive Plus Orbitrap Thermo Scientific
Instrument type: LC-ESI-QFT
Ms type: MS2
Ion mode: POSITIVE
Ionization: ESI
Fragmentation mode: HCD
Collision energy: 45 (nominal)
Resolution: 17500
Column name: Atlantis T3 3um, 3x150mm, Waters with guard column
Retention time: 15.8 min
Base peak: 65.0597
Precursor m/z: 246.11
Precursor type: [M+H]+
m/z	relative intensity	assigned
53.0385	6	C4H5+
55.0541	4	C4H7+
57.07	5	C4H9+
60.0444	79	C2H6NO+
60.0807	6	C3H10N+
88.0754	4	C4H10NO+
95.0491	29	C6H7O+
95.0859	4	C7H11+
105.0447	25	C6H5N2+
109.101	7	C8H13+
123.1167	5	C9H15+
141.0005	49	C9FN+
159.0417	999	C8H6F3+
167.0664	4	C10H9F2+
187.073	18	C10H10F3+
