Mass spectrum: FEN_246.1101_16.9; LC-ESI-QFT; MS2; CE: 90; R=17500; [M+H]+
Name: FEN_246.1101_16.9
Formula: C12H14F3NO
Exact mass: 245.1027
Instrument: Q Exactive Plus Orbitrap Thermo Scientific
Instrument type: LC-ESI-QFT
Ms type: MS2
Ion mode: POSITIVE
Ionization: ESI
Fragmentation mode: HCD
Collision energy: 90 (nominal)
Resolution: 17500
Column name: Atlantis T3 3um, 3x150mm, Waters with guard column
Retention time: 16.5 min
Base peak: 65.0597
Precursor m/z: 246.11
Precursor type: [M+H]+
m/z	relative intensity	assigned
53.0387	5	C4H5+
55.0543	6	C4H7+
60.0444	128	C2H6NO+
66.015	3	CH2F2N+
67.0542	2	C5H7+
69.07	5	C5H9+
70.0652	15	C4H8N+
77.0385	1	C6H5+
79.0546	1	C6H7+
81.0699	2	C6H9+
83.0291	9	C5H4F+
91.0543	22	C7H7+
93.0701	1	C7H9+
94.0652	7	C6H8N+
95.0492	7	C6H7O+
103.0355	7	C5H5F2+
103.054	11	C8H7+
105.0448	5	C6H5N2+
109.0449	561	C7H6F+
115.0544	18	C9H7+
116.062	26	C9H8+
117.0699	15	C9H9+
123.0604	2	C8H8F+
127.0354	109	C7H5F2+
137.0398	16	C8H6FO+
139.0354	65	C8H5F2+
141.0512	21	C8H7F2+
144.0806	10	C10H10N+
146.0528	35	C10H7F+
147.0355	47	C8H4FN2+
147.0605	39	C10H8F+
149.064	5	C9H8FN+
152.0435	5	C9H6F2+
155.0603	21	C10H7N2+
159.0417	999	C8H6F3+
164.0873	3	C10H11FN+
165.0508	2	C10H7F2+
167.0668	42	C10H9F2+
173.0508	2	C10H6FN2+
184.0929	8	C10H12F2N+
