Mass spectrum: FEN_220.0944_12.9; LC-ESI-QFT; MS2; CE: 15; R=17500; [M+H]+
Name: FEN_220.0944_12.9
Name: N-desethyl-N-hydroxylfeniramine
Name: N-[1-[3-(trifluoromethyl)phenyl]propan-2-yl]hydroxylamine
Formula: C10H12F3NO
Exact mass: 219.0871
SMILES: CC(CC1=CC(=CC=C1)C(F)(F)F)NO
InChI: InChI=1S/C10H12F3NO/c1-7(14-15)5-8-3-2-4-9(6-8)10(11,12)13/h2-4,6-7,14-15H,5H2,1H3
Instrument: Q Exactive Plus Orbitrap Thermo Scientific
Instrument type: LC-ESI-QFT
Ms type: MS2
Ion mode: POSITIVE
Ionization: ESI
Fragmentation mode: HCD
Collision energy: 15 (nominal)
Resolution: 17500
Column name: Atlantis T3 3um, 3x150mm, Waters with guard column
Retention time: 12.8 min
Base peak: 65.0597
Precursor m/z: 220.0944
Precursor type: [M+H]+
m/z	relative intensity	assigned
59.0491	2	C3H7O+
87.0438	2	C4H7O2+
101.0599	10	C5H9O2+
159.0416	577	C8H6F3+
167.0673	2	C10H9F2+
182.0784	5	C10H10F2N+
187.0729	999	C10H10F3+
200.0875	2	C10H12F2NO+
220.0944	389	C10H13F3NO+
