Mass spectrum: FEN_246.1101_16.1; LC-ESI-QFT; MS2; CE: 90; R=17500; [M+H]+
Name: FEN_246.1101_16.1
Name: N-desethyl-N-acetylfeniramine
Name: N-[1-[3-(trifluoromethyl)phenyl]propan-2-yl]acetamide
Formula: C12H14F3NO
Exact mass: 245.1027
SMILES: CC(CC1=CC(=CC=C1)C(F)(F)F)NC(C)=O
InChI: InChI=1S/C12H14F3NO/c1-8(16-9(2)17)6-10-4-3-5-11(7-10)12(13,14)15/h3-5,7-8H,6H2,1-2H3,(H,16,17)
Instrument: Q Exactive Plus Orbitrap Thermo Scientific
Instrument type: LC-ESI-QFT
Ms type: MS2
Ion mode: POSITIVE
Ionization: ESI
Fragmentation mode: HCD
Collision energy: 90 (nominal)
Resolution: 17500
Column name: Atlantis T3 3um, 3x150mm, Waters with guard column
Retention time: 15.8 min
Base peak: 65.0597
Precursor m/z: 246.11
Precursor type: [M+H]+
m/z	relative intensity	assigned
51.023	12	C4H3+
53.0386	43	C4H5+
55.0543	17	C4H7+
60.0444	47	C2H6NO+
60.081	8	C3H10N+
67.0542	12	C5H7+
77.0387	10	C6H5+
81.0698	7	C6H9+
91.0541	8	C7H7+
95.0491	75	C6H7O+
105.0446	61	C6H5N2+
109.0449	690	C7H6F+
139.0355	85	C8H5F2+
147.0355	49	C8H4FN2+
159.0417	999	C8H6F3+
