Mass spectrum: FEN_232.1308_12.4; LC-ESI-QFT; MS2; CE: 15-90; R=17500; [M+H]+
Name: FEN_232.1308_12.4
Name: Feniramine (Fenfluramine)
Name: N-ethyl-1-[3-(trifluoromethyl)phenyl]propan-2-amine
Formula: C12H16F3N
Exact mass: 231.1235
SMILES: CCNC(C)CC1=CC=CC(=C1)C(F)(F)F
InChI: InChI=1S/C12H16F3N/c1-3-16-9(2)7-10-5-4-6-11(8-10)12(13,14)15/h4-6,8-9,16H,3,7H2,1-2H3
Instrument: Q Exactive Orbitrap Thermo Scientific
Instrument type: LC-ESI-QFT
Ms type: MS2
Ion mode: POSITIVE
Ionization: ESI
Fragmentation mode: HCD
Collision energy: 15, 30, 45, 60, 70 or 90 (nominal)
Resolution: 17500
Column name: Atlantis T3 3um, 3x150mm, Waters with guard column
Retention time: 12.7 min
Base peak: 232.1307
Precursor m/z: 232.1308
Precursor type: [M+H]+
m/z	relative intensity	assigned
72.0808	1	C4H10N+
109.0446	21	C7H6F+
139.035	2	C8H5F2+
147.0602	1	C10H8F+
159.0416	999	C8H6F3+
187.0732	3	C10H10F3+
232.1308	1	C12H17F3N+
