Mass spectrum: FEN_246.1101_16.9; LC-ESI-QFT; MS2; CE: 45; R=17500; [M+H]+
Name: FEN_246.1101_16.9
Formula: C12H14F3NO
Exact mass: 245.1027
Instrument: Q Exactive Plus Orbitrap Thermo Scientific
Instrument type: LC-ESI-QFT
Ms type: MS2
Ion mode: POSITIVE
Ionization: ESI
Fragmentation mode: HCD
Collision energy: 45 (nominal)
Resolution: 17500
Column name: Atlantis T3 3um, 3x150mm, Waters with guard column
Retention time: 16.5 min
Base peak: 65.0597
Precursor m/z: 246.11
Precursor type: [M+H]+
m/z	relative intensity	assigned
55.0542	1	C4H7+
57.0699	2	C4H9+
60.0444	296	C2H6NO+
69.07	1	C5H9+
70.0651	1	C4H8N+
77.0386	1	C6H5+
81.07	1	C6H9+
83.0492	1	C5H7O+
83.0855	1	C6H11+
91.0546	1	C7H7+
94.0653	5	C6H8N+
95.0491	2	C6H7O+
97.0646	1	C6H9O+
103.0354	1	C5H5F2+
105.0451	1	C6H5N2+
106.0465	7	C4H6F2N+
115.0756	5	C6H11O2+
117.0702	1	C9H9+
127.0354	67	C7H5F2+
135.0444	1	C8H7O2+
137.0398	41	C8H6FO+
141.0005	5	C9FN+
141.0511	15	C8H7F2+
144.0808	8	C10H10N+
145.0648	2	C10H9O+
147.061	7	C10H8F+
157.0464	10	C8H7F2O+
158.0269	2	C9H3FN2+
159.0417	999	C8H6F3+
160.1123	16	C11H14N+
163.0556	16	C10H8FO+
164.0872	44	C10H11FN+
165.0712	7	C10H10FO+
167.0668	173	C10H9F2+
183.0618	48	C10H9F2O+
184.0934	979	C10H12F2N+
186.0913	1	C12H12NO+
187.0728	39	C10H10F3+
204.1016	18	C12H14NO2+
206.0976	5	C12H13FNO+
208.0932	1	C12H12F2N+
222.1127	344	
224.1087	1	C12H15FNO2+
226.1037	7	C12H14F2NO+
