Mass spectrum: FEN_246.1101_16.9; LC-ESI-QFT; MS2; CE: 30; R=17500; [M+H]+
Name: FEN_246.1101_16.9
Formula: C12H14F3NO
Exact mass: 245.1027
Instrument: Q Exactive Plus Orbitrap Thermo Scientific
Instrument type: LC-ESI-QFT
Ms type: MS2
Ion mode: POSITIVE
Ionization: ESI
Fragmentation mode: HCD
Collision energy: 30 (nominal)
Resolution: 17500
Column name: Atlantis T3 3um, 3x150mm, Waters with guard column
Retention time: 16.5 min
Base peak: 65.0597
Precursor m/z: 246.11
Precursor type: [M+H]+
m/z	relative intensity	assigned
60.0444	83	C2H6NO+
83.0856	1	C6H11+
97.0649	1	C6H9O+
115.0754	4	C6H11O2+
135.0443	4	C8H7O2+
137.0397	8	C8H6FO+
141.0006	4	C9FN+
141.051	3	C8H7F2+
145.0649	3	C10H9O+
157.0456	1	C8H7F2O+
158.0271	4	C9H3FN2+
159.0417	149	C8H6F3+
160.1122	7	C11H14N+
163.0553	6	C10H8FO+
164.0872	15	C10H11FN+
165.0713	6	C10H10FO+
167.0667	17	C10H9F2+
183.0619	15	C10H9F2O+
184.0933	181	C10H12F2N+
187.073	50	C10H10F3+
204.1012	57	C12H14NO2+
206.0979	2	C12H13FNO+
222.1126	999	
224.1076	12	C12H15FNO2+
226.1041	13	C12H14F2NO+
236.1284	30	
246.11	22	C12H15F3NO+
