Mass spectrum: FEN_246.1101_16.9; LC-ESI-QFT; MS2; CE: 75; R=17500; [M+H]+
Name: FEN_246.1101_16.9
Formula: C12H14F3NO
Exact mass: 245.1027
Instrument: Q Exactive Plus Orbitrap Thermo Scientific
Instrument type: LC-ESI-QFT
Ms type: MS2
Ion mode: POSITIVE
Ionization: ESI
Fragmentation mode: HCD
Collision energy: 75 (nominal)
Resolution: 17500
Column name: Atlantis T3 3um, 3x150mm, Waters with guard column
Retention time: 16.5 min
Base peak: 65.0597
Precursor m/z: 246.11
Precursor type: [M+H]+
m/z	relative intensity	assigned
53.0386	1	C4H5+
55.0542	4	C4H7+
60.0444	144	C2H6NO+
66.015	4	CH2F2N+
67.0543	1	C5H7+
69.0699	3	C5H9+
70.0651	13	C4H8N+
79.0542	1	C6H7+
81.0698	1	C6H9+
83.0293	1	C5H4F+
91.054	7	C7H7+
93.0701	1	C7H9+
94.0652	9	C6H8N+
95.0491	4	C6H7O+
103.0356	9	C5H5F2+
103.0543	9	C8H7+
105.0444	4	C6H5N2+
106.0464	5	C4H6F2N+
109.0449	118	C7H6F+
115.0542	5	C9H7+
116.0619	11	C9H8+
117.07	11	C9H9+
123.0606	6	C8H8F+
127.0354	108	C7H5F2+
137.0398	14	C8H6FO+
139.0354	15	C8H5F2+
141.0511	25	C8H7F2+
144.0809	19	C10H10N+
145.0648	7	C10H9O+
146.0525	13	C10H7F+
147.0351	6	C8H4FN2+
147.0605	36	C10H8F+
149.0638	5	C9H8FN+
152.0436	4	C9H6F2+
155.0597	11	C10H7N2+
157.0462	1	C8H7F2O+
159.0417	999	C8H6F3+
164.0871	16	C10H11FN+
165.0511	2	C10H7F2+
167.0667	94	C10H9F2+
169.0699	4	C9H9F2N+
173.0506	1	C10H6FN2+
182.078	1	C10H10F2N+
183.0849	1	C10H11F2N+
184.0933	55	C10H12F2N+
