Mass spectrum: FEN_246.1101_16.9; LC-ESI-QFT; MS2; CE: 60; R=17500; [M+H]+
Name: FEN_246.1101_16.9
Formula: C12H14F3NO
Exact mass: 245.1027
Instrument: Q Exactive Plus Orbitrap Thermo Scientific
Instrument type: LC-ESI-QFT
Ms type: MS2
Ion mode: POSITIVE
Ionization: ESI
Fragmentation mode: HCD
Collision energy: 60 (nominal)
Resolution: 17500
Column name: Atlantis T3 3um, 3x150mm, Waters with guard column
Retention time: 16.5 min
Base peak: 65.0597
Precursor m/z: 246.11
Precursor type: [M+H]+
m/z	relative intensity	assigned
53.0387	1	C4H5+
55.0542	2	C4H7+
57.0699	1	C4H9+
60.0444	195	C2H6NO+
66.015	2	CH2F2N+
69.0699	5	C5H9+
70.0652	9	C4H8N+
77.0386	1	C6H5+
79.0541	1	C6H7+
83.0855	1	C6H11+
91.0544	3	C7H7+
94.0652	12	C6H8N+
95.0491	6	C6H7O+
103.0354	5	C5H5F2+
103.0543	7	C8H7+
105.045	3	C6H5N2+
106.0463	7	C4H6F2N+
109.0447	11	C7H6F+
116.0622	3	C9H8+
117.0702	5	C9H9+
123.0605	6	C8H8F+
127.0354	129	C7H5F2+
137.0398	21	C8H6FO+
139.0352	2	C8H5F2+
141.0509	23	C8H7F2+
144.0808	19	C10H10N+
146.0521	1	C10H7F+
147.0606	26	C10H8F+
149.0638	5	C9H8FN+
157.0462	4	C8H7F2O+
159.0417	999	C8H6F3+
160.1124	4	C11H14N+
164.0872	29	C10H11FN+
167.0667	157	C10H9F2+
169.0694	1	C9H9F2N+
182.0777	1	C10H10F2N+
183.0623	9	C10H9F2O+
183.0863	1	C10H11F2N+
184.0934	318	C10H12F2N+
187.0731	1	C10H10F3+
