Mass spectrum: FLU_410.1574_18.4; LC-ESI-QFT; MS2; CE: 30; R=17500; [M+H]+
Name: FLU_410.1574_18.4
Name: Fluoxetine Succinamic Acid
Name: 4-[methyl-[3-phenyl-3-[4-(trifluoromethyl)phenoxy]propyl]amino]-4-oxobutanoic acid
Formula: C21H22F3NO4
Exact mass: 409.1501
SMILES: CN(CCC(OC1=CC=C(C=C1)C(F)(F)F)C1=CC=CC=C1)C(=O)CCC(O)=O
InChI: InChI=1S/C21H22F3NO4/c1-25(19(26)11-12-20(27)28)14-13-18(15-5-3-2-4-6-15)29-17-9-7-16(8-10-17)21(22,23)24/h2-10,18H,11-14H2,1H3,(H,27,28)
Instrument: Q Exactive Plus Orbitrap Thermo Scientific
Instrument type: LC-ESI-QFT
Ms type: MS2
Ion mode: POSITIVE
Ionization: ESI
Fragmentation mode: HCD
Collision energy: 30 (nominal)
Resolution: 17500
Column name: Atlantis T3 3um, 3x150mm, Waters with guard column
Retention time: 18.0 min
Base peak: 65.0597
Precursor m/z: 410.1574
Precursor type: [M+H]+
m/z	relative intensity	assigned
60.0807	51	C3H10N+
88.0757	96	C4H10NO+
88.1121	227	C5H14N+
98.0603	156	C5H8NO+
101.0235	79	C4H5O3+
114.055	17	C5H8NO2+
117.07	999	C9H9+
127.0628	141	C6H9NO2+
144.0658	170	C6H10NO3+
176.1071	36	C11H14NO+
230.1188	42	C11H17FNO3+
245.0432	59	C11H8F3O3+
251.0679	46	C14H10F3O+
392.1471	546	C21H21F3NO3+
