Mass spectrum: FLU_410.1574_18.4; LC-ESI-QFT; MS2; CE: 90; R=17500; [M+H]+
Name: FLU_410.1574_18.4
Name: Fluoxetine Succinamic Acid
Name: 4-[methyl-[3-phenyl-3-[4-(trifluoromethyl)phenoxy]propyl]amino]-4-oxobutanoic acid
Formula: C21H22F3NO4
Exact mass: 409.1501
SMILES: CN(CCC(OC1=CC=C(C=C1)C(F)(F)F)C1=CC=CC=C1)C(=O)CCC(O)=O
InChI: InChI=1S/C21H22F3NO4/c1-25(19(26)11-12-20(27)28)14-13-18(15-5-3-2-4-6-15)29-17-9-7-16(8-10-17)21(22,23)24/h2-10,18H,11-14H2,1H3,(H,27,28)
Instrument: Q Exactive Plus Orbitrap Thermo Scientific
Instrument type: LC-ESI-QFT
Ms type: MS2
Ion mode: POSITIVE
Ionization: ESI
Fragmentation mode: HCD
Collision energy: 90 (nominal)
Resolution: 17500
Column name: Atlantis T3 3um, 3x150mm, Waters with guard column
Retention time: 18.0 min
Base peak: 65.0597
Precursor m/z: 410.1574
Precursor type: [M+H]+
m/z	relative intensity	assigned
55.0179	50	C3H3O+
70.0651	144	C4H8N+
73.0284	95	C3H5O2+
81.07	38	C6H9+
88.0758	98	C4H10NO+
88.1121	129	C5H14N+
91.0543	716	C7H7+
98.0602	992	C5H8NO+
99.0679	140	C5H9NO+
100.0755	25	C5H10NO+
115.0543	999	C9H7+
117.07	666	C9H9+
145.0264	155	C7H4F3+
183.0609	189	C13H8F+
186.1288	21	C10H17FNO+
