Mass spectrum: FLU_410.1574_18.4; LC-ESI-QFT; MS2; CE: 75; R=17500; [M+H]+
Name: FLU_410.1574_18.4
Name: Fluoxetine Succinamic Acid
Name: 4-[methyl-[3-phenyl-3-[4-(trifluoromethyl)phenoxy]propyl]amino]-4-oxobutanoic acid
Formula: C21H22F3NO4
Exact mass: 409.1501
SMILES: CN(CCC(OC1=CC=C(C=C1)C(F)(F)F)C1=CC=CC=C1)C(=O)CCC(O)=O
InChI: InChI=1S/C21H22F3NO4/c1-25(19(26)11-12-20(27)28)14-13-18(15-5-3-2-4-6-15)29-17-9-7-16(8-10-17)21(22,23)24/h2-10,18H,11-14H2,1H3,(H,27,28)
Instrument: Q Exactive Plus Orbitrap Thermo Scientific
Instrument type: LC-ESI-QFT
Ms type: MS2
Ion mode: POSITIVE
Ionization: ESI
Fragmentation mode: HCD
Collision energy: 75 (nominal)
Resolution: 17500
Column name: Atlantis T3 3um, 3x150mm, Waters with guard column
Retention time: 18.0 min
Base peak: 65.0597
Precursor m/z: 410.1574
Precursor type: [M+H]+
m/z	relative intensity	assigned
55.0179	58	C3H3O+
60.0807	74	C3H10N+
70.0651	157	C4H8N+
73.0285	68	C3H5O2+
88.0758	93	C4H10NO+
88.1121	230	C5H14N+
91.0543	373	C7H7+
98.0601	844	C5H8NO+
99.0678	312	C5H9NO+
101.0234	65	C4H5O3+
115.0543	683	C9H7+
117.07	999	C9H9+
127.0631	89	C6H9NO2+
145.026	59	C7H4F3+
176.1076	38	C11H14NO+
183.0607	145	C13H8F+
186.128	26	C13H16N+
