Mass spectrum: FLU_310.1415_14.5; LC-ESI-QFT; MS2; CE: 15-90; R=17500; [M+H]+
Name: FLU_310.1415_14.5
Name: Fluoxetine
Name: N-methyl-3-phenyl-3-[4-(trifluoromethyl)phenoxy]propan-1-amine
Formula: C17H18F3NO
Exact mass: 309.1340
SMILES: CNCCC(OC1=CC=C(C=C1)C(F)(F)F)C1=CC=CC=C1
InChI: InChI=1S/C17H18F3NO/c1-21-12-11-16(13-5-3-2-4-6-13)22-15-9-7-14(8-10-15)17(18,19)20/h2-10,16,21H,11-12H2,1H3
Instrument: Q Exactive Orbitrap Thermo Scientific
Instrument type: LC-ESI-QFT
Ms type: MS2
Ion mode: POSITIVE
Ionization: ESI
Fragmentation mode: HCD
Collision energy: 15, 30, 45, 60, 70 or 90 (nominal)
Resolution: 17500
Column name: Atlantis T3 3um, 3.0x150mm, Waters with guard column
Retention time: 14.8 min
Base peak: 310.1411
Precursor m/z: 310.1413
Precursor type: [M+H]+
m/z	relative intensity	assigned
91.0543	525	C7H7+
117.0696	999	C9H9+
