Mass spectrum: FLU_410.1574_18.4; LC-ESI-QFT; MS2; CE: 15; R=17500; [M+H]+
Name: FLU_410.1574_18.4
Name: Fluoxetine Succinamic Acid
Name: 4-[methyl-[3-phenyl-3-[4-(trifluoromethyl)phenoxy]propyl]amino]-4-oxobutanoic acid
Formula: C21H22F3NO4
Exact mass: 409.1501
SMILES: CN(CCC(OC1=CC=C(C=C1)C(F)(F)F)C1=CC=CC=C1)C(=O)CCC(O)=O
InChI: InChI=1S/C21H22F3NO4/c1-25(19(26)11-12-20(27)28)14-13-18(15-5-3-2-4-6-15)29-17-9-7-16(8-10-17)21(22,23)24/h2-10,18H,11-14H2,1H3,(H,27,28)
Instrument: Q Exactive Plus Orbitrap Thermo Scientific
Instrument type: LC-ESI-QFT
Ms type: MS2
Ion mode: POSITIVE
Ionization: ESI
Fragmentation mode: HCD
Collision energy: 15 (nominal)
Resolution: 17500
Column name: Atlantis T3 3um, 3x150mm, Waters with guard column
Retention time: 18.0 min
Base peak: 65.0597
Precursor m/z: 410.1574
Precursor type: [M+H]+
m/z	relative intensity	assigned
60.0809	22	C3H10N+
88.0757	83	C4H10NO+
88.1121	185	C5H14N+
101.0233	10	C4H5O3+
117.0702	39	C9H9+
144.0657	623	C6H10NO3+
230.1179	32	C11H17FNO3+
248.1283	999	
392.1473	383	C21H21F3NO3+
