Mass spectrum: FLU_352.1520_18.8; LC-ESI-QFT; MS2; CE: (160-0.41mz or 15) NCE; R=17500; [M+H]+
Name: FLU_352.1520_18.8
Formula: C19H20F3NO2
Exact mass: 351.1446
Instrument: Q Exactive Orbitrap Thermo Scientific
Instrument type: LC-ESI-QFT
Ms type: MS2
Ion mode: POSITIVE
Ionization: ESI
Fragmentation mode: HCD
Collision energy: 160-0.41mz or 15 (mz>350) nominal units
Resolution: 17500
Column name: Atlantis T3 3um, 3x150mm, Waters with guard column
Retention time: 18.8 min
Base peak: 65.0598
Precursor m/z: 352.1519
Precursor type: [M+H]+
m/z	relative intensity	assigned
60.0808	27	C3H10N+
86.06	850	C4H8NO+
97.0647	219	C6H9O+
101.0596	139	C5H9O2+
111.0807	34	C7H11O+
113.0597	31	C6H9O2+
115.0748	46	C6H11O2+
123.0802	71	C8H11O+
125.0598	34	C7H9O2+
131.0699	53	CH10FN3O3+
190.1226	999	C12H16NO+
194.1158	57	C9H15F3N+
