Mass spectrum: FLU_410.1574_18.4; LC-ESI-QFT; MS2; CE: 45; R=17500; [M+H]+
Name: FLU_410.1574_18.4
Name: Fluoxetine Succinamic Acid
Name: 4-[methyl-[3-phenyl-3-[4-(trifluoromethyl)phenoxy]propyl]amino]-4-oxobutanoic acid
Formula: C21H22F3NO4
Exact mass: 409.1501
SMILES: CN(CCC(OC1=CC=C(C=C1)C(F)(F)F)C1=CC=CC=C1)C(=O)CCC(O)=O
InChI: InChI=1S/C21H22F3NO4/c1-25(19(26)11-12-20(27)28)14-13-18(15-5-3-2-4-6-15)29-17-9-7-16(8-10-17)21(22,23)24/h2-10,18H,11-14H2,1H3,(H,27,28)
Instrument: Q Exactive Plus Orbitrap Thermo Scientific
Instrument type: LC-ESI-QFT
Ms type: MS2
Ion mode: POSITIVE
Ionization: ESI
Fragmentation mode: HCD
Collision energy: 45 (nominal)
Resolution: 17500
Column name: Atlantis T3 3um, 3x150mm, Waters with guard column
Retention time: 18.0 min
Base peak: 65.0597
Precursor m/z: 410.1574
Precursor type: [M+H]+
m/z	relative intensity	assigned
60.0808	41	C3H10N+
70.065	46	C4H8N+
73.0281	7	C3H5O2+
81.0699	10	C6H9+
88.0758	88	C4H10NO+
88.1122	216	C5H14N+
91.0545	17	C7H7+
98.0601	250	C5H8NO+
99.068	76	C5H9NO+
101.0233	88	C4H5O3+
114.0555	9	C5H8NO2+
115.0541	73	C9H7+
117.07	999	C9H9+
118.078	14	C9H10+
127.0629	333	C6H9NO2+
176.1072	51	C11H14NO+
183.0603	15	C13H8F+
186.1285	14	C10H17FNO+
245.0428	7	C11H8F3O3+
251.0686	41	C14H10F3O+
