Mass spectrum: LID_180.1018_12.9; LC-ESI-QFT; MS2; CE: 30; R=17500; [M+H]+
Name: LID_180.1018_12.9
Name: Acetamide, N-(2,6-dimethylphenyl)-2-hydroxy-
Name: N-(2,6-dimethylphenyl)-2-hydroxyacetamide
Formula: C10H13NO2
Exact mass: 179.0946
SMILES: CC1=CC=CC(C)=C1NC(=O)CO
InChI: InChI=1S/C10H13NO2/c1-7-4-3-5-8(2)10(7)11-9(13)6-12/h3-5,12H,6H2,1-2H3,(H,11,13)
Instrument: Q Exactive Plus Orbitrap Thermo Scientific
Instrument type: LC-ESI-QFT
Ms type: MS2
Ion mode: POSITIVE
Ionization: ESI
Fragmentation mode: HCD
Collision energy: 30 (nominal)
Resolution: 17500
Column name: Atlantis T3 3um, 3x150mm, Waters with guard column
Retention time: 12.7 min
Base peak: 65.0598
Precursor m/z: 180.1019
Precursor type: [M+H]+
m/z	relative intensity	assigned
55.054	6	C4H7+
59.0491	38	C3H7O+
73.0649	48	C4H9O+
87.0441	57	C4H7O2+
89.0596	26	C4H9O2+
101.0597	32	C5H9O2+
101.0961	10	C6H13O+
107.07	38	C4H11O3+
111.0231	29	C9H3+
119.0854	14	C9H11+
120.0807	31	C8H10N+
121.0075	40	C10H+
122.0966	424	C8H12N+
125.002	21	C9HO+
134.0966	180	C9H12N+
135.0806	227	C9H11O+
138.0544	6	C7H8NO2+
138.0908	8	C8H12NO+
139.0183	86	C10H3O+
147.0679	10	C9H9NO+
148.0394	52	C8H6NO2+
149.023	21	C8H5O3+
162.0915	311	C10H12NO+
180.1019	999	C10H14NO2+
