Mass spectrum: LID_180.1018_12.9; LC-ESI-QFT; MS2; CE: 60; R=17500; [M+H]+
Name: LID_180.1018_12.9
Name: Acetamide, N-(2,6-dimethylphenyl)-2-hydroxy-
Name: N-(2,6-dimethylphenyl)-2-hydroxyacetamide
Formula: C10H13NO2
Exact mass: 179.0946
SMILES: CC1=CC=CC(C)=C1NC(=O)CO
InChI: InChI=1S/C10H13NO2/c1-7-4-3-5-8(2)10(7)11-9(13)6-12/h3-5,12H,6H2,1-2H3,(H,11,13)
Instrument: Q Exactive Plus Orbitrap Thermo Scientific
Instrument type: LC-ESI-QFT
Ms type: MS2
Ion mode: POSITIVE
Ionization: ESI
Fragmentation mode: HCD
Collision energy: 60 (nominal)
Resolution: 17500
Column name: Atlantis T3 3um, 3x150mm, Waters with guard column
Retention time: 12.7 min
Base peak: 65.0598
Precursor m/z: 180.1019
Precursor type: [M+H]+
m/z	relative intensity	assigned
55.0541	17	C4H7+
57.0699	19	C4H9+
59.0493	77	C3H7O+
67.0541	17	C5H7+
73.0649	32	C4H9O+
79.0544	77	C6H7+
81.0698	17	C6H9+
87.0442	30	C4H7O2+
91.0544	86	C7H7+
93.0703	22	C7H9+
97.0078	122	C8H+
105.0701	199	C8H9+
107.0732	315	C7H9N+
107.0855	332	C8H11+
117.0701	145	C9H9+
118.0655	19	C8H8N+
119.073	101	C8H9N+
119.0859	74	C9H11+
120.0809	264	C8H10N+
121.0077	27	C10H+
121.0653	25	C8H9O+
121.0889	62	C8H11N+
122.0717	65	C6H8N3+
122.0966	999	C8H12N+
123.0808	22	C8H11O+
125.0026	108	C9HO+
125.0391	20	C10H5+
132.0814	35	C9H10N+
134.0965	877	C9H12N+
135.0806	574	C9H11O+
138.0916	31	C8H12NO+
139.0183	31	C10H3O+
144.0812	15	C10H10N+
147.0681	357	C9H9NO+
148.0395	82	C8H6NO2+
149.0239	17	C8H5O3+
162.0915	100	C10H12NO+
180.1017	67	C10H14NO2+
