Mass spectrum: LID_180.1018_12.9; LC-ESI-QFT; MS2; CE: 90; R=17500; [M+H]+
Name: LID_180.1018_12.9
Name: Acetamide, N-(2,6-dimethylphenyl)-2-hydroxy-
Name: N-(2,6-dimethylphenyl)-2-hydroxyacetamide
Formula: C10H13NO2
Exact mass: 179.0946
SMILES: CC1=CC=CC(C)=C1NC(=O)CO
InChI: InChI=1S/C10H13NO2/c1-7-4-3-5-8(2)10(7)11-9(13)6-12/h3-5,12H,6H2,1-2H3,(H,11,13)
Instrument: Q Exactive Plus Orbitrap Thermo Scientific
Instrument type: LC-ESI-QFT
Ms type: MS2
Ion mode: POSITIVE
Ionization: ESI
Fragmentation mode: HCD
Collision energy: 90 (nominal)
Resolution: 17500
Column name: Atlantis T3 3um, 3x150mm, Waters with guard column
Retention time: 12.7 min
Base peak: 65.0598
Precursor m/z: 180.1019
Precursor type: [M+H]+
m/z	relative intensity	assigned
53.0386	39	C4H5+
65.0387	130	C5H5+
67.0544	43	C5H7+
79.0543	471	C6H7+
91.0544	569	C7H7+
93.0699	39	C7H9+
95.0493	171	C6H7O+
97.0077	307	C8H+
105.0701	567	C8H9+
106.0654	160	C7H8N+
107.0732	999	C7H9N+
107.0851	246	C8H11+
109.065	28	C7H9O+
111.0235	124	C9H3+
115.0541	88	C9H7+
117.0576	48	C8H7N+
117.0702	37	C9H9+
118.065	226	C8H8N+
119.0605	47	C7H7N2+
119.0732	296	C8H9N+
119.0856	36	C9H11+
120.081	286	C8H10N+
122.0714	45	C6H8N3+
122.0965	275	C8H12N+
134.0964	291	C9H12N+
135.0802	179	C9H11O+
147.0683	100	C9H9NO+
