Mass spectrum: LID_265.1546_9.2; LC-ESI-QFT; MS2; CE: 90; R=17500; [M+H]+
Name: LID_265.1546_9.2
Name: 2-[[2-(diethylamino)acetyl]amino]-3-methylbenzoic acid
Formula: C14H20N2O3
Exact mass: 264.1474
SMILES: O=C(Nc1c(C)cccc1C(=O)O)CN(CC)CC
InChI: InChI=1S/C14H20N2O3/c1-4-16(5-2)9-12(17)15-13-10(3)7-6-8-11(13)14(18)19/h6-8H,4-5,9H2,1-3H3,(H,15,17)(H,18,19)
Instrument: Q Exactive Plus Orbitrap Thermo Scientific
Instrument type: LC-ESI-QFT
Ms type: MS2
Ion mode: POSITIVE
Ionization: ESI
Fragmentation mode: HCD
Collision energy: 90 (nominal)
Resolution: 17500
Column name: Atlantis T3 3um, 3x150mm, Waters with guard column
Retention time: 9.1 min
Base peak: 65.0598
Precursor m/z: 265.1547
Precursor type: [M+H]+
m/z	relative intensity	assigned
55.0178	32	C3H3O+
55.0542	11	C4H7+
58.0652	345	C3H8N+
59.0493	7	C3H7O+
67.0543	19	C5H7+
69.0698	5	C5H9+
72.0445	39	C3H6NO+
73.0283	5	C3H5O2+
79.0544	10	C6H7+
81.0699	10	C6H9+
86.0965	999	C5H12N+
91.0544	43	C7H7+
93.0701	9	C7H9+
95.0494	6	C6H7O+
105.0701	23	C8H9+
119.0855	8	C9H11+
