Mass spectrum: LID_180.1018_12.9; LC-ESI-QFT; MS2; CE: 15; R=17500; [M+H]+
Name: LID_180.1018_12.9
Name: Acetamide, N-(2,6-dimethylphenyl)-2-hydroxy-
Name: N-(2,6-dimethylphenyl)-2-hydroxyacetamide
Formula: C10H13NO2
Exact mass: 179.0946
SMILES: CC1=CC=CC(C)=C1NC(=O)CO
InChI: InChI=1S/C10H13NO2/c1-7-4-3-5-8(2)10(7)11-9(13)6-12/h3-5,12H,6H2,1-2H3,(H,11,13)
Instrument: Q Exactive Plus Orbitrap Thermo Scientific
Instrument type: LC-ESI-QFT
Ms type: MS2
Ion mode: POSITIVE
Ionization: ESI
Fragmentation mode: HCD
Collision energy: 15 (nominal)
Resolution: 17500
Column name: Atlantis T3 3um, 3x150mm, Waters with guard column
Retention time: 12.7 min
Base peak: 65.0598
Precursor m/z: 180.1019
Precursor type: [M+H]+
m/z	relative intensity	assigned
55.0542	5	C4H7+
59.0491	28	C3H7O+
73.0647	41	C4H9O+
87.0442	41	C4H7O2+
89.0598	13	C4H9O2+
101.0598	37	C5H9O2+
101.0962	8	C6H13O+
107.0704	40	C4H11O3+
117.0699	6	C9H9+
120.081	36	C8H10N+
121.0077	33	C10H+
122.0966	332	C8H12N+
125.0028	14	C9HO+
134.0967	129	C9H12N+
135.0805	189	C9H11O+
139.0184	70	C10H3O+
147.0683	11	C9H9NO+
148.0394	39	C8H6NO2+
149.0235	22	C8H5O3+
162.0915	263	C10H12NO+
163.0394	8	C9H7O3+
180.102	999	C10H14NO2+
