Mass spectrum: LID_251.1754_8.2; LC-ESI-QFT; MS2; CE: 90; R=17500; [M+H]+
Name: LID_251.1754_8.2
Formula: C14H22N2O2
Exact mass: 250.1681
Instrument: Q Exactive Plus Orbitrap Thermo Scientific
Instrument type: LC-ESI-QFT
Ms type: MS2
Ion mode: POSITIVE
Ionization: ESI
Fragmentation mode: HCD
Collision energy: 90 (nominal)
Resolution: 17500
Column name: Atlantis T3 3um, 3x150mm, Waters with guard column
Retention time: 8.1 min
Base peak: 65.0597
Precursor m/z: 251.1754
Precursor type: [M+H]+
m/z	relative intensity	assigned
53.0022	16	C3HO+
53.0386	35	C4H5+
55.0543	70	C4H7+
57.0699	33	C4H9+
58.0652	247	C3H8N+
59.0492	405	C3H7O+
67.0543	103	C5H7+
69.0698	28	C5H9+
79.0542	126	C6H7+
81.0699	81	C6H9+
86.0965	999	C5H12N+
87.0439	14	C4H7O2+
91.0542	94	C7H7+
93.07	63	C7H9+
95.0493	81	C6H7O+
95.0854	63	C7H11+
97.0077	70	C8H+
105.0448	26	C6H5N2+
105.0701	87	C8H9+
107.0854	31	C8H11+
109.0649	16	C7H9O+
109.1013	16	C8H13+
119.0604	61	C7H7N2+
120.0642	55	C2H8N4O2+
121.0288	19	C7H5O2+
