Mass spectrum: LID_251.1754_8.2; LC-ESI-QFT; MS2; CE: 60; R=17500; [M+H]+
Name: LID_251.1754_8.2
Formula: C14H22N2O2
Exact mass: 250.1681
Instrument: Q Exactive Plus Orbitrap Thermo Scientific
Instrument type: LC-ESI-QFT
Ms type: MS2
Ion mode: POSITIVE
Ionization: ESI
Fragmentation mode: HCD
Collision energy: 60 (nominal)
Resolution: 17500
Column name: Atlantis T3 3um, 3x150mm, Waters with guard column
Retention time: 8.1 min
Base peak: 65.0597
Precursor m/z: 251.1754
Precursor type: [M+H]+
m/z	relative intensity	assigned
53.0384	11	C4H5+
55.0542	37	C4H7+
57.0336	38	C3H5O+
57.0698	53	C4H9+
58.065	50	C3H8N+
59.0492	419	C3H7O+
67.0543	38	C5H7+
69.0698	37	C5H9+
73.0283	16	C3H5O2+
79.0542	37	C6H7+
81.0699	43	C6H9+
84.0809	18	C5H10N+
86.0965	999	C5H12N+
87.0439	10	C4H7O2+
91.0543	13	C7H7+
93.0701	16	C7H9+
95.0491	36	C6H7O+
95.0855	62	C7H11+
105.0699	43	C8H9+
107.0855	47	C8H11+
109.0651	10	C7H9O+
109.1012	42	C8H13+
119.0607	14	C7H7N2+
119.0852	14	C9H11+
120.0641	18	C2H8N4O2+
121.029	12	C7H5O2+
121.1013	34	C9H13+
133.1017	8	C10H13+
135.1171	9	C10H15+
149.133	10	C11H17+
150.0551	15	C8H8NO2+
152.0471	8	C8H8O3+
191.18	13	C14H23+
