Mass spectrum: LID_251.1754_8.2; LC-ESI-QFT; MS2; CE: 15; R=17500; [M+H]+
Name: LID_251.1754_8.2
Formula: C14H22N2O2
Exact mass: 250.1681
Instrument: Q Exactive Plus Orbitrap Thermo Scientific
Instrument type: LC-ESI-QFT
Ms type: MS2
Ion mode: POSITIVE
Ionization: ESI
Fragmentation mode: HCD
Collision energy: 15 (nominal)
Resolution: 17500
Column name: Atlantis T3 3um, 3x150mm, Waters with guard column
Retention time: 8.1 min
Base peak: 65.0597
Precursor m/z: 251.1754
Precursor type: [M+H]+
m/z	relative intensity	assigned
57.0335	57	C3H5O+
59.0492	889	C3H7O+
73.0285	26	C3H5O2+
86.0965	362	C5H12N+
87.0441	59	C4H7O2+
89.0598	23	C4H9O2+
101.0598	20	C5H9O2+
107.0852	13	C8H11+
109.1014	16	C8H13+
117.0911	508	C6H13O2+
119.0853	13	C9H11+
133.1013	16	C10H13+
137.0963	17	C9H13O+
150.0549	59	C8H8NO2+
191.1794	126	C14H23+
206.117	16	C12H16NO2+
233.1658	999	C14H21N2O+
251.1763	796	C14H23N2O2+
