Mass spectrum: LID_251.1754_11.0; LC-ESI-QFT; MS2; CE: 15-90; R=17500; [M+H]+
Name: LID_251.1754_11.0
Name: Lidocaine N-Oxide
Name: 2-(2,6-dimethylanilino)-N,N-diethyl-2-oxoethanamine oxide
Formula: C14H22N2O2
Exact mass: 250.1681
SMILES: CC[N+]([O-])(CC)CC(=O)NC1=C(C)C=CC=C1C
InChI: InChI=1S/C14H22N2O2/c1-5-16(18,6-2)10-13(17)15-14-11(3)8-7-9-12(14)4/h7-9H,5-6,10H2,1-4H3,(H,15,17)
Instrument: Q Exactive Orbitrap Thermo Scientific
Instrument type: LC-ESI-QFT
Ms type: MS2
Ion mode: POSITIVE
Ionization: ESI
Fragmentation mode: HCD
Collision energy: 15, 30, 45, 60, 70 or 90 (nominal)
Resolution: 17500
Column name: Atlantis T3 3um, 3x150mm, Waters with guard column
Retention time: 11.2 min
Base peak: 204.1389
Precursor m/z: 251.1754
Precursor type: [M+H]+
m/z	relative intensity	assigned
58.0656	225	
60.0449	215	
72.081	13	C4H10N+
74.0603	81	C3H8NO+
79.0545	50	C6H7+
84.081	11	C5H10N+
86.0966	999	C5H12N+
88.0759	111	C4H10NO+
90.0917	1	C4H12NO+
91.0544	34	C7H7+
93.0701	21	
95.0493	42	C6H7O+
103.0545	47	C8H7+
105.0448	11	
105.0701	110	C8H9+
106.0653	27	C7H8N+
107.0732	110	C7H9N+
107.0856	7	C8H11+
117.07	2	C9H9+
119.0732	10	C8H9N+
119.0858	1	C9H11+
120.081	547	C8H10N+
121.0651	2	C8H9O+
121.0889	11	C8H11N+
122.0966	61	C8H12N+
123.0806	6	C8H11O+
133.0525	12	
134.0966	18	C9H12N+
146.0966	2	C10H12N+
148.0761	26	C9H10NO+
