Mass spectrum: LID_235.1805_10.1; LC-ESI-QFT; MS2; CE: 15-90; R=17500; [M+H]+
Name: LID_235.1805_10.1
Name: Lidocaine
Name: 2-(diethylamino)-N-(2,6-dimethylphenyl)acetamide
Formula: C14H22N2O
Exact mass: 234.1732
SMILES: CCN(CC)CC(=O)NC1=C(C)C=CC=C1C
InChI: InChI=1S/C14H22N2O/c1-5-16(6-2)10-13(17)15-14-11(3)8-7-9-12(14)4/h7-9H,5-6,10H2,1-4H3,(H,15,17)
Instrument: Q Exactive Orbitrap Thermo Scientific
Instrument type: LC-ESI-QFT
Ms type: MS2
Ion mode: POSITIVE
Ionization: ESI
Fragmentation mode: HCD
Collision energy: 15, 30, 45, 60, 70 or 90 (nominal)
Resolution: 17500
Column name: Atlantis T3 3um, 3x150mm, Waters with guard column
Retention time: 10.4 min
Base peak: 235.1808
Precursor m/z: 235.1805
Precursor type: [M+H]+
m/z	relative intensity	assigned
58.0656	244	
86.0965	999	C5H12N+
134.0968	1	C9H12N+
