Mass spectrum: LID_251.1754_8.2; LC-ESI-QFT; MS2; CE: 75; R=17500; [M+H]+
Name: LID_251.1754_8.2
Formula: C14H22N2O2
Exact mass: 250.1681
Instrument: Q Exactive Plus Orbitrap Thermo Scientific
Instrument type: LC-ESI-QFT
Ms type: MS2
Ion mode: POSITIVE
Ionization: ESI
Fragmentation mode: HCD
Collision energy: 75 (nominal)
Resolution: 17500
Column name: Atlantis T3 3um, 3x150mm, Waters with guard column
Retention time: 8.1 min
Base peak: 65.0597
Precursor m/z: 251.1754
Precursor type: [M+H]+
m/z	relative intensity	assigned
53.0024	10	C3HO+
53.0386	16	C4H5+
55.0542	59	C4H7+
57.0336	10	C3H5O+
57.0699	13	C4H9+
58.0652	125	C3H8N+
59.0492	405	C3H7O+
67.0544	81	C5H7+
69.0699	25	C5H9+
73.0285	19	C3H5O2+
79.0542	55	C6H7+
81.0699	56	C6H9+
84.0807	13	C5H10N+
86.0965	999	C5H12N+
87.0441	17	C4H7O2+
91.0542	63	C7H7+
93.0702	48	C7H9+
95.0492	58	C6H7O+
95.0857	77	C7H11+
97.0077	17	C8H+
105.0449	21	C6H5N2+
105.0698	45	C8H9+
107.0854	19	C8H11+
109.1015	20	C8H13+
119.0606	23	C7H7N2+
119.0858	44	C9H11+
120.0642	43	C2H8N4O2+
121.0282	13	C7H5O2+
121.1015	42	C9H13+
135.1172	15	C10H15+
