Mass spectrum: LID_265.1546_9.2; LC-ESI-QFT; MS2; CE: 30; R=17500; [M+H]+
Name: LID_265.1546_9.2
Name: 2-[[2-(diethylamino)acetyl]amino]-3-methylbenzoic acid
Formula: C14H20N2O3
Exact mass: 264.1474
SMILES: O=C(Nc1c(C)cccc1C(=O)O)CN(CC)CC
InChI: InChI=1S/C14H20N2O3/c1-4-16(5-2)9-12(17)15-13-10(3)7-6-8-11(13)14(18)19/h6-8H,4-5,9H2,1-3H3,(H,15,17)(H,18,19)
Instrument: Q Exactive Plus Orbitrap Thermo Scientific
Instrument type: LC-ESI-QFT
Ms type: MS2
Ion mode: POSITIVE
Ionization: ESI
Fragmentation mode: HCD
Collision energy: 30 (nominal)
Resolution: 17500
Column name: Atlantis T3 3um, 3x150mm, Waters with guard column
Retention time: 9.1 min
Base peak: 65.0598
Precursor m/z: 265.1547
Precursor type: [M+H]+
m/z	relative intensity	assigned
57.0699	10	C4H9+
58.0652	14	C3H8N+
59.0492	6	C3H7O+
69.0699	2	C5H9+
72.0445	13	C3H6NO+
73.0285	7	C3H5O2+
81.07	2	C6H9+
86.0965	999	C5H12N+
87.0443	5	C4H7O2+
93.0701	2	C7H9+
95.0857	5	C7H11+
100.0758	57	C5H10NO+
101.0597	3	C5H9O2+
109.1012	1	C8H13+
115.0391	3	C5H7O3+
119.0855	2	C9H11+
121.1012	2	C9H13+
153.0407	2	C5H5N4O2+
165.091	2	C10H13O2+
193.0294	6	C13H5O2+
265.1553	21	C14H21N2O3+
