Mass spectrum: LID_233.1648_14.5; LC-ESI-QFT; MS2; CE: (160-0.41mz or 15) NCE; R=17500; [M+H]+
Name: LID_233.1648_14.5
Name: N-(2,6-dimethylphenyl)-2-[ethenyl(ethyl)amino]acetamide
Formula: C14H20N2O
Exact mass: 232.1576
SMILES: CCN(CC(=O)NC1=C(C)C=CC=C1C)C=C
InChI: InChI=1S/C14H20N2O/c1-5-16(6-2)10-13(17)15-14-11(3)8-7-9-12(14)4/h5,7-9H,1,6,10H2,2-4H3,(H,15,17)
Instrument: Q Exactive Orbitrap Thermo Scientific
Instrument type: LC-ESI-QFT
Ms type: MS2
Ion mode: POSITIVE
Ionization: ESI
Fragmentation mode: HCD
Collision energy: 160-0.41mz or 15 (mz>350) nominal units
Resolution: 17500
Column name: Atlantis T3 3um, 3x150mm, Waters with guard column
Retention time: 14.5 min
Base peak: 164.9845
Precursor m/z: 233.1648
Precursor type: [M+H]+
m/z	relative intensity	assigned
55.0543	56	C4H7+
58.0653	413	C3H8N+
59.0493	14	C3H7O+
67.0543	17	C5H7+
69.0698	12	C5H9+
73.0647	18	C4H9O+
79.0542	18	C6H7+
81.0698	13	C6H9+
83.0492	58	C5H7O+
84.0808	76	C5H10N+
91.0539	14	C7H7+
95.0857	10	C7H11+
97.0648	19	C6H9O+
101.0599	69	C5H9O2+
105.0698	105	C8H9+
107.0854	8	C8H11+
109.1014	10	C8H13+
111.0438	10	C6H7O2+
113.0594	13	C6H9O2+
118.065	19	C8H8N+
119.0855	34	C9H11+
123.0804	15	C8H11O+
131.0855	20	C10H11+
133.0887	61	C9H11N+
145.1015	11	C11H13+
148.1121	999	C10H14N+
161.0708	11	C9H9N2O+
207.1599	8	C11H19N4+
