Mass spectrum: LID_180.1018_12.9; LC-ESI-QFT; MS2; CE: 75; R=17500; [M+H]+
Name: LID_180.1018_12.9
Name: Acetamide, N-(2,6-dimethylphenyl)-2-hydroxy-
Name: N-(2,6-dimethylphenyl)-2-hydroxyacetamide
Formula: C10H13NO2
Exact mass: 179.0946
SMILES: CC1=CC=CC(C)=C1NC(=O)CO
InChI: InChI=1S/C10H13NO2/c1-7-4-3-5-8(2)10(7)11-9(13)6-12/h3-5,12H,6H2,1-2H3,(H,11,13)
Instrument: Q Exactive Plus Orbitrap Thermo Scientific
Instrument type: LC-ESI-QFT
Ms type: MS2
Ion mode: POSITIVE
Ionization: ESI
Fragmentation mode: HCD
Collision energy: 75 (nominal)
Resolution: 17500
Column name: Atlantis T3 3um, 3x150mm, Waters with guard column
Retention time: 12.7 min
Base peak: 65.0598
Precursor m/z: 180.1019
Precursor type: [M+H]+
m/z	relative intensity	assigned
53.0385	29	C4H5+
59.0492	39	C3H7O+
65.0386	43	C5H5+
67.0543	50	C5H7+
73.0647	57	C4H9O+
79.0543	358	C6H7+
81.0699	31	C6H9+
91.0543	478	C7H7+
93.0701	113	C7H9+
95.049	36	C6H7O+
97.0077	351	C8H+
105.0701	820	C8H9+
106.0651	128	C7H8N+
107.0732	999	C7H9N+
107.0855	663	C8H11+
109.0648	45	C7H9O+
111.0234	275	C9H3+
115.0541	29	C9H7+
117.0571	54	C8H7N+
117.0701	117	C9H9+
118.0651	123	C8H8N+
119.0603	45	C7H7N2+
119.0734	328	C8H9N+
119.0856	58	C9H11+
120.0811	418	C8H10N+
121.0887	62	C8H11N+
122.0716	45	C6H8N3+
122.0966	871	C8H12N+
123.0807	44	C8H11O+
125.0027	46	C9HO+
125.0389	44	C10H5+
132.0809	44	C9H10N+
134.0966	924	C9H12N+
135.0805	600	C9H11O+
147.0683	334	C9H9NO+
