Mass spectrum: LID_251.1754_11.0; LC-ESI-QFT; MS2; CE: 15-90; R=17500; [M+H]+
Name: LID_251.1754_11.0
Name: Lidocaine N-Oxide
Name: 2-(2,6-dimethylanilino)-N,N-diethyl-2-oxoethanamine oxide
Formula: C14H22N2O2
Exact mass: 250.1681
SMILES: CC[N+]([O-])(CC)CC(=O)NC1=C(C)C=CC=C1C
InChI: InChI=1S/C14H22N2O2/c1-5-16(18,6-2)10-13(17)15-14-11(3)8-7-9-12(14)4/h7-9H,5-6,10H2,1-4H3,(H,15,17)
Instrument: Q Exactive Orbitrap Thermo Scientific
Instrument type: LC-ESI-QFT
Ms type: MS2
Ion mode: POSITIVE
Ionization: ESI
Fragmentation mode: HCD
Collision energy: 15, 30, 45, 60, 70 or 90 (nominal)
Resolution: 17500
Column name: Atlantis T3 3um, 3x150mm, Waters with guard column
Retention time: 11.2 min
Base peak: 204.1389
Precursor m/z: 251.1754
Precursor type: [M+H]+
m/z	relative intensity	assigned
58.0656	23	
72.0811	31	C4H10N+
73.0889	2	C4H11N+
74.0602	19	C3H8NO+
74.0967	13	C4H12N+
84.0811	2	C5H10N+
86.0966	999	C5H12N+
88.0759	147	C4H10NO+
90.0913	2	C4H12NO+
105.0701	3	C8H9+
120.0809	26	C8H10N+
121.0888	1	C8H11N+
122.0966	10	C8H12N+
123.0805	3	C8H11O+
130.0865	258	C6H12NO2+
134.0968	1	C9H12N+
148.076	57	C9H10NO+
162.0914	1	C10H12NO+
163.0995	7	C10H13NO+
164.1074	57	C10H14NO+
178.0865	7	C10H12NO2+
223.1446	9	C12H19N2O2+
233.1652	10	C14H21N2O+
251.1759	594	C14H23N2O2+
