Mass spectrum: LID_251.1754_8.2; LC-ESI-QFT; MS2; CE: 30; R=17500; [M+H]+
Name: LID_251.1754_8.2
Formula: C14H22N2O2
Exact mass: 250.1681
Instrument: Q Exactive Plus Orbitrap Thermo Scientific
Instrument type: LC-ESI-QFT
Ms type: MS2
Ion mode: POSITIVE
Ionization: ESI
Fragmentation mode: HCD
Collision energy: 30 (nominal)
Resolution: 17500
Column name: Atlantis T3 3um, 3x150mm, Waters with guard column
Retention time: 8.1 min
Base peak: 65.0597
Precursor m/z: 251.1754
Precursor type: [M+H]+
m/z	relative intensity	assigned
57.0335	54	C3H5O+
57.07	15	C4H9+
58.0652	15	C3H8N+
59.0492	999	C3H7O+
69.0698	15	C5H9+
73.0285	50	C3H5O2+
81.0697	34	C6H9+
84.081	80	C5H10N+
86.0965	959	C5H12N+
87.0441	70	C4H7O2+
89.0597	22	C4H9O2+
95.0857	24	C7H11+
101.0599	15	C5H9O2+
109.0648	10	C7H9O+
109.1013	14	C8H13+
117.0911	168	C6H13O2+
119.0856	14	C9H11+
121.1016	40	C9H13+
123.081	11	C8H11O+
135.117	16	C10H15+
137.096	26	C9H13O+
145.1018	11	C11H13+
149.133	13	C11H17+
150.055	96	C8H8NO2+
151.0585	152	
152.0472	22	C8H8O3+
191.1796	146	C14H23+
206.118	23	C12H16NO2+
233.1657	631	C14H21N2O+
251.175	86	C14H23N2O2+
