Mass spectrum: LID_265.1546_9.2; LC-ESI-QFT; MS2; CE: 45; R=17500; [M+H]+
Name: LID_265.1546_9.2
Name: 2-[[2-(diethylamino)acetyl]amino]-3-methylbenzoic acid
Formula: C14H20N2O3
Exact mass: 264.1474
SMILES: O=C(Nc1c(C)cccc1C(=O)O)CN(CC)CC
InChI: InChI=1S/C14H20N2O3/c1-4-16(5-2)9-12(17)15-13-10(3)7-6-8-11(13)14(18)19/h6-8H,4-5,9H2,1-3H3,(H,15,17)(H,18,19)
Instrument: Q Exactive Plus Orbitrap Thermo Scientific
Instrument type: LC-ESI-QFT
Ms type: MS2
Ion mode: POSITIVE
Ionization: ESI
Fragmentation mode: HCD
Collision energy: 45 (nominal)
Resolution: 17500
Column name: Atlantis T3 3um, 3x150mm, Waters with guard column
Retention time: 9.1 min
Base peak: 65.0598
Precursor m/z: 265.1547
Precursor type: [M+H]+
m/z	relative intensity	assigned
55.018	1	C3H3O+
55.0545	1	C4H7+
57.0699	10	C4H9+
58.0652	30	C3H8N+
59.0491	10	C3H7O+
67.0543	1	C5H7+
69.07	3	C5H9+
72.0444	29	C3H6NO+
73.0286	3	C3H5O2+
81.0699	2	C6H9+
86.0965	999	C5H12N+
87.0442	7	C4H7O2+
93.0701	2	C7H9+
95.0495	3	C6H7O+
95.0858	2	C7H11+
100.0758	33	C5H10NO+
101.0599	3	C5H9O2+
107.0855	3	C8H11+
109.1014	2	C8H13+
115.0393	7	C5H7O3+
119.0857	2	C9H11+
159.1168	2	C12H15+
193.029	1	C13H5O2+
265.1538	1	C14H21N2O3+
