Mass spectrum: LID_251.1754_8.2; LC-ESI-QFT; MS2; CE: 45; R=17500; [M+H]+
Name: LID_251.1754_8.2
Formula: C14H22N2O2
Exact mass: 250.1681
Instrument: Q Exactive Plus Orbitrap Thermo Scientific
Instrument type: LC-ESI-QFT
Ms type: MS2
Ion mode: POSITIVE
Ionization: ESI
Fragmentation mode: HCD
Collision energy: 45 (nominal)
Resolution: 17500
Column name: Atlantis T3 3um, 3x150mm, Waters with guard column
Retention time: 8.1 min
Base peak: 65.0597
Precursor m/z: 251.1754
Precursor type: [M+H]+
m/z	relative intensity	assigned
55.0543	14	C4H7+
57.0335	33	C3H5O+
57.0698	33	C4H9+
58.0652	7	C3H8N+
59.0492	585	C3H7O+
67.0542	17	C5H7+
69.0701	14	C5H9+
73.0284	32	C3H5O2+
79.0544	8	C6H7+
81.07	34	C6H9+
84.0809	54	C5H10N+
86.0965	999	C5H12N+
87.0442	13	C4H7O2+
93.0698	10	C7H9+
95.0495	12	C6H7O+
95.0856	60	C7H11+
101.06	10	C5H9O2+
107.0859	17	C8H11+
109.0645	11	C7H9O+
109.1013	36	C8H13+
121.0288	11	C7H5O2+
121.1012	43	C9H13+
123.0802	15	C8H11O+
135.1171	11	C10H15+
145.101	11	C11H13+
149.133	8	C11H17+
150.0551	69	C8H8NO2+
152.047	14	C8H8O3+
191.1799	91	C14H23+
233.1655	44	C14H21N2O+
