Mass spectrum: LID_251.1754_11.0; LC-ESI-QFT; MS2; CE: 15-90; R=17500; [M+H]+
Name: LID_251.1754_11.0
Name: Lidocaine N-Oxide
Name: 2-(2,6-dimethylanilino)-N,N-diethyl-2-oxoethanamine oxide
Formula: C14H22N2O2
Exact mass: 250.1681
SMILES: CC[N+]([O-])(CC)CC(=O)NC1=C(C)C=CC=C1C
InChI: InChI=1S/C14H22N2O2/c1-5-16(18,6-2)10-13(17)15-14-11(3)8-7-9-12(14)4/h7-9H,5-6,10H2,1-4H3,(H,15,17)
Instrument: Q Exactive Orbitrap Thermo Scientific
Instrument type: LC-ESI-QFT
Ms type: MS2
Ion mode: POSITIVE
Ionization: ESI
Fragmentation mode: HCD
Collision energy: 15, 30, 45, 60, 70 or 90 (nominal)
Resolution: 17500
Column name: Atlantis T3 3um, 3x150mm, Waters with guard column
Retention time: 11.2 min
Base peak: 204.1389
Precursor m/z: 251.1754
Precursor type: [M+H]+
m/z	relative intensity	assigned
72.081	6	C4H10N+
74.0966	3	C4H12N+
86.0966	214	C5H12N+
88.0757	19	C4H10NO+
120.0805	3	C8H10N+
130.0865	147	C6H12NO2+
148.0758	9	C9H10NO+
164.1074	9	C10H14NO+
178.0867	1	C10H12NO2+
223.1442	3	C12H19N2O2+
251.1759	999	C14H23N2O2+
