Mass spectrum: LID_180.1018_12.9; LC-ESI-QFT; MS2; CE: 45; R=17500; [M+H]+
Name: LID_180.1018_12.9
Name: Acetamide, N-(2,6-dimethylphenyl)-2-hydroxy-
Name: N-(2,6-dimethylphenyl)-2-hydroxyacetamide
Formula: C10H13NO2
Exact mass: 179.0946
SMILES: CC1=CC=CC(C)=C1NC(=O)CO
InChI: InChI=1S/C10H13NO2/c1-7-4-3-5-8(2)10(7)11-9(13)6-12/h3-5,12H,6H2,1-2H3,(H,11,13)
Instrument: Q Exactive Plus Orbitrap Thermo Scientific
Instrument type: LC-ESI-QFT
Ms type: MS2
Ion mode: POSITIVE
Ionization: ESI
Fragmentation mode: HCD
Collision energy: 45 (nominal)
Resolution: 17500
Column name: Atlantis T3 3um, 3x150mm, Waters with guard column
Retention time: 12.7 min
Base peak: 65.0598
Precursor m/z: 180.1019
Precursor type: [M+H]+
m/z	relative intensity	assigned
57.0699	50	C4H9+
59.0492	73	C3H7O+
73.0649	60	C4H9O+
87.044	88	C4H7O2+
89.0599	53	C4H9O2+
91.0544	12	C7H7+
97.0077	21	C8H+
101.0599	16	C5H9O2+
105.07	24	C8H9+
107.0857	88	C8H11+
111.0233	126	C9H3+
117.0703	62	C9H9+
119.0858	82	C9H11+
120.081	193	C8H10N+
121.0649	25	C8H9O+
122.0715	53	C6H8N3+
122.0966	999	C8H12N+
132.0808	77	C9H10N+
134.0966	787	C9H12N+
135.0806	462	C9H11O+
138.055	21	C7H8NO2+
138.0909	18	C8H12NO+
139.0183	74	C10H3O+
144.0814	12	C10H10N+
147.0679	227	C9H9NO+
148.0394	85	C8H6NO2+
162.0915	329	C10H12NO+
163.0389	14	C9H7O3+
180.1024	370	C10H14NO2+
