Mass spectrum: LID_207.1492_9.6; LC-ESI-QFT; MS2; CE: 15-90; R=17500; [M+H]+
Name: LID_207.1492_9.6
Name: N-desethyllidocaine
Name: N-(2,6-dimethylphenyl)-2-(ethylamino)acetamide
Formula: C12H18N2O
Exact mass: 206.1419
SMILES: CCNCC(=O)NC1=C(C)C=CC=C1C
InChI: InChI=1S/C12H18N2O/c1-4-13-8-11(15)14-12-9(2)6-5-7-10(12)3/h5-7,13H,4,8H2,1-3H3,(H,14,15)
Instrument: Q Exactive Orbitrap Thermo Scientific
Instrument type: LC-ESI-QFT
Ms type: MS2
Ion mode: POSITIVE
Ionization: ESI
Fragmentation mode: HCD
Collision energy: 15, 30, 45, 60, 70 or 90 (nominal)
Resolution: 17500
Column name: Atlantis T3 3um, 3x150mm, Waters with guard column
Retention time: 9.8 min
Base peak: 207.149
Precursor m/z: 207.1492
Precursor type: [M+H]+
m/z	relative intensity	assigned
58.0654	999	C3H8N+
73.0649	3	C4H9O+
79.0543	1	C6H7+
103.0546	1	C8H7+
105.0697	23	C8H9+
106.0651	1	C7H8N+
107.0728	24	C7H9N+
117.0572	4	C8H7N+
122.0962	35	C8H12N+
123.0801	9	C8H11O+
132.0806	4	C9H10N+
134.0964	1	C9H12N+
150.0914	3	C9H12NO+
