Mass spectrum: LID_265.1546_9.2; LC-ESI-QFT; MS2; CE: 15; R=17500; [M+H]+
Name: LID_265.1546_9.2
Name: 2-[[2-(diethylamino)acetyl]amino]-3-methylbenzoic acid
Formula: C14H20N2O3
Exact mass: 264.1474
SMILES: O=C(Nc1c(C)cccc1C(=O)O)CN(CC)CC
InChI: InChI=1S/C14H20N2O3/c1-4-16(5-2)9-12(17)15-13-10(3)7-6-8-11(13)14(18)19/h6-8H,4-5,9H2,1-3H3,(H,15,17)(H,18,19)
Instrument: Q Exactive Plus Orbitrap Thermo Scientific
Instrument type: LC-ESI-QFT
Ms type: MS2
Ion mode: POSITIVE
Ionization: ESI
Fragmentation mode: HCD
Collision energy: 15 (nominal)
Resolution: 17500
Column name: Atlantis T3 3um, 3x150mm, Waters with guard column
Retention time: 9.1 min
Base peak: 65.0598
Precursor m/z: 265.1547
Precursor type: [M+H]+
m/z	relative intensity	assigned
59.0492	11	C3H7O+
72.0446	3	C3H6NO+
73.0287	3	C3H5O2+
86.0965	945	C5H12N+
87.0441	5	C4H7O2+
100.0758	113	C5H10NO+
101.0599	3	C5H9O2+
115.039	5	C5H7O3+
153.041	5	C5H5N4O2+
165.0912	5	C10H13O2+
265.1552	999	C14H21N2O3+
