Mass spectrum: MEX_278.1387_17.3; LC-ESI-QFT; MS2; CE: 45; R=17500; [M+H]+
Name: MEX_278.1387_17.3
Name: N-fumarylmexiletine
Formula: C15H19NO4
Exact mass: 277.1314
SMILES: CC(COc1c(C)cccc1C)NC(=O)\C=C\C(O)=O
InChI: InChI=1S/C15H19NO4/c1-10-5-4-6-11(2)15(10)20-9-12(3)16-13(17)7-8-14(18)19/h4-8,12H,9H2,1-3H3,(H,16,17)(H,18,19)/b8-7+
Instrument: Q Exactive Plus Orbitrap Thermo Scientific
Instrument type: LC-ESI-QFT
Ms type: MS2
Ion mode: POSITIVE
Ionization: ESI
Fragmentation mode: HCD
Collision energy: 45 (nominal)
Resolution: 17500
Column name: Atlantis T3 3um, 3.0x150mm, Waters with guard column
Retention time: 16.9 min
Base peak: 65.0597
Precursor m/z: 278.1387
Precursor type: [M+H]+
m/z	relative intensity	assigned
53.0022	28	C3HO+
57.0699	9	C4H9+
58.0652	587	C3H8N+
59.0492	5	C3H7O+
60.0807	18	C3H10N+
71.0127	8	C3H3O2+
99.0077	386	C4H3O3+
110.0599	4	C6H8NO+
121.0646	4	C8H9O+
149.0238	18	C8H5O3+
156.0655	999	C7H10NO3+
