Mass spectrum: MEX_178.1226_10.2; LC-ESI-QFT; MS2; CE: 45; R=17500; [M+H]+
Name: MEX_178.1226_10.2
Formula: C11H15NO
Exact mass: 177.1154
Instrument: Q Exactive Plus Orbitrap Thermo Scientific
Instrument type: LC-ESI-QFT
Ms type: MS2
Ion mode: POSITIVE
Ionization: ESI
Fragmentation mode: HCD
Collision energy: 45 (nominal)
Resolution: 17500
Column name: Atlantis T3 3um, 3x150mm, Waters with guard column
Retention time: 10.1 min
Base peak: 65.0597
Precursor m/z: 178.1226
Precursor type: [M+H]+
m/z	relative intensity	assigned
53.0024	2	C3HO+
56.0495	28	C3H6N+
57.0573	132	C3H7N+
58.0651	999	C3H8N+
59.0491	9	C3H7O+
91.054	3	C7H7+
96.0443	2	C5H6NO+
100.0755	9	C5H10NO+
105.0698	9	C8H9+
107.0491	1	C7H7O+
119.086	1	C9H11+
121.0647	70	C8H9O+
123.0804	2	C8H11O+
132.0808	2	C9H10N+
133.0648	2	C9H9O+
133.1011	35	C10H13+
143.0859	3	C11H11+
146.0723	12	C10H10O+
160.1121	7	C11H14N+
161.096	104	C11H13O+
163.099	7	C10H13NO+
178.1225	473	C11H16NO+
