Mass spectrum: MEX_280.1544_16.8; LC-ESI-QFT; MS2; CE: 60; R=17500; [M+H]+
Name: MEX_280.1544_16.8
Name: N-succinylmexiletine
Formula: C15H21NO4
Exact mass: 279.1471
SMILES: CC(COc1c(C)cccc1C)NC(=O)CCC(O)=O
InChI: InChI=1S/C15H21NO4/c1-10-5-4-6-11(2)15(10)20-9-12(3)16-13(17)7-8-14(18)19/h4-6,12H,7-9H2,1-3H3,(H,16,17)(H,18,19)
Instrument: Q Exactive Plus Orbitrap Thermo Scientific
Instrument type: LC-ESI-QFT
Ms type: MS2
Ion mode: POSITIVE
Ionization: ESI
Fragmentation mode: HCD
Collision energy: 60 (nominal)
Resolution: 17500
Column name: Atlantis T3 3um, 3x150mm, Waters with guard column
Retention time: 16.4 min
Base peak: 65.0597
Precursor m/z: 280.1543
Precursor type: [M+H]+
m/z	relative intensity	assigned
55.0179	171	C3H3O+
55.0541	17	C4H7+
56.0494	10	C3H6N+
57.0699	92	C4H9+
58.0652	999	C3H8N+
59.0492	160	C3H7O+
60.0808	12	C3H10N+
65.0384	11	C5H5+
67.0543	13	C5H7+
69.0699	101	C5H9+
72.0444	190	C3H6NO+
73.0285	90	C3H5O2+
79.054	41	C6H7+
82.0287	53	C4H4NO+
84.0443	67	C4H6NO+
84.081	25	C5H10N+
87.0442	10	C4H7O2+
91.0543	20	C7H7+
93.0698	20	C7H9+
95.049	17	C6H7O+
100.0393	255	C4H6NO2+
101.0233	105	C4H5O3+
101.0601	13	C5H9O2+
105.0699	248	C8H9+
107.0855	48	C8H11+
112.0392	44	C5H6NO2+
112.0758	326	C6H10NO+
121.0286	80	C7H5O2+
121.0395	17	C6H5N2O+
121.0648	204	C8H9O+
122.0321	75	C2H6N2O4+
123.0805	14	C8H11O+
135.0806	47	C9H11O+
140.0705	354	C7H10NO2+
149.0234	827	C8H5O3+
150.0268	819	C3H6N2O5+
158.0815	96	C7H12NO3+
181.0498	21	C9H9O4+
