Mass spectrum: MEX_178.1226_10.2; LC-ESI-QFT; MS2; CE: 30; R=17500; [M+H]+
Name: MEX_178.1226_10.2
Formula: C11H15NO
Exact mass: 177.1154
Instrument: Q Exactive Plus Orbitrap Thermo Scientific
Instrument type: LC-ESI-QFT
Ms type: MS2
Ion mode: POSITIVE
Ionization: ESI
Fragmentation mode: HCD
Collision energy: 30 (nominal)
Resolution: 17500
Column name: Atlantis T3 3um, 3x150mm, Waters with guard column
Retention time: 10.1 min
Base peak: 65.0597
Precursor m/z: 178.1226
Precursor type: [M+H]+
m/z	relative intensity	assigned
56.0495	10	C3H6N+
57.0573	38	C3H7N+
58.0651	300	C3H8N+
59.0491	4	C3H7O+
91.0542	1	C7H7+
100.0755	7	C5H10NO+
101.0596	1	C5H9O2+
102.055	1	C4H8NO2+
121.0647	14	C8H9O+
133.065	1	C9H9O+
133.101	2	C10H13+
160.1118	2	C11H14N+
161.0959	47	C11H13O+
178.1225	999	C11H16NO+
