Mass spectrum: MEX_280.1544_16.8; LC-ESI-QFT; MS2; CE: 15; R=17500; [M+H]+
Name: MEX_280.1544_16.8
Name: N-succinylmexiletine
Formula: C15H21NO4
Exact mass: 279.1471
SMILES: CC(COc1c(C)cccc1C)NC(=O)CCC(O)=O
InChI: InChI=1S/C15H21NO4/c1-10-5-4-6-11(2)15(10)20-9-12(3)16-13(17)7-8-14(18)19/h4-6,12H,7-9H2,1-3H3,(H,16,17)(H,18,19)
Instrument: Q Exactive Plus Orbitrap Thermo Scientific
Instrument type: LC-ESI-QFT
Ms type: MS2
Ion mode: POSITIVE
Ionization: ESI
Fragmentation mode: HCD
Collision energy: 15 (nominal)
Resolution: 17500
Column name: Atlantis T3 3um, 3x150mm, Waters with guard column
Retention time: 16.4 min
Base peak: 65.0597
Precursor m/z: 280.1543
Precursor type: [M+H]+
m/z	relative intensity	assigned
57.0699	33	C4H9+
58.0651	18	C3H8N+
59.0491	6	C3H7O+
60.0808	5	C3H10N+
87.0438	5	C4H7O2+
100.0393	6	C4H6NO2+
101.0596	29	C5H9O2+
140.0706	85	C7H10NO2+
149.0234	302	C8H5O3+
150.0268	292	C3H6N2O5+
158.0813	999	C7H12NO3+
163.1118	62	C11H15O+
180.1383	38	C11H18NO+
181.0496	6	C9H9O4+
262.144	223	C15H20NO3+
