Mass spectrum: MEX_236.1645_17.7; LC-ESI-QFT; MS2; CE: 60; R=17500; [M+H]+
Name: MEX_236.1645_17.7
Name: N-propionylmexiletine
Name: Mexiletine propionate
Formula: C14H21NO2
Exact mass: 235.1572
SMILES: CCC(=O)NC(C)COc1c(C)cccc1C
InChI: InChI=1S/C14H21NO2/c1-5-13(16)15-12(4)9-17-14-10(2)7-6-8-11(14)3/h6-8,12H,5,9H2,1-4H3,(H,15,16)
Instrument: Q Exactive Plus Orbitrap Thermo Scientific
Instrument type: LC-ESI-QFT
Ms type: MS2
Ion mode: POSITIVE
Ionization: ESI
Fragmentation mode: HCD
Collision energy: 60 (nominal)
Resolution: 17500
Column name: Atlantis T3 3um, 3x150mm, Waters with guard column
Retention time: 17.3 min
Base peak: 65.0597
Precursor m/z: 236.1645
Precursor type: [M+H]+
m/z	relative intensity	assigned
53.0023	2	C3HO+
56.0495	4	C3H6N+
57.0335	150	C3H5O+
57.07	17	C4H9+
58.0652	999	C3H8N+
59.0491	3	C3H7O+
67.0541	1	C5H7+
79.0542	2	C6H7+
93.0697	2	C7H9+
105.0698	23	C8H9+
114.0914	699	C6H12NO+
121.0648	14	C8H9O+
135.0806	2	C9H11O+
