Mass spectrum: MEX_280.1544_16.8; LC-ESI-QFT; MS2; CE: 30; R=17500; [M+H]+
Name: MEX_280.1544_16.8
Name: N-succinylmexiletine
Formula: C15H21NO4
Exact mass: 279.1471
SMILES: CC(COc1c(C)cccc1C)NC(=O)CCC(O)=O
InChI: InChI=1S/C15H21NO4/c1-10-5-4-6-11(2)15(10)20-9-12(3)16-13(17)7-8-14(18)19/h4-6,12H,7-9H2,1-3H3,(H,16,17)(H,18,19)
Instrument: Q Exactive Plus Orbitrap Thermo Scientific
Instrument type: LC-ESI-QFT
Ms type: MS2
Ion mode: POSITIVE
Ionization: ESI
Fragmentation mode: HCD
Collision energy: 30 (nominal)
Resolution: 17500
Column name: Atlantis T3 3um, 3x150mm, Waters with guard column
Retention time: 16.4 min
Base peak: 65.0597
Precursor m/z: 280.1543
Precursor type: [M+H]+
m/z	relative intensity	assigned
57.07	59	C4H9+
58.0652	107	C3H8N+
59.0492	40	C3H7O+
60.0806	7	C3H10N+
69.0697	6	C5H9+
72.0443	7	C3H6NO+
87.044	6	C4H7O2+
100.0393	111	C4H6NO2+
101.0233	29	C4H5O3+
101.0597	41	C5H9O2+
112.0757	59	C6H10NO+
115.0392	4	C5H7O3+
121.0646	30	C8H9O+
135.0808	5	C9H11O+
140.0706	578	C7H10NO2+
149.0234	428	C8H5O3+
150.0268	428	C3H6N2O5+
158.0813	999	C7H12NO3+
163.1118	225	C11H15O+
180.1384	47	C11H18NO+
262.1438	76	C15H20NO3+
