Mass spectrum: MEX_208.1332_16.9; LC-ESI-QFT; MS2; CE: 60; R=17500; [M+H]+
Name: MEX_208.1332_16.9
Name: N-formylmexiletine
Name: N-[1-(2,6-dimethylphenoxy)propan-2-yl]formamide
Formula: C12H17NO2
Exact mass: 207.1259
SMILES: CC(COc1c(C)cccc1C)NC=O
InChI: InChI=1S/C12H17NO2/c1-9-5-4-6-10(2)12(9)15-7-11(3)13-8-14/h4-6,8,11H,7H2,1-3H3,(H,13,14)
Instrument: Q Exactive Plus Orbitrap Thermo Scientific
Instrument type: LC-ESI-QFT
Ms type: MS2
Ion mode: POSITIVE
Ionization: ESI
Fragmentation mode: HCD
Collision energy: 60 (nominal)
Resolution: 17500
Column name: Atlantis T3 3um, 3.0x150mm, Waters with guard column
Retention time: 16.5 min
Base peak: 65.0597
Precursor m/z: 208.1332
Precursor type: [M+H]+
m/z	relative intensity	assigned
53.0021	8	C3HO+
58.0651	951	C3H8N+
59.0491	42	C3H7O+
73.0647	30	C4H9O+
79.0544	6	C6H7+
86.06	999	C4H8NO+
91.0543	6	C7H7+
105.0698	78	C8H9+
107.0493	12	C7H7O+
121.0647	40	C8H9O+
123.0803	8	C8H11O+
149.0592	12	C9H9O2+
163.1117	6	C11H15O+
