Mass spectrum: MEX_178.1226_10.2; LC-ESI-QFT; MS2; CE: 60; R=17500; [M+H]+
Name: MEX_178.1226_10.2
Formula: C11H15NO
Exact mass: 177.1154
Instrument: Q Exactive Plus Orbitrap Thermo Scientific
Instrument type: LC-ESI-QFT
Ms type: MS2
Ion mode: POSITIVE
Ionization: ESI
Fragmentation mode: HCD
Collision energy: 60 (nominal)
Resolution: 17500
Column name: Atlantis T3 3um, 3x150mm, Waters with guard column
Retention time: 10.1 min
Base peak: 65.0597
Precursor m/z: 178.1226
Precursor type: [M+H]+
m/z	relative intensity	assigned
53.0022	8	C3HO+
53.0385	1	C4H5+
53.9975	3	C2NO+
56.0495	23	C3H6N+
57.0573	140	C3H7N+
58.0651	999	C3H8N+
59.0492	4	C3H7O+
91.0544	15	C7H7+
93.0702	3	C7H9+
94.065	2	C6H8N+
96.044	2	C5H6NO+
97.0074	2	C8H+
100.0756	14	C5H10NO+
105.0697	20	C8H9+
107.0496	2	C7H7O+
121.0647	66	C8H9O+
123.0807	2	C8H11O+
128.0625	2	C10H8+
132.0804	2	C9H10N+
133.0654	2	C9H9O+
133.1012	30	C10H13+
143.0857	7	C11H11+
146.0728	23	C10H10O+
160.1123	2	C11H14N+
161.0959	38	C11H13O+
178.1222	62	C11H16NO+
