Mass spectrum: MEX_180.1383_11.9; LC-ESI-QFT; MS2; CE: 15-90; R=17500; [M+H]+
Name: MEX_180.1383_11.9
Name: Mexiletine
Name: 1-(2,6-dimethylphenoxy)propan-2-amine
Formula: C11H17NO
Exact mass: 179.1310
SMILES: CC(N)COc1c(C)cccc1C
InChI: InChI=1S/C11H17NO/c1-8-5-4-6-9(2)11(8)13-7-10(3)12/h4-6,10H,7,12H2,1-3H3
Instrument: Q Exactive Orbitrap Thermo Scientific
Instrument type: LC-ESI-QFT
Ms type: MS2
Ion mode: POSITIVE
Ionization: ESI
Fragmentation mode: HCD
Collision energy: 15, 30, 45, 60, 70 or 90 (nominal)
Resolution: 17500
Column name: Atlantis T3 3um, 3x150mm, Waters with guard column
Retention time: 12.3 min
Base peak: 180.1382
Precursor m/z: 180.1383
Precursor type: [M+H]+
m/z	relative intensity	assigned
58.0655	999	
77.0386	17	C6H5+
79.0543	243	C6H7+
91.0542	73	C7H7+
93.0698	34	C7H9+
95.0491	171	C6H7O+
103.0542	149	C8H7+
105.0451	36	
105.0698	486	C8H9+
107.0854	17	C8H11+
109.0648	5	C7H9O+
117.07	2	C9H9+
119.0858	2	C9H11+
121.0647	155	C8H9O+
122.0727	2	C8H10O+
123.0802	17	C8H11O+
130.0772	1	C10H10+
133.0756	2	C8H9N2+
135.0803	25	C9H11O+
