Mass spectrum: MEX_208.1332_16.9; LC-ESI-QFT; MS2; CE: 90; R=17500; [M+H]+
Name: MEX_208.1332_16.9
Name: N-formylmexiletine
Name: N-[1-(2,6-dimethylphenoxy)propan-2-yl]formamide
Formula: C12H17NO2
Exact mass: 207.1259
SMILES: CC(COc1c(C)cccc1C)NC=O
InChI: InChI=1S/C12H17NO2/c1-9-5-4-6-10(2)12(9)15-7-11(3)13-8-14/h4-6,8,11H,7H2,1-3H3,(H,13,14)
Instrument: Q Exactive Plus Orbitrap Thermo Scientific
Instrument type: LC-ESI-QFT
Ms type: MS2
Ion mode: POSITIVE
Ionization: ESI
Fragmentation mode: HCD
Collision energy: 90 (nominal)
Resolution: 17500
Column name: Atlantis T3 3um, 3x150mm, Waters with guard column
Retention time: 16.5 min
Base peak: 65.0597
Precursor m/z: 208.1332
Precursor type: [M+H]+
m/z	relative intensity	assigned
53.0022	40	C3HO+
58.0651	999	C3H8N+
59.0491	54	C3H7O+
71.0603	45	C3H7N2+
73.0648	10	C4H9O+
79.0542	80	C6H7+
86.06	308	C4H8NO+
91.0542	39	C7H7+
95.049	48	C6H7O+
103.0543	42	C8H7+
105.0699	85	C8H9+
107.0491	19	C7H7O+
121.0647	14	C8H9O+
