Mass spectrum: MEX_236.1645_17.7; LC-ESI-QFT; MS2; CE: 75; R=17500; [M+H]+
Name: MEX_236.1645_17.7
Name: N-propionylmexiletine
Name: Mexiletine propionate
Formula: C14H21NO2
Exact mass: 235.1572
SMILES: CCC(=O)NC(C)COc1c(C)cccc1C
InChI: InChI=1S/C14H21NO2/c1-5-13(16)15-12(4)9-17-14-10(2)7-6-8-11(14)3/h6-8,12H,5,9H2,1-4H3,(H,15,16)
Instrument: Q Exactive Plus Orbitrap Thermo Scientific
Instrument type: LC-ESI-QFT
Ms type: MS2
Ion mode: POSITIVE
Ionization: ESI
Fragmentation mode: HCD
Collision energy: 75 (nominal)
Resolution: 17500
Column name: Atlantis T3 3um, 3x150mm, Waters with guard column
Retention time: 17.3 min
Base peak: 65.0597
Precursor m/z: 236.1645
Precursor type: [M+H]+
m/z	relative intensity	assigned
55.0543	2	C4H7+
56.0495	9	C3H6N+
57.0335	191	C3H5O+
57.0699	11	C4H9+
58.0652	999	C3H8N+
59.0491	2	C3H7O+
67.0544	2	C5H7+
74.0597	6	C3H8NO+
79.0544	11	C6H7+
91.0544	4	C7H7+
93.07	3	C7H9+
95.0491	3	C6H7O+
103.054	3	C8H7+
105.0699	43	C8H9+
114.0914	261	C6H12NO+
121.0648	22	C8H9O+
135.0808	4	C9H11O+
