Mass spectrum: MEX_280.1544_16.8; LC-ESI-QFT; MS2; CE: 90; R=17500; [M+H]+
Name: MEX_280.1544_16.8
Name: N-succinylmexiletine
Formula: C15H21NO4
Exact mass: 279.1471
SMILES: CC(COc1c(C)cccc1C)NC(=O)CCC(O)=O
InChI: InChI=1S/C15H21NO4/c1-10-5-4-6-11(2)15(10)20-9-12(3)16-13(17)7-8-14(18)19/h4-6,12H,7-9H2,1-3H3,(H,16,17)(H,18,19)
Instrument: Q Exactive Plus Orbitrap Thermo Scientific
Instrument type: LC-ESI-QFT
Ms type: MS2
Ion mode: POSITIVE
Ionization: ESI
Fragmentation mode: HCD
Collision energy: 90 (nominal)
Resolution: 17500
Column name: Atlantis T3 3um, 3x150mm, Waters with guard column
Retention time: 16.4 min
Base peak: 65.0597
Precursor m/z: 280.1543
Precursor type: [M+H]+
m/z	relative intensity	assigned
55.0179	318	C3H3O+
55.0543	18	C4H7+
56.0495	22	C3H6N+
57.0699	52	C4H9+
58.0652	999	C3H8N+
59.0491	76	C3H7O+
60.0807	23	C3H10N+
65.0386	388	C5H5+
67.0541	11	C5H7+
69.0699	19	C5H9+
70.0652	14	C4H8N+
72.0443	132	C3H6NO+
73.0284	147	C3H5O2+
79.0541	119	C6H7+
82.0286	39	C4H4NO+
84.0444	28	C4H6NO+
84.0811	13	C5H10N+
91.0543	105	C7H7+
93.0335	58	C6H5O+
94.0369	22	CH6N2O3+
95.0494	92	C6H7O+
100.0394	46	C4H6NO2+
103.0542	73	C8H7+
105.0447	42	C6H5N2+
105.0699	187	C8H9+
111.0441	66	C6H7O2+
112.0475	24	CH8N2O4+
112.0761	43	C6H10NO+
121.0285	255	C7H5O2+
121.0397	149	C6H5N2O+
121.0649	57	C8H9O+
122.0319	211	C2H6N2O4+
149.0234	186	C8H5O3+
150.0268	252	C3H6N2O5+
