Mass spectrum: MEX_178.1226_10.2; LC-ESI-QFT; MS2; CE: 90; R=17500; [M+H]+
Name: MEX_178.1226_10.2
Formula: C11H15NO
Exact mass: 177.1154
Instrument: Q Exactive Plus Orbitrap Thermo Scientific
Instrument type: LC-ESI-QFT
Ms type: MS2
Ion mode: POSITIVE
Ionization: ESI
Fragmentation mode: HCD
Collision energy: 90 (nominal)
Resolution: 17500
Column name: Atlantis T3 3um, 3x150mm, Waters with guard column
Retention time: 10.1 min
Base peak: 65.0597
Precursor m/z: 178.1226
Precursor type: [M+H]+
m/z	relative intensity	assigned
53.0022	20	C3HO+
53.0386	20	C4H5+
53.9974	3	C2NO+
56.0493	25	C3H6N+
57.0573	129	C3H7N+
58.0652	999	C3H8N+
59.049	3	C3H7O+
65.0386	14	C5H5+
72.0441	3	C3H6NO+
79.0543	15	C6H7+
91.0542	70	C7H7+
93.0701	16	C7H9+
95.0491	28	C6H7O+
97.0075	6	C8H+
100.0758	14	C5H10NO+
105.0699	29	C8H9+
121.0647	36	C8H9O+
128.0623	7	C10H8+
146.0731	15	C10H10O+
