Mass spectrum: MEX_222.1488_17.1; LC-ESI-QFT; MS2; CE: 45; R=17500; [M+H]+
Name: MEX_222.1488_17.1
Name: Mexiletine acetate
Name: N-[1-(2,6-dimethylphenoxy)propan-2-yl]acetamide
Formula: C13H19NO2
Exact mass: 221.1416
SMILES: CC(COc1c(C)cccc1C)NC(C)=O
InChI: InChI=1S/C13H19NO2/c1-9-6-5-7-10(2)13(9)16-8-11(3)14-12(4)15/h5-7,11H,8H2,1-4H3,(H,14,15)
Instrument: Q Exactive Plus Orbitrap Thermo Scientific
Instrument type: LC-ESI-QFT
Ms type: MS2
Ion mode: POSITIVE
Ionization: ESI
Fragmentation mode: HCD
Collision energy: 45 (nominal)
Resolution: 17500
Column name: Atlantis T3 3um, 3x150mm, Waters with guard column
Retention time: 16.7 min
Base peak: 65.0597
Precursor m/z: 222.1489
Precursor type: [M+H]+
m/z	relative intensity	assigned
58.0651	517	C3H8N+
60.0444	1	C2H6NO+
100.0756	999	C5H10NO+
105.0699	2	C8H9+
121.0648	5	C8H9O+
123.0801	1	C8H11O+
135.0802	1	C9H11O+
163.1115	3	C11H15O+
180.1381	3	C11H18NO+
