Mass spectrum: MEX_280.1544_16.8; LC-ESI-QFT; MS2; CE: 75; R=17500; [M+H]+
Name: MEX_280.1544_16.8
Name: N-succinylmexiletine
Formula: C15H21NO4
Exact mass: 279.1471
SMILES: CC(COc1c(C)cccc1C)NC(=O)CCC(O)=O
InChI: InChI=1S/C15H21NO4/c1-10-5-4-6-11(2)15(10)20-9-12(3)16-13(17)7-8-14(18)19/h4-6,12H,7-9H2,1-3H3,(H,16,17)(H,18,19)
Instrument: Q Exactive Plus Orbitrap Thermo Scientific
Instrument type: LC-ESI-QFT
Ms type: MS2
Ion mode: POSITIVE
Ionization: ESI
Fragmentation mode: HCD
Collision energy: 75 (nominal)
Resolution: 17500
Column name: Atlantis T3 3um, 3x150mm, Waters with guard column
Retention time: 16.4 min
Base peak: 65.0597
Precursor m/z: 280.1543
Precursor type: [M+H]+
m/z	relative intensity	assigned
55.0179	278	C3H3O+
56.0495	11	C3H6N+
57.0699	73	C4H9+
58.0652	999	C3H8N+
59.0491	117	C3H7O+
65.0386	146	C5H5+
67.0543	11	C5H7+
69.0699	98	C5H9+
70.0652	12	C4H8N+
72.0444	196	C3H6NO+
73.0285	147	C3H5O2+
79.0542	86	C6H7+
82.0288	49	C4H4NO+
84.0444	22	C4H6NO+
84.0806	15	C5H10N+
91.0543	69	C7H7+
93.0335	20	C6H5O+
93.0702	12	C7H9+
94.0369	16	CH6N2O3+
95.0493	13	C6H7O+
100.0394	90	C4H6NO2+
101.0236	57	C4H5O3+
103.0543	25	C8H7+
105.0444	12	C6H5N2+
105.07	234	C8H9+
107.0854	14	C8H11+
111.0446	19	C6H7O2+
112.0397	18	C5H6NO2+
112.0476	20	CH8N2O4+
112.0757	131	C6H10NO+
121.0286	258	C7H5O2+
121.0398	85	C6H5N2O+
121.0647	153	C8H9O+
122.032	151	C2H6N2O4+
123.0804	12	C8H11O+
140.0704	82	C7H10NO2+
149.0234	533	C8H5O3+
150.0267	475	C3H6N2O5+
181.0496	13	C9H9O4+
