Mass spectrum: MEX_178.1226_10.2; LC-ESI-QFT; MS2; CE: 75; R=17500; [M+H]+
Name: MEX_178.1226_10.2
Formula: C11H15NO
Exact mass: 177.1154
Instrument: Q Exactive Plus Orbitrap Thermo Scientific
Instrument type: LC-ESI-QFT
Ms type: MS2
Ion mode: POSITIVE
Ionization: ESI
Fragmentation mode: HCD
Collision energy: 75 (nominal)
Resolution: 17500
Column name: Atlantis T3 3um, 3x150mm, Waters with guard column
Retention time: 10.1 min
Base peak: 65.0597
Precursor m/z: 178.1226
Precursor type: [M+H]+
m/z	relative intensity	assigned
53.0021	10	C3HO+
53.0386	4	C4H5+
56.0495	26	C3H6N+
57.0573	147	C3H7N+
58.0651	999	C3H8N+
59.0493	3	C3H7O+
65.0384	2	C5H5+
72.0441	3	C3H6NO+
79.0543	3	C6H7+
91.0542	41	C7H7+
93.0699	19	C7H9+
94.0654	3	C6H8N+
95.0491	5	C6H7O+
100.0758	12	C5H10NO+
105.0698	28	C8H9+
121.0647	61	C8H9O+
128.0622	4	C10H8+
133.1013	17	C10H13+
143.086	3	C11H11+
146.0725	30	C10H10O+
161.0966	11	C11H13O+
163.0999	11	C10H13NO+
178.1224	4	C11H16NO+
