Mass spectrum: MEX_280.1544_16.8; LC-ESI-QFT; MS2; CE: 45; R=17500; [M+H]+
Name: MEX_280.1544_16.8
Name: N-succinylmexiletine
Formula: C15H21NO4
Exact mass: 279.1471
SMILES: CC(COc1c(C)cccc1C)NC(=O)CCC(O)=O
InChI: InChI=1S/C15H21NO4/c1-10-5-4-6-11(2)15(10)20-9-12(3)16-13(17)7-8-14(18)19/h4-6,12H,7-9H2,1-3H3,(H,16,17)(H,18,19)
Instrument: Q Exactive Plus Orbitrap Thermo Scientific
Instrument type: LC-ESI-QFT
Ms type: MS2
Ion mode: POSITIVE
Ionization: ESI
Fragmentation mode: HCD
Collision energy: 45 (nominal)
Resolution: 17500
Column name: Atlantis T3 3um, 3x150mm, Waters with guard column
Retention time: 16.4 min
Base peak: 65.0597
Precursor m/z: 280.1543
Precursor type: [M+H]+
m/z	relative intensity	assigned
55.0178	20	C3H3O+
57.0699	103	C4H9+
58.0652	546	C3H8N+
59.0492	153	C3H7O+
60.0809	13	C3H10N+
69.07	62	C5H9+
72.0444	114	C3H6NO+
73.0283	41	C3H5O2+
82.0288	21	C4H4NO+
84.0445	21	C4H6NO+
87.0443	9	C4H7O2+
100.0394	341	C4H6NO2+
101.0236	100	C4H5O3+
101.0597	46	C5H9O2+
105.07	54	C8H9+
107.0858	13	C8H11+
112.0394	80	C5H6NO2+
112.0757	349	C6H10NO+
115.0393	9	C5H7O3+
121.0649	176	C8H9O+
123.0806	33	C8H11O+
135.0801	69	C9H11O+
140.0706	999	C7H10NO2+
149.0234	828	C8H5O3+
150.0268	800	C3H6N2O5+
158.0813	538	C7H12NO3+
163.1117	126	C11H15O+
181.0503	11	C9H9O4+
