Mass spectrum: MEX_180.1383_11.9; LC-ESI-QFT; MS2; CE: 15-90; R=17500; [M+H]+
Name: MEX_180.1383_11.9
Name: Mexiletine
Name: 1-(2,6-dimethylphenoxy)propan-2-amine
Formula: C11H17NO
Exact mass: 179.1310
SMILES: CC(N)COc1c(C)cccc1C
InChI: InChI=1S/C11H17NO/c1-8-5-4-6-9(2)11(8)13-7-10(3)12/h4-6,10H,7,12H2,1-3H3
Instrument: Q Exactive Orbitrap Thermo Scientific
Instrument type: LC-ESI-QFT
Ms type: MS2
Ion mode: POSITIVE
Ionization: ESI
Fragmentation mode: HCD
Collision energy: 15, 30, 45, 60, 70 or 90 (nominal)
Resolution: 17500
Column name: Atlantis T3 3um, 3x150mm, Waters with guard column
Retention time: 12.3 min
Base peak: 180.1382
Precursor m/z: 180.1383
Precursor type: [M+H]+
m/z	relative intensity	assigned
58.0654	999	
79.0543	9	C6H7+
91.0542	4	C7H7+
93.0698	3	C7H9+
95.049	5	C6H7O+
103.0541	6	C8H7+
105.0698	171	C8H9+
107.0854	17	C8H11+
121.0647	133	C8H9O+
122.0725	3	C8H10O+
123.0803	44	C8H11O+
133.0758	10	C8H9N2+
135.0804	38	C9H11O+
135.1164	3	C10H15+
145.1012	1	C11H13+
163.1116	35	C11H15O+
180.1383	9	C11H18NO+
