Mass spectrum: MEX_178.1226_10.2; LC-ESI-QFT; MS2; CE: 15; R=17500; [M+H]+
Name: MEX_178.1226_10.2
Formula: C11H15NO
Exact mass: 177.1154
Instrument: Q Exactive Plus Orbitrap Thermo Scientific
Instrument type: LC-ESI-QFT
Ms type: MS2
Ion mode: POSITIVE
Ionization: ESI
Fragmentation mode: HCD
Collision energy: 15 (nominal)
Resolution: 17500
Column name: Atlantis T3 3um, 3x150mm, Waters with guard column
Retention time: 10.1 min
Base peak: 65.0597
Precursor m/z: 178.1226
Precursor type: [M+H]+
m/z	relative intensity	assigned
56.0495	8	C3H6N+
57.0573	30	C3H7N+
58.0651	232	C3H8N+
59.0492	3	C3H7O+
100.0755	5	C5H10NO+
101.0597	2	C5H9O2+
102.0552	1	C4H8NO2+
119.0854	1	C9H11+
121.0647	11	C8H9O+
133.1009	2	C10H13+
151.0178	1	C11H3O+
160.1115	1	C11H14N+
161.0959	40	C11H13O+
178.1225	999	C11H16NO+
