Mass spectrum: MEX_236.1645_17.7; LC-ESI-QFT; MS2; CE: 15; R=17500; [M+H]+
Name: MEX_236.1645_17.7
Name: N-propionylmexiletine
Name: Mexiletine propionate
Formula: C14H21NO2
Exact mass: 235.1572
SMILES: CCC(=O)NC(C)COc1c(C)cccc1C
InChI: InChI=1S/C14H21NO2/c1-5-13(16)15-12(4)9-17-14-10(2)7-6-8-11(14)3/h6-8,12H,5,9H2,1-4H3,(H,15,16)
Instrument: Q Exactive Plus Orbitrap Thermo Scientific
Instrument type: LC-ESI-QFT
Ms type: MS2
Ion mode: POSITIVE
Ionization: ESI
Fragmentation mode: HCD
Collision energy: 15 (nominal)
Resolution: 17500
Column name: Atlantis T3 3um, 3x150mm, Waters with guard column
Retention time: 17.3 min
Base peak: 65.0597
Precursor m/z: 236.1645
Precursor type: [M+H]+
m/z	relative intensity	assigned
57.0338	4	C3H5O+
58.0651	36	C3H8N+
101.0598	3	C5H9O2+
114.0914	999	C6H12NO+
163.111	5	C11H15O+
180.1383	45	C11H18NO+
