Mass spectrum: NFL_296.1257_14.5; LC-ESI-QFT; MS2; CE: 15-90; R=17500; [M+H]+
Name: NFL_296.1257_14.5
Name: N-demethylfluoxetine (Norfluoxetine)
Name: (3S)-3-phenyl-3-[4-(trifluoromethyl)phenoxy]propan-1-amine
Formula: C16H16F3NO
Exact mass: 295.1184
SMILES: NCC[C@H](Oc1ccc(cc1)C(F)(F)F)c1ccccc1
InChI: InChI=1S/C16H16F3NO/c17-16(18,19)13-6-8-14(9-7-13)21-15(10-11-20)12-4-2-1-3-5-12/h1-9,15H,10-11,20H2/t15-/m0/s1
Instrument: Q Exactive Orbitrap Thermo Scientific
Instrument type: LC-ESI-QFT
Ms type: MS2
Ion mode: POSITIVE
Ionization: ESI
Fragmentation mode: HCD
Collision energy: 15, 30, 45, 60, 70 or 90 (nominal)
Resolution: 17500
Column name: Atlantis T3 3um, 3.0x150mm, Waters with guard column
Retention time: 14.8 min
Base peak: 310.1409
Precursor m/z: 296.1257
Precursor type: [M+H]+
m/z	relative intensity	assigned
87.0441	999	C4H7O2+
101.0596	558	FH8N3O2+
105.0698	561	C8H9+
