Mass spectrum: NPE_327.1704_12.2; LC-ESI-QFT; MS2; CE: 75; R=17500; [M+H]+
Name: NPE_327.1704_12.2
Name: N-succinylnorpheniramine
Formula: C19H22N2O3
Exact mass: 326.1630
SMILES: CN(CCC(C1=CC=CC=C1)C1=NC=CC=C1)C(=O)CCC(O)=O
InChI: InChI=1S/C19H22N2O3/c1-21(18(22)10-11-19(23)24)14-12-16(15-7-3-2-4-8-15)17-9-5-6-13-20-17/h2-9,13,16H,10-12,14H2,1H3,(H,23,24)
Instrument: Q Exactive Plus Orbitrap Thermo Scientific
Instrument type: LC-ESI-QFT
Ms type: MS2
Ion mode: POSITIVE
Ionization: ESI
Fragmentation mode: HCD
Collision energy: 75 (nominal)
Resolution: 17500
Column name: Atlantis T3 3um, 3x150mm, Waters with guard column
Retention time: 11.9 min
Base peak: 65.0597
Precursor m/z: 327.1703
Precursor type: [M+H]+
m/z	relative intensity	assigned
55.0178	10	C3H3O+
65.0385	5	C5H5+
73.0284	15	C3H5O2+
79.0542	1	C6H7+
80.0496	1	C5H6N+
91.0542	178	C7H7+
92.0493	4	C6H6N+
93.0572	1	C6H7N+
94.0651	1	C6H8N+
101.0234	5	C4H5O3+
103.0539	3	C8H7+
105.0448	1	C6H5N2+
110.0599	14	C6H8NO+
115.0541	3	C9H7+
117.0572	41	C8H7N+
118.065	117	C8H8N+
119.0729	21	C8H9N+
129.0699	2	C10H9+
152.062	1	C12H8+
166.0645	1	C12H8N+
167.0729	703	C12H9N+
168.0807	999	C12H10N+
180.0805	17	C13H10N+
181.0884	14	C13H11N+
194.0963	42	C14H12N+
195.1041	14	C14H13N+
196.1119	857	C14H14N+
