Mass spectrum: NPE_327.1704_12.2; LC-ESI-QFT; MS2; CE: 60; R=17500; [M+H]+
Name: NPE_327.1704_12.2
Name: N-succinylnorpheniramine
Formula: C19H22N2O3
Exact mass: 326.1630
SMILES: CN(CCC(C1=CC=CC=C1)C1=NC=CC=C1)C(=O)CCC(O)=O
InChI: InChI=1S/C19H22N2O3/c1-21(18(22)10-11-19(23)24)14-12-16(15-7-3-2-4-8-15)17-9-5-6-13-20-17/h2-9,13,16H,10-12,14H2,1H3,(H,23,24)
Instrument: Q Exactive Plus Orbitrap Thermo Scientific
Instrument type: LC-ESI-QFT
Ms type: MS2
Ion mode: POSITIVE
Ionization: ESI
Fragmentation mode: HCD
Collision energy: 60 (nominal)
Resolution: 17500
Column name: Atlantis T3 3um, 3x150mm, Waters with guard column
Retention time: 11.9 min
Base peak: 65.0597
Precursor m/z: 327.1703
Precursor type: [M+H]+
m/z	relative intensity	assigned
55.0178	2	C3H3O+
73.0283	3	C3H5O2+
91.0542	27	C7H7+
101.0232	4	C4H5O3+
110.0598	2	C6H8NO+
117.0573	3	C8H7N+
118.065	21	C8H8N+
119.073	3	C8H9N+
167.0728	123	C12H9N+
168.0807	249	C12H10N+
180.0806	2	C13H10N+
181.0884	4	C13H11N+
194.0966	7	C14H12N+
195.1041	4	C14H13N+
196.112	999	C14H14N+
