Mass spectrum: NPE_212.1070_9.8; LC-ESI-QFT; MS2; CE: (160-0.41mz or 15) NCE; R=17500; [M+H]+
Name: NPE_212.1070_9.8
Name: 3-phenyl-3-pyridin-2-ylpropanal
Formula: C14H13NO
Exact mass: 211.0997
SMILES: O=CCC(C1=CC=CC=C1)C1=NC=CC=C1
InChI: InChI=1S/C14H13NO/c16-11-9-13(12-6-2-1-3-7-12)14-8-4-5-10-15-14/h1-8,10-11,13H,9H2
Instrument: Q Exactive Orbitrap Thermo Scientific
Instrument type: LC-ESI-QFT
Ms type: MS2
Ion mode: POSITIVE
Ionization: ESI
Fragmentation mode: HCD
Collision energy: 160-0.41mz or 15 (mz>350) nominal units
Resolution: 17500
Column name: Atlantis T3 3um, 3x150mm, Waters with guard column
Retention time: 9.8 min
Base peak: 164.9844
Precursor m/z: 212.107
Precursor type: [M+H]+
m/z	relative intensity	assigned
106.0648	14	C7H8N+
167.0728	414	C12H9N+
168.0806	999	C12H10N+
169.0883	98	C12H11N+
193.0886	17	C14H11N+
194.0966	78	C14H12N+
212.1066	11	C14H14NO+
