Mass spectrum: NPE_228.1019_12.4; LC-ESI-QFT; MS2; CE: 15; R=17500; [M+H]+
Name: NPE_228.1019_12.4
Name: 3-phenyl-3-pyridin-2-ylpropanoic acid
Formula: C14H13NO2
Exact mass: 227.0946
SMILES: OC(=O)CC(C1=CC=CC=C1)C1=NC=CC=C1
InChI: InChI=1S/C14H13NO2/c16-14(17)10-12(11-6-2-1-3-7-11)13-8-4-5-9-15-13/h1-9,12H,10H2,(H,16,17)
Instrument: Q Exactive Plus Orbitrap Thermo Scientific
Instrument type: LC-ESI-QFT
Ms type: MS2
Ion mode: POSITIVE
Ionization: ESI
Fragmentation mode: HCD
Collision energy: 15 (nominal)
Resolution: 17500
Column name: Atlantis T3 3um, 3x150mm, Waters with guard column
Retention time: 12.2 min
Base peak: 65.0597
Precursor m/z: 228.1019
Precursor type: [M+H]+
m/z	relative intensity	assigned
168.0805	8	C12H10N+
210.0914	849	C14H12NO+
228.102	999	C14H14NO2+
