Mass spectrum: NPE_255.1491_11.0; LC-ESI-QFT; MS2; CE: 90; R=17500; [M+H]+
Name: NPE_255.1491_11.0
Name: N-acetyl-N-didemethylpheniramine
Name: N-(3-phenyl-3-pyridin-2-ylpropyl)acetamide
Formula: C16H18N2O
Exact mass: 254.1419
SMILES: CC(=O)NCCC(C1=CC=CC=C1)C1=NC=CC=C1
InChI: InChI=1S/C16H18N2O/c1-13(19)17-12-10-15(14-7-3-2-4-8-14)16-9-5-6-11-18-16/h2-9,11,15H,10,12H2,1H3,(H,17,19)
Instrument: Q Exactive Plus Orbitrap Thermo Scientific
Instrument type: LC-ESI-QFT
Ms type: MS2
Ion mode: POSITIVE
Ionization: ESI
Fragmentation mode: HCD
Collision energy: 90 (nominal)
Resolution: 17500
Column name: Atlantis T3 3um, 3x150mm, Waters with guard column
Retention time: 11.4 min
Base peak: 65.0597
Precursor m/z: 255.1492
Precursor type: [M+H]+
m/z	relative intensity	assigned
55.0541	26	C4H7+
57.0698	5	C4H9+
67.054	19	C5H7+
69.0698	9	C5H9+
79.054	18	C6H7+
81.0696	9	C6H9+
91.0542	240	C7H7+
95.0853	8	C7H11+
105.0701	8	C8H9+
110.0601	10	C6H8NO+
117.0572	71	C8H7N+
118.065	145	C8H8N+
119.0727	33	C8H9N+
167.0729	999	C12H9N+
168.0807	763	C12H10N+
194.0965	36	C14H12N+
195.1046	19	C14H13N+
196.1121	222	C14H14N+
