Mass spectrum: NPE_241.1335_10.3; LC-ESI-QFT; MS2; CE: 75; R=17500; [M+H]+
Name: NPE_241.1335_10.3
Formula: C15H16N2O
Exact mass: 240.1263
SMILES: CNC(=O)CC(C1=CC=CC=C1)C1=NC=CC=C1
InChI: InChI=1S/C15H16N2O/c1-16-15(18)11-13(12-7-3-2-4-8-12)14-9-5-6-10-17-14/h2-10,13H,11H2,1H3,(H,16,18)
Instrument: Q Exactive Plus Orbitrap Thermo Scientific
Instrument type: LC-ESI-QFT
Ms type: MS2
Ion mode: POSITIVE
Ionization: ESI
Fragmentation mode: HCD
Collision energy: 75 (nominal)
Resolution: 17500
Column name: Atlantis T3 3um, 3x150mm, Waters with guard column
Retention time: 10.6 min
Base peak: 65.0597
Precursor m/z: 241.1335
Precursor type: [M+H]+
m/z	relative intensity	assigned
53.0387	13	C4H5+
55.0541	37	C4H7+
57.0697	9	C4H9+
67.0541	15	C5H7+
69.0697	30	C5H9+
79.0543	14	C6H7+
80.0493	32	C5H6N+
81.0697	29	C6H9+
91.0541	170	C7H7+
93.0697	13	C7H9+
95.049	26	C6H7O+
103.0543	8	C8H7+
105.0333	30	C7H5O+
105.0446	8	C6H5N2+
110.0602	14	C6H8NO+
117.0575	13	C8H7N+
118.065	103	C8H8N+
119.073	13	C8H9N+
141.0699	9	C11H9+
167.0729	659	C12H9N+
168.0807	999	C12H10N+
180.0814	13	C13H10N+
181.0889	9	C13H11N+
194.0965	41	C14H12N+
196.112	809	C14H14N+
