Mass spectrum: NPE_325.1547_12.8; LC-ESI-QFT; MS2; CE: 60; R=17500; [M+H]+
Name: NPE_325.1547_12.8
Name: N-furmarylnorpheniramine
Formula: C19H20N2O3
Exact mass: 324.1474
SMILES: CN(CCC(C1=CC=CC=C1)C1=NC=CC=C1)C(=O)\C=C\C(O)=O
InChI: InChI=1S/C19H20N2O3/c1-21(18(22)10-11-19(23)24)14-12-16(15-7-3-2-4-8-15)17-9-5-6-13-20-17/h2-11,13,16H,12,14H2,1H3,(H,23,24)/b11-10+
Instrument: Q Exactive Plus Orbitrap Thermo Scientific
Instrument type: LC-ESI-QFT
Ms type: MS2
Ion mode: POSITIVE
Ionization: ESI
Fragmentation mode: HCD
Collision energy: 60 (nominal)
Resolution: 17500
Column name: Atlantis T3 3um, 3x150mm, Waters with guard column
Retention time: 12.6 min
Base peak: 65.0597
Precursor m/z: 325.1547
Precursor type: [M+H]+
m/z	relative intensity	assigned
84.0808	1	C5H10N+
86.0963	4	C5H12N+
91.0542	51	C7H7+
110.0597	3	C6H8NO+
117.0573	6	C8H7N+
118.065	34	C8H8N+
119.0727	5	C8H9N+
167.0729	192	C12H9N+
168.0807	386	C12H10N+
180.0808	4	C13H10N+
181.0892	5	C13H11N+
194.0963	15	C14H12N+
195.1046	6	C14H13N+
196.112	999	C14H14N+
