Mass spectrum: NPE_325.1547_12.8; LC-ESI-QFT; MS2; CE: 90; R=17500; [M+H]+
Name: NPE_325.1547_12.8
Name: N-furmarylnorpheniramine
Formula: C19H20N2O3
Exact mass: 324.1474
SMILES: CN(CCC(C1=CC=CC=C1)C1=NC=CC=C1)C(=O)\C=C\C(O)=O
InChI: InChI=1S/C19H20N2O3/c1-21(18(22)10-11-19(23)24)14-12-16(15-7-3-2-4-8-15)17-9-5-6-13-20-17/h2-11,13,16H,12,14H2,1H3,(H,23,24)/b11-10+
Instrument: Q Exactive Plus Orbitrap Thermo Scientific
Instrument type: LC-ESI-QFT
Ms type: MS2
Ion mode: POSITIVE
Ionization: ESI
Fragmentation mode: HCD
Collision energy: 90 (nominal)
Resolution: 17500
Column name: Atlantis T3 3um, 3x150mm, Waters with guard column
Retention time: 12.6 min
Base peak: 65.0597
Precursor m/z: 325.1547
Precursor type: [M+H]+
m/z	relative intensity	assigned
53.0022	1	C3HO+
58.0654	1	C3H8N+
65.0386	19	C5H5+
86.0962	2	C5H12N+
91.0542	225	C7H7+
92.0494	7	C6H6N+
94.065	1	C6H8N+
103.0542	7	C8H7+
110.06	16	C6H8NO+
115.0542	9	C9H7+
117.0572	74	C8H7N+
117.0702	4	C9H9+
118.065	134	C8H8N+
119.0731	20	C8H9N+
129.0697	2	C10H9+
141.0694	8	C11H9+
167.0729	999	C12H9N+
168.0807	590	C12H10N+
180.0805	27	C13H10N+
181.0882	9	C13H11N+
193.0886	7	C14H11N+
194.0963	47	C14H12N+
195.1039	6	C14H13N+
196.1119	105	C14H14N+
