Mass spectrum: NPE_255.1491_11.6; LC-ESI-QFT; MS2; CE: 75; R=17500; [M+H]+
Name: NPE_255.1491_11.6
Name: Pheniramine formamide
Name: PHE_255.1497_11.6
Formula: C16H18N2O
Exact mass: 254.1419
SMILES: CN(CCC(C1=CC=CC=C1)C1=NC=CC=C1)C=O
InChI: InChI=1S/C16H18N2O/c1-18(13-19)12-10-15(14-7-3-2-4-8-14)16-9-5-6-11-17-16/h2-9,11,13,15H,10,12H2,1H3
Instrument: Q Exactive Plus Orbitrap Thermo Scientific
Instrument type: LC-ESI-QFT
Ms type: MS2
Ion mode: POSITIVE
Ionization: ESI
Fragmentation mode: HCD
Collision energy: 75 (nominal)
Resolution: 17500
Column name: Atlantis T3 3um, 3x150mm, Waters with guard column
Retention time: 11.4 min
Base peak: 65.0597
Precursor m/z: 255.1492
Precursor type: [M+H]+
m/z	relative intensity	assigned
55.0542	35	C4H7+
57.0697	21	C4H9+
67.0542	6	C5H7+
69.07	18	C5H9+
79.0546	5	C6H7+
81.0697	17	C6H9+
91.0541	170	C7H7+
93.07	11	C7H9+
105.0694	9	C8H9+
107.0854	6	C8H11+
110.0602	6	C6H8NO+
117.0576	25	C8H7N+
118.065	99	C8H8N+
119.0731	24	C8H9N+
167.0729	610	C12H9N+
168.0807	976	C12H10N+
181.0884	6	C13H11N+
194.097	37	C14H12N+
196.1121	999	C14H14N+
