Mass spectrum: NPE_227.1543_9.6; LC-ESI-QFT; MS2; CE: 15-90; R=17500; [M+H]+
Name: NPE_227.1543_9.6
Name: N-desmethylpheniramine
Name: N-methyl-3-phenyl-3-pyridin-2-ylpropan-1-amine
Formula: C15H18N2
Exact mass: 226.1470
SMILES: CNCCC(C1=CC=CC=C1)C1=NC=CC=C1
InChI: InChI=1S/C15H18N2/c1-16-12-10-14(13-7-3-2-4-8-13)15-9-5-6-11-17-15/h2-9,11,14,16H,10,12H2,1H3
Instrument: Q Exactive Orbitrap Thermo Scientific
Instrument type: LC-ESI-QFT
Ms type: MS2
Ion mode: POSITIVE
Ionization: ESI
Fragmentation mode: HCD
Collision energy: 15, 30, 45, 60, 70 or 90 (nominal)
Resolution: 17500
Column name: Atlantis T3 3um, 3x150mm, Waters with guard column
Retention time: 9.9 min
Base peak: 227.1543
Precursor m/z: 227.1543
Precursor type: [M+H]+
m/z	relative intensity	assigned
91.0541	5	C7H7+
119.0731	1	C8H9N+
167.0728	25	C12H9N+
168.0807	51	C12H10N+
194.0972	1	C14H12N+
195.1047	2	C14H13N+
196.112	999	C14H14N+
