Mass spectrum: NPE_255.1491_11.6; LC-ESI-QFT; MS2; CE: 15; R=17500; [M+H]+
Name: NPE_255.1491_11.6
Name: Pheniramine formamide
Name: PHE_255.1497_11.6
Formula: C16H18N2O
Exact mass: 254.1419
SMILES: CN(CCC(C1=CC=CC=C1)C1=NC=CC=C1)C=O
InChI: InChI=1S/C16H18N2O/c1-18(13-19)12-10-15(14-7-3-2-4-8-14)16-9-5-6-11-17-16/h2-9,11,13,15H,10,12H2,1H3
Instrument: Q Exactive Plus Orbitrap Thermo Scientific
Instrument type: LC-ESI-QFT
Ms type: MS2
Ion mode: POSITIVE
Ionization: ESI
Fragmentation mode: HCD
Collision energy: 15 (nominal)
Resolution: 17500
Column name: Atlantis T3 3um, 3x150mm, Waters with guard column
Retention time: 11.4 min
Base peak: 65.0597
Precursor m/z: 255.1492
Precursor type: [M+H]+
m/z	relative intensity	assigned
71.0857	2	C5H11+
83.0855	3	C6H11+
97.1011	3	C7H13+
135.1171	3	C10H15+
196.112	263	C14H14N+
227.1544	61	C15H19N2+
255.1491	999	C16H19N2O+
