Mass spectrum: NPE_227.1543_9.6; LC-ESI-QFT; MS2; CE: 15-90; R=17500; [M+H]+
Name: NPE_227.1543_9.6
Name: N-desmethylpheniramine
Name: N-methyl-3-phenyl-3-pyridin-2-ylpropan-1-amine
Formula: C15H18N2
Exact mass: 226.1470
SMILES: CNCCC(C1=CC=CC=C1)C1=NC=CC=C1
InChI: InChI=1S/C15H18N2/c1-16-12-10-14(13-7-3-2-4-8-13)15-9-5-6-11-17-15/h2-9,11,14,16H,10,12H2,1H3
Instrument: Q Exactive Orbitrap Thermo Scientific
Instrument type: LC-ESI-QFT
Ms type: MS2
Ion mode: POSITIVE
Ionization: ESI
Fragmentation mode: HCD
Collision energy: 15, 30, 45, 60, 70 or 90 (nominal)
Resolution: 17500
Column name: Atlantis T3 3um, 3x150mm, Waters with guard column
Retention time: 9.9 min
Base peak: 227.1543
Precursor m/z: 227.1543
Precursor type: [M+H]+
m/z	relative intensity	assigned
91.0542	40	C7H7+
110.0597	3	C6H8NO+
117.0572	7	C8H7N+
118.0649	34	C8H8N+
119.073	6	C8H9N+
129.0697	1	C10H9+
166.0648	1	C12H8N+
167.0729	180	C12H9N+
168.0806	356	C12H10N+
180.0808	4	C13H10N+
181.0882	4	C13H11N+
194.0964	11	C14H12N+
195.1047	7	C14H13N+
196.112	999	C14H14N+
