Mass spectrum: NPE_255.1491_11.0; LC-ESI-QFT; MS2; CE: 30; R=17500; [M+H]+
Name: NPE_255.1491_11.0
Name: N-acetyl-N-didemethylpheniramine
Name: N-(3-phenyl-3-pyridin-2-ylpropyl)acetamide
Formula: C16H18N2O
Exact mass: 254.1419
SMILES: CC(=O)NCCC(C1=CC=CC=C1)C1=NC=CC=C1
InChI: InChI=1S/C16H18N2O/c1-13(19)17-12-10-15(14-7-3-2-4-8-14)16-9-5-6-11-18-16/h2-9,11,15H,10,12H2,1H3,(H,17,19)
Instrument: Q Exactive Plus Orbitrap Thermo Scientific
Instrument type: LC-ESI-QFT
Ms type: MS2
Ion mode: POSITIVE
Ionization: ESI
Fragmentation mode: HCD
Collision energy: 30 (nominal)
Resolution: 17500
Column name: Atlantis T3 3um, 3x150mm, Waters with guard column
Retention time: 11.4 min
Base peak: 65.0597
Precursor m/z: 255.1492
Precursor type: [M+H]+
m/z	relative intensity	assigned
55.0542	3	C4H7+
57.0698	8	C4H9+
69.0697	9	C5H9+
71.0854	4	C5H11+
83.0853	8	C6H11+
85.1009	2	C6H13+
95.0854	3	C7H11+
97.1009	3	C7H13+
121.101	3	C9H13+
135.1169	7	C10H15+
196.112	999	C14H14N+
227.1548	46	C15H19N2+
255.1491	309	C16H19N2O+
