Mass spectrum: NPE_269.1647_12.5; LC-ESI-QFT; MS2; CE: 45; R=17500; [M+H]+
Name: NPE_269.1647_12.5
Name: Norpheniramine acetate
Name: N-methyl-N-(3-phenyl-3-pyridin-2-ylpropyl)acetamide
Formula: C17H20N2O
Exact mass: 268.1576
SMILES: CN(CCC(C1=CC=CC=C1)C1=NC=CC=C1)C(C)=O
InChI: InChI=1S/C17H20N2O/c1-14(20)19(2)13-11-16(15-8-4-3-5-9-15)17-10-6-7-12-18-17/h3-10,12,16H,11,13H2,1-2H3
Instrument: Q Exactive Plus Orbitrap Thermo Scientific
Instrument type: LC-ESI-QFT
Ms type: MS2
Ion mode: POSITIVE
Ionization: ESI
Fragmentation mode: HCD
Collision energy: 45 (nominal)
Resolution: 17500
Column name: Atlantis T3 3um, 3x150mm, Waters with guard column
Retention time: 12.2 min
Base peak: 65.0597
Precursor m/z: 269.1648
Precursor type: [M+H]+
m/z	relative intensity	assigned
55.0541	4	C4H7+
57.0697	13	C4H9+
69.0697	12	C5H9+
71.0853	2	C5H11+
81.0698	12	C6H9+
93.07	3	C7H9+
95.0854	12	C7H11+
107.0853	3	C8H11+
109.1009	3	C8H13+
125.0599	2	C7H9O2+
135.0801	2	C9H11O+
167.0725	11	C12H9N+
168.0811	20	C12H10N+
196.112	999	C14H14N+
269.1644	4	C17H21N2O+
