Mass spectrum: NPE_227.1543_9.6; LC-ESI-QFT; MS2; CE: 15-90; R=17500; [M+H]+
Name: NPE_227.1543_9.6
Name: N-desmethylpheniramine
Name: N-methyl-3-phenyl-3-pyridin-2-ylpropan-1-amine
Formula: C15H18N2
Exact mass: 226.1470
SMILES: CNCCC(C1=CC=CC=C1)C1=NC=CC=C1
InChI: InChI=1S/C15H18N2/c1-16-12-10-14(13-7-3-2-4-8-13)15-9-5-6-11-17-15/h2-9,11,14,16H,10,12H2,1H3
Instrument: Q Exactive Orbitrap Thermo Scientific
Instrument type: LC-ESI-QFT
Ms type: MS2
Ion mode: POSITIVE
Ionization: ESI
Fragmentation mode: HCD
Collision energy: 15, 30, 45, 60, 70 or 90 (nominal)
Resolution: 17500
Column name: Atlantis T3 3um, 3x150mm, Waters with guard column
Retention time: 9.9 min
Base peak: 227.1543
Precursor m/z: 227.1543
Precursor type: [M+H]+
m/z	relative intensity	assigned
65.0388	18	C5H5+
78.0341	2	C5H4N+
80.0496	2	C5H6N+
91.0542	204	C7H7+
92.0493	8	C6H6N+
93.0573	6	C6H7N+
94.0651	3	C6H8N+
96.0444	4	C5H6NO+
103.0542	6	C8H7+
110.06	18	C6H8NO+
115.0539	9	C9H7+
117.0572	72	C8H7N+
118.065	174	C8H8N+
119.0729	30	C8H9N+
128.0619	1	C10H8+
129.0699	2	C10H9+
141.0701	6	C11H9+
166.065	12	C12H8N+
167.073	999	C12H9N+
168.0806	628	C12H10N+
180.0806	24	C13H10N+
181.0884	8	C13H11N+
193.0887	6	C14H11N+
194.0964	52	C14H12N+
195.1037	6	C14H13N+
196.1121	138	C14H14N+
