Mass spectrum: NPE_241.1335_10.8; LC-ESI-QFT; MS2; CE: 60; R=17500; [M+H]+
Name: NPE_241.1335_10.8
Name: N-[3-phenyl-3-(pyridin-2-yl)propyl]formamide
Formula: C15H16N2O
Exact mass: 240.1263
SMILES: O=CNCCC(C1=CC=CC=C1)C1=NC=CC=C1
InChI: InChI=1S/C15H16N2O/c18-12-16-11-9-14(13-6-2-1-3-7-13)15-8-4-5-10-17-15/h1-8,10,12,14H,9,11H2,(H,16,18)
Instrument: Q Exactive Plus Orbitrap Thermo Scientific
Instrument type: LC-ESI-QFT
Ms type: MS2
Ion mode: POSITIVE
Ionization: ESI
Fragmentation mode: HCD
Collision energy: 60 (nominal)
Resolution: 17500
Column name: Atlantis T3 3um, 3x150mm, Waters with guard column
Retention time: 10.6 min
Base peak: 65.0597
Precursor m/z: 241.1335
Precursor type: [M+H]+
m/z	relative intensity	assigned
53.0384	3	C4H5+
55.0541	12	C4H7+
57.0698	10	C4H9+
69.0696	18	C5H9+
79.0543	3	C6H7+
80.0494	4	C5H6N+
81.0698	14	C6H9+
83.0852	6	C6H11+
91.0542	33	C7H7+
93.07	6	C7H9+
95.049	5	C6H7O+
95.0853	4	C7H11+
105.0336	37	C7H5O+
105.0449	4	C6H5N2+
107.0855	4	C8H11+
118.0649	25	C8H8N+
167.0729	108	C12H9N+
168.0807	249	C12H10N+
181.0884	3	C13H11N+
194.0965	3	C14H12N+
196.1121	999	C14H14N+
