Mass spectrum: NPE_327.1704_12.2; LC-ESI-QFT; MS2; CE: 90; R=17500; [M+H]+
Name: NPE_327.1704_12.2
Name: N-succinylnorpheniramine
Formula: C19H22N2O3
Exact mass: 326.1630
SMILES: CN(CCC(C1=CC=CC=C1)C1=NC=CC=C1)C(=O)CCC(O)=O
InChI: InChI=1S/C19H22N2O3/c1-21(18(22)10-11-19(23)24)14-12-16(15-7-3-2-4-8-15)17-9-5-6-13-20-17/h2-9,13,16H,10-12,14H2,1H3,(H,23,24)
Instrument: Q Exactive Plus Orbitrap Thermo Scientific
Instrument type: LC-ESI-QFT
Ms type: MS2
Ion mode: POSITIVE
Ionization: ESI
Fragmentation mode: HCD
Collision energy: 90 (nominal)
Resolution: 17500
Column name: Atlantis T3 3um, 3x150mm, Waters with guard column
Retention time: 11.9 min
Base peak: 65.0597
Precursor m/z: 327.1703
Precursor type: [M+H]+
m/z	relative intensity	assigned
55.0179	12	C3H3O+
65.0386	15	C5H5+
73.0283	12	C3H5O2+
79.054	1	C6H7+
80.0494	3	C5H6N+
91.0542	217	C7H7+
92.0493	7	C6H6N+
93.0572	5	C6H7N+
94.0652	1	C6H8N+
101.0234	1	C4H5O3+
103.0544	4	C8H7+
105.0449	1	C6H5N2+
110.06	18	C6H8NO+
115.0542	6	C9H7+
117.0572	72	C8H7N+
118.065	136	C8H8N+
119.0729	26	C8H9N+
129.0701	1	C10H9+
152.0622	4	C12H8+
166.0651	8	C12H8N+
167.0729	999	C12H9N+
168.0807	713	C12H10N+
180.0807	26	C13H10N+
181.0883	10	C13H11N+
194.0962	49	C14H12N+
195.1046	9	C14H13N+
196.1119	180	C14H14N+
