Mass spectrum: NPE_325.1547_12.8; LC-ESI-QFT; MS2; CE: 30; R=17500; [M+H]+
Name: NPE_325.1547_12.8
Name: N-furmarylnorpheniramine
Formula: C19H20N2O3
Exact mass: 324.1474
SMILES: CN(CCC(C1=CC=CC=C1)C1=NC=CC=C1)C(=O)\C=C\C(O)=O
InChI: InChI=1S/C19H20N2O3/c1-21(18(22)10-11-19(23)24)14-12-16(15-7-3-2-4-8-15)17-9-5-6-13-20-17/h2-11,13,16H,12,14H2,1H3,(H,23,24)/b11-10+
Instrument: Q Exactive Plus Orbitrap Thermo Scientific
Instrument type: LC-ESI-QFT
Ms type: MS2
Ion mode: POSITIVE
Ionization: ESI
Fragmentation mode: HCD
Collision energy: 30 (nominal)
Resolution: 17500
Column name: Atlantis T3 3um, 3x150mm, Waters with guard column
Retention time: 12.6 min
Base peak: 65.0597
Precursor m/z: 325.1547
Precursor type: [M+H]+
m/z	relative intensity	assigned
86.0964	4	C5H12N+
195.1038	1	C14H13N+
196.1119	999	C14H14N+
233.1644	1	C14H21N2O+
325.1544	302	C19H21N2O3+
