Mass spectrum: NPE_269.1647_12.5; LC-ESI-QFT; MS2; CE: 30; R=17500; [M+H]+
Name: NPE_269.1647_12.5
Name: Norpheniramine acetate
Name: N-methyl-N-(3-phenyl-3-pyridin-2-ylpropyl)acetamide
Formula: C17H20N2O
Exact mass: 268.1576
SMILES: CN(CCC(C1=CC=CC=C1)C1=NC=CC=C1)C(C)=O
InChI: InChI=1S/C17H20N2O/c1-14(20)19(2)13-11-16(15-8-4-3-5-9-15)17-10-6-7-12-18-17/h3-10,12,16H,11,13H2,1-2H3
Instrument: Q Exactive Plus Orbitrap Thermo Scientific
Instrument type: LC-ESI-QFT
Ms type: MS2
Ion mode: POSITIVE
Ionization: ESI
Fragmentation mode: HCD
Collision energy: 30 (nominal)
Resolution: 17500
Column name: Atlantis T3 3um, 3.0x150mm, Waters with guard column
Retention time: 12.2 min
Base peak: 65.0597
Precursor m/z: 269.1648
Precursor type: [M+H]+
m/z	relative intensity	assigned
69.0697	5	C5H9+
71.0855	6	C5H11+
81.0697	7	C6H9+
93.0701	5	C7H9+
95.0855	8	C7H11+
109.1008	3	C8H13+
125.0601	3	C7H9O2+
196.1121	999	C14H14N+
269.1647	458	C17H21N2O+
