Mass spectrum: NPE_241.1335_10.8; LC-ESI-QFT; MS2; CE: 30; R=17500; [M+H]+
Name: NPE_241.1335_10.8
Name: N-[3-phenyl-3-(pyridin-2-yl)propyl]formamide
Formula: C15H16N2O
Exact mass: 240.1263
SMILES: O=CNCCC(C1=CC=CC=C1)C1=NC=CC=C1
InChI: InChI=1S/C15H16N2O/c18-12-16-11-9-14(13-6-2-1-3-7-13)15-8-4-5-10-17-15/h1-8,10,12,14H,9,11H2,(H,16,18)
Instrument: Q Exactive Plus Orbitrap Thermo Scientific
Instrument type: LC-ESI-QFT
Ms type: MS2
Ion mode: POSITIVE
Ionization: ESI
Fragmentation mode: HCD
Collision energy: 30 (nominal)
Resolution: 17500
Column name: Atlantis T3 3um, 3x150mm, Waters with guard column
Retention time: 10.6 min
Base peak: 65.0597
Precursor m/z: 241.1335
Precursor type: [M+H]+
m/z	relative intensity	assigned
55.054	5	C4H7+
57.0697	13	C4H9+
69.0696	5	C5H9+
71.0492	3	C4H7O+
83.0852	3	C6H11+
95.0856	6	C7H11+
105.0334	63	C7H5O+
121.1011	11	C9H13+
135.1171	3	C10H15+
181.1223	7	C11H17O2+
196.112	999	C14H14N+
210.0913	6	C14H12NO+
213.1393	18	C14H17N2+
223.1227	22	C15H15N2+
241.1335	618	C15H17N2O+
