Mass spectrum: NPE_255.1491_11.6; LC-ESI-QFT; MS2; CE: 45; R=17500; [M+H]+
Name: NPE_255.1491_11.6
Name: Pheniramine formamide
Name: PHE_255.1497_11.6
Formula: C16H18N2O
Exact mass: 254.1419
SMILES: CN(CCC(C1=CC=CC=C1)C1=NC=CC=C1)C=O
InChI: InChI=1S/C16H18N2O/c1-18(13-19)12-10-15(14-7-3-2-4-8-14)16-9-5-6-11-17-16/h2-9,11,13,15H,10,12H2,1H3
Instrument: Q Exactive Plus Orbitrap Thermo Scientific
Instrument type: LC-ESI-QFT
Ms type: MS2
Ion mode: POSITIVE
Ionization: ESI
Fragmentation mode: HCD
Collision energy: 45 (nominal)
Resolution: 17500
Column name: Atlantis T3 3um, 3x150mm, Waters with guard column
Retention time: 11.4 min
Base peak: 65.0597
Precursor m/z: 255.1492
Precursor type: [M+H]+
m/z	relative intensity	assigned
55.054	2	C4H7+
57.0698	9	C4H9+
69.0696	8	C5H9+
81.0697	8	C6H9+
83.0854	7	C6H11+
85.1009	1	C6H13+
93.0696	3	C7H9+
95.0854	8	C7H11+
121.1014	3	C9H13+
167.0725	7	C12H9N+
168.081	14	C12H10N+
196.1121	999	C14H14N+
255.15	9	C16H19N2O+
