Mass spectrum: NPE_255.1491_11.0; LC-ESI-QFT; MS2; CE: 60; R=17500; [M+H]+
Name: NPE_255.1491_11.0
Name: N-acetyl-N-didemethylpheniramine
Name: N-(3-phenyl-3-pyridin-2-ylpropyl)acetamide
Formula: C16H18N2O
Exact mass: 254.1419
SMILES: CC(=O)NCCC(C1=CC=CC=C1)C1=NC=CC=C1
InChI: InChI=1S/C16H18N2O/c1-13(19)17-12-10-15(14-7-3-2-4-8-14)16-9-5-6-11-18-16/h2-9,11,15H,10,12H2,1H3,(H,17,19)
Instrument: Q Exactive Plus Orbitrap Thermo Scientific
Instrument type: LC-ESI-QFT
Ms type: MS2
Ion mode: POSITIVE
Ionization: ESI
Fragmentation mode: HCD
Collision energy: 60 (nominal)
Resolution: 17500
Column name: Atlantis T3 3um, 3x150mm, Waters with guard column
Retention time: 11.4 min
Base peak: 65.0597
Precursor m/z: 255.1492
Precursor type: [M+H]+
m/z	relative intensity	assigned
55.0541	10	C4H7+
57.0697	11	C4H9+
67.0541	2	C5H7+
69.0697	15	C5H9+
79.0542	3	C6H7+
81.0696	11	C6H9+
83.0854	3	C6H11+
91.0542	18	C7H7+
93.0699	12	C7H9+
95.0854	11	C7H11+
107.0855	4	C8H11+
118.0651	19	C8H8N+
121.1009	4	C9H13+
167.0729	95	C12H9N+
168.0809	207	C12H10N+
181.089	2	C13H11N+
194.0962	5	C14H12N+
195.1045	2	C14H13N+
196.1121	999	C14H14N+
