Mass spectrum: NPE_325.1547_12.8; LC-ESI-QFT; MS2; CE: 75; R=17500; [M+H]+
Name: NPE_325.1547_12.8
Name: N-furmarylnorpheniramine
Formula: C19H20N2O3
Exact mass: 324.1474
SMILES: CN(CCC(C1=CC=CC=C1)C1=NC=CC=C1)C(=O)\C=C\C(O)=O
InChI: InChI=1S/C19H20N2O3/c1-21(18(22)10-11-19(23)24)14-12-16(15-7-3-2-4-8-15)17-9-5-6-13-20-17/h2-11,13,16H,12,14H2,1H3,(H,23,24)/b11-10+
Instrument: Q Exactive Plus Orbitrap Thermo Scientific
Instrument type: LC-ESI-QFT
Ms type: MS2
Ion mode: POSITIVE
Ionization: ESI
Fragmentation mode: HCD
Collision energy: 75 (nominal)
Resolution: 17500
Column name: Atlantis T3 3um, 3x150mm, Waters with guard column
Retention time: 12.6 min
Base peak: 65.0597
Precursor m/z: 325.1547
Precursor type: [M+H]+
m/z	relative intensity	assigned
53.0022	1	C3HO+
58.0651	1	C3H8N+
65.0384	8	C5H5+
84.0807	1	C5H10N+
86.0962	6	C5H12N+
91.0542	196	C7H7+
92.0494	4	C6H6N+
94.0651	2	C6H8N+
103.054	2	C8H7+
110.06	14	C6H8NO+
115.0541	1	C9H7+
117.0572	47	C8H7N+
117.0696	2	C9H9+
118.065	117	C8H8N+
119.0728	28	C8H9N+
129.0693	2	C10H9+
141.0696	4	C11H9+
167.0729	765	C12H9N+
168.0807	999	C12H10N+
169.0881	1	C12H11N+
180.0806	17	C13H10N+
181.0886	16	C13H11N+
193.0882	2	C14H11N+
194.0963	47	C14H12N+
195.1043	14	C14H13N+
196.1119	620	C14H14N+
