Mass spectrum: NPE_269.1647_12.5; LC-ESI-QFT; MS2; CE: 75; R=17500; [M+H]+
Name: NPE_269.1647_12.5
Name: Norpheniramine acetate
Name: N-methyl-N-(3-phenyl-3-pyridin-2-ylpropyl)acetamide
Formula: C17H20N2O
Exact mass: 268.1576
SMILES: CN(CCC(C1=CC=CC=C1)C1=NC=CC=C1)C(C)=O
InChI: InChI=1S/C17H20N2O/c1-14(20)19(2)13-11-16(15-8-4-3-5-9-15)17-10-6-7-12-18-17/h3-10,12,16H,11,13H2,1-2H3
Instrument: Q Exactive Plus Orbitrap Thermo Scientific
Instrument type: LC-ESI-QFT
Ms type: MS2
Ion mode: POSITIVE
Ionization: ESI
Fragmentation mode: HCD
Collision energy: 75 (nominal)
Resolution: 17500
Column name: Atlantis T3 3um, 3x150mm, Waters with guard column
Retention time: 12.2 min
Base peak: 65.0597
Precursor m/z: 269.1648
Precursor type: [M+H]+
m/z	relative intensity	assigned
55.0543	11	C4H7+
57.0697	13	C4H9+
67.0541	14	C5H7+
69.0699	17	C5H9+
79.0542	14	C6H7+
81.0698	18	C6H9+
91.0543	178	C7H7+
93.0701	11	C7H9+
95.0853	6	C7H11+
105.07	10	C8H9+
107.0854	12	C8H11+
110.06	13	C6H8NO+
117.0571	29	C8H7N+
118.0651	107	C8H8N+
119.0728	9	C8H9N+
167.0729	676	C12H9N+
168.0808	999	C12H10N+
194.0969	37	C14H12N+
196.112	846	C14H14N+
