Mass spectrum: NPE_241.1335_10.8; LC-ESI-QFT; MS2; CE: 45; R=17500; [M+H]+
Name: NPE_241.1335_10.8
Name: N-[3-phenyl-3-(pyridin-2-yl)propyl]formamide
Formula: C15H16N2O
Exact mass: 240.1263
SMILES: O=CNCCC(C1=CC=CC=C1)C1=NC=CC=C1
InChI: InChI=1S/C15H16N2O/c18-12-16-11-9-14(13-6-2-1-3-7-13)15-8-4-5-10-17-15/h1-8,10,12,14H,9,11H2,(H,16,18)
Instrument: Q Exactive Plus Orbitrap Thermo Scientific
Instrument type: LC-ESI-QFT
Ms type: MS2
Ion mode: POSITIVE
Ionization: ESI
Fragmentation mode: HCD
Collision energy: 45 (nominal)
Resolution: 17500
Column name: Atlantis T3 3um, 3x150mm, Waters with guard column
Retention time: 10.6 min
Base peak: 65.0597
Precursor m/z: 241.1335
Precursor type: [M+H]+
m/z	relative intensity	assigned
55.0542	4	C4H7+
57.0698	8	C4H9+
67.0539	2	C5H7+
69.0698	12	C5H9+
71.0491	3	C4H7O+
79.054	3	C6H7+
80.0494	4	C5H6N+
81.0697	9	C6H9+
83.0855	4	C6H11+
91.0542	2	C7H7+
93.0697	3	C7H9+
95.0854	8	C7H11+
105.0336	34	C7H5O+
107.0852	4	C8H11+
121.1009	3	C9H13+
135.1171	2	C10H15+
167.0724	13	C12H9N+
168.0812	20	C12H10N+
194.0958	2	C14H12N+
196.112	999	C14H14N+
210.0917	2	C14H12NO+
223.1229	11	C15H15N2+
241.1331	24	C15H17N2O+
