Mass spectrum: NPE_327.1704_12.2; LC-ESI-QFT; MS2; CE: 15; R=17500; [M+H]+
Name: NPE_327.1704_12.2
Name: N-succinylnorpheniramine
Formula: C19H22N2O3
Exact mass: 326.1630
SMILES: CN(CCC(C1=CC=CC=C1)C1=NC=CC=C1)C(=O)CCC(O)=O
InChI: InChI=1S/C19H22N2O3/c1-21(18(22)10-11-19(23)24)14-12-16(15-7-3-2-4-8-15)17-9-5-6-13-20-17/h2-9,13,16H,10-12,14H2,1H3,(H,23,24)
Instrument: Q Exactive Plus Orbitrap Thermo Scientific
Instrument type: LC-ESI-QFT
Ms type: MS2
Ion mode: POSITIVE
Ionization: ESI
Fragmentation mode: HCD
Collision energy: 15 (nominal)
Resolution: 17500
Column name: Atlantis T3 3um, 3x150mm, Waters with guard column
Retention time: 11.9 min
Base peak: 65.0597
Precursor m/z: 327.1703
Precursor type: [M+H]+
m/z	relative intensity	assigned
196.1118	68	C14H14N+
227.1541	46	C15H19N2+
251	110	C17HNO2+
309.1593	3	C19H21N2O2+
327.1701	999	C19H23N2O3+
