Mass spectrum: NPE_269.1647_12.5; LC-ESI-QFT; MS2; CE: 60; R=17500; [M+H]+
Name: NPE_269.1647_12.5
Name: Norpheniramine acetate
Name: N-methyl-N-(3-phenyl-3-pyridin-2-ylpropyl)acetamide
Formula: C17H20N2O
Exact mass: 268.1576
SMILES: CN(CCC(C1=CC=CC=C1)C1=NC=CC=C1)C(C)=O
InChI: InChI=1S/C17H20N2O/c1-14(20)19(2)13-11-16(15-8-4-3-5-9-15)17-10-6-7-12-18-17/h3-10,12,16H,11,13H2,1-2H3
Instrument: Q Exactive Plus Orbitrap Thermo Scientific
Instrument type: LC-ESI-QFT
Ms type: MS2
Ion mode: POSITIVE
Ionization: ESI
Fragmentation mode: HCD
Collision energy: 60 (nominal)
Resolution: 17500
Column name: Atlantis T3 3um, 3x150mm, Waters with guard column
Retention time: 12.2 min
Base peak: 65.0597
Precursor m/z: 269.1648
Precursor type: [M+H]+
m/z	relative intensity	assigned
55.0541	15	C4H7+
67.0542	6	C5H7+
69.0697	16	C5H9+
81.0697	15	C6H9+
91.0538	29	C7H7+
93.0697	4	C7H9+
95.0852	15	C7H11+
105.0698	3	C8H9+
109.1012	3	C8H13+
118.065	21	C8H8N+
135.0802	3	C9H11O+
167.0728	115	C12H9N+
168.0807	221	C12H10N+
194.0963	5	C14H12N+
196.112	999	C14H14N+
