Mass spectrum: NPE_241.1335_10.3; LC-ESI-QFT; MS2; CE: 15; R=17500; [M+H]+
Name: NPE_241.1335_10.3
Formula: C15H16N2O
Exact mass: 240.1263
SMILES: CNC(=O)CC(C1=CC=CC=C1)C1=NC=CC=C1
InChI: InChI=1S/C15H16N2O/c1-16-15(18)11-13(12-7-3-2-4-8-12)14-9-5-6-10-17-14/h2-10,13H,11H2,1H3,(H,16,18)
Instrument: Q Exactive Plus Orbitrap Thermo Scientific
Instrument type: LC-ESI-QFT
Ms type: MS2
Ion mode: POSITIVE
Ionization: ESI
Fragmentation mode: HCD
Collision energy: 15 (nominal)
Resolution: 17500
Column name: Atlantis T3 3um, 3x150mm, Waters with guard column
Retention time: 10.6 min
Base peak: 65.0597
Precursor m/z: 241.1335
Precursor type: [M+H]+
m/z	relative intensity	assigned
57.0696	2	C4H9+
83.0854	2	C6H11+
105.0335	36	C7H5O+
121.1009	3	C9H13+
135.1166	3	C10H15+
167.073	3	C12H9N+
181.1223	5	C11H17O2+
196.112	190	C14H14N+
210.0912	4	C14H12NO+
213.1385	17	C14H17N2+
241.1334	999	C15H17N2O+
