Mass spectrum: NPE_241.1335_10.3; LC-ESI-QFT; MS2; CE: 90; R=17500; [M+H]+
Name: NPE_241.1335_10.3
Formula: C15H16N2O
Exact mass: 240.1263
SMILES: CNC(=O)CC(C1=CC=CC=C1)C1=NC=CC=C1
InChI: InChI=1S/C15H16N2O/c1-16-15(18)11-13(12-7-3-2-4-8-12)14-9-5-6-10-17-14/h2-10,13H,11H2,1H3,(H,16,18)
Instrument: Q Exactive Plus Orbitrap Thermo Scientific
Instrument type: LC-ESI-QFT
Ms type: MS2
Ion mode: POSITIVE
Ionization: ESI
Fragmentation mode: HCD
Collision energy: 90 (nominal)
Resolution: 17500
Column name: Atlantis T3 3um, 3x150mm, Waters with guard column
Retention time: 10.6 min
Base peak: 65.0597
Precursor m/z: 241.1335
Precursor type: [M+H]+
m/z	relative intensity	assigned
53.0385	29	C4H5+
55.0541	34	C4H7+
57.0699	7	C4H9+
67.0542	21	C5H7+
69.0697	5	C5H9+
79.0539	10	C6H7+
80.0494	9	C5H6N+
81.0698	8	C6H9+
91.0542	248	C7H7+
93.0698	7	C7H9+
95.049	28	C6H7O+
103.054	5	C8H7+
105.0332	8	C7H5O+
105.0445	20	C6H5N2+
110.0601	25	C6H8NO+
117.0573	69	C8H7N+
118.0651	137	C8H8N+
119.0728	37	C8H9N+
141.0696	5	C11H9+
167.0729	999	C12H9N+
168.0807	744	C12H10N+
180.081	26	C13H10N+
194.0968	57	C14H12N+
196.112	165	C14H14N+
