Mass spectrum: NVE_278.1753_9.6; LC-ESI-QFT; MS2; CE: 15; R=17500; [M+H]+
Name: NVE_278.1753_9.6
Formula: C16H23NO3
Exact mass: 277.1678
Instrument: Q Exactive Plus Orbitrap Thermo Scientific
Instrument type: LC-ESI-QFT
Ms type: MS2
Ion mode: POSITIVE
Ionization: ESI
Fragmentation mode: HCD
Collision energy: 15 (nominal)
Resolution: 17500
Column name: Atlantis T3 3um, 3x150mm, Waters with guard column
Retention time: 9.5 min
Base peak: 65.0597
Precursor m/z: 278.1751
Precursor type: [M+H]+
m/z	relative intensity	assigned
121.0647	60	C8H9O+
149.0232	156	C8H5O3+
217.1229	850	C14H17O2+
235.1333	565	C14H19O3+
260.1649	999	C16H22NO2+
