Mass spectrum: NVE_264.1959_12.6; LC-ESI-QFT; MS2; CE: 15-90; R=17500; [M+H]+
Name: NVE_264.1959_12.6
Name: N-desmethylvenlafaxine
Name: 1-[1-(4-methoxyphenyl)-2-(methylamino)ethyl]cyclohexan-1-ol
Formula: C16H25NO2
Exact mass: 263.1885
SMILES: CNCC(C1=CC=C(OC)C=C1)C1(O)CCCCC1
InChI: InChI=1S/C16H25NO2/c1-17-12-15(16(18)10-4-3-5-11-16)13-6-8-14(19-2)9-7-13/h6-9,15,17-18H,3-5,10-12H2,1-2H3
Instrument: Q Exactive Orbitrap Thermo Scientific
Instrument type: LC-ESI-QFT
Ms type: MS2
Ion mode: POSITIVE
Ionization: ESI
Fragmentation mode: HCD
Collision energy: 15, 30, 45, 60, 70 or 90 (nominal)
Resolution: 17500
Column name: Atlantis T3 3um, 3x150mm, Waters with guard column
Retention time: 12.9 min
Base peak: 264.1957
Precursor m/z: 264.1958
Precursor type: [M+H]+
m/z	relative intensity	assigned
65.0387	3	C5H5+
67.0545	15	C5H7+
69.07	37	C5H9+
78.0465	4	C6H6+
79.0543	71	C6H7+
81.0699	95	C6H9+
83.0856	3	C6H11+
91.0542	162	C7H7+
93.0699	38	C7H9+
95.0493	14	C6H7O+
105.0448	2	C6H5N2+
105.0701	10	C8H9+
106.0411	2	C7H6O+
107.0492	22	C7H7O+
107.0854	32	C8H11+
109.0648	36	C7H9O+
115.0543	17	C9H7+
116.062	2	C9H8+
117.0696	17	C9H9+
119.0489	3	C8H7O+
119.0605	9	C7H7N2+
119.0853	21	C9H11+
121.0647	999	C8H9O+
123.081	3	C8H11O+
128.0618	3	C10H8+
129.07	9	C10H9+
131.0492	10	C9H7O+
132.0569	54	C9H8O+
133.065	8	C9H9O+
135.0804	65	C9H11O+
138.1276	8	C9H16N+
141.0698	12	C11H9+
143.0849	2	C11H11+
144.0569	21	C10H8O+
145.0651	16	C10H9O+
146.0729	3	C10H10O+
147.0804	458	C10H11O+
148.0755	7	C9H10NO+
149.0833	32	C9H11NO+
155.0853	7	C12H11+
158.0725	42	C11H10O+
159.0805	132	C11H11O+
160.0885	3	C11H12O+
161.0962	19	C11H13O+
163.0992	10	C10H13NO+
164.1066	20	C10H14NO+
172.0878	4	C12H12O+
173.096	164	C12H13O+
183.1168	4	C14H15+
187.1126	3	C13H15O+
215.1427	21	C15H19O+
