Mass spectrum: NVE_280.1909_11.8; LC-ESI-QFT; MS2; CE: 15; R=17500; [M+H]+
Name: NVE_280.1909_11.8
Formula: C16H25NO3
Exact mass: 279.1834
Instrument: Q Exactive Plus Orbitrap Thermo Scientific
Instrument type: LC-ESI-QFT
Ms type: MS2
Ion mode: POSITIVE
Ionization: ESI
Fragmentation mode: HCD
Collision energy: 15 (nominal)
Resolution: 17500
Column name: Atlantis T3 3um, 3x150mm, Waters with guard column
Retention time: 11.8 min
Base peak: 65.0597
Precursor m/z: 280.1907
Precursor type: [M+H]+
m/z	relative intensity	assigned
57.0699	19	C4H9+
60.0808	4	C3H10N+
87.044	4	C4H7O2+
88.0755	3	C4H10NO+
101.0598	16	C5H9O2+
121.0646	21	C8H9O+
149.0233	217	C8H5O3+
167.0334	3	C8H7O4+
201.1281	22	C14H17O+
213.1275	15	C15H17O+
231.1381	61	C15H19O2+
244.1701	12	C16H22NO+
262.1805	39	C16H24NO2+
280.1907	999	C16H26NO3+
