Mass spectrum: NVE_278.1753_9.6; LC-ESI-QFT; MS2; CE: 45; R=17500; [M+H]+
Name: NVE_278.1753_9.6
Formula: C16H23NO3
Exact mass: 277.1678
Instrument: Q Exactive Plus Orbitrap Thermo Scientific
Instrument type: LC-ESI-QFT
Ms type: MS2
Ion mode: POSITIVE
Ionization: ESI
Fragmentation mode: HCD
Collision energy: 45 (nominal)
Resolution: 17500
Column name: Atlantis T3 3um, 3x150mm, Waters with guard column
Retention time: 9.5 min
Base peak: 65.0597
Precursor m/z: 278.1751
Precursor type: [M+H]+
m/z	relative intensity	assigned
57.0698	230	C4H9+
58.065	83	C3H8N+
121.0647	999	C8H9O+
149.0233	257	C8H5O3+
171.0806	239	C12H11O+
180.1104	62	C6H16N2O4+
211.1109	102	C15H15O+
217.1229	266	C14H17O2+
236.1729	388	C10H24N2O4+
