Mass spectrum: NVE_247.1330_17.3; LC-ESI-QFT; MS2; CE: 90; R=17500; [M+H]+
Name: NVE_247.1330_17.3
Formula: C15H18O3
Exact mass: 246.1256
SMILES: COC1=CC=C(C=C1)C(C(O)=O)C1=CCCCC1
InChI: InChI=1S/C15H18O3/c1-18-13-9-7-12(8-10-13)14(15(16)17)11-5-3-2-4-6-11/h5,7-10,14H,2-4,6H2,1H3,(H,16,17)
Instrument: Q Exactive Plus Orbitrap Thermo Scientific
Instrument type: LC-ESI-QFT
Ms type: MS2
Ion mode: POSITIVE
Ionization: ESI
Fragmentation mode: HCD
Collision energy: 90 (nominal)
Resolution: 17500
Column name: Atlantis T3 3um, 3x150mm, Waters with guard column
Retention time: 16.9 min
Base peak: 65.0597
Precursor m/z: 247.1329
Precursor type: [M+H]+
m/z	relative intensity	assigned
53.0386	214	C4H5+
55.0179	76	C3H3O+
55.0543	284	C4H7+
57.0336	36	C3H5O+
57.0698	59	C4H9+
59.0491	158	C3H7O+
67.0543	284	C5H7+
69.0697	69	C5H9+
79.0541	311	C6H7+
81.0699	201	C6H9+
91.0543	999	C7H7+
93.0699	280	C7H9+
94.0413	541	C6H6O+
95.0492	376	C6H7O+
95.0856	68	C7H11+
98.0968	46	C6H12N+
103.054	93	C8H7+
105.0333	44	C7H5O+
105.0449	238	C6H5N2+
105.0699	334	C8H9+
107.0853	54	C8H11+
109.0648	432	C7H9O+
115.0542	68	C9H7+
117.0702	173	C9H9+
119.0858	50	C9H11+
121.0647	578	C8H9O+
129.07	94	C10H9+
131.0858	62	C10H11+
133.0646	48	C9H9O+
137.0595	219	C8H9O2+
143.0857	56	C11H11+
144.0571	67	C10H8O+
159.0805	169	C11H11O+
