Mass spectrum: NVE_264.1959_12.6; LC-ESI-QFT; MS2; CE: 15-90; R=17500; [M+H]+
Name: NVE_264.1959_12.6
Name: N-desmethylvenlafaxine
Name: 1-[1-(4-methoxyphenyl)-2-(methylamino)ethyl]cyclohexan-1-ol
Formula: C16H25NO2
Exact mass: 263.1885
SMILES: CNCC(C1=CC=C(OC)C=C1)C1(O)CCCCC1
InChI: InChI=1S/C16H25NO2/c1-17-12-15(16(18)10-4-3-5-11-16)13-6-8-14(19-2)9-7-13/h6-9,15,17-18H,3-5,10-12H2,1-2H3
Instrument: Q Exactive Orbitrap Thermo Scientific
Instrument type: LC-ESI-QFT
Ms type: MS2
Ion mode: POSITIVE
Ionization: ESI
Fragmentation mode: HCD
Collision energy: 15, 30, 45, 60, 70 or 90 (nominal)
Resolution: 17500
Column name: Atlantis T3 3um, 3x150mm, Waters with guard column
Retention time: 12.9 min
Base peak: 264.1957
Precursor m/z: 264.1958
Precursor type: [M+H]+
m/z	relative intensity	assigned
65.0388	59	C5H5+
67.0544	23	C5H7+
69.0701	20	C5H9+
77.0386	17	
78.0464	101	C6H6+
79.0543	168	C6H7+
81.0699	103	C6H9+
91.0542	819	C7H7+
93.0697	32	C7H9+
95.0491	185	C6H7O+
103.0542	26	
104.0621	22	
105.0447	39	C6H5N2+
105.0699	46	C8H9+
106.0414	31	C7H6O+
107.0491	75	C7H7O+
107.0853	4	C8H11+
109.0647	38	C7H9O+
115.0541	148	C9H7+
116.0618	41	C9H8+
117.0698	61	C9H9+
119.0492	8	C8H7O+
119.0604	12	C7H7N2+
119.0856	26	C9H11+
121.0647	999	C8H9O+
123.0809	2	C8H11O+
128.062	45	C10H8+
129.0698	36	C10H9+
131.0491	47	C9H7O+
132.0569	101	C9H8O+
133.065	11	C9H9O+
134.06	41	
135.0804	46	C9H11O+
141.0698	33	C11H9+
143.0852	3	C11H11+
144.0569	58	C10H8O+
145.0647	41	C10H9O+
146.0728	13	C10H10O+
147.0804	122	C10H11O+
148.0754	32	C9H10NO+
149.0839	19	C9H11NO+
155.06	17	
155.0851	3	C12H11+
158.0726	94	C11H10O+
159.0805	52	C11H11O+
160.088	2	C11H12O+
161.0957	3	C11H13O+
172.0882	3	C12H12O+
173.096	35	C12H13O+
174.1033	3	C12H14O+
