Mass spectrum: NVE_250.1804_10.8; LC-ESI-QFT; MS2; CE: 15-90; R=17500; [M+H]+
Name: NVE_250.1804_10.8
Name: N,O-didesmethylvenlafaxine
Name: 4-[1-(1-hydroxycyclohexyl)-2-(methylamino)ethyl]phenol
Formula: C15H23NO2
Exact mass: 249.1729
SMILES: CNCC(C1=CC=C(O)C=C1)C1(O)CCCCC1
InChI: InChI=1S/C15H23NO2/c1-16-11-14(12-5-7-13(17)8-6-12)15(18)9-3-2-4-10-15/h5-8,14,16-18H,2-4,9-11H2,1H3
Instrument: Q Exactive Orbitrap Thermo Scientific
Instrument type: LC-ESI-QFT
Ms type: MS2
Ion mode: POSITIVE
Ionization: ESI
Fragmentation mode: HCD
Collision energy: 15, 30, 45, 60, 70 or 90 (nominal)
Resolution: 17500
Column name: Atlantis T3 3um, 3x150mm, Waters with guard column
Retention time: 11.0 min
Base peak: 250.1799
Precursor m/z: 250.1802
Precursor type: [M+H]+
m/z	relative intensity	assigned
67.0543	19	C5H7+
69.07	51	C5H9+
77.0385	3	C6H5+
79.0542	83	C6H7+
81.0698	137	C6H9+
91.054	26	C7H7+
93.0697	11	C7H9+
95.049	19	C6H7O+
95.0854	10	C7H11+
105.0697	89	C8H9+
107.049	999	C7H7O+
109.0645	4	C7H9O+
115.054	7	C9H7+
117.0695	8	C9H9+
119.0491	16	C8H7O+
121.0646	52	C8H9O+
131.0491	23	C9H7O+
131.0855	25	C10H11+
133.0645	675	C9H9O+
135.068	31	C8H9NO+
141.0696	11	C11H9+
144.0568	11	C10H8O+
145.0646	166	C10H9O+
147.0802	12	C10H11O+
149.0836	14	C9H11NO+
150.0911	26	C9H12NO+
155.0607	3	C10H7N2+
159.0802	232	C11H11O+
169.0756	8	C11H9N2+
173.0957	4	C12H13O+
201.1275	26	C14H17O+
232.1697	3	C15H22NO+
