Mass spectrum: NVE_274.1802_16.6; LC-ESI-QFT; MS2; CE: 15; R=17500; [M+H]+
Name: NVE_274.1802_16.6
Formula: C17H23NO2
Exact mass: 273.1729
SMILES: COC1=CC=C(C=C1)C(CNC(C)=O)C1=CCCCC1
InChI: InChI=1S/C17H23NO2/c1-13(19)18-12-17(14-6-4-3-5-7-14)15-8-10-16(20-2)11-9-15/h6,8-11,17H,3-5,7,12H2,1-2H3,(H,18,19)
Instrument: Q Exactive Plus Orbitrap Thermo Scientific
Instrument type: LC-ESI-QFT
Ms type: MS2
Ion mode: POSITIVE
Ionization: ESI
Fragmentation mode: HCD
Collision energy: 15 (nominal)
Resolution: 17500
Column name: Atlantis T3 3um, 3x150mm, Waters with guard column
Retention time: 16.2 min
Base peak: 65.0597
Precursor m/z: 274.1802
Precursor type: [M+H]+
m/z	relative intensity	assigned
60.0444	16	C2H6NO+
60.0808	270	C3H10N+
61.0396	73	CH5N2O+
72.0442	15	C3H6NO+
121.065	21	C8H9O+
166.1226	361	C10H16NO+
192.1025	47	C11H14NO2+
215.1432	999	C15H19O+
232.1695	122	C15H22NO+
