Mass spectrum: NVE_274.1802_16.6; LC-ESI-QFT; MS2; CE: 45; R=17500; [M+H]+
Name: NVE_274.1802_16.6
Formula: C17H23NO2
Exact mass: 273.1729
SMILES: COC1=CC=C(C=C1)C(CNC(C)=O)C1=CCCCC1
InChI: InChI=1S/C17H23NO2/c1-13(19)18-12-17(14-6-4-3-5-7-14)15-8-10-16(20-2)11-9-15/h6,8-11,17H,3-5,7,12H2,1-2H3,(H,18,19)
Instrument: Q Exactive Plus Orbitrap Thermo Scientific
Instrument type: LC-ESI-QFT
Ms type: MS2
Ion mode: POSITIVE
Ionization: ESI
Fragmentation mode: HCD
Collision energy: 45 (nominal)
Resolution: 17500
Column name: Atlantis T3 3um, 3x150mm, Waters with guard column
Retention time: 16.2 min
Base peak: 65.0597
Precursor m/z: 274.1802
Precursor type: [M+H]+
m/z	relative intensity	assigned
55.0542	21	C4H7+
57.0699	130	C4H9+
60.0446	179	C2H6NO+
60.0808	577	C3H10N+
61.0396	109	CH5N2O+
69.0699	26	C5H9+
70.0651	104	C4H8N+
71.0856	39	C5H11+
72.0444	132	C3H6NO+
79.0542	26	C6H7+
81.0699	95	C6H9+
88.0757	249	C4H10NO+
91.0545	29	C7H7+
95.0859	35	C7H11+
102.091	88	C5H12NO+
106.0862	188	C4H12NO2+
107.0856	226	C8H11+
109.1009	29	C8H13+
121.0648	651	C8H9O+
124.1123	403	C8H14N+
133.0649	24	C9H9O+
135.0804	51	C9H11O+
147.0806	297	C10H11O+
150.0914	169	C9H12NO+
155.0855	26	C12H11+
159.0805	229	C11H11O+
166.1227	33	C10H16NO+
173.0965	233	C12H13O+
183.1173	95	C14H15+
215.1431	999	C15H19O+
232.1698	203	C15H22NO+
