Mass spectrum: NVE_278.1753_8.8; LC-ESI-QFT; MS2; CE: 75; R=17500; [M+H]+
Name: NVE_278.1753_8.8
Formula: C16H23NO3
Exact mass: 277.1678
Instrument: Q Exactive Plus Orbitrap Thermo Scientific
Instrument type: LC-ESI-QFT
Ms type: MS2
Ion mode: POSITIVE
Ionization: ESI
Fragmentation mode: HCD
Collision energy: 75 (nominal)
Resolution: 17500
Column name: Atlantis T3 3um, 3x150mm, Waters with guard column
Retention time: 8.6 min
Base peak: 65.0597
Precursor m/z: 278.1751
Precursor type: [M+H]+
m/z	relative intensity	assigned
53.0386	11	C4H5+
57.0698	10	C4H9+
58.065	5	C3H8N+
78.0466	8	C6H6+
79.0543	25	C6H7+
91.0545	68	C7H7+
93.0699	20	C7H9+
95.0491	40	C6H7O+
103.0545	8	C8H7+
105.0449	20	C6H5N2+
105.0699	8	C8H9+
115.0547	9	C9H7+
121.0649	999	C8H9O+
128.0621	96	C10H8+
141.0701	22	C11H9+
144.0573	6	C10H8O+
149.0842	7	C9H11NO+
156.0573	39	C11H8O+
159.0804	20	C11H11O+
164.107	5	C10H14NO+
171.0806	279	C12H11O+
