Mass spectrum: NVE_278.1753_8.8; LC-ESI-QFT; MS2; CE: 45; R=17500; [M+H]+
Name: NVE_278.1753_8.8
Formula: C16H23NO3
Exact mass: 277.1678
Instrument: Q Exactive Plus Orbitrap Thermo Scientific
Instrument type: LC-ESI-QFT
Ms type: MS2
Ion mode: POSITIVE
Ionization: ESI
Fragmentation mode: HCD
Collision energy: 45 (nominal)
Resolution: 17500
Column name: Atlantis T3 3um, 3x150mm, Waters with guard column
Retention time: 8.6 min
Base peak: 65.0597
Precursor m/z: 278.1751
Precursor type: [M+H]+
m/z	relative intensity	assigned
55.0178	7	C3H3O+
57.0698	11	C4H9+
58.0651	12	C3H8N+
79.0543	9	C6H7+
95.0494	7	C6H7O+
121.0649	999	C8H9O+
135.0807	12	C9H11O+
149.0234	35	C8H5O3+
159.0805	25	C11H11O+
164.107	37	C10H14NO+
171.0805	933	C12H11O+
185.0964	24	C13H13O+
211.112	9	C15H15O+
236.1728	42	C10H24N2O4+
260.1636	23	C16H22NO2+
