Mass spectrum: NVE_274.1802_16.6; LC-ESI-QFT; MS2; CE: 75; R=17500; [M+H]+
Name: NVE_274.1802_16.6
Formula: C17H23NO2
Exact mass: 273.1729
SMILES: COC1=CC=C(C=C1)C(CNC(C)=O)C1=CCCCC1
InChI: InChI=1S/C17H23NO2/c1-13(19)18-12-17(14-6-4-3-5-7-14)15-8-10-16(20-2)11-9-15/h6,8-11,17H,3-5,7,12H2,1-2H3,(H,18,19)
Instrument: Q Exactive Plus Orbitrap Thermo Scientific
Instrument type: LC-ESI-QFT
Ms type: MS2
Ion mode: POSITIVE
Ionization: ESI
Fragmentation mode: HCD
Collision energy: 75 (nominal)
Resolution: 17500
Column name: Atlantis T3 3um, 3x150mm, Waters with guard column
Retention time: 16.2 min
Base peak: 65.0597
Precursor m/z: 274.1802
Precursor type: [M+H]+
m/z	relative intensity	assigned
53.0386	30	C4H5+
55.0541	61	C4H7+
56.0495	50	C3H6N+
57.0698	150	C4H9+
60.0443	140	C2H6NO+
60.0808	537	C3H10N+
61.0396	70	CH5N2O+
67.0542	127	C5H7+
69.07	107	C5H9+
70.065	210	C4H8N+
71.0857	34	C5H11+
79.0541	278	C6H7+
81.0698	258	C6H9+
88.0756	77	C4H10NO+
91.0544	461	C7H7+
93.0698	75	C7H9+
95.0493	51	C6H7O+
95.0853	52	C7H11+
105.0448	38	C6H5N2+
105.0697	173	C8H9+
107.0858	53	C8H11+
109.0645	35	C7H9O+
115.0547	53	C9H7+
117.0697	48	C9H9+
118.0651	48	C8H8N+
121.0648	999	C8H9O+
124.112	232	C8H14N+
129.0698	47	C10H9+
133.065	126	C9H9O+
135.0801	53	C9H11O+
143.0853	53	C11H11+
144.0574	38	C10H8O+
147.0802	213	C10H11O+
150.0921	50	C9H12NO+
155.0851	33	C12H11+
158.0727	134	C11H10O+
159.0805	125	C11H11O+
173.0966	68	C12H13O+
