Mass spectrum: NVE_247.1330_17.3; LC-ESI-QFT; MS2; CE: 15; R=17500; [M+H]+
Name: NVE_247.1330_17.3
Formula: C15H18O3
Exact mass: 246.1256
SMILES: COC1=CC=C(C=C1)C(C(O)=O)C1=CCCCC1
InChI: InChI=1S/C15H18O3/c1-18-13-9-7-12(8-10-13)14(15(16)17)11-5-3-2-4-6-11/h5,7-10,14H,2-4,6H2,1H3,(H,16,17)
Instrument: Q Exactive Plus Orbitrap Thermo Scientific
Instrument type: LC-ESI-QFT
Ms type: MS2
Ion mode: POSITIVE
Ionization: ESI
Fragmentation mode: HCD
Collision energy: 15 (nominal)
Resolution: 17500
Column name: Atlantis T3 3um, 3x150mm, Waters with guard column
Retention time: 16.9 min
Base peak: 65.0597
Precursor m/z: 247.1329
Precursor type: [M+H]+
m/z	relative intensity	assigned
57.0699	21	C4H9+
59.0491	66	C3H7O+
85.1012	35	C6H13+
89.0598	69	C4H9O2+
93.0695	20	C7H9+
99.0806	29	C6H11O+
101.0596	20	C5H9O2+
115.0752	122	C6H11O2+
121.0647	292	C8H9O+
121.1014	15	C9H13+
135.0801	18	C9H11O+
137.0597	21	C8H9O2+
139.0753	476	C8H11O2+
165.0547	745	C9H9O3+
173.0966	32	C12H13O+
187.149	23	C14H19+
201.1274	999	C14H17O+
219.138	174	C14H19O2+
229.1223	206	C15H17O2+
247.1331	559	C15H19O3+
