Mass spectrum: NVE_280.1909_11.8; LC-ESI-QFT; MS2; CE: 30; R=17500; [M+H]+
Name: NVE_280.1909_11.8
Formula: C16H25NO3
Exact mass: 279.1834
Instrument: Q Exactive Plus Orbitrap Thermo Scientific
Instrument type: LC-ESI-QFT
Ms type: MS2
Ion mode: POSITIVE
Ionization: ESI
Fragmentation mode: HCD
Collision energy: 30 (nominal)
Resolution: 17500
Column name: Atlantis T3 3um, 3x150mm, Waters with guard column
Retention time: 11.8 min
Base peak: 65.0597
Precursor m/z: 280.1907
Precursor type: [M+H]+
m/z	relative intensity	assigned
57.0698	134	C4H9+
60.0807	12	C3H10N+
87.0439	19	C4H7O2+
88.0757	14	C4H10NO+
101.0596	61	C5H9O2+
115.0751	11	C6H11O2+
121.0647	769	C8H9O+
123.0805	36	C8H11O+
135.0438	54	C8H7O2+
145.0644	10	C10H9O+
147.0807	12	C10H11O+
149.0233	999	C8H5O3+
164.1066	60	C10H14NO+
167.0342	10	C8H7O4+
171.0801	36	C12H11O+
201.1273	287	C14H17O+
205.1215	11	C13H17O2+
213.1275	541	C15H17O+
231.1379	580	C15H19O2+
244.1694	228	C16H22NO+
262.1794	152	C16H24NO2+
280.1905	924	C16H26NO3+
