Mass spectrum: NVE_280.1909_11.8; LC-ESI-QFT; MS2; CE: 45; R=17500; [M+H]+
Name: NVE_280.1909_11.8
Formula: C16H25NO3
Exact mass: 279.1834
Instrument: Q Exactive Plus Orbitrap Thermo Scientific
Instrument type: LC-ESI-QFT
Ms type: MS2
Ion mode: POSITIVE
Ionization: ESI
Fragmentation mode: HCD
Collision energy: 45 (nominal)
Resolution: 17500
Column name: Atlantis T3 3um, 3x150mm, Waters with guard column
Retention time: 11.8 min
Base peak: 65.0597
Precursor m/z: 280.1907
Precursor type: [M+H]+
m/z	relative intensity	assigned
55.0542	5	C4H7+
57.0699	66	C4H9+
59.0491	6	C3H7O+
60.0807	7	C3H10N+
67.0543	4	C5H7+
73.0646	6	C4H9O+
79.0541	20	C6H7+
81.07	10	C6H9+
87.0437	7	C4H7O2+
88.0756	20	C4H10NO+
91.0542	5	C7H7+
95.0857	10	C7H11+
97.0652	5	C6H9O+
101.0595	25	C5H9O2+
105.07	8	C8H9+
115.0757	9	C6H11O2+
121.0648	999	C8H9O+
123.0804	43	C8H11O+
135.0441	106	C8H7O2+
135.0803	6	C9H11O+
145.0651	12	C10H9O+
147.0804	29	C10H11O+
149.0234	614	C8H5O3+
159.0804	37	C11H11O+
164.1074	52	C10H14NO+
171.0804	122	C12H11O+
198.1037	39	C14H14O+
201.1272	95	C14H17O+
205.1233	8	C13H17O2+
213.1275	232	C15H17O+
231.1383	58	C15H19O2+
244.17	69	C16H22NO+
