Mass spectrum: NVE_250.1804_10.8; LC-ESI-QFT; MS2; CE: 15-90; R=17500; [M+H]+
Name: NVE_250.1804_10.8
Name: N,O-didesmethylvenlafaxine
Name: 4-[1-(1-hydroxycyclohexyl)-2-(methylamino)ethyl]phenol
Formula: C15H23NO2
Exact mass: 249.1729
SMILES: CNCC(C1=CC=C(O)C=C1)C1(O)CCCCC1
InChI: InChI=1S/C15H23NO2/c1-16-11-14(12-5-7-13(17)8-6-12)15(18)9-3-2-4-10-15/h5-8,14,16-18H,2-4,9-11H2,1H3
Instrument: Q Exactive Orbitrap Thermo Scientific
Instrument type: LC-ESI-QFT
Ms type: MS2
Ion mode: POSITIVE
Ionization: ESI
Fragmentation mode: HCD
Collision energy: 15, 30, 45, 60, 70 or 90 (nominal)
Resolution: 17500
Column name: Atlantis T3 3um, 3x150mm, Waters with guard column
Retention time: 11.0 min
Base peak: 250.1799
Precursor m/z: 250.1802
Precursor type: [M+H]+
m/z	relative intensity	assigned
69.07	9	C5H9+
79.0545	3	C6H7+
81.0698	27	C6H9+
93.0697	3	C7H9+
95.0856	9	C7H11+
107.0489	264	C7H7O+
119.0494	3	C8H7O+
121.0643	5	C8H9O+
131.0488	3	C9H7O+
133.0645	310	C9H9O+
138.1277	9	C9H16N+
145.0646	64	C10H9O+
150.0913	18	C9H12NO+
159.0803	73	C11H11O+
173.096	22	C12H13O+
201.1271	659	C14H17O+
219.1381	2	C14H19O2+
232.1693	999	C15H22NO+
250.1798	343	C15H24NO2+
