Mass spectrum: NVE_278.1753_15.6; LC-ESI-QFT; MS2; CE: (160-0.41mz or 15) NCE; R=17500; [M+H]+
Name: NVE_278.1753_15.6
Formula: C16H23NO3
Exact mass: 277.1678
Instrument: Q Exactive Orbitrap Thermo Scientific
Instrument type: LC-ESI-QFT
Ms type: MS2
Ion mode: POSITIVE
Ionization: ESI
Fragmentation mode: HCD
Collision energy: 160-0.41mz or 15 (mz>350) nominal units
Resolution: 17500
Column name: Atlantis T3 3um, 3x150mm, Waters with guard column
Retention time: 15.6 min
Base peak: 164.9846
Precursor m/z: 278.1751
Precursor type: [M+H]+
m/z	relative intensity	assigned
57.0335	35	C3H5O+
72.0445	705	C3H6NO+
81.0701	109	C6H9+
85.0644	34	C5H9O+
97.0649	285	C6H9O+
99.0805	195	C6H11O+
109.0649	132	C7H9O+
115.0755	79	C6H11O2+
121.0647	233	C8H9O+
123.0805	42	C8H11O+
127.0752	37	C7H11O2+
131.0731	252	C9H9N+
141.0906	75	C8H13O2+
147.068	699	C9H9NO+
148.0758	154	C9H10NO+
162.0915	867	C10H12NO+
163.0991	999	C10H13NO+
180.1021	209	C10H14NO2+
