Mass spectrum: NVE_274.1802_16.6; LC-ESI-QFT; MS2; CE: 90; R=17500; [M+H]+
Name: NVE_274.1802_16.6
Formula: C17H23NO2
Exact mass: 273.1729
SMILES: COC1=CC=C(C=C1)C(CNC(C)=O)C1=CCCCC1
InChI: InChI=1S/C17H23NO2/c1-13(19)18-12-17(14-6-4-3-5-7-14)15-8-10-16(20-2)11-9-15/h6,8-11,17H,3-5,7,12H2,1-2H3,(H,18,19)
Instrument: Q Exactive Plus Orbitrap Thermo Scientific
Instrument type: LC-ESI-QFT
Ms type: MS2
Ion mode: POSITIVE
Ionization: ESI
Fragmentation mode: HCD
Collision energy: 90 (nominal)
Resolution: 17500
Column name: Atlantis T3 3um, 3x150mm, Waters with guard column
Retention time: 16.2 min
Base peak: 65.0597
Precursor m/z: 274.1802
Precursor type: [M+H]+
m/z	relative intensity	assigned
53.0385	62	C4H5+
55.0542	209	C4H7+
56.0496	82	C3H6N+
57.0698	228	C4H9+
60.0444	76	C2H6NO+
60.0808	593	C3H10N+
61.0396	75	CH5N2O+
67.0542	183	C5H7+
70.0651	239	C4H8N+
79.0544	478	C6H7+
81.0699	440	C6H9+
88.0757	56	C4H10NO+
91.0542	934	C7H7+
93.07	44	C7H9+
95.0493	169	C6H7O+
95.0853	43	C7H11+
105.0448	90	C6H5N2+
105.07	213	C8H9+
109.065	46	C7H9O+
115.0542	106	C9H7+
117.0699	94	C9H9+
118.0649	65	C8H8N+
121.0648	999	C8H9O+
129.0699	55	C10H9+
133.0649	181	C9H9O+
135.0807	55	C9H11O+
141.07	94	C11H9+
144.0566	87	C10H8O+
147.0804	80	C10H11O+
158.0728	105	C11H10O+
159.0809	59	C11H11O+
173.096	48	C12H13O+
