Mass spectrum: NVE_264.1959_12.6; LC-ESI-QFT; MS2; CE: 15-90; R=17500; [M+H]+
Name: NVE_264.1959_12.6
Name: N-desmethylvenlafaxine
Name: 1-[1-(4-methoxyphenyl)-2-(methylamino)ethyl]cyclohexan-1-ol
Formula: C16H25NO2
Exact mass: 263.1885
SMILES: CNCC(C1=CC=C(OC)C=C1)C1(O)CCCCC1
InChI: InChI=1S/C16H25NO2/c1-17-12-15(16(18)10-4-3-5-11-16)13-6-8-14(19-2)9-7-13/h6-9,15,17-18H,3-5,10-12H2,1-2H3
Instrument: Q Exactive Orbitrap Thermo Scientific
Instrument type: LC-ESI-QFT
Ms type: MS2
Ion mode: POSITIVE
Ionization: ESI
Fragmentation mode: HCD
Collision energy: 15, 30, 45, 60, 70 or 90 (nominal)
Resolution: 17500
Column name: Atlantis T3 3um, 3x150mm, Waters with guard column
Retention time: 12.9 min
Base peak: 264.1957
Precursor m/z: 264.1958
Precursor type: [M+H]+
m/z	relative intensity	assigned
67.0545	9	C5H7+
69.07	37	C5H9+
78.0464	4	C6H6+
79.0543	41	C6H7+
81.0699	63	C6H9+
83.0854	4	C6H11+
91.0542	41	C7H7+
93.07	24	C7H9+
107.0492	5	C7H7O+
107.0855	64	C8H11+
109.0646	11	C7H9O+
119.0854	4	C9H11+
121.0647	999	C8H9O+
132.0572	22	C9H8O+
133.0651	3	C9H9O+
135.0804	64	C9H11O+
138.1281	24	C9H16N+
145.0644	10	C10H9O+
147.0804	642	C10H11O+
149.0844	17	
158.0725	14	C11H10O+
159.0804	168	C11H11O+
161.0957	14	C11H13O+
163.0989	12	C10H13NO+
164.107	38	C10H14NO+
173.096	219	C12H13O+
174.1042	3	C12H14O+
183.1171	18	C14H15+
187.112	16	C13H15O+
215.143	254	C15H19O+
246.1851	36	C16H24NO+
