Mass spectrum: NVE_278.1753_8.8; LC-ESI-QFT; MS2; CE: 15; R=17500; [M+H]+
Name: NVE_278.1753_8.8
Formula: C16H23NO3
Exact mass: 277.1678
Instrument: Q Exactive Plus Orbitrap Thermo Scientific
Instrument type: LC-ESI-QFT
Ms type: MS2
Ion mode: POSITIVE
Ionization: ESI
Fragmentation mode: HCD
Collision energy: 15 (nominal)
Resolution: 17500
Column name: Atlantis T3 3um, 3x150mm, Waters with guard column
Retention time: 8.6 min
Base peak: 65.0597
Precursor m/z: 278.1751
Precursor type: [M+H]+
m/z	relative intensity	assigned
121.0648	56	C8H9O+
149.0234	17	C8H5O3+
171.0804	239	C12H11O+
211.1122	5	C15H15O+
229.1227	45	C15H17O2+
260.1646	999	C16H22NO2+
