Mass spectrum: NVE_278.1753_9.6; LC-ESI-QFT; MS2; CE: 60; R=17500; [M+H]+
Name: NVE_278.1753_9.6
Formula: C16H23NO3
Exact mass: 277.1678
Instrument: Q Exactive Plus Orbitrap Thermo Scientific
Instrument type: LC-ESI-QFT
Ms type: MS2
Ion mode: POSITIVE
Ionization: ESI
Fragmentation mode: HCD
Collision energy: 60 (nominal)
Resolution: 17500
Column name: Atlantis T3 3um, 3x150mm, Waters with guard column
Retention time: 9.5 min
Base peak: 65.0597
Precursor m/z: 278.1751
Precursor type: [M+H]+
m/z	relative intensity	assigned
57.0698	252	C4H9+
58.0651	84	C3H8N+
91.0545	60	C7H7+
121.0648	999	C8H9O+
134.096	45	C9H12N+
149.0232	97	C8H5O3+
171.0804	66	C12H11O+
180.11	55	C6H16N2O4+
