Mass spectrum: NVE_278.1753_8.8; LC-ESI-QFT; MS2; CE: 30; R=17500; [M+H]+
Name: NVE_278.1753_8.8
Formula: C16H23NO3
Exact mass: 277.1678
Instrument: Q Exactive Plus Orbitrap Thermo Scientific
Instrument type: LC-ESI-QFT
Ms type: MS2
Ion mode: POSITIVE
Ionization: ESI
Fragmentation mode: HCD
Collision energy: 30 (nominal)
Resolution: 17500
Column name: Atlantis T3 3um, 3x150mm, Waters with guard column
Retention time: 8.6 min
Base peak: 65.0597
Precursor m/z: 278.1751
Precursor type: [M+H]+
m/z	relative intensity	assigned
95.0488	6	C6H7O+
121.0648	378	C8H9O+
149.0234	35	C8H5O3+
164.1072	30	C10H14NO+
171.0805	999	C12H11O+
185.0961	6	C13H13O+
211.1123	24	C15H15O+
229.122	49	C15H17O2+
236.1721	28	C10H24N2O4+
260.1646	329	C16H22NO2+
