Mass spectrum: NVE_280.1909_11.8; LC-ESI-QFT; MS2; CE: 90; R=17500; [M+H]+
Name: NVE_280.1909_11.8
Formula: C16H25NO3
Exact mass: 279.1834
Instrument: Q Exactive Plus Orbitrap Thermo Scientific
Instrument type: LC-ESI-QFT
Ms type: MS2
Ion mode: POSITIVE
Ionization: ESI
Fragmentation mode: HCD
Collision energy: 90 (nominal)
Resolution: 17500
Column name: Atlantis T3 3um, 3x150mm, Waters with guard column
Retention time: 11.8 min
Base peak: 65.0597
Precursor m/z: 280.1907
Precursor type: [M+H]+
m/z	relative intensity	assigned
53.0385	27	C4H5+
55.0177	14	C3H3O+
55.0541	12	C4H7+
57.0698	8	C4H9+
65.0386	251	C5H5+
67.0541	38	C5H7+
69.07	24	C5H9+
78.0463	68	C6H6+
79.0542	78	C6H7+
81.0699	16	C6H9+
91.0543	222	C7H7+
93.0335	27	C6H5O+
93.0696	10	C7H9+
95.0492	84	C6H7O+
95.0856	12	C7H11+
97.065	8	C6H9O+
103.054	9	C8H7+
105.0445	63	C6H5N2+
105.07	26	C8H9+
111.0443	33	C6H7O2+
119.049	6	C8H7O+
121.0284	150	C7H5O2+
121.0648	999	C8H9O+
122.032	105	C2H6N2O4+
128.0621	42	C10H8+
135.044	28	C8H7O2+
144.0567	9	C10H8O+
145.0655	11	C10H9O+
148.0756	9	C9H10NO+
149.0235	138	C8H5O3+
159.0802	15	C11H11O+
170.0723	7	C12H10O+
171.0796	50	C12H11O+
