Mass spectrum: NVE_278.1753_8.8; LC-ESI-QFT; MS2; CE: 60; R=17500; [M+H]+
Name: NVE_278.1753_8.8
Formula: C16H23NO3
Exact mass: 277.1678
Instrument: Q Exactive Plus Orbitrap Thermo Scientific
Instrument type: LC-ESI-QFT
Ms type: MS2
Ion mode: POSITIVE
Ionization: ESI
Fragmentation mode: HCD
Collision energy: 60 (nominal)
Resolution: 17500
Column name: Atlantis T3 3um, 3x150mm, Waters with guard column
Retention time: 8.6 min
Base peak: 65.0597
Precursor m/z: 278.1751
Precursor type: [M+H]+
m/z	relative intensity	assigned
57.0699	6	C4H9+
58.0652	8	C3H8N+
79.0543	10	C6H7+
91.0543	26	C7H7+
95.0493	21	C6H7O+
105.0699	8	C8H9+
121.0649	999	C8H9O+
128.062	20	C10H8+
135.0807	10	C9H11O+
149.0237	23	C8H5O3+
149.0838	8	C9H11NO+
156.0574	20	C11H8O+
159.0805	34	C11H11O+
164.1065	10	C10H14NO+
171.0805	539	C12H11O+
185.0965	11	C13H13O+
