Mass spectrum: NVE_278.1753_9.6; LC-ESI-QFT; MS2; CE: 30; R=17500; [M+H]+
Name: NVE_278.1753_9.6
Formula: C16H23NO3
Exact mass: 277.1678
Instrument: Q Exactive Plus Orbitrap Thermo Scientific
Instrument type: LC-ESI-QFT
Ms type: MS2
Ion mode: POSITIVE
Ionization: ESI
Fragmentation mode: HCD
Collision energy: 30 (nominal)
Resolution: 17500
Column name: Atlantis T3 3um, 3x150mm, Waters with guard column
Retention time: 9.5 min
Base peak: 65.0597
Precursor m/z: 278.1751
Precursor type: [M+H]+
m/z	relative intensity	assigned
121.065	442	C8H9O+
134.0966	66	C9H12N+
149.024	225	C8H5O3+
211.1123	118	C15H15O+
217.1228	999	C14H17O2+
235.1335	90	C14H19O3+
236.1721	366	C10H24N2O4+
260.1649	263	C16H22NO2+
