Mass spectrum: NVE_274.1802_16.6; LC-ESI-QFT; MS2; CE: 60; R=17500; [M+H]+
Name: NVE_274.1802_16.6
Formula: C17H23NO2
Exact mass: 273.1729
SMILES: COC1=CC=C(C=C1)C(CNC(C)=O)C1=CCCCC1
InChI: InChI=1S/C17H23NO2/c1-13(19)18-12-17(14-6-4-3-5-7-14)15-8-10-16(20-2)11-9-15/h6,8-11,17H,3-5,7,12H2,1-2H3,(H,18,19)
Instrument: Q Exactive Plus Orbitrap Thermo Scientific
Instrument type: LC-ESI-QFT
Ms type: MS2
Ion mode: POSITIVE
Ionization: ESI
Fragmentation mode: HCD
Collision energy: 60 (nominal)
Resolution: 17500
Column name: Atlantis T3 3um, 3x150mm, Waters with guard column
Retention time: 16.2 min
Base peak: 65.0597
Precursor m/z: 274.1802
Precursor type: [M+H]+
m/z	relative intensity	assigned
55.0543	37	C4H7+
57.0699	255	C4H9+
60.0444	170	C2H6NO+
60.0808	470	C3H10N+
61.0395	51	CH5N2O+
67.0541	110	C5H7+
69.0697	40	C5H9+
70.0651	344	C4H8N+
71.0856	48	C5H11+
72.0444	28	C3H6NO+
79.0542	148	C6H7+
81.0699	218	C6H9+
88.0757	337	C4H10NO+
91.0543	133	C7H7+
93.0699	46	C7H9+
95.0855	107	C7H11+
102.0911	52	C5H12NO+
105.0699	121	C8H9+
106.0863	119	C4H12NO2+
107.0855	182	C8H11+
109.1014	38	C8H13+
117.0704	49	C9H9+
121.0648	999	C8H9O+
124.1122	377	C8H14N+
133.0646	67	C9H9O+
135.0805	121	C9H11O+
141.0702	27	C11H9+
143.0859	32	C11H11+
147.0805	417	C10H11O+
150.0912	119	C9H12NO+
158.0724	33	C11H10O+
159.0805	200	C11H11O+
173.0962	259	C12H13O+
183.1169	113	C14H15+
215.1429	233	C15H19O+
