Mass spectrum: NVE_250.1804_10.8; LC-ESI-QFT; MS2; CE: 15-90; R=17500; [M+H]+
Name: NVE_250.1804_10.8
Name: N,O-didesmethylvenlafaxine
Name: 4-[1-(1-hydroxycyclohexyl)-2-(methylamino)ethyl]phenol
Formula: C15H23NO2
Exact mass: 249.1729
SMILES: CNCC(C1=CC=C(O)C=C1)C1(O)CCCCC1
InChI: InChI=1S/C15H23NO2/c1-16-11-14(12-5-7-13(17)8-6-12)15(18)9-3-2-4-10-15/h5-8,14,16-18H,2-4,9-11H2,1H3
Instrument: Q Exactive Orbitrap Thermo Scientific
Instrument type: LC-ESI-QFT
Ms type: MS2
Ion mode: POSITIVE
Ionization: ESI
Fragmentation mode: HCD
Collision energy: 15, 30, 45, 60, 70 or 90 (nominal)
Resolution: 17500
Column name: Atlantis T3 3um, 3x150mm, Waters with guard column
Retention time: 11.0 min
Base peak: 250.1799
Precursor m/z: 250.1802
Precursor type: [M+H]+
m/z	relative intensity	assigned
67.0544	18	C5H7+
69.07	32	C5H9+
77.0387	8	C6H5+
79.0542	149	C6H7+
81.0698	120	C6H9+
91.0542	64	C7H7+
93.0697	4	C7H9+
95.049	64	C6H7O+
95.0854	7	C7H11+
103.0541	17	C8H7+
105.045	13	C6H5N2+
105.0697	222	C8H9+
107.049	999	C7H7O+
109.0648	2	C7H9O+
115.0538	21	C9H7+
117.0697	20	C9H9+
119.0489	10	C8H7O+
121.0647	40	C8H9O+
129.0693	3	C10H9+
131.0493	23	C9H7O+
131.0855	33	C10H11+
132.057	3	C9H8O+
133.0646	446	C9H9O+
135.0677	38	C8H9NO+
141.0695	20	C11H9+
144.0567	44	C10H8O+
145.0646	103	C10H9O+
147.0801	12	C10H11O+
149.0832	10	C9H11NO+
150.0913	7	C9H12NO+
155.0601	9	C10H7N2+
159.0802	97	C11H11O+
169.076	8	C11H9N2+
