Mass spectrum: NVE_247.1330_17.3; LC-ESI-QFT; MS2; CE: 45; R=17500; [M+H]+
Name: NVE_247.1330_17.3
Formula: C15H18O3
Exact mass: 246.1256
SMILES: COC1=CC=C(C=C1)C(C(O)=O)C1=CCCCC1
InChI: InChI=1S/C15H18O3/c1-18-13-9-7-12(8-10-13)14(15(16)17)11-5-3-2-4-6-11/h5,7-10,14H,2-4,6H2,1H3,(H,16,17)
Instrument: Q Exactive Plus Orbitrap Thermo Scientific
Instrument type: LC-ESI-QFT
Ms type: MS2
Ion mode: POSITIVE
Ionization: ESI
Fragmentation mode: HCD
Collision energy: 45 (nominal)
Resolution: 17500
Column name: Atlantis T3 3um, 3x150mm, Waters with guard column
Retention time: 16.9 min
Base peak: 65.0597
Precursor m/z: 247.1329
Precursor type: [M+H]+
m/z	relative intensity	assigned
55.0543	52	C4H7+
57.0699	123	C4H9+
59.0492	215	C3H7O+
67.0541	57	C5H7+
69.0698	123	C5H9+
71.0492	28	C4H7O+
79.0541	49	C6H7+
81.07	163	C6H9+
83.0492	39	C5H7O+
83.0854	63	C6H11+
91.0544	44	C7H7+
93.07	289	C7H9+
95.0495	33	C6H7O+
95.0855	115	C7H11+
97.0647	41	C6H9O+
98.0963	30	C6H12N+
99.0806	56	C6H11O+
101.0598	44	C5H9O2+
105.07	48	C8H9+
107.0855	51	C8H11+
109.0649	154	C7H9O+
115.0757	27	C6H11O2+
119.0853	46	C9H11+
121.0648	999	C8H9O+
121.1011	60	C9H13+
131.0859	57	C10H11+
133.1011	55	C10H13+
135.0803	50	C9H11O+
135.1165	40	C10H15+
137.0598	582	C8H9O2+
139.0754	280	C8H11O2+
145.1011	113	C11H13+
147.0807	32	C10H11O+
147.1168	44	C11H15+
159.0805	275	C11H11O+
159.1171	115	C12H15+
165.0547	914	C9H9O3+
173.0955	193	C12H13O+
173.1322	55	C13H17+
187.1479	123	C14H19+
201.1276	583	C14H17O+
229.1232	35	C15H17O2+
247.1325	38	C15H19O3+
