Mass spectrum: NVE_278.1753_9.6; LC-ESI-QFT; MS2; CE: 75; R=17500; [M+H]+
Name: NVE_278.1753_9.6
Formula: C16H23NO3
Exact mass: 277.1678
Instrument: Q Exactive Plus Orbitrap Thermo Scientific
Instrument type: LC-ESI-QFT
Ms type: MS2
Ion mode: POSITIVE
Ionization: ESI
Fragmentation mode: HCD
Collision energy: 75 (nominal)
Resolution: 17500
Column name: Atlantis T3 3um, 3x150mm, Waters with guard column
Retention time: 9.5 min
Base peak: 65.0597
Precursor m/z: 278.1751
Precursor type: [M+H]+
m/z	relative intensity	assigned
57.0698	86	C4H9+
58.0651	53	C3H8N+
79.0542	43	C6H7+
91.0544	199	C7H7+
95.0491	48	C6H7O+
121.0648	999	C8H9O+
149.0237	40	C8H5O3+
