Mass spectrum: NVE_280.1909_11.8; LC-ESI-QFT; MS2; CE: 75; R=17500; [M+H]+
Name: NVE_280.1909_11.8
Formula: C16H25NO3
Exact mass: 279.1834
Instrument: Q Exactive Plus Orbitrap Thermo Scientific
Instrument type: LC-ESI-QFT
Ms type: MS2
Ion mode: POSITIVE
Ionization: ESI
Fragmentation mode: HCD
Collision energy: 75 (nominal)
Resolution: 17500
Column name: Atlantis T3 3um, 3x150mm, Waters with guard column
Retention time: 11.8 min
Base peak: 65.0597
Precursor m/z: 280.1907
Precursor type: [M+H]+
m/z	relative intensity	assigned
53.0383	7	C4H5+
55.0179	8	C3H3O+
55.0541	6	C4H7+
57.0699	45	C4H9+
59.0491	7	C3H7O+
65.0385	65	C5H5+
67.0541	29	C5H7+
69.0697	12	C5H9+
78.0462	7	C6H6+
79.0542	66	C6H7+
81.0696	17	C6H9+
91.0543	108	C7H7+
93.0334	11	C6H5O+
93.07	7	C7H9+
95.0492	34	C6H7O+
95.0857	22	C7H11+
97.0649	11	C6H9O+
103.0545	7	C8H7+
105.0448	11	C6H5N2+
105.0698	26	C8H9+
111.0443	12	C6H7O2+
115.0754	5	C6H11O2+
121.0287	134	C7H5O2+
121.0648	999	C8H9O+
122.0318	122	C2H6N2O4+
123.0803	8	C8H11O+
128.0621	9	C10H8+
135.044	65	C8H7O2+
135.0803	6	C9H11O+
144.0566	4	C10H8O+
145.0649	30	C10H9O+
147.0807	31	C10H11O+
148.0757	20	C9H10NO+
149.0234	280	C8H5O3+
159.0805	25	C11H11O+
171.0806	107	C12H11O+
198.1042	9	C14H14O+
213.1276	7	C15H17O+
