Mass spectrum: NVE_280.1909_11.8; LC-ESI-QFT; MS2; CE: 60; R=17500; [M+H]+
Name: NVE_280.1909_11.8
Formula: C16H25NO3
Exact mass: 279.1834
Instrument: Q Exactive Plus Orbitrap Thermo Scientific
Instrument type: LC-ESI-QFT
Ms type: MS2
Ion mode: POSITIVE
Ionization: ESI
Fragmentation mode: HCD
Collision energy: 60 (nominal)
Resolution: 17500
Column name: Atlantis T3 3um, 3x150mm, Waters with guard column
Retention time: 11.8 min
Base peak: 65.0597
Precursor m/z: 280.1907
Precursor type: [M+H]+
m/z	relative intensity	assigned
55.0542	6	C4H7+
57.0699	71	C4H9+
59.0491	7	C3H7O+
60.0808	10	C3H10N+
65.0387	8	C5H5+
67.0541	21	C5H7+
69.0699	11	C5H9+
73.0648	6	C4H9O+
79.0542	36	C6H7+
81.0699	22	C6H9+
88.0758	5	C4H10NO+
91.0542	31	C7H7+
93.0699	6	C7H9+
95.0492	7	C6H7O+
95.0854	24	C7H11+
97.0648	23	C6H9O+
101.0598	6	C5H9O2+
105.0699	22	C8H9+
119.0494	5	C8H7O+
121.0285	71	C7H5O2+
121.0648	999	C8H9O+
122.032	48	C2H6N2O4+
123.0806	34	C8H11O+
135.0442	104	C8H7O2+
135.0801	18	C9H11O+
145.0649	28	C10H9O+
147.081	36	C10H11O+
148.0753	9	C9H10NO+
149.0234	517	C8H5O3+
159.0801	36	C11H11O+
164.1077	24	C10H14NO+
170.0723	7	C12H10O+
171.0805	156	C12H11O+
198.1045	28	C14H14O+
201.1268	19	C14H17O+
213.1273	47	C15H17O+
244.1693	11	C16H22NO+
