Mass spectrum: NVE_264.1959_12.6; LC-ESI-QFT; MS2; CE: 15-90; R=17500; [M+H]+
Name: NVE_264.1959_12.6
Name: N-desmethylvenlafaxine
Name: 1-[1-(4-methoxyphenyl)-2-(methylamino)ethyl]cyclohexan-1-ol
Formula: C16H25NO2
Exact mass: 263.1885
SMILES: CNCC(C1=CC=C(OC)C=C1)C1(O)CCCCC1
InChI: InChI=1S/C16H25NO2/c1-17-12-15(16(18)10-4-3-5-11-16)13-6-8-14(19-2)9-7-13/h6-9,15,17-18H,3-5,10-12H2,1-2H3
Instrument: Q Exactive Orbitrap Thermo Scientific
Instrument type: LC-ESI-QFT
Ms type: MS2
Ion mode: POSITIVE
Ionization: ESI
Fragmentation mode: HCD
Collision energy: 15, 30, 45, 60, 70 or 90 (nominal)
Resolution: 17500
Column name: Atlantis T3 3um, 3x150mm, Waters with guard column
Retention time: 12.9 min
Base peak: 264.1957
Precursor m/z: 264.1958
Precursor type: [M+H]+
m/z	relative intensity	assigned
67.0544	2	C5H7+
69.07	3	C5H9+
79.0543	10	C6H7+
81.07	15	C6H9+
91.054	4	C7H7+
93.0696	4	C7H9+
107.0854	34	C8H11+
121.0647	543	C8H9O+
123.0803	2	C8H11O+
132.0566	2	C9H8O+
135.0804	23	C9H11O+
138.1276	33	C9H16N+
145.0648	3	C10H9O+
147.0804	289	C10H11O+
159.0805	71	C11H11O+
164.1071	20	C10H14NO+
173.0961	96	C12H13O+
183.1165	3	C14H15+
187.111	4	C13H15O+
215.143	999	C15H19O+
246.1852	670	C16H24NO+
264.1957	160	C16H26NO2+
