Mass spectrum: NVE_278.1753_8.8; LC-ESI-QFT; MS2; CE: 90; R=17500; [M+H]+
Name: NVE_278.1753_8.8
Formula: C16H23NO3
Exact mass: 277.1678
Instrument: Q Exactive Plus Orbitrap Thermo Scientific
Instrument type: LC-ESI-QFT
Ms type: MS2
Ion mode: POSITIVE
Ionization: ESI
Fragmentation mode: HCD
Collision energy: 90 (nominal)
Resolution: 17500
Column name: Atlantis T3 3um, 3x150mm, Waters with guard column
Retention time: 8.6 min
Base peak: 65.0597
Precursor m/z: 278.1751
Precursor type: [M+H]+
m/z	relative intensity	assigned
53.0386	43	C4H5+
55.0177	7	C3H3O+
57.0698	14	C4H9+
78.0465	96	C6H6+
79.0542	32	C6H7+
91.0543	188	C7H7+
93.07	13	C7H9+
95.0492	105	C6H7O+
103.0543	16	C8H7+
105.0448	78	C6H5N2+
105.0699	9	C8H9+
115.0542	34	C9H7+
121.0649	999	C8H9O+
128.0622	240	C10H8+
141.07	34	C11H9+
144.0574	14	C10H8O+
156.0574	38	C11H8O+
171.0804	109	C12H11O+
