Mass spectrum: NVE_247.1330_17.3; LC-ESI-QFT; MS2; CE: 60; R=17500; [M+H]+
Name: NVE_247.1330_17.3
Formula: C15H18O3
Exact mass: 246.1256
SMILES: COC1=CC=C(C=C1)C(C(O)=O)C1=CCCCC1
InChI: InChI=1S/C15H18O3/c1-18-13-9-7-12(8-10-13)14(15(16)17)11-5-3-2-4-6-11/h5,7-10,14H,2-4,6H2,1H3,(H,16,17)
Instrument: Q Exactive Plus Orbitrap Thermo Scientific
Instrument type: LC-ESI-QFT
Ms type: MS2
Ion mode: POSITIVE
Ionization: ESI
Fragmentation mode: HCD
Collision energy: 60 (nominal)
Resolution: 17500
Column name: Atlantis T3 3um, 3x150mm, Waters with guard column
Retention time: 16.9 min
Base peak: 65.0597
Precursor m/z: 247.1329
Precursor type: [M+H]+
m/z	relative intensity	assigned
53.0386	31	C4H5+
55.018	72	C3H3O+
55.0542	169	C4H7+
57.0335	36	C3H5O+
57.0699	69	C4H9+
59.0492	245	C3H7O+
67.0542	176	C5H7+
69.0699	123	C5H9+
71.0858	35	C5H11+
79.0541	162	C6H7+
81.0698	304	C6H9+
83.0495	51	C5H7O+
83.0855	35	C6H11+
91.0543	290	C7H7+
93.0699	462	C7H9+
94.0415	61	C6H6O+
95.0491	117	C6H7O+
95.0857	170	C7H11+
97.065	61	C6H9O+
98.0962	36	C6H12N+
101.0598	43	C5H9O2+
103.0543	69	C8H7+
105.0337	32	C7H5O+
105.0699	150	C8H9+
107.0857	60	C8H11+
109.0647	604	C7H9O+
117.0698	36	C9H9+
119.0858	137	C9H11+
121.0647	999	C8H9O+
121.1012	60	C9H13+
131.0856	166	C10H11+
133.0646	53	C9H9O+
135.0806	167	C9H11O+
137.0598	923	C8H9O2+
139.0755	64	C8H11O2+
145.1013	125	C11H13+
159.0802	299	C11H11O+
159.1169	54	C12H15+
165.0548	291	C9H9O3+
173.0962	230	C12H13O+
173.1333	41	C13H17+
201.1269	230	C14H17O+
