Mass spectrum: NVE_274.1802_16.6; LC-ESI-QFT; MS2; CE: 30; R=17500; [M+H]+
Name: NVE_274.1802_16.6
Formula: C17H23NO2
Exact mass: 273.1729
SMILES: COC1=CC=C(C=C1)C(CNC(C)=O)C1=CCCCC1
InChI: InChI=1S/C17H23NO2/c1-13(19)18-12-17(14-6-4-3-5-7-14)15-8-10-16(20-2)11-9-15/h6,8-11,17H,3-5,7,12H2,1-2H3,(H,18,19)
Instrument: Q Exactive Plus Orbitrap Thermo Scientific
Instrument type: LC-ESI-QFT
Ms type: MS2
Ion mode: POSITIVE
Ionization: ESI
Fragmentation mode: HCD
Collision energy: 30 (nominal)
Resolution: 17500
Column name: Atlantis T3 3um, 3x150mm, Waters with guard column
Retention time: 16.2 min
Base peak: 65.0597
Precursor m/z: 274.1802
Precursor type: [M+H]+
m/z	relative intensity	assigned
60.0442	49	C2H6NO+
60.0808	182	C3H10N+
72.0443	60	C3H6NO+
81.0698	11	C6H9+
95.0854	12	C7H11+
107.0857	77	C8H11+
121.0648	83	C8H9O+
124.112	47	C8H14N+
135.0802	15	C9H11O+
147.0801	42	C10H11O+
150.0917	21	C9H12NO+
159.0805	16	C11H11O+
166.1227	169	C10H16NO+
173.0962	16	C12H13O+
192.1018	12	C11H14NO2+
215.1431	999	C15H19O+
232.1697	165	C15H22NO+
