Mass spectrum: NVE_250.1804_10.8; LC-ESI-QFT; MS2; CE: 15-90; R=17500; [M+H]+
Name: NVE_250.1804_10.8
Name: N,O-didesmethylvenlafaxine
Name: 4-[1-(1-hydroxycyclohexyl)-2-(methylamino)ethyl]phenol
Formula: C15H23NO2
Exact mass: 249.1729
SMILES: CNCC(C1=CC=C(O)C=C1)C1(O)CCCCC1
InChI: InChI=1S/C15H23NO2/c1-16-11-14(12-5-7-13(17)8-6-12)15(18)9-3-2-4-10-15/h5-8,14,16-18H,2-4,9-11H2,1H3
Instrument: Q Exactive Orbitrap Thermo Scientific
Instrument type: LC-ESI-QFT
Ms type: MS2
Ion mode: POSITIVE
Ionization: ESI
Fragmentation mode: HCD
Collision energy: 15, 30, 45, 60, 70 or 90 (nominal)
Resolution: 17500
Column name: Atlantis T3 3um, 3x150mm, Waters with guard column
Retention time: 11.0 min
Base peak: 250.1799
Precursor m/z: 250.1802
Precursor type: [M+H]+
m/z	relative intensity	assigned
67.0543	26	C5H7+
69.07	19	C5H9+
77.0384	22	C6H5+
79.0542	271	C6H7+
81.0698	104	C6H9+
91.0541	88	C7H7+
93.0697	11	C7H9+
95.049	181	C6H7O+
103.054	53	C8H7+
105.0446	51	C6H5N2+
105.0697	323	C8H9+
107.049	999	C7H7O+
109.0644	3	C7H9O+
115.0539	56	C9H7+
117.0696	27	C9H9+
121.0646	28	C8H9O+
129.0696	13	C10H9+
131.0487	30	C9H7O+
131.0856	22	C10H11+
132.0569	3	C9H8O+
133.0645	212	C9H9O+
135.0676	37	C8H9NO+
141.0698	22	C11H9+
144.0568	61	C10H8O+
145.0647	74	C10H9O+
147.081	4	C10H11O+
149.0837	2	C9H11NO+
155.0603	18	C10H7N2+
159.0803	41	C11H11O+
169.0758	4	C11H9N2+
