Mass spectrum: NVE_264.1959_12.6; LC-ESI-QFT; MS2; CE: 15-90; R=17500; [M+H]+
Name: NVE_264.1959_12.6
Name: N-desmethylvenlafaxine
Name: 1-[1-(4-methoxyphenyl)-2-(methylamino)ethyl]cyclohexan-1-ol
Formula: C16H25NO2
Exact mass: 263.1885
SMILES: CNCC(C1=CC=C(OC)C=C1)C1(O)CCCCC1
InChI: InChI=1S/C16H25NO2/c1-17-12-15(16(18)10-4-3-5-11-16)13-6-8-14(19-2)9-7-13/h6-9,15,17-18H,3-5,10-12H2,1-2H3
Instrument: Q Exactive Orbitrap Thermo Scientific
Instrument type: LC-ESI-QFT
Ms type: MS2
Ion mode: POSITIVE
Ionization: ESI
Fragmentation mode: HCD
Collision energy: 15, 30, 45, 60, 70 or 90 (nominal)
Resolution: 17500
Column name: Atlantis T3 3um, 3x150mm, Waters with guard column
Retention time: 12.9 min
Base peak: 264.1957
Precursor m/z: 264.1958
Precursor type: [M+H]+
m/z	relative intensity	assigned
81.07	1	C6H9+
107.0851	1	C8H11+
121.0645	49	C8H9O+
135.0799	1	C9H11O+
138.1281	6	C9H16N+
147.0804	15	C10H11O+
159.08	4	C11H11O+
173.0956	4	C12H13O+
215.1431	221	C15H19O+
246.1852	999	C16H24NO+
264.1957	864	C16H26NO2+
