Mass spectrum: NVE_247.1330_17.3; LC-ESI-QFT; MS2; CE: 75; R=17500; [M+H]+
Name: NVE_247.1330_17.3
Formula: C15H18O3
Exact mass: 246.1256
SMILES: COC1=CC=C(C=C1)C(C(O)=O)C1=CCCCC1
InChI: InChI=1S/C15H18O3/c1-18-13-9-7-12(8-10-13)14(15(16)17)11-5-3-2-4-6-11/h5,7-10,14H,2-4,6H2,1H3,(H,16,17)
Instrument: Q Exactive Plus Orbitrap Thermo Scientific
Instrument type: LC-ESI-QFT
Ms type: MS2
Ion mode: POSITIVE
Ionization: ESI
Fragmentation mode: HCD
Collision energy: 75 (nominal)
Resolution: 17500
Column name: Atlantis T3 3um, 3x150mm, Waters with guard column
Retention time: 16.9 min
Base peak: 65.0597
Precursor m/z: 247.1329
Precursor type: [M+H]+
m/z	relative intensity	assigned
55.018	60	C3H3O+
55.0542	343	C4H7+
57.0699	200	C4H9+
59.0492	170	C3H7O+
67.0542	264	C5H7+
69.0697	66	C5H9+
79.0541	387	C6H7+
81.0699	368	C6H9+
91.0543	765	C7H7+
93.0699	471	C7H9+
94.0412	383	C6H6O+
95.0491	330	C6H7O+
95.0854	52	C7H11+
99.0807	38	C6H11O+
103.0542	178	C8H7+
105.0338	48	C7H5O+
105.0449	228	C6H5N2+
105.0698	260	C8H9+
107.0854	57	C8H11+
109.0649	842	C7H9O+
115.0547	59	C9H7+
117.07	98	C9H9+
119.0858	187	C9H11+
121.0648	999	C8H9O+
129.0696	48	C10H9+
131.0858	220	C10H11+
133.0652	73	C9H9O+
133.1009	41	C10H13+
137.0597	644	C8H9O2+
143.0858	62	C11H11+
144.0569	44	C10H8O+
145.1012	96	C11H13+
147.0809	63	C10H11O+
159.0806	329	C11H11O+
173.0966	97	C12H13O+
