Mass spectrum: NVE_247.1330_17.3; LC-ESI-QFT; MS2; CE: 30; R=17500; [M+H]+
Name: NVE_247.1330_17.3
Formula: C15H18O3
Exact mass: 246.1256
SMILES: COC1=CC=C(C=C1)C(C(O)=O)C1=CCCCC1
InChI: InChI=1S/C15H18O3/c1-18-13-9-7-12(8-10-13)14(15(16)17)11-5-3-2-4-6-11/h5,7-10,14H,2-4,6H2,1H3,(H,16,17)
Instrument: Q Exactive Plus Orbitrap Thermo Scientific
Instrument type: LC-ESI-QFT
Ms type: MS2
Ion mode: POSITIVE
Ionization: ESI
Fragmentation mode: HCD
Collision energy: 30 (nominal)
Resolution: 17500
Column name: Atlantis T3 3um, 3x150mm, Waters with guard column
Retention time: 16.9 min
Base peak: 65.0597
Precursor m/z: 247.1329
Precursor type: [M+H]+
m/z	relative intensity	assigned
57.0697	93	C4H9+
59.049	100	C3H7O+
69.0697	30	C5H9+
71.0489	20	C4H7O+
71.0854	43	C5H11+
81.0699	30	C6H9+
83.0854	42	C6H11+
85.1011	36	C6H13+
89.0599	36	C4H9O2+
93.07	88	C7H9+
95.0854	45	C7H11+
98.0961	27	C6H12N+
99.0803	38	C6H11O+
101.0598	44	C5H9O2+
107.0854	24	C8H11+
109.065	41	C7H9O+
115.0751	41	C6H11O2+
121.0649	532	C8H9O+
133.1013	37	C10H13+
135.0805	41	C9H11O+
135.1167	34	C10H15+
137.0595	97	C8H9O2+
139.0754	481	C8H11O2+
147.1173	23	C11H15+
159.1174	32	C12H15+
165.0547	999	C9H9O3+
173.0962	112	C12H13O+
173.1325	30	C13H17+
187.1482	106	C14H19+
201.1274	898	C14H17O+
219.1383	113	C14H19O2+
229.123	117	C15H17O2+
247.1336	261	C15H19O3+
