Mass spectrum: OCP_211.0633_14.3; LC-ESI-QFT; MS2; CE: 30; R=17500; [M+H]+
Name: OCP_211.0633_14.3
Name: 4-(2-chlorophenyl)piperazin-2-one
Formula: C10H11ClN2O
Exact mass: 210.0560
Instrument: Q Exactive Orbitrap Thermo Scientific
Instrument type: LC-ESI-QFT
Ms type: MS2
Ion mode: POSITIVE
Ionization: ESI
Fragmentation mode: HCD
Collision energy: 30 (nominal)
Resolution: 17500
Column name: Atlantis T3 3um, 3x150mm, Waters with guard column
Retention time: 14.1 min
Base peak: 60.0809
Precursor m/z: 211.0633
Precursor type: [M+H]+
m/z	relative intensity	assigned
93.0697	255	C7H9+
95.0494	195	C6H7O+
99.044	267	C5H7O2+
105.0697	207	C8H9+
107.0854	333	C8H11+
109.0644	300	C7H9O+
111.0801	189	C7H11O+
123.0809	234	C8H11O+
135.0804	232	C9H11O+
151.075	296	C9H11O2+
166.0426	196	C9H9ClN+
193.0522	991	C10H10ClN2+
211.0629	999	C10H12ClN2O+
