Mass spectrum: OCP_186.0317_15.9; LC-ESI-QFT; MS2; CE: 45; R=17500; [M+H]+
Name: OCP_186.0317_15.9
Name: D-(2-Chlorophenyl)glycine
Name: 2-(2-chloroanilino)acetic acid
Formula: C8H8ClNO2
Exact mass: 185.0244
SMILES: OC(=O)CNc1ccccc1Cl
InChI: InChI=1S/C8H8ClNO2/c9-6-3-1-2-4-7(6)10-5-8(11)12/h1-4,10H,5H2,(H,11,12)
Instrument: Q Exactive Orbitrap Thermo Scientific
Instrument type: LC-ESI-QFT
Ms type: MS2
Ion mode: POSITIVE
Ionization: ESI
Fragmentation mode: HCD
Collision energy: 45 (nominal)
Resolution: 17500
Column name: Atlantis T3 3um, 3x150mm, Waters with guard column
Retention time: 15.8 min
Base peak: 60.0809
Precursor m/z: 186.0316
Precursor type: [M+H]+
m/z	relative intensity	assigned
127.0185	16	C6H6ClN+
140.0261	999	C7H7ClN+
