Mass spectrum: OCP_295.0845_17.0; LC-ESI-QFT; MS2; CE: 45; R=17500; [M+H]+
Name: OCP_295.0845_17.0
Name: N-fumaryl-o-Chloropiperarzine
Name: (E)-4-[4-(2-chlorophenyl)piperazin-1-yl]-4-oxobut-2-enoic acid
Formula: C14H15ClN2O3
Exact mass: 294.0771
SMILES: OC(=O)\C=C\C(=O)N1CCN(CC1)c1ccccc1Cl
InChI: InChI=1S/C14H15ClN2O3/c15-11-3-1-2-4-12(11)16-7-9-17(10-8-16)13(18)5-6-14(19)20/h1-6H,7-10H2,(H,19,20)/b6-5+
Instrument: Q Exactive Orbitrap Thermo Scientific
Instrument type: LC-ESI-QFT
Ms type: MS2
Ion mode: POSITIVE
Ionization: ESI
Fragmentation mode: HCD
Collision energy: 45 (nominal)
Resolution: 17500
Column name: Atlantis T3 3um, 3x150mm, Waters with guard column
Retention time: 17.0 min
Base peak: 60.0809
Precursor m/z: 295.0844
Precursor type: [M+H]+
m/z	relative intensity	assigned
53.0023	48	C3HO+
70.0652	12	C4H8N+
71.0126	17	C3H3O2+
94.065	14	C6H8N+
96.0443	34	C5H6NO+
98.0601	10	C5H8NO+
99.0078	329	C4H3O3+
118.0652	31	C8H8N+
119.0732	107	C8H9N+
122.06	999	C7H8NO+
132.0681	14	C8H8N2+
140.0706	235	C7H10NO2+
142.0499	80	C6H8NO3+
150.0551	137	C8H8NO2+
154.0419	565	C8H9ClN+
161.1071	27	C10H13N2+
168.0656	179	C8H10NO3+
195.0686	40	C10H12ClN2+
197.084	186	C10H14ClN2+
252.0423	696	C12H11ClNO3+
295.0839	12	C14H16ClN2O3+
