Mass spectrum: OCP_295.0845_17.0; LC-ESI-QFT; MS2; CE: 15; R=17500; [M+H]+
Name: OCP_295.0845_17.0
Name: N-fumaryl-o-Chloropiperarzine
Name: (E)-4-[4-(2-chlorophenyl)piperazin-1-yl]-4-oxobut-2-enoic acid
Formula: C14H15ClN2O3
Exact mass: 294.0771
SMILES: OC(=O)\C=C\C(=O)N1CCN(CC1)c1ccccc1Cl
InChI: InChI=1S/C14H15ClN2O3/c15-11-3-1-2-4-12(11)16-7-9-17(10-8-16)13(18)5-6-14(19)20/h1-6H,7-10H2,(H,19,20)/b6-5+
Instrument: Q Exactive Orbitrap Thermo Scientific
Instrument type: LC-ESI-QFT
Ms type: MS2
Ion mode: POSITIVE
Ionization: ESI
Fragmentation mode: HCD
Collision energy: 15 (nominal)
Resolution: 17500
Column name: Atlantis T3 3um, 3x150mm, Waters with guard column
Retention time: 17.0 min
Base peak: 60.0809
Precursor m/z: 295.0844
Precursor type: [M+H]+
m/z	relative intensity	assigned
122.06	12	C7H8NO+
140.0707	3	C7H10NO2+
142.0499	2	C6H8NO3+
168.0656	65	C8H10NO3+
197.0839	8	C10H14ClN2+
252.0422	112	C12H11ClNO3+
295.0844	999	C14H16ClN2O3+
