Mass spectrum: OCP_211.0633_15.3; LC-ESI-QFT; MS2; CE: 45; R=17500; [M+H]+
Name: OCP_211.0633_15.3
Name: 1-(2-Chlorophenyl)piperazin-2-one
Name: 1-(2-chlorophenyl)piperazin-2-one
Formula: C10H11ClN2O
Exact mass: 210.0560
Instrument: Q Exactive Orbitrap Thermo Scientific
Instrument type: LC-ESI-QFT
Ms type: MS2
Ion mode: POSITIVE
Ionization: ESI
Fragmentation mode: HCD
Collision energy: 45 (nominal)
Resolution: 17500
Column name: Atlantis T3 3um, 3x150mm, Waters with guard column
Retention time: 15.2 min
Base peak: 60.0809
Precursor m/z: 211.0633
Precursor type: [M+H]+
m/z	relative intensity	assigned
67.0543	15	C5H7+
72.0444	494	C3H6NO+
81.0699	22	C6H9+
91.0545	22	C7H7+
93.0701	25	C7H9+
95.0856	37	C7H11+
105.0696	18	C8H9+
107.0858	25	C8H11+
109.0644	22	C7H9O+
119.0728	38	C8H9N+
123.0804	18	C8H11O+
138.0103	14	C7H5ClN+
140.0262	999	C7H7ClN+
154.0417	237	C8H9ClN+
182.0367	159	C9H9ClNO+
183.0685	122	C9H12ClN2+
211.0634	231	C10H12ClN2O+
