Mass spectrum: OCP_297.1002_16.5; LC-ESI-QFT; MS2; CE: 15; R=17500; [M+H]+
Name: OCP_297.1002_16.5
Name: N-succinyl-o-Chloropiperarzine
Name: 4-[4-(2-chlorophenyl)piperazin-1-yl]-4-oxobutanoic acid
Formula: C14H17ClN2O3
Exact mass: 296.0928
SMILES: OC(=O)CCC(=O)N1CCN(CC1)c1ccccc1Cl
InChI: InChI=1S/C14H17ClN2O3/c15-11-3-1-2-4-12(11)16-7-9-17(10-8-16)13(18)5-6-14(19)20/h1-4H,5-10H2,(H,19,20)
Instrument: Q Exactive Orbitrap Thermo Scientific
Instrument type: LC-ESI-QFT
Ms type: MS2
Ion mode: POSITIVE
Ionization: ESI
Fragmentation mode: HCD
Collision energy: 15 (nominal)
Resolution: 17500
Column name: Atlantis T3 3um, 3x150mm, Waters with guard column
Retention time: 16.3 min
Base peak: 60.0809
Precursor m/z: 297.1
Precursor type: [M+H]+
m/z	relative intensity	assigned
101.0238	6	C4H5O3+
126.0548	6	C6H8NO2+
170.0809	6	C8H12NO3+
195.0681	2	C13H9NO+
197.084	108	C10H14ClN2+
254.0586	12	C12H13ClNO3+
279.0895	575	C14H16ClN2O2+
297.1001	999	C14H18ClN2O3+
