Mass spectrum: OCP_197.0840_11.1; LC-ESI-QFT; MS2; CE: 15-90; R=17500; [M+H]+
Name: OCP_197.0840_11.1
Name: o-Chlorophenylpiperarzine
Name: 1-(3-chlorophenyl)piperazine
Formula: C10H13ClN2
Exact mass: 196.0767
SMILES: Clc1cccc(c1)N1CCNCC1
InChI: InChI=1S/C10H13ClN2/c11-9-2-1-3-10(8-9)13-6-4-12-5-7-13/h1-3,8,12H,4-7H2
Instrument: Q Exactive Orbitrap Thermo Scientific
Instrument type: LC-ESI-QFT
Ms type: MS2
Ion mode: POSITIVE
Ionization: ESI
Fragmentation mode: HCD
Collision energy: 15, 30, 45, 60, 70 or 90 (nominal)
Resolution: 17500
Column name: Atlantis T3 3um, 3x150mm, Waters with guard column
Retention time: 11.4 min
Base peak: 197.0837
Precursor m/z: 197.084
Precursor type: [M+H]+
m/z	relative intensity	assigned
58.0654	9	C3H8N+
65.0386	5	C5H5+
68.0497	2	C4H6N+
70.0652	64	C4H8N+
75.0228	1	C6H3+
77.0383	6	C6H5+
91.054	95	C7H7+
92.0492	1	C6H6N+
92.0618	27	C7H8+
93.0571	4	C6H7N+
95.049	26	C6H7O+
98.9994	5	C5H4Cl+
104.0493	15	C7H6N+
105.0446	6	C6H5N2+
105.0569	1	C7H7N+
106.0649	1	C7H8N+
112.0074	4	C6H5Cl+
117.0571	41	C8H7N+
118.0649	697	C8H8N+
119.0726	786	C8H9N+
120.0805	28	C8H10N+
126.0101	19	C6H5ClN+
127.0181	21	C6H6ClN+
129.0096	1	C6H6ClO+
130.065	1	C9H8N+
132.068	1	C8H8N2+
137.0151	2	C8H6Cl+
138.0103	22	C7H5ClN+
139.0057	3	C6H4ClN2+
140.0258	85	C7H7ClN+
144.081	1	C10H10N+
152.0262	4	C8H7ClN+
154.0415	999	C8H9ClN+
162.1149	1	C10H14N2+
166.0414	17	C9H9ClN+
168.0568	1	C9H11ClN+
195.068	16	C10H12ClN2+
197.0836	35	C10H14ClN2+
