Mass spectrum: OCP_295.0845_17.0; LC-ESI-QFT; MS2; CE: 90; R=17500; [M+H]+
Name: OCP_295.0845_17.0
Name: N-fumaryl-o-Chloropiperarzine
Name: (E)-4-[4-(2-chlorophenyl)piperazin-1-yl]-4-oxobut-2-enoic acid
Formula: C14H15ClN2O3
Exact mass: 294.0771
SMILES: OC(=O)\C=C\C(=O)N1CCN(CC1)c1ccccc1Cl
InChI: InChI=1S/C14H15ClN2O3/c15-11-3-1-2-4-12(11)16-7-9-17(10-8-16)13(18)5-6-14(19)20/h1-6H,7-10H2,(H,19,20)/b6-5+
Instrument: Q Exactive Orbitrap Thermo Scientific
Instrument type: LC-ESI-QFT
Ms type: MS2
Ion mode: POSITIVE
Ionization: ESI
Fragmentation mode: HCD
Collision energy: 90 (nominal)
Resolution: 17500
Column name: Atlantis T3 3um, 3x150mm, Waters with guard column
Retention time: 17.0 min
Base peak: 60.0809
Precursor m/z: 295.0844
Precursor type: [M+H]+
m/z	relative intensity	assigned
53.0024	620	C3HO+
71.0128	220	C3H3O2+
78.0337	39	C5H4N+
80.0492	25	C5H6N+
91.0542	240	C7H7+
92.0621	33	C7H8+
94.065	107	C6H8N+
96.0444	312	C5H6NO+
99.0076	283	C4H3O3+
104.0495	76	C7H6N+
117.0572	77	C8H7N+
118.0652	999	C8H8N+
119.073	478	C8H9N+
122.06	826	C7H8NO+
132.0679	25	C8H8N2+
138.0103	42	C10H2O+
140.0259	22	C10H4O+
154.0418	633	C8H9ClN+
