Mass spectrum: OCP_239.0946_17.0; LC-ESI-QFT; MS2; CE: 15; R=17500; [M+H]+
Name: OCP_239.0946_17.0
Name: N-acetyl-o-Chloropiperarzine
Name: 1-[4-(2-chlorophenyl)piperazin-1-yl]ethanone
Formula: C12H15ClN2O
Exact mass: 238.0873
SMILES: CC(=O)N1CCN(CC1)c1ccccc1Cl
InChI: InChI=1S/C12H15ClN2O/c1-10(16)14-6-8-15(9-7-14)12-5-3-2-4-11(12)13/h2-5H,6-9H2,1H3
Instrument: Q Exactive Orbitrap Thermo Scientific
Instrument type: LC-ESI-QFT
Ms type: MS2
Ion mode: POSITIVE
Ionization: ESI
Fragmentation mode: HCD
Collision energy: 15 (nominal)
Resolution: 17500
Column name: Atlantis T3 3um, 3x150mm, Waters with guard column
Retention time: 16.8 min
Base peak: 60.0809
Precursor m/z: 239.0946
Precursor type: [M+H]+
m/z	relative intensity	assigned
89.0598	9	C4H9O2+
112.0757	195	C6H10NO+
123.0801	14	C8H11O+
154.0416	14	C8H9ClN+
196.0522	239	C10H11ClNO+
197.0838	208	C10H14ClN2+
239.0947	999	C12H16ClN2O+
