Mass spectrum: OCP_211.0633_15.3; LC-ESI-QFT; MS2; CE: 30; R=17500; [M+H]+
Name: OCP_211.0633_15.3
Name: 1-(2-Chlorophenyl)piperazin-2-one
Name: 1-(2-chlorophenyl)piperazin-2-one
Formula: C10H11ClN2O
Exact mass: 210.0560
Instrument: Q Exactive Orbitrap Thermo Scientific
Instrument type: LC-ESI-QFT
Ms type: MS2
Ion mode: POSITIVE
Ionization: ESI
Fragmentation mode: HCD
Collision energy: 30 (nominal)
Resolution: 17500
Column name: Atlantis T3 3um, 3x150mm, Waters with guard column
Retention time: 15.2 min
Base peak: 60.0809
Precursor m/z: 211.0633
Precursor type: [M+H]+
m/z	relative intensity	assigned
72.0444	277	C3H6NO+
95.0856	20	C7H11+
107.0856	19	C8H11+
123.0803	18	C8H11O+
140.0261	391	C7H7ClN+
154.0419	100	C8H9ClN+
182.037	64	C9H9ClNO+
183.0685	365	C9H12ClN2+
211.0634	999	C10H12ClN2O+
