Mass spectrum: OCP_295.0845_17.0; LC-ESI-QFT; MS2; CE: 30; R=17500; [M+H]+
Name: OCP_295.0845_17.0
Name: N-fumaryl-o-Chloropiperarzine
Name: (E)-4-[4-(2-chlorophenyl)piperazin-1-yl]-4-oxobut-2-enoic acid
Formula: C14H15ClN2O3
Exact mass: 294.0771
SMILES: OC(=O)\C=C\C(=O)N1CCN(CC1)c1ccccc1Cl
InChI: InChI=1S/C14H15ClN2O3/c15-11-3-1-2-4-12(11)16-7-9-17(10-8-16)13(18)5-6-14(19)20/h1-6H,7-10H2,(H,19,20)/b6-5+
Instrument: Q Exactive Orbitrap Thermo Scientific
Instrument type: LC-ESI-QFT
Ms type: MS2
Ion mode: POSITIVE
Ionization: ESI
Fragmentation mode: HCD
Collision energy: 30 (nominal)
Resolution: 17500
Column name: Atlantis T3 3um, 3x150mm, Waters with guard column
Retention time: 17.0 min
Base peak: 60.0809
Precursor m/z: 295.0844
Precursor type: [M+H]+
m/z	relative intensity	assigned
70.065	4	C4H8N+
99.0075	52	C4H3O3+
119.073	5	C8H9N+
122.0601	359	C7H8NO+
140.0706	172	C7H10NO2+
142.0502	61	C6H8NO3+
150.055	46	C8H8NO2+
154.042	112	C8H9ClN+
168.0655	475	C8H10NO3+
195.0681	38	C10H12ClN2+
197.0841	159	C10H14ClN2+
252.0423	999	C12H11ClNO3+
295.0844	614	C14H16ClN2O3+
