Mass spectrum: OCP_197.0840_11.1; LC-ESI-QFT; MS2; CE: 15-90; R=17500; [M+H]+
Name: OCP_197.0840_11.1
Name: o-Chlorophenylpiperarzine
Name: 1-(3-chlorophenyl)piperazine
Formula: C10H13ClN2
Exact mass: 196.0767
SMILES: Clc1cccc(c1)N1CCNCC1
InChI: InChI=1S/C10H13ClN2/c11-9-2-1-3-10(8-9)13-6-4-12-5-7-13/h1-3,8,12H,4-7H2
Instrument: Q Exactive Orbitrap Thermo Scientific
Instrument type: LC-ESI-QFT
Ms type: MS2
Ion mode: POSITIVE
Ionization: ESI
Fragmentation mode: HCD
Collision energy: 15, 30, 45, 60, 70 or 90 (nominal)
Resolution: 17500
Column name: Atlantis T3 3um, 3x150mm, Waters with guard column
Retention time: 11.4 min
Base peak: 197.0837
Precursor m/z: 197.084
Precursor type: [M+H]+
m/z	relative intensity	assigned
70.0652	46	C4H8N+
77.0388	2	C6H5+
91.0541	4	C7H7+
117.0571	3	C8H7N+
118.0648	50	C8H8N+
119.0727	142	C8H9N+
120.0803	6	C8H10N+
127.0184	1	C6H6ClN+
138.0102	2	C7H5ClN+
140.0259	16	C7H7ClN+
152.026	6	C8H7ClN+
154.0416	989	C8H9ClN+
161.1074	3	C10H13N2+
162.115	11	C10H14N2+
166.0412	2	C9H9ClN+
195.0683	55	C10H12ClN2+
197.0836	999	C10H14ClN2+
