Mass spectrum: OCP_211.0633_14.3; LC-ESI-QFT; MS2; CE: 60; R=17500; [M+H]+
Name: OCP_211.0633_14.3
Name: 4-(2-chlorophenyl)piperazin-2-one
Formula: C10H11ClN2O
Exact mass: 210.0560
Instrument: Q Exactive Orbitrap Thermo Scientific
Instrument type: LC-ESI-QFT
Ms type: MS2
Ion mode: POSITIVE
Ionization: ESI
Fragmentation mode: HCD
Collision energy: 60 (nominal)
Resolution: 17500
Column name: Atlantis T3 3um, 3x150mm, Waters with guard column
Retention time: 14.1 min
Base peak: 60.0809
Precursor m/z: 211.0633
Precursor type: [M+H]+
m/z	relative intensity	assigned
67.0541	529	C5H7+
71.0491	300	C4H7O+
79.0543	874	C6H7+
81.0697	999	C6H9+
91.0541	919	C7H7+
93.0697	314	C7H9+
95.0491	462	C6H7O+
95.0856	849	C7H11+
105.0697	287	C8H9+
107.086	761	C8H11+
109.0647	809	C7H9O+
119.0855	376	C9H11+
138.0104	522	C7H5ClN+
193.0524	337	C10H10ClN2+
