Mass spectrum: OCP_211.0633_15.3; LC-ESI-QFT; MS2; CE: 90; R=17500; [M+H]+
Name: OCP_211.0633_15.3
Name: 1-(2-Chlorophenyl)piperazin-2-one
Name: 1-(2-chlorophenyl)piperazin-2-one
Formula: C10H11ClN2O
Exact mass: 210.0560
Instrument: Q Exactive Orbitrap Thermo Scientific
Instrument type: LC-ESI-QFT
Ms type: MS2
Ion mode: POSITIVE
Ionization: ESI
Fragmentation mode: HCD
Collision energy: 90 (nominal)
Resolution: 17500
Column name: Atlantis T3 3um, 3x150mm, Waters with guard column
Retention time: 15.2 min
Base peak: 60.0809
Precursor m/z: 211.0633
Precursor type: [M+H]+
m/z	relative intensity	assigned
67.0544	84	C5H7+
72.0444	172	C3H6NO+
79.0543	82	C6H7+
81.07	65	C6H9+
91.0542	195	C7H7+
95.0492	241	C6H7O+
95.0858	39	C7H11+
105.0449	79	C6H5N2+
105.0699	54	C8H9+
117.0569	52	C8H7N+
118.0652	580	C8H8N+
119.073	245	C8H9N+
125.0151	134	C7H6Cl+
140.0262	999	C7H7ClN+
154.0419	185	C8H9ClN+
