Mass spectrum: OCP_211.0633_15.3; LC-ESI-QFT; MS2; CE: 75; R=17500; [M+H]+
Name: OCP_211.0633_15.3
Name: 1-(2-Chlorophenyl)piperazin-2-one
Name: 1-(2-chlorophenyl)piperazin-2-one
Formula: C10H11ClN2O
Exact mass: 210.0560
Instrument: Q Exactive Orbitrap Thermo Scientific
Instrument type: LC-ESI-QFT
Ms type: MS2
Ion mode: POSITIVE
Ionization: ESI
Fragmentation mode: HCD
Collision energy: 75 (nominal)
Resolution: 17500
Column name: Atlantis T3 3um, 3x150mm, Waters with guard column
Retention time: 15.2 min
Base peak: 60.0809
Precursor m/z: 211.0633
Precursor type: [M+H]+
m/z	relative intensity	assigned
72.0445	226	C3H6NO+
79.054	25	C6H7+
81.07	101	C6H9+
91.0543	55	C7H7+
93.0698	36	C7H9+
95.0491	95	C6H7O+
95.0853	39	C7H11+
105.0448	24	C6H5N2+
107.0853	33	C8H11+
109.0645	28	C7H9O+
118.0653	281	C8H8N+
119.073	218	C8H9N+
123.0805	29	C8H11O+
125.015	44	C7H6Cl+
138.0106	50	C7H5ClN+
140.0262	999	C7H7ClN+
154.0417	271	C8H9ClN+
