Mass spectrum: OCP_297.1002_16.5; LC-ESI-QFT; MS2; CE: 30; R=17500; [M+H]+
Name: OCP_297.1002_16.5
Name: N-succinyl-o-Chloropiperarzine
Name: 4-[4-(2-chlorophenyl)piperazin-1-yl]-4-oxobutanoic acid
Formula: C14H17ClN2O3
Exact mass: 296.0928
SMILES: OC(=O)CCC(=O)N1CCN(CC1)c1ccccc1Cl
InChI: InChI=1S/C14H17ClN2O3/c15-11-3-1-2-4-12(11)16-7-9-17(10-8-16)13(18)5-6-14(19)20/h1-4H,5-10H2,(H,19,20)
Instrument: Q Exactive Orbitrap Thermo Scientific
Instrument type: LC-ESI-QFT
Ms type: MS2
Ion mode: POSITIVE
Ionization: ESI
Fragmentation mode: HCD
Collision energy: 30 (nominal)
Resolution: 17500
Column name: Atlantis T3 3um, 3x150mm, Waters with guard column
Retention time: 16.3 min
Base peak: 60.0809
Precursor m/z: 297.1
Precursor type: [M+H]+
m/z	relative intensity	assigned
101.0233	26	C4H5O3+
124.0761	2	C7H10NO+
126.055	72	C6H8NO2+
154.0421	21	C8H9ClN+
170.0814	17	C8H12NO3+
194.061	14	C10H11ClN2+
195.0684	79	C10H12ClN2+
197.084	186	C10H14ClN2+
223.0639	1	C11H12ClN2O+
251.0945	45	C13H16ClN2O+
254.0579	25	C12H13ClNO3+
261.0784	3	C14H14ClN2O+
279.0896	999	C14H16ClN2O2+
297.1001	99	C14H18ClN2O3+
