Mass spectrum: OCP_239.0946_17.0; LC-ESI-QFT; MS2; CE: 60; R=17500; [M+H]+
Name: OCP_239.0946_17.0
Name: N-acetyl-o-Chloropiperarzine
Name: 1-[4-(2-chlorophenyl)piperazin-1-yl]ethanone
Formula: C12H15ClN2O
Exact mass: 238.0873
SMILES: CC(=O)N1CCN(CC1)c1ccccc1Cl
InChI: InChI=1S/C12H15ClN2O/c1-10(16)14-6-8-15(9-7-14)12-5-3-2-4-11(12)13/h2-5H,6-9H2,1H3
Instrument: Q Exactive Orbitrap Thermo Scientific
Instrument type: LC-ESI-QFT
Ms type: MS2
Ion mode: POSITIVE
Ionization: ESI
Fragmentation mode: HCD
Collision energy: 60 (nominal)
Resolution: 17500
Column name: Atlantis T3 3um, 3x150mm, Waters with guard column
Retention time: 16.8 min
Base peak: 60.0809
Precursor m/z: 239.0946
Precursor type: [M+H]+
m/z	relative intensity	assigned
67.0544	18	C5H7+
70.0652	139	C4H8N+
91.0544	21	C7H7+
105.0697	11	C8H9+
112.0758	313	C6H10NO+
118.0652	85	C8H8N+
119.0732	200	C8H9N+
119.0855	16	C9H11+
123.0804	17	C8H11O+
140.0255	10	C10H4O+
154.042	999	C8H9ClN+
195.0682	43	C10H12ClN2+
196.0527	130	C10H11ClNO+
197.0842	314	C10H14ClN2+
