Mass spectrum: OCP_239.0946_17.0; LC-ESI-QFT; MS2; CE: 30; R=17500; [M+H]+
Name: OCP_239.0946_17.0
Name: N-acetyl-o-Chloropiperarzine
Name: 1-[4-(2-chlorophenyl)piperazin-1-yl]ethanone
Formula: C12H15ClN2O
Exact mass: 238.0873
SMILES: CC(=O)N1CCN(CC1)c1ccccc1Cl
InChI: InChI=1S/C12H15ClN2O/c1-10(16)14-6-8-15(9-7-14)12-5-3-2-4-11(12)13/h2-5H,6-9H2,1H3
Instrument: Q Exactive Orbitrap Thermo Scientific
Instrument type: LC-ESI-QFT
Ms type: MS2
Ion mode: POSITIVE
Ionization: ESI
Fragmentation mode: HCD
Collision energy: 30 (nominal)
Resolution: 17500
Column name: Atlantis T3 3um, 3x150mm, Waters with guard column
Retention time: 16.8 min
Base peak: 60.0809
Precursor m/z: 239.0946
Precursor type: [M+H]+
m/z	relative intensity	assigned
70.065	14	C4H8N+
89.0595	28	C4H9O2+
112.0757	713	C6H10NO+
123.0804	43	C8H11O+
154.0419	161	C8H9ClN+
196.0525	764	C10H11ClNO+
197.084	999	C10H14ClN2+
239.0948	735	C12H16ClN2O+
