Mass spectrum: OCP_297.1002_16.5; LC-ESI-QFT; MS2; CE: 75; R=17500; [M+H]+
Name: OCP_297.1002_16.5
Name: N-succinyl-o-Chloropiperarzine
Name: 4-[4-(2-chlorophenyl)piperazin-1-yl]-4-oxobutanoic acid
Formula: C14H17ClN2O3
Exact mass: 296.0928
SMILES: OC(=O)CCC(=O)N1CCN(CC1)c1ccccc1Cl
InChI: InChI=1S/C14H17ClN2O3/c15-11-3-1-2-4-12(11)16-7-9-17(10-8-16)13(18)5-6-14(19)20/h1-4H,5-10H2,(H,19,20)
Instrument: Q Exactive Orbitrap Thermo Scientific
Instrument type: LC-ESI-QFT
Ms type: MS2
Ion mode: POSITIVE
Ionization: ESI
Fragmentation mode: HCD
Collision energy: 75 (nominal)
Resolution: 17500
Column name: Atlantis T3 3um, 3x150mm, Waters with guard column
Retention time: 16.3 min
Base peak: 60.0809
Precursor m/z: 297.1
Precursor type: [M+H]+
m/z	relative intensity	assigned
55.018	226	C3H3O+
55.0543	33	C4H7+
56.0496	70	C3H6N+
68.0495	14	C4H6N+
70.0288	121	C3H4NO+
70.0651	95	C4H8N+
73.0284	297	C3H5O2+
82.065	14	C5H8N+
85.0284	39	C4H5O2+
91.0541	46	C7H7+
92.0619	12	C7H8+
98.0601	105	C5H8NO+
101.0233	107	C4H5O3+
117.0572	44	C8H7N+
118.0652	330	C8H8N+
119.073	481	C8H9N+
124.0755	44	C7H10NO+
126.055	74	C6H8NO2+
130.0651	11	C9H8N+
132.0809	14	C9H10N+
138.0104	230	C7H5ClN+
139.0057	38	C6H4ClN2+
140.0261	130	C7H7ClN+
143.0729	16	C10H9N+
144.0807	27	C10H10N+
152.0259	13	C8H7ClN+
154.0419	999	C8H9ClN+
160.0995	9	C10H12N2+
166.0418	146	C9H9ClN+
167.0375	55	C8H8ClN2+
178.0426	47	C10H9ClN+
180.0573	12	C10H11ClN+
181.0528	129	C9H10ClN2+
194.0601	61	C10H11ClN2+
195.068	84	C13H9NO+
197.0839	131	C10H14ClN2+
220.076	13	C12H13ClN2+
223.0635	69	C11H12ClN2O+
251.0955	7	C13H16ClN2O+
