Mass spectrum: OCP_211.0633_14.3; LC-ESI-QFT; MS2; CE: 45; R=17500; [M+H]+
Name: OCP_211.0633_14.3
Name: 4-(2-chlorophenyl)piperazin-2-one
Formula: C10H11ClN2O
Exact mass: 210.0560
Instrument: Q Exactive Orbitrap Thermo Scientific
Instrument type: LC-ESI-QFT
Ms type: MS2
Ion mode: POSITIVE
Ionization: ESI
Fragmentation mode: HCD
Collision energy: 45 (nominal)
Resolution: 17500
Column name: Atlantis T3 3um, 3x150mm, Waters with guard column
Retention time: 14.1 min
Base peak: 60.0809
Precursor m/z: 211.0633
Precursor type: [M+H]+
m/z	relative intensity	assigned
67.0542	487	C5H7+
71.0491	291	C4H7O+
81.07	538	C6H9+
83.0492	246	C5H7O+
91.0541	520	C7H7+
93.0699	446	C7H9+
95.0491	468	C6H7O+
95.0857	509	C7H11+
105.0697	507	C8H9+
107.0853	576	C8H11+
109.0649	940	C7H9O+
111.0806	397	C7H11O+
119.086	263	C9H11+
123.0806	991	C8H11O+
166.0416	553	C9H9ClN+
193.053	999	C10H10ClN2+
