Mass spectrum: OCP_211.0633_14.3; LC-ESI-QFT; MS2; CE: 90; R=17500; [M+H]+
Name: OCP_211.0633_14.3
Name: 4-(2-chlorophenyl)piperazin-2-one
Formula: C10H11ClN2O
Exact mass: 210.0560
Instrument: Q Exactive Orbitrap Thermo Scientific
Instrument type: LC-ESI-QFT
Ms type: MS2
Ion mode: POSITIVE
Ionization: ESI
Fragmentation mode: HCD
Collision energy: 90 (nominal)
Resolution: 17500
Column name: Atlantis T3 3um, 3x150mm, Waters with guard column
Retention time: 14.1 min
Base peak: 60.0809
Precursor m/z: 211.0633
Precursor type: [M+H]+
m/z	relative intensity	assigned
67.0542	355	C5H7+
79.0541	945	C6H7+
81.0699	298	C6H9+
83.049	182	C5H7O+
91.0539	999	C7H7+
95.0489	370	C6H7O+
105.0698	290	C8H9+
138.0106	314	C7H5ClN+
