Mass spectrum: OCP_297.1002_16.5; LC-ESI-QFT; MS2; CE: 90; R=17500; [M+H]+
Name: OCP_297.1002_16.5
Name: N-succinyl-o-Chloropiperarzine
Name: 4-[4-(2-chlorophenyl)piperazin-1-yl]-4-oxobutanoic acid
Formula: C14H17ClN2O3
Exact mass: 296.0928
SMILES: OC(=O)CCC(=O)N1CCN(CC1)c1ccccc1Cl
InChI: InChI=1S/C14H17ClN2O3/c15-11-3-1-2-4-12(11)16-7-9-17(10-8-16)13(18)5-6-14(19)20/h1-4H,5-10H2,(H,19,20)
Instrument: Q Exactive Orbitrap Thermo Scientific
Instrument type: LC-ESI-QFT
Ms type: MS2
Ion mode: POSITIVE
Ionization: ESI
Fragmentation mode: HCD
Collision energy: 90 (nominal)
Resolution: 17500
Column name: Atlantis T3 3um, 3x150mm, Waters with guard column
Retention time: 16.3 min
Base peak: 60.0809
Precursor m/z: 297.1
Precursor type: [M+H]+
m/z	relative intensity	assigned
55.018	349	C3H3O+
55.0543	21	C4H7+
56.0497	111	C3H6N+
67.0542	16	C5H7+
68.0494	13	C4H6N+
70.0288	171	C3H4NO+
70.065	74	C4H8N+
73.0284	313	C3H5O2+
79.0546	19	C6H7+
85.0281	9	C4H5O2+
91.0541	156	C7H7+
92.0621	25	C7H8+
95.0491	25	C6H7O+
98.06	49	C5H8NO+
101.0235	88	C4H5O3+
117.0573	110	C8H7N+
118.0651	999	C8H8N+
119.073	767	C8H9N+
126.0552	11	C6H8NO2+
130.0652	44	C9H8N+
132.0809	21	C9H10N+
138.0105	366	C7H5ClN+
139.0058	111	C6H4ClN2+
140.0262	159	C7H7ClN+
143.0729	25	C10H9N+
144.0808	16	C10H10N+
152.0261	18	C8H7ClN+
154.0419	832	C8H9ClN+
166.0417	67	C9H9ClN+
167.0367	21	C8H8ClN2+
181.0525	75	C9H10ClN2+
194.0607	17	C10H11ClN2+
195.0683	19	C10H12ClN2+
197.0845	22	C10H14ClN2+
