Mass spectrum: OCP_297.1002_16.5; LC-ESI-QFT; MS2; CE: 60; R=17500; [M+H]+
Name: OCP_297.1002_16.5
Name: N-succinyl-o-Chloropiperarzine
Name: 4-[4-(2-chlorophenyl)piperazin-1-yl]-4-oxobutanoic acid
Formula: C14H17ClN2O3
Exact mass: 296.0928
SMILES: OC(=O)CCC(=O)N1CCN(CC1)c1ccccc1Cl
InChI: InChI=1S/C14H17ClN2O3/c15-11-3-1-2-4-12(11)16-7-9-17(10-8-16)13(18)5-6-14(19)20/h1-4H,5-10H2,(H,19,20)
Instrument: Q Exactive Orbitrap Thermo Scientific
Instrument type: LC-ESI-QFT
Ms type: MS2
Ion mode: POSITIVE
Ionization: ESI
Fragmentation mode: HCD
Collision energy: 60 (nominal)
Resolution: 17500
Column name: Atlantis T3 3um, 3x150mm, Waters with guard column
Retention time: 16.3 min
Base peak: 60.0809
Precursor m/z: 297.1
Precursor type: [M+H]+
m/z	relative intensity	assigned
55.018	151	C3H3O+
55.0543	34	C4H7+
56.0496	67	C3H6N+
67.0542	7	C5H7+
68.0495	11	C4H6N+
70.0288	57	C3H4NO+
70.0651	90	C4H8N+
73.0284	239	C3H5O2+
79.0543	7	C6H7+
82.0649	29	C5H8N+
85.0285	99	C4H5O2+
91.0539	9	C7H7+
95.0493	7	C6H7O+
98.0601	294	C5H8NO+
101.0234	229	C4H5O3+
117.0568	11	C8H7N+
118.0653	81	C8H8N+
119.073	219	C8H9N+
124.0758	103	C7H10NO+
126.055	358	C6H8NO2+
132.0803	7	C9H10N+
138.0107	90	C7H5ClN+
140.0261	145	C7H7ClN+
144.0813	8	C10H10N+
154.0419	999	C8H9ClN+
160.0999	13	C10H12N2+
166.0418	155	C9H9ClN+
167.0371	56	C8H8ClN2+
170.0813	38	C8H12NO3+
178.0419	43	C10H9ClN+
181.0529	136	C9H10ClN2+
194.0608	135	C10H11ClN2+
195.0685	437	C10H12ClN2+
197.0841	497	C10H14ClN2+
208.0524	182	C11H11ClNO+
209.0829	8	C14H11NO+
220.0759	44	C12H13ClN2+
221.0843	29	C12H14ClN2+
223.0633	178	C11H12ClN2O+
251.0944	126	C13H16ClN2O+
279.0894	77	C14H16ClN2O2+
