Mass spectrum: OCP_239.0946_17.0; LC-ESI-QFT; MS2; CE: 75; R=17500; [M+H]+
Name: OCP_239.0946_17.0
Name: N-acetyl-o-Chloropiperarzine
Name: 1-[4-(2-chlorophenyl)piperazin-1-yl]ethanone
Formula: C12H15ClN2O
Exact mass: 238.0873
SMILES: CC(=O)N1CCN(CC1)c1ccccc1Cl
InChI: InChI=1S/C12H15ClN2O/c1-10(16)14-6-8-15(9-7-14)12-5-3-2-4-11(12)13/h2-5H,6-9H2,1H3
Instrument: Q Exactive Orbitrap Thermo Scientific
Instrument type: LC-ESI-QFT
Ms type: MS2
Ion mode: POSITIVE
Ionization: ESI
Fragmentation mode: HCD
Collision energy: 75 (nominal)
Resolution: 17500
Column name: Atlantis T3 3um, 3x150mm, Waters with guard column
Retention time: 16.8 min
Base peak: 60.0809
Precursor m/z: 239.0946
Precursor type: [M+H]+
m/z	relative intensity	assigned
67.0543	19	C5H7+
70.0651	177	C4H8N+
79.0541	15	C6H7+
91.0542	75	C7H7+
93.0699	21	C7H9+
105.0698	21	C8H9+
112.0758	146	C6H10NO+
117.0571	22	C8H7N+
118.0651	322	C8H8N+
119.0731	548	C8H9N+
154.0419	999	C8H9ClN+
196.0533	13	C10H11ClNO+
197.0837	73	C10H14ClN2+
