Mass spectrum: OCP_197.0840_11.1; LC-ESI-QFT; MS2; CE: 15-90; R=17500; [M+H]+
Name: OCP_197.0840_11.1
Name: o-Chlorophenylpiperarzine
Name: 1-(3-chlorophenyl)piperazine
Formula: C10H13ClN2
Exact mass: 196.0767
SMILES: Clc1cccc(c1)N1CCNCC1
InChI: InChI=1S/C10H13ClN2/c11-9-2-1-3-10(8-9)13-6-4-12-5-7-13/h1-3,8,12H,4-7H2
Instrument: Q Exactive Orbitrap Thermo Scientific
Instrument type: LC-ESI-QFT
Ms type: MS2
Ion mode: POSITIVE
Ionization: ESI
Fragmentation mode: HCD
Collision energy: 15, 30, 45, 60, 70 or 90 (nominal)
Resolution: 17500
Column name: Atlantis T3 3um, 3x150mm, Waters with guard column
Retention time: 11.4 min
Base peak: 197.0837
Precursor m/z: 197.084
Precursor type: [M+H]+
m/z	relative intensity	assigned
70.0652	5	C4H8N+
77.0389	1	C6H5+
118.0646	4	C8H8N+
119.0727	10	C8H9N+
140.026	1	C7H7ClN+
152.0261	1	C8H7ClN+
154.0415	130	C8H9ClN+
161.1067	1	C10H13N2+
162.1151	2	C10H14N2+
195.0684	8	C10H12ClN2+
197.0835	999	C10H14ClN2+
