Mass spectrum: OCP_211.0633_15.3; LC-ESI-QFT; MS2; CE: 60; R=17500; [M+H]+
Name: OCP_211.0633_15.3
Name: 1-(2-Chlorophenyl)piperazin-2-one
Name: 1-(2-chlorophenyl)piperazin-2-one
Formula: C10H11ClN2O
Exact mass: 210.0560
Instrument: Q Exactive Orbitrap Thermo Scientific
Instrument type: LC-ESI-QFT
Ms type: MS2
Ion mode: POSITIVE
Ionization: ESI
Fragmentation mode: HCD
Collision energy: 60 (nominal)
Resolution: 17500
Column name: Atlantis T3 3um, 3x150mm, Waters with guard column
Retention time: 15.2 min
Base peak: 60.0809
Precursor m/z: 211.0633
Precursor type: [M+H]+
m/z	relative intensity	assigned
72.0443	348	C3H6NO+
79.0543	15	C6H7+
81.07	34	C6H9+
91.0541	24	C7H7+
95.0854	27	C7H11+
105.07	24	C8H9+
107.0852	22	C8H11+
117.0575	22	C8H7N+
118.0652	32	C8H8N+
119.0729	108	C8H9N+
125.0153	20	C7H6Cl+
138.0103	33	C7H5ClN+
140.0261	999	C7H7ClN+
154.0419	327	C8H9ClN+
182.0364	78	C9H9ClNO+
