Mass spectrum: OCP_213.0790_13.3; LC-ESI-QFT; MS2; CE: (160-0.41mz or 15) NCE; R=17500; [M+H]+
Name: OCP_213.0790_13.3
Formula: C10H13ClN2O
Exact mass: 212.0716
Instrument: Q Exactive Orbitrap Thermo Scientific
Instrument type: LC-ESI-QFT
Ms type: MS2
Ion mode: POSITIVE
Ionization: ESI
Fragmentation mode: HCD
Collision energy: 160-0.41mz or 15 (mz>350) nominal units
Resolution: 17500
Column name: Atlantis T3 3um, 3x150mm, Waters with guard column
Retention time: 13.4 min
Base peak: 65.0598
Precursor m/z: 213.0789
Precursor type: [M+H]+
m/z	relative intensity	assigned
53.0386	8	C4H5+
55.0544	48	C4H7+
57.0699	18	C4H9+
59.049	8	C3H7O+
65.0386	17	C5H5+
67.0544	91	C5H7+
69.0699	43	C5H9+
70.0652	19	C4H8N+
79.0543	118	C6H7+
81.0699	56	C6H9+
83.0491	22	C5H7O+
83.0855	17	C6H11+
85.0286	11	C4H5O2+
88.0757	97	C4H10NO+
91.0543	162	C7H7+
93.0699	103	C7H9+
95.0491	87	C6H7O+
95.0857	18	C7H11+
97.0075	14	C8H+
97.0287	11	C2H8ClNO+
97.0647	37	C6H9O+
105.0696	45	C8H9+
107.0854	93	C8H11+
109.0649	63	C7H9O+
111.0441	18	C3H10ClNO+
111.08	20	C7H11O+
118.0647	17	C8H8N+
119.073	14	C8H9N+
121.0647	12	C8H9O+
123.08	20	C8H11O+
128.0618	10	C10H8+
132.0679	48	C8H8N2+
135.0803	14	C9H11O+
137.059	12	C3H10ClN4+
138.0102	38	C10H2O+
154.0418	999	C8H9ClN+
161.1075	72	C10H13N2+
