Mass spectrum: OCP_211.0633_14.3; LC-ESI-QFT; MS2; CE: 15; R=17500; [M+H]+
Name: OCP_211.0633_14.3
Name: 4-(2-chlorophenyl)piperazin-2-one
Formula: C10H11ClN2O
Exact mass: 210.0560
Instrument: Q Exactive Orbitrap Thermo Scientific
Instrument type: LC-ESI-QFT
Ms type: MS2
Ion mode: POSITIVE
Ionization: ESI
Fragmentation mode: HCD
Collision energy: 15 (nominal)
Resolution: 17500
Column name: Atlantis T3 3um, 3x150mm, Waters with guard column
Retention time: 14.1 min
Base peak: 60.0809
Precursor m/z: 211.0633
Precursor type: [M+H]+
m/z	relative intensity	assigned
95.0493	132	C6H7O+
95.0856	273	C7H11+
99.044	159	C5H7O2+
109.0651	206	C7H9O+
119.085	115	C9H11+
123.0809	149	C8H11O+
135.0806	199	C9H11O+
151.0759	208	C9H11O2+
193.0524	297	C10H10ClN2+
211.0632	999	C10H12ClN2O+
