Mass spectrum: OCP_211.0633_14.3; LC-ESI-QFT; MS2; CE: 75; R=17500; [M+H]+
Name: OCP_211.0633_14.3
Name: 4-(2-chlorophenyl)piperazin-2-one
Formula: C10H11ClN2O
Exact mass: 210.0560
Instrument: Q Exactive Orbitrap Thermo Scientific
Instrument type: LC-ESI-QFT
Ms type: MS2
Ion mode: POSITIVE
Ionization: ESI
Fragmentation mode: HCD
Collision energy: 75 (nominal)
Resolution: 17500
Column name: Atlantis T3 3um, 3x150mm, Waters with guard column
Retention time: 14.1 min
Base peak: 60.0809
Precursor m/z: 211.0633
Precursor type: [M+H]+
m/z	relative intensity	assigned
67.0542	999	C5H7+
79.0542	993	C6H7+
81.0698	891	C6H9+
83.0493	315	C5H7O+
91.0542	871	C7H7+
93.0697	320	C7H9+
95.049	360	C6H7O+
95.0856	200	C7H11+
105.0697	419	C8H9+
107.0855	336	C8H11+
109.0649	304	C7H9O+
138.0106	911	C7H5ClN+
