Mass spectrum: OCP_297.1002_16.5; LC-ESI-QFT; MS2; CE: 45; R=17500; [M+H]+
Name: OCP_297.1002_16.5
Name: N-succinyl-o-Chloropiperarzine
Name: 4-[4-(2-chlorophenyl)piperazin-1-yl]-4-oxobutanoic acid
Formula: C14H17ClN2O3
Exact mass: 296.0928
SMILES: OC(=O)CCC(=O)N1CCN(CC1)c1ccccc1Cl
InChI: InChI=1S/C14H17ClN2O3/c15-11-3-1-2-4-12(11)16-7-9-17(10-8-16)13(18)5-6-14(19)20/h1-4H,5-10H2,(H,19,20)
Instrument: Q Exactive Orbitrap Thermo Scientific
Instrument type: LC-ESI-QFT
Ms type: MS2
Ion mode: POSITIVE
Ionization: ESI
Fragmentation mode: HCD
Collision energy: 45 (nominal)
Resolution: 17500
Column name: Atlantis T3 3um, 3x150mm, Waters with guard column
Retention time: 16.3 min
Base peak: 60.0809
Precursor m/z: 297.1
Precursor type: [M+H]+
m/z	relative intensity	assigned
55.0179	47	C3H3O+
55.0543	10	C4H7+
56.0496	13	C3H6N+
70.0651	37	C4H8N+
73.0284	74	C3H5O2+
85.0284	81	C4H5O2+
98.0601	227	C5H8NO+
101.0234	272	C4H5O3+
118.0653	12	C8H8N+
119.0729	56	C8H9N+
124.0757	97	C7H10NO+
126.0549	664	C6H8NO2+
138.0105	25	C7H5ClN+
140.0262	68	C7H7ClN+
154.0419	385	C8H9ClN+
166.0417	38	C9H9ClN+
167.0366	7	C8H8ClN2+
170.0812	73	C8H12NO3+
178.0418	10	C10H9ClN+
180.0573	26	C10H11ClN+
181.0531	83	C9H10ClN2+
194.0607	179	C10H11ClN2+
195.0685	907	C10H12ClN2+
197.084	783	C10H14ClN2+
208.0526	179	C11H11ClNO+
209.0831	6	C14H11NO+
220.0762	30	C12H13ClN2+
221.0845	9	C12H14ClN2+
223.0633	102	C11H12ClN2O+
251.0947	416	C13H16ClN2O+
254.0573	61	C12H13ClNO3+
261.0778	9	C14H14ClN2O+
279.0896	999	C14H16ClN2O2+
