Mass spectrum: OCP_225.0789_16.6; LC-ESI-QFT; MS2; CE: 90; R=17500; [M+H]+
Name: OCP_225.0789_16.6
Name: N-formyl-o-Chloropiperarzine
Name: 4-(3-chlorophenyl)piperazine-1-carbaldehyde
Formula: C11H13ClN2O
Exact mass: 224.0716
SMILES: Clc1cccc(c1)N1CCN(CC1)C=O
InChI: InChI=1S/C11H13ClN2O/c12-10-2-1-3-11(8-10)14-6-4-13(9-15)5-7-14/h1-3,8-9H,4-7H2
Instrument: Q Exactive Orbitrap Thermo Scientific
Instrument type: LC-ESI-QFT
Ms type: MS2
Ion mode: POSITIVE
Ionization: ESI
Fragmentation mode: HCD
Collision energy: 90 (nominal)
Resolution: 17500
Column name: Atlantis T3 3um, 3x150mm, Waters with guard column
Retention time: 16.4 min
Base peak: 60.0809
Precursor m/z: 225.0789
Precursor type: [M+H]+
m/z	relative intensity	assigned
67.0544	39	C5H7+
70.0651	29	C4H8N+
79.0544	27	C6H7+
91.0542	247	C7H7+
98.0603	24	C5H8NO+
117.0573	79	C8H7N+
118.0652	999	C8H8N+
119.0729	487	C8H9N+
140.0262	79	C7H7ClN+
154.0419	382	C8H9ClN+
