Mass spectrum: OCP_295.0845_17.0; LC-ESI-QFT; MS2; CE: 75; R=17500; [M+H]+
Name: OCP_295.0845_17.0
Name: N-fumaryl-o-Chloropiperarzine
Name: (E)-4-[4-(2-chlorophenyl)piperazin-1-yl]-4-oxobut-2-enoic acid
Formula: C14H15ClN2O3
Exact mass: 294.0771
SMILES: OC(=O)\C=C\C(=O)N1CCN(CC1)c1ccccc1Cl
InChI: InChI=1S/C14H15ClN2O3/c15-11-3-1-2-4-12(11)16-7-9-17(10-8-16)13(18)5-6-14(19)20/h1-6H,7-10H2,(H,19,20)/b6-5+
Instrument: Q Exactive Orbitrap Thermo Scientific
Instrument type: LC-ESI-QFT
Ms type: MS2
Ion mode: POSITIVE
Ionization: ESI
Fragmentation mode: HCD
Collision energy: 75 (nominal)
Resolution: 17500
Column name: Atlantis T3 3um, 3x150mm, Waters with guard column
Retention time: 17.0 min
Base peak: 60.0809
Precursor m/z: 295.0844
Precursor type: [M+H]+
m/z	relative intensity	assigned
53.0024	436	C3HO+
56.0494	20	C3H6N+
70.0648	22	C4H8N+
71.0128	131	C3H3O2+
80.0495	19	C5H6N+
91.0542	119	C7H7+
92.062	16	C7H8+
94.065	76	C6H8N+
96.0444	201	C5H6NO+
99.0077	455	C4H3O3+
104.0493	25	C7H6N+
117.0569	17	C8H7N+
118.0652	451	C8H8N+
119.073	440	C8H9N+
122.06	999	C7H8NO+
132.068	26	C8H8N2+
138.0101	46	C10H2O+
150.0547	58	C8H8NO2+
154.0419	719	C8H9ClN+
161.1071	21	C10H13N2+
