Mass spectrum: OCP_283.0845_16.2; LC-ESI-QFT; MS2; CE: 75; R=17500; [M+H]+
Name: OCP_283.0845_16.2
Name: N-malonyl-o-Chloropiperarzine
Name: 3-[4-(2-chlorophenyl)piperazin-1-yl]-3-oxopropanoic acid
Formula: C13H15ClN2O3
Exact mass: 282.0771
SMILES: OC(=O)CC(=O)N1CCN(CC1)c1ccccc1Cl
InChI: InChI=1S/C13H15ClN2O3/c14-10-3-1-2-4-11(10)15-5-7-16(8-6-15)12(17)9-13(18)19/h1-4H,5-9H2,(H,18,19)
Instrument: Q Exactive Orbitrap Thermo Scientific
Instrument type: LC-ESI-QFT
Ms type: MS2
Ion mode: POSITIVE
Ionization: ESI
Fragmentation mode: HCD
Collision energy: 75 (nominal)
Resolution: 17500
Column name: Atlantis T3 3um, 3x150mm, Waters with guard column
Retention time: 16.0 min
Base peak: 214.0896
Precursor m/z: 283.0844
Precursor type: [M+H]+
m/z	relative intensity	assigned
70.0288	112	C3H4NO+
70.0651	49	C4H8N+
118.0652	261	C8H8N+
119.073	441	C8H9N+
138.0105	49	C7H5ClN+
140.0257	29	C10H4O+
154.0419	999	C8H9ClN+
181.0523	43	C12H7NO+
197.0839	156	C10H14ClN2+
