Mass spectrum: OCP_295.0845_17.0; LC-ESI-QFT; MS2; CE: 60; R=17500; [M+H]+
Name: OCP_295.0845_17.0
Name: N-fumaryl-o-Chloropiperarzine
Name: (E)-4-[4-(2-chlorophenyl)piperazin-1-yl]-4-oxobut-2-enoic acid
Formula: C14H15ClN2O3
Exact mass: 294.0771
SMILES: OC(=O)\C=C\C(=O)N1CCN(CC1)c1ccccc1Cl
InChI: InChI=1S/C14H15ClN2O3/c15-11-3-1-2-4-12(11)16-7-9-17(10-8-16)13(18)5-6-14(19)20/h1-6H,7-10H2,(H,19,20)/b6-5+
Instrument: Q Exactive Orbitrap Thermo Scientific
Instrument type: LC-ESI-QFT
Ms type: MS2
Ion mode: POSITIVE
Ionization: ESI
Fragmentation mode: HCD
Collision energy: 60 (nominal)
Resolution: 17500
Column name: Atlantis T3 3um, 3x150mm, Waters with guard column
Retention time: 17.0 min
Base peak: 60.0809
Precursor m/z: 295.0844
Precursor type: [M+H]+
m/z	relative intensity	assigned
53.0024	161	C3HO+
56.0496	7	C3H6N+
70.0652	18	C4H8N+
71.0127	71	C3H3O2+
78.0341	8	C5H4N+
80.0496	9	C5H6N+
91.0543	9	C7H7+
94.0652	42	C6H8N+
96.0445	74	C5H6NO+
98.0598	9	C5H8NO+
99.0077	538	C4H3O3+
118.0651	133	C8H8N+
119.073	216	C8H9N+
122.06	999	C7H8NO+
132.068	10	C8H8N2+
140.0258	17	C10H4O+
142.0496	16	C6H8NO3+
150.0551	125	C8H8NO2+
154.0418	791	C8H9ClN+
161.1071	17	C10H13N2+
168.0653	10	C8H10NO3+
195.0687	12	C10H12ClN2+
252.0413	99	C12H11ClNO3+
