Mass spectrum: PAR_176.1070_9.1; LC-ESI-QFT; MS2; CE: 15-90; R=17500; [M+H]+
Name: PAR_176.1070_9.1
Name: Pargyline N-oxide
Name: N-benzyl-N-methylprop-2-yn-1-amine oxide
Formula: C11H13NO
Exact mass: 175.0997
SMILES: C[N+]([O-])(CC#C)CC1=CC=CC=C1
InChI: InChI=1S/C11H13NO/c1-3-9-12(2,13)10-11-7-5-4-6-8-11/h1,4-8H,9-10H2,2H3
Instrument: Q Exactive Orbitrap Thermo Scientific
Instrument type: LC-ESI-QFT
Ms type: MS2
Ion mode: POSITIVE
Ionization: ESI
Fragmentation mode: HCD
Collision energy: 15, 30, 45, 60, 70 or 90 (nominal)
Resolution: 17500
Column name: Atlantis T3 3um, 3x150mm, Waters with guard column
Retention time: 9.3 min
Base peak: 176.1074
Precursor m/z: 176.107
Precursor type: [M+H]+
m/z	relative intensity	assigned
65.039	101	
79.0545	2	C6H7+
82.0654	2	C5H8N+
89.0386	1	C7H5+
91.0544	999	C7H7+
95.0492	1	C6H7O+
115.0548	2	C9H7+
128.0626	2	C10H8+
