Mass spectrum: PAR_162.0915_14.7; LC-ESI-QFT; MS2; CE: 30; R=17500; [M+H]+
Name: PAR_162.0915_14.7
Name: N-benzyl-N-prop-2-ynylhydroxylamine
Formula: C10H11NO
Exact mass: 161.0841
Instrument: Q Exactive Orbitrap Thermo Scientific
Instrument type: LC-ESI-QFT
Ms type: MS2
Ion mode: POSITIVE
Ionization: ESI
Fragmentation mode: HCD
Collision energy: 30 (nominal)
Resolution: 17500
Column name: Atlantis T3 3um, 3.0x150mm, Waters with guard column
Retention time: 14.6 min
Base peak: 60.0809
Precursor m/z: 162.0913
Precursor type: [M+H]+
m/z	relative intensity	assigned
91.0543	999	C7H7+
