Mass spectrum: PAR_174.09141_15.0; LC-ESI-QFT; MS2; CE: 45; R=17500; [M+H]+
Name: PAR_174.09141_15.0
Name: Pargyline formamide
Formula: C11H11NO
Exact mass: 173.0841
SMILES: O=CN(CC#C)CC1=CC=CC=C1
InChI: InChI=1S/C11H11NO/c1-2-8-12(10-13)9-11-6-4-3-5-7-11/h1,3-7,10H,8-9H2
Instrument: Q Exactive Orbitrap Thermo Scientific
Instrument type: LC-ESI-QFT
Ms type: MS2
Ion mode: POSITIVE
Ionization: ESI
Fragmentation mode: HCD
Collision energy: 45 (nominal)
Resolution: 17500
Column name: Atlantis T3 3um, 3x150mm, Waters with guard column
Retention time: 15.0 min
Base peak: 60.0809
Precursor m/z: 174.0913
Precursor type: [M+H]+
m/z	relative intensity	assigned
65.0387	6	C5H5+
67.0544	2	C5H7+
68.0496	6	C4H6N+
91.0543	999	C7H7+
95.0857	3	C7H11+
96.0446	2	C5H6NO+
96.089	18	C2H12N2O2+
104.05	2	C7H6N+
128.0619	15	C10H8+
129.0699	34	C10H9+
174.0908	2	C11H12NO+
