Mass spectrum: PAR_174.09141_15.0; LC-ESI-QFT; MS2; CE: 60; R=17500; [M+H]+
Name: PAR_174.09141_15.0
Name: Pargyline formamide
Formula: C11H11NO
Exact mass: 173.0841
SMILES: O=CN(CC#C)CC1=CC=CC=C1
InChI: InChI=1S/C11H11NO/c1-2-8-12(10-13)9-11-6-4-3-5-7-11/h1,3-7,10H,8-9H2
Instrument: Q Exactive Orbitrap Thermo Scientific
Instrument type: LC-ESI-QFT
Ms type: MS2
Ion mode: POSITIVE
Ionization: ESI
Fragmentation mode: HCD
Collision energy: 60 (nominal)
Resolution: 17500
Column name: Atlantis T3 3um, 3x150mm, Waters with guard column
Retention time: 15.0 min
Base peak: 60.0809
Precursor m/z: 174.0913
Precursor type: [M+H]+
m/z	relative intensity	assigned
65.0387	11	C5H5+
67.0545	2	C5H7+
68.0498	1	C4H6N+
91.0543	999	C7H7+
95.0858	6	C7H11+
128.0621	22	C10H8+
129.0701	14	C10H9+
