Mass spectrum: PAR_146.0966_8.3; LC-ESI-QFT; MS2; CE: 30; R=17500; [M+H]+
Name: PAR_146.0966_8.3
Name: N-propargylbenzylamine
Name: N-benzylprop-2-yn-1-amine
Formula: C10H11N
Exact mass: 145.0891
SMILES: C#CCNCC1=CC=CC=C1
InChI: InChI=1S/C10H11N/c1-2-8-11-9-10-6-4-3-5-7-10/h1,3-7,11H,8-9H2
Instrument: Q Exactive Orbitrap Thermo Scientific
Instrument type: LC-ESI-QFT
Ms type: MS2
Ion mode: POSITIVE
Ionization: ESI
Fragmentation mode: HCD
Collision energy: 30 (nominal)
Resolution: 17500
Column name: Atlantis T3 3um, 3x150mm, Waters with guard column
Retention time: 8.3 min
Base peak: 61.0285
Precursor m/z: 146.0964
Precursor type: [M+H]+
m/z	relative intensity	assigned
58.0652	1	C3H8N+
65.0387	2	C5H5+
72.0807	5	C4H10N+
86.0601	7	C4H8NO+
91.0543	999	C7H7+
100.0758	22	C5H10NO+
118.0653	3	C8H8N+
129.0699	72	C10H9+
146.0966	49	C10H12N+
