Mass spectrum: PAR_160.1122_8.5; LC-ESI-QFT; MS2; CE: 15-90; R=17500; [M+H]+
Name: PAR_160.1122_8.5
Name: Pargyline
Name: N-benzyl-N-methylprop-2-yn-1-amine
Formula: C11H13N
Exact mass: 159.1048
SMILES: CN(CC#C)CC1=CC=CC=C1
InChI: InChI=1S/C11H13N/c1-3-9-12(2)10-11-7-5-4-6-8-11/h1,4-8H,9-10H2,2H3
Instrument: Q Exactive Orbitrap Thermo Scientific
Instrument type: LC-ESI-QFT
Ms type: MS2
Ion mode: POSITIVE
Ionization: ESI
Fragmentation mode: HCD
Collision energy: 15, 30, 45, 60, 70 or 90 (nominal)
Resolution: 17500
Column name: Atlantis T3 3um, 3x150mm, Waters with guard column
Retention time: 8.6 min
Base peak: 160.1124
Precursor m/z: 160.1121
Precursor type: [M+H]+
m/z	relative intensity	assigned
63.0232	2	C5H3+
65.0389	93	
68.0497	3	C4H6N+
91.0543	999	C7H7+
128.0622	8	C10H8+
129.0698	1	C10H9+
144.0812	2	C10H10N+
145.065	1	C10H9O+
155.0606	1	C10H7N2+
