Mass spectrum: PAR_146.0966_8.3; LC-ESI-QFT; MS2; CE: 90; R=17500; [M+H]+
Name: PAR_146.0966_8.3
Name: N-propargylbenzylamine
Name: N-benzylprop-2-yn-1-amine
Formula: C10H11N
Exact mass: 145.0891
SMILES: C#CCNCC1=CC=CC=C1
InChI: InChI=1S/C10H11N/c1-2-8-11-9-10-6-4-3-5-7-10/h1,3-7,11H,8-9H2
Instrument: Q Exactive Orbitrap Thermo Scientific
Instrument type: LC-ESI-QFT
Ms type: MS2
Ion mode: POSITIVE
Ionization: ESI
Fragmentation mode: HCD
Collision energy: 90 (nominal)
Resolution: 17500
Column name: Atlantis T3 3um, 3x150mm, Waters with guard column
Retention time: 8.3 min
Base peak: 61.0285
Precursor m/z: 146.0964
Precursor type: [M+H]+
m/z	relative intensity	assigned
55.0545	3	C4H7+
58.0652	3	C3H8N+
65.0387	117	C5H5+
69.0696	2	C5H9+
72.0446	2	C3H6NO+
72.0809	7	C4H10N+
82.0653	13	C5H8N+
86.0601	12	C4H8NO+
91.0543	999	C7H7+
100.0755	13	C5H10NO+
117.0572	2	C8H7N+
118.0651	2	C8H8N+
128.0623	42	C10H8+
129.0701	7	C10H9+
155.0608	8	C10H7N2+
