Mass spectrum: PAR_146.0966_8.3; LC-ESI-QFT; MS2; CE: 45; R=17500; [M+H]+
Name: PAR_146.0966_8.3
Name: N-propargylbenzylamine
Name: N-benzylprop-2-yn-1-amine
Formula: C10H11N
Exact mass: 145.0891
SMILES: C#CCNCC1=CC=CC=C1
InChI: InChI=1S/C10H11N/c1-2-8-11-9-10-6-4-3-5-7-10/h1,3-7,11H,8-9H2
Instrument: Q Exactive Orbitrap Thermo Scientific
Instrument type: LC-ESI-QFT
Ms type: MS2
Ion mode: POSITIVE
Ionization: ESI
Fragmentation mode: HCD
Collision energy: 45 (nominal)
Resolution: 17500
Column name: Atlantis T3 3um, 3x150mm, Waters with guard column
Retention time: 8.3 min
Base peak: 61.0285
Precursor m/z: 146.0964
Precursor type: [M+H]+
m/z	relative intensity	assigned
65.0387	7	C5H5+
72.0809	2	C4H10N+
86.0602	4	C4H8NO+
91.0543	999	C7H7+
100.0756	12	C5H10NO+
118.065	11	C8H8N+
128.0622	15	C10H8+
129.07	51	C10H9+
145.0654	2	C10H9O+
146.0966	15	C10H12N+
155.0608	2	C10H7N2+
