Mass spectrum: PAR_174.09141_15.0; LC-ESI-QFT; MS2; CE: 30; R=17500; [M+H]+
Name: PAR_174.09141_15.0
Name: Pargyline formamide
Formula: C11H11NO
Exact mass: 173.0841
SMILES: O=CN(CC#C)CC1=CC=CC=C1
InChI: InChI=1S/C11H11NO/c1-2-8-12(10-13)9-11-6-4-3-5-7-11/h1,3-7,10H,8-9H2
Instrument: Q Exactive Orbitrap Thermo Scientific
Instrument type: LC-ESI-QFT
Ms type: MS2
Ion mode: POSITIVE
Ionization: ESI
Fragmentation mode: HCD
Collision energy: 30 (nominal)
Resolution: 17500
Column name: Atlantis T3 3um, 3x150mm, Waters with guard column
Retention time: 15.0 min
Base peak: 60.0809
Precursor m/z: 174.0913
Precursor type: [M+H]+
m/z	relative intensity	assigned
65.0387	4	C5H5+
68.0496	9	C4H6N+
91.0543	999	C7H7+
95.0857	7	C7H11+
96.0444	23	C5H6NO+
96.0889	25	C2H12N2O2+
104.0492	2	C7H6N+
128.0622	7	C10H8+
129.07	86	C10H9+
174.0915	70	C11H12NO+
