Mass spectrum: PHE_257.1648_10.4; LC-ESI-QFT; MS2; CE: 15-90; R=17500; [M+H]+
Name: PHE_257.1648_10.4
Name: Pheniramine N-Oxide
Name: N,N-dimethyl-3-phenyl-3-pyridin-2-ylpropan-1-amine oxide
Formula: C16H20N2O
Exact mass: 256.1576
SMILES: C[N+](C)([O-])CCC(C1=CC=CC=C1)C1=NC=CC=C1
InChI: InChI=1S/C16H20N2O/c1-18(2,19)13-11-15(14-8-4-3-5-9-14)16-10-6-7-12-17-16/h3-10,12,15H,11,13H2,1-2H3
Instrument: Q Exactive Orbitrap Thermo Scientific
Instrument type: LC-ESI-QFT
Ms type: MS2
Ion mode: POSITIVE
Ionization: ESI
Fragmentation mode: HCD
Collision energy: 15, 30, 45, 60, 70 or 90 (nominal)
Resolution: 17500
Column name: Atlantis T3 3um, 3x150mm, Waters with guard column
Retention time: 10.5 min
Base peak: 257.1654
Precursor m/z: 257.1648
Precursor type: [M+H]+
m/z	relative intensity	assigned
167.0729	4	C12H9N+
168.0813	4	C12H10N+
196.1124	999	C14H14N+
257.1636	1	C16H21N2O+
