Mass spectrum: PHE_241.1699_9.7; LC-ESI-QFT; MS2; CE: 15-90; R=17500; [M+H]+
Name: PHE_241.1699_9.7
Name: Pheniramine
Name: N,N-dimethyl-3-phenyl-3-pyridin-2-ylpropan-1-amine
Formula: C16H20N2
Exact mass: 240.1626
SMILES: CN(C)CCC(c1ccccc1)c1ccccn1
InChI: InChI=1S/C16H20N2/c1-18(2)13-11-15(14-8-4-3-5-9-14)16-10-6-7-12-17-16/h3-10,12,15H,11,13H2,1-2H3
Instrument: Q Exactive Orbitrap Thermo Scientific
Instrument type: LC-ESI-QFT
Ms type: MS2
Ion mode: POSITIVE
Ionization: ESI
Fragmentation mode: HCD
Collision energy: 15, 30, 45, 60, 70 or 90 (nominal)
Resolution: 17500
Column name: Atlantis T3 3um, 3x150mm, Waters with guard column
Retention time: 9.9 min
Base peak: 241.1702
Precursor m/z: 241.1699
Precursor type: [M+H]+
m/z	relative intensity	assigned
91.0543	165	C7H7+
94.0652	2	C6H8N+
110.0601	15	C6H8NO+
115.0544	4	C9H7+
117.0574	40	C8H7N+
118.0652	131	C8H8N+
119.0731	31	C8H9N+
129.07	3	C10H9+
166.0656	4	C12H8N+
167.0733	712	C12H9N+
168.0809	999	C12H10N+
180.0811	18	C13H10N+
181.0888	16	C13H11N+
194.0967	42	C14H12N+
195.1047	14	C14H13N+
196.1123	859	C14H14N+
