Mass spectrum: PRI_247.1079_16.2; LC-ESI-QFT; MS2; CE: 60; R=17500; [M+H]+
Name: PRI_247.1079_16.2
Name: 2-[(6-methoxyquinolin-8-yl)amino]propanoic acid
Formula: C13H14N2O3
Exact mass: 246.1004
SMILES: COC1=CC2=CC=CN=C2C(NC(C)C(O)=O)=C1
InChI: InChI=1S/C13H14N2O3/c1-8(13(16)17)15-11-7-10(18-2)6-9-4-3-5-14-12(9)11/h3-8,15H,1-2H3,(H,16,17)
Instrument: Q Exactive Plus Orbitrap Thermo Scientific
Instrument type: LC-ESI-QFT
Ms type: MS2
Ion mode: POSITIVE
Ionization: ESI
Fragmentation mode: HCD
Collision energy: 60 (nominal)
Resolution: 17500
Column name: Atlantis T3 3um, 3x150mm, Waters with guard column
Retention time: 15.9 min
Base peak: 65.0597
Precursor m/z: 247.1077
Precursor type: [M+H]+
m/z	relative intensity	assigned
59.0491	3	C3H7O+
93.0571	2	C6H7N+
117.0571	5	C8H7N+
119.0604	1	C7H7N2+
130.0652	1	C9H8N+
131.0604	5	C8H7N2+
132.0679	2	C8H8N2+
144.0681	41	C9H8N2+
145.076	187	C9H9N2+
147.0551	2	C8H7N2O+
157.0759	7	C10H9N2+
158.0838	111	C10H10N2+
159.0679	8	C10H9NO+
160.0629	4	C9H8N2O+
160.0756	16	C10H10NO+
161.0711	2	C9H9N2O+
169.0762	2	C11H9N2+
170.084	2	C11H10N2+
171.0554	6	C10H7N2O+
171.0918	1	C11H11N2+
173.0468	1	C10H7NO2+
173.0709	27	C10H9N2O+
174.0787	326	C10H10N2O+
175.0865	45	C10H11N2O+
176.0577	2	C9H8N2O2+
184.0759	3	C12H10NO+
185.0709	11	C11H9N2O+
186.0787	433	C11H10N2O+
189.0662	2	C10H9N2O2+
190.0737	5	C10H10N2O2+
199.0864	11	C12H11N2O+
200.0941	4	C12H12N2O+
201.1021	999	C12H13N2O+
205.0973	1	C11H13N2O2+
