Mass spectrum: PRI_275.1026_12.7; LC-ESI-QFT; MS2; CE: 90; R=17500; [M+H]+
Name: PRI_275.1026_12.7
Name: 4-[(6-methoxyquinolin-8-yl)amino]-4-oxobutanoic acid
Formula: C14H14N2O4
Exact mass: 274.0954
Instrument: Q Exactive Plus Orbitrap Thermo Scientific
Instrument type: LC-ESI-QFT
Ms type: MS2
Ion mode: POSITIVE
Ionization: ESI
Fragmentation mode: HCD
Collision energy: 90 (nominal)
Resolution: 17500
Column name: Atlantis T3 3um, 3x150mm, Waters with guard column
Retention time: 12.4 min
Base peak: 65.0597
Precursor m/z: 275.1026
Precursor type: [M+H]+
m/z	relative intensity	assigned
53.0387	17	C4H5+
55.0543	383	C4H7+
57.0335	1	C3H5O+
59.0492	100	C3H7O+
73.0649	1	C4H9O+
78.0337	10	C5H4N+
79.0416	59	C5H5N+
80.0494	64	C5H6N+
83.0491	19	C5H7O+
91.0545	3	C7H7+
92.0494	37	C6H6N+
96.0444	21	C5H6NO+
98.0603	1	C5H8NO+
101.06	5	C5H9O2+
104.0495	17	C7H6N+
105.0447	38	C6H5N2+
106.0287	23	C6H4NO+
110.06	12	C6H8NO+
111.0315	78	C5H5NO2+
119.0604	51	C7H7N2+
120.0445	13	C7H6NO+
129.0447	58	C8H5N2+
130.0288	19	C8H4NO+
130.065	6	C9H8N+
132.044	10	C8H6NO+
146.0599	2	C9H8NO+
147.0553	999	C8H7N2O+
158.0597	3	C10H8NO+
160.0393	7	C9H6NO2+
161.0473	2	C9H7NO2+
175.0505	11	C9H7N2O2+
176.0711	1	C10H10NO2+
185.0703	2	C11H9N2O+
186.0553	3	C11H8NO2+
187.0506	10	C10H7N2O2+
213.0659	12	C12H9N2O2+
