Mass spectrum: PRI_273.1234_9.3; LC-ESI-QFT; MS2; CE: 30; R=17500; [M+H]+
Name: PRI_273.1234_9.3
Formula: C15H16N2O3
Exact mass: 272.1161
Instrument: Q Exactive Plus Orbitrap Thermo Scientific
Instrument type: LC-ESI-QFT
Ms type: MS2
Ion mode: POSITIVE
Ionization: ESI
Fragmentation mode: HCD
Collision energy: 30 (nominal)
Resolution: 17500
Column name: Atlantis T3 3um, 3x150mm, Waters with guard column
Retention time: 9.0 min
Base peak: 65.0597
Precursor m/z: 273.1234
Precursor type: [M+H]+
m/z	relative intensity	assigned
99.0439	4	C5H7O2+
175.0864	6	C10H11N2O+
227.1179	1	C14H15N2O+
237.102	6	C15H13N2O+
255.1124	1	C15H15N2O2+
273.1231	999	C15H17N2O3+
