Mass spectrum: PRI_275.1391_17.2; LC-ESI-QFT; MS2; CE: 60; R=17500; [M+H]+
Name: PRI_275.1391_17.2
Name: 8-(3-carboxy-1-methylpropylamino)-6-methoxyquinoline
Name: 4-[(6-methoxyquinolin-8-yl)amino]pentanoic acid
Formula: C15H18N2O3
Exact mass: 274.1317
SMILES: COC1=CC2=CC=CN=C2C(NC(C)CCC(O)=O)=C1
InChI: InChI=1S/C15H18N2O3/c1-10(5-6-14(18)19)17-13-9-12(20-2)8-11-4-3-7-16-15(11)13/h3-4,7-10,17H,5-6H2,1-2H3,(H,18,19)
Instrument: Q Exactive Plus Orbitrap Thermo Scientific
Instrument type: LC-ESI-QFT
Ms type: MS2
Ion mode: POSITIVE
Ionization: ESI
Fragmentation mode: HCD
Collision energy: 60 (nominal)
Resolution: 17500
Column name: Atlantis T3 3um, 3x150mm, Waters with guard column
Retention time: 16.8 min
Base peak: 65.0597
Precursor m/z: 275.139
Precursor type: [M+H]+
m/z	relative intensity	assigned
55.0542	507	C4H7+
57.0333	21	C3H5O+
57.0699	180	C4H9+
59.0491	56	C3H7O+
60.0806	72	C3H10N+
69.0698	87	C5H9+
71.0856	16	C5H11+
81.0699	21	C6H9+
83.0491	194	C5H7O+
83.0854	89	C6H11+
95.0853	14	C7H11+
101.0597	62	C5H9O2+
105.0699	17	C8H9+
107.0858	15	C8H11+
132.0679	128	C8H8N2+
160.0629	133	C9H8N2O+
174.0787	17	C10H10N2O+
175.0866	999	C10H11N2O+
239.1183	80	C15H15N2O+
257.1285	205	C15H17N2O2+
