Mass spectrum: PRI_273.1234_9.3; LC-ESI-QFT; MS2; CE: 60; R=17500; [M+H]+
Name: PRI_273.1234_9.3
Formula: C15H16N2O3
Exact mass: 272.1161
Instrument: Q Exactive Plus Orbitrap Thermo Scientific
Instrument type: LC-ESI-QFT
Ms type: MS2
Ion mode: POSITIVE
Ionization: ESI
Fragmentation mode: HCD
Collision energy: 60 (nominal)
Resolution: 17500
Column name: Atlantis T3 3um, 3x150mm, Waters with guard column
Retention time: 9.0 min
Base peak: 65.0597
Precursor m/z: 273.1234
Precursor type: [M+H]+
m/z	relative intensity	assigned
53.0386	12	C4H5+
55.0542	8	C4H7+
57.0335	2	C3H5O+
69.07	2	C5H9+
71.0491	596	C4H7O+
80.0494	9	C5H6N+
81.0335	59	C5H5O+
99.044	999	C5H7O2+
131.0605	9	C8H7N2+
132.0682	35	C8H8N2+
143.0605	2	C9H7N2+
144.0681	23	C9H8N2+
145.076	63	C9H9N2+
157.0752	3	C10H9N2+
158.0478	15	C9H6N2O+
158.0604	2	C10H8NO+
159.068	11	C10H9NO+
160.0632	62	C9H8N2O+
171.0919	11	C11H11N2+
173.0713	11	C10H9N2O+
173.0843	2	C11H11NO+
174.0788	196	C10H10N2O+
175.0866	815	C10H11N2O+
183.0923	11	C12H11N2+
184.0634	3	C11H8N2O+
184.0995	23	C12H12N2+
185.071	23	C11H9N2O+
186.0783	27	C11H10N2O+
186.1158	5	C12H14N2+
193.0761	25	C13H9N2+
194.0837	116	C13H10N2+
195.0677	4	C13H9NO+
195.0919	13	C13H11N2+
196.0996	11	C13H12N2+
197.0704	95	C12H9N2O+
198.0779	26	C12H10N2O+
199.0865	173	C12H11N2O+
200.0943	107	C12H12N2O+
201.1022	29	C12H13N2O+
206.0844	4	C14H10N2+
207.0923	3	C14H11N2+
210.0917	16	C14H12NO+
211.0865	336	C13H11N2O+
212.0942	208	C13H12N2O+
213.1023	68	C13H13N2O+
214.1106	16	C13H14N2O+
222.0788	75	C14H10N2O+
225.1027	10	C14H13N2O+
227.1179	516	C14H15N2O+
229.1334	31	C14H17N2O+
230.105	60	C13H14N2O2+
236.0942	64	C15H12N2O+
237.1022	485	C15H13N2O+
255.1128	19	C15H15N2O2+
273.1233	697	C15H17N2O3+
