Mass spectrum: PRI_275.1026_12.7; LC-ESI-QFT; MS2; CE: 15; R=17500; [M+H]+
Name: PRI_275.1026_12.7
Name: 4-[(6-methoxyquinolin-8-yl)amino]-4-oxobutanoic acid
Formula: C14H14N2O4
Exact mass: 274.0954
Instrument: Q Exactive Plus Orbitrap Thermo Scientific
Instrument type: LC-ESI-QFT
Ms type: MS2
Ion mode: POSITIVE
Ionization: ESI
Fragmentation mode: HCD
Collision energy: 15 (nominal)
Resolution: 17500
Column name: Atlantis T3 3um, 3x150mm, Waters with guard column
Retention time: 12.4 min
Base peak: 65.0597
Precursor m/z: 275.1026
Precursor type: [M+H]+
m/z	relative intensity	assigned
83.0494	1	C5H7O+
101.0598	12	C5H9O2+
147.0559	1	C8H7N2O+
175.0502	51	C9H7N2O2+
216.0655	1	C12H10NO3+
229.0971	2	C13H13N2O2+
242.0694	1	C13H10N2O3+
257.0922	42	C14H13N2O3+
275.1026	999	C14H15N2O4+
