Mass spectrum: PRI_247.1079_16.2; LC-ESI-QFT; MS2; CE: 75; R=17500; [M+H]+
Name: PRI_247.1079_16.2
Name: 2-[(6-methoxyquinolin-8-yl)amino]propanoic acid
Formula: C13H14N2O3
Exact mass: 246.1004
SMILES: COC1=CC2=CC=CN=C2C(NC(C)C(O)=O)=C1
InChI: InChI=1S/C13H14N2O3/c1-8(13(16)17)15-11-7-10(18-2)6-9-4-3-5-14-12(9)11/h3-8,15H,1-2H3,(H,16,17)
Instrument: Q Exactive Plus Orbitrap Thermo Scientific
Instrument type: LC-ESI-QFT
Ms type: MS2
Ion mode: POSITIVE
Ionization: ESI
Fragmentation mode: HCD
Collision energy: 75 (nominal)
Resolution: 17500
Column name: Atlantis T3 3um, 3x150mm, Waters with guard column
Retention time: 15.9 min
Base peak: 65.0597
Precursor m/z: 247.1077
Precursor type: [M+H]+
m/z	relative intensity	assigned
55.0542	1	C4H7+
57.0696	1	C4H9+
59.049	5	C3H7O+
67.0542	1	C5H7+
79.054	1	C6H7+
81.07	1	C6H9+
91.0542	3	C7H7+
93.0573	20	C6H7N+
95.049	1	C6H7O+
103.0542	1	C8H7+
105.0447	1	C6H5N2+
105.0699	1	C8H9+
115.0548	1	C9H7+
116.0492	1	C8H6N+
117.0572	97	C8H7N+
118.0651	6	C8H8N+
119.0609	3	C7H7N2+
120.0439	6	C7H6NO+
128.0491	9	C9H6N+
129.0571	8	C9H7N+
130.0526	10	C8H6N2+
130.0651	28	C9H8N+
131.0603	37	C8H7N2+
131.0728	28	C9H9N+
132.0681	29	C8H8N2+
133.0524	1	C8H7NO+
133.0646	1	C9H9O+
134.0599	5	C8H8NO+
135.0807	1	C9H11O+
141.0573	5	C10H7N+
143.0607	14	C9H7N2+
144.0681	274	C9H8N2+
145.076	803	C9H9N2+
146.06	3	C9H8NO+
147.0555	3	C8H7N2O+
155.0601	9	C10H7N2+
156.0443	9	C10H6NO+
156.0677	3	C10H8N2+
157.076	105	C10H9N2+
158.0838	710	C10H10N2+
159.0678	72	C10H9NO+
160.04	10	C9H6NO2+
160.0629	21	C9H8N2O+
160.0757	27	C10H10NO+
161.0709	5	C9H9N2O+
162.0424	6	C8H6N2O2+
162.0554	3	C9H8NO2+
169.0756	12	C11H9N2+
170.0604	3	C11H8NO+
170.0839	6	C11H10N2+
171.0552	44	C10H7N2O+
171.0916	6	C11H11N2+
172.0386	1	C10H6NO2+
173.0472	4	C10H7NO2+
173.0709	68	C10H9N2O+
174.0554	138	C10H8NO2+
174.0786	290	C10H10N2O+
175.0865	66	C10H11N2O+
176.0586	5	C9H8N2O2+
184.0629	13	C11H8N2O+
184.0763	6	C12H10NO+
185.0709	48	C11H9N2O+
186.0787	999	C11H10N2O+
189.0654	6	C10H9N2O2+
199.0864	38	C12H11N2O+
200.0944	10	C12H12N2O+
201.1021	575	C12H13N2O+
