Mass spectrum: PRI_273.1234_9.3; LC-ESI-QFT; MS2; CE: 45; R=17500; [M+H]+
Name: PRI_273.1234_9.3
Formula: C15H16N2O3
Exact mass: 272.1161
Instrument: Q Exactive Plus Orbitrap Thermo Scientific
Instrument type: LC-ESI-QFT
Ms type: MS2
Ion mode: POSITIVE
Ionization: ESI
Fragmentation mode: HCD
Collision energy: 45 (nominal)
Resolution: 17500
Column name: Atlantis T3 3um, 3x150mm, Waters with guard column
Retention time: 9.0 min
Base peak: 65.0597
Precursor m/z: 273.1234
Precursor type: [M+H]+
m/z	relative intensity	assigned
71.0491	42	C4H7O+
81.0334	6	C5H5O+
99.044	169	C5H7O2+
174.0787	23	C10H10N2O+
175.0865	150	C10H11N2O+
194.0839	2	C13H10N2+
199.0862	10	C12H11N2O+
200.0943	8	C12H12N2O+
201.1024	2	C12H13N2O+
211.0859	6	C13H11N2O+
212.0943	10	C13H12N2O+
213.1025	7	C13H13N2O+
222.0785	3	C14H10N2O+
227.1177	82	C14H15N2O+
229.1334	8	C14H17N2O+
230.1049	2	C13H14N2O2+
236.0935	2	C15H12N2O+
237.1021	124	C15H13N2O+
255.1123	13	C15H15N2O2+
258.099	2	C14H14N2O3+
273.1232	999	C15H17N2O3+
