Mass spectrum: PRI_247.1079_16.2; LC-ESI-QFT; MS2; CE: 90; R=17500; [M+H]+
Name: PRI_247.1079_16.2
Name: 2-[(6-methoxyquinolin-8-yl)amino]propanoic acid
Formula: C13H14N2O3
Exact mass: 246.1004
SMILES: COC1=CC2=CC=CN=C2C(NC(C)C(O)=O)=C1
InChI: InChI=1S/C13H14N2O3/c1-8(13(16)17)15-11-7-10(18-2)6-9-4-3-5-14-12(9)11/h3-8,15H,1-2H3,(H,16,17)
Instrument: Q Exactive Plus Orbitrap Thermo Scientific
Instrument type: LC-ESI-QFT
Ms type: MS2
Ion mode: POSITIVE
Ionization: ESI
Fragmentation mode: HCD
Collision energy: 90 (nominal)
Resolution: 17500
Column name: Atlantis T3 3um, 3x150mm, Waters with guard column
Retention time: 15.9 min
Base peak: 65.0597
Precursor m/z: 247.1077
Precursor type: [M+H]+
m/z	relative intensity	assigned
55.0542	1	C4H7+
59.0491	2	C3H7O+
67.0541	1	C5H7+
79.0542	1	C6H7+
81.0697	1	C6H9+
89.0387	4	C7H5+
91.0542	9	C7H7+
93.0572	39	C6H7N+
95.0492	1	C6H7O+
103.0541	5	C8H7+
105.0448	2	C6H5N2+
105.07	4	C8H9+
115.0543	1	C9H7+
116.0494	5	C8H6N+
117.0572	326	C8H7N+
118.065	28	C8H8N+
120.0443	9	C7H6NO+
128.0494	64	C9H6N+
129.0572	31	C9H7N+
130.0525	43	C8H6N2+
130.065	111	C9H8N+
131.0603	160	C8H7N2+
131.0728	82	C9H9N+
132.0681	74	C8H8N2+
133.0525	1	C8H7NO+
133.0645	1	C9H9O+
134.0598	32	C8H8NO+
141.057	10	C10H7N+
143.0604	81	C9H7N2+
144.0681	435	C9H8N2+
145.076	999	C9H9N2+
146.0596	10	C9H8NO+
147.0552	5	C8H7N2O+
155.0603	22	C10H7N2+
156.0444	13	C10H6NO+
156.0676	11	C10H8N2+
157.076	316	C10H9N2+
158.0838	791	C10H10N2+
159.0677	130	C10H9NO+
160.0395	14	C9H6NO2+
160.0628	20	C9H8N2O+
160.0757	15	C10H10NO+
161.0706	4	C9H9N2O+
162.0422	49	C8H6N2O2+
162.055	12	C9H8NO2+
169.076	10	C11H9N2+
170.0597	3	C11H8NO+
170.0838	4	C11H10N2+
171.0552	68	C10H7N2O+
171.0914	5	C11H11N2+
172.0395	1	C10H6NO2+
173.0709	40	C10H9N2O+
174.0549	252	C10H8NO2+
175.0866	34	C10H11N2O+
176.0577	4	C9H8N2O2+
184.063	14	C11H8N2O+
184.0752	1	C12H10NO+
185.0709	78	C11H9N2O+
186.0787	489	C11H10N2O+
187.0863	1	C11H11N2O+
189.0656	5	C10H9N2O2+
199.0866	24	C12H11N2O+
200.0946	5	C12H12N2O+
201.102	106	C12H13N2O+
