Mass spectrum: PRI_275.1026_12.7; LC-ESI-QFT; MS2; CE: 60; R=17500; [M+H]+
Name: PRI_275.1026_12.7
Name: 4-[(6-methoxyquinolin-8-yl)amino]-4-oxobutanoic acid
Formula: C14H14N2O4
Exact mass: 274.0954
Instrument: Q Exactive Plus Orbitrap Thermo Scientific
Instrument type: LC-ESI-QFT
Ms type: MS2
Ion mode: POSITIVE
Ionization: ESI
Fragmentation mode: HCD
Collision energy: 60 (nominal)
Resolution: 17500
Column name: Atlantis T3 3um, 3x150mm, Waters with guard column
Retention time: 12.4 min
Base peak: 65.0597
Precursor m/z: 275.1026
Precursor type: [M+H]+
m/z	relative intensity	assigned
53.0386	7	C4H5+
55.0543	393	C4H7+
57.0335	2	C3H5O+
57.07	1	C4H9+
59.0491	97	C3H7O+
70.0652	1	C4H8N+
73.065	1	C4H9O+
83.0491	101	C5H7O+
98.0601	14	C5H8NO+
101.0597	75	C5H9O2+
111.0313	1	C5H5NO2+
119.0601	1	C7H7N2+
129.0452	1	C8H5N2+
130.0652	1	C9H8N+
132.0444	5	C8H6NO+
147.0553	999	C8H7N2O+
148.0754	2	C9H10NO+
158.0602	4	C10H8NO+
160.039	5	C9H6NO2+
161.0476	1	C9H7NO2+
162.0549	2	C9H8NO2+
174.0549	14	C10H8NO2+
175.0503	297	C9H7N2O2+
176.0707	26	C10H10NO2+
184.0756	2	C12H10NO+
185.0478	2	C11H7NO2+
185.0713	1	C11H9N2O+
186.0553	11	C11H8NO2+
187.0503	5	C10H7N2O2+
188.0711	2	C11H10NO2+
201.1026	1	C12H13N2O+
202.0734	9	C11H10N2O2+
203.081	5	C11H11N2O2+
211.0861	2	C13H11N2O+
212.0702	5	C13H10NO2+
213.0657	10	C12H9N2O2+
214.0733	9	C12H10N2O2+
215.0807	1	C12H11N2O2+
229.0971	7	C13H13N2O2+
242.0687	8	C13H10N2O3+
