Mass spectrum: PRI_175.0866_12.2; LC-ESI-QFT; MS2; CE: (160-0.41mz or 15) NCE; R=17500; [M+H]+
Name: PRI_175.0866_12.2
Name: 8-Amino-6-methoxyquinoline
Name: 6-methoxyquinolin-8-amine
Formula: C10H10N2O
Exact mass: 174.0793
SMILES: COC1=CC2=CC=CN=C2C(N)=C1
InChI: InChI=1S/C10H10N2O/c1-13-8-5-7-3-2-4-12-10(7)9(11)6-8/h2-6H,11H2,1H3
Instrument: Q Exactive Orbitrap Thermo Scientific
Instrument type: LC-ESI-QFT
Ms type: MS2
Ion mode: POSITIVE
Ionization: ESI
Fragmentation mode: HCD
Collision energy: 160-0.41mz or 15 (mz>350) nominal units
Resolution: 17500
Column name: Atlantis T3 3um, 3x150mm, Waters with guard column
Retention time: 12.2 min
Base peak: 79.0212
Precursor m/z: 175.0866
Precursor type: [M+H]+
m/z	relative intensity	assigned
59.0492	2	C3H7O+
73.0648	3	C4H9O+
79.0415	5	C5H5N+
80.0498	1	C5H6N+
91.0542	3	C7H7+
95.049	1	C6H7O+
103.0543	1	C8H7+
104.0494	7	C7H6N+
105.0573	16	C7H7N+
108.0443	1	C6H6NO+
111.0315	4	C5H5NO2+
117.057	9	C8H7N+
119.0606	1	C7H7N2+
128.0496	1	C9H6N+
130.0652	5	C9H8N+
131.0604	326	C8H7N2+
132.0682	999	C8H8N2+
133.0519	1	C8H7NO+
134.06	4	C8H8NO+
143.0602	8	C9H7N2+
144.0448	5	C9H6NO+
144.0682	33	C9H8N2+
145.0759	6	C9H9N2+
159.0555	1	C9H7N2O+
160.0631	68	C9H8N2O+
175.0865	49	C10H11N2O+
