Mass spectrum: PRI_275.1391_17.2; LC-ESI-QFT; MS2; CE: 90; R=17500; [M+H]+
Name: PRI_275.1391_17.2
Name: 8-(3-carboxy-1-methylpropylamino)-6-methoxyquinoline
Name: 4-[(6-methoxyquinolin-8-yl)amino]pentanoic acid
Formula: C15H18N2O3
Exact mass: 274.1317
SMILES: COC1=CC2=CC=CN=C2C(NC(C)CCC(O)=O)=C1
InChI: InChI=1S/C15H18N2O3/c1-10(5-6-14(18)19)17-13-9-12(20-2)8-11-4-3-7-16-15(11)13/h3-4,7-10,17H,5-6H2,1-2H3,(H,18,19)
Instrument: Q Exactive Plus Orbitrap Thermo Scientific
Instrument type: LC-ESI-QFT
Ms type: MS2
Ion mode: POSITIVE
Ionization: ESI
Fragmentation mode: HCD
Collision energy: 90 (nominal)
Resolution: 17500
Column name: Atlantis T3 3um, 3x150mm, Waters with guard column
Retention time: 16.8 min
Base peak: 65.0597
Precursor m/z: 275.139
Precursor type: [M+H]+
m/z	relative intensity	assigned
55.0543	545	C4H7+
57.0334	24	C3H5O+
57.0698	71	C4H9+
59.0491	83	C3H7O+
60.0805	30	C3H10N+
67.0542	29	C5H7+
69.0699	32	C5H9+
79.0542	30	C6H7+
81.0701	36	C6H9+
83.0491	91	C5H7O+
91.0542	67	C7H7+
105.0699	26	C8H9+
131.0603	140	C8H7N2+
132.0681	999	C8H8N2+
144.0682	91	C9H8N2+
145.0762	90	C9H9N2+
160.063	190	C9H8N2O+
175.0863	159	C10H11N2O+
