Mass spectrum: PRI_275.1026_12.7; LC-ESI-QFT; MS2; CE: 45; R=17500; [M+H]+
Name: PRI_275.1026_12.7
Name: 4-[(6-methoxyquinolin-8-yl)amino]-4-oxobutanoic acid
Formula: C14H14N2O4
Exact mass: 274.0954
Instrument: Q Exactive Plus Orbitrap Thermo Scientific
Instrument type: LC-ESI-QFT
Ms type: MS2
Ion mode: POSITIVE
Ionization: ESI
Fragmentation mode: HCD
Collision energy: 45 (nominal)
Resolution: 17500
Column name: Atlantis T3 3um, 3x150mm, Waters with guard column
Retention time: 12.4 min
Base peak: 65.0597
Precursor m/z: 275.1026
Precursor type: [M+H]+
m/z	relative intensity	assigned
53.0386	6	C4H5+
55.0543	348	C4H7+
57.0697	4	C4H9+
59.0491	64	C3H7O+
73.0648	2	C4H9O+
83.0491	162	C5H7O+
98.06	40	C5H8NO+
101.0597	263	C5H9O2+
147.0553	526	C8H7N2O+
148.0763	2	C9H10NO+
158.0602	2	C10H8NO+
160.0393	10	C9H6NO2+
161.0468	2	C9H7NO2+
162.0552	7	C9H8NO2+
174.0552	10	C10H8NO2+
175.0503	999	C9H7N2O2+
176.0705	47	C10H10NO2+
177.0657	1	C9H9N2O2+
184.0755	2	C12H10NO+
185.0471	1	C11H7NO2+
186.0544	8	C11H8NO2+
188.0708	5	C11H10NO2+
201.1027	2	C12H13N2O+
202.0735	15	C11H10N2O2+
203.0812	27	C11H11N2O2+
211.0866	6	C13H11N2O+
212.0708	8	C13H10NO2+
214.0498	6	C12H8NO3+
214.0733	7	C12H10N2O2+
215.0813	7	C12H11N2O2+
216.0656	11	C12H10NO3+
229.0972	59	C13H13N2O2+
242.0689	42	C13H10N2O3+
257.0919	26	C14H13N2O3+
275.1028	39	C14H15N2O4+
