Mass spectrum: PRI_303.1340_15.8; LC-ESI-QFT; MS2; CE: 30; R=17500; [M+H]+
Name: PRI_303.1340_15.8
Formula: C16H18N2O4
Exact mass: 302.1267
SMILES: COC1=CC2=CC=CN=C2C(=C1)N(C=O)C(C)CCC(O)=O
InChI: InChI=1S/C16H18N2O4/c1-11(5-6-15(20)21)18(10-19)14-9-13(22-2)8-12-4-3-7-17-16(12)14/h3-4,7-11H,5-6H2,1-2H3,(H,20,21)
Instrument: Q Exactive Plus Orbitrap Thermo Scientific
Instrument type: LC-ESI-QFT
Ms type: MS2
Ion mode: POSITIVE
Ionization: ESI
Fragmentation mode: HCD
Collision energy: 30 (nominal)
Resolution: 17500
Column name: Atlantis T3 3um, 3x150mm, Waters with guard column
Retention time: 15.4 min
Base peak: 65.0597
Precursor m/z: 303.1339
Precursor type: [M+H]+
m/z	relative intensity	assigned
203.0812	91	C11H11N2O2+
253.0976	16	C15H13N2O2+
257.1519	29	C15H19N3O+
285.1221	24	C16H17N2O3+
303.1338	999	C16H19N2O4+
