Mass spectrum: PRI_273.1234_9.3; LC-ESI-QFT; MS2; CE: 90; R=17500; [M+H]+
Name: PRI_273.1234_9.3
Formula: C15H16N2O3
Exact mass: 272.1161
Instrument: Q Exactive Plus Orbitrap Thermo Scientific
Instrument type: LC-ESI-QFT
Ms type: MS2
Ion mode: POSITIVE
Ionization: ESI
Fragmentation mode: HCD
Collision energy: 90 (nominal)
Resolution: 17500
Column name: Atlantis T3 3um, 3x150mm, Waters with guard column
Retention time: 9.0 min
Base peak: 65.0597
Precursor m/z: 273.1234
Precursor type: [M+H]+
m/z	relative intensity	assigned
53.0385	35	C4H5+
55.0541	11	C4H7+
57.0334	4	C3H5O+
71.0491	414	C4H7O+
79.0546	2	C6H7+
80.0494	6	C5H6N+
81.0335	43	C5H5O+
91.0541	13	C7H7+
99.044	148	C5H7O2+
117.0572	70	C8H7N+
129.0571	31	C9H7N+
130.0525	23	C8H6N2+
130.065	93	C9H8N+
131.0603	114	C8H7N2+
132.0681	413	C8H8N2+
134.0599	38	C8H8NO+
142.0525	47	C9H6N2+
143.0604	20	C9H7N2+
143.0728	17	C10H9N+
144.0683	150	C9H8N2+
145.076	344	C9H9N2+
155.0601	27	C10H7N2+
156.068	100	C10H8N2+
157.076	37	C10H9N2+
158.0473	31	C9H6N2O+
158.0601	36	C10H8NO+
158.0839	11	C10H10N2+
159.0679	54	C10H9NO+
160.063	113	C9H8N2O+
162.0423	25	C8H6N2O2+
167.0727	31	C12H9N+
168.0679	26	C11H8N2+
169.076	119	C11H9N2+
170.0481	9	C10H6N2O+
170.0835	40	C11H10N2+
171.068	8	C11H9NO+
171.0915	41	C11H11N2+
173.0709	18	C10H9N2O+
173.0842	4	C11H11NO+
174.0551	125	C10H8NO2+
174.0784	59	C10H10N2O+
175.0864	133	C10H11N2O+
181.0753	18	C12H9N2+
182.0841	18	C12H10N2+
183.0916	153	C12H11N2+
184.0628	92	C11H8N2O+
184.0995	58	C12H12N2+
185.0704	38	C11H9N2O+
185.1071	5	C12H13N2+
186.0779	35	C11H10N2O+
186.0918	4	C12H12NO+
186.1147	3	C12H14N2+
193.076	287	C13H9N2+
194.0837	137	C13H10N2+
195.0678	11	C13H9NO+
195.0916	41	C13H11N2+
197.0708	350	C12H9N2O+
198.0787	67	C12H10N2O+
199.0864	301	C12H11N2O+
200.0946	17	C12H12N2O+
201.1018	3	C12H13N2O+
205.0755	13	C14H9N2+
206.0838	3	C14H10N2+
211.0865	999	C13H11N2O+
212.0943	53	C13H12N2O+
213.1024	48	C13H13N2O+
221.0702	33	C14H9N2O+
222.0782	16	C14H10N2O+
225.1022	4	C14H13N2O+
227.1175	22	C14H15N2O+
230.1054	3	C13H14N2O2+
236.0942	43	C15H12N2O+
237.1015	15	C15H13N2O+
