Mass spectrum: PRI_275.1026_12.7; LC-ESI-QFT; MS2; CE: 75; R=17500; [M+H]+
Name: PRI_275.1026_12.7
Name: 4-[(6-methoxyquinolin-8-yl)amino]-4-oxobutanoic acid
Formula: C14H14N2O4
Exact mass: 274.0954
Instrument: Q Exactive Plus Orbitrap Thermo Scientific
Instrument type: LC-ESI-QFT
Ms type: MS2
Ion mode: POSITIVE
Ionization: ESI
Fragmentation mode: HCD
Collision energy: 75 (nominal)
Resolution: 17500
Column name: Atlantis T3 3um, 3x150mm, Waters with guard column
Retention time: 12.4 min
Base peak: 65.0597
Precursor m/z: 275.1026
Precursor type: [M+H]+
m/z	relative intensity	assigned
53.0386	9	C4H5+
55.0543	359	C4H7+
59.0491	80	C3H7O+
70.0651	1	C4H8N+
73.0647	1	C4H9O+
78.034	1	C5H4N+
79.0416	14	C5H5N+
80.0494	8	C5H6N+
83.0491	39	C5H7O+
91.0543	1	C7H7+
92.0496	4	C6H6N+
96.0442	2	C5H6NO+
98.0601	6	C5H8NO+
101.0598	15	C5H9O2+
104.0494	4	C7H6N+
105.045	10	C6H5N2+
106.0286	6	C6H4NO+
110.06	4	C6H8NO+
111.0314	15	C5H5NO2+
119.0604	17	C7H7N2+
120.0446	2	C7H6NO+
129.0448	19	C8H5N2+
130.0285	7	C8H4NO+
130.0653	4	C9H8N+
132.0445	7	C8H6NO+
146.0599	1	C9H8NO+
147.0553	999	C8H7N2O+
148.0758	4	C9H10NO+
158.0604	4	C10H8NO+
160.0393	2	C9H6NO2+
161.0474	1	C9H7NO2+
162.0546	1	C9H8NO2+
174.0547	7	C10H8NO2+
175.0503	55	C9H7N2O2+
176.0711	10	C10H10NO2+
184.0756	1	C12H10NO+
186.0541	8	C11H8NO2+
187.0496	10	C10H7N2O2+
202.0742	1	C11H10N2O2+
203.0813	1	C11H11N2O2+
213.0657	15	C12H9N2O2+
214.0735	2	C12H10N2O2+
