Mass spectrum: PRI_260.1759_12.9; LC-ESI-QFT; MS2; CE: 15-90; R=17500; [M+H]+
Name: PRI_260.1759_12.9
Name: Primaquine
Name: 4-N-(6-methoxyquinolin-8-yl)pentane-1,4-diamine
Formula: C15H21N3O
Exact mass: 259.1685
SMILES: COC1=CC2=CC=CN=C2C(NC(C)CCCN)=C1
InChI: InChI=1S/C15H21N3O/c1-11(5-3-7-16)18-14-10-13(19-2)9-12-6-4-8-17-15(12)14/h4,6,8-11,18H,3,5,7,16H2,1-2H3
Instrument: Q Exactive Orbitrap Thermo Scientific
Instrument type: LC-ESI-QFT
Ms type: MS2
Ion mode: POSITIVE
Ionization: ESI
Fragmentation mode: HCD
Collision energy: 15, 30, 45, 60, 70 or 90 (nominal)
Resolution: 17500
Column name: Atlantis T3 3um, 3x150mm, Waters with guard column
Retention time: 13.2 min
Base peak: 79.0212
Precursor m/z: 260.1757
Precursor type: [M+H]+
m/z	relative intensity	assigned
67.0543	12	C5H7+
69.07	551	C5H9+
84.0806	1	C5H10N+
86.0963	963	C5H12N+
130.0647	3	C9H8N+
131.0598	7	C8H7N2+
132.068	121	C8H8N2+
143.0599	4	C9H7N2+
144.068	46	C9H8N2+
145.0759	28	C9H9N2+
157.0759	5	C10H9N2+
159.0677	4	C10H9NO+
160.0629	134	C9H8N2O+
161.0703	2	C9H9N2O+
172.0628	9	C10H8N2O+
173.0709	5	C10H9N2O+
174.0786	136	C10H10N2O+
175.0864	999	C10H11N2O+
185.0711	1	C11H9N2O+
186.0782	18	C11H10N2O+
187.0863	213	C11H11N2O+
188.0952	1	C11H12N2O+
198.1153	1	C13H14N2+
199.0865	2	C12H11N2O+
201.1018	10	C12H13N2O+
215.1178	1	C13H15N2O+
226.1095	10	C14H14N2O+
227.1177	2	C14H15N2O+
241.1332	153	C15H17N2O+
243.149	54	C15H19N2O+
