Mass spectrum: PRI_247.1079_16.2; LC-ESI-QFT; MS2; CE: 30; R=17500; [M+H]+
Name: PRI_247.1079_16.2
Name: 2-[(6-methoxyquinolin-8-yl)amino]propanoic acid
Formula: C13H14N2O3
Exact mass: 246.1004
SMILES: COC1=CC2=CC=CN=C2C(NC(C)C(O)=O)=C1
InChI: InChI=1S/C13H14N2O3/c1-8(13(16)17)15-11-7-10(18-2)6-9-4-3-5-14-12(9)11/h3-8,15H,1-2H3,(H,16,17)
Instrument: Q Exactive Plus Orbitrap Thermo Scientific
Instrument type: LC-ESI-QFT
Ms type: MS2
Ion mode: POSITIVE
Ionization: ESI
Fragmentation mode: HCD
Collision energy: 30 (nominal)
Resolution: 17500
Column name: Atlantis T3 3um, 3x150mm, Waters with guard column
Retention time: 15.9 min
Base peak: 65.0597
Precursor m/z: 247.1077
Precursor type: [M+H]+
m/z	relative intensity	assigned
59.049	1	C3H7O+
174.0787	95	C10H10N2O+
175.0864	18	C10H11N2O+
189.0654	1	C10H9N2O2+
201.102	999	C12H13N2O+
203.1184	2	C12H15N2O+
205.0971	4	C11H13N2O2+
229.0974	14	C13H13N2O2+
247.1076	465	C13H15N2O3+
