Mass spectrum: PRI_275.1026_12.7; LC-ESI-QFT; MS2; CE: 30; R=17500; [M+H]+
Name: PRI_275.1026_12.7
Name: 4-[(6-methoxyquinolin-8-yl)amino]-4-oxobutanoic acid
Formula: C14H14N2O4
Exact mass: 274.0954
Instrument: Q Exactive Plus Orbitrap Thermo Scientific
Instrument type: LC-ESI-QFT
Ms type: MS2
Ion mode: POSITIVE
Ionization: ESI
Fragmentation mode: HCD
Collision energy: 30 (nominal)
Resolution: 17500
Column name: Atlantis T3 3um, 3x150mm, Waters with guard column
Retention time: 12.4 min
Base peak: 65.0597
Precursor m/z: 275.1026
Precursor type: [M+H]+
m/z	relative intensity	assigned
55.0543	69	C4H7+
59.0492	13	C3H7O+
83.0491	48	C5H7O+
98.0601	29	C5H8NO+
101.0597	268	C5H9O2+
147.0552	47	C8H7N2O+
160.0396	5	C9H6NO2+
162.0555	1	C9H8NO2+
174.0551	5	C10H8NO2+
175.0503	932	C9H7N2O2+
176.0706	21	C10H10NO2+
177.0664	1	C9H9N2O2+
202.0729	8	C11H10N2O2+
203.0815	29	C11H11N2O2+
212.0714	1	C13H10NO2+
214.0502	6	C12H8NO3+
215.0815	8	C12H11N2O2+
216.0654	22	C12H10NO3+
229.0973	75	C13H13N2O2+
234.076	5	C12H12NO4+
242.0685	38	C13H10N2O3+
257.0921	241	C14H13N2O3+
275.1026	999	C14H15N2O4+
