Mass spectrum: PRI_261.1236_16.6; LC-ESI-QFT; MS2; CE: (160-0.41mz or 15) NCE; R=17500; [M+H]+
Name: PRI_261.1236_16.6
Formula: C14H16N2O3
Exact mass: 260.1161
Instrument: Q Exactive Orbitrap Thermo Scientific
Instrument type: LC-ESI-QFT
Ms type: MS2
Ion mode: POSITIVE
Ionization: ESI
Fragmentation mode: HCD
Collision energy: 160-0.41mz or 15 (mz>350) nominal units
Resolution: 17500
Column name: Atlantis T3 3um, 3x150mm, Waters with guard column
Retention time: 16.6 min
Base peak: 65.0598
Precursor m/z: 261.1234
Precursor type: [M+H]+
m/z	relative intensity	assigned
57.0701	18	C4H9+
67.0542	22	C5H7+
69.0336	102	C4H5O+
69.07	33	C5H9+
81.0699	26	C6H9+
83.0854	29	C6H11+
87.044	45	C4H7O2+
91.0543	30	C7H7+
93.0699	25	C7H9+
95.0855	41	C7H11+
97.065	28	C6H9O+
105.07	27	C8H9+
119.0856	22	C9H11+
132.0685	33	C8H8N2+
144.0686	32	C9H8N2+
145.0757	29	C9H9N2+
149.0236	111	C8H5O3+
160.0629	52	C9H8N2O+
174.0788	173	C10H10N2O+
175.0868	757	C10H11N2O+
186.0787	119	C11H10N2O+
201.1023	999	C12H13N2O+
