Mass spectrum: PRI_260.1759_12.9; LC-ESI-QFT; MS2; CE: 15-90; R=17500; [M+H]+
Name: PRI_260.1759_12.9
Name: Primaquine
Name: 4-N-(6-methoxyquinolin-8-yl)pentane-1,4-diamine
Formula: C15H21N3O
Exact mass: 259.1685
SMILES: COC1=CC2=CC=CN=C2C(NC(C)CCCN)=C1
InChI: InChI=1S/C15H21N3O/c1-11(5-3-7-16)18-14-10-13(19-2)9-12-6-4-8-17-15(12)14/h4,6,8-11,18H,3,5,7,16H2,1-2H3
Instrument: Q Exactive Orbitrap Thermo Scientific
Instrument type: LC-ESI-QFT
Ms type: MS2
Ion mode: POSITIVE
Ionization: ESI
Fragmentation mode: HCD
Collision energy: 15, 30, 45, 60, 70 or 90 (nominal)
Resolution: 17500
Column name: Atlantis T3 3um, 3x150mm, Waters with guard column
Retention time: 13.2 min
Base peak: 79.0212
Precursor m/z: 260.1757
Precursor type: [M+H]+
m/z	relative intensity	assigned
69.07	17	C5H9+
86.0963	796	C5H12N+
174.0781	1	C10H10N2O+
175.0863	464	C10H11N2O+
176.0934	2	C8H10N5+
241.1334	9	C15H17N2O+
243.1489	999	C15H19N2O+
260.1754	687	C15H22N3O+
