Mass spectrum: PRI_303.1340_15.8; LC-ESI-QFT; MS2; CE: 75; R=17500; [M+H]+
Name: PRI_303.1340_15.8
Formula: C16H18N2O4
Exact mass: 302.1267
SMILES: COC1=CC2=CC=CN=C2C(=C1)N(C=O)C(C)CCC(O)=O
InChI: InChI=1S/C16H18N2O4/c1-11(5-6-15(20)21)18(10-19)14-9-13(22-2)8-12-4-3-7-17-16(12)14/h3-4,7-11H,5-6H2,1-2H3,(H,20,21)
Instrument: Q Exactive Plus Orbitrap Thermo Scientific
Instrument type: LC-ESI-QFT
Ms type: MS2
Ion mode: POSITIVE
Ionization: ESI
Fragmentation mode: HCD
Collision energy: 75 (nominal)
Resolution: 17500
Column name: Atlantis T3 3um, 3x150mm, Waters with guard column
Retention time: 15.4 min
Base peak: 65.0597
Precursor m/z: 303.1339
Precursor type: [M+H]+
m/z	relative intensity	assigned
55.0543	191	C4H7+
57.0699	16	C4H9+
59.049	22	C3H7O+
83.049	37	C5H7O+
91.0543	38	C7H7+
105.0698	16	C8H9+
116.0492	35	C8H6N+
128.0618	9	C10H8+
129.0701	22	C10H9+
131.0239	36	C7H3N2O+
134.0599	38	C8H8NO+
142.0528	17	C9H6N2+
143.0603	87	C9H7N2+
144.0687	11	C9H8N2+
147.0556	46	C8H7N2O+
160.0631	113	C9H8N2O+
171.0552	999	C10H7N2O+
203.0813	169	C11H11N2O2+
