Mass spectrum: PRI_303.1340_15.8; LC-ESI-QFT; MS2; CE: 60; R=17500; [M+H]+
Name: PRI_303.1340_15.8
Formula: C16H18N2O4
Exact mass: 302.1267
SMILES: COC1=CC2=CC=CN=C2C(=C1)N(C=O)C(C)CCC(O)=O
InChI: InChI=1S/C16H18N2O4/c1-11(5-6-15(20)21)18(10-19)14-9-13(22-2)8-12-4-3-7-17-16(12)14/h3-4,7-11H,5-6H2,1-2H3,(H,20,21)
Instrument: Q Exactive Plus Orbitrap Thermo Scientific
Instrument type: LC-ESI-QFT
Ms type: MS2
Ion mode: POSITIVE
Ionization: ESI
Fragmentation mode: HCD
Collision energy: 60 (nominal)
Resolution: 17500
Column name: Atlantis T3 3um, 3x150mm, Waters with guard column
Retention time: 15.4 min
Base peak: 65.0597
Precursor m/z: 303.1339
Precursor type: [M+H]+
m/z	relative intensity	assigned
55.0542	179	C4H7+
59.0491	43	C3H7O+
83.049	70	C5H7O+
91.0542	12	C7H7+
101.0597	23	C5H9O2+
105.07	15	C8H9+
107.0852	10	C8H11+
119.0861	10	C9H11+
129.0697	15	C10H9+
131.0238	11	C7H3N2O+
143.0606	22	C9H7N2+
144.068	56	C9H8N2+
147.0552	25	C8H7N2O+
157.1009	43	C12H13+
160.0631	44	C9H8N2O+
171.0552	999	C10H7N2O+
203.0813	773	C11H11N2O2+
215.0818	58	C12H11N2O2+
303.1336	22	C16H19N2O4+
