Mass spectrum: PRI_247.1079_16.2; LC-ESI-QFT; MS2; CE: 45; R=17500; [M+H]+
Name: PRI_247.1079_16.2
Name: 2-[(6-methoxyquinolin-8-yl)amino]propanoic acid
Formula: C13H14N2O3
Exact mass: 246.1004
SMILES: COC1=CC2=CC=CN=C2C(NC(C)C(O)=O)=C1
InChI: InChI=1S/C13H14N2O3/c1-8(13(16)17)15-11-7-10(18-2)6-9-4-3-5-14-12(9)11/h3-8,15H,1-2H3,(H,16,17)
Instrument: Q Exactive Plus Orbitrap Thermo Scientific
Instrument type: LC-ESI-QFT
Ms type: MS2
Ion mode: POSITIVE
Ionization: ESI
Fragmentation mode: HCD
Collision energy: 45 (nominal)
Resolution: 17500
Column name: Atlantis T3 3um, 3x150mm, Waters with guard column
Retention time: 15.9 min
Base peak: 65.0597
Precursor m/z: 247.1077
Precursor type: [M+H]+
m/z	relative intensity	assigned
59.0491	2	C3H7O+
144.0681	1	C9H8N2+
145.0759	15	C9H9N2+
158.0838	3	C10H10N2+
160.0749	2	C10H10NO+
173.0712	2	C10H9N2O+
174.0787	220	C10H10N2O+
175.0864	27	C10H11N2O+
185.071	1	C11H9N2O+
186.0787	43	C11H10N2O+
190.0733	1	C10H10N2O2+
199.0866	1	C12H11N2O+
201.102	999	C12H13N2O+
203.1176	1	C12H15N2O+
205.0969	3	C11H13N2O2+
214.0746	2	C12H10N2O2+
229.0979	3	C13H13N2O2+
247.1075	17	C13H15N2O3+
