Mass spectrum: PRI_275.1391_17.2; LC-ESI-QFT; MS2; CE: 15; R=17500; [M+H]+
Name: PRI_275.1391_17.2
Name: 8-(3-carboxy-1-methylpropylamino)-6-methoxyquinoline
Name: 4-[(6-methoxyquinolin-8-yl)amino]pentanoic acid
Formula: C15H18N2O3
Exact mass: 274.1317
SMILES: COC1=CC2=CC=CN=C2C(NC(C)CCC(O)=O)=C1
InChI: InChI=1S/C15H18N2O3/c1-10(5-6-14(18)19)17-13-9-12(20-2)8-11-4-3-7-16-15(11)13/h3-4,7-10,17H,5-6H2,1-2H3,(H,18,19)
Instrument: Q Exactive Plus Orbitrap Thermo Scientific
Instrument type: LC-ESI-QFT
Ms type: MS2
Ion mode: POSITIVE
Ionization: ESI
Fragmentation mode: HCD
Collision energy: 15 (nominal)
Resolution: 17500
Column name: Atlantis T3 3um, 3x150mm, Waters with guard column
Retention time: 16.8 min
Base peak: 65.0597
Precursor m/z: 275.139
Precursor type: [M+H]+
m/z	relative intensity	assigned
55.0544	3	C4H7+
57.0699	16	C4H9+
60.0808	26	C3H10N+
69.0698	5	C5H9+
83.0855	19	C6H11+
89.0596	7	C4H9O2+
101.0595	6	C5H9O2+
111.0802	6	C7H11O+
175.0864	8	C10H11N2O+
187.0962	36	C9H15O4+
257.1284	999	C15H17N2O2+
