Mass spectrum: PRI_303.1340_15.8; LC-ESI-QFT; MS2; CE: 90; R=17500; [M+H]+
Name: PRI_303.1340_15.8
Formula: C16H18N2O4
Exact mass: 302.1267
SMILES: COC1=CC2=CC=CN=C2C(=C1)N(C=O)C(C)CCC(O)=O
InChI: InChI=1S/C16H18N2O4/c1-11(5-6-15(20)21)18(10-19)14-9-13(22-2)8-12-4-3-7-17-16(12)14/h3-4,7-11H,5-6H2,1-2H3,(H,20,21)
Instrument: Q Exactive Plus Orbitrap Thermo Scientific
Instrument type: LC-ESI-QFT
Ms type: MS2
Ion mode: POSITIVE
Ionization: ESI
Fragmentation mode: HCD
Collision energy: 90 (nominal)
Resolution: 17500
Column name: Atlantis T3 3um, 3x150mm, Waters with guard column
Retention time: 15.4 min
Base peak: 65.0597
Precursor m/z: 303.1339
Precursor type: [M+H]+
m/z	relative intensity	assigned
55.0543	295	C4H7+
59.0491	83	C3H7O+
91.0542	89	C7H7+
105.0703	32	C8H9+
116.0492	158	C8H6N+
119.0857	26	C9H11+
128.0622	36	C10H8+
129.0699	78	C10H9+
131.0239	96	C7H3N2O+
134.0599	209	C8H8NO+
142.0526	137	C9H6N2+
143.0606	147	C9H7N2+
147.0551	135	C8H7N2O+
160.063	306	C9H8N2O+
171.0553	999	C10H7N2O+
203.0822	38	C11H11N2O2+
