Mass spectrum: PRI_302.1864_17.0; LC-ESI-QFT; MS2; CE: (160-0.41mz or 15) NCE; R=17500; [M+H]+
Name: PRI_302.1864_17.0
Name: N-acetylprimaquine
Name: N-[4-[(6-methoxyquinolin-8-yl)amino]pentyl]acetamide
Formula: C17H23N3O2
Exact mass: 301.1790
SMILES: COC1=CC2=CC=CN=C2C(NC(C)CCCNC(C)=O)=C1
InChI: InChI=1S/C17H23N3O2/c1-12(6-4-8-18-13(2)21)20-16-11-15(22-3)10-14-7-5-9-19-17(14)16/h5,7,9-12,20H,4,6,8H2,1-3H3,(H,18,21)
Instrument: Q Exactive Orbitrap Thermo Scientific
Instrument type: LC-ESI-QFT
Ms type: MS2
Ion mode: POSITIVE
Ionization: ESI
Fragmentation mode: HCD
Collision energy: 160-0.41mz or 15 (mz>350) nominal units
Resolution: 17500
Column name: Atlantis T3 3um, 3x150mm, Waters with guard column
Retention time: 17.1 min
Base peak: 65.0598
Precursor m/z: 302.1863
Precursor type: [M+H]+
m/z	relative intensity	assigned
60.0446	38	C2H6NO+
60.081	2	C3H10N+
69.0699	49	C5H9+
70.065	1	C4H8N+
72.0444	77	C3H6NO+
86.0964	337	C5H12N+
88.0759	1	C4H10NO+
97.0645	2	C6H9O+
128.107	999	C7H14NO+
132.0679	2	C8H8N2+
160.0631	2	C9H8N2O+
175.0866	769	C10H11N2O+
201.1016	7	C12H13N2O+
202.1053	12	C7H14N4O3+
241.1339	1	C15H17N2O+
243.1492	21	C15H19N2O+
284.1723	1	C12H22N5O3+
302.1862	159	C17H24N3O2+
