Mass spectrum: PRI_273.1234_9.3; LC-ESI-QFT; MS2; CE: 75; R=17500; [M+H]+
Name: PRI_273.1234_9.3
Formula: C15H16N2O3
Exact mass: 272.1161
Instrument: Q Exactive Plus Orbitrap Thermo Scientific
Instrument type: LC-ESI-QFT
Ms type: MS2
Ion mode: POSITIVE
Ionization: ESI
Fragmentation mode: HCD
Collision energy: 75 (nominal)
Resolution: 17500
Column name: Atlantis T3 3um, 3x150mm, Waters with guard column
Retention time: 9.0 min
Base peak: 65.0597
Precursor m/z: 273.1234
Precursor type: [M+H]+
m/z	relative intensity	assigned
53.0387	26	C4H5+
55.0542	6	C4H7+
57.0335	6	C3H5O+
69.0698	5	C5H9+
71.0491	774	C4H7O+
79.0542	4	C6H7+
80.0493	18	C5H6N+
81.0335	81	C5H5O+
91.0545	4	C7H7+
99.044	536	C5H7O2+
117.057	21	C8H7N+
129.0571	3	C9H7N+
130.0528	13	C8H6N2+
130.0653	25	C9H8N+
131.0602	39	C8H7N2+
132.0682	256	C8H8N2+
134.06	5	C8H8NO+
142.0523	19	C9H6N2+
143.0604	6	C9H7N2+
143.0724	5	C10H9N+
144.0682	125	C9H8N2+
145.076	251	C9H9N2+
155.0597	7	C10H7N2+
156.0678	13	C10H8N2+
157.076	14	C10H9N2+
158.0476	42	C9H6N2O+
158.0599	9	C10H8NO+
158.0839	6	C10H10N2+
159.0679	58	C10H9NO+
160.0631	164	C9H8N2O+
162.0424	15	C8H6N2O2+
167.0731	23	C12H9N+
168.068	4	C11H8N2+
169.0757	37	C11H9N2+
170.0478	10	C10H6N2O+
170.0841	16	C11H10N2+
171.0686	4	C11H9NO+
171.0915	46	C11H11N2+
173.0708	31	C10H9N2O+
173.084	5	C11H11NO+
174.0554	123	C10H8NO2+
174.0786	170	C10H10N2O+
175.0866	501	C10H11N2O+
181.0761	4	C12H9N2+
182.084	3	C12H10N2+
183.0917	76	C12H11N2+
184.0632	37	C11H8N2O+
184.0995	70	C12H12N2+
185.0707	49	C11H9N2O+
185.1074	11	C12H13N2+
186.0783	83	C11H10N2O+
186.092	10	C12H12NO+
193.076	156	C13H9N2+
194.0838	259	C13H10N2+
195.0683	19	C13H9NO+
195.0916	28	C13H11N2+
196.0992	23	C13H12N2+
197.0707	304	C12H9N2O+
198.0785	67	C12H10N2O+
199.0865	370	C12H11N2O+
200.0942	83	C12H12N2O+
201.1025	21	C12H13N2O+
205.0759	3	C14H9N2+
206.084	11	C14H10N2+
207.091	6	C14H11N2+
210.0914	19	C14H12NO+
211.0865	999	C13H11N2O+
212.0943	210	C13H12N2O+
213.1022	87	C13H13N2O+
214.1098	5	C13H14N2O+
221.071	21	C14H9N2O+
222.0785	85	C14H10N2O+
225.102	16	C14H13N2O+
227.1179	215	C14H15N2O+
230.1041	39	C13H14N2O2+
236.0944	99	C15H12N2O+
237.1021	146	C15H13N2O+
273.1231	66	C15H17N2O3+
