Mass spectrum: PYR_272.1759_11.0; LC-ESI-QFT; MS2; CE: 90; R=17500; [M+H]+
Name: PYR_272.1759_11.0
Name: N-demethylpyrilamine
Name: N`-[(4-methoxyphenyl)methyl]-N-methyl-N`-pyridin-2-ylethane-1,2-diamine
Formula: C16H21N3O
Exact mass: 271.1685
SMILES: CNCCN(Cc1ccc(OC)cc1)c1ccccn1
InChI: InChI=1S/C16H21N3O/c1-17-11-12-19(16-5-3-4-10-18-16)13-14-6-8-15(20-2)9-7-14/h3-10,17H,11-13H2,1-2H3
Instrument: Q Exactive Orbitrap Thermo Scientific
Instrument type: LC-ESI-QFT
Ms type: MS2
Ion mode: POSITIVE
Ionization: ESI
Fragmentation mode: HCD
Collision energy: 90 (nominal)
Resolution: 17500
Column name: Atlantis T3 3um, 3x150mm, Waters with guard column
Retention time: 11.0 min
Base peak: 61.0284
Precursor m/z: 272.1757
Precursor type: [M+H]+
m/z	relative intensity	assigned
65.0385	24	C5H5+
77.0385	25	C6H5+
78.0464	176	C6H6+
91.0542	233	C7H7+
95.0491	137	C6H7O+
105.045	127	C6H5N2+
121.0648	999	C8H9O+
