Mass spectrum: PYR_286.1915_11.5; LC-ESI-QFT; MS2; CE: 15-90; R=17500; [M+H]+
Name: PYR_286.1915_11.5
Name: Pyrilamine
Name: N`-[(4-methoxyphenyl)methyl]-N,N-dimethyl-N`-pyridin-2-ylethane-1,2-diamine
Formula: C17H23N3O
Exact mass: 285.1841
SMILES: COc1ccc(CN(CCN(C)C)c2ccccn2)cc1
InChI: InChI=1S/C17H23N3O/c1-19(2)12-13-20(17-6-4-5-11-18-17)14-15-7-9-16(21-3)10-8-15/h4-11H,12-14H2,1-3H3
Instrument: Q Exactive Orbitrap Thermo Scientific
Instrument type: LC-ESI-QFT
Ms type: MS2
Ion mode: POSITIVE
Ionization: ESI
Fragmentation mode: HCD
Collision energy: 15, 30, 45, 60, 70 or 90 (nominal)
Resolution: 17500
Column name: Atlantis T3 3um, 3.0x150mm, Waters with guard column
Retention time: 11.7 min
Base peak: 286.1918
Precursor m/z: 286.1914
Precursor type: [M+H]+
m/z	relative intensity	assigned
72.081	8	C4H10N+
78.0463	3	C6H6+
91.0542	1	C7H7+
119.0605	6	C7H7N2+
121.0649	999	C8H9O+
164.1184	4	C9H14N3+
241.1338	420	C15H17N2O+
286.1917	13	C17H24N3O+
