Mass spectrum: PYR_166.1340_2.9; LC-ESI-QFT; MS2; CE: (160-0.41mz or 15) NCE; R=17500; [M+H]+
Name: PYR_166.1340_2.9
Name: 2-(2-Pyridylamino)ethyldimethylamine
Name: N`,N`-dimethyl-N-pyridin-2-ylethane-1,2-diamine
Formula: C9H15N3
Exact mass: 165.1266
SMILES: CN(C)CCNc1ccccn1
InChI: InChI=1S/C9H15N3/c1-12(2)8-7-11-9-5-3-4-6-10-9/h3-6H,7-8H2,1-2H3,(H,10,11)
Instrument: Q Exactive Orbitrap Thermo Scientific
Instrument type: LC-ESI-QFT
Ms type: MS2
Ion mode: POSITIVE
Ionization: ESI
Fragmentation mode: HCD
Collision energy: 160-0.41mz or 15 (mz>350) nominal units
Resolution: 17500
Column name: Atlantis T3 3um, 3x150mm, Waters with guard column
Retention time: 2.8 min
Base peak: 226.9514
Precursor m/z: 166.1339
Precursor type: [M+H]+
m/z	relative intensity	assigned
51.023	3	C4H3+
70.0652	17	C4H8N+
72.0808	149	C4H10N+
78.0338	76	C5H4N+
80.0495	18	C5H6N+
93.0574	3	C6H7N+
94.0651	110	C6H8N+
95.0603	22	C5H7N2+
96.0444	486	C5H6NO+
104.0497	24	C7H6N+
106.004	43	C4N3O+
119.0605	24	C7H7N2+
121.076	999	C7H9N2+
