Mass spectrum: PYR_302.1865_11.2; LC-ESI-QFT; MS2; CE: 90; R=17500; [M+H]+
Name: PYR_302.1865_11.2
Name: Pyrilamine N-oxide
Name: 2-[(4-methoxyphenyl)methyl-pyridin-2-ylamino]-N,N-dimethylethanamine oxide
Formula: C17H23N3O2
Exact mass: 301.1790
SMILES: COc1ccc(CN(CCN(C)(C)=O)c2ccccn2)cc1
InChI: InChI=1S/C17H23N3O2/c1-20(2,21)13-12-19(17-6-4-5-11-18-17)14-15-7-9-16(22-3)10-8-15/h4-11H,12-14H2,1-3H3
Instrument: Q Exactive Orbitrap Thermo Scientific
Instrument type: LC-ESI-QFT
Ms type: MS2
Ion mode: POSITIVE
Ionization: ESI
Fragmentation mode: HCD
Collision energy: 90 (nominal)
Resolution: 17500
Column name: Atlantis T3 3um, 3.0x150mm, Waters with guard column
Retention time: 11.1 min
Base peak: 61.0285
Precursor m/z: 302.1863
Precursor type: [M+H]+
m/z	relative intensity	assigned
50.0152	3	C4H2+
51.0231	1	C4H3+
53.0388	3	C4H5+
65.0386	16	C5H5+
67.0543	1	C5H7+
77.0385	23	C6H5+
78.0464	98	C6H6+
81.0336	3	C5H5O+
91.0542	173	C7H7+
93.0698	10	C7H9+
95.0491	103	C6H7O+
96.0445	3	C5H6NO+
103.054	4	C8H7+
105.0447	70	C6H5N2+
106.0413	35	C7H6O+
107.0493	2	C7H7O+
119.0602	8	C7H7N2+
121.0648	999	C8H9O+
