Mass spectrum: PYR_300.1709_10.6; LC-ESI-QFT; MS2; CE: 75; R=17500; [M+H]+
Name: PYR_300.1709_10.6
Name: Pyrilamine formamide
Formula: C17H21N3O2
Exact mass: 299.1634
SMILES: COc1ccc(CN(CCN(C)C=O)c2ccccn2)cc1
InChI: InChI=1S/C17H21N3O2/c1-19(14-21)11-12-20(17-5-3-4-10-18-17)13-15-6-8-16(22-2)9-7-15/h3-10,14H,11-13H2,1-2H3
Instrument: Q Exactive Orbitrap Thermo Scientific
Instrument type: LC-ESI-QFT
Ms type: MS2
Ion mode: POSITIVE
Ionization: ESI
Fragmentation mode: HCD
Collision energy: 75 (nominal)
Resolution: 17500
Column name: Atlantis T3 3um, 3x150mm, Waters with guard column
Retention time: 10.5 min
Base peak: 61.0285
Precursor m/z: 300.1707
Precursor type: [M+H]+
m/z	relative intensity	assigned
91.0542	48	C7H7+
95.0488	85	C6H7O+
121.0648	999	C8H9O+
