Mass spectrum: PYR_302.1865_11.2; LC-ESI-QFT; MS2; CE: 75; R=17500; [M+H]+
Name: PYR_302.1865_11.2
Name: Pyrilamine N-oxide
Name: 2-[(4-methoxyphenyl)methyl-pyridin-2-ylamino]-N,N-dimethylethanamine oxide
Formula: C17H23N3O2
Exact mass: 301.1790
SMILES: COc1ccc(CN(CCN(C)(C)=O)c2ccccn2)cc1
InChI: InChI=1S/C17H23N3O2/c1-20(2,21)13-12-19(17-6-4-5-11-18-17)14-15-7-9-16(22-3)10-8-15/h4-11H,12-14H2,1-3H3
Instrument: Q Exactive Orbitrap Thermo Scientific
Instrument type: LC-ESI-QFT
Ms type: MS2
Ion mode: POSITIVE
Ionization: ESI
Fragmentation mode: HCD
Collision energy: 75 (nominal)
Resolution: 17500
Column name: Atlantis T3 3um, 3x150mm, Waters with guard column
Retention time: 11.1 min
Base peak: 61.0285
Precursor m/z: 302.1863
Precursor type: [M+H]+
m/z	relative intensity	assigned
51.023	1	C4H3+
65.0386	3	C5H5+
77.0384	8	C6H5+
78.0464	21	C6H6+
91.0542	59	C7H7+
93.0699	6	C7H9+
95.0491	31	C6H7O+
96.0446	2	C5H6NO+
105.0447	22	C6H5N2+
106.0413	10	C7H6O+
119.0603	7	C7H7N2+
121.0648	999	C8H9O+
