Mass spectrum: PYR_272.1759_8.8; LC-ESI-QFT; MS2; CE: 60; R=17500; [M+H]+
Name: PYR_272.1759_8.8
Name: O-Desmethyl Pyrilamine
Name: 4-[[2-(dimethylamino)ethyl-pyridin-2-ylamino]methyl]phenol
Formula: C16H21N3O
Exact mass: 271.1685
SMILES: CN(C)CCN(Cc1ccc(O)cc1)c1ccccn1
InChI: InChI=1S/C16H21N3O/c1-18(2)11-12-19(16-5-3-4-10-17-16)13-14-6-8-15(20)9-7-14/h3-10,20H,11-13H2,1-2H3
Instrument: Q Exactive Orbitrap Thermo Scientific
Instrument type: LC-ESI-QFT
Ms type: MS2
Ion mode: POSITIVE
Ionization: ESI
Fragmentation mode: HCD
Collision energy: 60 (nominal)
Resolution: 17500
Column name: Atlantis T3 3um, 3x150mm, Waters with guard column
Retention time: 8.8 min
Base peak: 61.0285
Precursor m/z: 272.1757
Precursor type: [M+H]+
m/z	relative intensity	assigned
79.0542	59	C6H7+
107.0491	923	C7H7O+
121.076	999	C7H9N2+
