Mass spectrum: PYR_273.1235_11.5; LC-ESI-QFT; MS2; CE: 60; R=17500; [M+H]+
Name: PYR_273.1235_11.5
Formula: C15H16N2O3
Exact mass: 272.1161
SMILES: COc1ccc(CN(CC(O)=O)c2ccccn2)cc1
InChI: InChI=1S/C15H16N2O3/c1-20-13-7-5-12(6-8-13)10-17(11-15(18)19)14-4-2-3-9-16-14/h2-9H,10-11H2,1H3,(H,18,19)
Instrument: Q Exactive Orbitrap Thermo Scientific
Instrument type: LC-ESI-QFT
Ms type: MS2
Ion mode: POSITIVE
Ionization: ESI
Fragmentation mode: HCD
Collision energy: 60 (nominal)
Resolution: 17500
Column name: Atlantis T3 3um, 3x150mm, Waters with guard column
Retention time: 11.5 min
Base peak: 61.0284
Precursor m/z: 273.1234
Precursor type: [M+H]+
m/z	relative intensity	assigned
79.0542	38	C6H7+
91.0545	67	C7H7+
93.0699	40	C7H9+
95.0489	10	C6H7O+
105.0447	12	C6H5N2+
105.0701	7	C8H9+
107.0491	31	C7H7O+
107.0605	31	C6H7N2+
117.0697	46	C9H9+
121.0648	999	C8H9O+
135.0808	64	C9H11O+
163.0755	14	C10H11O2+
