Mass spectrum: PYR_286.1915_11.5; LC-ESI-QFT; MS2; CE: 15-90; R=17500; [M+H]+
Name: PYR_286.1915_11.5
Name: Pyrilamine
Name: N`-[(4-methoxyphenyl)methyl]-N,N-dimethyl-N`-pyridin-2-ylethane-1,2-diamine
Formula: C17H23N3O
Exact mass: 285.1841
SMILES: COc1ccc(CN(CCN(C)C)c2ccccn2)cc1
InChI: InChI=1S/C17H23N3O/c1-19(2)12-13-20(17-6-4-5-11-18-17)14-15-7-9-16(21-3)10-8-15/h4-11H,12-14H2,1-3H3
Instrument: Q Exactive Orbitrap Thermo Scientific
Instrument type: LC-ESI-QFT
Ms type: MS2
Ion mode: POSITIVE
Ionization: ESI
Fragmentation mode: HCD
Collision energy: 15, 30, 45, 60, 70 or 90 (nominal)
Resolution: 17500
Column name: Atlantis T3 3um, 3x150mm, Waters with guard column
Retention time: 11.7 min
Base peak: 286.1918
Precursor m/z: 286.1914
Precursor type: [M+H]+
m/z	relative intensity	assigned
65.0389	21	
70.0654	1	C4H8N+
72.081	9	C4H10N+
77.0388	29	C6H5+
78.0466	165	C6H6+
79.0182	3	C5H3O+
79.0543	1	C6H7+
81.0339	2	C5H5O+
91.0543	216	C7H7+
93.0699	13	C7H9+
94.065	1	C6H8N+
95.0492	208	C6H7O+
96.0445	5	C5H6NO+
103.0542	4	C8H7+
105.0448	52	C6H5N2+
106.0414	48	C7H6O+
107.0493	3	C7H7O+
119.0606	3	C7H7N2+
121.0649	999	C8H9O+
