Mass spectrum: PYR_302.1865_11.2; LC-ESI-QFT; MS2; CE: 60; R=17500; [M+H]+
Name: PYR_302.1865_11.2
Name: Pyrilamine N-oxide
Name: 2-[(4-methoxyphenyl)methyl-pyridin-2-ylamino]-N,N-dimethylethanamine oxide
Formula: C17H23N3O2
Exact mass: 301.1790
SMILES: COc1ccc(CN(CCN(C)(C)=O)c2ccccn2)cc1
InChI: InChI=1S/C17H23N3O2/c1-20(2,21)13-12-19(17-6-4-5-11-18-17)14-15-7-9-16(22-3)10-8-15/h4-11H,12-14H2,1-3H3
Instrument: Q Exactive Orbitrap Thermo Scientific
Instrument type: LC-ESI-QFT
Ms type: MS2
Ion mode: POSITIVE
Ionization: ESI
Fragmentation mode: HCD
Collision energy: 60 (nominal)
Resolution: 17500
Column name: Atlantis T3 3um, 3x150mm, Waters with guard column
Retention time: 11.1 min
Base peak: 61.0285
Precursor m/z: 302.1863
Precursor type: [M+H]+
m/z	relative intensity	assigned
77.0386	2	C6H5+
78.0464	7	C6H6+
91.0543	13	C7H7+
95.0491	6	C6H7O+
105.0447	4	C6H5N2+
106.0412	3	C7H6O+
119.0605	8	C7H7N2+
121.0648	999	C8H9O+
241.1341	3	C15H17N2O+
