Mass spectrum: PYR_273.1235_11.5; LC-ESI-QFT; MS2; CE: 30; R=17500; [M+H]+
Name: PYR_273.1235_11.5
Formula: C15H16N2O3
Exact mass: 272.1161
SMILES: COc1ccc(CN(CC(O)=O)c2ccccn2)cc1
InChI: InChI=1S/C15H16N2O3/c1-20-13-7-5-12(6-8-13)10-17(11-15(18)19)14-4-2-3-9-16-14/h2-9H,10-11H2,1H3,(H,18,19)
Instrument: Q Exactive Orbitrap Thermo Scientific
Instrument type: LC-ESI-QFT
Ms type: MS2
Ion mode: POSITIVE
Ionization: ESI
Fragmentation mode: HCD
Collision energy: 30 (nominal)
Resolution: 17500
Column name: Atlantis T3 3um, 3x150mm, Waters with guard column
Retention time: 11.5 min
Base peak: 61.0284
Precursor m/z: 273.1234
Precursor type: [M+H]+
m/z	relative intensity	assigned
107.0606	11	C6H7N2+
121.0648	999	C8H9O+
135.0802	7	C9H11O+
163.0751	90	C10H11O2+
165.0655	35	C8H9N2O2+
191.0701	46	C11H11O3+
195.1018	53	C11H15O3+
209.0803	26	C11H13O4+
