Mass spectrum: SPI_328.2483_12.0; LC-ESI-QFT; MS2; CE: 75; R=17500; [M+H]+
Name: SPI_328.2483_12.0
Formula: C18H33NO4
Exact mass: 327.2410
Instrument: Q Exactive Plus Orbitrap Thermo Scientific
Instrument type: LC-ESI-QFT
Ms type: MS2
Ion mode: POSITIVE
Ionization: ESI
Fragmentation mode: HCD
Collision energy: 75 (nominal)
Resolution: 17500
Column name: Atlantis T3 3um, 3x150mm, Waters with guard column
Retention time: 11.9 min
Base peak: 65.0597
Precursor m/z: 328.2482
Precursor type: [M+H]+
m/z	relative intensity	assigned
53.0022	2	C3HO+
55.0543	1	C4H7+
56.0495	13	C3H6N+
57.0573	1	C3H7N+
57.0698	2	C4H9+
58.0652	227	C3H8N+
59.0492	3	C3H7O+
67.0542	6	C5H7+
70.065	3	C4H8N+
72.0807	364	C4H10N+
74.06	1	C3H8NO+
79.0543	2	C6H7+
81.0699	11	C6H9+
84.0808	34	C5H10N+
86.0964	13	C5H12N+
91.0542	4	C7H7+
92.0579	2	C2H8N2O2+
93.07	1	C7H9+
95.0856	1	C7H11+
98.0965	6	C6H12N+
100.112	999	C6H14N+
102.0913	42	C5H12NO+
116.1071	2	C6H14NO+
123.1168	2	C9H15+
126.1276	12	C8H16N+
128.1433	1	C8H18N+
144.1383	229	C8H18NO+
167.0728	9	C12H9N+
168.0781	19	
169.0841	21	C7H11N3O2+
196.112	8	C14H14N+
