Mass spectrum: SPI_314.2691_15.4; LC-ESI-QFT; MS2; CE: 75; R=17500; [M+H]+
Name: SPI_314.2691_15.4
Formula: C18H35NO3
Exact mass: 313.2617
Instrument: Q Exactive Plus Orbitrap Thermo Scientific
Instrument type: LC-ESI-QFT
Ms type: MS2
Ion mode: POSITIVE
Ionization: ESI
Fragmentation mode: HCD
Collision energy: 75 (nominal)
Resolution: 17500
Column name: Atlantis T3 3um, 3x150mm, Waters with guard column
Retention time: 15.2 min
Base peak: 65.0597
Precursor m/z: 314.269
Precursor type: [M+H]+
m/z	relative intensity	assigned
53.0022	9	C3HO+
55.0543	6	C4H7+
56.0496	8	C3H6N+
57.0698	28	C4H9+
58.0652	216	C3H8N+
60.0444	522	C2H6NO+
67.0543	18	C5H7+
69.0698	6	C5H9+
70.0651	222	C4H8N+
72.0808	274	C4H10N+
74.06	60	C3H8NO+
81.0699	15	C6H9+
84.0809	32	C5H10N+
86.0602	8	C4H8NO+
86.0964	33	C5H12N+
88.0757	999	C4H10NO+
95.0854	17	C7H11+
100.1121	688	C6H14N+
102.0913	99	C5H12NO+
114.0914	129	C6H12NO+
130.1227	215	C7H16NO+
142.1229	4	C8H16NO+
144.1386	21	C8H18NO+
160.1334	9	C8H18NO2+
