Mass spectrum: SPI_314.2691_15.4; LC-ESI-QFT; MS2; CE: 60; R=17500; [M+H]+
Name: SPI_314.2691_15.4
Formula: C18H35NO3
Exact mass: 313.2617
Instrument: Q Exactive Plus Orbitrap Thermo Scientific
Instrument type: LC-ESI-QFT
Ms type: MS2
Ion mode: POSITIVE
Ionization: ESI
Fragmentation mode: HCD
Collision energy: 60 (nominal)
Resolution: 17500
Column name: Atlantis T3 3um, 3x150mm, Waters with guard column
Retention time: 15.2 min
Base peak: 65.0597
Precursor m/z: 314.269
Precursor type: [M+H]+
m/z	relative intensity	assigned
53.0022	4	C3HO+
56.0494	4	C3H6N+
57.0698	15	C4H9+
58.0652	87	C3H8N+
60.0444	207	C2H6NO+
67.0543	4	C5H7+
69.0701	4	C5H9+
70.0651	141	C4H8N+
72.0808	119	C4H10N+
74.0601	23	C3H8NO+
81.0698	5	C6H9+
84.0807	14	C5H10N+
86.0598	3	C4H8NO+
86.0963	21	C5H12N+
88.0757	999	C4H10NO+
95.0855	6	C7H11+
98.0962	3	C6H12N+
100.1121	563	C6H14N+
102.0914	103	C5H12NO+
114.0913	65	C6H12NO+
118.0859	5	C5H12NO2+
126.1278	5	C8H16N+
130.1227	630	C7H16NO+
142.1231	4	C8H16NO+
144.1384	32	C8H18NO+
160.1333	87	C8H18NO2+
162.1485	2	C8H20NO2+
