Mass spectrum: SPI_314.2691_15.4; LC-ESI-QFT; MS2; CE: 90; R=17500; [M+H]+
Name: SPI_314.2691_15.4
Formula: C18H35NO3
Exact mass: 313.2617
Instrument: Q Exactive Plus Orbitrap Thermo Scientific
Instrument type: LC-ESI-QFT
Ms type: MS2
Ion mode: POSITIVE
Ionization: ESI
Fragmentation mode: HCD
Collision energy: 90 (nominal)
Resolution: 17500
Column name: Atlantis T3 3um, 3x150mm, Waters with guard column
Retention time: 15.2 min
Base peak: 65.0597
Precursor m/z: 314.269
Precursor type: [M+H]+
m/z	relative intensity	assigned
53.0021	48	C3HO+
55.0543	21	C4H7+
56.0494	52	C3H6N+
57.0699	23	C4H9+
58.0652	612	C3H8N+
60.0444	999	C2H6NO+
67.054	19	C5H7+
70.0652	371	C4H8N+
72.0808	610	C4H10N+
74.0601	133	C3H8NO+
81.0699	23	C6H9+
84.0809	110	C5H10N+
86.0963	48	C5H12N+
88.0757	963	C4H10NO+
95.0855	18	C7H11+
98.0963	15	C6H12N+
100.1121	826	C6H14N+
102.0914	83	C5H12NO+
114.0914	171	C6H12NO+
130.1227	77	C7H16NO+
