Mass spectrum: SPI_270.2429_14.9; LC-ESI-QFT; MS2; CE: 75; R=17500; [M+H]+
Name: SPI_270.2429_14.9
Name: N-deethylspiroxamine
Formula: C16H31NO2
Exact mass: 269.2355
SMILES: CCCNCC1COC2(CCC(CC2)C(C)(C)C)O1
InChI: InChI=1S/C16H31NO2/c1-5-10-17-11-14-12-18-16(19-14)8-6-13(7-9-16)15(2,3)4/h13-14,17H,5-12H2,1-4H3
Instrument: Q Exactive Plus Orbitrap Thermo Scientific
Instrument type: LC-ESI-QFT
Ms type: MS2
Ion mode: POSITIVE
Ionization: ESI
Fragmentation mode: HCD
Collision energy: 75 (nominal)
Resolution: 17500
Column name: Atlantis T3 3um, 3x150mm, Waters with guard column
Retention time: 14.8 min
Base peak: 65.0597
Precursor m/z: 270.2428
Precursor type: [M+H]+
m/z	relative intensity	assigned
56.0495	229	C3H6N+
57.0698	37	C4H9+
58.065	37	C3H8N+
60.0806	12	C3H10N+
67.054	11	C5H7+
70.0651	116	C4H8N+
72.0808	999	C4H10N+
74.06	66	C3H8NO+
79.0542	9	C6H7+
81.07	12	C6H9+
91.0541	18	C7H7+
98.0964	112	C6H12N+
116.107	810	C6H14NO+
