Mass spectrum: SPI_298.2741_15.1; LC-ESI-QFT; MS2; CE: 15-90; R=17500; [M+H]+
Name: SPI_298.2741_15.1
Name: Spiroxamine
Name: N-[(8-tert-butyl-1,4-dioxaspiro[4.5]decan-3-yl)methyl]-N-ethylpropan-1-amine
Formula: C18H35NO2
Exact mass: 297.2668
SMILES: CCCN(CC)CC1COC2(CCC(CC2)C(C)(C)C)O1
InChI: InChI=1S/C18H35NO2/c1-6-12-19(7-2)13-16-14-20-18(21-16)10-8-15(9-11-18)17(3,4)5/h15-16H,6-14H2,1-5H3
Instrument: Q Exactive Orbitrap Thermo Scientific
Instrument type: LC-ESI-QFT
Ms type: MS2
Ion mode: POSITIVE
Ionization: ESI
Fragmentation mode: HCD
Collision energy: 15, 30, 45, 60, 70 or 90 (nominal)
Resolution: 17500
Column name: Atlantis T3 3um, 3x150mm, Waters with guard column
Retention time: 15.5 min
Base peak: 298.2744
Precursor m/z: 298.2741
Precursor type: [M+H]+
m/z	relative intensity	assigned
58.0656	63	
72.081	171	C4H10N+
74.0603	2	C3H8NO+
81.0701	1	C6H9+
83.0858	4	C6H11+
84.081	20	C5H10N+
86.0965	9	C5H12N+
98.0967	3	C6H12N+
100.1123	999	C6H14N+
102.0914	35	C5H12NO+
116.1065	3	C6H14NO+
126.1278	20	C8H16N+
144.1386	757	C8H18NO+
160.1331	1	C8H18NO2+
