Mass spectrum: SPI_314.2691_12.0; LC-ESI-QFT; MS2; CE: 60; R=17500; [M+H]+
Name: SPI_314.2691_12.0
Formula: C18H35NO3
Exact mass: 313.2617
Instrument: Q Exactive Plus Orbitrap Thermo Scientific
Instrument type: LC-ESI-QFT
Ms type: MS2
Ion mode: POSITIVE
Ionization: ESI
Fragmentation mode: HCD
Collision energy: 60 (nominal)
Resolution: 17500
Column name: Atlantis T3 3um, 3x150mm, Waters with guard column
Retention time: 11.9 min
Base peak: 65.0597
Precursor m/z: 314.269
Precursor type: [M+H]+
m/z	relative intensity	assigned
56.0495	3	C3H6N+
57.0699	3	C4H9+
58.0652	79	C3H8N+
59.0492	1	C3H7O+
67.0542	3	C5H7+
72.0808	171	C4H10N+
81.07	9	C6H9+
84.0808	29	C5H10N+
86.0964	8	C5H12N+
95.0851	2	C7H11+
97.0647	2	C6H9O+
100.1121	999	C6H14N+
102.0914	36	C5H12NO+
116.1072	3	C6H14NO+
126.1279	36	C8H16N+
144.1384	786	C8H18NO+
162.1491	6	C8H20NO2+
