Mass spectrum: SPI_328.2485_15.0; LC-ESI-QFT; MS2; CE: 45; R=17500; [M+H]+
Name: SPI_328.2485_15.0
Formula: C18H33NO4
Exact mass: 327.2410
Instrument: Q Exactive Plus Orbitrap Thermo Scientific
Instrument type: LC-ESI-QFT
Ms type: MS2
Ion mode: POSITIVE
Ionization: ESI
Fragmentation mode: HCD
Collision energy: 45 (nominal)
Resolution: 17500
Column name: Atlantis T3 3um, 3x150mm, Waters with guard column
Retention time: 14.7 min
Base peak: 65.0597
Precursor m/z: 328.2482
Precursor type: [M+H]+
m/z	relative intensity	assigned
57.07	2	C4H9+
58.0652	8	C3H8N+
72.0806	7	C4H10N+
73.0281	1	C3H5O2+
83.0856	3	C6H11+
84.0809	1	C5H10N+
86.0599	2	C4H8NO+
86.0965	1	C5H12N+
88.0757	63	C4H10NO+
100.112	2	C6H14N+
102.0548	2	C4H8NO2+
114.0915	49	C6H12NO+
130.0863	422	C6H12NO2+
132.1016	2	C6H14NO2+
144.1021	5	C7H14NO2+
144.1385	7	C8H18NO+
156.1019	6	C8H14NO2+
174.1125	999	C8H16NO3+
190.1067	2	C8H16NO4+
268.2279	2	C16H30NO2+
328.2487	1	C18H34NO4+
