Mass spectrum: SPI_314.2691_12.0; LC-ESI-QFT; MS2; CE: 90; R=17500; [M+H]+
Name: SPI_314.2691_12.0
Formula: C18H35NO3
Exact mass: 313.2617
Instrument: Q Exactive Plus Orbitrap Thermo Scientific
Instrument type: LC-ESI-QFT
Ms type: MS2
Ion mode: POSITIVE
Ionization: ESI
Fragmentation mode: HCD
Collision energy: 90 (nominal)
Resolution: 17500
Column name: Atlantis T3 3um, 3x150mm, Waters with guard column
Retention time: 11.9 min
Base peak: 65.0597
Precursor m/z: 314.269
Precursor type: [M+H]+
m/z	relative intensity	assigned
56.0495	28	C3H6N+
57.07	14	C4H9+
58.0652	448	C3H8N+
67.0543	15	C5H7+
70.0648	3	C4H8N+
72.0808	589	C4H10N+
81.0699	5	C6H9+
83.0492	4	C5H7O+
84.0809	43	C5H10N+
86.0962	12	C5H12N+
98.0969	3	C6H12N+
100.1121	999	C6H14N+
102.0913	38	C5H12NO+
126.1277	11	C8H16N+
144.1384	81	C8H18NO+
