Mass spectrum: SPI_328.2483_12.0; LC-ESI-QFT; MS2; CE: 60; R=17500; [M+H]+
Name: SPI_328.2483_12.0
Formula: C18H33NO4
Exact mass: 327.2410
Instrument: Q Exactive Plus Orbitrap Thermo Scientific
Instrument type: LC-ESI-QFT
Ms type: MS2
Ion mode: POSITIVE
Ionization: ESI
Fragmentation mode: HCD
Collision energy: 60 (nominal)
Resolution: 17500
Column name: Atlantis T3 3um, 3x150mm, Waters with guard column
Retention time: 11.9 min
Base peak: 65.0597
Precursor m/z: 328.2482
Precursor type: [M+H]+
m/z	relative intensity	assigned
56.0495	5	C3H6N+
57.0699	1	C4H9+
58.0651	95	C3H8N+
59.0491	2	C3H7O+
67.0542	3	C5H7+
70.0651	1	C4H8N+
72.0807	195	C4H10N+
74.06	1	C3H8NO+
81.0698	9	C6H9+
84.0808	26	C5H10N+
86.0964	10	C5H12N+
91.0542	1	C7H7+
98.0965	4	C6H12N+
100.112	999	C6H14N+
102.0912	41	C5H12NO+
114.1276	1	C7H16N+
116.107	4	C6H14NO+
123.1168	8	C9H15+
126.1277	20	C8H16N+
144.1382	695	C8H18NO+
160.1332	2	C8H18NO2+
167.0728	2	C12H9N+
169.084	7	C7H11N3O2+
196.1119	16	C14H14N+
