Mass spectrum: SPI_328.2485_15.0; LC-ESI-QFT; MS2; CE: 30; R=17500; [M+H]+
Name: SPI_328.2485_15.0
Formula: C18H33NO4
Exact mass: 327.2410
Instrument: Q Exactive Plus Orbitrap Thermo Scientific
Instrument type: LC-ESI-QFT
Ms type: MS2
Ion mode: POSITIVE
Ionization: ESI
Fragmentation mode: HCD
Collision energy: 30 (nominal)
Resolution: 17500
Column name: Atlantis T3 3um, 3x150mm, Waters with guard column
Retention time: 14.7 min
Base peak: 65.0597
Precursor m/z: 328.2482
Precursor type: [M+H]+
m/z	relative intensity	assigned
60.0808	1	C3H10N+
88.0757	2	C4H10NO+
102.0548	1	C4H8NO2+
114.0913	10	C6H12NO+
130.0863	115	C6H12NO2+
132.1019	1	C6H14NO2+
144.1384	9	C8H18NO+
174.1125	999	C8H16NO3+
190.1072	2	C8H16NO4+
268.2267	4	C16H30NO2+
328.2483	218	C18H34NO4+
