Mass spectrum: SPI_314.2691_12.0; LC-ESI-QFT; MS2; CE: 30; R=17500; [M+H]+
Name: SPI_314.2691_12.0
Formula: C18H35NO3
Exact mass: 313.2617
Instrument: Q Exactive Plus Orbitrap Thermo Scientific
Instrument type: LC-ESI-QFT
Ms type: MS2
Ion mode: POSITIVE
Ionization: ESI
Fragmentation mode: HCD
Collision energy: 30 (nominal)
Resolution: 17500
Column name: Atlantis T3 3um, 3x150mm, Waters with guard column
Retention time: 11.9 min
Base peak: 65.0597
Precursor m/z: 314.269
Precursor type: [M+H]+
m/z	relative intensity	assigned
58.0652	2	C3H8N+
60.0809	1	C3H10N+
72.0806	1	C4H10N+
100.112	92	C6H14N+
126.1277	5	C8H16N+
144.1384	999	C8H18NO+
162.149	5	C8H20NO2+
296.2586	167	C18H34NO2+
314.269	536	C18H36NO3+
