Mass spectrum: SPI_328.2485_15.0; LC-ESI-QFT; MS2; CE: 15; R=17500; [M+H]+
Name: SPI_328.2485_15.0
Formula: C18H33NO4
Exact mass: 327.2410
Instrument: Q Exactive Plus Orbitrap Thermo Scientific
Instrument type: LC-ESI-QFT
Ms type: MS2
Ion mode: POSITIVE
Ionization: ESI
Fragmentation mode: HCD
Collision energy: 15 (nominal)
Resolution: 17500
Column name: Atlantis T3 3um, 3x150mm, Waters with guard column
Retention time: 14.7 min
Base peak: 65.0597
Precursor m/z: 328.2482
Precursor type: [M+H]+
m/z	relative intensity	assigned
60.0806	1	C3H10N+
174.1125	111	C8H16NO3+
328.2483	999	C18H34NO4+
