Mass spectrum: SPI_314.2691_15.4; LC-ESI-QFT; MS2; CE: 15; R=17500; [M+H]+
Name: SPI_314.2691_15.4
Formula: C18H35NO3
Exact mass: 313.2617
Instrument: Q Exactive Plus Orbitrap Thermo Scientific
Instrument type: LC-ESI-QFT
Ms type: MS2
Ion mode: POSITIVE
Ionization: ESI
Fragmentation mode: HCD
Collision energy: 15 (nominal)
Resolution: 17500
Column name: Atlantis T3 3um, 3x150mm, Waters with guard column
Retention time: 15.2 min
Base peak: 65.0597
Precursor m/z: 314.269
Precursor type: [M+H]+
m/z	relative intensity	assigned
60.0807	1	C3H10N+
100.1123	2	C6H14N+
130.1227	5	C7H16NO+
142.1228	2	C8H16NO+
144.1382	4	C8H18NO+
160.1333	69	C8H18NO2+
314.269	999	C18H36NO3+
