Mass spectrum: SPI_314.2691_12.0; LC-ESI-QFT; MS2; CE: 15; R=17500; [M+H]+
Name: SPI_314.2691_12.0
Formula: C18H35NO3
Exact mass: 313.2617
Instrument: Q Exactive Plus Orbitrap Thermo Scientific
Instrument type: LC-ESI-QFT
Ms type: MS2
Ion mode: POSITIVE
Ionization: ESI
Fragmentation mode: HCD
Collision energy: 15 (nominal)
Resolution: 17500
Column name: Atlantis T3 3um, 3x150mm, Waters with guard column
Retention time: 11.9 min
Base peak: 65.0597
Precursor m/z: 314.269
Precursor type: [M+H]+
m/z	relative intensity	assigned
60.0806	1	C3H10N+
144.1383	36	C8H18NO+
296.2584	23	C18H34NO2+
314.2691	999	C18H36NO3+
