Mass spectrum: SPI_314.2691_12.0; LC-ESI-QFT; MS2; CE: 45; R=17500; [M+H]+
Name: SPI_314.2691_12.0
Formula: C18H35NO3
Exact mass: 313.2617
Instrument: Q Exactive Plus Orbitrap Thermo Scientific
Instrument type: LC-ESI-QFT
Ms type: MS2
Ion mode: POSITIVE
Ionization: ESI
Fragmentation mode: HCD
Collision energy: 45 (nominal)
Resolution: 17500
Column name: Atlantis T3 3um, 3x150mm, Waters with guard column
Retention time: 11.9 min
Base peak: 65.0597
Precursor m/z: 314.269
Precursor type: [M+H]+
m/z	relative intensity	assigned
57.07	1	C4H9+
58.0651	11	C3H8N+
60.0807	1	C3H10N+
67.0542	1	C5H7+
72.0808	32	C4H10N+
81.07	5	C6H9+
84.0808	2	C5H10N+
95.0855	2	C7H11+
97.0649	1	C6H9O+
100.1121	366	C6H14N+
102.0916	7	C5H12NO+
126.1278	14	C8H16N+
144.1384	999	C8H18NO+
162.1489	8	C8H20NO2+
296.2584	14	C18H34NO2+
314.2691	10	C18H36NO3+
