Mass spectrum: SPI_300.2536_10.7; LC-ESI-QFT; MS2; CE: 35; R=17500; [M+H]+
Name: SPI_300.2536_10.7
Formula: C17H33NO3
Exact mass: 299.2460
Instrument: Q Exactive Orbitrap Thermo Scientific
Instrument type: LC-ESI-QFT
Ms type: MS2
Ion mode: POSITIVE
Ionization: ESI
Fragmentation mode: HCD
Collision energy: 35 (nominal)
Resolution: 17500
Column name: Atlantis T3 3um, 3x150mm, Waters with guard column
Retention time: 10.7 min
Base peak: 121.0648
Precursor m/z: 300.2536
Precursor type: [M+H]+
m/z	relative intensity
56.9739	17
61.1388	15
67.2448	21
84.2844	18
88.0759	27
89.0596	38
100.1123	81
121.0648	999
142.1104	20
144.1385	406
158.6715	20
199.0134	17
271.9814	19
276.3094	18
300.2524	69
