Mass spectrum: SPI_328.2485_15.0; LC-ESI-QFT; MS2; CE: 75; R=17500; [M+H]+
Name: SPI_328.2485_15.0
Formula: C18H33NO4
Exact mass: 327.2410
Instrument: Q Exactive Plus Orbitrap Thermo Scientific
Instrument type: LC-ESI-QFT
Ms type: MS2
Ion mode: POSITIVE
Ionization: ESI
Fragmentation mode: HCD
Collision energy: 75 (nominal)
Resolution: 17500
Column name: Atlantis T3 3um, 3x150mm, Waters with guard column
Retention time: 14.7 min
Base peak: 65.0597
Precursor m/z: 328.2482
Precursor type: [M+H]+
m/z	relative intensity	assigned
55.0179	4	C3H3O+
55.0542	4	C4H7+
56.0495	16	C3H6N+
57.0699	5	C4H9+
58.0651	237	C3H8N+
70.0649	2	C4H8N+
72.0809	39	C4H10N+
73.0284	87	C3H5O2+
81.0699	3	C6H9+
84.0444	19	C4H6NO+
84.0808	37	C5H10N+
86.06	36	C4H8NO+
86.0964	7	C5H12N+
88.0757	999	C4H10NO+
100.1119	13	C6H14N+
102.0912	5	C5H12NO+
114.0913	75	C6H12NO+
130.0863	905	C6H12NO2+
156.102	3	C8H14NO2+
174.1125	212	C8H16NO3+
