Mass spectrum: SPI_328.2483_12.0; LC-ESI-QFT; MS2; CE: 30; R=17500; [M+H]+
Name: SPI_328.2483_12.0
Formula: C18H33NO4
Exact mass: 327.2410
Instrument: Q Exactive Plus Orbitrap Thermo Scientific
Instrument type: LC-ESI-QFT
Ms type: MS2
Ion mode: POSITIVE
Ionization: ESI
Fragmentation mode: HCD
Collision energy: 30 (nominal)
Resolution: 17500
Column name: Atlantis T3 3um, 3x150mm, Waters with guard column
Retention time: 11.9 min
Base peak: 65.0597
Precursor m/z: 328.2482
Precursor type: [M+H]+
m/z	relative intensity	assigned
57.0575	1	C3H7N+
58.0649	3	C3H8N+
72.0807	4	C4H10N+
100.112	126	C6H14N+
102.0915	1	C5H12NO+
126.1277	1	C8H16N+
144.1382	999	C8H18NO+
160.1331	3	C8H18NO2+
196.112	12	C14H14N+
328.2481	398	C18H34NO4+
