Mass spectrum: SPI_328.2485_15.0; LC-ESI-QFT; MS2; CE: 60; R=17500; [M+H]+
Name: SPI_328.2485_15.0
Formula: C18H33NO4
Exact mass: 327.2410
Instrument: Q Exactive Plus Orbitrap Thermo Scientific
Instrument type: LC-ESI-QFT
Ms type: MS2
Ion mode: POSITIVE
Ionization: ESI
Fragmentation mode: HCD
Collision energy: 60 (nominal)
Resolution: 17500
Column name: Atlantis T3 3um, 3x150mm, Waters with guard column
Retention time: 14.7 min
Base peak: 65.0597
Precursor m/z: 328.2482
Precursor type: [M+H]+
m/z	relative intensity	assigned
56.0495	2	C3H6N+
58.0651	64	C3H8N+
60.0808	4	C3H10N+
67.0541	2	C5H7+
72.0808	32	C4H10N+
73.0282	19	C3H5O2+
81.0701	2	C6H9+
83.0856	4	C6H11+
84.0443	12	C4H6NO+
84.0809	25	C5H10N+
86.0601	11	C4H8NO+
86.0964	4	C5H12N+
88.0757	425	C4H10NO+
100.1118	13	C6H14N+
102.0913	4	C5H12NO+
114.0914	76	C6H12NO+
130.0863	999	C6H12NO2+
132.1019	5	C6H14NO2+
144.1016	4	C7H14NO2+
144.1382	4	C8H18NO+
156.1018	15	C8H14NO2+
174.1125	691	C8H16NO3+
