Mass spectrum: SPI_314.2691_15.4; LC-ESI-QFT; MS2; CE: 30; R=17500; [M+H]+
Name: SPI_314.2691_15.4
Formula: C18H35NO3
Exact mass: 313.2617
Instrument: Q Exactive Plus Orbitrap Thermo Scientific
Instrument type: LC-ESI-QFT
Ms type: MS2
Ion mode: POSITIVE
Ionization: ESI
Fragmentation mode: HCD
Collision energy: 30 (nominal)
Resolution: 17500
Column name: Atlantis T3 3um, 3x150mm, Waters with guard column
Retention time: 15.2 min
Base peak: 65.0597
Precursor m/z: 314.269
Precursor type: [M+H]+
m/z	relative intensity	assigned
57.0698	1	C4H9+
58.0652	2	C3H8N+
60.0444	3	C2H6NO+
60.0806	2	C3H10N+
70.0653	2	C4H8N+
72.0808	5	C4H10N+
84.0807	6	C5H10N+
86.0965	1	C5H12N+
88.0757	72	C4H10NO+
98.0965	9	C6H12N+
100.1121	113	C6H14N+
102.0915	9	C5H12NO+
126.1277	9	C8H16N+
130.1227	530	C7H16NO+
142.1227	38	C8H16NO+
144.1384	81	C8H18NO+
160.1333	999	C8H18NO2+
229.1798	2	C13H25O3+
314.269	612	C18H36NO3+
