Mass spectrum: SPI_312.2535_12.1; LC-ESI-QFT; MS2; CE: 15; R=17500; [M+H]+
Name: SPI_312.2535_12.1
Formula: C18H33NO3
Exact mass: 311.2460
Instrument: Q Exactive Plus Orbitrap Thermo Scientific
Instrument type: LC-ESI-QFT
Ms type: MS2
Ion mode: POSITIVE
Ionization: ESI
Fragmentation mode: HCD
Collision energy: 15 (nominal)
Resolution: 17500
Column name: Atlantis T3 3um, 3x150mm, Waters with guard column
Retention time: 12.0 min
Base peak: 65.0597
Precursor m/z: 312.2533
Precursor type: [M+H]+
m/z	relative intensity	assigned
144.1382	76	C8H18NO+
312.2533	999	C18H34NO3+
