Mass spectrum: SPI_312.2535_12.1; LC-ESI-QFT; MS2; CE: 60; R=17500; [M+H]+
Name: SPI_312.2535_12.1
Formula: C18H33NO3
Exact mass: 311.2460
Instrument: Q Exactive Plus Orbitrap Thermo Scientific
Instrument type: LC-ESI-QFT
Ms type: MS2
Ion mode: POSITIVE
Ionization: ESI
Fragmentation mode: HCD
Collision energy: 60 (nominal)
Resolution: 17500
Column name: Atlantis T3 3um, 3x150mm, Waters with guard column
Retention time: 12.0 min
Base peak: 65.0597
Precursor m/z: 312.2533
Precursor type: [M+H]+
m/z	relative intensity	assigned
58.0651	109	C3H8N+
72.0807	189	C4H10N+
100.112	999	C6H14N+
144.1384	675	C8H18NO+
