Mass spectrum: SPI_328.2485_15.0; LC-ESI-QFT; MS2; CE: 90; R=17500; [M+H]+
Name: SPI_328.2485_15.0
Formula: C18H33NO4
Exact mass: 327.2410
Instrument: Q Exactive Plus Orbitrap Thermo Scientific
Instrument type: LC-ESI-QFT
Ms type: MS2
Ion mode: POSITIVE
Ionization: ESI
Fragmentation mode: HCD
Collision energy: 90 (nominal)
Resolution: 17500
Column name: Atlantis T3 3um, 3x150mm, Waters with guard column
Retention time: 14.7 min
Base peak: 65.0597
Precursor m/z: 328.2482
Precursor type: [M+H]+
m/z	relative intensity	assigned
55.0179	6	C3H3O+
55.0543	3	C4H7+
56.0494	23	C3H6N+
57.0698	5	C4H9+
58.0652	387	C3H8N+
67.0543	5	C5H7+
70.0652	3	C4H8N+
72.0808	52	C4H10N+
73.0284	125	C3H5O2+
81.0698	3	C6H9+
84.0445	35	C4H6NO+
84.0807	42	C5H10N+
86.06	38	C4H8NO+
86.0966	4	C5H12N+
88.0757	999	C4H10NO+
100.1124	4	C6H14N+
114.0917	36	C6H12NO+
130.0863	422	C6H12NO2+
174.1127	35	C8H16NO3+
