Mass spectrum: SPI_314.2691_12.0; LC-ESI-QFT; MS2; CE: 75; R=17500; [M+H]+
Name: SPI_314.2691_12.0
Formula: C18H35NO3
Exact mass: 313.2617
Instrument: Q Exactive Plus Orbitrap Thermo Scientific
Instrument type: LC-ESI-QFT
Ms type: MS2
Ion mode: POSITIVE
Ionization: ESI
Fragmentation mode: HCD
Collision energy: 75 (nominal)
Resolution: 17500
Column name: Atlantis T3 3um, 3x150mm, Waters with guard column
Retention time: 11.9 min
Base peak: 65.0597
Precursor m/z: 314.269
Precursor type: [M+H]+
m/z	relative intensity	assigned
56.0494	11	C3H6N+
57.0698	4	C4H9+
58.0652	201	C3H8N+
59.0492	3	C3H7O+
67.0542	8	C5H7+
70.0649	2	C4H8N+
72.0808	332	C4H10N+
81.0697	7	C6H9+
83.0489	3	C5H7O+
84.0808	36	C5H10N+
86.0964	13	C5H12N+
95.0858	2	C7H11+
98.0964	8	C6H12N+
100.1121	999	C6H14N+
102.0913	39	C5H12NO+
116.1073	2	C6H14NO+
126.1278	19	C8H16N+
144.1384	272	C8H18NO+
