Mass spectrum: SPI_314.2691_15.4; LC-ESI-QFT; MS2; CE: 45; R=17500; [M+H]+
Name: SPI_314.2691_15.4
Formula: C18H35NO3
Exact mass: 313.2617
Instrument: Q Exactive Plus Orbitrap Thermo Scientific
Instrument type: LC-ESI-QFT
Ms type: MS2
Ion mode: POSITIVE
Ionization: ESI
Fragmentation mode: HCD
Collision energy: 45 (nominal)
Resolution: 17500
Column name: Atlantis T3 3um, 3x150mm, Waters with guard column
Retention time: 15.2 min
Base peak: 65.0597
Precursor m/z: 314.269
Precursor type: [M+H]+
m/z	relative intensity	assigned
56.0494	2	C3H6N+
57.0699	6	C4H9+
58.0651	18	C3H8N+
60.0444	51	C2H6NO+
60.0808	2	C3H10N+
69.0698	1	C5H9+
70.0651	39	C4H8N+
72.0808	39	C4H10N+
74.0599	7	C3H8NO+
81.0699	3	C6H9+
84.0807	9	C5H10N+
86.0601	1	C4H8NO+
86.0966	12	C5H12N+
88.0757	531	C4H10NO+
95.0854	3	C7H11+
98.0963	5	C6H12N+
100.1121	354	C6H14N+
102.0914	64	C5H12NO+
114.0913	11	C6H12NO+
118.086	5	C5H12NO2+
126.1279	12	C8H16N+
130.1227	999	C7H16NO+
142.1227	18	C8H16NO+
144.1384	56	C8H18NO+
160.1333	408	C8H18NO2+
162.1494	2	C8H20NO2+
229.18	1	C13H25O3+
314.268	15	C18H36NO3+
