Mass spectrum: SPI_256.2273_14.6; LC-ESI-QFT; MS2; CE: 75; R=17500; [M+H]+
Name: SPI_256.2273_14.6
Name: N-depropylspiroxamine
Formula: C15H29NO2
Exact mass: 255.2198
SMILES: CCNCC1COC2(CCC(CC2)C(C)(C)C)O1
InChI: InChI=1S/C15H29NO2/c1-5-16-10-13-11-17-15(18-13)8-6-12(7-9-15)14(2,3)4/h12-13,16H,5-11H2,1-4H3
Instrument: Q Exactive Plus Orbitrap Thermo Scientific
Instrument type: LC-ESI-QFT
Ms type: MS2
Ion mode: POSITIVE
Ionization: ESI
Fragmentation mode: HCD
Collision energy: 75 (nominal)
Resolution: 17500
Column name: Atlantis T3 3um, 3x150mm, Waters with guard column
Retention time: 14.4 min
Base peak: 65.0597
Precursor m/z: 256.2271
Precursor type: [M+H]+
m/z	relative intensity	assigned
55.0543	17	C4H7+
56.0495	99	C3H6N+
57.0699	58	C4H9+
58.0652	999	C3H8N+
67.0542	12	C5H7+
69.07	9	C5H9+
74.0965	56	C4H12N+
84.0808	226	C5H10N+
91.0544	15	C7H7+
94.0652	24	C6H8N+
102.0913	968	C5H12NO+
