Mass spectrum: SPI_328.2483_12.0; LC-ESI-QFT; MS2; CE: 45; R=17500; [M+H]+
Name: SPI_328.2483_12.0
Formula: C18H33NO4
Exact mass: 327.2410
Instrument: Q Exactive Plus Orbitrap Thermo Scientific
Instrument type: LC-ESI-QFT
Ms type: MS2
Ion mode: POSITIVE
Ionization: ESI
Fragmentation mode: HCD
Collision energy: 45 (nominal)
Resolution: 17500
Column name: Atlantis T3 3um, 3x150mm, Waters with guard column
Retention time: 11.9 min
Base peak: 65.0597
Precursor m/z: 328.2482
Precursor type: [M+H]+
m/z	relative intensity	assigned
56.0493	1	C3H6N+
58.0651	20	C3H8N+
59.0492	1	C3H7O+
72.0807	44	C4H10N+
81.0699	2	C6H9+
84.0808	6	C5H10N+
86.0963	3	C5H12N+
100.112	473	C6H14N+
102.0913	16	C5H12NO+
116.1071	2	C6H14NO+
123.1168	6	C9H15+
126.1277	11	C8H16N+
144.1382	999	C8H18NO+
160.1331	6	C8H18NO2+
196.1119	15	C14H14N+
328.248	13	C18H34NO4+
