Mass spectrum: SPI_328.2483_12.0; LC-ESI-QFT; MS2; CE: 90; R=17500; [M+H]+
Name: SPI_328.2483_12.0
Formula: C18H33NO4
Exact mass: 327.2410
Instrument: Q Exactive Plus Orbitrap Thermo Scientific
Instrument type: LC-ESI-QFT
Ms type: MS2
Ion mode: POSITIVE
Ionization: ESI
Fragmentation mode: HCD
Collision energy: 90 (nominal)
Resolution: 17500
Column name: Atlantis T3 3um, 3x150mm, Waters with guard column
Retention time: 11.9 min
Base peak: 65.0597
Precursor m/z: 328.2482
Precursor type: [M+H]+
m/z	relative intensity	assigned
53.0023	8	C3HO+
53.9975	2	C2NO+
55.0544	3	C4H7+
56.0495	36	C3H6N+
57.0699	5	C4H9+
58.0652	535	C3H8N+
59.0492	5	C3H7O+
65.0386	2	C5H5+
67.0542	12	C5H7+
69.0697	2	C5H9+
70.0651	6	C4H8N+
72.0807	667	C4H10N+
74.0599	2	C3H8NO+
79.0542	8	C6H7+
81.0698	23	C6H9+
82.0649	2	C5H8N+
83.049	1	C5H7O+
84.0808	48	C5H10N+
86.0964	19	C5H12N+
91.0542	11	C7H7+
92.0576	5	C2H8N2O2+
93.0698	1	C7H9+
98.0964	9	C6H12N+
100.112	999	C6H14N+
102.0913	37	C5H12NO+
105.0704	1	C8H9+
116.1068	2	C6H14NO+
117.0571	3	C8H7N+
126.1275	8	C8H16N+
144.1382	81	C8H18NO+
167.0729	24	C12H9N+
168.0768	43	
169.0841	30	C7H11N3O2+
181.0845	1	C8H11N3O2+
196.1118	3	C14H14N+
