Mass spectrum: VEN_274.1801_10.6; LC-ESI-QFT; MS2; CE: 60; R=17500; [M+H]+
Name: VEN_274.1801_10.6
Formula: C17H23NO2
Exact mass: 273.1729
Instrument: Q Exactive Orbitrap Thermo Scientific
Instrument type: LC-ESI-QFT
Ms type: MS2
Ion mode: POSITIVE
Ionization: ESI
Fragmentation mode: HCD
Collision energy: 60 (nominal)
Resolution: 17500
Column name: Atlantis T3 3um, 3x150mm, Waters with guard column
Retention time: 10.5 min
Base peak: 61.0285
Precursor m/z: 274.1802
Precursor type: [M+H]+
m/z	relative intensity	assigned
55.018	72	C3H3O+
58.0652	999	C3H8N+
121.0649	510	C8H9O+
144.0575	44	C10H8O+
171.0806	80	C12H11O+
179.0856	208	C14H11+
