Mass spectrum: VEN_294.2063_13.1; LC-ESI-QFT; MS2; CE: 15-90; R=17500; [M+H]+
Name: VEN_294.2063_13.1
Name: Venlafaxine N-Oxide
Name: 2-(1-hydroxycyclohexyl)-2-(4-methoxyphenyl)-N,N-dimethylethanamine oxide
Formula: C17H27NO3
Exact mass: 293.1991
SMILES: COC1=CC=C(C=C1)C(C[N+](C)(C)[O-])C1(O)CCCCC1
InChI: InChI=1S/C17H27NO3/c1-18(2,20)13-16(17(19)11-5-4-6-12-17)14-7-9-15(21-3)10-8-14/h7-10,16,19H,4-6,11-13H2,1-3H3
Instrument: Q Exactive Orbitrap Thermo Scientific
Instrument type: LC-ESI-QFT
Ms type: MS2
Ion mode: POSITIVE
Ionization: ESI
Fragmentation mode: HCD
Collision energy: 15, 30, 45, 60, 70 or 90 (nominal)
Resolution: 17500
Column name: Atlantis T3 3um, 3x150mm, Waters with guard column
Retention time: 13.3 min
Base peak: 294.2072
Precursor m/z: 294.2064
Precursor type: [M+H]+
m/z	relative intensity	assigned
62.0605	13	
78.0463	2	C6H6+
81.0701	1	C6H9+
91.0544	1	C7H7+
99.0806	9	C6H11O+
107.0858	1	C8H11+
121.065	999	C8H9O+
135.0807	20	C9H11O+
147.0809	7	C10H11O+
159.0807	2	C11H11O+
163.0992	2	C10H13NO+
173.0966	2	C12H13O+
178.1231	69	C11H16NO+
215.1436	56	C15H19O+
233.1543	21	C15H21O2+
276.1964	5	C17H26NO2+
294.207	185	C17H28NO3+
