Mass spectrum: VEN_292.1908_9.6; LC-ESI-QFT; MS2; CE: 60; R=17500; [M+H]+
Name: VEN_292.1908_9.6
Formula: C17H25NO3
Exact mass: 291.1834
Instrument: Q Exactive Orbitrap Thermo Scientific
Instrument type: LC-ESI-QFT
Ms type: MS2
Ion mode: POSITIVE
Ionization: ESI
Fragmentation mode: HCD
Collision energy: 60 (nominal)
Resolution: 17500
Column name: Atlantis T3 3um, 3.0x150mm, Waters with guard column
Retention time: 9.5 min
Base peak: 61.0285
Precursor m/z: 292.1907
Precursor type: [M+H]+
m/z	relative intensity	assigned
58.0652	999	C3H8N+
121.0642	303	C8H9O+
