Mass spectrum: VEN_278.2114_12.5; LC-ESI-QFT; MS2; CE: 15-90; R=17500; [M+H]+
Name: VEN_278.2114_12.5
Name: Venlafaxine
Name: 1-[2-(dimethylamino)-1-(4-methoxyphenyl)ethyl]cyclohexan-1-ol
Formula: C17H27NO2
Exact mass: 277.2042
SMILES: COC1=CC=C(C=C1)C(CN(C)C)C1(O)CCCCC1
InChI: InChI=1S/C17H27NO2/c1-18(2)13-16(17(19)11-5-4-6-12-17)14-7-9-15(20-3)10-8-14/h7-10,16,19H,4-6,11-13H2,1-3H3
Instrument: Q Exactive Orbitrap Thermo Scientific
Instrument type: LC-ESI-QFT
Ms type: MS2
Ion mode: POSITIVE
Ionization: ESI
Fragmentation mode: HCD
Collision energy: 15, 30, 45, 60, 70 or 90 (nominal)
Resolution: 17500
Column name: Atlantis T3 3um, 3x150mm, Waters with guard column
Retention time: 12.8 min
Base peak: 278.212
Precursor m/z: 278.2115
Precursor type: [M+H]+
m/z	relative intensity	assigned
58.0656	999	
65.0391	4	
67.0545	5	C5H7+
69.0702	7	C5H9+
77.0389	3	C6H5+
78.0466	6	C6H6+
79.0545	33	C6H7+
81.0701	29	C6H9+
91.0544	128	C7H7+
93.0701	12	C7H9+
95.0493	18	C6H7O+
105.0447	4	
105.0702	8	C8H9+
106.0415	3	
107.0493	14	C7H7O+
107.0858	5	C8H11+
109.065	16	C7H9O+
115.0544	11	C9H7+
117.0701	11	C9H9+
119.0495	1	C8H7O+
119.0604	4	C7H7N2+
119.0859	7	C9H11+
121.065	351	C8H9O+
128.0623	4	C10H8+
129.07	6	C10H9+
131.0494	5	
132.0573	20	C9H8O+
133.0648	2	C9H9O+
135.0808	17	C9H11O+
141.0703	6	C11H9+
144.0573	11	C10H8O+
145.0653	6	C10H9O+
146.0728	2	C10H10O+
147.0808	74	C10H11O+
148.0758	4	C9H10NO+
158.0729	26	C11H10O+
159.0807	25	C11H11O+
160.0883	1	C11H12O+
161.0963	3	C11H13O+
162.0918	11	C10H12NO+
163.0995	7	C10H13NO+
172.0882	1	C12H12O+
173.0965	22	C12H13O+
177.1151	2	C11H15NO+
