Mass spectrum: VEN_274.1801_10.6; LC-ESI-QFT; MS2; CE: 90; R=17500; [M+H]+
Name: VEN_274.1801_10.6
Formula: C17H23NO2
Exact mass: 273.1729
Instrument: Q Exactive Orbitrap Thermo Scientific
Instrument type: LC-ESI-QFT
Ms type: MS2
Ion mode: POSITIVE
Ionization: ESI
Fragmentation mode: HCD
Collision energy: 90 (nominal)
Resolution: 17500
Column name: Atlantis T3 3um, 3.0x150mm, Waters with guard column
Retention time: 10.5 min
Base peak: 61.0285
Precursor m/z: 274.1802
Precursor type: [M+H]+
m/z	relative intensity	assigned
55.0179	86	C3H3O+
58.0652	999	C3H8N+
91.0544	83	C7H7+
121.0649	415	C8H9O+
144.0576	68	C10H8O+
