Mass spectrum: VEN_294.2063_13.1; LC-ESI-QFT; MS2; CE: 15-90; R=17500; [M+H]+
Name: VEN_294.2063_13.1
Name: Venlafaxine N-Oxide
Name: 2-(1-hydroxycyclohexyl)-2-(4-methoxyphenyl)-N,N-dimethylethanamine oxide
Formula: C17H27NO3
Exact mass: 293.1991
SMILES: COC1=CC=C(C=C1)C(C[N+](C)(C)[O-])C1(O)CCCCC1
InChI: InChI=1S/C17H27NO3/c1-18(2,20)13-16(17(19)11-5-4-6-12-17)14-7-9-15(21-3)10-8-14/h7-10,16,19H,4-6,11-13H2,1-3H3
Instrument: Q Exactive Orbitrap Thermo Scientific
Instrument type: LC-ESI-QFT
Ms type: MS2
Ion mode: POSITIVE
Ionization: ESI
Fragmentation mode: HCD
Collision energy: 15, 30, 45, 60, 70 or 90 (nominal)
Resolution: 17500
Column name: Atlantis T3 3um, 3x150mm, Waters with guard column
Retention time: 13.3 min
Base peak: 294.2072
Precursor m/z: 294.2064
Precursor type: [M+H]+
m/z	relative intensity	assigned
77.0388	1	C6H5+
78.0464	2	C6H6+
79.0545	1	C6H7+
81.0702	9	C6H9+
91.0545	3	C7H7+
95.0492	2	C6H7O+
99.0807	18	C6H11O+
105.0698	2	C8H9+
106.0414	1	C7H6O+
107.0858	1	C8H11+
121.065	999	C8H9O+
135.0807	28	C9H11O+
147.0808	15	C10H11O+
147.1045	3	C10H13N+
151.0754	1	C9H11O2+
159.0807	5	C11H11O+
163.0995	10	C10H13NO+
173.0965	5	C12H13O+
178.1231	34	C11H16NO+
215.1437	12	C15H19O+
294.2076	1	C17H28NO3+
