Mass spectrum: VEN_294.2063_13.1; LC-ESI-QFT; MS2; CE: 15-90; R=17500; [M+H]+
Name: VEN_294.2063_13.1
Name: Venlafaxine N-Oxide
Name: 2-(1-hydroxycyclohexyl)-2-(4-methoxyphenyl)-N,N-dimethylethanamine oxide
Formula: C17H27NO3
Exact mass: 293.1991
SMILES: COC1=CC=C(C=C1)C(C[N+](C)(C)[O-])C1(O)CCCCC1
InChI: InChI=1S/C17H27NO3/c1-18(2,20)13-16(17(19)11-5-4-6-12-17)14-7-9-15(21-3)10-8-14/h7-10,16,19H,4-6,11-13H2,1-3H3
Instrument: Q Exactive Orbitrap Thermo Scientific
Instrument type: LC-ESI-QFT
Ms type: MS2
Ion mode: POSITIVE
Ionization: ESI
Fragmentation mode: HCD
Collision energy: 15, 30, 45, 60, 70 or 90 (nominal)
Resolution: 17500
Column name: Atlantis T3 3um, 3x150mm, Waters with guard column
Retention time: 13.3 min
Base peak: 294.2072
Precursor m/z: 294.2064
Precursor type: [M+H]+
m/z	relative intensity	assigned
77.0387	6	C6H5+
78.0466	21	C6H6+
79.0545	15	C6H7+
81.0701	41	C6H9+
91.0544	61	C7H7+
93.07	6	C7H9+
95.0493	46	C6H7O+
99.0806	12	C6H11O+
103.0543	4	C8H7+
105.0449	10	C6H5N2+
105.0701	12	C8H9+
106.0415	10	C7H6O+
107.0492	2	C7H7O+
120.057	2	C8H8O+
120.081	1	C8H10N+
121.065	999	C8H9O+
133.0653	1	C9H9O+
135.0807	12	C9H11O+
144.0568	1	C10H8O+
146.0971	3	C10H12N+
147.0807	6	C10H11O+
147.1042	2	C10H13N+
148.0759	8	C9H10NO+
158.0728	2	C11H10O+
159.081	3	C11H11O+
162.0917	1	C10H12NO+
163.0994	5	C10H13NO+
173.0961	2	C12H13O+
178.1233	1	C11H16NO+
