Mass spectrum: VEN_264.1959_10.8; LC-ESI-QFT; MS2; CE: 15-90; R=17500; [M+H]+
Name: VEN_264.1959_10.8
Name: O-Desmethylvenlafaxine
Name: 4-[2-(dimethylamino)-1-(1-hydroxycyclohexyl)ethyl]phenol
Formula: C16H25NO2
Exact mass: 263.1885
SMILES: CN(C)CC(C1=CC=C(O)C=C1)C1(O)CCCCC1
InChI: InChI=1S/C16H25NO2/c1-17(2)12-15(13-6-8-14(18)9-7-13)16(19)10-4-3-5-11-16/h6-9,15,18-19H,3-5,10-12H2,1-2H3
Instrument: Q Exactive Orbitrap Thermo Scientific
Instrument type: LC-ESI-QFT
Ms type: MS2
Ion mode: POSITIVE
Ionization: ESI
Fragmentation mode: HCD
Collision energy: 15, 30, 45, 60, 70 or 90 (nominal)
Resolution: 17500
Column name: Atlantis T3 3um, 3x150mm, Waters with guard column
Retention time: 11.0 min
Base peak: 264.1958
Precursor m/z: 264.1958
Precursor type: [M+H]+
m/z	relative intensity	assigned
58.0655	999	
67.0545	4	C5H7+
69.0701	7	C5H9+
77.0387	1	C6H5+
79.0543	43	C6H7+
81.0699	34	C6H9+
91.0542	12	C7H7+
93.0698	2	C7H9+
95.0491	17	C6H7O+
95.0853	1	C7H11+
99.0805	1	C6H11O+
103.0542	4	C8H7+
105.0449	6	C6H5N2+
105.0699	50	C8H9+
107.0491	329	C7H7O+
115.0542	6	C9H7+
117.0699	5	C9H9+
119.0489	1	C8H7O+
121.0647	12	C8H9O+
131.0491	6	C9H7O+
131.0852	7	C10H11+
133.0647	105	C9H9O+
141.0697	4	C11H9+
144.057	9	C10H8O+
145.0648	30	C10H9O+
147.0806	3	C10H11O+
149.0838	7	C9H11NO+
155.0602	3	C10H7N2+
157.0652	1	C11H9O+
159.0804	26	C11H11O+
163.0989	3	C10H13NO+
169.0756	2	C11H9N2+
