Mass spectrum: VEN_292.1908_8.8; LC-ESI-QFT; MS2; CE: 60; R=17500; [M+H]+
Name: VEN_292.1908_8.8
Formula: C17H25NO3
Exact mass: 291.1834
Instrument: Q Exactive Orbitrap Thermo Scientific
Instrument type: LC-ESI-QFT
Ms type: MS2
Ion mode: POSITIVE
Ionization: ESI
Fragmentation mode: HCD
Collision energy: 60 (nominal)
Resolution: 17500
Column name: Atlantis T3 3um, 3x150mm, Waters with guard column
Retention time: 8.8 min
Base peak: 61.0285
Precursor m/z: 292.1907
Precursor type: [M+H]+
m/z	relative intensity	assigned
58.0652	987	C3H8N+
91.0542	21	C7H7+
121.0648	999	C8H9O+
156.0568	17	C11H8O+
171.0805	322	C12H11O+
