Mass spectrum: VEN_292.1908_8.8; LC-ESI-QFT; MS2; CE: 15; R=17500; [M+H]+
Name: VEN_292.1908_8.8
Formula: C17H25NO3
Exact mass: 291.1834
Instrument: Q Exactive Orbitrap Thermo Scientific
Instrument type: LC-ESI-QFT
Ms type: MS2
Ion mode: POSITIVE
Ionization: ESI
Fragmentation mode: HCD
Collision energy: 15 (nominal)
Resolution: 17500
Column name: Atlantis T3 3um, 3x150mm, Waters with guard column
Retention time: 8.8 min
Base peak: 61.0285
Precursor m/z: 292.1907
Precursor type: [M+H]+
m/z	relative intensity	assigned
58.0652	193	C3H8N+
121.0646	40	C8H9O+
171.0807	61	C12H11O+
274.1801	399	C17H24NO2+
292.1906	999	C17H26NO3+
