Mass spectrum: VEN_292.1908_8.8; LC-ESI-QFT; MS2; CE: 30; R=17500; [M+H]+
Name: VEN_292.1908_8.8
Formula: C17H25NO3
Exact mass: 291.1834
Instrument: Q Exactive Orbitrap Thermo Scientific
Instrument type: LC-ESI-QFT
Ms type: MS2
Ion mode: POSITIVE
Ionization: ESI
Fragmentation mode: HCD
Collision energy: 30 (nominal)
Resolution: 17500
Column name: Atlantis T3 3um, 3.0x150mm, Waters with guard column
Retention time: 8.8 min
Base peak: 61.0285
Precursor m/z: 292.1907
Precursor type: [M+H]+
m/z	relative intensity	assigned
58.0652	999	C3H8N+
121.0647	373	C8H9O+
171.0804	415	C12H11O+
274.18	311	C17H24NO2+
292.1898	151	C17H26NO3+
