Mass spectrum: VEN_292.1908_8.8; LC-ESI-QFT; MS2; CE: 75; R=17500; [M+H]+
Name: VEN_292.1908_8.8
Formula: C17H25NO3
Exact mass: 291.1834
Instrument: Q Exactive Orbitrap Thermo Scientific
Instrument type: LC-ESI-QFT
Ms type: MS2
Ion mode: POSITIVE
Ionization: ESI
Fragmentation mode: HCD
Collision energy: 75 (nominal)
Resolution: 17500
Column name: Atlantis T3 3um, 3.0x150mm, Waters with guard column
Retention time: 8.8 min
Base peak: 61.0285
Precursor m/z: 292.1907
Precursor type: [M+H]+
m/z	relative intensity	assigned
58.0652	885	C3H8N+
91.054	64	C7H7+
95.049	28	C6H7O+
121.0648	999	C8H9O+
128.0617	96	C10H8+
156.0567	21	C11H8O+
162.0919	17	C10H12NO+
171.0805	191	C12H11O+
