Mass spectrum: VEN_278.2114_12.5; LC-ESI-QFT; MS2; CE: 15-90; R=17500; [M+H]+
Name: VEN_278.2114_12.5
Name: Venlafaxine
Name: 1-[2-(dimethylamino)-1-(4-methoxyphenyl)ethyl]cyclohexan-1-ol
Formula: C17H27NO2
Exact mass: 277.2042
SMILES: COC1=CC=C(C=C1)C(CN(C)C)C1(O)CCCCC1
InChI: InChI=1S/C17H27NO2/c1-18(2)13-16(17(19)11-5-4-6-12-17)14-7-9-15(20-3)10-8-14/h7-10,16,19H,4-6,11-13H2,1-3H3
Instrument: Q Exactive Orbitrap Thermo Scientific
Instrument type: LC-ESI-QFT
Ms type: MS2
Ion mode: POSITIVE
Ionization: ESI
Fragmentation mode: HCD
Collision energy: 15, 30, 45, 60, 70 or 90 (nominal)
Resolution: 17500
Column name: Atlantis T3 3um, 3x150mm, Waters with guard column
Retention time: 12.8 min
Base peak: 278.212
Precursor m/z: 278.2115
Precursor type: [M+H]+
m/z	relative intensity	assigned
58.0656	999	
81.0702	2	C6H9+
107.0857	6	C8H11+
121.065	120	C8H9O+
135.0811	4	C9H11O+
147.0807	47	C10H11O+
152.1433	4	C10H18N+
159.0808	10	C11H11O+
173.0964	13	C12H13O+
178.123	2	C11H16NO+
215.1436	146	C15H19O+
260.2014	252	C17H26NO+
278.212	102	C17H28NO2+
