Mass spectrum: VEN_274.1801_10.6; LC-ESI-QFT; MS2; CE: 15; R=17500; [M+H]+
Name: VEN_274.1801_10.6
Formula: C17H23NO2
Exact mass: 273.1729
Instrument: Q Exactive Orbitrap Thermo Scientific
Instrument type: LC-ESI-QFT
Ms type: MS2
Ion mode: POSITIVE
Ionization: ESI
Fragmentation mode: HCD
Collision energy: 15 (nominal)
Resolution: 17500
Column name: Atlantis T3 3um, 3x150mm, Waters with guard column
Retention time: 10.5 min
Base peak: 61.0285
Precursor m/z: 274.1802
Precursor type: [M+H]+
m/z	relative intensity	assigned
58.0652	999	C3H8N+
211.1116	49	C15H15O+
229.1223	171	C15H17O2+
