Mass spectrum: VEN_278.2114_12.5; LC-ESI-QFT; MS2; CE: 15-90; R=17500; [M+H]+
Name: VEN_278.2114_12.5
Name: Venlafaxine
Name: 1-[2-(dimethylamino)-1-(4-methoxyphenyl)ethyl]cyclohexan-1-ol
Formula: C17H27NO2
Exact mass: 277.2042
SMILES: COC1=CC=C(C=C1)C(CN(C)C)C1(O)CCCCC1
InChI: InChI=1S/C17H27NO2/c1-18(2)13-16(17(19)11-5-4-6-12-17)14-7-9-15(20-3)10-8-14/h7-10,16,19H,4-6,11-13H2,1-3H3
Instrument: Q Exactive Orbitrap Thermo Scientific
Instrument type: LC-ESI-QFT
Ms type: MS2
Ion mode: POSITIVE
Ionization: ESI
Fragmentation mode: HCD
Collision energy: 15, 30, 45, 60, 70 or 90 (nominal)
Resolution: 17500
Column name: Atlantis T3 3um, 3x150mm, Waters with guard column
Retention time: 12.8 min
Base peak: 278.212
Precursor m/z: 278.2115
Precursor type: [M+H]+
m/z	relative intensity	assigned
58.0656	999	
69.0703	5	
79.0545	8	C6H7+
81.0701	11	C6H9+
91.0544	7	C7H7+
93.0702	4	C7H9+
107.0493	1	C7H7O+
107.0858	12	C8H11+
109.0651	2	C7H9O+
121.065	243	C8H9O+
132.0571	5	C9H8O+
135.0807	12	C9H11O+
145.0653	2	C10H9O+
147.0808	116	C10H11O+
152.1436	4	C10H18N+
158.0733	2	C11H10O+
159.0808	30	C11H11O+
161.0964	3	C11H13O+
163.0992	1	C10H13NO+
173.0966	42	C12H13O+
177.1158	5	
178.1232	6	C11H16NO+
183.1173	3	C14H15+
187.1124	2	C13H15O+
215.1436	56	C15H19O+
260.2012	9	C17H26NO+
