Mass spectrum: VEN_292.1908_8.8; LC-ESI-QFT; MS2; CE: 90; R=17500; [M+H]+
Name: VEN_292.1908_8.8
Formula: C17H25NO3
Exact mass: 291.1834
Instrument: Q Exactive Orbitrap Thermo Scientific
Instrument type: LC-ESI-QFT
Ms type: MS2
Ion mode: POSITIVE
Ionization: ESI
Fragmentation mode: HCD
Collision energy: 90 (nominal)
Resolution: 17500
Column name: Atlantis T3 3um, 3x150mm, Waters with guard column
Retention time: 8.8 min
Base peak: 61.0285
Precursor m/z: 292.1907
Precursor type: [M+H]+
m/z	relative intensity	assigned
58.0652	850	C3H8N+
78.0464	117	
91.0542	198	C7H7+
95.0489	106	C6H7O+
121.0648	999	C8H9O+
128.062	191	C10H8+
162.091	18	C10H12NO+
171.0801	67	C12H11O+
