Mass spectrum: VEN_264.1959_10.8; LC-ESI-QFT; MS2; CE: 15-90; R=17500; [M+H]+
Name: VEN_264.1959_10.8
Name: O-Desmethylvenlafaxine
Name: 4-[2-(dimethylamino)-1-(1-hydroxycyclohexyl)ethyl]phenol
Formula: C16H25NO2
Exact mass: 263.1885
SMILES: CN(C)CC(C1=CC=C(O)C=C1)C1(O)CCCCC1
InChI: InChI=1S/C16H25NO2/c1-17(2)12-15(13-6-8-14(18)9-7-13)16(19)10-4-3-5-11-16/h6-9,15,18-19H,3-5,10-12H2,1-2H3
Instrument: Q Exactive Orbitrap Thermo Scientific
Instrument type: LC-ESI-QFT
Ms type: MS2
Ion mode: POSITIVE
Ionization: ESI
Fragmentation mode: HCD
Collision energy: 15, 30, 45, 60, 70 or 90 (nominal)
Resolution: 17500
Column name: Atlantis T3 3um, 3x150mm, Waters with guard column
Retention time: 11.0 min
Base peak: 264.1958
Precursor m/z: 264.1958
Precursor type: [M+H]+
m/z	relative intensity	assigned
58.0655	999	
81.0698	3	C6H9+
107.0491	54	C7H7O+
119.0491	1	C8H7O+
121.0648	2	C8H9O+
133.0647	40	C9H9O+
145.0647	10	C10H9O+
152.1435	1	C10H18N+
159.0802	12	C11H11O+
164.1072	3	C10H14NO+
173.0961	3	C12H13O+
201.1274	84	C14H17O+
246.1852	331	C16H24NO+
264.1957	167	C16H26NO2+
