Mass spectrum: VEN_264.1959_10.8; LC-ESI-QFT; MS2; CE: 15-90; R=17500; [M+H]+
Name: VEN_264.1959_10.8
Name: O-Desmethylvenlafaxine
Name: 4-[2-(dimethylamino)-1-(1-hydroxycyclohexyl)ethyl]phenol
Formula: C16H25NO2
Exact mass: 263.1885
SMILES: CN(C)CC(C1=CC=C(O)C=C1)C1(O)CCCCC1
InChI: InChI=1S/C16H25NO2/c1-17(2)12-15(13-6-8-14(18)9-7-13)16(19)10-4-3-5-11-16/h6-9,15,18-19H,3-5,10-12H2,1-2H3
Instrument: Q Exactive Orbitrap Thermo Scientific
Instrument type: LC-ESI-QFT
Ms type: MS2
Ion mode: POSITIVE
Ionization: ESI
Fragmentation mode: HCD
Collision energy: 15, 30, 45, 60, 70 or 90 (nominal)
Resolution: 17500
Column name: Atlantis T3 3um, 3x150mm, Waters with guard column
Retention time: 11.0 min
Base peak: 264.1958
Precursor m/z: 264.1958
Precursor type: [M+H]+
m/z	relative intensity	assigned
58.0655	999	
67.0545	3	C5H7+
69.07	10	C5H9+
79.0543	16	C6H7+
81.0699	26	C6H9+
91.0539	4	C7H7+
93.0699	3	C7H9+
95.0493	4	C6H7O+
95.0856	2	C7H11+
99.0806	2	C6H11O+
105.0699	14	C8H9+
107.0491	247	C7H7O+
117.0698	2	C9H9+
119.0492	2	C8H7O+
121.0647	12	C8H9O+
131.0492	4	C9H7O+
131.0855	4	C10H11+
133.0647	134	C9H9O+
141.0697	2	C11H9+
144.0567	3	C10H8O+
145.0648	31	C10H9O+
147.0804	3	C10H11O+
149.0835	4	C9H11NO+
159.0804	39	C11H11O+
163.0991	4	C10H13NO+
164.1073	4	C10H14NO+
173.0964	2	C12H13O+
201.1274	6	C14H17O+
