Mass spectrum: VEN_294.2065_8.3; LC-ESI-QFT; MS2; CE: 60; R=17500; [M+H]+
Name: VEN_294.2065_8.3
Formula: C17H27NO3
Exact mass: 293.1991
Instrument: Q Exactive Orbitrap Thermo Scientific
Instrument type: LC-ESI-QFT
Ms type: MS2
Ion mode: POSITIVE
Ionization: ESI
Fragmentation mode: HCD
Collision energy: 60 (nominal)
Resolution: 17500
Column name: Atlantis T3 3um, 3x150mm, Waters with guard column
Retention time: 8.3 min
Base peak: 61.0285
Precursor m/z: 294.2064
Precursor type: [M+H]+
m/z	relative intensity	assigned
58.0652	999	C3H8N+
121.0649	417	C8H9O+
171.0811	178	C12H11O+
