Mass spectrum: VEN_278.2114_12.5; LC-ESI-QFT; MS2; CE: 15-90; R=17500; [M+H]+
Name: VEN_278.2114_12.5
Name: Venlafaxine
Name: 1-[2-(dimethylamino)-1-(4-methoxyphenyl)ethyl]cyclohexan-1-ol
Formula: C17H27NO2
Exact mass: 277.2042
SMILES: COC1=CC=C(C=C1)C(CN(C)C)C1(O)CCCCC1
InChI: InChI=1S/C17H27NO2/c1-18(2)13-16(17(19)11-5-4-6-12-17)14-7-9-15(20-3)10-8-14/h7-10,16,19H,4-6,11-13H2,1-3H3
Instrument: Q Exactive Orbitrap Thermo Scientific
Instrument type: LC-ESI-QFT
Ms type: MS2
Ion mode: POSITIVE
Ionization: ESI
Fragmentation mode: HCD
Collision energy: 15, 30, 45, 60, 70 or 90 (nominal)
Resolution: 17500
Column name: Atlantis T3 3um, 3x150mm, Waters with guard column
Retention time: 12.8 min
Base peak: 278.212
Precursor m/z: 278.2115
Precursor type: [M+H]+
m/z	relative intensity	assigned
58.0656	999	
67.0545	3	C5H7+
69.0702	7	C5H9+
78.0466	1	C6H6+
79.0545	20	C6H7+
81.0701	24	C6H9+
91.0544	41	C7H7+
93.07	12	C7H9+
95.0494	3	C6H7O+
99.0807	2	C6H11O+
105.0702	4	C8H9+
107.0493	7	C7H7O+
107.0857	9	C8H11+
109.0649	9	C7H9O+
115.0546	3	C9H7+
117.07	3	C9H9+
119.0492	1	C8H7O+
119.0858	4	C9H11+
121.065	327	C8H9O+
129.07	1	C10H9+
132.0571	12	C9H8O+
133.0654	2	C9H9O+
135.0807	22	C9H11O+
141.0702	3	C11H9+
144.0575	6	C10H8O+
145.0652	3	C10H9O+
147.0807	136	C10H11O+
152.1436	1	C10H18N+
158.0729	14	C11H10O+
159.0807	32	C11H11O+
160.0884	2	C11H12O+
161.0963	5	C11H13O+
162.092	3	C10H12NO+
163.0994	5	C10H13NO+
173.0964	43	C12H13O+
174.1042	2	C12H14O+
177.1154	5	C11H15NO+
178.1229	5	C11H16NO+
183.1171	2	C14H15+
187.1119	1	C13H15O+
215.143	5	C15H19O+
