Mass spectrum: VEN_294.2065_11.3; LC-ESI-QFT; MS2; CE: 15; R=17500; [M+H]+
Name: VEN_294.2065_11.3
Formula: C17H27NO3
Exact mass: 293.1991
Instrument: Q Exactive Orbitrap Thermo Scientific
Instrument type: LC-ESI-QFT
Ms type: MS2
Ion mode: POSITIVE
Ionization: ESI
Fragmentation mode: HCD
Collision energy: 15 (nominal)
Resolution: 17500
Column name: Atlantis T3 3um, 3.0x150mm, Waters with guard column
Retention time: 11.2 min
Base peak: 60.0809
Precursor m/z: 294.2064
Precursor type: [M+H]+
m/z	relative intensity	assigned
58.0651	283	C3H8N+
276.196	486	C17H26NO2+
294.206	999	C17H28NO3+
