Mass spectrum: PRZ_M573; LC-ESI-QFT; MS2; CE: 70; R=35000; [M+H]+
Name: PRZ_M573
Formula: C19H23Cl3N4O8S
Exact mass: 572.0302
SMILES: [H]N([H])[C@@H](CCC(=O)N([H])[C@@H](CSC(=O)NCCOC1=C(Cl)C=C(Cl)C=C1Cl)C(=O)N([H])CC(O)=O)C(O)=O
InChI: InChI=1S/C19H23Cl3N4O8S/c20-9-5-10(21)16(11(22)6-9)34-4-3-24-19(33)35-8-13(17(30)25-7-15(28)29)26-14(27)2-1-12(23)18(31)32/h5-6,12-13H,1-4,7-8,23H2,(H,24,33)(H,25,30)(H,26,27)(H,28,29)(H,31,32)/t12-,13-/m0/s1
Instrument: Q Exactive Orbitrap Thermo Scientific
Instrument type: LC-ESI-QFT
Ms type: MS2
Ion mode: POSITIVE
Ionization: ESI
Fragmentation mode: HCD
Collision energy: 70 (nominal)
Resolution: 35000
Column name: XBridge C18 3.5 um, 2.1x50 mm, Waters with guard column
Retention time: 13.8 min
Base peak: 199.1691
Precursor m/z: 573.0375
Precursor type: [M+H]+
m/z	relative intensity	assigned
55.0542	86	C4H7+
58.995	587	C2H3S+
65.9975	48	C3NO+
67.0415	53	C4H5N+
67.0543	71	C5H7+
69.0699	73	C5H9+
70.0288	57	C3H4NO+
70.0651	999	C4H8N+
72.0807	225	C4H10N+
76.0215	853	C2H6NS+
79.0542	62	C6H7+
81.0699	56	C6H9+
83.0603	79	C4H7N2+
84.0444	275	C4H6NO+
84.0808	105	C5H10N+
86.0964	626	C5H12N+
91.0543	114	C7H7+
93.0699	66	C7H9+
103.0542	82	C8H7+
116.0165	142	C4H6NOS+
120.0808	277	C8H10N+
130.065	76	C9H8N+
142.0321	54	C6H8NOS+
160.112	100	ClH21N4OS+
481.0569	80	C18H22Cl3N3O6+
