Mass spectrum: PRZ_M392b; LC-ESI-QFT; MS2; CE: 40; R=35000; [M+H]+
Name: PRZ_M392b
Formula: C15H16Cl3N3O3
Exact mass: 391.0257
SMILES: CCCN(CCOC1=C(Cl)C=C(Cl)C=C1Cl)C(=O)N1C=NC=C1O
InChI: InChI=1S/C15H16Cl3N3O3/c1-2-3-20(15(23)21-9-19-8-13(21)22)4-5-24-14-11(17)6-10(16)7-12(14)18/h6-9,22H,2-5H2,1H3
Instrument: Q Exactive Orbitrap Thermo Scientific
Instrument type: LC-ESI-QFT
Ms type: MS2
Ion mode: POSITIVE
Ionization: ESI
Fragmentation mode: HCD
Collision energy: 40 (nominal)
Resolution: 35000
Column name: XBridge C18 3.5 um, 2.1x50 mm, Waters with guard column
Retention time: 15.4 min
Base peak: 311.1852
Precursor m/z: 392.033
Precursor type: [M+H]+
m/z	relative intensity	assigned
53.0027	9	ClH4N+
60.0811	16	C3H10N+
65.0388	11	C5H5+
67.0543	11	C5H7+
69.07	18	C5H9+
70.0288	593	C3H4NO+
70.0652	477	C4H8N+
71.0856	91	C5H11+
72.0444	9	C3H6NO+
79.0543	5	C6H7+
81.0699	14	C6H9+
83.0856	9	C6H11+
84.0808	3	C5H10N+
85.0887	39	C5H11N+
88.0394	4	C3H6NO2+
93.07	8	C7H9+
95.0494	3	C6H7O+
95.0856	10	C7H11+
97.0648	3	C6H9O+
98.0601	23	C5H8NO+
99.0442	3	C5H7O2+
105.0697	5	C8H9+
107.0857	3	C8H11+
109.0647	2	C7H9O+
109.1011	8	C8H13+
112.0757	3	C6H10NO+
113.0599	2	C6H9O2+
113.0835	4	C6H11NO+
119.0857	4	C9H11+
121.0247	2	C2H5N2O4+
121.0284	25	C7H5O2+
121.0396	2	C6H5N2O+
121.1011	4	C9H13+
122.0318	9	C2H6N2O4+
123.0805	4	C8H11O+
125.0963	2	C8H13O+
132.9609	2	C5H3Cl2+
138.0104	4	C7H5ClN+
149.0235	999	C8H5O3+
158.9763	19	C7H5Cl2+
159.9838	2	C7H6Cl2+
161.9634	12	C6H4Cl2O+
166.0055	9	C8H5ClNO+
166.9218	17	C5H2Cl3+
167.0131	16	C8H6ClNO+
167.0342	4	C5H10ClNO3+
173.9871	21	C7H6Cl2N+
174.9712	26	C7H5Cl2O+
179.9297	11	C6H3Cl3+
180.0212	2	C9H7ClNO+
186.9713	3	C8H5Cl2O+
187.9792	4	C8H6Cl2O+
192.9371	3	C7H4Cl3+
194.9166	104	C6H2Cl3O+
194.9531	18	C7H6Cl3+
196.9322	50	C6H4Cl3O+
201.982	23	C8H6Cl2NO+
202.9906	4	C5H10Cl3N2+
204.9376	4	C8H4Cl3+
209.0604	2	C8H15Cl2N2+
215.9978	3	C9H8Cl2NO+
222.948	62	C8H6Cl3O+
237.9589	2	C8H7Cl3NO+
244.0292	3	C11H12Cl2NO+
245.037	11	C11H13Cl2NO+
273.9578	2	C14H4Cl2O2+
