Mass spectrum: PRZ_M323a; LC-ESI-QFT; MS2; CE: 30; R=35000; [M+H]+
Name: PRZ_M323a
Formula: C12H12Cl3NO3
Exact mass: 322.9883
SMILES: CC(=O)CN(CCOC1=C(Cl)C=C(Cl)C=C1Cl)C=O
InChI: InChI=1S/C12H12Cl3NO3/c1-8(18)6-16(7-17)2-3-19-12-10(14)4-9(13)5-11(12)15/h4-5,7H,2-3,6H2,1H3
Instrument: Q Exactive Orbitrap Thermo Scientific
Instrument type: LC-ESI-QFT
Ms type: MS2
Ion mode: POSITIVE
Ionization: ESI
Fragmentation mode: HCD
Collision energy: 30 (nominal)
Resolution: 35000
Column name: XBridge C18 3.5 um, 2.1x50 mm, Waters with guard column
Retention time: 15.8 min
Base peak: 213.1848
Precursor m/z: 323.9956
Precursor type: [M+H]+
m/z	relative intensity	assigned
56.0495	82	C3H6N+
57.0573	3	C3H7N+
57.0698	1	C4H9+
67.0542	7	C5H7+
70.0651	27	C4H8N+
78.0105	1	C2H5ClN+
81.0699	5	C6H9+
83.0855	2	C6H11+
84.0808	120	C5H10N+
85.0886	18	C5H11N+
93.0698	2	C7H9+
95.0855	6	C7H11+
100.0393	803	C4H6NO2+
107.0854	1	C8H11+
109.1013	2	C8H13+
114.055	6	C5H8NO2+
128.0706	999	C6H10NO2+
129.0783	10	C6H11NO2+
138.0219	1	C9H2N2+
156.0324	9	C6H7ClN3+
222.9482	2	C8H6Cl3O+
251.9744	270	C9H9Cl3NO+
280.0059	25	C11H13Cl3NO+
323.9955	287	C12H13Cl3NO3+
