Mass spectrum: PRZ_M477; LC-ESI-QFT; MS2; CE: 20; R=35000; [M+H]+
Name: PRZ_M477
Formula: C18H22Cl2N4O5S
Exact mass: 476.0688
SMILES: CCCN(CCOC1=C(Cl)C=C(O)C(SCC(N)C(O)=O)=C1Cl)C(=O)N1C=CN=C1
InChI: InChI=1S/C18H22Cl2N4O5S/c1-2-4-23(18(28)24-5-3-22-10-24)6-7-29-15-11(19)8-13(25)16(14(15)20)30-9-12(21)17(26)27/h3,5,8,10,12,25H,2,4,6-7,9,21H2,1H3,(H,26,27)
Instrument: Q Exactive Orbitrap Thermo Scientific
Instrument type: LC-ESI-QFT
Ms type: MS2
Ion mode: POSITIVE
Ionization: ESI
Fragmentation mode: HCD
Collision energy: 20 (nominal)
Resolution: 35000
Column name: XBridge C18 3.5 um, 2.1x50 mm, Waters with guard column
Retention time: 9.8 min
Base peak: 391.2845
Precursor m/z: 477.0761
Precursor type: [M+H]+
m/z	relative intensity	assigned
69.0447	7	C3H5N2+
70.0651	32	C4H8N+
72.0808	21	C4H10N+
86.0965	63	C5H12N+
92.11	4	CH18NOS+
104.0528	7	C4H10NS+
120.0807	17	C8H10N+
126.086	4	H10N6O2+
130.0861	4	C6H12NO2+
130.9925	4	C2H8ClO2S+
173.1286	6	C8H17N2O2+
203.1212	24	C9H19N2OS+
215.1388	10	C10H19N2O3+
217.1549	17	C10H21N2O3+
224.1049	4	C9H19ClNO3+
231.1164	24	C10H19N2O2S+
247.1293	7	C7H22ClN3O4+
249.1597	6	C14H21N2O2+
251.1057	5	C12H16ClN4+
261.0907	8	C7H20ClN3O3S+
263.1406	32	C11H22ClN3O2+
293.1497	34	C15H21N2O4+
294.012	42	C18H4N3S+
314.9547	5	C15H5Cl2N2S+
332.1302	5	C16H20N4O2S+
337.0539	999	C13H19Cl2N2O2S+
338.0567	4	C17H11ClN4O2+
381.0446	79	C14H19Cl2N2O4S+
409.0392	36	C15H19Cl2N2O5S+
