Mass spectrum: PRZ_M382; LC-ESI-QFT; MS2; CE: 10; R=35000; [M+H]+
Name: PRZ_M382
Formula: C14H18Cl3N3O3
Exact mass: 381.0414
SMILES: CCCN(CCOC1=C(Cl)C=C(Cl)C=C1Cl)C(=O)N(CO)C=N
InChI: InChI=1S/C14H18Cl3N3O3/c1-2-3-19(14(22)20(8-18)9-21)4-5-23-13-11(16)6-10(15)7-12(13)17/h6-8,18,21H,2-5,9H2,1H3
Instrument: Q Exactive Orbitrap Thermo Scientific
Instrument type: LC-ESI-QFT
Ms type: MS2
Ion mode: POSITIVE
Ionization: ESI
Fragmentation mode: HCD
Collision energy: 10 (nominal)
Resolution: 35000
Column name: XBridge C18 3.5 um, 2.1x50 mm, Waters with guard column
Retention time: 16.6 min
Base peak: 288.2897
Precursor m/z: 382.0487
Precursor type: [M+H]+
m/z	relative intensity	assigned
60.0809	1	C3H10N+
70.0287	3	C3H4NO+
74.0964	5	C4H12N+
88.0757	1	C4H10NO+
222.9472	1	C8H6Cl3O+
239.9738	1	C11H6Cl2O2+
262.1432	1	C13H18N4O2+
265.9527	2	C12H4Cl2O3+
282.0216	10	C11H15Cl3NO+
291.1212	1	C14H17N3O4+
308.0005	232	C12H13Cl3NO2+
313.9909	30	C14H11Cl3NO+
337.027	84	C13H16Cl3N2O2+
355.038	1	C13H18Cl3N2O3+
365.0221	999	C14H16Cl3N2O3+
382.0487	108	C14H19Cl3N3O3+
