Mass spectrum: PRZ; LC-ESI-QFT; MS2; CE: 60; R=35000; [M+H]+
Name: PRZ
Name: Prochloraz
Name: N-propyl-N-[2-(2,4,6-trichlorophenoxy)ethyl]imidazole-1-carboxamide
Formula: C15H16Cl3N3O2
Exact mass: 375.0308
SMILES: CCCN(CCOC1=C(Cl)C=C(Cl)C=C1Cl)C(=O)N1C=CN=C1
InChI: InChI=1S/C15H16Cl3N3O2/c1-2-4-20(15(22)21-5-3-19-10-21)6-7-23-14-12(17)8-11(16)9-13(14)18/h3,5,8-10H,2,4,6-7H2,1H3
Instrument: Q Exactive Orbitrap Thermo Scientific
Instrument type: LC-ESI-QFT
Ms type: MS2
Ion mode: POSITIVE
Ionization: ESI
Fragmentation mode: HCD
Collision energy: 60 (nominal)
Resolution: 35000
Column name: XBridge C18 3.5 um, 2.1x50 mm, Waters with guard column
Retention time: 16.2 min
Base peak: 376.0387
Precursor m/z: 376.0381
Precursor type: [M+H]+
m/z	relative intensity	assigned
53.0028	35	ClH4N+
56.0499	196	
57.0577	20	
67.9893	7	C3O2+
70.0288	999	C3H4NO+
70.0652	775	C4H8N+
71.0367	6	C3H5NO+
72.0444	18	C3H6NO+
78.0088	4	C3N3+
80.0497	3	C5H6N+
82.945	3	CHCl2+
84.0808	7	C5H10N+
85.0886	6	C5H11N+
98.0601	22	C5H8NO+
112.0757	9	C6H10NO+
122.9998	20	C7H4Cl+
125.0152	16	C7H6Cl+
132.9608	86	C5H3Cl2+
138.0109	9	C7H5ClN+
142.9445	4	C6HCl2+
152.0022	5	C8H5ClO+
158.9764	72	C7H5Cl2+
159.9842	18	C7H6Cl2+
160.9556	38	C6H3Cl2O+
161.9635	150	C6H4Cl2O+
166.0054	5	C8H5ClNO+
166.9217	285	C5H2Cl3+
167.0133	15	C8H6ClNO+
173.9875	9	C7H6Cl2N+
174.9714	34	C7H5Cl2O+
179.9294	45	C6H3Cl3+
180.0207	4	C12H4O2+
186.9715	5	C5H8Cl3N+
187.9789	47	C8H6Cl2O+
188.9617	5	C6H3Cl2N2O+
192.9372	4	C7H4Cl3+
194.9167	179	C6H2Cl3O+
196.9321	66	C6H4Cl3O+
196.9391	4	C3HCl2N3O3+
206.9276	16	C6H2Cl3N2+
222.9485	6	C8H6Cl3O+
