Mass spectrum: PRZ_M429; LC-ESI-QFT; MS2; CE: 30; R=35000; [M+H]+
Name: PRZ_M429
Formula: C15H19Cl3N2O4S
Exact mass: 428.0131
SMILES: CCCN(CCOC1=C(Cl)C=C(Cl)C=C1Cl)C(=O)SCC(N)C(O)=O
InChI: InChI=1S/C15H19Cl3N2O4S/c1-2-3-20(15(23)25-8-12(19)14(21)22)4-5-24-13-10(17)6-9(16)7-11(13)18/h6-7,12H,2-5,8,19H2,1H3,(H,21,22)
Instrument: Q Exactive Orbitrap Thermo Scientific
Instrument type: LC-ESI-QFT
Ms type: MS2
Ion mode: POSITIVE
Ionization: ESI
Fragmentation mode: HCD
Collision energy: 30 (nominal)
Resolution: 35000
Column name: XBridge C18 3.5 um, 2.1x50 mm, Waters with guard column
Retention time: 16.6 min
Base peak: 315.171
Precursor m/z: 429.0204
Precursor type: [M+H]+
m/z	relative intensity	assigned
53.0022	2	C3HO+
56.0495	7	C3H6N+
57.0572	2	C3H7N+
58.0652	2	C3H8N+
58.995	4	C2H3S+
60.0444	56	C2H6NO+
60.0808	8	C3H10N+
67.0542	3	C5H7+
69.0698	22	C5H9+
70.0287	586	C3H4NO+
70.0651	318	C4H8N+
71.0855	2	C5H11+
72.0807	2	C4H10N+
74.0599	3	C3H8NO+
76.0214	14	C2H6NS+
79.0541	1	C6H7+
81.0698	12	C6H9+
83.0855	23	C6H11+
84.0808	7	C5H10N+
85.0886	109	C5H11N+
86.0964	14	C5H12N+
88.0392	22	C3H6NO2+
91.0573	1	C4H11S+
93.0698	7	C7H9+
95.0855	20	C7H11+
97.0648	3	C6H9O+
97.1012	11	C7H13+
98.06	10	C5H8NO+
98.9841	22	CH4ClO3+
99.0805	3	C6H11O+
101.0594	3	C5H9O2+
105.0699	8	C8H9+
106.0419	6	C4H9ClN+
107.0854	12	C8H11+
109.1012	22	C8H13+
111.044	3	C6H7O2+
111.0803	3	C7H11O+
111.117	2	C8H15+
113.0835	11	C6H11NO+
113.0961	15	C7H13O+
119.0856	3	C9H11+
120.0113	2	C3H6NO2S+
121.1012	10	C9H13+
123.0802	2	C8H11O+
123.1166	7	C9H15+
125.0961	3	C8H13O+
127.1118	4	C8H15O+
129.0545	10	C6H9O3+
131.0853	2	C10H11+
133.1011	3	C10H13+
135.0807	1	C6H14ClN+
135.1168	8	C10H15+
137.1325	2	C10H17+
139.0752	1	C8H11O2+
145.0556	7	C6H11NOS+
145.1013	7	C11H13+
146.0634	9	C6H12NOS+
147.0652	4	C6H11O4+
147.1168	8	C11H15+
149.1326	8	C11H17+
151.0749	2	CH15N2O4S+
151.112	4	C7H18ClN+
157.1009	2	C12H13+
159.1168	8	C12H15+
161.0965	2	C8H16ClN+
161.1323	14	C12H17+
163.1478	3	C12H19+
166.0054	8	C8H5ClNO+
167.0132	4	C8H6ClNO+
173.0961	2	C12H13O+
173.1326	3	C13H17+
173.9869	4	C7H6Cl2N+
174.971	37	C7H5Cl2O+
175.1116	2	C12H15O+
175.148	3	C13H19+
179.1067	2	C11H15O2+
187.1482	8	C14H19+
194.9165	32	C6H2Cl3O+
194.9524	2	C7H6Cl3+
197.1167	2	C11H17O3+
197.1321	2	C15H17+
199.1478	1	C15H19+
201.9819	92	C8H6Cl2NO+
208.0525	7	C11H11ClNO+
209.0604	7	C11H12ClNO+
215.1277	22	C11H19O4+
215.9977	2	C9H8Cl2NO+
219.9929	3	C5H11Cl3N2O+
222.9478	92	C8H6Cl3O+
237.9587	48	C8H7Cl3NO+
239.9744	168	C8H9Cl3NO+
244.029	106	C11H12Cl2NO+
245.0369	39	C11H13Cl2NO+
255.8642	5	C2HCl3NO5S+
265.9536	269	C9H7Cl3NO2+
280.0057	136	C11H13Cl3NO+
282.0213	93	C11H15Cl3NO+
283.9641	49	C9H9Cl3NO3+
308.0005	999	C12H13Cl3NO2+
309.004	2	C13H16Cl3S+
369.9465	2	C12H11Cl3NO4S+
383.0149	11	C14H18Cl3N2O2S+
411.9938	57	C15H17Cl3NO4S+
