Mass spectrum: PRZ_M323a; LC-ESI-QFT; MS2; CE: 50; R=35000; [M+H]+
Name: PRZ_M323a
Formula: C12H12Cl3NO3
Exact mass: 322.9883
SMILES: CC(=O)CN(CCOC1=C(Cl)C=C(Cl)C=C1Cl)C=O
InChI: InChI=1S/C12H12Cl3NO3/c1-8(18)6-16(7-17)2-3-19-12-10(14)4-9(13)5-11(12)15/h4-5,7H,2-3,6H2,1H3
Instrument: Q Exactive Orbitrap Thermo Scientific
Instrument type: LC-ESI-QFT
Ms type: MS2
Ion mode: POSITIVE
Ionization: ESI
Fragmentation mode: HCD
Collision energy: 50 (nominal)
Resolution: 35000
Column name: XBridge C18 3.5 um, 2.1x50 mm, Waters with guard column
Retention time: 15.8 min
Base peak: 213.1848
Precursor m/z: 323.9956
Precursor type: [M+H]+
m/z	relative intensity	assigned
53.0021	2	C3HO+
55.0542	3	C4H7+
56.0495	534	C3H6N+
57.0573	38	C3H7N+
57.0699	3	C4H9+
67.0542	20	C5H7+
69.0699	4	C5H9+
70.0651	124	C4H8N+
78.0105	4	C2H5ClN+
79.0542	3	C6H7+
81.0698	4	C6H9+
83.0855	3	C6H11+
84.0808	121	C5H10N+
85.0886	17	C5H11N+
93.0699	9	C7H9+
95.0855	10	C7H11+
100.0393	999	C4H6NO2+
107.0855	4	C8H11+
109.1012	2	C8H13+
114.055	23	C5H8NO2+
128.0706	256	C6H10NO2+
129.0783	15	C6H11NO2+
138.0219	3	C9H2N2+
158.9761	2	C7H5Cl2+
179.9294	2	C6H3Cl3+
194.9168	2	C6H2Cl3O+
196.9321	8	C6H4Cl3O+
222.9478	28	C8H6Cl3O+
251.9744	62	C9H9Cl3NO+
