Mass spectrum: PRZ_M477; LC-ESI-QFT; MS2; CE: 30; R=35000; [M+H]+
Name: PRZ_M477
Formula: C18H22Cl2N4O5S
Exact mass: 476.0688
SMILES: CCCN(CCOC1=C(Cl)C=C(O)C(SCC(N)C(O)=O)=C1Cl)C(=O)N1C=CN=C1
InChI: InChI=1S/C18H22Cl2N4O5S/c1-2-4-23(18(28)24-5-3-22-10-24)6-7-29-15-11(19)8-13(25)16(14(15)20)30-9-12(21)17(26)27/h3,5,8,10,12,25H,2,4,6-7,9,21H2,1H3,(H,26,27)
Instrument: Q Exactive Orbitrap Thermo Scientific
Instrument type: LC-ESI-QFT
Ms type: MS2
Ion mode: POSITIVE
Ionization: ESI
Fragmentation mode: HCD
Collision energy: 30 (nominal)
Resolution: 35000
Column name: XBridge C18 3.5 um, 2.1x50 mm, Waters with guard column
Retention time: 9.8 min
Base peak: 391.2845
Precursor m/z: 477.0761
Precursor type: [M+H]+
m/z	relative intensity	assigned
69.0447	12	C3H5N2+
70.0652	126	C4H8N+
72.0807	150	C4H10N+
74.0599	15	C3H8NO+
84.0445	22	C4H6NO+
84.0808	18	C5H10N+
86.0964	388	C5H12N+
104.0529	70	C4H10NS+
110.0713	16	C5H8N3+
112.0755	11	C6H10NO+
120.0808	61	C8H10N+
129.102	41	C6H13N2O+
130.0501	13	C5H8NO3+
130.0863	74	C6H12NO2+
146.1176	19	C7H16NO2+
158.0998	14	C8H16NS+
169.1337	12	C9H17N2O+
187.1441	56	C9H19N2O2+
203.1215	68	C9H19N2OS+
214.1192	10	C6H19ClN4O2+
215.1397	10	C7H22ClN3O2+
233.0957	17	C6H20ClN3O2S+
234.9382	48	C8H5Cl2O2S+
243.0818	11	C9H20ClO3S+
258.0346	18	C14H10O3S+
261.09	12	C13H14ClN4+
263.1395	10	C11H22ClN3O2+
264.055	14	C14H13ClO3+
293.1492	14	C15H21N2O4+
294.0118	729	C11H14Cl2NO2S+
303.1291	10	C17H21NO2S+
320.0282	43	C13H16Cl2NO2S+
326.1705	11	C13H22N6O4+
337.0539	999	C13H19Cl2N2O2S+
369.0282	10	C15H13Cl2N3O4+
