Mass spectrum: PRZ_M353; LC-ESI-QFT; MS2; CE: 50; R=35000; [M+H]+
Name: PRZ_M353
Name: MolPort-035-395-264
Name: N-[propyl-[2-(2,4,6-trichlorophenoxy)ethyl]carbamoyl]formamide
Formula: C13H15Cl3N2O3
Exact mass: 352.0148
SMILES: CCCN(CCOC1=C(Cl)C=C(Cl)C=C1Cl)C(=O)NC=O
InChI: InChI=1S/C13H15Cl3N2O3/c1-2-3-18(13(20)17-8-19)4-5-21-12-10(15)6-9(14)7-11(12)16/h6-8H,2-5H2,1H3,(H,17,19,20)
Instrument: Q Exactive Orbitrap Thermo Scientific
Instrument type: LC-ESI-QFT
Ms type: MS2
Ion mode: POSITIVE
Ionization: ESI
Fragmentation mode: HCD
Collision energy: 50 (nominal)
Resolution: 35000
Column name: XBridge C18 3.5 um, 2.1x50 mm, Waters with guard column
Retention time: 16.9 min
Base peak: 430.8881
Precursor m/z: 353.0221
Precursor type: [M+H]+
m/z	relative intensity	assigned
53.0022	16	C3HO+
55.0543	5	C4H7+
56.0495	85	C3H6N+
57.0573	23	C3H7N+
57.0699	3	C4H9+
60.0444	36	C2H6NO+
67.0543	11	C5H7+
69.0699	11	C5H9+
70.0287	999	C3H4NO+
70.0651	874	C4H8N+
72.0444	16	C3H6NO+
74.9994	3	C3H4Cl+
79.0542	4	C6H7+
81.0698	11	C6H9+
83.0855	5	C6H11+
84.0807	4	C5H10N+
85.0886	62	C5H11N+
86.0966	3	C5H12N+
88.0393	3	C3H6NO2+
91.0542	10	C7H7+
93.0699	12	C7H9+
95.0856	14	C7H11+
98.0601	37	C5H8NO+
98.984	22	CH4ClO3+
105.0699	40	C8H9+
106.0419	3	C4H9ClN+
107.0855	12	C8H11+
109.1012	2	C8H13+
112.0755	4	C6H10NO+
113.0834	6	C6H11NO+
119.0491	5	C8H7O+
121.0649	3	C8H9O+
121.101	4	C9H13+
125.9633	3	C3H4Cl2O+
129.0697	5	C10H9+
129.1024	4	C6H13N2O+
131.0856	11	C10H11+
133.1014	5	C10H13+
135.0439	6	C8H7O2+
138.0105	15	C7H5ClN+
140.0375	4	C9H4N2+
142.0777	23	C11H10+
157.1011	24	C12H13+
158.9762	35	C7H5Cl2+
159.9842	12	C7H6Cl2+
161.9632	18	C6H4Cl2O+
166.0054	20	C8H5ClNO+
166.9216	29	C5H2Cl3+
167.013	24	C8H6ClNO+
173.9871	33	C7H6Cl2N+
174.9712	49	C7H5Cl2O+
179.9294	18	C6H3Cl3+
180.0204	4	C12H4O2+
186.9711	6	C8H5Cl2O+
187.9787	22	C8H6Cl2O+
194.9166	159	C6H2Cl3O+
194.9529	14	C7H6Cl3+
196.9321	53	C6H4Cl3O+
201.9817	49	C11H3ClO2+
202.9896	3	C11H4ClO2+
204.9369	3	C8H4Cl3+
205.0242	2	C9H5N2O4+
206.9285	2	C6H2Cl3N2+
209.0599	5	C11H12ClNO+
215.9976	11	C9H8Cl2NO+
222.9479	112	C8H6Cl3O+
237.9588	4	C8H7Cl3NO+
244.0292	4	C11H12Cl2NO+
245.0373	17	C8H16Cl3N2+
280.005	4	C11H13Cl3NO+
308	5	C12H13Cl3NO2+
