Mass spectrum: PRZ_M573; LC-ESI-QFT; MS2; CE: 30; R=35000; [M+H]+
Name: PRZ_M573
Formula: C19H23Cl3N4O8S
Exact mass: 572.0302
SMILES: [H]N([H])[C@@H](CCC(=O)N([H])[C@@H](CSC(=O)NCCOC1=C(Cl)C=C(Cl)C=C1Cl)C(=O)N([H])CC(O)=O)C(O)=O
InChI: InChI=1S/C19H23Cl3N4O8S/c20-9-5-10(21)16(11(22)6-9)34-4-3-24-19(33)35-8-13(17(30)25-7-15(28)29)26-14(27)2-1-12(23)18(31)32/h5-6,12-13H,1-4,7-8,23H2,(H,24,33)(H,25,30)(H,26,27)(H,28,29)(H,31,32)/t12-,13-/m0/s1
Instrument: Q Exactive Orbitrap Thermo Scientific
Instrument type: LC-ESI-QFT
Ms type: MS2
Ion mode: POSITIVE
Ionization: ESI
Fragmentation mode: HCD
Collision energy: 30 (nominal)
Resolution: 35000
Column name: XBridge C18 3.5 um, 2.1x50 mm, Waters with guard column
Retention time: 13.8 min
Base peak: 199.1691
Precursor m/z: 573.0375
Precursor type: [M+H]+
m/z	relative intensity	assigned
70.0651	402	C4H8N+
72.0807	249	C4H10N+
76.0215	999	C2H6NS+
84.081	62	C5H10N+
86.0964	786	C5H12N+
116.0161	63	C4H6NOS+
120.0809	135	C8H10N+
130.0498	69	C5H8NO3+
144.0114	145	C5H6NO2S+
162.0218	727	C5H8NO3S+
179.0485	642	C5H11N2O3S+
187.1077	320	C8H15N2O3+
187.1446	66	C6H22ClN3O+
199.1688	215	C7H24ClN4+
215.1391	88	C10H19N2O3+
219.1747	283	C15H23O+
227.1747	83	C12H23N2O2+
297.1552	61	C13H21N4O4+
340.9678	357	C11H12Cl3N2O2S+
368.8749	63	C6H4Cl3N2O8S+
