Mass spectrum: PRZ_M282; LC-ESI-QFT; MS2; CE: 30; R=35000; [M+H]+
Name: PRZ_M282
Name: N-[2-(2,4,6-trichlorophenoxy)ethyl]propan-1-amine
Formula: C11H14Cl3NO
Exact mass: 281.0141
SMILES: CCCNCCOC1=C(Cl)C=C(Cl)C=C1Cl
InChI: InChI=1S/C11H14Cl3NO/c1-2-3-15-4-5-16-11-9(13)6-8(12)7-10(11)14/h6-7,15H,2-5H2,1H3
Instrument: Q Exactive Orbitrap Thermo Scientific
Instrument type: LC-ESI-QFT
Ms type: MS2
Ion mode: POSITIVE
Ionization: ESI
Fragmentation mode: HCD
Collision energy: 30 (nominal)
Resolution: 35000
Column name: XBridge C18 3.5 um, 2.1x50 mm, Waters with guard column
Retention time: 13.1 min
Base peak: 199.1689
Precursor m/z: 282.0214
Precursor type: [M+H]+
m/z	relative intensity	assigned
58.0651	80	C3H8N+
59.0728	1	C3H9N+
72.0807	123	C4H10N+
86.0964	481	C5H12N+
87.1042	5	C5H13N+
112.0753	1	C6H10NO+
132.0085	1	C4H5ClN2O+
186.9717	1	C5H8Cl3N+
188.9865	1	C8H7Cl2O+
194.9169	1	C6H2Cl3O+
222.9476	23	C8H6Cl3O+
239.9744	20	C8H9Cl3NO+
246.0447	5	C11H14Cl2NO+
282.0212	999	C11H15Cl3NO+
