Mass spectrum: PRZ_M325; LC-ESI-QFT; MS2; CE: 40; R=35000; [M+H]+
Name: PRZ_M325
Name: Urea, N-propyl-N-[2-(2,4,6-trichlorophenoxy)ethyl]-
Name: 1-propyl-1-[2-(2,4,6-trichlorophenoxy)ethyl]urea
Formula: C12H15Cl3N2O2
Exact mass: 324.0199
SMILES: CCCN(CCOC1=C(Cl)C=C(Cl)C=C1Cl)C(N)=O
InChI: InChI=1S/C12H15Cl3N2O2/c1-2-3-17(12(16)18)4-5-19-11-9(14)6-8(13)7-10(11)15/h6-7H,2-5H2,1H3,(H2,16,18)
Instrument: Q Exactive Orbitrap Thermo Scientific
Instrument type: LC-ESI-QFT
Ms type: MS2
Ion mode: POSITIVE
Ionization: ESI
Fragmentation mode: HCD
Collision energy: 40 (nominal)
Resolution: 35000
Column name: XBridge C18 3.5 um, 2.1x50 mm, Waters with guard column
Retention time: 17.2 min
Base peak: 277.1798
Precursor m/z: 325.0272
Precursor type: [M+H]+
m/z	relative intensity	assigned
53.0026	4	ClH4N+
57.0339	3	ClH8N+
58.0655	101	
67.0544	63	C5H7+
69.07	146	C5H9+
70.0288	68	C3H4NO+
70.0652	29	C4H8N+
71.0492	29	C4H7O+
71.0856	53	C5H11+
72.0808	127	C4H10N+
79.0542	38	C6H7+
81.0699	102	C6H9+
82.1342	5	C2H16N3+
83.0493	21	C5H7O+
83.0856	111	C6H11+
85.0285	8	C4H5O2+
85.0649	10	C5H9O+
85.0887	7	C5H11N+
85.1013	21	C6H13+
86.0965	999	C5H12N+
87.0554	152	C3H7N2O+
91.0543	24	C7H7+
93.07	64	C7H9+
95.0492	19	C6H7O+
95.0856	106	C7H11+
97.0648	40	C6H9O+
97.1013	64	C7H13+
98.9843	6	CH4ClO3+
99.0441	6	C5H7O2+
99.0805	20	C6H11O+
101.0598	7	C5H9O2+
101.0711	32	C4H9N2O+
105.07	98	C8H9+
107.0857	74	C8H11+
109.0649	39	C7H9O+
109.1013	74	C8H13+
111.0442	21	C6H7O2+
111.0804	11	C7H11O+
111.1169	19	C8H15+
113.0596	5	C6H9O2+
117.07	4	C9H9+
119.0493	70	C8H7O+
119.0856	45	C9H11+
121.1011	81	C9H13+
123.0441	6	C7H7O2+
123.0806	69	C8H11O+
123.1167	34	C9H15+
125.0961	9	C8H13O+
129.1023	873	C6H13N2O+
131.0856	18	C10H11+
133.1011	33	C10H13+
134.0966	4	C9H12N+
135.0442	5	C8H7O2+
135.0807	10	C6H14ClN+
135.1168	46	C10H15+
137.0598	18	C8H9O2+
137.0962	19	C9H13O+
139.0755	7	C8H11O2+
139.1113	16	C9H15O+
141.0695	5	C11H9+
141.0912	5	C8H13O2+
143.0858	38	C11H11+
145.1013	20	C11H13+
147.1171	20	C11H15+
149.0963	18	C10H13O+
151.0388	5	C5H10ClNO2+
151.112	8	C10H15O+
153.0547	6	C5H12ClNO2+
153.0913	6	C6H16ClNO+
157.1017	5	C12H13+
159.117	24	C12H15+
161.0962	34	C11H13O+
163.0757	6	C7H14ClNO+
163.1118	24	C11H15O+
165.091	7	C10H13O2+
167.0705	5	C6H14ClNO2+
169.0861	19	C6H16ClNO2+
175.1123	5	C12H15O+
195.065	8	C5H12ClN4O2+
201.9833	5	C5H9Cl3N2+
203.1051	6	C11H13N3O+
219.1018	6	C8H16ClN4O+
222.9482	28	C8H6Cl3O+
239.9744	37	C8H9Cl3NO+
282.0214	753	C11H15Cl3NO+
308.0015	10	C12H13Cl3NO2+
