Mass spectrum: PRZ_M392b; LC-ESI-QFT; MS2; CE: 60; R=35000; [M+H]+
Name: PRZ_M392b
Formula: C15H16Cl3N3O3
Exact mass: 391.0257
SMILES: CCCN(CCOC1=C(Cl)C=C(Cl)C=C1Cl)C(=O)N1C=NC=C1O
InChI: InChI=1S/C15H16Cl3N3O3/c1-2-3-20(15(23)21-9-19-8-13(21)22)4-5-24-14-11(17)6-10(16)7-12(14)18/h6-9,22H,2-5H2,1H3
Instrument: Q Exactive Orbitrap Thermo Scientific
Instrument type: LC-ESI-QFT
Ms type: MS2
Ion mode: POSITIVE
Ionization: ESI
Fragmentation mode: HCD
Collision energy: 60 (nominal)
Resolution: 35000
Column name: XBridge C18 3.5 um, 2.1x50 mm, Waters with guard column
Retention time: 15.4 min
Base peak: 311.1852
Precursor m/z: 392.033
Precursor type: [M+H]+
m/z	relative intensity	assigned
53.0027	26	ClH4N+
55.0184	2	ClH6N+
59.0495	3	ClH10N+
65.0388	78	C5H5+
66.0421	14	H6N2O2+
67.0543	18	C5H7+
69.0699	15	C5H9+
70.0288	507	C3H4NO+
70.0652	359	C4H8N+
71.0492	4	C4H7O+
71.0856	43	C5H11+
72.0444	6	C3H6NO+
72.089	11	H12N2O2+
79.0542	20	C6H7+
81.0699	21	C6H9+
83.0492	3	C5H7O+
83.0855	5	C6H11+
84.0807	3	C5H10N+
91.0543	14	C7H7+
93.0335	35	C6H5O+
93.0699	5	C7H9+
95.0492	3	C6H7O+
95.0856	16	C7H11+
97.0649	4	C6H9O+
98.06	16	C5H8NO+
105.0699	4	C8H9+
109.0648	3	C7H9O+
109.101	5	C8H13+
111.0441	30	C6H7O2+
111.0805	3	C7H11O+
112.0474	3	CH8N2O4+
112.0755	5	C6H10NO+
119.0858	3	C9H11+
121.0284	276	C7H5O2+
121.0397	61	C6H5N2O+
122.0317	91	C2H6N2O4+
122.0429	7	CH6N4O3+
122.9997	7	C7H4Cl+
123.0804	4	C8H11O+
125.0153	17	C7H6Cl+
132.9607	45	C5H3Cl2+
133.101	3	C10H13+
149.0235	999	C8H5O3+
152.0027	3	C5H8Cl2N+
158.9764	32	C7H5Cl2+
159.9841	19	C7H6Cl2+
160.9557	27	C6H3Cl2O+
161.9634	80	C6H4Cl2O+
166.9217	124	C5H2Cl3+
173.9876	5	C7H6Cl2N+
174.9713	15	C7H5Cl2O+
179.9293	33	C6H3Cl3+
180.0214	3	C6H10Cl2N2+
181.0494	5	C6H12ClNO3+
187.9792	14	C8H6Cl2O+
192.9371	4	C7H4Cl3+
194.9167	81	C6H2Cl3O+
196.9321	33	C6H4Cl3O+
200.0605	3	C7H16Cl2NO+
202.99	2	C8H7Cl2NO+
203.0449	3	C10H7N2O3+
206.9275	5	C6H2Cl3N2+
276.9904	2	C7H12Cl3N2O3+
