Mass spectrum: PRZ_M632a; LC-ESI-QFT; MS2; CE: 20; R=35000; [M-H]-
Name: PRZ_M632a
Formula: C21H26Cl3N3O11S
Exact mass: 633.0354
SMILES: CCCN(CCOC1=C(Cl)C(OC2O[C@H](COS(O)(=O)=O)[C@@H](O)[C@H](O)[C@H]2O)=C(Cl)C=C1Cl)C(=O)N1C=CN=C1
InChI: InChI=1S/C21H26Cl3N3O11S/c1-2-4-26(21(31)27-5-3-25-10-27)6-7-35-18-11(22)8-12(23)19(14(18)24)38-20-17(30)16(29)15(28)13(37-20)9-36-39(32,33)34/h3,5,8,10,13,15-17,20,28-30H,2,4,6-7,9H2,1H3,(H,32,33,34)/t13-,15-,16+,17-,20?/m1/s1
Instrument: Q Exactive Orbitrap Thermo Scientific
Instrument type: LC-ESI-QFT
Ms type: MS2
Ion mode: NEGATIVE
Ionization: ESI
Fragmentation mode: HCD
Collision energy: 20 (nominal)
Resolution: 35000
Column name: XBridge C18 3.5 um, 2.1x50 mm, Waters with guard column
Retention time: 10.4 min
Base peak: 194.0624
Precursor m/z: 632.0281
Precursor type: [M-H]-
m/z	relative intensity	assigned
96.9602	68	HO4S-
241.0031	999	Cl2H15N2O6S-
