Mass spectrum: PRZ_M298; LC-ESI-QFT; MS2; CE: 70; R=35000; [M+H]+
Name: PRZ_M298
Formula: C11H14Cl3NO2
Exact mass: 297.0090
SMILES: CC(O)CNCCOC1=C(Cl)C=C(Cl)C=C1Cl
InChI: InChI=1S/C11H14Cl3NO2/c1-7(16)6-15-2-3-17-11-9(13)4-8(12)5-10(11)14/h4-5,7,15-16H,2-3,6H2,1H3
Instrument: Q Exactive Orbitrap Thermo Scientific
Instrument type: LC-ESI-QFT
Ms type: MS2
Ion mode: POSITIVE
Ionization: ESI
Fragmentation mode: HCD
Collision energy: 70 (nominal)
Resolution: 35000
Column name: XBridge C18 3.5 um, 2.1x50 mm, Waters with guard column
Retention time: 12.8 min
Base peak: 215.1641
Precursor m/z: 298.0163
Precursor type: [M+H]+
m/z	relative intensity	assigned
53.0022	17	C3HO+
53.0386	2	C4H5+
55.0179	2	C3H3O+
55.0542	37	C4H7+
56.0495	428	C3H6N+
57.0573	30	C3H7N+
57.0699	37	C4H9+
58.0651	16	C3H8N+
59.0492	23	C3H7O+
60.0808	2	C3H10N+
65.0385	4	C5H5+
67.0542	65	C5H7+
69.0333	2	C4H5O+
69.0698	42	C5H9+
70.0651	999	C4H8N+
71.0855	4	C5H11+
73.0644	2	C4H9O+
79.0542	33	C6H7+
81.0699	45	C6H9+
83.0492	6	C5H7O+
83.0856	9	C6H11+
84.0808	51	C5H10N+
85.0284	23	C4H5O2+
85.0886	37	C5H11N+
85.1012	15	C6H13+
86.0965	4	C5H12N+
87.0441	4	C4H7O2+
91.0542	25	C7H7+
92.0576	12	C2H8N2O2+
93.0698	22	C7H9+
95.0491	15	C6H7O+
95.0855	21	C7H11+
105.0699	10	C8H9+
106.0733	4	C3H10N2O2+
108.0888	4	C3H12N2O2+
109.0647	3	C7H9O+
109.1013	2	C8H13+
113.0961	3	C7H13O+
117.0696	3	C9H9+
119.073	2	C8H9N+
120.0808	2	C8H10N+
125.0151	10	C7H6Cl+
131.0853	3	C10H11+
132.9606	15	C5H3Cl2+
133.1012	3	C10H13+
158.9762	14	C7H5Cl2+
160.9553	3	C6H3Cl2O+
161.9635	27	C6H4Cl2O+
166.9217	16	C5H2Cl3+
179.9294	9	C6H3Cl3+
187.9789	15	C8H6Cl2O+
194.9167	13	C6H2Cl3O+
196.9321	11	C6H4Cl3O+
