Mass spectrum: PRZ_M392b; LC-ESI-QFT; MS2; CE: 20; R=35000; [M+H]+
Name: PRZ_M392b
Formula: C15H16Cl3N3O3
Exact mass: 391.0257
SMILES: CCCN(CCOC1=C(Cl)C=C(Cl)C=C1Cl)C(=O)N1C=NC=C1O
InChI: InChI=1S/C15H16Cl3N3O3/c1-2-3-20(15(23)21-9-19-8-13(21)22)4-5-24-14-11(17)6-10(16)7-12(14)18/h6-9,22H,2-5H2,1H3
Instrument: Q Exactive Orbitrap Thermo Scientific
Instrument type: LC-ESI-QFT
Ms type: MS2
Ion mode: POSITIVE
Ionization: ESI
Fragmentation mode: HCD
Collision energy: 20 (nominal)
Resolution: 35000
Column name: XBridge C18 3.5 um, 2.1x50 mm, Waters with guard column
Retention time: 15.4 min
Base peak: 311.1852
Precursor m/z: 392.033
Precursor type: [M+H]+
m/z	relative intensity	assigned
70.0287	85	C3H4NO+
70.0651	22	C4H8N+
71.0855	70	C5H11+
81.0699	1	C6H9+
83.0855	1	C6H11+
85.0886	10	C5H11N+
97.0649	3	C6H9O+
99.044	1	C5H7O2+
113.0596	5	C6H9O2+
113.1324	5	C8H17+
115.0753	4	C6H11O2+
149.0234	305	C8H5O3+
167.0339	103	C5H10ClNO3+
174.9711	1	C7H5Cl2O+
194.9164	3	C6H2Cl3O+
201.9819	7	C8H6Cl2NO+
209.0605	1	C8H15Cl2N2+
222.9478	11	C8H6Cl3O+
237.9586	1	C8H7Cl3NO+
239.9743	86	C8H9Cl3NO+
244.0291	17	C11H12Cl2NO+
245.0367	3	C11H13Cl2NO+
265.9536	159	C9H7Cl3NO2+
280.0057	41	C11H13Cl3NO+
282.0217	1	C11H15Cl3NO+
283.9644	23	C9H9Cl3NO3+
297.9794	1	C10H11Cl3NO3+
308.0005	999	C12H13Cl3NO2+
392.0339	1	C15H17Cl3N3O3+
