Mass spectrum: PRZ_M573; LC-ESI-QFT; MS2; CE: 20; R=35000; [M+H]+
Name: PRZ_M573
Formula: C19H23Cl3N4O8S
Exact mass: 572.0302
SMILES: [H]N([H])[C@@H](CCC(=O)N([H])[C@@H](CSC(=O)NCCOC1=C(Cl)C=C(Cl)C=C1Cl)C(=O)N([H])CC(O)=O)C(O)=O
InChI: InChI=1S/C19H23Cl3N4O8S/c20-9-5-10(21)16(11(22)6-9)34-4-3-24-19(33)35-8-13(17(30)25-7-15(28)29)26-14(27)2-1-12(23)18(31)32/h5-6,12-13H,1-4,7-8,23H2,(H,24,33)(H,25,30)(H,26,27)(H,28,29)(H,31,32)/t12-,13-/m0/s1
Instrument: Q Exactive Orbitrap Thermo Scientific
Instrument type: LC-ESI-QFT
Ms type: MS2
Ion mode: POSITIVE
Ionization: ESI
Fragmentation mode: HCD
Collision energy: 20 (nominal)
Resolution: 35000
Column name: XBridge C18 3.5 um, 2.1x50 mm, Waters with guard column
Retention time: 13.8 min
Base peak: 199.1691
Precursor m/z: 573.0375
Precursor type: [M+H]+
m/z	relative intensity	assigned
70.0652	85	C4H8N+
72.0807	201	C4H10N+
76.0215	245	C2H6NS+
86.0964	200	C5H12N+
95.0857	53	C7H11+
116.0703	68	C5H10NO2+
162.0218	301	C5H8NO3S+
179.0485	999	C5H11N2O3S+
187.1074	203	C8H15N2O3+
199.1693	88	C12H23O2+
201.1229	71	CH21N4O5S+
215.1396	42	C7H22ClN3O2+
229.1542	152	C11H21N2O3+
239.9746	86	C8H9Cl3NO+
243.9067	45	C4HClO8S+
340.9682	655	C11H4ClN3O8+
352.9959	46	C17H6ClN2O5+
425.9809	48	C17H11Cl3N3O4+
443.9949	685	C14H17Cl3N3O5S+
