Mass spectrum: PRZ_M323b; LC-ESI-QFT; MS2; CE: 30; R=35000; [M+H]+
Name: PRZ_M323b
Formula: C12H12Cl3NO3
Exact mass: 322.9883
SMILES: CC(=O)CN(CCOC1=C(Cl)C=C(Cl)C=C1Cl)C=O
InChI: InChI=1S/C12H12Cl3NO3/c1-8(18)6-16(7-17)2-3-19-12-10(14)4-9(13)5-11(12)15/h4-5,7H,2-3,6H2,1H3
Instrument: Q Exactive Orbitrap Thermo Scientific
Instrument type: LC-ESI-QFT
Ms type: MS2
Ion mode: POSITIVE
Ionization: ESI
Fragmentation mode: HCD
Collision energy: 30 (nominal)
Resolution: 35000
Column name: XBridge C18 3.5 um, 2.1x50 mm, Waters with guard column
Retention time: 16.1 min
Base peak: 174.1279
Precursor m/z: 323.9956
Precursor type: [M+H]+
m/z	relative intensity	assigned
53.0022	2	C3HO+
56.0495	95	C3H6N+
57.0573	3	C3H7N+
57.0699	13	C4H9+
58.0652	2	C3H8N+
59.0491	44	C3H7O+
67.0542	34	C5H7+
70.0651	286	C4H8N+
71.0856	2	C5H11+
81.0698	1	C6H9+
82.0652	7	C5H8N+
83.0855	3	C6H11+
84.0808	999	C5H10N+
85.0886	272	C5H11N+
95.0854	1	C7H11+
100.0392	13	C4H6NO2+
117.091	6	C6H13O2+
128.0707	658	C6H10NO2+
187.9787	3	C8H6Cl2O+
222.9478	18	C8H6Cl3O+
251.9752	2	C9H9Cl3NO+
280.0058	643	C11H13Cl3NO+
323.9956	105	C12H13Cl3NO3+
