Mass spectrum: PRZ_M353; LC-ESI-QFT; MS2; CE: 20; R=35000; [M+H]+
Name: PRZ_M353
Name: MolPort-035-395-264
Name: N-[propyl-[2-(2,4,6-trichlorophenoxy)ethyl]carbamoyl]formamide
Formula: C13H15Cl3N2O3
Exact mass: 352.0148
SMILES: CCCN(CCOC1=C(Cl)C=C(Cl)C=C1Cl)C(=O)NC=O
InChI: InChI=1S/C13H15Cl3N2O3/c1-2-3-18(13(20)17-8-19)4-5-21-12-10(15)6-9(14)7-11(12)16/h6-8H,2-5H2,1H3,(H,17,19,20)
Instrument: Q Exactive Orbitrap Thermo Scientific
Instrument type: LC-ESI-QFT
Ms type: MS2
Ion mode: POSITIVE
Ionization: ESI
Fragmentation mode: HCD
Collision energy: 20 (nominal)
Resolution: 35000
Column name: XBridge C18 3.5 um, 2.1x50 mm, Waters with guard column
Retention time: 16.9 min
Base peak: 430.8881
Precursor m/z: 353.0221
Precursor type: [M+H]+
m/z	relative intensity	assigned
60.0444	1	C2H6NO+
70.0287	47	C3H4NO+
70.065	13	C4H8N+
85.0885	5	C5H11N+
98.9841	2	CH4ClO3+
105.0698	6	C8H9+
129.1021	1	C6H13N2O+
140.0375	1	C9H4N2+
157.1019	8	C12H13+
174.9713	1	C7H5Cl2O+
194.9163	2	C6H2Cl3O+
201.982	5	C8H6Cl2NO+
222.9481	7	C8H6Cl3O+
237.9588	2	C8H7Cl3NO+
239.9744	47	C8H9Cl3NO+
244.0291	12	C11H12Cl2NO+
245.0368	3	C11H13Cl2NO+
265.9536	120	C9H7Cl3NO2+
280.0056	28	C11H13Cl3NO+
282.0211	5	C11H15Cl3NO+
283.9642	14	C9H9Cl3NO3+
297.9798	1	C10H11Cl3NO3+
308.0005	999	C12H13Cl3NO2+
309.0035	1	C7H14Cl3N3O4+
353.022	66	C13H16Cl3N2O3+
