Mass spectrum: PRZ_M323a; LC-ESI-QFT; MS2; CE: 70; R=35000; [M+H]+
Name: PRZ_M323a
Formula: C12H12Cl3NO3
Exact mass: 322.9883
SMILES: CC(=O)CN(CCOC1=C(Cl)C=C(Cl)C=C1Cl)C=O
InChI: InChI=1S/C12H12Cl3NO3/c1-8(18)6-16(7-17)2-3-19-12-10(14)4-9(13)5-11(12)15/h4-5,7H,2-3,6H2,1H3
Instrument: Q Exactive Orbitrap Thermo Scientific
Instrument type: LC-ESI-QFT
Ms type: MS2
Ion mode: POSITIVE
Ionization: ESI
Fragmentation mode: HCD
Collision energy: 70 (nominal)
Resolution: 35000
Column name: XBridge C18 3.5 um, 2.1x50 mm, Waters with guard column
Retention time: 15.8 min
Base peak: 213.1848
Precursor m/z: 323.9956
Precursor type: [M+H]+
m/z	relative intensity	assigned
53.0022	15	C3HO+
55.0542	15	C4H7+
56.0495	999	C3H6N+
57.0573	73	C3H7N+
67.0542	20	C5H7+
69.0699	4	C5H9+
70.0651	250	C4H8N+
78.0105	3	C2H5ClN+
79.0543	13	C6H7+
81.0698	14	C6H9+
84.0808	87	C5H10N+
95.0856	12	C7H11+
100.0393	510	C4H6NO2+
114.055	25	C5H8NO2+
128.0707	58	C6H10NO2+
158.9766	18	C7H5Cl2+
179.9291	6	C6H3Cl3+
194.9164	6	C6H2Cl3O+
196.9324	19	C6H4Cl3O+
