Mass spectrum: PRZ_M298; LC-ESI-QFT; MS2; CE: 20; R=35000; [M+H]+
Name: PRZ_M298
Formula: C11H14Cl3NO2
Exact mass: 297.0090
SMILES: CC(O)CNCCOC1=C(Cl)C=C(Cl)C=C1Cl
InChI: InChI=1S/C11H14Cl3NO2/c1-7(16)6-15-2-3-17-11-9(13)4-8(12)5-10(11)14/h4-5,7,15-16H,2-3,6H2,1H3
Instrument: Q Exactive Orbitrap Thermo Scientific
Instrument type: LC-ESI-QFT
Ms type: MS2
Ion mode: POSITIVE
Ionization: ESI
Fragmentation mode: HCD
Collision energy: 20 (nominal)
Resolution: 35000
Column name: XBridge C18 3.5 um, 2.1x50 mm, Waters with guard column
Retention time: 12.8 min
Base peak: 215.1641
Precursor m/z: 298.0163
Precursor type: [M+H]+
m/z	relative intensity	assigned
56.0494	4	C3H6N+
57.0699	6	C4H9+
67.0542	3	C5H7+
69.0699	12	C5H9+
70.065	27	C4H8N+
71.049	2	C4H7O+
71.0854	3	C5H11+
81.0699	6	C6H9+
83.0855	9	C6H11+
84.0808	30	C5H10N+
85.0886	26	C5H11N+
85.1011	5	C6H13+
87.0441	1	C4H7O2+
88.0756	1	C4H10NO+
93.0698	1	C7H9+
95.0854	5	C7H11+
97.0648	1	C6H9O+
97.1012	7	C7H13+
102.0914	10	C5H12NO+
107.0855	2	C8H11+
108.0888	4	C3H12N2O2+
111.1167	3	C8H15+
113.096	7	C7H13O+
121.101	4	C9H13+
123.1167	1	C9H15+
178.086	3	C10H12NO2+
188.9867	1	C8H7Cl2O+
239.9748	1	C8H9Cl3NO+
280.0057	462	C11H13Cl3NO+
298.0163	999	C11H15Cl3NO2+
