Mass spectrum: PRZ_M310; LC-ESI-QFT; MS2; CE: 20; R=35000; [M+H]+
Name: PRZ_M310
Formula: C12H14Cl3NO2
Exact mass: 309.0090
SMILES: CCCN(CCOC1=C(Cl)C=C(Cl)C=C1Cl)C=O
InChI: InChI=1S/C12H14Cl3NO2/c1-2-3-16(8-17)4-5-18-12-10(14)6-9(13)7-11(12)15/h6-8H,2-5H2,1H3
Instrument: Q Exactive Orbitrap Thermo Scientific
Instrument type: LC-ESI-QFT
Ms type: MS2
Ion mode: POSITIVE
Ionization: ESI
Fragmentation mode: HCD
Collision energy: 20 (nominal)
Resolution: 35000
Column name: XBridge C18 3.5 um, 2.1x50 mm, Waters with guard column
Retention time: 16.8 min
Base peak: 267.1229
Precursor m/z: 310.0163
Precursor type: [M+H]+
m/z	relative intensity	assigned
57.0699	10	C4H9+
59.0492	4	C3H7O+
60.0444	3	C2H6NO+
60.0808	3	C3H10N+
67.0543	4	C5H7+
69.0699	5	C5H9+
70.0288	32	C3H4NO+
70.0651	40	C4H8N+
71.0855	4	C5H11+
72.0444	79	C3H6NO+
72.0808	11	C4H10N+
79.0542	2	C6H7+
81.0699	17	C6H9+
83.0492	2	C5H7O+
83.0856	5	C6H11+
85.0285	17	C4H5O2+
85.0886	11	C5H11N+
85.1012	12	C6H13+
86.0965	76	C5H12N+
87.0442	4	C4H7O2+
91.0542	2	C7H7+
93.0699	6	C7H9+
95.0856	15	C7H11+
97.065	17	C6H9O+
99.0804	6	C6H11O+
100.0757	11	C5H10NO+
101.0598	87	C5H9O2+
103.0755	5	C5H11O2+
105.0701	30	C8H9+
106.0733	10	C3H10N2O2+
107.0492	2	C7H7O+
107.0858	4	C8H11+
109.1012	13	C8H13+
110.1045	2	C3H14N2O2+
111.0441	2	C6H7O2+
114.0914	545	C6H12NO+
115.039	38	C2H10ClNO2+
117.07	2	C9H9+
119.0452	4	C3H7N2O3+
119.0492	56	C8H7O+
119.0854	3	C9H11+
120.0525	27	C3H8N2O3+
121.1012	10	C9H13+
123.0806	3	C8H11O+
123.117	5	C9H15+
125.0959	22	C8H13O+
127.1119	5	C8H15O+
129.994	2	CH6Cl2N3+
131.0856	10	C10H11+
133.0645	2	C9H9O+
133.1012	3	C10H13+
135.1168	3	C10H15+
137.0963	4	C9H13O+
139.0753	2	C8H11O2+
141.9936	10	C2H6Cl2N3+
145.1013	15	C11H13+
146.1046	15	C6H14N2O2+
147.0804	3	C10H11O+
147.117	4	C11H15+
149.0234	13	C5H8ClNO2+
149.0962	12	C10H13O+
153.0911	4	C9H13O2+
153.1023	3	C8H13N2O+
159.1168	5	C12H15+
161.0961	4	C11H13O+
163.1117	5	C11H15O+
165.0909	2	C10H13O2+
170.0858	4	C10H15Cl+
171.1014	2	C9H15O3+
173.0959	18	C12H13O+
174.0994	20	C7H14N2O3+
175.112	4	C12H15O+
177.0909	2	C11H13O2+
179.1066	8	C11H15O2+
181.0862	3	C10H13O3+
191.1068	5	C12H15O2+
222.9481	2	C8H6Cl3O+
239.9743	4	C8H9Cl3NO+
244.0292	3	C11H12Cl2NO+
282.0215	316	C11H15Cl3NO+
310.0164	999	C12H15Cl3NO2+
