Mass spectrum: PRZ_M298; LC-ESI-QFT; MS2; CE: 30; R=35000; [M+H]+
Name: PRZ_M298
Formula: C11H14Cl3NO2
Exact mass: 297.0090
SMILES: CC(O)CNCCOC1=C(Cl)C=C(Cl)C=C1Cl
InChI: InChI=1S/C11H14Cl3NO2/c1-7(16)6-15-2-3-17-11-9(13)4-8(12)5-10(11)14/h4-5,7,15-16H,2-3,6H2,1H3
Instrument: Q Exactive Orbitrap Thermo Scientific
Instrument type: LC-ESI-QFT
Ms type: MS2
Ion mode: POSITIVE
Ionization: ESI
Fragmentation mode: HCD
Collision energy: 30 (nominal)
Resolution: 35000
Column name: XBridge C18 3.5 um, 2.1x50 mm, Waters with guard column
Retention time: 12.8 min
Base peak: 215.1641
Precursor m/z: 298.0163
Precursor type: [M+H]+
m/z	relative intensity	assigned
55.0543	2	C4H7+
56.0494	41	C3H6N+
57.0573	2	C3H7N+
57.0698	14	C4H9+
58.0651	5	C3H8N+
59.0491	2	C3H7O+
65.0385	1	C5H5+
67.0542	16	C5H7+
69.0698	34	C5H9+
70.0651	275	C4H8N+
71.0492	1	C4H7O+
71.0855	6	C5H11+
73.0283	1	C3H5O2+
74.06	1	C3H8NO+
79.0542	9	C6H7+
81.0699	19	C6H9+
83.0491	2	C5H7O+
83.0855	14	C6H11+
84.0808	212	C5H10N+
85.0886	246	C5H11N+
85.1011	26	C6H13+
86.0963	1	C5H12N+
87.0441	5	C4H7O2+
88.0393	1	C3H6NO2+
88.0756	5	C4H10NO+
91.0542	1	C7H7+
93.0699	6	C7H9+
94.0733	7	C2H10N2O2+
95.0855	18	C7H11+
96.0889	11	C2H12N2O2+
97.0647	5	C6H9O+
97.1011	12	C7H13+
100.0754	1	C5H10NO+
101.0232	1	C4H5O3+
102.0913	37	C5H12NO+
105.07	2	C8H9+
106.0418	6	C4H9ClN+
107.0856	12	C8H11+
108.0888	10	C3H12N2O2+
109.1011	5	C8H13+
110.1045	4	C3H14N2O2+
111.1167	1	C8H15+
113.096	39	C7H13O+
114.0661	1	C4H8N3O+
117.0784	9	C5H11NO2+
119.0855	1	C9H11+
121.1012	10	C9H13+
122.1045	11	C4H14N2O2+
123.1167	2	C9H15+
135.1167	2	C10H15+
137.096	4	C9H13O+
154.0179	6	C8H7ClO+
155.1066	2	C9H15O2+
178.0861	6	C10H12NO2+
187.9787	2	C8H6Cl2O+
188.9868	10	C8H7Cl2O+
222.9478	17	C8H6Cl3O+
239.9744	6	C8H9Cl3NO+
244.0287	2	C11H12Cl2NO+
245.0367	7	C11H13Cl2NO+
280.0057	999	C11H13Cl3NO+
298.0162	409	C11H15Cl3NO2+
