Mass spectrum: PRZ; LC-ESI-QFT; MS2; CE: 20; R=35000; [M+H]+
Name: PRZ
Name: Prochloraz
Name: N-propyl-N-[2-(2,4,6-trichlorophenoxy)ethyl]imidazole-1-carboxamide
Formula: C15H16Cl3N3O2
Exact mass: 375.0308
SMILES: CCCN(CCOC1=C(Cl)C=C(Cl)C=C1Cl)C(=O)N1C=CN=C1
InChI: InChI=1S/C15H16Cl3N3O2/c1-2-4-20(15(22)21-5-3-19-10-21)6-7-23-14-12(17)8-11(16)9-13(14)18/h3,5,8-10H,2,4,6-7H2,1H3
Instrument: Q Exactive Orbitrap Thermo Scientific
Instrument type: LC-ESI-QFT
Ms type: MS2
Ion mode: POSITIVE
Ionization: ESI
Fragmentation mode: HCD
Collision energy: 20 (nominal)
Resolution: 35000
Column name: XBridge C18 3.5 um, 2.1x50 mm, Waters with guard column
Retention time: 16.2 min
Base peak: 376.0387
Precursor m/z: 376.0381
Precursor type: [M+H]+
m/z	relative intensity	assigned
70.0288	71	C3H4NO+
70.0652	16	C4H8N+
85.0887	11	C5H11N+
174.9714	2	C7H5Cl2O+
194.9162	3	C6H2Cl3O+
201.982	8	C8H6Cl2NO+
222.948	8	C8H6Cl3O+
237.9588	2	C8H7Cl3NO+
239.9744	26	C8H9Cl3NO+
244.0291	14	C11H12Cl2NO+
245.0369	4	C11H13Cl2NO+
265.9538	208	C9H7Cl3NO2+
280.0058	39	C11H13Cl3NO+
283.9644	8	C9H9Cl3NO3+
308.0007	999	C12H13Cl3NO2+
376.0379	2	C15H17Cl3N3O2+
