Mass spectrum: PRZ_M429; LC-ESI-QFT; MS2; CE: 70; R=35000; [M+H]+
Name: PRZ_M429
Formula: C15H19Cl3N2O4S
Exact mass: 428.0131
SMILES: CCCN(CCOC1=C(Cl)C=C(Cl)C=C1Cl)C(=O)SCC(N)C(O)=O
InChI: InChI=1S/C15H19Cl3N2O4S/c1-2-3-20(15(23)25-8-12(19)14(21)22)4-5-24-13-10(17)6-9(16)7-11(13)18/h6-7,12H,2-5,8,19H2,1H3,(H,21,22)
Instrument: Q Exactive Orbitrap Thermo Scientific
Instrument type: LC-ESI-QFT
Ms type: MS2
Ion mode: POSITIVE
Ionization: ESI
Fragmentation mode: HCD
Collision energy: 70 (nominal)
Resolution: 35000
Column name: XBridge C18 3.5 um, 2.1x50 mm, Waters with guard column
Retention time: 16.6 min
Base peak: 315.171
Precursor m/z: 429.0204
Precursor type: [M+H]+
m/z	relative intensity	assigned
53.0022	48	C3HO+
53.0385	4	C4H5+
55.0178	5	C3H3O+
55.0542	39	C4H7+
56.0495	141	C3H6N+
57.0334	5	C3H5O+
57.0573	29	C3H7N+
57.0698	9	C4H9+
58.0651	7	C3H8N+
58.9949	9	C2H3S+
59.0491	6	C3H7O+
60.0444	66	C2H6NO+
60.0808	27	C3H10N+
67.0542	79	C5H7+
68.0495	7	C4H6N+
69.0698	82	C5H9+
70.0287	999	C3H4NO+
70.0651	730	C4H8N+
71.0364	6	C3H5NO+
71.0491	10	C4H7O+
71.0857	4	C5H11+
72.0443	20	C3H6NO+
74.0058	36	C2H4NS+
76.0215	9	C2H6NS+
79.0524	5	ClH12O2+
79.0542	74	C6H7+
81.0699	104	C6H9+
82.9449	5	CHCl2+
83.0491	26	C5H7O+
83.0855	10	C6H11+
84.0809	20	C5H10N+
85.0285	10	C4H5O2+
86.9898	7	C3H3OS+
88.0215	22	C3H6NS+
88.0394	20	C3H6NO2+
91.0542	83	C7H7+
93.0699	69	C7H9+
95.0492	38	C6H7O+
95.0855	68	C7H11+
97.0648	12	C6H9O+
98.06	26	C5H8NO+
98.9841	75	CH4ClO3+
101.0597	20	C5H9O2+
102.0371	8	C4H8NS+
104.0164	7	C3H6NOS+
105.0699	94	C8H9+
107.0855	57	C8H11+
109.0649	6	C7H9O+
109.1012	12	C8H13+
111.0439	7	C6H7O2+
115.0539	8	C9H7+
117.0697	23	C9H9+
119.0855	57	C9H11+
120.0115	5	C3H6NO2S+
121.1012	12	C9H13+
122.9995	12	C7H4Cl+
125.0152	20	C7H6Cl+
128.0622	7	C10H8+
129.0698	11	C10H9+
131.0856	38	C10H11+
132.9606	58	C5H3Cl2+
133.1011	23	C10H13+
138.0103	12	C7H5ClN+
139.0183	10	C7H6ClN+
141.0692	5	C3H13N2O2S+
142.0776	8	C11H10+
143.0855	25	C11H11+
145.1011	30	C11H13+
147.1169	12	C11H15+
152.0025	6	C8H5ClO+
153.0101	5	C8H6ClO+
155.0855	7	C12H11+
157.1014	12	C12H13+
158.0728	5	C11H10O+
158.9763	80	C7H5Cl2+
159.1167	9	C12H15+
159.9841	21	C7H6Cl2+
160.9555	39	C6H3Cl2O+
161.132	7	C12H17+
161.9633	152	C6H4Cl2O+
166.0054	6	C8H5ClNO+
166.9216	279	C5H2Cl3+
167.0132	22	C8H6ClNO+
169.1011	5	C13H13+
169.9681	6	Cl2H8N2O2S+
171.1164	6	C5H19N2O2S+
173.987	24	C7H6Cl2N+
174.9711	41	C7H5Cl2O+
178.966	7	C6H5Cl2O2+
179.9296	58	C6H3Cl3+
182.1085	6	C6H18N2O2S+
183.117	7	C14H15+
187.9789	32	C8H6Cl2O+
192.9369	10	C7H4Cl3+
194.9164	167	C6H2Cl3O+
196.9322	59	C6H4Cl3O+
203.1279	5	C10H19O4+
206.928	6	C3H5Cl2O4S+
