Mass spectrum: PRZ_M323b; LC-ESI-QFT; MS2; CE: 70; R=35000; [M+H]+
Name: PRZ_M323b
Formula: C12H12Cl3NO3
Exact mass: 322.9883
SMILES: CC(=O)CN(CCOC1=C(Cl)C=C(Cl)C=C1Cl)C=O
InChI: InChI=1S/C12H12Cl3NO3/c1-8(18)6-16(7-17)2-3-19-12-10(14)4-9(13)5-11(12)15/h4-5,7H,2-3,6H2,1H3
Instrument: Q Exactive Orbitrap Thermo Scientific
Instrument type: LC-ESI-QFT
Ms type: MS2
Ion mode: POSITIVE
Ionization: ESI
Fragmentation mode: HCD
Collision energy: 70 (nominal)
Resolution: 35000
Column name: XBridge C18 3.5 um, 2.1x50 mm, Waters with guard column
Retention time: 16.1 min
Base peak: 174.1279
Precursor m/z: 323.9956
Precursor type: [M+H]+
m/z	relative intensity	assigned
53.0022	29	C3HO+
55.0542	19	C4H7+
56.0495	714	C3H6N+
57.0573	41	C3H7N+
57.0699	27	C4H9+
58.0652	3	C3H8N+
59.0491	53	C3H7O+
67.0542	54	C5H7+
69.07	8	C5H9+
70.0651	999	C4H8N+
81.0699	5	C6H9+
82.0651	8	C5H8N+
84.0808	268	C5H10N+
85.0885	28	C5H11N+
95.0855	5	C7H11+
125.0153	6	C7H6Cl+
128.0709	5	C6H10NO2+
158.9763	16	C7H5Cl2+
161.9634	26	C6H4Cl2O+
179.9298	6	C6H3Cl3+
187.9792	4	C8H6Cl2O+
