Mass spectrum: PRZ_M477; LC-ESI-QFT; MS2; CE: 50; R=35000; [M+H]+
Name: PRZ_M477
Formula: C18H22Cl2N4O5S
Exact mass: 476.0688
SMILES: CCCN(CCOC1=C(Cl)C=C(O)C(SCC(N)C(O)=O)=C1Cl)C(=O)N1C=CN=C1
InChI: InChI=1S/C18H22Cl2N4O5S/c1-2-4-23(18(28)24-5-3-22-10-24)6-7-29-15-11(19)8-13(25)16(14(15)20)30-9-12(21)17(26)27/h3,5,8,10,12,25H,2,4,6-7,9,21H2,1H3,(H,26,27)
Instrument: Q Exactive Orbitrap Thermo Scientific
Instrument type: LC-ESI-QFT
Ms type: MS2
Ion mode: POSITIVE
Ionization: ESI
Fragmentation mode: HCD
Collision energy: 50 (nominal)
Resolution: 35000
Column name: XBridge C18 3.5 um, 2.1x50 mm, Waters with guard column
Retention time: 9.8 min
Base peak: 391.2845
Precursor m/z: 477.0761
Precursor type: [M+H]+
m/z	relative intensity	assigned
56.0495	121	C3H6N+
58.0651	145	C3H8N+
60.0443	25	C2H6NO+
61.0106	23	C2H5S+
70.0288	148	C3H4NO+
70.0651	506	C4H8N+
72.0808	277	C4H10N+
74.0058	33	C2H4NS+
74.0601	25	C3H8NO+
84.0445	36	C4H6NO+
84.0808	124	C5H10N+
86.0964	999	C5H12N+
88.0393	31	C3H6NO2+
95.0491	15	C6H7O+
101.0712	18	CH12ClN3+
102.0549	22	C4H8NO2+
104.0527	97	C4H10NS+
110.0711	101	C5H8N3+
112.0756	29	C6H10NO+
114.0957	15	ClH19N2S+
117.0738	16	H11N3O4+
118.9596	15	C3H2ClNS+
120.0808	198	C8H10N+
129.1022	65	C6H13N2O+
130.0862	79	C6H12NO2+
136.0758	28	C8H10NO+
140.0708	18	C7H10NO2+
146.1176	16	C7H16NO2+
149.0006	15	C2H9Cl2NO2+
158.0996	82	C8H16NS+
206.9437	19	C7H5Cl2OS+
214.98	41	C8H6ClNO2S+
232.9223	24	C8H3Cl2O2S+
234.9381	78	C8H5Cl2O2S+
294.0117	258	C11H14Cl2NO2S+
