Mass spectrum: PRZ_M325; LC-ESI-QFT; MS2; CE: 35; R=35000; [M+H]+
Name: PRZ_M325
Name: Urea, N-propyl-N-[2-(2,4,6-trichlorophenoxy)ethyl]-
Name: 1-propyl-1-[2-(2,4,6-trichlorophenoxy)ethyl]urea
Formula: C12H15Cl3N2O2
Exact mass: 324.0199
SMILES: CCCN(CCOC1=C(Cl)C=C(Cl)C=C1Cl)C(N)=O
InChI: InChI=1S/C12H15Cl3N2O2/c1-2-3-17(12(16)18)4-5-19-11-9(14)6-8(13)7-10(11)15/h6-7H,2-5H2,1H3,(H2,16,18)
Instrument: Q Exactive Orbitrap Thermo Scientific
Instrument type: LC-ESI-QFT
Ms type: MS2
Ion mode: POSITIVE
Ionization: ESI
Fragmentation mode: HCD
Collision energy: 35 (nominal)
Resolution: 35000
Column name: XBridge C18 3.5 um, 2.1x50 mm, Waters with guard column
Retention time: 17.2 min
Base peak: 277.1798
Precursor m/z: 325.0272
Precursor type: [M+H]+
m/z	relative intensity	assigned
67.0543	24	C5H7+
69.0699	63	C5H9+
70.0288	23	C3H4NO+
70.0652	10	C4H8N+
71.0492	16	C4H7O+
71.0856	36	C5H11+
72.0808	82	C4H10N+
79.0542	18	C6H7+
81.0699	52	C6H9+
83.0492	3	C5H7O+
83.0855	48	C6H11+
85.0285	2	C4H5O2+
85.0648	11	C5H9O+
85.0885	3	C5H11N+
85.1012	22	C6H13+
86.0964	572	C5H12N+
87.0553	53	C3H7N2O+
89.0595	3	C4H9O2+
91.0543	6	C7H7+
93.0698	30	C7H9+
95.0492	3	C6H7O+
95.0857	54	C7H11+
97.0648	18	C6H9O+
97.1013	48	C7H13+
99.0441	5	C5H7O2+
99.0805	5	C6H11O+
101.0599	4	C5H9O2+
101.071	5	C4H9N2O+
105.0699	58	C8H9+
107.0494	3	C7H7O+
107.0855	30	C8H11+
109.0649	20	C7H9O+
109.1012	41	C8H13+
111.0442	13	C6H7O2+
111.0805	5	C7H11O+
111.1169	12	C8H15+
117.0699	3	C9H9+
119.0492	41	C8H7O+
119.0855	14	C9H11+
121.0649	3	C8H9O+
121.1012	50	C9H13+
123.0442	3	C7H7O2+
123.0804	28	C8H11O+
123.1166	12	C9H15+
125.06	3	C4H12ClNO+
125.0962	10	C8H13O+
126.0219	5	C8H2N2+
127.075	2	C7H11O2+
129.1023	652	C6H13N2O+
131.0855	13	C10H11+
133.1011	13	C10H13+
135.0805	15	C9H11O+
135.1169	36	C10H15+
137.0962	17	C9H13O+
139.0754	5	C8H11O2+
139.1117	5	C9H15O+
141.0908	2	C8H13O2+
143.0857	20	C11H11+
145.101	18	C11H13+
147.1169	15	C11H15+
149.0964	6	C7H16ClN+
151.0755	2	C9H11O2+
151.1117	9	C10H15O+
153.0552	3	C5H12ClNO2+
153.0909	9	C9H13O2+
155.1067	5	C9H15O2+
159.1169	14	C12H15+
161.0961	15	C11H13O+
163.0752	4	C10H11O2+
163.1117	13	C11H15O+
167.0704	3	C6H14ClNO2+
169.0861	6	C6H16ClNO2+
175.1118	4	C12H15O+
179.1064	5	C11H15O2+
191.1063	2	C12H15O2+
194.9167	2	C6H2Cl3O+
195.0652	13	C7H14ClNO3+
205.1216	4	C11H15N3O+
207.1024	3	C12H15O3+
222.9478	14	C8H6Cl3O+
239.9743	21	C8H9Cl3NO+
246.0439	4	C11H14Cl2NO+
252.0323	2	C10H14Cl2O3+
265.9533	4	C9H7Cl3NO2+
282.0213	999	C11H15Cl3NO+
308.0008	14	C12H13Cl3NO2+
325.0268	32	C12H16Cl3N2O2+
