Mass spectrum: PRZ_M382; LC-ESI-QFT; MS2; CE: 70; R=35000; [M+H]+
Name: PRZ_M382
Formula: C14H18Cl3N3O3
Exact mass: 381.0414
SMILES: CCCN(CCOC1=C(Cl)C=C(Cl)C=C1Cl)C(=O)N(CO)C=N
InChI: InChI=1S/C14H18Cl3N3O3/c1-2-3-19(14(22)20(8-18)9-21)4-5-23-13-11(16)6-10(15)7-12(13)17/h6-8,18,21H,2-5,9H2,1H3
Instrument: Q Exactive Orbitrap Thermo Scientific
Instrument type: LC-ESI-QFT
Ms type: MS2
Ion mode: POSITIVE
Ionization: ESI
Fragmentation mode: HCD
Collision energy: 70 (nominal)
Resolution: 35000
Column name: XBridge C18 3.5 um, 2.1x50 mm, Waters with guard column
Retention time: 16.6 min
Base peak: 288.2897
Precursor m/z: 382.0487
Precursor type: [M+H]+
m/z	relative intensity	assigned
53.0022	17	C3HO+
55.0179	9	C3H3O+
55.0543	17	C4H7+
56.0495	179	C3H6N+
57.0573	46	C3H7N+
57.07	19	C4H9+
59.0492	7	C3H7O+
60.0444	68	C2H6NO+
60.0809	28	C3H10N+
67.0541	66	C5H7+
69.0698	29	C5H9+
70.0287	999	C3H4NO+
70.0651	948	C4H8N+
71.0491	10	C4H7O+
72.0444	16	C3H6NO+
74.0964	13	C4H12N+
79.0542	33	C6H7+
81.0699	74	C6H9+
83.0491	10	C5H7O+
83.0856	7	C6H11+
83.9527	7	CH2Cl2+
85.0283	14	C4H5O2+
85.0886	37	C5H11N+
88.0393	14	C3H6NO2+
88.0758	7	C4H10NO+
91.0543	92	C7H7+
92.0495	40	C6H6N+
93.0699	19	C7H9+
95.0492	34	C6H7O+
95.0855	33	C7H11+
98.0602	29	C5H8NO+
105.0698	58	C8H9+
106.0732	9	C3H10N2O2+
107.0491	8	C7H7O+
107.0858	12	C8H11+
109.101	9	C8H13+
117.0699	31	C9H9+
118.0652	8	C8H8N+
119.0855	32	C9H11+
121.1012	9	C9H13+
125.015	13	C7H6Cl+
131.0856	13	C10H11+
132.9608	49	C5H3Cl2+
133.1012	9	C10H13+
134.0961	9	C9H12N+
138.011	7	C7H5ClN+
141.0699	13	C11H9+
143.0856	9	C11H11+
146.9763	7	C6H5Cl2+
147.1168	7	C11H15+
158.9762	85	C7H5Cl2+
159.9843	15	C7H6Cl2+
160.9556	31	C6H3Cl2O+
161.9635	109	C6H4Cl2O+
166.9216	165	C5H2Cl3+
167.0137	12	C5H9Cl2N2+
169.9688	8	C8H4Cl2+
173.9874	17	C7H6Cl2N+
174.9712	61	C7H5Cl2O+
179.9296	38	C6H3Cl3+
187.9792	41	C8H6Cl2O+
194.9165	180	C6H2Cl3O+
194.9534	10	C7H6Cl3+
195.0917	16	C13H11N2+
196.9321	72	C6H4Cl3O+
201.9818	9	C11H3ClO2+
222.948	18	C8H6Cl3O+
284.9149	8	C11H2Cl3NO2+
309.077	8	C12H19Cl2N2O3+
