Mass spectrum: PRZ_M435; LC-ESI-QFT; MS2; CE: 30; R=35000; [M+H]+
Name: PRZ_M435
Exact mass: 434.0679
Instrument: Q Exactive Orbitrap Thermo Scientific
Instrument type: LC-ESI-QFT
Ms type: MS2
Ion mode: POSITIVE
Ionization: ESI
Fragmentation mode: HCD
Collision energy: 30 (nominal)
Resolution: 35000
Column name: XBridge C18 3.5 um, 2.1x50 mm, Waters with guard column
Retention time: 14.5 min
Base peak: 199.1693
Precursor m/z: 435.0752
Precursor type: [M+H]+
m/z	relative intensity
50.4462	2
54.1015	3
56.5832	2
57.1908	2
57.9591	2
60.0808	3
62.2278	2
62.4481	3
65.5578	2
75.1463	3
86.0965	18
89.0597	7
92.3025	8
93.07	7
95.0856	6
98.9842	14
103.039	35
105.0699	4
107.0857	7
109.0649	4
109.1012	12
110.0349	33
111.0554	4
119.0857	7
121.1014	5
122.0269	4
131.2108	3
139.1121	4
140.5224	3
142.9388	6
145.0498	14
146.0531	4
147.1169	13
153.0911	5
154.0612	999
157.1013	3
161.0962	3
173.0918	3
173.1331	3
174.1274	11
175.1475	3
183.138	8
195.6274	3
196.8455	3
212.3862	3
252.1596	3
272.2015	5
273.2043	7
282.0216	383
315.192	5
337.142	4
377.2418	4
417.2522	13
435.0756	38
