Mass spectrum: PRZ_M239; LC-ESI-QFT; MS2; CE: 70; R=35000; [M+H]+
Name: PRZ_M239
Name: 2-(2,4,6-trichlorophenoxy)ethanamine
Formula: C8H8Cl3NO
Exact mass: 238.9671
SMILES: NCCOC1=C(Cl)C=C(Cl)C=C1Cl
InChI: InChI=1S/C8H8Cl3NO/c9-5-3-6(10)8(7(11)4-5)13-2-1-12/h3-4H,1-2,12H2
Instrument: Q Exactive Orbitrap Thermo Scientific
Instrument type: LC-ESI-QFT
Ms type: MS2
Ion mode: POSITIVE
Ionization: ESI
Fragmentation mode: HCD
Collision energy: 70 (nominal)
Resolution: 35000
Column name: XBridge C18 3.5 um, 2.1x50 mm, Waters with guard column
Retention time: 12.2 min
Base peak: 215.1643
Precursor m/z: 239.9744
Precursor type: [M+H]+
m/z	relative intensity	assigned
55.0179	99	C3H3O+
55.0543	56	C4H7+
57.0699	63	C4H9+
65.0386	413	C5H5+
67.0542	484	C5H7+
68.0495	265	C4H6N+
69.0336	70	C4H5O+
69.0699	183	C5H9+
70.0653	70	C4H8N+
71.0491	42	C4H7O+
72.0444	72	C3H6NO+
73.0285	187	C3H5O2+
79.0543	224	C6H7+
81.0334	56	C5H5O+
81.0699	118	C6H9+
82.0648	50	C5H8N+
83.0492	67	C5H7O+
91.0543	999	C7H7+
92.0495	291	C6H6N+
92.0576	251	C2H8N2O2+
93.0699	338	C7H9+
95.0492	322	C6H7O+
97.0649	63	C6H9O+
103.0543	218	C8H7+
105.0336	103	C7H5O+
105.07	909	C8H9+
109.0648	284	C7H9O+
110.0601	77	C6H8NO+
110.0715	59	C5H8N3+
111.044	65	C6H7O2+
119.0492	439	C8H7O+
119.0604	90	C7H7N2+
123.0001	53	C7H4Cl+
125.0154	60	C7H6Cl+
130.029	68	C8H4NO+
132.9605	569	C5H3Cl2+
158.9764	284	C7H5Cl2+
159.9841	73	C7H6Cl2+
160.9554	184	C6H3Cl2O+
161.9635	737	C6H4Cl2O+
166.9216	583	C5H2Cl3+
179.9298	259	C6H3Cl3+
187.9791	74	C8H6Cl2O+
194.9163	199	C6H2Cl3O+
196.9327	83	C6H4Cl3O+
200.0354	49	C8H9ClN2O2+
