Mass spectrum: PRZ_M429; LC-ESI-QFT; MS2; CE: 10; R=35000; [M+H]+
Name: PRZ_M429
Formula: C15H19Cl3N2O4S
Exact mass: 428.0131
SMILES: CCCN(CCOC1=C(Cl)C=C(Cl)C=C1Cl)C(=O)SCC(N)C(O)=O
InChI: InChI=1S/C15H19Cl3N2O4S/c1-2-3-20(15(23)25-8-12(19)14(21)22)4-5-24-13-10(17)6-9(16)7-11(13)18/h6-7,12H,2-5,8,19H2,1H3,(H,21,22)
Instrument: Q Exactive Orbitrap Thermo Scientific
Instrument type: LC-ESI-QFT
Ms type: MS2
Ion mode: POSITIVE
Ionization: ESI
Fragmentation mode: HCD
Collision energy: 10 (nominal)
Resolution: 35000
Column name: XBridge C18 3.5 um, 2.1x50 mm, Waters with guard column
Retention time: 16.6 min
Base peak: 315.171
Precursor m/z: 429.0204
Precursor type: [M+H]+
m/z	relative intensity	assigned
60.0808	2	C3H10N+
70.0285	5	C3H4NO+
76.0215	8	C2H6NS+
83.0854	1	C6H11+
113.0961	6	C7H13O+
127.1116	3	C8H15O+
222.9482	1	C8H6Cl3O+
239.9745	9	C8H9Cl3NO+
265.9534	11	C12H4Cl2O3+
280.0053	1	C14H10Cl2O2+
282.0214	45	C11H15Cl3NO+
283.9654	1	C10H5ClN2O4S+
308.0006	484	C12H13Cl3NO2+
309.0038	3	C13H16Cl3S+
318.9222	4	C14H2Cl3N2O+
326.011	15	C12H15Cl3NO3+
340.027	2	C13H17Cl3NO3+
341.988	10	C15H12Cl2O3S+
383.0151	22	C14H18Cl3N2O2S+
411.9939	23	C15H17Cl3NO4S+
429.0203	999	C15H20Cl3N2O4S+
