Mass spectrum: PRZ; LC-ESI-QFT; MS2; CE: 30; R=35000; [M+H]+
Name: PRZ
Name: Prochloraz
Name: N-propyl-N-[2-(2,4,6-trichlorophenoxy)ethyl]imidazole-1-carboxamide
Formula: C15H16Cl3N3O2
Exact mass: 375.0308
SMILES: CCCN(CCOC1=C(Cl)C=C(Cl)C=C1Cl)C(=O)N1C=CN=C1
InChI: InChI=1S/C15H16Cl3N3O2/c1-2-4-20(15(22)21-5-3-19-10-21)6-7-23-14-12(17)8-11(16)9-13(14)18/h3,5,8-10H,2,4,6-7H2,1H3
Instrument: Q Exactive Orbitrap Thermo Scientific
Instrument type: LC-ESI-QFT
Ms type: MS2
Ion mode: POSITIVE
Ionization: ESI
Fragmentation mode: HCD
Collision energy: 30 (nominal)
Resolution: 35000
Column name: XBridge C18 3.5 um, 2.1x50 mm, Waters with guard column
Retention time: 16.2 min
Base peak: 376.0387
Precursor m/z: 376.0381
Precursor type: [M+H]+
m/z	relative intensity	assigned
53.0027	2	ClH4N+
56.05	16	
60.0448	12	
70.0288	968	C3H4NO+
70.0652	446	C4H8N+
84.0808	4	C5H10N+
85.0887	169	C5H11N+
98.0601	14	C5H8NO+
106.042	8	C4H9ClN+
112.0758	2	C6H10NO+
113.0835	22	C6H11NO+
138.0106	2	C7H5ClN+
141.9801	1	C4HClN3O+
166.0054	10	C8H5ClNO+
167.0136	4	C5H9Cl2N2+
171.9947	2	C10H3ClN+
173.9872	12	C7H6Cl2N+
174.9713	46	C7H5Cl2O+
180.0578	3	C10H11ClN+
194.9166	56	C6H2Cl3O+
201.9821	129	C8H6Cl2NO+
208.0524	11	C11H11ClNO+
209.0603	24	C11H12ClNO+
215.9976	2	C9H8Cl2NO+
222.9479	140	C8H6Cl3O+
237.9587	55	C8H7Cl3NO+
239.9745	47	C8H9Cl3NO+
244.0291	146	C11H12Cl2NO+
245.0371	44	C11H13Cl2NO+
265.9538	484	C9H7Cl3NO2+
280.0058	195	C11H13Cl3NO+
283.9644	9	C9H9Cl3NO3+
308.0007	999	C12H13Cl3NO2+
