Mass spectrum: PRZ_M392b; LC-ESI-QFT; MS2; CE: 30; R=35000; [M+H]+
Name: PRZ_M392b
Formula: C15H16Cl3N3O3
Exact mass: 391.0257
SMILES: CCCN(CCOC1=C(Cl)C=C(Cl)C=C1Cl)C(=O)N1C=NC=C1O
InChI: InChI=1S/C15H16Cl3N3O3/c1-2-3-20(15(23)21-9-19-8-13(21)22)4-5-24-14-11(17)6-10(16)7-12(14)18/h6-9,22H,2-5H2,1H3
Instrument: Q Exactive Orbitrap Thermo Scientific
Instrument type: LC-ESI-QFT
Ms type: MS2
Ion mode: POSITIVE
Ionization: ESI
Fragmentation mode: HCD
Collision energy: 30 (nominal)
Resolution: 35000
Column name: XBridge C18 3.5 um, 2.1x50 mm, Waters with guard column
Retention time: 15.4 min
Base peak: 311.1852
Precursor m/z: 392.033
Precursor type: [M+H]+
m/z	relative intensity	assigned
53.0027	3	ClH4N+
65.0386	2	C5H5+
69.0701	3	C5H9+
70.0288	695	C3H4NO+
70.0652	361	C4H8N+
71.0856	129	C5H11+
72.089	37	H12N2O2+
81.0699	3	C6H9+
83.0856	8	C6H11+
85.0887	150	C5H11N+
88.0393	14	C3H6NO2+
93.07	3	C7H9+
95.0491	2	C6H7O+
95.0855	5	C7H11+
97.0649	9	C6H9O+
98.0601	9	C5H8NO+
99.0442	9	C5H7O2+
101.0598	4	C5H9O2+
106.0419	11	C4H9ClN+
107.0856	4	C8H11+
109.1011	2	C8H13+
111.0804	3	C7H11O+
112.1206	2	C3H16N2O2+
113.0598	16	C6H9O2+
113.0836	21	C6H11NO+
115.0753	9	C6H11O2+
121.1013	3	C9H13+
123.0803	2	C8H11O+
123.1167	9	C9H15+
125.0963	3	C8H13O+
133.1015	3	C10H13+
149.0235	999	C8H5O3+
166.0057	10	C5H8Cl2N2+
167.034	81	C5H10ClNO3+
173.9872	10	C7H6Cl2N+
174.9712	43	C7H5Cl2O+
179.1064	3	C11H15O2+
194.9166	37	C6H2Cl3O+
201.982	91	C8H6Cl2NO+
208.0523	3	C11H11ClNO+
209.0604	17	C11H12ClNO+
220.9328	2	C8H4Cl3O+
222.9478	102	C8H6Cl3O+
237.9588	42	C8H7Cl3NO+
239.9744	81	C8H9Cl3NO+
244.0291	104	C11H12Cl2NO+
245.037	35	C11H13Cl2NO+
248.9855	2	C11H5Cl2N3+
265.9537	277	C9H7Cl3NO2+
280.0058	143	C11H13Cl3NO+
283.9641	26	C9H9Cl3NO3+
308.0006	728	C12H13Cl3NO2+
