Mass spectrum: PRZ_M353; LC-ESI-QFT; MS2; CE: 30; R=35000; [M+H]+
Name: PRZ_M353
Name: MolPort-035-395-264
Name: N-[propyl-[2-(2,4,6-trichlorophenoxy)ethyl]carbamoyl]formamide
Formula: C13H15Cl3N2O3
Exact mass: 352.0148
SMILES: CCCN(CCOC1=C(Cl)C=C(Cl)C=C1Cl)C(=O)NC=O
InChI: InChI=1S/C13H15Cl3N2O3/c1-2-3-18(13(20)17-8-19)4-5-21-12-10(15)6-9(14)7-11(12)16/h6-8H,2-5H2,1H3,(H,17,19,20)
Instrument: Q Exactive Orbitrap Thermo Scientific
Instrument type: LC-ESI-QFT
Ms type: MS2
Ion mode: POSITIVE
Ionization: ESI
Fragmentation mode: HCD
Collision energy: 30 (nominal)
Resolution: 35000
Column name: XBridge C18 3.5 um, 2.1x50 mm, Waters with guard column
Retention time: 16.9 min
Base peak: 430.8881
Precursor m/z: 353.0221
Precursor type: [M+H]+
m/z	relative intensity	assigned
53.0022	4	C3HO+
56.0495	10	C3H6N+
57.0573	2	C3H7N+
57.0698	2	C4H9+
58.0651	1	C3H8N+
60.0443	24	C2H6NO+
60.0807	1	C3H10N+
61.0396	2	CH5N2O+
67.0541	1	C5H7+
69.0699	2	C5H9+
70.0287	584	C3H4NO+
70.0651	354	C4H8N+
71.0854	1	C5H11+
72.0444	1	C3H6NO+
83.0854	1	C6H11+
84.081	1	C5H10N+
85.0886	121	C5H11N+
88.0392	6	C3H6NO2+
93.0698	2	C7H9+
95.0856	3	C7H11+
97.1011	1	C7H13+
98.06	8	C5H8NO+
98.9841	12	CH4ClO3+
105.0698	24	C8H9+
106.0418	8	C4H9ClN+
109.1013	1	C8H13+
111.1169	1	C8H15+
113.0835	9	C6H11NO+
119.0491	7	C8H7O+
121.0646	1	C8H9O+
123.0804	1	C8H11O+
123.1164	1	C9H15+
129.1022	8	C6H13N2O+
131.0852	2	C10H11+
133.0647	1	C9H9O+
138.0101	2	C10H2O+
142.078	1	C11H10+
145.1013	2	C11H13+
157.1015	27	C12H13+
166.0055	7	C8H5ClNO+
167.0129	2	C11H3O2+
173.9871	6	C7H6Cl2N+
174.9711	39	C7H5Cl2O+
180.0568	2	C13H8O+
194.9162	34	C6H2Cl3O+
201.9819	92	C8H6Cl2NO+
206.0934	2	C12H14O3+
208.0517	7	C11H11ClNO+
209.0607	12	C8H15Cl2N2+
219.9926	3	C8H8Cl2NO2+
222.9478	96	C8H6Cl3O+
237.9588	41	C8H7Cl3NO+
239.9743	103	C8H9Cl3NO+
244.029	108	C11H12Cl2NO+
245.0369	43	C11H13Cl2NO+
265.9536	335	C9H7Cl3NO2+
280.0057	172	C11H13Cl3NO+
282.0212	7	C11H15Cl3NO+
283.964	24	C9H9Cl3NO3+
297.9797	2	C10H11Cl3NO3+
308.0005	999	C12H13Cl3NO2+
309.0029	1	C7H14Cl3N3O4+
