Mass spectrum: PRZ_M282; LC-ESI-QFT; MS2; CE: 70; R=35000; [M+H]+
Name: PRZ_M282
Name: N-[2-(2,4,6-trichlorophenoxy)ethyl]propan-1-amine
Formula: C11H14Cl3NO
Exact mass: 281.0141
SMILES: CCCNCCOC1=C(Cl)C=C(Cl)C=C1Cl
InChI: InChI=1S/C11H14Cl3NO/c1-2-3-15-4-5-16-11-9(13)6-8(12)7-10(11)14/h6-7,15H,2-5H2,1H3
Instrument: Q Exactive Orbitrap Thermo Scientific
Instrument type: LC-ESI-QFT
Ms type: MS2
Ion mode: POSITIVE
Ionization: ESI
Fragmentation mode: HCD
Collision energy: 70 (nominal)
Resolution: 35000
Column name: XBridge C18 3.5 um, 2.1x50 mm, Waters with guard column
Retention time: 13.1 min
Base peak: 199.1689
Precursor m/z: 282.0214
Precursor type: [M+H]+
m/z	relative intensity	assigned
53.0022	23	C3HO+
58.0651	999	C3H8N+
72.0808	232	C4H10N+
82.9451	29	CHCl2+
86.0964	451	C5H12N+
125.0149	42	C7H6Cl+
132.9606	190	C5H3Cl2+
158.9763	134	C7H5Cl2+
160.9556	51	C6H3Cl2O+
161.9632	319	C6H4Cl2O+
166.9216	334	C5H2Cl3+
179.9295	40	C6H3Cl3+
194.9166	114	C6H2Cl3O+
196.9319	41	C6H4Cl3O+
