Mass spectrum: PRZ_M298; LC-ESI-QFT; MS2; CE: 50; R=35000; [M+H]+
Name: PRZ_M298
Formula: C11H14Cl3NO2
Exact mass: 297.0090
SMILES: CC(O)CNCCOC1=C(Cl)C=C(Cl)C=C1Cl
InChI: InChI=1S/C11H14Cl3NO2/c1-7(16)6-15-2-3-17-11-9(13)4-8(12)5-10(11)14/h4-5,7,15-16H,2-3,6H2,1H3
Instrument: Q Exactive Orbitrap Thermo Scientific
Instrument type: LC-ESI-QFT
Ms type: MS2
Ion mode: POSITIVE
Ionization: ESI
Fragmentation mode: HCD
Collision energy: 50 (nominal)
Resolution: 35000
Column name: XBridge C18 3.5 um, 2.1x50 mm, Waters with guard column
Retention time: 12.8 min
Base peak: 215.1641
Precursor m/z: 298.0163
Precursor type: [M+H]+
m/z	relative intensity	assigned
53.0022	10	C3HO+
55.0543	18	C4H7+
56.0495	280	C3H6N+
57.0573	22	C3H7N+
57.0699	33	C4H9+
58.0652	11	C3H8N+
59.0491	16	C3H7O+
65.0385	3	C5H5+
67.0542	55	C5H7+
68.0497	2	C4H6N+
69.0699	69	C5H9+
70.0651	999	C4H8N+
71.0855	17	C5H11+
74.06	3	C3H8NO+
79.0542	20	C6H7+
81.0699	40	C6H9+
83.0492	9	C5H7O+
83.0855	22	C6H11+
84.0808	164	C5H10N+
85.0285	26	C4H5O2+
85.0886	245	C5H11N+
85.1012	65	C6H13+
86.0964	8	C5H12N+
91.0543	4	C7H7+
93.0699	24	C7H9+
95.0491	3	C6H7O+
95.0855	29	C7H11+
96.089	17	C2H12N2O2+
97.0648	8	C6H9O+
97.1012	9	C7H13+
102.0915	14	C5H12NO+
105.0698	4	C8H9+
106.0732	2	C3H10N2O2+
107.0855	13	C8H11+
108.0889	14	C3H12N2O2+
109.1012	10	C8H13+
113.096	42	C7H13O+
117.0785	4	C5H11NO2+
119.0856	2	C9H11+
121.1012	13	C9H13+
122.1045	10	C4H14N2O2+
123.1169	2	C9H15+
137.0597	2	C8H9O2+
137.0962	3	C9H13O+
144.1017	2	C7H14NO2+
147.0804	2	C10H11O+
148.0759	8	C9H10NO+
154.0178	3	C8H7ClO+
158.9763	13	C7H5Cl2+
159.9842	3	C7H6Cl2+
161.9634	3	C6H4Cl2O+
187.9791	12	C8H6Cl2O+
194.9168	9	C6H2Cl3O+
194.9529	2	C7H6Cl3+
196.9321	17	C6H4Cl3O+
222.9478	22	C8H6Cl3O+
280.0056	45	C11H13Cl3NO+
301.0141	2	C9H14Cl3N3O2+
