Mass spectrum: PRZ_M435; LC-ESI-QFT; MS2; CE: 10; R=35000; [M+H]+
Name: PRZ_M435
Exact mass: 434.0679
Instrument: Q Exactive Orbitrap Thermo Scientific
Instrument type: LC-ESI-QFT
Ms type: MS2
Ion mode: POSITIVE
Ionization: ESI
Fragmentation mode: HCD
Collision energy: 10 (nominal)
Resolution: 35000
Column name: XBridge C18 3.5 um, 2.1x50 mm, Waters with guard column
Retention time: 14.5 min
Base peak: 199.1693
Precursor m/z: 435.0752
Precursor type: [M+H]+
m/z	relative intensity
52.351	1
53.5712	2
54.0727	2
55.076	1
60.0808	3
69.3351	2
70.293	2
76.0117	1
76.7489	2
84.8949	2
89.4325	2
103.039	15
123.2116	2
138.4447	2
145.0497	5
154.061	36
159.8865	2
203.6615	2
272.2006	3
273.2041	9
282.0214	47
297.1346	4
298.1369	19
309.8057	2
316.1474	16
323.2574	2
337.1421	9
355.1534	4
400.2418	2
409.2629	2
417.2266	2
417.3158	2
417.7745	11
426.7791	3
435.0754	999
436.0776	3
