Mass spectrum: PRZ_M310; LC-ESI-QFT; MS2; CE: 70; R=35000; [M+H]+
Name: PRZ_M310
Formula: C12H14Cl3NO2
Exact mass: 309.0090
SMILES: CCCN(CCOC1=C(Cl)C=C(Cl)C=C1Cl)C=O
InChI: InChI=1S/C12H14Cl3NO2/c1-2-3-16(8-17)4-5-18-12-10(14)6-9(13)7-11(12)15/h6-8H,2-5H2,1H3
Instrument: Q Exactive Orbitrap Thermo Scientific
Instrument type: LC-ESI-QFT
Ms type: MS2
Ion mode: POSITIVE
Ionization: ESI
Fragmentation mode: HCD
Collision energy: 70 (nominal)
Resolution: 35000
Column name: XBridge C18 3.5 um, 2.1x50 mm, Waters with guard column
Retention time: 16.8 min
Base peak: 267.1229
Precursor m/z: 310.0163
Precursor type: [M+H]+
m/z	relative intensity	assigned
53.0023	13	C3HO+
53.0387	18	C4H5+
55.0179	93	C3H3O+
55.0542	144	C4H7+
56.0495	35	C3H6N+
57.0334	17	C3H5O+
57.0699	217	C4H9+
58.0288	26	C2H4NO+
58.0651	370	C3H8N+
59.0491	90	C3H7O+
65.0386	20	C5H5+
67.0542	399	C5H7+
69.0334	15	C4H5O+
69.0699	152	C5H9+
70.0288	76	C3H4NO+
70.0651	230	C4H8N+
71.0492	157	C4H7O+
71.0855	35	C5H11+
72.0444	999	C3H6NO+
72.0808	175	C4H10N+
79.0542	418	C6H7+
81.0336	71	C5H5O+
81.0699	377	C6H9+
83.0492	91	C5H7O+
83.0855	21	C6H11+
84.0443	14	C4H6NO+
84.0809	32	C5H10N+
85.0284	98	C4H5O2+
86.0601	336	C4H8NO+
86.0964	59	C5H12N+
87.0442	37	C4H7O2+
91.0543	573	C7H7+
93.07	234	C7H9+
94.0733	26	C2H10N2O2+
95.0492	227	C6H7O+
95.0855	185	C7H11+
96.0889	14	C2H12N2O2+
97.0648	30	C6H9O+
98.9841	18	CH4ClO3+
100.0757	208	C5H10NO+
101.0598	71	C5H9O2+
103.0542	28	C8H7+
105.07	441	C8H9+
106.0733	167	C3H10N2O2+
107.0492	84	C7H7O+
107.0855	71	C8H11+
108.0888	23	C3H12N2O2+
109.0648	145	C7H9O+
109.1013	66	C8H13+
110.0681	23	C2H10N2O3+
111.0441	15	C6H7O2+
114.0915	106	C6H12NO+
115.039	19	C2H10ClNO2+
115.0543	29	C9H7+
116.0577	19	C4H8N2O2+
117.0697	115	C9H9+
119.049	137	C8H7O+
119.0604	24	C7H7N2+
119.0855	101	C9H11+
120.0524	60	C3H8N2O3+
120.089	16	C4H12N2O2+
121.0648	21	C8H9O+
121.1013	24	C9H13+
123.044	24	C7H7O2+
128.0619	35	C10H8+
129.0655	22	C5H9N2O2+
129.0699	92	C10H9+
130.0778	25	C10H10+
131.0855	109	C10H11+
133.1012	60	C10H13+
134.1045	29	C5H14N2O2+
137.0598	22	C8H9O2+
141.0694	52	C11H9+
142.0783	24	C11H10+
143.086	25	C11H11+
145.1012	28	C11H13+
149.0234	30	C5H8ClNO2+
149.0963	69	C10H13O+
157.0886	16	C11H11N+
158.0964	28	C11H12N+
161.0913	18	C6H13N2O3+
161.9634	30	C6H4Cl2O+
166.9216	27	C5H2Cl3+
203.0813	56	C11H11N2O2+
216.0891	32	C12H12N2O2+
