Mass spectrum: PRZ_M325; LC-ESI-QFT; MS2; CE: 50; R=35000; [M+H]+
Name: PRZ_M325
Name: Urea, N-propyl-N-[2-(2,4,6-trichlorophenoxy)ethyl]-
Name: 1-propyl-1-[2-(2,4,6-trichlorophenoxy)ethyl]urea
Formula: C12H15Cl3N2O2
Exact mass: 324.0199
SMILES: CCCN(CCOC1=C(Cl)C=C(Cl)C=C1Cl)C(N)=O
InChI: InChI=1S/C12H15Cl3N2O2/c1-2-3-17(12(16)18)4-5-19-11-9(14)6-8(13)7-10(11)15/h6-7H,2-5H2,1H3,(H2,16,18)
Instrument: Q Exactive Orbitrap Thermo Scientific
Instrument type: LC-ESI-QFT
Ms type: MS2
Ion mode: POSITIVE
Ionization: ESI
Fragmentation mode: HCD
Collision energy: 50 (nominal)
Resolution: 35000
Column name: XBridge C18 3.5 um, 2.1x50 mm, Waters with guard column
Retention time: 17.2 min
Base peak: 277.1798
Precursor m/z: 325.0272
Precursor type: [M+H]+
m/z	relative intensity	assigned
53.0027	6	ClH4N+
58.0655	211	
60.081	9	C3H10N+
67.0544	137	C5H7+
69.0699	227	C5H9+
70.0288	49	C3H4NO+
70.0651	31	C4H8N+
71.0492	37	C4H7O+
71.0856	72	C5H11+
72.0445	8	C3H6NO+
72.0808	99	C4H10N+
73.0648	8	C4H9O+
79.0543	78	C6H7+
81.0699	171	C6H9+
83.0491	13	C5H7O+
83.0856	104	C6H11+
85.0284	9	C4H5O2+
85.0648	15	C5H9O+
85.1013	11	C6H13+
86.0965	999	C5H12N+
87.0554	315	C3H7N2O+
91.0541	50	C7H7+
93.0699	127	C7H9+
95.0491	40	C6H7O+
95.0856	145	C7H11+
97.0649	59	C6H9O+
97.1012	52	C7H13+
98.9842	11	CH4ClO3+
99.0805	10	C6H11O+
101.0709	35	C4H9N2O+
105.07	121	C8H9+
107.0856	122	C8H11+
109.0286	6	C6H5O2+
109.0649	59	C7H9O+
109.1013	98	C8H13+
111.0441	38	C6H7O2+
111.0804	42	C7H11O+
113.0598	10	C6H9O2+
117.0699	13	C9H9+
119.0492	80	C8H7O+
119.0856	47	C9H11+
121.0648	12	C8H9O+
121.1012	90	C9H13+
123.0441	10	C7H7O2+
123.0805	74	C8H11O+
123.1167	32	C9H15+
125.0599	15	C7H9O2+
125.096	32	C8H13O+
129.1023	678	C6H13N2O+
130.0779	8	C10H10+
131.0857	43	C10H11+
133.0649	7	C9H9O+
133.1011	43	C10H13+
135.0803	14	C9H11O+
135.1169	53	C10H15+
137.0595	11	C8H9O2+
137.0962	11	C9H13O+
139.0752	12	C8H11O2+
139.1122	8	C9H15O+
143.07	7	C7H11O3+
143.0855	38	C11H11+
145.101	42	C11H13+
147.0806	11	C10H11O+
147.1166	12	C11H15+
149.0596	8	C9H9O2+
149.0962	33	C10H13O+
151.0751	7	C9H11O2+
153.0546	15	C5H12ClNO2+
153.0913	8	C6H16ClNO+
157.1014	11	C12H13+
158.9762	12	C7H5Cl2+
159.1169	13	C12H15+
161.0959	30	C11H13O+
163.1115	9	C11H15O+
167.1067	8	C10H15O2+
173.0961	7	C12H13O+
177.0543	6	C7H12ClNO2+
194.9162	15	C6H2Cl3O+
196.9322	15	C6H4Cl3O+
203.0216	11	C7H8ClN2O3+
209.1168	29	C10H15N3O2+
222.948	29	C8H6Cl3O+
224.9594	7	C3H8Cl3N2O3+
239.9743	8	C8H9Cl3NO+
282.0215	117	C11H15Cl3NO+
