Mass spectrum: PRZ_M310; LC-ESI-QFT; MS2; CE: 30; R=35000; [M+H]+
Name: PRZ_M310
Formula: C12H14Cl3NO2
Exact mass: 309.0090
SMILES: CCCN(CCOC1=C(Cl)C=C(Cl)C=C1Cl)C=O
InChI: InChI=1S/C12H14Cl3NO2/c1-2-3-16(8-17)4-5-18-12-10(14)6-9(13)7-11(12)15/h6-8H,2-5H2,1H3
Instrument: Q Exactive Orbitrap Thermo Scientific
Instrument type: LC-ESI-QFT
Ms type: MS2
Ion mode: POSITIVE
Ionization: ESI
Fragmentation mode: HCD
Collision energy: 30 (nominal)
Resolution: 35000
Column name: XBridge C18 3.5 um, 2.1x50 mm, Waters with guard column
Retention time: 16.8 min
Base peak: 267.1229
Precursor m/z: 310.0163
Precursor type: [M+H]+
m/z	relative intensity	assigned
55.0179	9	C3H3O+
55.0542	3	C4H7+
57.0336	4	C3H5O+
57.0699	27	C4H9+
58.0651	36	C3H8N+
59.0492	37	C3H7O+
60.0444	7	C2H6NO+
67.0542	33	C5H7+
69.0699	39	C5H9+
70.0288	64	C3H4NO+
70.0652	84	C4H8N+
71.0492	6	C4H7O+
71.0855	30	C5H11+
72.0444	464	C3H6NO+
72.0808	36	C4H10N+
79.0542	29	C6H7+
81.0699	69	C6H9+
82.0734	6	CH10N2O2+
83.0492	8	C5H7O+
83.0855	27	C6H11+
85.0285	72	C4H5O2+
85.0648	14	C5H9O+
85.0887	15	C5H11N+
85.1013	20	C6H13+
86.0601	40	C4H8NO+
86.0965	248	C5H12N+
87.0442	8	C4H7O2+
91.0542	9	C7H7+
93.07	34	C7H9+
95.0492	8	C6H7O+
95.0856	59	C7H11+
96.089	8	C2H12N2O2+
97.0648	31	C6H9O+
97.1013	33	C7H13+
98.9845	5	CH4ClO3+
99.0806	5	C6H11O+
100.0757	91	C5H10NO+
101.0598	133	C5H9O2+
103.0754	4	C5H11O2+
105.0699	84	C8H9+
106.0733	31	C3H10N2O2+
107.0493	9	C7H7O+
107.0855	29	C8H11+
109.1012	58	C8H13+
110.1047	6	C3H14N2O2+
111.0441	7	C6H7O2+
111.0806	5	C7H11O+
113.096	8	C7H13O+
114.0914	999	C6H12NO+
115.0389	59	C2H10ClNO2+
117.07	10	C9H9+
119.0492	75	C8H7O+
119.0856	21	C9H11+
120.0527	44	C3H8N2O3+
120.0888	4	C4H12N2O2+
121.0648	6	C8H9O+
121.1012	27	C9H13+
122.1044	7	C4H14N2O2+
123.0805	6	C8H11O+
123.1168	15	C9H15+
124.0839	5	C3H12N2O3+
125.0595	3	C7H9O2+
125.0962	32	C8H13O+
126.0994	6	C3H14N2O3+
127.1117	23	C8H15O+
129.0698	8	C10H9+
131.0858	29	C10H11+
132.0887	5	C5H12N2O2+
133.0647	7	C9H9O+
133.1013	21	C10H13+
134.097	4	C9H12N+
135.0802	6	C9H11O+
135.1168	20	C10H15+
137.0598	7	C8H9O2+
137.0959	7	C9H13O+
139.0754	5	C8H11O2+
143.0856	9	C11H11+
145.0648	16	C10H9O+
145.1013	42	C11H13+
146.1046	26	C6H14N2O2+
147.0804	16	C10H11O+
147.117	9	C11H15+
149.0234	17	C5H8ClNO2+
149.0962	29	C10H13O+
151.0752	4	C9H11O2+
151.1119	14	C10H15O+
153.1021	29	C8H13N2O+
157.1015	5	C12H13+
159.0807	4	C11H11O+
159.117	5	C12H15+
161.0597	6	C10H9O2+
161.0962	19	C11H13O+
163.1119	16	C11H15O+
167.1066	5	C10H15O2+
170.0857	22	C10H15Cl+
173.0962	6	C12H13O+
174.0992	16	C7H14N2O3+
175.1116	6	C12H15O+
177.091	5	C11H13O2+
180.1015	5	C10H14NO2+
181.0858	7	C10H13O3+
191.107	17	C12H15O2+
209.1168	8	C10H15N3O2+
222.9483	5	C8H6Cl3O+
239.9746	6	C8H9Cl3NO+
282.0215	338	C11H15Cl3NO+
310.0163	272	C12H15Cl3NO2+
