Mass spectrum: PRZ_M477; LC-ESI-QFT; MS2; CE: 70; R=35000; [M+H]+
Name: PRZ_M477
Formula: C18H22Cl2N4O5S
Exact mass: 476.0688
SMILES: CCCN(CCOC1=C(Cl)C=C(O)C(SCC(N)C(O)=O)=C1Cl)C(=O)N1C=CN=C1
InChI: InChI=1S/C18H22Cl2N4O5S/c1-2-4-23(18(28)24-5-3-22-10-24)6-7-29-15-11(19)8-13(25)16(14(15)20)30-9-12(21)17(26)27/h3,5,8,10,12,25H,2,4,6-7,9,21H2,1H3,(H,26,27)
Instrument: Q Exactive Orbitrap Thermo Scientific
Instrument type: LC-ESI-QFT
Ms type: MS2
Ion mode: POSITIVE
Ionization: ESI
Fragmentation mode: HCD
Collision energy: 70 (nominal)
Resolution: 35000
Column name: XBridge C18 3.5 um, 2.1x50 mm, Waters with guard column
Retention time: 9.8 min
Base peak: 391.2845
Precursor m/z: 477.0761
Precursor type: [M+H]+
m/z	relative intensity	assigned
55.0541	23	C4H7+
56.0494	160	C3H6N+
58.0651	63	C3H8N+
61.0106	162	C2H5S+
69.0699	33	C5H9+
70.0287	268	C3H4NO+
70.0651	999	C4H8N+
72.0808	270	C4H10N+
74.0057	30	C2H4NS+
74.06	34	C3H8NO+
84.0444	202	C4H6NO+
84.0808	281	C5H10N+
86.0964	594	C5H12N+
88.0393	102	C3H6NO2+
91.0542	62	C7H7+
95.0494	30	C6H7O+
103.0543	34	C8H7+
104.0529	33	C4H10NS+
110.0712	182	C5H8N3+
120.0808	209	C8H10N+
129.1021	36	C6H13N2O+
136.076	40	C5H13ClN2+
189.0397	29	C4H12ClNO5+
205.0752	33	C6H13N4O2S+
214.9802	43	C8H6ClNO2S+
277.006	29	C8H15Cl2O4S+
