Mass spectrum: PRZ_M435; LC-ESI-QFT; MS2; CE: 70; R=35000; [M+H]+
Name: PRZ_M435
Exact mass: 434.0679
Instrument: Q Exactive Orbitrap Thermo Scientific
Instrument type: LC-ESI-QFT
Ms type: MS2
Ion mode: POSITIVE
Ionization: ESI
Fragmentation mode: HCD
Collision energy: 70 (nominal)
Resolution: 35000
Column name: XBridge C18 3.5 um, 2.1x50 mm, Waters with guard column
Retention time: 14.5 min
Base peak: 199.1693
Precursor m/z: 435.0752
Precursor type: [M+H]+
m/z	relative intensity
50.6437	5
51.7089	5
55.0543	11
55.5407	5
56.0495	10
57.0335	16
58.0944	5
60.0808	12
60.5891	6
67.0542	48
67.4434	6
69.0335	7
69.0699	14
70.0287	49
70.0652	29
71.0896	6
72.0809	8
74.9781	6
75.4117	6
78.904	6
79.0543	31
79.2454	8
81.0699	52
82.04	63
83.0494	7
86.0964	6
88.0217	6
91.0543	55
93.0699	17
95.0492	25
95.0856	16
98.937	7
98.9841	21
105.07	47
107.0857	11
109.0651	11
110.035	999
114.8315	7
115.1293	7
116.9663	10
117.0696	7
119.0855	27
121.1013	6
122.4519	8
131.0855	27
143.0857	10
154.0612	203
157.3419	6
158.9763	9
174.1281	11
182.8717	7
194.0375	7
209.9424	7
211.1252	6
230.4992	6
255.4732	7
269.5076	7
279.6466	7
286.017	7
