Mass spectrum: PRZ_M392a; LC-ESI-QFT; MS2; CE: 40; R=35000; [M+H]+
Name: PRZ_M392a
Formula: C15H16Cl3N3O3
Exact mass: 391.0257
SMILES: CC(O)CN(CCOC1=C(Cl)C=C(Cl)C=C1Cl)C(=O)N1C=CN=C1
InChI: InChI=1S/C15H16Cl3N3O3/c1-10(22)8-20(15(23)21-3-2-19-9-21)4-5-24-14-12(17)6-11(16)7-13(14)18/h2-3,6-7,9-10,22H,4-5,8H2,1H3
Instrument: Q Exactive Orbitrap Thermo Scientific
Instrument type: LC-ESI-QFT
Ms type: MS2
Ion mode: POSITIVE
Ionization: ESI
Fragmentation mode: HCD
Collision energy: 40 (nominal)
Resolution: 35000
Column name: XBridge C18 3.5 um, 2.1x50 mm, Waters with guard column
Retention time: 13.9 min
Base peak: 199.1691
Precursor m/z: 392.033
Precursor type: [M+H]+
m/z	relative intensity	assigned
55.0183	3	ClH6N+
59.0495	1	ClH10N+
65.0388	6	C5H5+
67.0544	1	C5H7+
69.0448	999	C3H5N2+
70.0288	5	C3H4NO+
70.0651	9	C4H8N+
71.0856	64	C5H11+
72.0444	2	C3H6NO+
79.0541	1	C6H7+
81.0699	2	C6H9+
84.0808	5	C5H10N+
95.0855	2	C7H11+
100.0394	59	C4H6NO2+
111.044	2	C6H7O2+
113.0597	20	C6H9O2+
121.0285	16	C7H5O2+
121.0398	1	C6H5N2O+
121.1014	1	C9H13+
122.0318	6	C2H6N2O4+
126.0225	1	C7H7Cl+
128.0706	15	C6H10NO2+
149.0235	730	C8H5O3+
163.0391	1	C9H7O3+
167.0338	6	C5H10ClNO3+
181.0503	1	C3H15Cl2N2O2+
210.9115	2	C6H2Cl3O2+
213.1159	1	C14H15NO+
222.948	2	C8H6Cl3O+
245.8986	1	C4HCl3N2O4+
251.9747	9	C9H9Cl3NO+
