Mass spectrum: PRZ_M573; LC-ESI-QFT; MS2; CE: 50; R=35000; [M+H]+
Name: PRZ_M573
Formula: C19H23Cl3N4O8S
Exact mass: 572.0302
SMILES: [H]N([H])[C@@H](CCC(=O)N([H])[C@@H](CSC(=O)NCCOC1=C(Cl)C=C(Cl)C=C1Cl)C(=O)N([H])CC(O)=O)C(O)=O
InChI: InChI=1S/C19H23Cl3N4O8S/c20-9-5-10(21)16(11(22)6-9)34-4-3-24-19(33)35-8-13(17(30)25-7-15(28)29)26-14(27)2-1-12(23)18(31)32/h5-6,12-13H,1-4,7-8,23H2,(H,24,33)(H,25,30)(H,26,27)(H,28,29)(H,31,32)/t12-,13-/m0/s1
Instrument: Q Exactive Orbitrap Thermo Scientific
Instrument type: LC-ESI-QFT
Ms type: MS2
Ion mode: POSITIVE
Ionization: ESI
Fragmentation mode: HCD
Collision energy: 50 (nominal)
Resolution: 35000
Column name: XBridge C18 3.5 um, 2.1x50 mm, Waters with guard column
Retention time: 13.8 min
Base peak: 199.1691
Precursor m/z: 573.0375
Precursor type: [M+H]+
m/z	relative intensity	assigned
52.0183	40	C3H2N+
55.0542	50	C4H7+
58.995	281	C2H3S+
70.0651	793	C4H8N+
72.0808	267	C4H10N+
76.0215	999	C2H6NS+
81.0699	58	C6H9+
84.0444	88	C4H6NO+
84.0808	192	C5H10N+
86.0964	765	C5H12N+
87.1	71	H13N3O2+
97.0649	48	C6H9O+
99.055	50	C4H7N2O+
101.9823	52	C2NO4+
102.0551	70	C4H8NO2+
110.0714	74	C5H8N3+
116.0164	294	C4H6NOS+
116.0704	49	C5H10NO2+
120.0806	262	C8H10N+
142.0322	178	C6H8NOS+
144.0111	78	CH13Cl3N+
162.0223	54	C2H11ClN2O2S+
187.1441	112	C9H19N2O2+
217.1336	72	C13H17N2O+
506.8876	46	C19H4Cl3N3O6S+
