Mass spectrum: PRZ_M282; LC-ESI-QFT; MS2; CE: 50; R=35000; [M+H]+
Name: PRZ_M282
Name: N-[2-(2,4,6-trichlorophenoxy)ethyl]propan-1-amine
Formula: C11H14Cl3NO
Exact mass: 281.0141
SMILES: CCCNCCOC1=C(Cl)C=C(Cl)C=C1Cl
InChI: InChI=1S/C11H14Cl3NO/c1-2-3-15-4-5-16-11-9(13)6-8(12)7-10(11)14/h6-7,15H,2-5H2,1H3
Instrument: Q Exactive Orbitrap Thermo Scientific
Instrument type: LC-ESI-QFT
Ms type: MS2
Ion mode: POSITIVE
Ionization: ESI
Fragmentation mode: HCD
Collision energy: 50 (nominal)
Resolution: 35000
Column name: XBridge C18 3.5 um, 2.1x50 mm, Waters with guard column
Retention time: 13.1 min
Base peak: 199.1689
Precursor m/z: 282.0214
Precursor type: [M+H]+
m/z	relative intensity	assigned
58.0651	633	C3H8N+
59.0729	14	C3H9N+
72.0807	324	C4H10N+
86.0964	999	C5H12N+
158.9761	44	C7H5Cl2+
161.9633	16	C6H4Cl2O+
179.9295	15	C6H3Cl3+
186.9709	10	C8H5Cl2O+
187.9789	55	C8H6Cl2O+
189.9818	12	C7H6Cl2NO+
194.9166	97	C6H2Cl3O+
196.932	59	C6H4Cl3O+
222.9476	88	C8H6Cl3O+
282.0213	102	C11H15Cl3NO+
