Mass spectrum: PRZ_M353; LC-ESI-QFT; MS2; CE: 10; R=35000; [M+H]+
Name: PRZ_M353
Name: MolPort-035-395-264
Name: N-[propyl-[2-(2,4,6-trichlorophenoxy)ethyl]carbamoyl]formamide
Formula: C13H15Cl3N2O3
Exact mass: 352.0148
SMILES: CCCN(CCOC1=C(Cl)C=C(Cl)C=C1Cl)C(=O)NC=O
InChI: InChI=1S/C13H15Cl3N2O3/c1-2-3-18(13(20)17-8-19)4-5-21-12-10(15)6-9(14)7-11(12)16/h6-8H,2-5H2,1H3,(H,17,19,20)
Instrument: Q Exactive Orbitrap Thermo Scientific
Instrument type: LC-ESI-QFT
Ms type: MS2
Ion mode: POSITIVE
Ionization: ESI
Fragmentation mode: HCD
Collision energy: 10 (nominal)
Resolution: 35000
Column name: XBridge C18 3.5 um, 2.1x50 mm, Waters with guard column
Retention time: 16.9 min
Base peak: 430.8881
Precursor m/z: 353.0221
Precursor type: [M+H]+
m/z	relative intensity	assigned
70.0286	8	C3H4NO+
70.0651	3	C4H8N+
85.0886	1	C5H11N+
105.0699	5	C8H9+
119.0491	1	C8H7O+
194.9158	1	C6H2Cl3O+
222.9478	2	C8H6Cl3O+
239.9744	18	C8H9Cl3NO+
244.029	2	C11H12Cl2NO+
265.9537	38	C9H7Cl3NO2+
280.0055	6	C11H13Cl3NO+
282.0214	6	C11H15Cl3NO+
283.9643	4	C9H9Cl3NO3+
308.0005	999	C12H13Cl3NO2+
309.0037	2	C7H14Cl3N3O4+
340.0269	2	C11H15Cl3N4O2+
353.022	429	C13H16Cl3N2O3+
