Mass spectrum: PRZ_M573; LC-ESI-QFT; MS2; CE: 10; R=35000; [M+H]+
Name: PRZ_M573
Formula: C19H23Cl3N4O8S
Exact mass: 572.0302
SMILES: [H]N([H])[C@@H](CCC(=O)N([H])[C@@H](CSC(=O)NCCOC1=C(Cl)C=C(Cl)C=C1Cl)C(=O)N([H])CC(O)=O)C(O)=O
InChI: InChI=1S/C19H23Cl3N4O8S/c20-9-5-10(21)16(11(22)6-9)34-4-3-24-19(33)35-8-13(17(30)25-7-15(28)29)26-14(27)2-1-12(23)18(31)32/h5-6,12-13H,1-4,7-8,23H2,(H,24,33)(H,25,30)(H,26,27)(H,28,29)(H,31,32)/t12-,13-/m0/s1
Instrument: Q Exactive Orbitrap Thermo Scientific
Instrument type: LC-ESI-QFT
Ms type: MS2
Ion mode: POSITIVE
Ionization: ESI
Fragmentation mode: HCD
Collision energy: 10 (nominal)
Resolution: 35000
Column name: XBridge C18 3.5 um, 2.1x50 mm, Waters with guard column
Retention time: 13.8 min
Base peak: 199.1691
Precursor m/z: 573.0375
Precursor type: [M+H]+
m/z	relative intensity	assigned
86.0963	37	C5H12N+
135.042	25	C2H12ClO4+
199.1693	42	C12H23O2+
199.9324	17	C2H2Cl2N4OS+
340.9681	96	C11H4ClN3O8+
411.9322	23	C12H9Cl3N3O5S+
443.9949	529	C14H17Cl3N3O5S+
459.041	24	C18H19Cl2N3O5S+
573.0373	999	C19H24Cl3N4O8S+
