Mass spectrum: PRZ_M325; LC-ESI-QFT; MS2; CE: 70; R=35000; [M+H]+
Name: PRZ_M325
Name: Urea, N-propyl-N-[2-(2,4,6-trichlorophenoxy)ethyl]-
Name: 1-propyl-1-[2-(2,4,6-trichlorophenoxy)ethyl]urea
Formula: C12H15Cl3N2O2
Exact mass: 324.0199
SMILES: CCCN(CCOC1=C(Cl)C=C(Cl)C=C1Cl)C(N)=O
InChI: InChI=1S/C12H15Cl3N2O2/c1-2-3-17(12(16)18)4-5-19-11-9(14)6-8(13)7-10(11)15/h6-7H,2-5H2,1H3,(H2,16,18)
Instrument: Q Exactive Orbitrap Thermo Scientific
Instrument type: LC-ESI-QFT
Ms type: MS2
Ion mode: POSITIVE
Ionization: ESI
Fragmentation mode: HCD
Collision energy: 70 (nominal)
Resolution: 35000
Column name: XBridge C18 3.5 um, 2.1x50 mm, Waters with guard column
Retention time: 17.2 min
Base peak: 277.1798
Precursor m/z: 325.0272
Precursor type: [M+H]+
m/z	relative intensity	assigned
53.0027	43	ClH4N+
55.0183	40	ClH6N+
55.0547	387	
57.0703	247	
58.0655	617	
59.0495	32	ClH10N+
65.0387	25	C5H5+
67.0543	710	C5H7+
69.0336	42	C4H5O+
69.0699	624	C5H9+
70.0287	102	C3H4NO+
70.0651	92	C4H8N+
71.0491	57	C4H7O+
71.0855	105	C5H11+
72.0807	160	C4H10N+
73.0397	47	C2H5N2O+
77.0387	23	C6H5+
79.0542	570	C6H7+
81.0699	643	C6H9+
83.0491	127	C5H7O+
83.0856	232	C6H11+
85.0648	31	C5H9O+
86.0964	999	C5H12N+
87.0553	953	C3H7N2O+
91.0542	600	C7H7+
93.0699	529	C7H9+
95.0491	285	C6H7O+
95.0855	518	C7H11+
97.0649	219	C6H9O+
101.0707	21	C4H9N2O+
103.0542	27	C8H7+
105.045	33	C6H5N2+
105.0699	665	C8H9+
107.0491	52	C7H7O+
107.0856	264	C8H11+
109.0286	32	C6H5O2+
109.0648	133	C7H9O+
109.1011	191	C8H13+
111.044	103	C6H7O2+
111.0804	28	C7H11O+
115.0541	41	C9H7+
117.0699	101	C9H9+
119.0491	161	C8H7O+
119.0604	43	C7H7N2+
119.0856	172	C9H11+
121.0649	51	C8H9O+
121.1011	127	C9H13+
123.0438	88	C7H7O2+
123.0804	236	C8H11O+
125.0961	25	C8H13O+
128.062	128	C10H8+
129.07	37	C10H9+
129.1023	590	C6H13N2O+
130.0783	27	C10H10+
131.0855	143	C10H11+
133.1012	47	C10H13+
135.0806	44	C9H11O+
143.0857	44	C11H11+
145.1014	30	C11H13+
159.1174	43	C12H15+
161.0961	36	C11H13O+
161.9635	35	C6H4Cl2O+
166.9219	56	C5H2Cl3+
194.9166	31	C6H2Cl3O+
