Mass spectrum: PRZ_M323b; LC-ESI-QFT; MS2; CE: 50; R=35000; [M+H]+
Name: PRZ_M323b
Formula: C12H12Cl3NO3
Exact mass: 322.9883
SMILES: CC(=O)CN(CCOC1=C(Cl)C=C(Cl)C=C1Cl)C=O
InChI: InChI=1S/C12H12Cl3NO3/c1-8(18)6-16(7-17)2-3-19-12-10(14)4-9(13)5-11(12)15/h4-5,7H,2-3,6H2,1H3
Instrument: Q Exactive Orbitrap Thermo Scientific
Instrument type: LC-ESI-QFT
Ms type: MS2
Ion mode: POSITIVE
Ionization: ESI
Fragmentation mode: HCD
Collision energy: 50 (nominal)
Resolution: 35000
Column name: XBridge C18 3.5 um, 2.1x50 mm, Waters with guard column
Retention time: 16.1 min
Base peak: 174.1279
Precursor m/z: 323.9956
Precursor type: [M+H]+
m/z	relative intensity	assigned
53.0022	16	C3HO+
55.0542	19	C4H7+
56.0495	491	C3H6N+
57.0573	23	C3H7N+
57.0699	30	C4H9+
58.0652	5	C3H8N+
59.0491	66	C3H7O+
67.0542	84	C5H7+
69.0699	15	C5H9+
70.0651	999	C4H8N+
81.07	5	C6H9+
82.0652	14	C5H8N+
83.0855	6	C6H11+
84.0808	827	C5H10N+
85.0886	213	C5H11N+
100.0394	18	C4H6NO2+
125.015	3	C7H6Cl+
128.0706	113	C6H10NO2+
158.9763	5	C7H5Cl2+
161.9633	4	C6H4Cl2O+
179.9293	4	C6H3Cl3+
222.948	8	C8H6Cl3O+
251.9751	4	C9H9Cl3NO+
280.0057	8	C11H13Cl3NO+
