Mass spectrum: PRZ_M392a; LC-ESI-QFT; MS2; CE: 30; R=35000; [M+H]+
Name: PRZ_M392a
Formula: C15H16Cl3N3O3
Exact mass: 391.0257
SMILES: CC(O)CN(CCOC1=C(Cl)C=C(Cl)C=C1Cl)C(=O)N1C=CN=C1
InChI: InChI=1S/C15H16Cl3N3O3/c1-10(22)8-20(15(23)21-3-2-19-9-21)4-5-24-14-12(17)6-11(16)7-13(14)18/h2-3,6-7,9-10,22H,4-5,8H2,1H3
Instrument: Q Exactive Orbitrap Thermo Scientific
Instrument type: LC-ESI-QFT
Ms type: MS2
Ion mode: POSITIVE
Ionization: ESI
Fragmentation mode: HCD
Collision energy: 30 (nominal)
Resolution: 35000
Column name: XBridge C18 3.5 um, 2.1x50 mm, Waters with guard column
Retention time: 13.9 min
Base peak: 199.1691
Precursor m/z: 392.033
Precursor type: [M+H]+
m/z	relative intensity	assigned
67.0543	1	C5H7+
69.0448	999	C3H5N2+
70.0288	2	C3H4NO+
70.0652	2	C4H8N+
71.0856	103	C5H11+
72.0445	1	C3H6NO+
84.0809	7	C5H10N+
97.1013	1	C7H13+
100.0394	49	C4H6NO2+
109.0395	1	C5H5N2O+
113.0598	50	C6H9O2+
128.0707	76	C6H10NO2+
149.0235	661	C8H5O3+
155.9743	1	CH9Cl3NO+
167.034	47	C5H10ClNO3+
210.9124	1	C6H2Cl3O2+
251.9745	35	C9H9Cl3NO+
323.9957	26	C12H13Cl3NO3+
