Mass spectrum: PRZ_M429; LC-ESI-QFT; MS2; CE: 20; R=35000; [M+H]+
Name: PRZ_M429
Formula: C15H19Cl3N2O4S
Exact mass: 428.0131
SMILES: CCCN(CCOC1=C(Cl)C=C(Cl)C=C1Cl)C(=O)SCC(N)C(O)=O
InChI: InChI=1S/C15H19Cl3N2O4S/c1-2-3-20(15(23)25-8-12(19)14(21)22)4-5-24-13-10(17)6-9(16)7-11(13)18/h6-7,12H,2-5,8,19H2,1H3,(H,21,22)
Instrument: Q Exactive Orbitrap Thermo Scientific
Instrument type: LC-ESI-QFT
Ms type: MS2
Ion mode: POSITIVE
Ionization: ESI
Fragmentation mode: HCD
Collision energy: 20 (nominal)
Resolution: 35000
Column name: XBridge C18 3.5 um, 2.1x50 mm, Waters with guard column
Retention time: 16.6 min
Base peak: 315.171
Precursor m/z: 429.0204
Precursor type: [M+H]+
m/z	relative intensity	assigned
60.0444	4	C2H6NO+
60.0808	2	C3H10N+
69.0698	4	C5H9+
70.0287	42	C3H4NO+
70.0651	13	C4H8N+
76.0215	10	C2H6NS+
81.0699	1	C6H9+
83.0855	2	C6H11+
85.0886	6	C5H11N+
86.0965	1	C5H12N+
93.0701	1	C7H9+
95.0856	2	C7H11+
98.9841	3	CH4ClO3+
105.07	1	C8H9+
107.0855	1	C8H11+
109.1012	3	C8H13+
113.0961	6	C7H13O+
121.101	1	C9H13+
123.1167	1	C9H15+
127.1117	7	C8H15O+
133.1012	1	C10H13+
146.0633	2	C6H12NOS+
147.1169	1	C11H15+
159.1164	1	C12H15+
161.1325	1	C12H17+
194.9161	1	C6H2Cl3O+
201.9823	4	C8H6Cl2NO+
208.9533	2	C4H8Cl3O3+
215.1279	6	C11H19O4+
222.9476	5	C8H6Cl3O+
237.9587	3	C8H7Cl3NO+
239.9744	78	C8H9Cl3NO+
244.0288	11	C11H12Cl2NO+
265.9537	84	C9H7Cl3NO2+
280.0058	23	C11H13Cl3NO+
282.0214	65	C11H15Cl3NO+
283.9642	21	C9H9Cl3NO3+
297.9793	1	C13H8Cl2O4+
308.0006	999	C12H13Cl3NO2+
309.0043	4	C13H16Cl3S+
326.0114	11	C12H15Cl3NO3+
340.0266	3	C13H17Cl3NO3+
341.9879	8	C15H12Cl2O3S+
351.1137	1	C15H19N4O4S+
383.0149	36	C14H18Cl3N2O2S+
411.9937	35	C15H17Cl3NO4S+
429.0203	101	C15H20Cl3N2O4S+
