Mass spectrum: PRZ_M323a; LC-ESI-QFT; MS2; CE: 10; R=35000; [M+H]+
Name: PRZ_M323a
Formula: C12H12Cl3NO3
Exact mass: 322.9883
SMILES: CC(=O)CN(CCOC1=C(Cl)C=C(Cl)C=C1Cl)C=O
InChI: InChI=1S/C12H12Cl3NO3/c1-8(18)6-16(7-17)2-3-19-12-10(14)4-9(13)5-11(12)15/h4-5,7H,2-3,6H2,1H3
Instrument: Q Exactive Orbitrap Thermo Scientific
Instrument type: LC-ESI-QFT
Ms type: MS2
Ion mode: POSITIVE
Ionization: ESI
Fragmentation mode: HCD
Collision energy: 10 (nominal)
Resolution: 35000
Column name: XBridge C18 3.5 um, 2.1x50 mm, Waters with guard column
Retention time: 15.8 min
Base peak: 213.1848
Precursor m/z: 323.9956
Precursor type: [M+H]+
m/z	relative intensity	assigned
56.0495	4	C3H6N+
84.0808	5	C5H10N+
100.0393	34	C4H6NO2+
128.0706	186	C6H10NO2+
156.0326	4	C6H7ClN3+
251.9744	22	C9H9Cl3NO+
280.0058	3	C11H13Cl3NO+
323.9954	999	C12H13Cl3NO3+
