Mass spectrum: PRZ_M429; LC-ESI-QFT; MS2; CE: 50; R=35000; [M+H]+
Name: PRZ_M429
Formula: C15H19Cl3N2O4S
Exact mass: 428.0131
SMILES: CCCN(CCOC1=C(Cl)C=C(Cl)C=C1Cl)C(=O)SCC(N)C(O)=O
InChI: InChI=1S/C15H19Cl3N2O4S/c1-2-3-20(15(23)25-8-12(19)14(21)22)4-5-24-13-10(17)6-9(16)7-11(13)18/h6-7,12H,2-5,8,19H2,1H3,(H,21,22)
Instrument: Q Exactive Orbitrap Thermo Scientific
Instrument type: LC-ESI-QFT
Ms type: MS2
Ion mode: POSITIVE
Ionization: ESI
Fragmentation mode: HCD
Collision energy: 50 (nominal)
Resolution: 35000
Column name: XBridge C18 3.5 um, 2.1x50 mm, Waters with guard column
Retention time: 16.6 min
Base peak: 315.171
Precursor m/z: 429.0204
Precursor type: [M+H]+
m/z	relative intensity	assigned
53.0022	12	C3HO+
55.0542	12	C4H7+
56.0495	59	C3H6N+
57.0573	22	C3H7N+
57.0698	4	C4H9+
58.0651	3	C3H8N+
58.995	4	C2H3S+
60.0444	82	C2H6NO+
60.0807	18	C3H10N+
67.0542	29	C5H7+
68.0494	3	C4H6N+
69.0699	54	C5H9+
70.0287	999	C3H4NO+
70.0651	750	C4H8N+
71.0491	4	C4H7O+
71.0855	5	C5H11+
72.0444	17	C3H6NO+
72.0808	5	C4H10N+
74.0058	5	C2H4NS+
74.0597	3	C3H8NO+
76.0215	14	C2H6NS+
79.0542	28	C6H7+
81.0699	50	C6H9+
83.0491	20	C5H7O+
83.0855	29	C6H11+
84.0808	18	C5H10N+
85.0284	4	C4H5O2+
85.0886	74	C5H11N+
86.0964	13	C5H12N+
88.0215	6	C3H6NS+
88.0393	28	C3H6NO2+
91.0542	18	C7H7+
93.0699	42	C7H9+
95.0491	6	C6H7O+
95.0855	56	C7H11+
96.0808	3	C6H10N+
97.0647	6	C6H9O+
97.1013	6	C7H13+
98.06	34	C5H8NO+
98.9841	48	CH4ClO3+
101.0597	22	C5H9O2+
102.037	3	C4H8NS+
104.0165	4	C3H6NOS+
104.0494	3	C7H6N+
105.0699	34	C8H9+
107.0856	41	C8H11+
109.065	5	C7H9O+
109.1011	32	C8H13+
111.044	17	C6H7O2+
111.0804	5	C7H11O+
112.0757	6	C6H10NO+
113.0834	12	C6H11NO+
116.0164	19	C4H6NOS+
117.0699	4	C9H9+
119.0856	29	C9H11+
120.0114	3	C3H6NO2S+
121.0646	5	C8H9O+
121.1009	22	C9H13+
123.1167	6	C9H15+
129.0548	13	C6H9O3+
130.032	3	C5H8NOS+
131.0856	16	C10H11+
133.1012	20	C10H13+
135.1169	13	C10H15+
138.0104	12	C7H5ClN+
143.0855	11	C11H11+
145.1011	22	C11H13+
146.0636	15	C6H12NOS+
147.1169	26	C11H15+
149.0961	3	C10H13O+
149.1327	4	C11H17+
157.1011	3	C12H13+
158.9762	39	C7H5Cl2+
159.1171	19	C12H15+
159.9842	13	C7H6Cl2+
161.1323	27	C12H17+
161.9635	18	C6H4Cl2O+
166.0052	23	C8H5ClNO+
166.9218	17	C5H2Cl3+
167.013	22	C11H3O2+
171.1168	4	C13H15+
173.0956	4	C4H17N2O3S+
173.1327	5	C13H17+
173.987	44	C7H6Cl2N+
174.9711	56	C7H5Cl2O+
179.9296	13	C6H3Cl3+
180.021	3	C9H7ClNO+
183.1169	3	C14H15+
185.1326	3	C14H17+
186.971	5	C8H5Cl2O+
187.1484	5	C14H19+
187.9792	15	C8H6Cl2O+
194.9165	161	C6H2Cl3O+
194.953	15	C7H6Cl3+
196.932	52	C6H4Cl3O+
201.9818	47	C11H3ClO2+
202.9902	3	C5H10Cl3N2+
209.0604	5	C11H12ClNO+
215.1283	3	C11H19O4+
215.9977	7	C9H8Cl2NO+
222.9479	103	C8H6Cl3O+
237.9589	13	C8H7Cl3NO+
244.03	4	C5H18Cl2O4S+
245.0372	17	C8H16Cl3N2+
265.9529	9	C12H4Cl2O3+
280.0063	5	C15H6NO3S+
308.0014	5	C13H9ClN2O3S+
