Mass spectrum: PRZ_M477; LC-ESI-QFT; MS2; CE: 10; R=35000; [M+H]+
Name: PRZ_M477
Formula: C18H22Cl2N4O5S
Exact mass: 476.0688
SMILES: CCCN(CCOC1=C(Cl)C=C(O)C(SCC(N)C(O)=O)=C1Cl)C(=O)N1C=CN=C1
InChI: InChI=1S/C18H22Cl2N4O5S/c1-2-4-23(18(28)24-5-3-22-10-24)6-7-29-15-11(19)8-13(25)16(14(15)20)30-9-12(21)17(26)27/h3,5,8,10,12,25H,2,4,6-7,9,21H2,1H3,(H,26,27)
Instrument: Q Exactive Orbitrap Thermo Scientific
Instrument type: LC-ESI-QFT
Ms type: MS2
Ion mode: POSITIVE
Ionization: ESI
Fragmentation mode: HCD
Collision energy: 10 (nominal)
Resolution: 35000
Column name: XBridge C18 3.5 um, 2.1x50 mm, Waters with guard column
Retention time: 9.8 min
Base peak: 391.2845
Precursor m/z: 477.0761
Precursor type: [M+H]+
m/z	relative intensity	assigned
69.0447	80	C3H5N2+
86.0964	28	C5H12N+
231.116	57	C10H19N2O2S+
245.113	19	C10H17N2O5+
247.1303	15	C7H22ClN3O4+
258.1092	14	C7H19ClN4O4+
263.1399	97	C11H22ClN3O2+
293.1496	82	C15H21N2O4+
313.1647	15	C17H21N4O2+
337.0539	729	C13H19Cl2N2O2S+
346.1431	18	C17H21ClN5O+
371.0811	13	C18H21Cl2O4+
381.044	955	C14H19Cl2N2O4S+
409.0387	780	C15H19Cl2N2O5S+
422.1031	13	C15H23ClN4O6S+
457.9037	16	C18H2Cl2N3O6S+
471.0924	15	C18H21Cl2N6O5+
477.076	999	C18H23Cl2N4O5S+
