Mass spectrum: PRZ_M382; LC-ESI-QFT; MS2; CE: 30; R=35000; [M+H]+
Name: PRZ_M382
Formula: C14H18Cl3N3O3
Exact mass: 381.0414
SMILES: CCCN(CCOC1=C(Cl)C=C(Cl)C=C1Cl)C(=O)N(CO)C=N
InChI: InChI=1S/C14H18Cl3N3O3/c1-2-3-19(14(22)20(8-18)9-21)4-5-23-13-11(16)6-10(15)7-12(13)17/h6-8,18,21H,2-5,9H2,1H3
Instrument: Q Exactive Orbitrap Thermo Scientific
Instrument type: LC-ESI-QFT
Ms type: MS2
Ion mode: POSITIVE
Ionization: ESI
Fragmentation mode: HCD
Collision energy: 30 (nominal)
Resolution: 35000
Column name: XBridge C18 3.5 um, 2.1x50 mm, Waters with guard column
Retention time: 16.6 min
Base peak: 288.2897
Precursor m/z: 382.0487
Precursor type: [M+H]+
m/z	relative intensity	assigned
59.0491	1	C3H7O+
60.0444	8	C2H6NO+
60.0808	1	C3H10N+
67.0542	1	C5H7+
69.0699	2	C5H9+
70.0287	76	C3H4NO+
70.0651	40	C4H8N+
72.0808	1	C4H10N+
74.0963	4	C4H12N+
81.0698	1	C6H9+
85.0284	2	C4H5O2+
85.0886	15	C5H11N+
86.0963	1	C5H12N+
88.0392	1	C3H6NO2+
88.0756	1	C4H10NO+
91.0542	2	C7H7+
93.0698	1	C7H9+
95.0854	2	C7H11+
97.1013	1	C7H13+
101.0596	1	C5H9O2+
106.0418	1	C4H9ClN+
107.0854	2	C8H11+
117.0698	1	C9H9+
119.0851	1	C9H11+
121.0649	1	C8H9O+
121.101	3	C9H13+
123.1168	1	C9H15+
125.0957	1	C8H13O+
126.0217	1	C8H2N2+
129.0697	1	C10H9+
131.0857	1	C10H11+
133.1012	1	C10H13+
135.1167	1	C10H15+
145.1012	2	C11H13+
153.0909	1	C9H13O2+
171.1167	1	C13H15+
174.971	3	C7H5Cl2O+
175.1478	1	C13H19+
194.9163	2	C6H2Cl3O+
195.0911	3	C13H11N2+
201.982	11	C8H6Cl2NO+
208.0521	1	C14H8O2+
222.9482	13	C8H6Cl3O+
225.9773	1	C5H6Cl2N3O3+
237.9588	4	C8H7Cl3NO+
239.9745	75	C8H9Cl3NO+
244.029	20	C11H12Cl2NO+
245.0369	4	C11H13Cl2NO+
248.0227	1	C11H7ClN3O2+
265.9537	75	C9H7Cl3NO2+
280.0057	33	C11H13Cl3NO+
282.0216	22	C11H15Cl3NO+
283.9644	17	C9H9Cl3NO3+
308.0006	999	C12H13Cl3NO2+
326.011	1	C12H15Cl3NO3+
337.0277	5	C13H16Cl3N2O2+
365.0215	17	C14H16Cl3N2O3+
