Mass spectrum: PRZ_M353; LC-ESI-QFT; MS2; CE: 70; R=35000; [M+H]+
Name: PRZ_M353
Name: MolPort-035-395-264
Name: N-[propyl-[2-(2,4,6-trichlorophenoxy)ethyl]carbamoyl]formamide
Formula: C13H15Cl3N2O3
Exact mass: 352.0148
SMILES: CCCN(CCOC1=C(Cl)C=C(Cl)C=C1Cl)C(=O)NC=O
InChI: InChI=1S/C13H15Cl3N2O3/c1-2-3-18(13(20)17-8-19)4-5-21-12-10(15)6-9(14)7-11(12)16/h6-8H,2-5H2,1H3,(H,17,19,20)
Instrument: Q Exactive Orbitrap Thermo Scientific
Instrument type: LC-ESI-QFT
Ms type: MS2
Ion mode: POSITIVE
Ionization: ESI
Fragmentation mode: HCD
Collision energy: 70 (nominal)
Resolution: 35000
Column name: XBridge C18 3.5 um, 2.1x50 mm, Waters with guard column
Retention time: 16.9 min
Base peak: 430.8881
Precursor m/z: 353.0221
Precursor type: [M+H]+
m/z	relative intensity	assigned
53.0022	38	C3HO+
55.0541	4	C4H7+
56.0495	214	C3H6N+
57.0573	48	C3H7N+
60.0444	8	C2H6NO+
67.0542	25	C5H7+
68.0495	5	C4H6N+
69.07	9	C5H9+
70.0287	999	C3H4NO+
70.0651	885	C4H8N+
72.0443	32	C3H6NO+
79.0542	32	C6H7+
81.0699	12	C6H9+
84.0807	9	C5H10N+
85.0885	7	C5H11N+
91.0542	35	C7H7+
93.0699	22	C7H9+
95.0491	26	C6H7O+
95.0855	7	C7H11+
98.06	36	C5H8NO+
98.9841	58	CH4ClO3+
105.0698	79	C8H9+
107.0855	11	C8H11+
109.0649	6	C7H9O+
112.0756	9	C6H10NO+
115.0541	8	C9H7+
122.9995	25	C7H4Cl+
123.0805	6	C8H11O+
125.0152	20	C7H6Cl+
129.0693	5	C10H9+
131.0493	6	C9H7O+
131.0855	7	C10H11+
132.9604	73	C5H3Cl2+
138.0104	12	C7H5ClN+
141.0696	6	C11H9+
142.0777	58	C11H10+
146.9765	9	C6H5Cl2+
157.101	7	C12H13+
158.9762	103	C7H5Cl2+
159.9838	47	C7H6Cl2+
160.9554	43	C6H3Cl2O+
161.9633	164	C6H4Cl2O+
166.9216	300	C5H2Cl3+
167.0133	27	C8H6ClNO+
173.9873	27	C7H6Cl2N+
174.971	45	C7H5Cl2O+
179.9295	83	C6H3Cl3+
186.971	6	C8H5Cl2O+
187.9784	39	C8H6Cl2O+
194.9165	204	C6H2Cl3O+
196.9318	70	C6H4Cl3O+
206.9277	7	C6H2Cl3N2+
211.9636	7	C3H9Cl3NO3+
