Mass spectrum: PRZ_M392a; LC-ESI-QFT; MS2; CE: 60; R=35000; [M+H]+
Name: PRZ_M392a
Formula: C15H16Cl3N3O3
Exact mass: 391.0257
SMILES: CC(O)CN(CCOC1=C(Cl)C=C(Cl)C=C1Cl)C(=O)N1C=CN=C1
InChI: InChI=1S/C15H16Cl3N3O3/c1-10(22)8-20(15(23)21-3-2-19-9-21)4-5-24-14-12(17)6-11(16)7-13(14)18/h2-3,6-7,9-10,22H,4-5,8H2,1H3
Instrument: Q Exactive Orbitrap Thermo Scientific
Instrument type: LC-ESI-QFT
Ms type: MS2
Ion mode: POSITIVE
Ionization: ESI
Fragmentation mode: HCD
Collision energy: 60 (nominal)
Resolution: 35000
Column name: XBridge C18 3.5 um, 2.1x50 mm, Waters with guard column
Retention time: 13.9 min
Base peak: 199.1691
Precursor m/z: 392.033
Precursor type: [M+H]+
m/z	relative intensity	assigned
53.0027	2	ClH4N+
55.0183	10	ClH6N+
59.0495	1	ClH10N+
65.0388	45	C5H5+
66.0421	11	H6N2O2+
67.0544	3	C5H7+
69.0448	999	C3H5N2+
70.0288	3	C3H4NO+
70.0651	14	C4H8N+
71.0855	25	C5H11+
81.0699	2	C6H9+
84.0809	2	C5H10N+
93.0335	20	C6H5O+
93.0698	1	C7H9+
94.0369	6	CH6N2O3+
100.0394	29	C4H6NO2+
111.0441	13	C6H7O2+
112.0476	3	CH8N2O4+
113.0598	2	C6H9O2+
121.0284	137	C7H5O2+
121.0397	36	C6H5N2O+
122.0318	63	C2H6N2O4+
122.043	11	CH6N4O3+
124.0606	1	ClH13N2O3+
128.0705	2	C6H10NO2+
149.0235	546	C8H5O3+
158.9757	2	C7H5Cl2+
161.9635	2	C6H4Cl2O+
167.0338	3	C5H10ClNO3+
179.9299	2	C6H3Cl3+
192.9371	3	C7H4Cl3+
194.9163	2	C6H2Cl3O+
196.9317	2	C6H4Cl3O+
