Mass spectrum: PRZ_M382; LC-ESI-QFT; MS2; CE: 20; R=35000; [M+H]+
Name: PRZ_M382
Formula: C14H18Cl3N3O3
Exact mass: 381.0414
SMILES: CCCN(CCOC1=C(Cl)C=C(Cl)C=C1Cl)C(=O)N(CO)C=N
InChI: InChI=1S/C14H18Cl3N3O3/c1-2-3-19(14(22)20(8-18)9-21)4-5-23-13-11(16)6-10(15)7-12(13)17/h6-8,18,21H,2-5,9H2,1H3
Instrument: Q Exactive Orbitrap Thermo Scientific
Instrument type: LC-ESI-QFT
Ms type: MS2
Ion mode: POSITIVE
Ionization: ESI
Fragmentation mode: HCD
Collision energy: 20 (nominal)
Resolution: 35000
Column name: XBridge C18 3.5 um, 2.1x50 mm, Waters with guard column
Retention time: 16.6 min
Base peak: 288.2897
Precursor m/z: 382.0487
Precursor type: [M+H]+
m/z	relative intensity	assigned
59.0491	1	C3H7O+
60.0809	2	C3H10N+
70.0286	15	C3H4NO+
70.0652	4	C4H8N+
74.0965	6	C4H12N+
87.0442	1	C4H7O2+
93.07	1	C7H9+
97.1012	1	C7H13+
109.101	1	C8H13+
117.0698	1	C9H9+
123.0802	1	C8H11O+
130.0502	1	C2H11ClN2O2+
133.1009	1	C10H13+
147.0808	1	C7H14ClN+
172.1329	1	C9H18NO2+
173.0966	1	C9H16ClN+
217.1223	1	C14H17O2+
222.9479	1	C8H6Cl3O+
239.9744	17	C8H9Cl3NO+
265.9538	19	C9H7Cl3NO2+
280.005	2	C14H10Cl2O2+
282.0216	21	C11H15Cl3NO+
283.9643	5	C9H9Cl3NO3+
285.9961	1	C13H11Cl3N+
308.0006	999	C12H13Cl3NO2+
309.0052	1	C13H9Cl2N3O2+
313.9909	35	C14H11Cl3NO+
337.027	119	C13H16Cl3N2O2+
340.0268	3	C13H17Cl3NO3+
355.038	2	C13H18Cl3N2O3+
365.0221	474	C14H16Cl3N2O3+
382.0488	4	C14H19Cl3N3O3+
