Mass spectrum: PRZ_M323b; LC-ESI-QFT; MS2; CE: 10; R=35000; [M+H]+
Name: PRZ_M323b
Formula: C12H12Cl3NO3
Exact mass: 322.9883
SMILES: CC(=O)CN(CCOC1=C(Cl)C=C(Cl)C=C1Cl)C=O
InChI: InChI=1S/C12H12Cl3NO3/c1-8(18)6-16(7-17)2-3-19-12-10(14)4-9(13)5-11(12)15/h4-5,7H,2-3,6H2,1H3
Instrument: Q Exactive Orbitrap Thermo Scientific
Instrument type: LC-ESI-QFT
Ms type: MS2
Ion mode: POSITIVE
Ionization: ESI
Fragmentation mode: HCD
Collision energy: 10 (nominal)
Resolution: 35000
Column name: XBridge C18 3.5 um, 2.1x50 mm, Waters with guard column
Retention time: 16.1 min
Base peak: 174.1279
Precursor m/z: 323.9956
Precursor type: [M+H]+
m/z	relative intensity	assigned
56.0495	3	C3H6N+
57.0698	1	C4H9+
59.0491	6	C3H7O+
70.0651	8	C4H8N+
84.0808	87	C5H10N+
85.0885	8	C5H11N+
117.0909	2	C6H13O2+
128.0706	314	C6H10NO2+
280.0057	266	C11H13Cl3NO+
323.9955	999	C12H13Cl3NO3+
