Mass spectrum: PRZ_M310; LC-ESI-QFT; MS2; CE: 50; R=35000; [M+H]+
Name: PRZ_M310
Formula: C12H14Cl3NO2
Exact mass: 309.0090
SMILES: CCCN(CCOC1=C(Cl)C=C(Cl)C=C1Cl)C=O
InChI: InChI=1S/C12H14Cl3NO2/c1-2-3-16(8-17)4-5-18-12-10(14)6-9(13)7-11(12)15/h6-8H,2-5H2,1H3
Instrument: Q Exactive Orbitrap Thermo Scientific
Instrument type: LC-ESI-QFT
Ms type: MS2
Ion mode: POSITIVE
Ionization: ESI
Fragmentation mode: HCD
Collision energy: 50 (nominal)
Resolution: 35000
Column name: XBridge C18 3.5 um, 2.1x50 mm, Waters with guard column
Retention time: 16.8 min
Base peak: 267.1229
Precursor m/z: 310.0163
Precursor type: [M+H]+
m/z	relative intensity	assigned
53.0023	11	C3HO+
55.0179	43	C3H3O+
55.0543	60	C4H7+
56.0495	32	C3H6N+
57.0335	13	C3H5O+
57.0699	132	C4H9+
58.0652	123	C3H8N+
59.0491	73	C3H7O+
60.0808	8	C3H10N+
67.0543	167	C5H7+
69.0336	12	C4H5O+
69.0699	131	C5H9+
70.0288	53	C3H4NO+
70.0651	131	C4H8N+
71.0492	63	C4H7O+
71.0855	50	C5H11+
72.0444	999	C3H6NO+
72.0808	66	C4H10N+
79.0543	143	C6H7+
81.0335	15	C5H5O+
81.0699	167	C6H9+
82.0733	32	CH10N2O2+
83.0491	32	C5H7O+
83.0856	74	C6H11+
84.0808	11	C5H10N+
85.0284	95	C4H5O2+
85.0649	12	C5H9O+
85.1012	16	C6H13+
86.0601	246	C4H8NO+
86.0965	88	C5H12N+
87.0441	54	C4H7O2+
87.0679	36	C4H9NO+
91.0542	136	C7H7+
93.0699	128	C7H9+
94.0733	30	C2H10N2O2+
95.0491	46	C6H7O+
95.0856	115	C7H11+
96.0889	18	C2H12N2O2+
97.0649	37	C6H9O+
97.1012	44	C7H13+
98.0964	18	C6H12N+
100.0757	251	C5H10NO+
101.0598	128	C5H9O2+
105.07	227	C8H9+
106.0733	53	C3H10N2O2+
107.049	27	C7H7O+
107.0856	85	C8H11+
108.089	31	C3H12N2O2+
109.0649	47	C7H9O+
109.1012	73	C8H13+
110.0682	12	C2H10N2O3+
111.044	14	C6H7O2+
114.0914	304	C6H12NO+
115.039	60	C2H10ClNO2+
117.0699	57	C9H9+
118.0733	16	C4H10N2O2+
119.0492	144	C8H7O+
119.0604	8	C7H7N2+
119.0856	83	C9H11+
120.0526	81	C3H8N2O3+
120.0889	35	C4H12N2O2+
121.0647	18	C8H9O+
121.1012	64	C9H13+
123.0441	11	C7H7O2+
123.0806	15	C8H11O+
123.1172	9	C9H15+
125.0595	9	C7H9O2+
126.0219	50	C8H2N2+
129.0655	10	C5H9N2O2+
129.0699	42	C10H9+
130.0778	10	C10H10+
131.0854	104	C10H11+
133.0647	12	C9H9O+
133.1013	82	C10H13+
134.0683	8	C4H10N2O3+
135.0805	15	C9H11O+
135.1168	18	C10H15+
137.0597	37	C8H9O2+
143.0857	33	C11H11+
144.0894	10	C6H12N2O2+
145.1014	54	C11H13+
146.1047	36	C6H14N2O2+
147.117	14	C11H15+
149.0236	39	C5H8ClNO2+
149.0963	47	C10H13O+
151.1117	10	C10H15O+
153.1022	31	C8H13N2O+
158.0965	15	C11H12N+
159.0803	9	C11H11O+
159.1166	30	C12H15+
161.0964	10	C11H13O+
163.1114	13	C11H15O+
165.0541	8	C9H9O3+
170.0859	45	C10H15Cl+
173.0965	11	C12H13O+
175.1119	16	C12H15O+
179.1067	8	C11H15O2+
194.105	7	C10H14N2O2+
194.917	10	C6H2Cl3O+
196.9318	11	C6H4Cl3O+
222.9477	19	C8H6Cl3O+
282.0218	11	C11H15Cl3NO+
