Mass spectrum: PRZ_M469; LC-ESI-QFT; MS2; CE: 20; R=35000; [M-H]-
Name: PRZ_M469
Formula: C15H16Cl3N3O6S
Exact mass: 470.9825
SMILES: CCCN(CCOC1=C(Cl)C=C(Cl)C(OS(O)(=O)=O)=C1Cl)C(=O)N1C=CN=C1
InChI: InChI=1S/C15H16Cl3N3O6S/c1-2-4-20(15(22)21-5-3-19-9-21)6-7-26-13-10(16)8-11(17)14(12(13)18)27-28(23,24)25/h3,5,8-9H,2,4,6-7H2,1H3,(H,23,24,25)
Instrument: Q Exactive Orbitrap Thermo Scientific
Instrument type: LC-ESI-QFT
Ms type: MS2
Ion mode: NEGATIVE
Ionization: ESI
Fragmentation mode: HCD
Collision energy: 20 (nominal)
Resolution: 35000
Column name: XBridge C18 3.5 um, 2.1x50 mm, Waters with guard column
Retention time: 11.1 min
Base peak: 194.0619
Precursor m/z: 469.9753
Precursor type: [M-H]-
m/z	relative intensity	assigned
209.9045	97	C6HCl3O2-
390.0187	999	C15H15Cl3N3O3-
