Mass spectrum: PRZ_M239; LC-ESI-QFT; MS2; CE: 20; R=35000; [M+H]+
Name: PRZ_M239
Name: 2-(2,4,6-trichlorophenoxy)ethanamine
Formula: C8H8Cl3NO
Exact mass: 238.9671
SMILES: NCCOC1=C(Cl)C=C(Cl)C=C1Cl
InChI: InChI=1S/C8H8Cl3NO/c9-5-3-6(10)8(7(11)4-5)13-2-1-12/h3-4H,1-2,12H2
Instrument: Q Exactive Orbitrap Thermo Scientific
Instrument type: LC-ESI-QFT
Ms type: MS2
Ion mode: POSITIVE
Ionization: ESI
Fragmentation mode: HCD
Collision energy: 20 (nominal)
Resolution: 35000
Column name: XBridge C18 3.5 um, 2.1x50 mm, Waters with guard column
Retention time: 12.2 min
Base peak: 215.1643
Precursor m/z: 239.9744
Precursor type: [M+H]+
m/z	relative intensity	assigned
57.07	1	C4H9+
59.0492	1	C3H7O+
73.0282	1	C3H5O2+
81.0699	1	C6H9+
83.0492	1	C5H7O+
85.0648	1	C5H9O+
86.0599	1	C4H8NO+
89.0597	6	C4H9O2+
91.0543	1	C7H7+
97.0646	1	C6H9O+
101.0597	7	C5H9O2+
105.0333	1	C7H5O+
105.0699	7	C8H9+
113.0596	1	C6H9O2+
119.0492	29	C8H7O+
137.0598	1	C8H9O2+
222.9484	12	C8H6Cl3O+
239.9746	999	C8H9Cl3NO+
