Mass spectrum: PRZ; LC-ESI-QFT; MS2; CE: 40; R=35000; [M+H]+
Name: PRZ
Name: Prochloraz
Name: N-propyl-N-[2-(2,4,6-trichlorophenoxy)ethyl]imidazole-1-carboxamide
Formula: C15H16Cl3N3O2
Exact mass: 375.0308
SMILES: CCCN(CCOC1=C(Cl)C=C(Cl)C=C1Cl)C(=O)N1C=CN=C1
InChI: InChI=1S/C15H16Cl3N3O2/c1-2-4-20(15(22)21-5-3-19-10-21)6-7-23-14-12(17)8-11(16)9-13(14)18/h3,5,8-10H,2,4,6-7H2,1H3
Instrument: Q Exactive Orbitrap Thermo Scientific
Instrument type: LC-ESI-QFT
Ms type: MS2
Ion mode: POSITIVE
Ionization: ESI
Fragmentation mode: HCD
Collision energy: 40 (nominal)
Resolution: 35000
Column name: XBridge C18 3.5 um, 2.1x50 mm, Waters with guard column
Retention time: 16.2 min
Base peak: 376.0387
Precursor m/z: 376.0381
Precursor type: [M+H]+
m/z	relative intensity	assigned
53.0028	16	ClH4N+
56.0499	71	
57.0577	23	
60.0447	11	
63.9951	2	CH3ClN+
67.9894	3	C3O2+
70.0288	999	C3H4NO+
70.0652	708	C4H8N+
71.0366	3	C3H5NO+
72.0445	16	C3H6NO+
84.0808	10	C5H10N+
85.0524	3	C4H7NO+
85.0887	64	C5H11N+
98.0602	33	C5H8NO+
112.0759	3	C6H10NO+
113.0836	10	C6H11NO+
132.9606	3	C5H3Cl2+
138.0106	5	C7H5ClN+
146.9761	2	C6H5Cl2+
152.0025	2	C8H5ClO+
158.9765	31	C7H5Cl2+
159.9844	12	C7H6Cl2+
160.9558	4	C3H6Cl3N+
161.9635	15	C6H4Cl2O+
166.0055	12	C8H5ClNO+
166.9219	22	C5H2Cl3+
167.0134	19	C8H6ClNO+
173.9872	32	C7H6Cl2N+
174.9713	46	C7H5Cl2O+
179.9297	15	C6H3Cl3+
180.021	3	C9H7ClNO+
186.9714	14	C8H5Cl2O+
187.9793	20	C5H9Cl3N+
192.9373	2	C7H4Cl3+
194.9166	159	C6H2Cl3O+
194.9529	22	C7H6Cl3+
196.9321	57	C6H4Cl3O+
201.982	36	C8H6Cl2NO+
202.9899	8	C8H7Cl2NO+
204.9378	4	C8H4Cl3+
206.9283	4	C6H2Cl3N2+
209.0608	2	C11H12ClNO+
215.9982	12	C6H11Cl3N2+
222.948	88	C8H6Cl3O+
237.9587	4	C8H7Cl3NO+
245.0369	5	C11H13Cl2NO+
265.953	4	C9H7Cl3NO2+
308.0019	3	C12H13Cl3NO2+
