Mass spectrum: PRZ_M435; LC-ESI-QFT; MS2; CE: 20; R=35000; [M+H]+
Name: PRZ_M435
Exact mass: 434.0679
Instrument: Q Exactive Orbitrap Thermo Scientific
Instrument type: LC-ESI-QFT
Ms type: MS2
Ion mode: POSITIVE
Ionization: ESI
Fragmentation mode: HCD
Collision energy: 20 (nominal)
Resolution: 35000
Column name: XBridge C18 3.5 um, 2.1x50 mm, Waters with guard column
Retention time: 14.5 min
Base peak: 199.1693
Precursor m/z: 435.0752
Precursor type: [M+H]+
m/z	relative intensity
52.433	4
53.7845	4
58.6503	4
58.704	3
59.6874	4
60.0807	10
62.4255	4
63.6052	5
64.1987	4
64.3037	4
67.5845	4
67.7108	4
69.5486	4
71.0856	5
81.1439	5
89.0598	11
93.0697	5
95.0855	6
98.9842	11
103.039	64
109.1013	6
110.0349	11
110.4411	5
116.5039	4
122.0271	6
124.999	5
127.8051	5
133.1012	6
139.1118	4
145.0497	27
145.1009	5
146.0529	11
150.8366	4
154.0611	657
173.1323	7
183.1379	10
217.1574	6
262.6005	5
272.2011	7
273.2041	11
282.0215	633
298.1364	12
337.1421	27
352.029	6
355.1519	11
377.2412	5
379.2008	7
381.2434	5
395.8505	6
417.2516	7
435.0753	999
