Mass spectrum: PRZ_M239; LC-ESI-QFT; MS2; CE: 50; R=35000; [M+H]+
Name: PRZ_M239
Name: 2-(2,4,6-trichlorophenoxy)ethanamine
Formula: C8H8Cl3NO
Exact mass: 238.9671
SMILES: NCCOC1=C(Cl)C=C(Cl)C=C1Cl
InChI: InChI=1S/C8H8Cl3NO/c9-5-3-6(10)8(7(11)4-5)13-2-1-12/h3-4H,1-2,12H2
Instrument: Q Exactive Orbitrap Thermo Scientific
Instrument type: LC-ESI-QFT
Ms type: MS2
Ion mode: POSITIVE
Ionization: ESI
Fragmentation mode: HCD
Collision energy: 50 (nominal)
Resolution: 35000
Column name: XBridge C18 3.5 um, 2.1x50 mm, Waters with guard column
Retention time: 12.2 min
Base peak: 215.1643
Precursor m/z: 239.9744
Precursor type: [M+H]+
m/z	relative intensity	assigned
53.0386	53	C4H5+
55.0179	90	C3H3O+
55.0543	65	C4H7+
57.07	80	C4H9+
59.0492	85	C3H7O+
65.0386	192	C5H5+
67.0542	249	C5H7+
68.0495	96	C4H6N+
69.0335	96	C4H5O+
69.0699	276	C5H9+
70.0652	94	C4H8N+
73.0284	287	C3H5O2+
79.0543	117	C6H7+
81.0335	54	C5H5O+
81.0699	241	C6H9+
83.0493	54	C5H7O+
85.0647	68	C5H9O+
87.044	94	C4H7O2+
91.0544	449	C7H7+
92.0496	81	C6H6N+
92.0576	206	C2H8N2O2+
93.0699	315	C7H9+
95.0492	66	C6H7O+
97.0647	191	C6H9O+
98.0601	76	C5H8NO+
101.0597	172	C5H9O2+
105.0336	187	C7H5O+
105.07	816	C8H9+
109.0647	200	C7H9O+
110.0602	88	C6H8NO+
110.0714	87	C5H8N3+
111.0443	81	C6H7O2+
119.0492	999	C8H7O+
126.0549	84	C6H8NO2+
130.0287	110	C8H4NO+
158.9764	313	C7H5Cl2+
159.9844	53	C7H6Cl2+
161.9635	274	C6H4Cl2O+
166.9216	71	C5H2Cl3+
179.9298	70	C6H3Cl3+
187.9788	48	C8H6Cl2O+
194.9168	436	C6H2Cl3O+
194.9534	97	C7H6Cl3+
196.9325	536	C6H4Cl3O+
204.9376	63	C8H4Cl3+
222.9481	269	C8H6Cl3O+
