Mass spectrum: PRZ_M310; LC-ESI-QFT; MS2; CE: 10; R=35000; [M+H]+
Name: PRZ_M310
Formula: C12H14Cl3NO2
Exact mass: 309.0090
SMILES: CCCN(CCOC1=C(Cl)C=C(Cl)C=C1Cl)C=O
InChI: InChI=1S/C12H14Cl3NO2/c1-2-3-16(8-17)4-5-18-12-10(14)6-9(13)7-11(12)15/h6-8H,2-5H2,1H3
Instrument: Q Exactive Orbitrap Thermo Scientific
Instrument type: LC-ESI-QFT
Ms type: MS2
Ion mode: POSITIVE
Ionization: ESI
Fragmentation mode: HCD
Collision energy: 10 (nominal)
Resolution: 35000
Column name: XBridge C18 3.5 um, 2.1x50 mm, Waters with guard column
Retention time: 16.8 min
Base peak: 267.1229
Precursor m/z: 310.0163
Precursor type: [M+H]+
m/z	relative intensity	assigned
55.0177	1	C3H3O+
57.0699	2	C4H9+
59.0491	7	C3H7O+
67.0541	1	C5H7+
69.0698	3	C5H9+
70.0288	20	C3H4NO+
70.0651	15	C4H8N+
71.0855	4	C5H11+
72.0444	23	C3H6NO+
72.0808	2	C4H10N+
81.07	3	C6H9+
83.0853	2	C6H11+
85.0285	10	C4H5O2+
85.0649	1	C5H9O+
85.0887	3	C5H11N+
85.1011	2	C6H13+
86.0964	20	C5H12N+
87.0441	2	C4H7O2+
93.07	2	C7H9+
95.0856	7	C7H11+
97.0648	8	C6H9O+
97.101	2	C7H13+
99.0805	2	C6H11O+
100.0757	1	C5H10NO+
101.0598	45	C5H9O2+
103.0753	1	C5H11O2+
105.0699	20	C8H9+
106.0497	2	C3H8NO3+
106.0734	4	C3H10N2O2+
108.0525	1	C2H8N2O3+
109.1012	9	C8H13+
114.0914	223	C6H12NO+
115.039	20	C2H10ClNO2+
117.0698	1	C9H9+
117.091	2	C6H13O2+
119.0256	2	C5H8ClO+
119.0492	25	C8H7O+
120.0525	13	C3H8N2O3+
121.1011	7	C9H13+
123.1167	3	C9H15+
125.096	15	C8H13O+
127.1119	3	C8H15O+
131.086	1	C10H11+
133.1012	3	C10H13+
135.0807	1	C9H11O+
135.1168	2	C10H15+
141.9934	3	C2H6Cl2N3+
145.1012	8	C11H13+
146.1049	6	C6H14N2O2+
147.0804	1	C10H11O+
151.1118	3	C10H15O+
153.1025	1	C8H13N2O+
159.1017	1	C8H15O3+
162.0991	1	C6H14N2O3+
163.0756	6	C10H11O2+
163.1115	1	C11H15O+
171.1016	2	C9H15O3+
173.0958	13	C12H13O+
174.0994	16	C7H14N2O3+
175.1111	1	C12H15O+
181.086	3	C10H13O3+
191.1063	2	C12H15O2+
193.1219	3	C10H15N3O+
282.0216	147	C11H15Cl3NO+
310.0163	999	C12H15Cl3NO2+
