Mass spectrum: PRZ_M435; LC-ESI-QFT; MS2; CE: 50; R=35000; [M+H]+
Name: PRZ_M435
Exact mass: 434.0679
Instrument: Q Exactive Orbitrap Thermo Scientific
Instrument type: LC-ESI-QFT
Ms type: MS2
Ion mode: POSITIVE
Ionization: ESI
Fragmentation mode: HCD
Collision energy: 50 (nominal)
Resolution: 35000
Column name: XBridge C18 3.5 um, 2.1x50 mm, Waters with guard column
Retention time: 14.5 min
Base peak: 199.1693
Precursor m/z: 435.0752
Precursor type: [M+H]+
m/z	relative intensity
52.148	5
52.5354	5
52.828	5
54.7442	5
55.8106	5
56.2908	5
57.0335	12
57.1866	5
57.3798	5
58.0651	12
59.7108	4
60.0808	13
60.6332	5
67.0543	22
69.0699	8
70.0287	34
70.0651	37
71.0854	5
72.0808	13
79.0544	6
81.07	41
82.0401	8
84.081	6
86.0603	7
86.0964	40
91.0543	9
93.0698	15
95.0491	23
95.0856	23
98.9842	24
103.039	15
105.0699	31
105.3517	6
107.0855	12
109.1013	24
110.035	550
118.6035	6
119.0857	13
121.1012	7
129.0699	6
131.0857	11
133.101	6
141.0109	7
149.096	6
154.0612	999
157.101	7
161.1328	8
174.1277	9
189.6317	6
222.948	7
240.9776	6
260.5835	5
260.9385	6
278.3604	6
282.0213	38
377.2431	6
