Mass spectrum: PRZ_M392a; LC-ESI-QFT; MS2; CE: 20; R=35000; [M+H]+
Name: PRZ_M392a
Formula: C15H16Cl3N3O3
Exact mass: 391.0257
SMILES: CC(O)CN(CCOC1=C(Cl)C=C(Cl)C=C1Cl)C(=O)N1C=CN=C1
InChI: InChI=1S/C15H16Cl3N3O3/c1-10(22)8-20(15(23)21-3-2-19-9-21)4-5-24-14-12(17)6-11(16)7-13(14)18/h2-3,6-7,9-10,22H,4-5,8H2,1H3
Instrument: Q Exactive Orbitrap Thermo Scientific
Instrument type: LC-ESI-QFT
Ms type: MS2
Ion mode: POSITIVE
Ionization: ESI
Fragmentation mode: HCD
Collision energy: 20 (nominal)
Resolution: 35000
Column name: XBridge C18 3.5 um, 2.1x50 mm, Waters with guard column
Retention time: 13.9 min
Base peak: 199.1691
Precursor m/z: 392.033
Precursor type: [M+H]+
m/z	relative intensity	assigned
60.0811	1	C3H10N+
65.0387	1	C5H5+
69.0448	999	C3H5N2+
70.0652	1	C4H8N+
71.0856	122	C5H11+
84.0808	2	C5H10N+
87.0444	1	CH10ClNO+
100.0394	12	C4H6NO2+
106.037	1	C2H6N2O3+
113.0598	51	C6H9O2+
113.1325	7	C8H17+
128.0707	51	C6H10NO2+
149.0235	503	C8H5O3+
167.034	148	C5H10ClNO3+
248.9593	1	C5H8Cl3N2O3+
251.9744	14	C9H9Cl3NO+
289.1098	4	C14H16ClN5+
323.9957	109	C12H13Cl3NO3+
327.0527	1	C14H15Cl2N3O2+
