Mass spectrum: PRZ_M382; LC-ESI-QFT; MS2; CE: 50; R=35000; [M+H]+
Name: PRZ_M382
Formula: C14H18Cl3N3O3
Exact mass: 381.0414
SMILES: CCCN(CCOC1=C(Cl)C=C(Cl)C=C1Cl)C(=O)N(CO)C=N
InChI: InChI=1S/C14H18Cl3N3O3/c1-2-3-19(14(22)20(8-18)9-21)4-5-23-13-11(16)6-10(15)7-12(13)17/h6-8,18,21H,2-5,9H2,1H3
Instrument: Q Exactive Orbitrap Thermo Scientific
Instrument type: LC-ESI-QFT
Ms type: MS2
Ion mode: POSITIVE
Ionization: ESI
Fragmentation mode: HCD
Collision energy: 50 (nominal)
Resolution: 35000
Column name: XBridge C18 3.5 um, 2.1x50 mm, Waters with guard column
Retention time: 16.6 min
Base peak: 288.2897
Precursor m/z: 382.0487
Precursor type: [M+H]+
m/z	relative intensity	assigned
53.0022	7	C3HO+
55.018	6	C3H3O+
55.0543	5	C4H7+
56.0495	74	C3H6N+
57.0573	26	C3H7N+
57.0698	9	C4H9+
59.0491	9	C3H7O+
60.0444	79	C2H6NO+
60.0808	11	C3H10N+
67.0542	38	C5H7+
69.0699	53	C5H9+
70.0287	999	C3H4NO+
70.0651	947	C4H8N+
71.0857	5	C5H11+
72.0444	11	C3H6NO+
72.0807	6	C4H10N+
74.0963	17	C4H12N+
79.0542	24	C6H7+
81.0698	35	C6H9+
82.0733	9	CH10N2O2+
83.0855	18	C6H11+
84.0443	5	C4H6NO+
85.0284	27	C4H5O2+
85.0886	124	C5H11N+
86.0963	8	C5H12N+
88.0393	18	C3H6NO2+
91.0542	26	C7H7+
93.0698	30	C7H9+
95.0493	8	C6H7O+
95.0855	26	C7H11+
96.0892	5	C2H12N2O2+
97.0647	7	C6H9O+
97.1011	5	C7H13+
98.0601	31	C5H8NO+
105.0699	26	C8H9+
106.0419	6	C4H9ClN+
107.0856	31	C8H11+
109.1012	8	C8H13+
112.0757	6	C6H10NO+
113.0834	27	C6H11NO+
117.07	10	C9H9+
119.0602	4	C7H7N2+
119.0854	6	C9H11+
121.0645	8	C8H9O+
121.1011	9	C9H13+
131.0853	7	C10H11+
133.1013	10	C10H13+
134.0962	4	C9H12N+
143.0857	9	C11H11+
145.1012	9	C11H13+
158.9762	19	C7H5Cl2+
166.0053	18	C8H5ClNO+
166.9218	7	C5H2Cl3+
167.0133	23	C8H6ClNO+
169.1017	4	C13H13+
171.1165	5	C13H15+
173.9872	27	C7H6Cl2N+
174.9713	67	C7H5Cl2O+
179.9293	4	C6H3Cl3+
187.9788	8	C8H6Cl2O+
194.9164	114	C6H2Cl3O+
195.0919	46	C13H11N2+
196.9321	42	C6H4Cl3O+
201.9819	74	C8H6Cl2NO+
208.0528	7	C8H14Cl2N2+
209.0599	8	C14H9O2+
222.9478	172	C8H6Cl3O+
237.9588	34	C8H7Cl3NO+
239.9747	27	C8H9Cl3NO+
244.0288	52	C14H9ClO2+
245.0371	42	C8H16Cl3N2+
265.9536	59	C9H7Cl3NO2+
280.0057	37	C11H13Cl3NO+
308.0006	182	C12H13Cl3NO2+
