Mass spectrum: PRZ_M298; LC-ESI-QFT; MS2; CE: 10; R=35000; [M+H]+
Name: PRZ_M298
Formula: C11H14Cl3NO2
Exact mass: 297.0090
SMILES: CC(O)CNCCOC1=C(Cl)C=C(Cl)C=C1Cl
InChI: InChI=1S/C11H14Cl3NO2/c1-7(16)6-15-2-3-17-11-9(13)4-8(12)5-10(11)14/h4-5,7,15-16H,2-3,6H2,1H3
Instrument: Q Exactive Orbitrap Thermo Scientific
Instrument type: LC-ESI-QFT
Ms type: MS2
Ion mode: POSITIVE
Ionization: ESI
Fragmentation mode: HCD
Collision energy: 10 (nominal)
Resolution: 35000
Column name: XBridge C18 3.5 um, 2.1x50 mm, Waters with guard column
Retention time: 12.8 min
Base peak: 215.1641
Precursor m/z: 298.0163
Precursor type: [M+H]+
m/z	relative intensity	assigned
56.0494	1	C3H6N+
57.0699	3	C4H9+
67.0542	1	C5H7+
69.0699	8	C5H9+
70.065	8	C4H8N+
71.0855	5	C5H11+
81.0699	4	C6H9+
83.0855	6	C6H11+
84.0808	10	C5H10N+
85.0886	9	C5H11N+
85.1013	4	C6H13+
94.0733	1	C2H10N2O2+
95.0856	2	C7H11+
96.0889	3	C2H12N2O2+
97.1012	5	C7H13+
102.0913	5	C5H12NO+
107.0856	2	C8H11+
108.0889	3	C3H12N2O2+
111.1168	3	C8H15+
113.0961	3	C7H13O+
121.1012	2	C9H13+
122.1045	2	C4H14N2O2+
178.0864	2	C10H12NO2+
188.9869	1	C8H7Cl2O+
280.0058	229	C11H13Cl3NO+
298.0163	999	C11H15Cl3NO2+
