Mass spectrum: PRZ_M239; LC-ESI-QFT; MS2; CE: 30; R=35000; [M+H]+
Name: PRZ_M239
Name: 2-(2,4,6-trichlorophenoxy)ethanamine
Formula: C8H8Cl3NO
Exact mass: 238.9671
SMILES: NCCOC1=C(Cl)C=C(Cl)C=C1Cl
InChI: InChI=1S/C8H8Cl3NO/c9-5-3-6(10)8(7(11)4-5)13-2-1-12/h3-4H,1-2,12H2
Instrument: Q Exactive Orbitrap Thermo Scientific
Instrument type: LC-ESI-QFT
Ms type: MS2
Ion mode: POSITIVE
Ionization: ESI
Fragmentation mode: HCD
Collision energy: 30 (nominal)
Resolution: 35000
Column name: XBridge C18 3.5 um, 2.1x50 mm, Waters with guard column
Retention time: 12.2 min
Base peak: 215.1643
Precursor m/z: 239.9744
Precursor type: [M+H]+
m/z	relative intensity	assigned
57.0699	10	C4H9+
59.0492	6	C3H7O+
67.0543	6	C5H7+
69.0699	8	C5H9+
71.0492	7	C4H7O+
73.0284	31	C3H5O2+
81.0699	10	C6H9+
85.0647	21	C5H9O+
86.06	5	C4H8NO+
87.0442	12	C4H7O2+
89.0597	28	C4H9O2+
91.0543	11	C7H7+
93.0698	9	C7H9+
97.065	8	C6H9O+
101.0598	37	C5H9O2+
105.0337	8	C7H5O+
105.07	62	C8H9+
110.0601	5	C6H8NO+
119.0492	130	C8H7O+
126.0215	5	C8H2N2+
126.0549	11	C6H8NO2+
137.0598	7	C8H9O2+
194.9533	5	C7H6Cl3+
222.948	110	C8H6Cl3O+
239.9746	999	C8H9Cl3NO+
