Mass spectrum: CP_M308b; LC-ESI-QFT; MS2; CE: 35; R=70000; [M+H]+
Name: CP_M308b
Formula: C15H18ClN3O2
Exact mass: 307.1088
SMILES: CC(C1CC1)C(O)(CN1N=CN=C1O)C1=CC=C(Cl)C=C1
InChI: InChI=1S/C15H18ClN3O2/c1-10(11-2-3-11)15(21,8-19-14(20)17-9-18-19)12-4-6-13(16)7-5-12/h4-7,9-11,21H,2-3,8H2,1H3,(H,17,18,20)
Instrument: Q Exactive Orbitrap Thermo Scientific
Instrument type: LC-ESI-QFT
Ms type: MS2
Ion mode: POSITIVE
Ionization: ESI
Fragmentation mode: HCD
Collision energy: 35 (nominal)
Resolution: 70000
Column name: XBridge C18 3.5 um, 2.1x50 mm, Waters with guard column
Retention time: 14.1 min
Base peak: 199.1691
Precursor m/z: 308.116
Precursor type: [M+H]+
m/z	relative intensity	assigned
58.0654	7	C3H8N+
59.0494	1	C3H7O+
67.0543	2	C5H7+
69.0699	15	C5H9+
70.0401	6	C2H4N3+
71.0491	1	C4H7O+
73.0649	1	C4H9O+
81.0699	2	C6H9+
83.049	1	C5H7O+
83.0856	2	C6H11+
84.0446	1	C4H6NO+
85.0647	1	C5H9O+
86.0349	999	C2H4N3O+
90.0913	70	C4H12NO+
93.0695	2	C7H9+
94.0728	1	H8N5O+
95.0856	5	C7H11+
97.1014	1	C7H13+
99.0436	1	C5H7O2+
101.0597	6	C5H9O2+
104.0577	1	C3H8N2O2+
105.0698	2	C8H9+
109.101	1	C8H13+
111.0802	1	C7H11O+
113.0823	1	C4H9N4+
121.1012	2	C9H13+
123.117	1	C9H15+
125.0152	279	C7H6Cl+
134.0963	9	C9H12N+
135.0998	6	C4H13N3O2+
136.0751	1	C8H10NO+
137.0598	1	C8H9O2+
138.9948	12	C7H4ClO+
139.0312	2	C8H8Cl+
143.0861	1	C11H11+
155.0259	2	C8H8ClO+
165.0465	2	C10H10Cl+
193.1215	1	C10H15N3O+
203.1427	9	C14H19O+
219.1744	825	
308.1154	34	C15H19ClN3O2+
