Mass spectrum: CP_M308a; LC-ESI-QFT; MS2; CE: 35; R=70000; [M+H]+
Name: CP_M308a
Formula: C15H18ClN3O2
Exact mass: 307.1088
SMILES: OCC(C1CC1)C(O)(CN1C=NC=N1)C1=CC=C(Cl)C=C1
InChI: InChI=1S/C15H18ClN3O2/c16-13-5-3-12(4-6-13)15(21,8-19-10-17-9-18-19)14(7-20)11-1-2-11/h3-6,9-11,14,20-21H,1-2,7-8H2
Instrument: Q Exactive Orbitrap Thermo Scientific
Instrument type: LC-ESI-QFT
Ms type: MS2
Ion mode: POSITIVE
Ionization: ESI
Fragmentation mode: HCD
Collision energy: 35 (nominal)
Resolution: 70000
Column name: XBridge C18 3.5 um, 2.1x50 mm, Waters with guard column
Retention time: 13.5 min
Base peak: 199.1691
Precursor m/z: 308.116
Precursor type: [M+H]+
m/z	relative intensity	assigned
67.0544	11	C5H7+
69.0333	2	C4H5O+
69.07	22	C5H9+
70.04	999	C2H4N3+
71.0491	2	C4H7O+
79.0543	3	C6H7+
81.0331	2	C5H5O+
81.07	14	C6H9+
83.049	2	C5H7O+
83.0855	3	C6H11+
85.0646	2	C5H9O+
89.0598	2	C4H9O2+
93.0696	2	C7H9+
95.0856	11	C7H11+
101.0599	13	C5H9O2+
107.0853	3	C8H11+
109.0649	2	C7H9O+
109.1012	4	C8H13+
111.0808	2	C7H11O+
119.0856	2	C9H11+
123.0805	3	C8H11O+
125.0152	146	C7H6Cl+
134.0965	17	C9H12N+
135.1	9	C4H13N3O2+
136.1204	2	C5H16N2O2+
138.0219	3	C9H2N2+
138.9946	35	C7H4ClO+
151.0309	14	C9H8Cl+
155.0708	3	C5H14ClNO2+
162.022	3	C11H2N2+
163.0306	17	C10H8Cl+
163.1325	3	C8H19O3+
191.0623	9	C12H12Cl+
308.1159	61	C15H19ClN3O2+
