Mass spectrum: Cyproconazole (CP); LC-ESI-QFT; MS2; CE: 40; R=70000; [M+H]+
Name: Cyproconazole (CP)
Name: Cyproconazole
Name: 2-(4-chlorophenyl)-3-cyclopropyl-1-(1,2,4-triazol-1-yl)butan-2-ol
Formula: C15H18ClN3O
Exact mass: 291.1138
SMILES: CC(C1CC1)C(O)(CN1C=NC=N1)C1=CC=C(Cl)C=C1
InChI: InChI=1S/C15H18ClN3O/c1-11(12-2-3-12)15(20,8-19-10-17-9-18-19)13-4-6-14(16)7-5-13/h4-7,9-12,20H,2-3,8H2,1H3
Instrument: Q Exactive Orbitrap Thermo Scientific
Instrument type: LC-ESI-QFT
Ms type: MS2
Ion mode: POSITIVE
Ionization: ESI
Fragmentation mode: HCD
Collision energy: 40 (nominal)
Resolution: 70000
Column name: XBridge C18 3.5 um, 2.1x50 mm, Waters with guard column
Retention time: 15.7 min
Base peak: 292.1213
Precursor m/z: 292.1211
Precursor type: [M+H]+
m/z	relative intensity	assigned
69.07	11	C5H9+
70.04	999	C2H4N3+
125.0152	344	C7H6Cl+
130.0776	1	C10H10+
138.9945	17	C7H4ClO+
139.0309	3	C8H8Cl+
155.0261	1	C8H8ClO+
163.0306	1	C10H8Cl+
165.0463	3	C10H10Cl+
292.1215	12	C15H19ClN3O+
