Mass spectrum: CP_M308c; LC-ESI-QFT; MS2; CE: 35; R=70000; [M+H]+
Name: CP_M308c
Formula: C15H18ClN3O2
Exact mass: 307.1088
SMILES: CC(C1CC1)C(O)(CN1C=NC(O)=N1)C1=CC=C(Cl)C=C1
InChI: InChI=1S/C15H18ClN3O2/c1-10(11-2-3-11)15(21,8-19-9-17-14(20)18-19)12-4-6-13(16)7-5-12/h4-7,9-11,21H,2-3,8H2,1H3,(H,18,20)
Instrument: Q Exactive Orbitrap Thermo Scientific
Instrument type: LC-ESI-QFT
Ms type: MS2
Ion mode: POSITIVE
Ionization: ESI
Fragmentation mode: HCD
Collision energy: 35 (nominal)
Resolution: 70000
Column name: XBridge C18 3.5 um, 2.1x50 mm, Waters with guard column
Retention time: 14.8 min
Base peak: 199.1691
Precursor m/z: 308.116
Precursor type: [M+H]+
m/z	relative intensity	assigned
55.0544	1	C4H7+
67.0543	8	C5H7+
69.0333	2	C4H5O+
69.0699	19	C5H9+
70.0401	1	C2H4N3+
71.0493	7	C4H7O+
71.0858	1	C5H11+
79.0542	3	C6H7+
81.0699	18	C6H9+
83.0495	2	C5H7O+
83.0855	8	C6H11+
84.0446	2	C4H6NO+
85.0286	1	C4H5O2+
85.0649	9	C5H9O+
86.0349	999	C2H4N3O+
89.0597	2	C4H9O2+
90.0172	14	H2N4O2+
91.0543	2	C7H7+
92.0815	1	C2H10N3O+
93.0698	3	C7H9+
95.0487	3	C6H7O+
95.0855	8	C7H11+
96.0891	1	C2H12N2O2+
97.0648	3	C6H9O+
97.1013	6	C7H13+
99.0444	1	C5H7O2+
101.0598	7	C5H9O2+
107.049	1	C7H7O+
107.0856	10	C8H11+
109.0647	3	C7H9O+
109.1011	6	C8H13+
111.0805	2	C7H11O+
113.0598	2	C6H9O2+
119.049	2	C8H7O+
119.0854	4	C9H11+
121.0649	10	C8H9O+
121.1013	8	C9H13+
122.0685	2	C3H10N2O3+
123.0802	6	C8H11O+
125.0152	312	C7H6Cl+
127.1109	1	C6H13N3+
130.0507	2	C2H11ClN2O2+
133.065	1	C9H9O+
133.1009	2	C10H13+
134.0966	10	C9H12N+
135.0806	6	C9H11O+
135.1168	3	C10H15+
137.0965	2	C6H16ClN+
138.9945	11	C7H4ClO+
140.1428	1	C9H18N+
145.1015	3	C11H13+
149.0973	1	C7H16ClN+
149.1328	1	C11H17+
151.0745	1	C7H9N3O+
153.1276	1	C10H17O+
159.1176	1	C12H15+
161.096	1	C11H13O+
163.1112	2	C11H15O+
163.1479	1	C12H19+
164.0798	1	C2H15ClN3O3+
165.0464	2	C10H10Cl+
173.0965	2	C9H16ClN+
174.1277	3	C12H16N+
179.0485	2	C11H5N3+
210.1283	2	C15H16N+
221.1522	2	C12H19N3O+
224.1048	1	C9H19ClNO3+
250.123	12	C14H19ClN2+
252.1018	40	C13H17ClN2O+
278.1192	2	C15H19ClN2O+
308.1157	21	C15H19ClN3O2+
