Mass spectrum: EP_M451; LC-ESI-QFT; MS2; CE: 20; R=35000; [M+H]+
Name: EP_M451
Formula: C20H20ClFN4O3S
Exact mass: 450.0929
SMILES: N[C@@H](CS[C@@](CN1C=NC=N1)([C@H](O)C1=CC=CC=C1Cl)C1=CC=C(F)C=C1)C(O)=O
InChI: InChI=1S/C20H20ClFN4O3S/c21-16-4-2-1-3-15(16)18(27)20(10-26-12-24-11-25-26,30-9-17(23)19(28)29)13-5-7-14(22)8-6-13/h1-8,11-12,17-18,27H,9-10,23H2,(H,28,29)/t17-,18+,20+/m0/s1
Instrument: Q Exactive Orbitrap Thermo Scientific
Instrument type: LC-ESI-QFT
Ms type: MS2
Ion mode: POSITIVE
Ionization: ESI
Fragmentation mode: HCD
Collision energy: 20 (nominal)
Resolution: 35000
Column name: XBridge C18 3.5 um, 2.1x50 mm, Waters with guard column
Retention time: 12.2 min
Base peak: 219.0474
Precursor m/z: 451.1001
Precursor type: [M+H]+
m/z	relative intensity	assigned
64.0031	2	H2NO3+
65.1448	1	FH18N2+
70.04	17	C2H4N3+
70.065	2	C4H8N+
74.0059	4	C2H4NS+
77.0872	2	H15NOS+
86.0964	4	C5H12N+
88.0393	3	C3H6NO2+
120.0114	24	C3H6NO2S+
121.0447	10	C8H6F+
122.0268	11	C3H8NO2S+
132.0114	14	C4H6NO2S+
134.0271	2	C4H8NO2S+
138.9945	2	C7H4ClO+
149.0399	177	C3H14ClO2S+
165.0101	4	C9H6ClO+
208.0771	2	C5H19ClNO3S+
219.0371	89	C13H9ClF+
225.0706	5	C4H17ClFN3O2S+
225.0956	2	C9H18FO3S+
226.0785	3	C4H18ClFN3O2S+
233.0525	4	C14H11ClF+
240.0404	15	C12H6N3O3+
243.0372	378	C15H9ClF+
245.0526	43	C15H11ClF+
259.0559	14	C15H11ClFN+
260.0638	24	C15H12ClFN+
261.0478	287	C15H11ClFO+
263.0093	3	C11H6ClN3O3+
275.0093	187	C12H6ClN3O3+
277.025	87	C12H8ClN3O3+
282.0745	2	C17H13FNS+
284.0634	2	C14H17ClO2S+
293.0197	8	C15H11ClFOS+
312.0699	268	C17H12ClFN3+
314.0854	149	C17H14ClFN3+
318.0517	12	C14H11ClN4O3+
328.0802	11	C18H15FNO2S+
329.0893	3	C15H19ClFN2OS+
330.0804	634	C17H14ClFN3O+
336.0626	9	C17H16ClFNOS+
362.0525	5	C17H14ClFN3OS+
364.0569	999	C18H16ClFNO2S+
365.041	3	C18H15ClFO3S+
367.0449	2	C17H15ClFNO3S+
382.0678	31	C18H18ClFNO3S+
388.0686	2	C19H16ClFN3OS+
433.0898	88	C20H19ClFN4O2S+
451.1005	189	C20H21ClFN4O3S+
