Mass spectrum: EP_M637; LC-ESI-QFT; MS2; CE: 80; R=35000; [M+H]+
Name: EP_M637
Formula: C27H30ClFN6O7S
Exact mass: 636.1569
SMILES: [H]N([H])[C@@H](CCC(=O)N([H])[C@@H](CS[C@@](CN1C=NC=N1)([C@H](O)C1=CC=CC=C1Cl)C1=CC=C(F)C=C1)C(=O)N([H])CC(O)=O)C(O)=O
InChI: InChI=1S/C27H30ClFN6O7S/c28-19-4-2-1-3-18(19)24(39)27(13-35-15-31-14-33-35,16-5-7-17(29)8-6-16)43-12-21(25(40)32-11-23(37)38)34-22(36)10-9-20(30)26(41)42/h1-8,14-15,20-21,24,39H,9-13,30H2,(H,32,40)(H,34,36)(H,37,38)(H,41,42)/t20-,21-,24+,27+/m0/s1
Instrument: Q Exactive Orbitrap Thermo Scientific
Instrument type: LC-ESI-QFT
Ms type: MS2
Ion mode: POSITIVE
Ionization: ESI
Fragmentation mode: HCD
Collision energy: 80 (nominal)
Resolution: 35000
Column name: XBridge C18 3.5 um, 2.1x50 mm, Waters with guard column
Retention time: 12.2 min
Base peak: 219.0477
Precursor m/z: 637.1642
Precursor type: [M+H]+
m/z	relative intensity	assigned
55.0179	35	C3H3O+
55.0543	26	C4H7+
56.0495	37	C3H6N+
58.9951	128	C2H3S+
69.0699	25	C5H9+
70.0288	43	C3H4NO+
70.04	56	C2H4N3+
70.0652	379	C4H8N+
72.0808	59	C4H10N+
74.0059	57	C2H4NS+
75.0229	35	C6H3+
76.0215	150	C2H6NS+
80.0496	39	C5H6N+
83.0605	223	C4H7N2+
84.0445	344	C4H6NO+
84.0808	106	C5H10N+
85.0397	270	C3H5N2O+
86.0965	146	C5H12N+
91.0542	163	C7H7+
101.0388	41	C8H5+
102.0467	102	C8H6+
109.0449	106	CH14ClOS+
109.0761	166	C6H9N2+
110.0602	29	C6H8NO+
119.0493	106	ClFH9N4+
120.0809	151	C8H10N+
121.0449	999	C2H14ClOS+
123.0238	34	C7H4FO+
125.0153	110	C7H6Cl+
129.0448	208	C8H5N2+
130.0654	28	C9H8N+
137.0153	133	FH8NO4S+
149.0158	31	CH8FNO4S+
149.0402	26	C6H9ClFN+
153.0657	38	C2H8FN5O2+
155.0816	33	C7H11N2O2+
158.1312	29	C6H19FO3+
176.0621	43	C14H8+
178.0773	31	C6H14N2O2S+
183.061	217	C4H11N2O6+
184.0685	41	C7H17ClOS+
196.0684	132	C8H17ClOS+
197.0762	123	C8H18ClOS+
207.061	123	CH10FN5O6+
209.0764	56	C9H18ClOS+
210.0842	180	CH13FN5O6+
217.0223	41	C4H10ClN2O6+
224.0875	68	CH13FN6O6+
230.1878	28	C13H26O3+
236.0871	29	C10H19ClNOS+
237.0951	34	C10H20ClNOS+
239.0326	127	C12H5N3O3+
243.0375	54	C9H9NO7+
379.0391	28	C27H7O3+
526.0415	28	C26H12ClFN6O2S+
622.0194	29	C25H12ClFN8O7S+
