Mass spectrum: EP_M346; LC-ESI-QFT; MS2; CE: 40; R=35000; [M+H]+
Name: EP_M346
Formula: C17H13ClFN3O2
Exact mass: 345.0680
SMILES: OC1=NN(C[C@]2(O[C@H]2C2=CC=CC=C2Cl)C2=CC=C(F)C=C2)C=N1
InChI: InChI=1S/C17H13ClFN3O2/c18-14-4-2-1-3-13(14)15-17(24-15,9-22-10-20-16(23)21-22)11-5-7-12(19)8-6-11/h1-8,10,15H,9H2,(H,21,23)/t15-,17-/m0/s1
Instrument: Q Exactive Orbitrap Thermo Scientific
Instrument type: LC-ESI-QFT
Ms type: MS2
Ion mode: POSITIVE
Ionization: ESI
Fragmentation mode: HCD
Collision energy: 40 (nominal)
Resolution: 35000
Column name: XBridge C18 3.5 um, 2.1x50 mm, Waters with guard column
Retention time: 15.0 min
Base peak: 387.18
Precursor m/z: 346.0753
Precursor type: [M+H]+
m/z	relative intensity	assigned
67.0543	5	C5H7+
69.07	13	C5H9+
71.0857	4	C5H11+
75.0227	3	CH2FN3+
79.0542	4	C6H7+
81.0699	14	C6H9+
83.0856	4	C6H11+
85.0285	4	C4H5O2+
85.0649	2	C5H9O+
86.0349	77	C2H4N3O+
91.0543	15	C7H7+
93.07	18	C7H9+
95.0491	3	C6H7O+
95.0856	18	C7H11+
97.0649	6	C6H9O+
98.9842	999	CH4ClO3+
101.0598	3	C5H9O2+
105.07	10	C8H9+
107.0855	10	C8H11+
109.0449	3	C7H6F+
109.1012	14	C8H13+
111.0441	3	C6H7O2+
113.0152	3	C6H6Cl+
113.0597	4	C6H9O2+
119.0856	13	C9H11+
121.0448	878	C8H6F+
123.024	216	C7H4FO+
126.022	14	C5H3FN2O+
129.0448	16	C8H5N2+
131.0857	4	C10H11+
133.1011	10	C10H13+
135.0806	19	C9H11O+
135.1167	4	C5H14FN3+
137.0598	9	C8H9O2+
137.0961	4	C9H13O+
138.9945	15	C7H4ClO+
139.0393	2	C4H10ClNO2+
139.0756	4	C5H14ClNO+
141.0102	71	C7H6ClO+
145.1008	2	C6H12FN3+
149.0963	3	C10H13O+
163.0754	2	C10H11O2+
196.0679	3	C14H9F+
