Mass spectrum: EP_M451; LC-ESI-QFT; MS2; CE: 40; R=35000; [M+H]+
Name: EP_M451
Formula: C20H20ClFN4O3S
Exact mass: 450.0929
SMILES: N[C@@H](CS[C@@](CN1C=NC=N1)([C@H](O)C1=CC=CC=C1Cl)C1=CC=C(F)C=C1)C(O)=O
InChI: InChI=1S/C20H20ClFN4O3S/c21-16-4-2-1-3-15(16)18(27)20(10-26-12-24-11-25-26,30-9-17(23)19(28)29)13-5-7-14(22)8-6-13/h1-8,11-12,17-18,27H,9-10,23H2,(H,28,29)/t17-,18+,20+/m0/s1
Instrument: Q Exactive Orbitrap Thermo Scientific
Instrument type: LC-ESI-QFT
Ms type: MS2
Ion mode: POSITIVE
Ionization: ESI
Fragmentation mode: HCD
Collision energy: 40 (nominal)
Resolution: 35000
Column name: XBridge C18 3.5 um, 2.1x50 mm, Waters with guard column
Retention time: 12.2 min
Base peak: 219.0474
Precursor m/z: 451.1001
Precursor type: [M+H]+
m/z	relative intensity	assigned
70.04	118	C2H4N3+
70.0652	16	C4H8N+
74.0059	58	C2H4NS+
76.0216	3	C2H6NS+
83.0478	7	C3H5N3+
84.0808	8	C5H10N+
86.0059	15	C3H4NS+
86.0965	19	C5H12N+
86.99	4	C3H3OS+
88.0216	35	C3H6NS+
88.0393	70	C3H6NO2+
95.0858	4	C7H11+
97.0648	6	C6H9O+
105.0006	6	C3H5O2S+
109.0449	46	CH14ClOS+
111.0636	3	C4H12FS+
120.0115	65	C3H6NO2S+
120.0809	3	C8H10N+
121.0449	636	C2H14ClOS+
122.0401	4	CH13ClNOS+
123.0242	54	CH12ClO2S+
125.0153	51	C7H6Cl+
129.0446	4	C8H5N2+
130.148	3	C4H19FN2O+
132.0117	21	C7HFN2+
133.0449	17	C3H14ClOS+
137.0153	101	C8H6Cl+
138.9947	37	C7H4ClO+
140.0263	8	C7H7ClN+
141.0172	14	CH6ClN4O2+
149.0399	978	C3H14ClO2S+
153.0168	11	C8H6FS+
156.9874	6	C7H6ClS+
165.0103	60	C9H6ClO+
177.0698	4	C3H16ClN3OS+
183.0607	15	C7H16ClOS+
184.0685	15	C7H17ClOS+
196.0683	27	C14H9F+
197.0761	55	C14H10F+
198.0838	26	C3H18ClFN3OS+
209.0762	7	C9H18ClOS+
210.0841	66	C9H19ClOS+
218.0722	8	C11H9FN3O+
219.0372	227	C13H9ClF+
223.079	8	C4H17ClFN4OS+
224.087	50	C9H19ClNOS+
225.0711	87	C9H18ClO2S+
225.0948	128	C15H12FN+
225.1055	6	C11H17N2OS+
226.0788	122	C15H11FO+
228.0397	4	C14H9FS+
231.0375	35	C14H9ClF+
233.0529	77	C14H11ClF+
236.087	28	C16H11FN+
239.0317	26	C15H8FS+
240.0404	490	C12H6N3O3+
241.0481	4	C15H10FS+
242.0561	94	C12H8N3O3+
243.0372	999	C15H9ClF+
244.0447	5	C15H10ClF+
245.0528	250	C15H11ClF+
246.0241	4	C14H8ClFO+
249.0944	25	C14H17O2S+
256.0589	6	C15H11FNS+
258.0483	36	C15H10ClFN+
259.0562	62	C9H17ClFO3S+
259.0692	5	C16H13ClF+
260.0639	108	C15H12ClFN+
261.0478	145	C15H11ClFO+
262.0016	17	C11H5ClN3O3+
263.0095	7	C11H6ClN3O3+
271.0568	4	C10H17ClFO3S+
272.0641	42	C10H18ClFO3S+
275.0093	104	C12H6ClN3O3+
277.0245	59	C15H11ClFS+
282.0746	17	C17H13FNS+
284.064	27	C17H12ClFN+
304.0537	4	C16H12ClFNO2+
312.0701	5	C17H12ClFN3+
318.0516	7	C14H11ClN4O3+
329.0884	5	C15H19ClFN2OS+
330.0805	173	C17H14ClFN3O+
364.0576	20	C18H16ClFNO2S+
