Mass spectrum: EP_M637; LC-ESI-QFT; MS2; CE: 40; R=35000; [M+H]+
Name: EP_M637
Formula: C27H30ClFN6O7S
Exact mass: 636.1569
SMILES: [H]N([H])[C@@H](CCC(=O)N([H])[C@@H](CS[C@@](CN1C=NC=N1)([C@H](O)C1=CC=CC=C1Cl)C1=CC=C(F)C=C1)C(=O)N([H])CC(O)=O)C(O)=O
InChI: InChI=1S/C27H30ClFN6O7S/c28-19-4-2-1-3-18(19)24(39)27(13-35-15-31-14-33-35,16-5-7-17(29)8-6-16)43-12-21(25(40)32-11-23(37)38)34-22(36)10-9-20(30)26(41)42/h1-8,14-15,20-21,24,39H,9-13,30H2,(H,32,40)(H,34,36)(H,37,38)(H,41,42)/t20-,21-,24+,27+/m0/s1
Instrument: Q Exactive Orbitrap Thermo Scientific
Instrument type: LC-ESI-QFT
Ms type: MS2
Ion mode: POSITIVE
Ionization: ESI
Fragmentation mode: HCD
Collision energy: 40 (nominal)
Resolution: 35000
Column name: XBridge C18 3.5 um, 2.1x50 mm, Waters with guard column
Retention time: 12.2 min
Base peak: 219.0477
Precursor m/z: 637.1642
Precursor type: [M+H]+
m/z	relative intensity	assigned
70.04	207	C2H4N3+
70.0652	255	C4H8N+
72.0807	64	C4H10N+
74.0058	47	C2H4NS+
76.0215	170	C2H6NS+
76.0392	33	C2H6NO2+
83.0606	49	C4H7N2+
84.0444	138	C4H6NO+
84.0808	58	C5H10N+
85.0396	45	C3H5N2O+
86.0965	282	C5H12N+
92.0165	46	C2H6NOS+
99.0554	32	C4H7N2O+
109.0761	63	C6H9N2+
110.0713	55	C5H8N3+
116.0164	61	C4H6NOS+
120.0807	98	C8H10N+
121.0449	453	C2H14ClOS+
123.1155	26	ClFH21O3+
129.0659	141	C5H9N2O2+
129.1022	43	C6H13N2O+
130.05	195	C5H8NO3+
131.0451	195	C4H7N2O3+
137.0153	94	FH8NO4S+
144.012	36	C2H9ClN2OS+
145.0608	49	C5H9N2O3+
149.04	999	C6H9ClFN+
153.066	50	C7H9N2O2+
155.0817	306	C7H11N2O2+
159.0922	36	C4H17NO3S+
165.0102	36	CH8FNO5S+
177.0331	383	C5H9N2O3S+
179.0487	45	C8H6FN3O+
181.0612	30	C5H12ClN3O2+
184.0736	37	C2H12N6O2S+
185.0383	47	C10H4FN3+
187.0541	25	C4H14ClN3OS+
197.0771	34	C5H13N2O6+
199.0714	47	C8H11N2O4+
200.0789	55	C3H11FN5O4+
210.0847	39	C6H14N2O6+
219.0373	119	C7H9NO7+
221.242	25	C6H31N5O3+
225.0948	162	C15H12FN+
226.0792	60	C12H14ClFN+
231.0432	148	C11H8ClN4+
233.052	36	C6H15ClFN2O2S+
240.0405	47	C5H14ClFO7+
243.0376	445	CH11ClFN5O6+
245.0533	296	CH13ClFN5O6+
249.0949	36	C11H20ClNOS+
260.0638	138	C9H12N2O7+
261.0478	285	C15H11ClFO+
277.1529	27	C9H24FNO7+
318.0511	52	C17H8N3O4+
330.0806	435	C22H15ClO+
331.2168	46	C18H26FN5+
