Mass spectrum: EP_M449; LC-ESI-QFT; MS2; CE: 60; R=35000; [M+H]+
Name: EP_M449
Formula: C20H18ClFN4O3S
Exact mass: 448.0772
SMILES: N[C@@H](CS[C@@](CN1C=NC=N1)(C(=O)C1=CC=CC=C1Cl)C1=CC=C(F)C=C1)C(O)=O
InChI: InChI=1S/C20H18ClFN4O3S/c21-16-4-2-1-3-15(16)18(27)20(10-26-12-24-11-25-26,30-9-17(23)19(28)29)13-5-7-14(22)8-6-13/h1-8,11-12,17H,9-10,23H2,(H,28,29)/t17-,20+/m0/s1
Instrument: Q Exactive Orbitrap Thermo Scientific
Instrument type: LC-ESI-QFT
Ms type: MS2
Ion mode: POSITIVE
Ionization: ESI
Fragmentation mode: HCD
Collision energy: 60 (nominal)
Resolution: 35000
Column name: XBridge C18 3.5 um, 2.1x50 mm, Waters with guard column
Retention time: 13.7 min
Base peak: 158.154
Precursor m/z: 449.0845
Precursor type: [M+H]+
m/z	relative intensity	assigned
55.0183	35	ClH6N+
57.07	16	C4H9+
67.0544	77	C5H7+
69.07	27	C5H9+
70.04	469	C2H4N3+
75.0228	19	CH2FN3+
79.0541	26	CH6FN3+
81.0699	99	C6H9+
82.0401	155	C3H4N3+
83.0478	36	C3H5N3+
83.0855	23	C6H11+
86.0963	24	FH11N4+
88.0394	131	C3H6NO2+
91.0543	110	C7H7+
91.0572	35	C4H11S+
93.07	75	C7H9+
95.0856	113	C7H11+
97.1013	30	C7H13+
99.0441	40	C5H7O2+
100.0506	43	C3H6N3O+
105.07	84	C8H9+
107.0856	22	C8H11+
108.0114	28	C2H6NO2S+
109.0449	243	CH14ClOS+
109.0648	26	C7H9O+
113.0397	75	C6H6FO+
113.0596	22	C6H9O2+
121.0448	523	C8H6F+
123.0241	790	C7H4FO+
123.035	132	C3H9NO2S+
125.0152	26	C7H6Cl+
126.0221	160	C2H8NO3S+
129.045	45	C8H5N2+
131.0854	21	C5H10FN3+
133.1017	19	C10H13+
134.0185	39	C8H6S+
136.0556	41	C8H7FN+
141.9609	21	C6ClFO+
142.9717	45	C6H4ClS+
149.0398	254	C3H14ClO2S+
156.9875	43	C7H6ClS+
166.9715	32	C3H3ClFN3S+
167.0557	20	C6H7N4O2+
167.9796	17	C8H5ClS+
168.9873	39	C8H6ClS+
170.9666	399	C7H4ClOS+
183.0605	999	C7H16ClOS+
184.0683	124	C7H17ClOS+
190.932	17	C4ClN2O3S+
194.053	43	C8H15ClOS+
194.9668	26	C9H4ClOS+
196.0682	108	C3H16ClFN3OS+
197.0761	164	C14H10F+
215.0327	130	C10H5N3O3+
217.0216	103	C13H7ClF+
218.0291	73	C13H8ClF+
219.0371	107	C13H9ClF+
223.0554	242	C9H16ClO2S+
226.024	152	C14H7FS+
227.0323	223	C14H8FS+
228.0402	674	C14H9FS+
230.0293	816	C14H8ClF+
232.0449	35	C14H10ClF+
236.0746	27	C9H17ClN2OS+
236.0859	17	C8H17ClN4S+
250.0016	21	C10H5ClN3O3+
251.0093	415	C10H6ClN3O3+
253.0477	26	C16H10FS+
254.0563	20	C10H11ClN4O2+
255.0279	132	C12H11ClFNS+
256.0351	27	C15H9FOS+
257.0165	21	C15H7ClFO+
258.0242	42	C15H8ClFO+
262.0766	20	C12H16ClFO3+
263.0093	360	C11H6ClN3O3+
263.0853	37	C16H10FN3+
291.0042	108	C15H9ClFOS+
