Mass spectrum: EP_M449; LC-ESI-QFT; MS2; CE: 20; R=35000; [M+H]+
Name: EP_M449
Formula: C20H18ClFN4O3S
Exact mass: 448.0772
SMILES: N[C@@H](CS[C@@](CN1C=NC=N1)(C(=O)C1=CC=CC=C1Cl)C1=CC=C(F)C=C1)C(O)=O
InChI: InChI=1S/C20H18ClFN4O3S/c21-16-4-2-1-3-15(16)18(27)20(10-26-12-24-11-25-26,30-9-17(23)19(28)29)13-5-7-14(22)8-6-13/h1-8,11-12,17H,9-10,23H2,(H,28,29)/t17-,20+/m0/s1
Instrument: Q Exactive Orbitrap Thermo Scientific
Instrument type: LC-ESI-QFT
Ms type: MS2
Ion mode: POSITIVE
Ionization: ESI
Fragmentation mode: HCD
Collision energy: 20 (nominal)
Resolution: 35000
Column name: XBridge C18 3.5 um, 2.1x50 mm, Waters with guard column
Retention time: 13.7 min
Base peak: 158.154
Precursor m/z: 449.0845
Precursor type: [M+H]+
m/z	relative intensity	assigned
70.04	35	C2H4N3+
99.044	34	C5H7O2+
113.0598	41	C6H9O2+
120.081	6	C8H10N+
123.0241	32	CH12ClO2S+
125.0957	6	C3H12FN3O+
126.0218	26	C2H8NO3S+
137.1325	5	C10H17+
162.078	6	CH14N4O3S+
193.0858	12	C6H12FN3O3+
194.0891	6	C9H19ClS+
218.0723	34	C11H9FN3O+
251.0092	35	C13H9ClFS+
257.9993	10	C14H2N4S+
258.0238	22	C7H12ClFN2O3S+
263.0093	273	C11H6ClN3O3+
272.0546	7	C12H14ClFN2S+
291.0041	283	C15H9ClFOS+
296.0654	30	C16H11FN3S+
298.0688	8	C20H12NS+
306.0511	9	C19H11FOS+
334.047	13	C17H14ClFNOS+
352.0572	6	C17H16ClFNO2S+
360.0367	161	C17H12ClFN3OS+
361.0289	7	C19H7ClFN4O+
362.0522	14	C20H11FN2O2S+
363.0249	137	C18H13ClFO3S+
380.0515	33	C18H16ClFNO3S+
386.0525	51	C19H14ClFN3OS+
388.0682	201	C19H16ClFN3OS+
401.0783	6	C20H10FN6O3+
403.0792	290	C19H17ClFN4OS+
404.0631	667	C19H16ClFN3O2S+
417.0914	46	C15H19ClFN6O3S+
432.058	444	C20H16ClFN3O3S+
449.0846	999	C20H19ClFN4O3S+
