Mass spectrum: EP_M346; LC-ESI-QFT; MS2; CE: 50; R=35000; [M+H]+
Name: EP_M346
Formula: C17H13ClFN3O2
Exact mass: 345.0680
SMILES: OC1=NN(C[C@]2(O[C@H]2C2=CC=CC=C2Cl)C2=CC=C(F)C=C2)C=N1
InChI: InChI=1S/C17H13ClFN3O2/c18-14-4-2-1-3-13(14)15-17(24-15,9-22-10-20-16(23)21-22)11-5-7-12(19)8-6-11/h1-8,10,15H,9H2,(H,21,23)/t15-,17-/m0/s1
Instrument: Q Exactive Orbitrap Thermo Scientific
Instrument type: LC-ESI-QFT
Ms type: MS2
Ion mode: POSITIVE
Ionization: ESI
Fragmentation mode: HCD
Collision energy: 50 (nominal)
Resolution: 35000
Column name: XBridge C18 3.5 um, 2.1x50 mm, Waters with guard column
Retention time: 15.0 min
Base peak: 387.18
Precursor m/z: 346.0753
Precursor type: [M+H]+
m/z	relative intensity	assigned
55.0183	1	ClH6N+
67.0543	17	C5H7+
69.07	8	C5H9+
75.023	4	C6H3+
79.0544	11	C6H7+
81.0699	16	C6H9+
83.0493	2	C5H7O+
83.0855	5	C6H11+
85.0285	3	C4H5O2+
86.0349	55	C2H4N3O+
91.0543	32	C7H7+
93.0699	14	C7H9+
95.0493	11	C6H7O+
95.0855	18	C7H11+
96.089	3	C2H12N2O2+
97.0649	3	C6H9O+
97.1011	2	C7H13+
98.9842	999	CH4ClO3+
101.0385	3	C8H5+
101.06	2	C2H12ClNO+
105.07	12	C8H9+
107.0856	12	C8H11+
108.0115	1	C5HFN2+
109.0449	2	C7H6F+
109.1013	11	C8H13+
111.0442	3	C6H7O2+
111.0805	2	C7H11O+
113.0153	15	C6H6Cl+
113.0397	10	C6H6FO+
113.0598	4	C6H9O2+
119.049	17	C3H6FN3O+
119.0856	15	C9H11+
121.0448	723	C8H6F+
123.024	149	C7H4FO+
123.0352	21	C6H4FN2+
126.0221	5	C5H3FN2O+
129.0448	50	C8H5N2+
131.0858	4	C10H11+
133.1012	8	C10H13+
135.0804	30	C9H11O+
135.1169	4	C5H14FN3+
137.0598	4	C8H9O2+
138.9945	12	C7H4ClO+
139.0389	3	C4H10ClNO2+
141.0101	40	C7H6ClO+
147.1166	2	C6H14FN3+
158.097	2	C8H13FNO+
174.9924	2	C8H2ClN3+
196.0678	2	C14H9F+
215.9858	2	C8H4ClFNO3+
231.9812	2	C14HClN2+
244.0191	2	C16H3FNO+
247.0662	2	C16H8FN2+
249.9908	2	C12HClN5+
