Mass spectrum: EP_M449; LC-ESI-QFT; MS2; CE: 30; R=35000; [M+H]+
Name: EP_M449
Formula: C20H18ClFN4O3S
Exact mass: 448.0772
SMILES: N[C@@H](CS[C@@](CN1C=NC=N1)(C(=O)C1=CC=CC=C1Cl)C1=CC=C(F)C=C1)C(O)=O
InChI: InChI=1S/C20H18ClFN4O3S/c21-16-4-2-1-3-15(16)18(27)20(10-26-12-24-11-25-26,30-9-17(23)19(28)29)13-5-7-14(22)8-6-13/h1-8,11-12,17H,9-10,23H2,(H,28,29)/t17-,20+/m0/s1
Instrument: Q Exactive Orbitrap Thermo Scientific
Instrument type: LC-ESI-QFT
Ms type: MS2
Ion mode: POSITIVE
Ionization: ESI
Fragmentation mode: HCD
Collision energy: 30 (nominal)
Resolution: 35000
Column name: XBridge C18 3.5 um, 2.1x50 mm, Waters with guard column
Retention time: 13.7 min
Base peak: 158.154
Precursor m/z: 449.0845
Precursor type: [M+H]+
m/z	relative intensity	assigned
70.04	209	C2H4N3+
72.9955	9	C2FNO+
74.0059	13	C2H4NS+
81.07	40	C6H9+
82.04	12	C3H4N3+
88.0393	23	C3H6NO2+
91.0575	10	C4H11S+
95.0856	15	C7H11+
97.0649	14	C6H9O+
99.0441	51	C5H7O2+
100.0509	17	ClH9N4+
109.0448	37	C7H6F+
109.1014	15	C8H13+
113.0598	40	C6H9O2+
119.0856	13	C9H11+
121.0449	53	C2H14ClOS+
123.0241	180	CH12ClO2S+
126.022	79	C2H8NO3S+
127.1122	10	C5H18ClN+
136.1201	12	C5H16N2O2+
143.0855	10	C11H11+
149.0399	167	C3H14ClO2S+
170.9667	40	C7H4ClOS+
183.0028	14	C4H7ClFN3S+
185.0061	40	C8H8ClNS+
190.0774	19	C10H9FN3+
193.0859	20	C11H13O3+
194.0891	20	C9H19ClS+
218.0725	177	C5H17ClN3O2S+
219.0367	13	C5H13ClFN2O2S+
228.04	62	C14H9FS+
230.0293	49	C14H8ClF+
232.0444	18	C6H14ClFN2O2S+
235.0319	18	C13H9ClFO+
251.0093	313	C10H6ClN3O3+
255.0274	42	C15H8FOS+
256.0355	38	C15H9FOS+
257.0167	15	C16H5N2S+
257.9989	75	C13H4ClFN2O+
258.0243	204	C15H8ClFO+
259.0325	14	C16H7N2S+
260.0399	57	C15H10ClFO+
263.0093	999	C11H6ClN3O3+
265.0254	41	C11H8ClN3O3+
272.0543	12	C12H14ClFN2S+
289.024	13	C16H11ClFS+
291.0042	682	C15H9ClFOS+
295.1027	14	C18H17NOS+
296.0653	221	C16H11FN3S+
298.0694	21	C17H13FNOS+
306.0516	11	C13H11ClN4O3+
317.0206	13	C17H11ClFOS+
332.0415	90	C19H9FN2OS+
360.0372	159	C17H12ClFN3OS+
362.0307	10	C20H4N5O3+
362.051	66	C20H13ClN3S+
363.0252	46	C18H13ClFO3S+
386.0528	139	C19H14ClFN3OS+
388.0684	221	C19H16ClFN3OS+
403.0791	162	C19H17ClFN4OS+
404.0632	685	C19H16ClFN3O2S+
432.0588	194	C20H16ClFN3O3S+
449.084	47	C20H19ClFN4O3S+
