Mass spectrum: EP_M346; LC-ESI-QFT; MS2; CE: 70; R=35000; [M+H]+
Name: EP_M346
Formula: C17H13ClFN3O2
Exact mass: 345.0680
SMILES: OC1=NN(C[C@]2(O[C@H]2C2=CC=CC=C2Cl)C2=CC=C(F)C=C2)C=N1
InChI: InChI=1S/C17H13ClFN3O2/c18-14-4-2-1-3-13(14)15-17(24-15,9-22-10-20-16(23)21-22)11-5-7-12(19)8-6-11/h1-8,10,15H,9H2,(H,21,23)/t15-,17-/m0/s1
Instrument: Q Exactive Orbitrap Thermo Scientific
Instrument type: LC-ESI-QFT
Ms type: MS2
Ion mode: POSITIVE
Ionization: ESI
Fragmentation mode: HCD
Collision energy: 70 (nominal)
Resolution: 35000
Column name: XBridge C18 3.5 um, 2.1x50 mm, Waters with guard column
Retention time: 15.0 min
Base peak: 387.18
Precursor m/z: 346.0753
Precursor type: [M+H]+
m/z	relative intensity	assigned
55.0182	3	ClH6N+
65.0387	2	C5H5+
67.0543	26	C5H7+
69.07	12	C5H9+
73.0648	2	C4H9O+
74.015	2	CHFN3+
75.0229	35	C6H3+
77.0386	11	C6H5+
79.0543	25	C6H7+
81.0698	21	C6H9+
83.0492	2	C5H7O+
85.0283	2	C4H5O2+
86.0349	70	C2H4N3O+
91.0542	68	C7H7+
93.0698	16	C7H9+
95.0289	2	C6H4F+
95.0492	32	C6H7O+
95.0855	11	C7H11+
98.9842	999	CH4ClO3+
101.0386	27	C8H5+
102.0217	2	C6H2N2+
105.0447	13	C6H5N2+
105.0699	15	C8H9+
107.0855	15	C8H11+
109.045	2	C7H6F+
109.0648	4	C7H9O+
109.1012	3	C8H13+
111.0439	5	CH6FN3O2+
113.0153	15	C6H6Cl+
113.0397	32	C6H6FO+
117.07	3	C9H9+
119.0492	65	C8H7O+
119.0855	9	C9H11+
121.0448	463	C8H6F+
123.024	85	C7H4FO+
123.0352	69	C6H4FN2+
129.0447	194	C8H5N2+
131.0856	2	C10H11+
133.1013	2	C10H13+
135.0804	38	C9H11O+
136.0841	5	C4H12N2O3+
137.0964	3	C9H13O+
138.9948	5	C7H4ClO+
139.0056	3	C6H4ClN2+
141.0102	10	C7H6ClO+
162.068	2	C7H13ClNO+
163.1122	2	C6H14FN3O+
196.069	2	C14H9F+
231.9802	3	C11H3ClNO3+
249.9912	3	C17NO2+
