Mass spectrum: EP_M467; LC-ESI-QFT; MS2; CE: 15; R=70000; [M+H]+
Name: EP_M467
Formula: C20H20ClFN4O4S
Exact mass: 466.0878
SMILES: N[C@@H](CS[C@@](C(O)N1C=NC=N1)([C@H](O)C1=CC=CC=C1Cl)C1=CC=C(F)C=C1)C(O)=O
InChI: InChI=1S/C20H20ClFN4O4S/c21-15-4-2-1-3-14(15)17(27)20(31-9-16(23)18(28)29,12-5-7-13(22)8-6-12)19(30)26-11-24-10-25-26/h1-8,10-11,16-17,19,27,30H,9,23H2,(H,28,29)/t16-,17+,19?,20+/m0/s1
Instrument: Q Exactive Orbitrap Thermo Scientific
Instrument type: LC-ESI-QFT
Ms type: MS2
Ion mode: POSITIVE
Ionization: ESI
Fragmentation mode: HCD
Collision energy: 15 (nominal)
Resolution: 70000
Column name: XBridge C18 3.5 um, 2.1x50 mm, Waters with guard column
Retention time: 11.7 min
Base peak: 362.1629
Precursor m/z: 467.0951
Precursor type: [M+H]+
m/z	relative intensity	assigned
70.04	139	C2H4N3+
70.0648	9	C4H8N+
72.0806	14	C4H10N+
86.0962	41	FH11N4+
88.0391	16	C3H6NO2+
97.0644	9	CH8FN3O+
101.0592	8	FH8N3O2+
109.0447	12	C7H6F+
113.0597	13	C6H9O2+
116.0703	8	FH9N4O2+
120.0039	10	C4H5FOS+
120.0113	195	C3H6NO2S+
121.0443	44	FH10N2O2S+
123.024	13	C7H4FO+
125.0392	15	C7H6FO+
129.102	12	C6H13N2O+
149.0389	18	CH10FN2O3S+
154.9422	6	ClN4O2S+
173.1289	7	C5H20ClN3O+
196.9811	31	C7H4ClN3S+
219.1127	8	C12H15N2O2+
227.1741	7	C10H21N5O+
230.0283	28	C9H9FNO3S+
233.0532	8	C14H11ClF+
241.0131	12	C5H7ClFN4O4+
241.0653	11	C7H14FN2O4S+
247.0732	9	C11H16ClO4+
249.127	17	C13H16FN3O+
259.0317	8	C7H13ClFN2O3S+
260.0397	13	C15H10ClFO+
261.0463	9	C13H9ClFN3+
263.0094	107	C11H6ClN3O3+
275.0071	35	C16H4FN2S+
276.0087	44	C16H5ClN2O+
279.1696	18	C13H21N5O2+
289.0238	12	C16H5N2O4+
291.0042	203	C12H6ClN3O4+
296.0643	9	C12H18ClFO3S+
317.019	46	C20H10ClS+
324.0583	8	C16H17ClO3S+
330.0803	999	C17H14ClFN3O+
334.0451	48	C20H13ClNS+
335.0285	15	C18H8FN2O2S+
337.1238	9	C18H21ClFNO2+
338.1286	16	C19H19ClN4+
346.0735	44	C15H14N4O4S+
352.0594	8	C20H8N4O3+
360.0363	34	C20H9FN2O2S+
362.0444	39	C18H7FN4O4+
362.9826	15	C18H3ClFN3O3+
363.0252	251	C18H13ClFO3S+
380.0519	88	C18H16ClFNO3S+
388.0674	174	C19H16ClFN3OS+
398.0648	9	C18H13ClN5O4+
403.0793	193	C19H17ClFN4OS+
404.0629	323	C19H16ClFN3O2S+
432.0578	160	C20H16ClFN3O3S+
435.1058	8	C20H21ClFN4O2S+
449.0849	446	C20H19ClFN4O3S+
467.0942	208	C20H21ClFN4O4S+
