Mass spectrum: EP_M451; LC-ESI-QFT; MS2; CE: 30; R=35000; [M+H]+
Name: EP_M451
Formula: C20H20ClFN4O3S
Exact mass: 450.0929
SMILES: N[C@@H](CS[C@@](CN1C=NC=N1)([C@H](O)C1=CC=CC=C1Cl)C1=CC=C(F)C=C1)C(O)=O
InChI: InChI=1S/C20H20ClFN4O3S/c21-16-4-2-1-3-15(16)18(27)20(10-26-12-24-11-25-26,30-9-17(23)19(28)29)13-5-7-14(22)8-6-13/h1-8,11-12,17-18,27H,9-10,23H2,(H,28,29)/t17-,18+,20+/m0/s1
Instrument: Q Exactive Orbitrap Thermo Scientific
Instrument type: LC-ESI-QFT
Ms type: MS2
Ion mode: POSITIVE
Ionization: ESI
Fragmentation mode: HCD
Collision energy: 30 (nominal)
Resolution: 35000
Column name: XBridge C18 3.5 um, 2.1x50 mm, Waters with guard column
Retention time: 12.2 min
Base peak: 219.0474
Precursor m/z: 451.1001
Precursor type: [M+H]+
m/z	relative intensity	assigned
69.0701	3	C5H9+
70.0401	58	C2H4N3+
70.0651	5	C4H8N+
74.0059	25	C2H4NS+
76.0217	3	C2H6NS+
84.0809	7	C5H10N+
86.0059	4	C3H4NS+
86.0965	20	C5H12N+
88.0217	16	C3H6NS+
88.0394	34	C3H6NO2+
99.044	3	C5H7O2+
105.0006	4	C3H5O2S+
109.0448	17	C7H6F+
120.0115	55	C3H6NO2S+
121.0449	132	C2H14ClOS+
122.0269	14	C3H8NO2S+
123.024	18	C7H4FO+
125.0152	19	C7H6Cl+
132.0115	32	C4H6NO2S+
134.0273	13	C7H3FN2+
137.0154	19	C8H6Cl+
138.9945	17	C7H4ClO+
141.0168	4	C7H6FS+
149.0399	999	C3H14ClO2S+
153.0167	3	C8H6FS+
165.0104	56	C9H6ClO+
196.0689	4	C8H17ClOS+
197.076	4	C3H17ClFN3OS+
210.0838	15	C4H18ClFN3OS+
218.0727	17	C16H10O+
219.0372	244	C13H9ClF+
221.1174	3	C5H19ClFN4O2+
223.0793	7	C9H18ClNOS+
224.0874	30	C9H17FO3S+
225.0713	45	C12H13ClFN+
225.0949	53	C9H20ClNOS+
226.0789	59	C9H19ClO2S+
231.0375	28	C14H9ClF+
233.0526	49	C14H11ClF+
234.0434	7	C11H7FN2O3+
239.0315	6	C15H8FS+
240.0403	241	C15H9FS+
242.0555	37	C15H11FS+
243.0372	990	C15H9ClF+
245.0528	289	C15H11ClF+
249.0945	8	C14H17O2S+
256.0599	4	C12H8N4O3+
258.0481	8	C15H10ClFN+
259.0561	74	C15H11ClFN+
260.0639	162	C15H12ClFN+
261.0478	488	C15H11ClFO+
263.0092	19	C11H6ClN3O3+
272.0636	39	C16H12ClFN+
275.0093	311	C12H6ClN3O3+
277.025	140	C12H8ClN3O3+
282.0754	25	C14H10N4O3+
282.0909	4	C12H16N3O3S+
284.0636	28	C17H12ClFN+
293.0199	4	C15H11ClFOS+
298.9784	4	C16HN3O2S+
312.0698	94	C17H12ClFN3+
314.0854	55	C17H14ClFN3+
318.0511	33	C20H11FOS+
328.0801	20	C18H15FNO2S+
329.0878	27	C18H16FNO2S+
330.0805	434	C17H14ClFN3O+
364.057	384	C18H16ClFNO2S+
