Mass spectrum: EP_M449; LC-ESI-QFT; MS2; CE: 40; R=35000; [M+H]+
Name: EP_M449
Formula: C20H18ClFN4O3S
Exact mass: 448.0772
SMILES: N[C@@H](CS[C@@](CN1C=NC=N1)(C(=O)C1=CC=CC=C1Cl)C1=CC=C(F)C=C1)C(O)=O
InChI: InChI=1S/C20H18ClFN4O3S/c21-16-4-2-1-3-15(16)18(27)20(10-26-12-24-11-25-26,30-9-17(23)19(28)29)13-5-7-14(22)8-6-13/h1-8,11-12,17H,9-10,23H2,(H,28,29)/t17-,20+/m0/s1
Instrument: Q Exactive Orbitrap Thermo Scientific
Instrument type: LC-ESI-QFT
Ms type: MS2
Ion mode: POSITIVE
Ionization: ESI
Fragmentation mode: HCD
Collision energy: 40 (nominal)
Resolution: 35000
Column name: XBridge C18 3.5 um, 2.1x50 mm, Waters with guard column
Retention time: 13.7 min
Base peak: 158.154
Precursor m/z: 449.0845
Precursor type: [M+H]+
m/z	relative intensity	assigned
69.07	18	C5H9+
70.0401	304	C2H4N3+
74.0059	43	C2H4NS+
79.0544	14	C6H7+
81.0699	36	C6H9+
82.0399	59	C3H4N3+
88.0393	55	C3H6NO2+
91.0545	11	C7H7+
91.0574	34	C4H11S+
93.07	14	C7H9+
93.073	8	C4H13S+
95.0855	36	C7H11+
96.0889	10	C2H12N2O2+
97.0646	13	CH8FN3O+
97.1013	13	C7H13+
99.0442	22	C5H7O2+
99.0803	12	CH10FN3O+
100.0507	64	C3H6N3O+
107.0853	15	C3H10FN3+
109.0449	66	CH14ClOS+
109.0648	12	C7H9O+
109.1012	14	C8H13+
111.0801	12	C2H10FN3O+
113.0598	19	C6H9O2+
121.0448	156	C8H6F+
123.0241	346	CH12ClO2S+
123.0805	20	C8H11O+
125.0958	10	C3H12FN3O+
126.0221	139	C2H8NO3S+
137.133	11	C10H17+
149.0399	194	C3H14ClO2S+
167.9794	10	C8H5ClS+
168.9873	40	C8H6ClS+
170.9667	123	C7H4ClOS+
180.9871	18	C4H5ClFN3S+
183.0028	43	C4H7ClFN3S+
183.0604	42	C2H15ClFN3OS+
185.006	55	C8H8ClNS+
190.0779	71	C15H10+
193.0859	12	C11H13O3+
194.0897	11	C9H19ClS+
196.9816	12	C7H2FN2O2S+
199.148	8	C10H18FN3+
211.9933	12	C9H7ClNOS+
212.9769	14	C4H5ClFN3O2S+
218.0727	77	C16H10O+
219.0371	45	C13H9ClF+
227.0325	39	C14H8FS+
228.0402	158	C14H9FS+
230.0293	150	C14H8ClF+
232.045	47	C14H10ClF+
235.0318	11	C13H9ClFO+
250.0016	13	C10H5ClN3O3+
251.0093	549	C10H6ClN3O3+
253.0492	11	C10H10ClN4O2+
255.0277	72	C12H11ClFNS+
256.035	80	C15H9FOS+
257.0165	16	C15H7ClFO+
257.9986	22	C10H9ClNO3S+
258.0244	196	C15H8ClFO+
260.04	35	C15H10ClFO+
263.0093	999	C11H6ClN3O3+
265.0254	40	C11H8ClN3O3+
265.9777	15	C13H2N2O3S+
277.026	17	C18H3N3O+
281.0424	9	C20H9S+
282.0506	13	C17H11FOS+
289.0251	10	C13H8ClN3O3+
291.0042	470	C15H9ClFOS+
296.0652	170	C16H11FN3S+
308.0268	11	C15H13ClO3S+
313.1533	10	C16H19N5O2+
332.0418	54	C16H12ClFN3S+
362.052	35	C20H11FN2O2S+
386.0526	36	C19H14ClFN3OS+
388.069	12	C19H16ClFN3OS+
404.0632	161	C19H16ClFN3O2S+
