Mass spectrum: EP_M451; LC-ESI-QFT; MS2; CE: 60; R=35000; [M+H]+
Name: EP_M451
Formula: C20H20ClFN4O3S
Exact mass: 450.0929
SMILES: N[C@@H](CS[C@@](CN1C=NC=N1)([C@H](O)C1=CC=CC=C1Cl)C1=CC=C(F)C=C1)C(O)=O
InChI: InChI=1S/C20H20ClFN4O3S/c21-16-4-2-1-3-15(16)18(27)20(10-26-12-24-11-25-26,30-9-17(23)19(28)29)13-5-7-14(22)8-6-13/h1-8,11-12,17-18,27H,9-10,23H2,(H,28,29)/t17-,18+,20+/m0/s1
Instrument: Q Exactive Orbitrap Thermo Scientific
Instrument type: LC-ESI-QFT
Ms type: MS2
Ion mode: POSITIVE
Ionization: ESI
Fragmentation mode: HCD
Collision energy: 60 (nominal)
Resolution: 35000
Column name: XBridge C18 3.5 um, 2.1x50 mm, Waters with guard column
Retention time: 12.2 min
Base peak: 219.0474
Precursor m/z: 451.1001
Precursor type: [M+H]+
m/z	relative intensity	assigned
67.0545	2	C5H7+
69.07	3	C5H9+
70.04	76	C2H4N3+
70.0651	13	C4H8N+
72.0809	2	C4H10N+
74.0059	62	C2H4NS+
76.0217	2	C2H6NS+
82.04	13	C3H4N3+
83.0478	17	C3H5N3+
84.0809	5	C5H10N+
86.0059	15	C3H4NS+
86.0966	22	C5H12N+
86.9899	5	C3H3OS+
88.0216	33	C3H6NS+
88.0393	26	C3H6NO2+
91.0543	13	C7H7+
93.0698	2	C7H9+
101.0388	2	C8H5+
102.0463	19	C8H6+
105.0004	2	C3H5O2S+
109.0449	58	CH14ClOS+
110.0714	3	C5H8N3+
112.0476	2	CH8N2O4+
113.0396	3	C6H6FO+
119.0492	11	C8H7O+
119.068	2	CH7N6O+
120.0114	19	C3H6NO2S+
120.0807	4	C8H10N+
121.0448	999	C2H14ClOS+
123.0241	67	C7H4FO+
123.0354	10	ClH12N2OS+
125.0154	84	C7H6Cl+
129.0448	36	C8H5N2+
130.0414	40	C9H6O+
130.0652	14	C9H8N+
133.0448	30	C9H6F+
137.0153	139	C8H6Cl+
138.0105	15	C7H5ClN+
138.9945	42	C7H4ClO+
140.0263	5	C7H7ClN+
141.0169	13	C4H3N3O3+
147.0267	4	C9H7S+
148.0319	3	C3H13ClO2S+
148.0558	5	C3H15ClNOS+
149.0155	37	C9H6Cl+
149.0399	107	C3H14ClO2S+
153.017	6	C5H3N3O3+
154.9719	3	C7H4ClS+
156.9877	3	C7H6ClS+
165.0103	16	C9H6ClO+
165.0169	9	C6H3N3O3+
176.0619	5	C3H15ClN3OS+
177.0699	43	C14H9+
178.0777	15	C14H10+
183.0604	91	C13H8F+
184.0683	91	C7H17ClOS+
196.0683	82	C8H17ClOS+
197.0761	100	C14H10F+
198.0839	51	C14H11F+
207.0606	39	C9H16ClOS+
208.0681	46	C4H16ClFN3OS+
209.076	24	C4H17ClFN3OS+
210.084	158	C9H19ClOS+
211.0557	6	C11H11ClFN+
211.0665	4	C13H8FN2+
217.0217	29	C13H7ClF+
219.0372	54	C13H9ClF+
221.0418	4	C10H8FN3S+
223.0791	12	C15H10FN+
224.0871	57	C9H19ClNOS+
225.071	33	C15H10FO+
225.0949	60	C9H20ClNOS+
226.0788	56	C4H18ClFN3O2S+
228.0406	13	C11H6N3O3+
230.0291	6	C14H8ClF+
231.0367	4	C6H13ClFN2O2S+
233.0527	11	C14H11ClF+
235.0799	4	C10H16FO3S+
236.0869	31	C5H18ClFN4OS+
237.0947	20	C5H19ClFN4OS+
239.0325	158	C15H8FS+
240.0403	260	C15H9FS+
241.0478	20	C15H10FS+
242.0561	41	C12H8N3O3+
243.0372	475	C15H9ClF+
244.045	2	C15H10ClF+
245.0406	10	C8H15ClFO3S+
245.0528	9	C15H11ClF+
246.0244	4	C15H6N2S+
248.0868	13	C6H18ClFN4OS+
249.0946	6	C6H19ClFN4OS+
258.0481	33	C15H10ClFN+
259.0564	3	C9H17ClFO3S+
262.0017	28	C11H5ClN3O3+
272.0636	5	C16H12ClFN+
284.064	2	C17H12ClFN+
