Mass spectrum: EP_M637; LC-ESI-QFT; MS2; CE: 90; R=35000; [M+H]+
Name: EP_M637
Formula: C27H30ClFN6O7S
Exact mass: 636.1569
SMILES: [H]N([H])[C@@H](CCC(=O)N([H])[C@@H](CS[C@@](CN1C=NC=N1)([C@H](O)C1=CC=CC=C1Cl)C1=CC=C(F)C=C1)C(=O)N([H])CC(O)=O)C(O)=O
InChI: InChI=1S/C27H30ClFN6O7S/c28-19-4-2-1-3-18(19)24(39)27(13-35-15-31-14-33-35,16-5-7-17(29)8-6-16)43-12-21(25(40)32-11-23(37)38)34-22(36)10-9-20(30)26(41)42/h1-8,14-15,20-21,24,39H,9-13,30H2,(H,32,40)(H,34,36)(H,37,38)(H,41,42)/t20-,21-,24+,27+/m0/s1
Instrument: Q Exactive Orbitrap Thermo Scientific
Instrument type: LC-ESI-QFT
Ms type: MS2
Ion mode: POSITIVE
Ionization: ESI
Fragmentation mode: HCD
Collision energy: 90 (nominal)
Resolution: 35000
Column name: XBridge C18 3.5 um, 2.1x50 mm, Waters with guard column
Retention time: 12.2 min
Base peak: 219.0477
Precursor m/z: 637.1642
Precursor type: [M+H]+
m/z	relative intensity	assigned
56.0495	63	C3H6N+
58.995	294	C2H3S+
67.0544	35	C5H7+
68.0495	43	C4H6N+
70.0401	142	C2H4N3+
70.0652	386	C4H8N+
72.0808	71	C4H10N+
74.006	136	C2H4NS+
75.023	73	C6H3+
76.0216	150	C2H6NS+
78.1839	27	H22N4+
80.0495	42	C5H6N+
82.0401	28	C3H4N3+
82.0652	38	C5H8N+
83.0604	143	C4H7N2+
84.0446	357	C4H6NO+
84.0809	80	C5H10N+
85.0397	322	C3H5N2O+
86.0966	78	C5H12N+
89.0386	35	C7H5+
91.0544	245	C7H7+
95.0492	39	C6H7O+
101.0388	51	C8H5+
102.0465	154	C8H6+
103.0543	46	C8H7+
105.0701	38	C8H9+
107.0605	45	C6H7N2+
109.045	185	CH14ClOS+
109.0762	171	C6H9N2+
113.0398	73	ClH14O2S+
115.0543	34	C9H7+
119.0491	225	C8H7O+
120.0809	131	C8H10N+
121.0449	999	C2H14ClOS+
123.0241	41	CH12ClO2S+
123.0353	60	C6H4FN2+
123.0888	35	C4H13NO3+
125.0153	126	C7H6Cl+
129.0449	349	C8H5N2+
130.0653	53	C9H8N+
133.045	62	C3H14ClOS+
137.0153	74	FH8NO4S+
139.0325	32	C6H7N2S+
177.0698	66	C3H16ClN3OS+
183.0607	377	C7H16ClOS+
184.0685	43	C7H17ClOS+
196.0685	256	C8H17ClOS+
197.0764	76	FH12N5O6+
198.0835	35	C3H18ClFN3OS+
207.0607	151	C9H16ClOS+
209.0763	242	C9H18ClOS+
210.0841	47	C9H19ClOS+
224.0874	155	CH13FN6O6+
239.0331	73	C6H11N2O6S+
328.9779	33	C18H3NO4S+
502.1914	35	C24H31ClN6O2S+
