Mass spectrum: EP_M346; LC-ESI-QFT; MS2; CE: 30; R=35000; [M+H]+
Name: EP_M346
Formula: C17H13ClFN3O2
Exact mass: 345.0680
SMILES: OC1=NN(C[C@]2(O[C@H]2C2=CC=CC=C2Cl)C2=CC=C(F)C=C2)C=N1
InChI: InChI=1S/C17H13ClFN3O2/c18-14-4-2-1-3-13(14)15-17(24-15,9-22-10-20-16(23)21-22)11-5-7-12(19)8-6-11/h1-8,10,15H,9H2,(H,21,23)/t15-,17-/m0/s1
Instrument: Q Exactive Orbitrap Thermo Scientific
Instrument type: LC-ESI-QFT
Ms type: MS2
Ion mode: POSITIVE
Ionization: ESI
Fragmentation mode: HCD
Collision energy: 30 (nominal)
Resolution: 35000
Column name: XBridge C18 3.5 um, 2.1x50 mm, Waters with guard column
Retention time: 15.0 min
Base peak: 387.18
Precursor m/z: 346.0753
Precursor type: [M+H]+
m/z	relative intensity	assigned
67.0544	6	C5H7+
69.0699	6	C5H9+
76.0395	3	C2H6NO2+
81.0699	5	C6H9+
83.0855	5	C6H11+
86.0349	68	C2H4N3O+
87.0442	2	C4H7O2+
91.0542	5	C7H7+
93.0699	5	C7H9+
95.0856	15	C7H11+
97.0648	6	C6H9O+
98.9842	793	CH4ClO3+
107.0856	6	C8H11+
109.1013	11	C8H13+
111.0443	4	C6H7O2+
111.0803	6	C2H10FN3O+
113.0599	5	C6H9O2+
119.0856	5	C9H11+
121.0448	999	C8H6F+
123.024	271	C7H4FO+
125.0598	3	C7H9O2+
125.0959	4	C3H12FN3O+
126.022	19	C5H3FN2O+
129.0448	6	C8H5N2+
133.1012	4	C10H13+
135.117	11	C5H14FN3+
137.0597	6	C8H9O2+
137.0961	5	C9H13O+
138.9946	19	C7H4ClO+
139.1119	2	C4H14FN3O+
141.0102	126	C7H6ClO+
149.0962	4	C10H13O+
153.091	3	C9H13O2+
159.1166	4	C7H14FN3+
165.091	4	C10H13O2+
174.9922	244	
176.9963	5	C7FN3O2+
185.0914	2	C3H12FN5O3+
251.0003	16	C17HNO2+
252.9972	47	C14H3ClFN2+
272.0477	3	C15H11ClNO2+
346.0756	25	C17H14ClFN3O2+
