Mass spectrum: EP_M637; LC-ESI-QFT; MS2; CE: 20; R=35000; [M+H]+
Name: EP_M637
Formula: C27H30ClFN6O7S
Exact mass: 636.1569
SMILES: [H]N([H])[C@@H](CCC(=O)N([H])[C@@H](CS[C@@](CN1C=NC=N1)([C@H](O)C1=CC=CC=C1Cl)C1=CC=C(F)C=C1)C(=O)N([H])CC(O)=O)C(O)=O
InChI: InChI=1S/C27H30ClFN6O7S/c28-19-4-2-1-3-18(19)24(39)27(13-35-15-31-14-33-35,16-5-7-17(29)8-6-16)43-12-21(25(40)32-11-23(37)38)34-22(36)10-9-20(30)26(41)42/h1-8,14-15,20-21,24,39H,9-13,30H2,(H,32,40)(H,34,36)(H,37,38)(H,41,42)/t20-,21-,24+,27+/m0/s1
Instrument: Q Exactive Orbitrap Thermo Scientific
Instrument type: LC-ESI-QFT
Ms type: MS2
Ion mode: POSITIVE
Ionization: ESI
Fragmentation mode: HCD
Collision energy: 20 (nominal)
Resolution: 35000
Column name: XBridge C18 3.5 um, 2.1x50 mm, Waters with guard column
Retention time: 12.2 min
Base peak: 219.0477
Precursor m/z: 637.1642
Precursor type: [M+H]+
m/z	relative intensity	assigned
70.0652	18	C4H8N+
86.0965	28	C5H12N+
116.9555	10	C4H2ClS+
120.0808	12	C8H10N+
122.9667	11	C3H4ClOS+
145.0611	28	C2H12ClN3O2+
149.0398	26	C3H14ClO2S+
155.0812	11	C2H10FN5O2+
177.0329	357	C5H9N2O3S+
179.0488	43	C8H6FN3O+
199.0704	16	C3H12ClN6O2+
231.0436	55	ClFH13N6O3S+
243.0373	60	C9H9NO7+
261.048	91	C16H9N2S+
288.0656	18	C18H10NO3+
303.0357	13	C15H10FNO3S+
306.0754	18	C10H16N3O6S+
312.0702	67	C11H12N4O7+
314.0858	236	C11H14N4O7+
330.0808	999	C18H12N5S+
331.2182	23	C20H28FN2O+
362.0521	56	C17H8N5O5+
405.0945	17	C27H17O2S+
421.0785	445	C17H16ClN5O6+
475.0896	15	C27H14FN5OS+
490.1126	67	C21H21ClN5O7+
508.1218	491	C27H25ClN2O4S+
544.1222	14	C25H24ClFN5O4S+
562.1323	456	C25H26ClFN5O5S+
619.154	76	C27H29ClFN6O6S+
637.166	64	C27H31ClFN6O7S+
