Mass spectrum: EP_M424; LC-ESI-QFT; MS2; CE: 40; R=35000; [M-H]-
Name: EP_M424
Formula: C17H13ClFN3O5S
Exact mass: 425.0248
SMILES: OS(=O)(=O)OC(N1C=NC=N1)[C@]1(O[C@H]1C1=CC=CC=C1Cl)C1=CC=C(F)C=C1
InChI: InChI=1S/C17H13ClFN3O5S/c18-14-4-2-1-3-13(14)15-17(26-15,11-5-7-12(19)8-6-11)16(27-28(23,24)25)22-10-20-9-21-22/h1-10,15-16H,(H,23,24,25)/t15-,16?,17-/m0/s1
Instrument: Q Exactive Orbitrap Thermo Scientific
Instrument type: LC-ESI-QFT
Ms type: MS2
Ion mode: NEGATIVE
Ionization: ESI
Fragmentation mode: HCD
Collision energy: 40 (nominal)
Resolution: 35000
Column name: XBridge C18 3.5um, 2.1x50mm, Waters with guard column
Retention time: 13.7 min
Base peak: 311.1176
Precursor m/z: 424.0176
Precursor type: [M-H]-
m/z	relative intensity	assigned
68.0248	773	
96.9601	26	HO4S-
154.991	120	C7H4ClO2-
226.0436	189	
239.0519	999	C12H11ClFNO-
308.0854	49	C17H11FN3O2-
344.0616	757	C17H12ClFN3O2-
