Mass spectrum: Epoxiconazole (EP); LC-ESI-QFT; MS2; CE: 25; R=70000; [M+H]+
Name: Epoxiconazole (EP)
Name: 1-[[(2R,3S)-3-(2-chlorophenyl)-2-(4-fluorophenyl)oxiran-2-yl]methyl]-1,2,4-triazole
Formula: C17H13ClFN3O
Exact mass: 329.0731
SMILES: FC1=CC=C(C=C1)[C@]1(CN2C=NC=N2)O[C@H]1C1=CC=CC=C1Cl
InChI: InChI=1S/C17H13ClFN3O/c18-15-4-2-1-3-14(15)16-17(23-16,9-22-11-20-10-21-22)12-5-7-13(19)8-6-12/h1-8,10-11,16H,9H2/t16-,17-/m0/s1
Instrument: Q Exactive Orbitrap Thermo Scientific
Instrument type: LC-ESI-QFT
Ms type: MS2
Ion mode: POSITIVE
Ionization: ESI
Fragmentation mode: HCD
Collision energy: 25 (nominal)
Resolution: 70000
Column name: XBridge C18 3.5 um, 2.1x50 mm, Waters with guard column
Retention time: 16.0 min
Base peak: 330.0806
Precursor m/z: 330.0804
Precursor type: [M+H]+
m/z	relative intensity	assigned
70.04	82	C2H4N3+
75.0232	4	C6H3+
95.0292	2	C6H4F+
95.0491	1	C6H7O+
109.0446	2	C7H6F+
121.0447	999	C8H6F+
123.0239	306	C7H4FO+
129.0449	4	C8H5N2+
138.9944	12	C7H4ClO+
141.0101	145	C2H5ClFN3O+
190.0776	5	C15H10+
233.0524	1	C14H11ClF+
261.0474	6	C15H11ClFO+
312.0691	1	C17H12ClFN3+
330.0803	304	C17H14ClFN3O+
