Mass spectrum: EP_M637; LC-ESI-QFT; MS2; CE: 60; R=35000; [M+H]+
Name: EP_M637
Formula: C27H30ClFN6O7S
Exact mass: 636.1569
SMILES: [H]N([H])[C@@H](CCC(=O)N([H])[C@@H](CS[C@@](CN1C=NC=N1)([C@H](O)C1=CC=CC=C1Cl)C1=CC=C(F)C=C1)C(=O)N([H])CC(O)=O)C(O)=O
InChI: InChI=1S/C27H30ClFN6O7S/c28-19-4-2-1-3-18(19)24(39)27(13-35-15-31-14-33-35,16-5-7-17(29)8-6-16)43-12-21(25(40)32-11-23(37)38)34-22(36)10-9-20(30)26(41)42/h1-8,14-15,20-21,24,39H,9-13,30H2,(H,32,40)(H,34,36)(H,37,38)(H,41,42)/t20-,21-,24+,27+/m0/s1
Instrument: Q Exactive Orbitrap Thermo Scientific
Instrument type: LC-ESI-QFT
Ms type: MS2
Ion mode: POSITIVE
Ionization: ESI
Fragmentation mode: HCD
Collision energy: 60 (nominal)
Resolution: 35000
Column name: XBridge C18 3.5 um, 2.1x50 mm, Waters with guard column
Retention time: 12.2 min
Base peak: 219.0477
Precursor m/z: 637.1642
Precursor type: [M+H]+
m/z	relative intensity	assigned
58.9951	24	C2H3S+
65.0386	15	C5H5+
70.04	149	C2H4N3+
70.0652	227	C4H8N+
72.0808	102	C4H10N+
74.006	31	C2H4NS+
76.0216	75	C2H6NS+
76.0392	20	C2H6NO2+
83.0604	40	C4H7N2+
84.0445	197	C4H6NO+
84.0809	76	C5H10N+
85.0397	231	C3H5N2O+
86.0601	23	C4H8NO+
86.0965	165	C5H12N+
91.0542	29	C7H7+
99.0553	33	C4H7N2O+
104.1503	17	H18N5O+
109.0761	146	C6H9N2+
116.0166	40	C4H6NOS+
120.0809	134	C8H10N+
121.0448	999	C2H14ClOS+
123.0242	25	CH12ClO2S+
125.0152	74	C7H6Cl+
129.1025	21	C3H16ClN3+
130.0414	22	C9H6O+
130.05	22	C5H8NO3+
130.0654	27	C9H8N+
131.0453	20	C4H7N2O3+
133.0449	28	C3H14ClOS+
134.2135	15	H30N4OS+
136.076	18	ClFH12N5+
137.0154	135	FH8NO4S+
139.0324	18	C6H7N2S+
149.0155	31	CH8FNO4S+
149.0399	138	C3H14ClO2S+
153.0662	24	C4H12ClN3O+
155.0818	153	C7H11N2O2+
177.07	33	C14H9+
183.0607	38	C7H16ClOS+
184.0683	20	C7H17ClOS+
185.0384	32	C4H12ClN3OS+
196.068	20	C3H16ClFN3OS+
197.0761	80	C8H18ClOS+
198.0842	37	C8H19ClOS+
210.0841	196	C9H19ClOS+
219.0371	71	C13H9ClF+
225.0706	17	C4H11N5O6+
225.0951	111	CH14FN6O6+
226.0791	27	C9H19ClO2S+
240.0404	111	C12H6N3O3+
243.0375	211	CH11ClFN5O6+
245.0526	33	C15H11ClF+
