Mass spectrum: Fluconazole (FLU); LC-ESI-QFT; MS2; CE: 35; R=70000; [M+H]+
Name: Fluconazole (FLU)
Name: fluconazole
Name: 2-(2,4-difluorophenyl)-1,3-bis(1,2,4-triazol-1-yl)propan-2-ol
Formula: C13H12F2N6O
Exact mass: 306.1041
SMILES: OC(CN1C=NC=N1)(CN1C=NC=N1)C1=C(F)C=C(F)C=C1
InChI: InChI=1S/C13H12F2N6O/c14-10-1-2-11(12(15)3-10)13(22,4-20-8-16-6-18-20)5-21-9-17-7-19-21/h1-3,6-9,22H,4-5H2
Instrument: Q Exactive Orbitrap Thermo Scientific
Instrument type: LC-ESI-QFT
Ms type: MS2
Ion mode: POSITIVE
Ionization: ESI
Fragmentation mode: HCD
Collision energy: 35 (nominal)
Resolution: 70000
Column name: XBridge C18 3.5 um, 2.1x50 mm, Waters with guard column
Retention time: 7.4 min
Base peak: 197.117
Precursor m/z: 307.1113
Precursor type: [M+H]+
m/z	relative intensity	assigned
70.0399	196	C2H4N3+
81.0697	1	CH8FN3+
82.0401	1	C3H4N3+
83.0488	1	FH6N3O+
84.0553	1	C3H6N3+
86.0962	2	FH11N4+
95.0855	1	C7H11+
107.0857	1	C8H11+
121.0447	9	C3H5F2N3+
127.035	46	C7H5F2+
139.0351	23	C8H5F2+
141.0147	6	C7H3F2O+
141.051	38	C8H7F2+
149.0221	1	C6H3N3O2+
151.0351	25	C9H5F2+
166.0456	2	C9H6F2N+
169.0458	458	C9H7F2O+
173.0511	2	C10H6FN2+
187.0561	15	C12H8FO+
193.0573	5	C10H7F2N2+
200.0615	24	C6H6F2N6+
220.0679	999	C11H8F2N3+
224.0622	1	C13H7FN3+
238.0784	852	C11H10F2N3O+
289.1006	20	C13H11F2N6+
307.1121	49	C13H13F2N6O+
