Mass spectrum: PRP_M358b; LC-ESI-QFT; MS2; CE: 40; R=35000; [M+H]+
Name: PRP_M358b
Name: CID 91079068
Name: 1-[2-(2,4-dichlorophenyl)-2-(1,2,4-triazol-1-ylmethyl)-1,3-dioxolan-4-yl]propan-2-ol
Formula: C15H17Cl2N3O3
Exact mass: 357.0647
SMILES: CC(O)CC1COC(CN2C=NC=N2)(O1)C1=C(Cl)C=C(Cl)C=C1
InChI: InChI=1S/C15H17Cl2N3O3/c1-10(21)4-12-6-22-15(23-12,7-20-9-18-8-19-20)13-3-2-11(16)5-14(13)17/h2-3,5,8-10,12,21H,4,6-7H2,1H3
Instrument: Q Exactive Orbitrap Thermo Scientific
Instrument type: LC-ESI-QFT
Ms type: MS2
Ion mode: POSITIVE
Ionization: ESI
Fragmentation mode: HCD
Collision energy: 40 (nominal)
Resolution: 35000
Column name: XBridge C18 3.5 um, 2.1x50 mm, Waters with guard column
Retention time: 14.6 min
Base peak: 199.1689
Precursor m/z: 358.072
Precursor type: [M+H]+
m/z	relative intensity	assigned
53.0027	1	ClH4N+
60.0811	7	C3H10N+
61.0287	18	C2H5O2+
65.0387	7	C5H5+
67.0543	182	C5H7+
70.04	220	C2H4N3+
71.0855	9	C5H11+
79.0542	1	C6H7+
81.0697	4	C6H9+
82.0399	92	C3H4N3+
83.0491	3	C5H7O+
83.0855	1	C6H11+
84.0556	15	C3H6N3+
85.0284	15	C4H5O2+
85.0648	156	C5H9O+
87.044	7	C4H7O2+
95.0854	2	C7H11+
100.0505	72	C3H6N3O+
101.0596	1	C5H9O2+
115.0389	6	C5H7O3+
123.0804	1	C8H11O+
128.0453	14	C4H6N3O2+
137.0154	1	C8H6Cl+
151.0184	8	C8H6ClN+
158.9763	432	C7H5Cl2+
164.0385	1	C10H9Cl+
166.0182	1	C9H7ClO+
172.9555	20	C7H3Cl2O+
172.9917	27	C8H7Cl2+
174.9708	1	C7H5Cl2O+
185.987	8	C8H6Cl2N+
186.9711	228	C8H5Cl2O+
188.9866	8	C8H7Cl2O+
190.054	1	C12H11Cl+
190.966	2	C7H5Cl2O2+
199.0073	8	C10H9Cl2+
200.9866	15	C9H7Cl2O+
200.9978	5	C11H4ClNO+
204.0323	8	C10H7ClN3+
204.9814	2	C8H7Cl2O2+
213.0223	1	C11H11Cl2+
216.9814	9	C9H7Cl2O2+
220.0272	12	C10H7ClN3O+
228.9814	5	C10H7Cl2O2+
228.9929	11	C9H7Cl2N2O+
256.0037	999	C10H8Cl2N3O+
262.0378	1	C12H9ClN3O2+
298.0135	2	C15H7ClN2O3+
