Mass spectrum: PRP_M258; LC-ESI-QFT; MS2; CE: 50; R=35000; [M+H]+
Name: PRP_M258
Name: 1-(2,4-dichlorophenyl)-2-(1H-1,2,4-triazol-1-yl)ethan-1-ol
Name: 1-(2,4-dichlorophenyl)-2-(1,2,4-triazol-1-yl)ethanol
Formula: C10H9Cl2N3O
Exact mass: 257.0123
SMILES: OC(CN1C=NC=N1)C1=C(Cl)C=C(Cl)C=C1
InChI: InChI=1S/C10H9Cl2N3O/c11-7-1-2-8(9(12)3-7)10(16)4-15-6-13-5-14-15/h1-3,5-6,10,16H,4H2
Instrument: Q Exactive Orbitrap Thermo Scientific
Instrument type: LC-ESI-QFT
Ms type: MS2
Ion mode: POSITIVE
Ionization: ESI
Fragmentation mode: HCD
Collision energy: 50 (nominal)
Resolution: 35000
Column name: XBridge C18 3.5 um, 2.1x50 mm, Waters with guard column
Retention time: 12.3 min
Base peak: 212.1645
Precursor m/z: 258.0195
Precursor type: [M+H]+
m/z	relative intensity	assigned
55.0542	1	C4H7+
56.0495	1	C3H6N+
57.0699	2	C4H9+
59.0491	1	C3H7O+
67.0543	10	C5H7+
69.0336	1	C4H5O+
69.0698	11	C5H9+
70.0399	999	C2H4N3+
71.0491	1	C4H7O+
79.0542	6	C6H7+
81.0699	18	C6H9+
82.0734	1	CH10N2O2+
85.0647	2	C5H9O+
90.0173	24	H2N4O2+
91.0542	5	C7H7+
93.07	11	C7H9+
95.0492	2	C6H7O+
97.0648	5	C6H9O+
105.0699	5	C8H9+
109.0648	2	C7H9O+
111.044	4	C3H10ClNO+
119.0489	1	C8H7O+
125.0152	66	C7H6Cl+
136.0072	9	C8H5Cl+
146.9765	5	C6H5Cl2+
153.0103	16	C8H6ClO+
154.018	1	C8H7ClO+
160.9734	1	C2ClN5O2+
160.9923	1	C7H7Cl2+
170.9762	25	C8H5Cl2+
188.987	7	C8H7Cl2O+
