Mass spectrum: PRP_M358b; LC-ESI-QFT; MS2; CE: 60; R=35000; [M+H]+
Name: PRP_M358b
Name: CID 91079068
Name: 1-[2-(2,4-dichlorophenyl)-2-(1,2,4-triazol-1-ylmethyl)-1,3-dioxolan-4-yl]propan-2-ol
Formula: C15H17Cl2N3O3
Exact mass: 357.0647
SMILES: CC(O)CC1COC(CN2C=NC=N2)(O1)C1=C(Cl)C=C(Cl)C=C1
InChI: InChI=1S/C15H17Cl2N3O3/c1-10(21)4-12-6-22-15(23-12,7-20-9-18-8-19-20)13-3-2-11(16)5-14(13)17/h2-3,5,8-10,12,21H,4,6-7H2,1H3
Instrument: Q Exactive Orbitrap Thermo Scientific
Instrument type: LC-ESI-QFT
Ms type: MS2
Ion mode: POSITIVE
Ionization: ESI
Fragmentation mode: HCD
Collision energy: 60 (nominal)
Resolution: 35000
Column name: XBridge C18 3.5 um, 2.1x50 mm, Waters with guard column
Retention time: 14.6 min
Base peak: 199.1689
Precursor m/z: 358.072
Precursor type: [M+H]+
m/z	relative intensity	assigned
53.0027	2	ClH4N+
57.0339	8	ClH8N+
59.0495	1	ClH10N+
60.081	2	C3H10N+
61.0287	11	C2H5O2+
65.0387	13	C5H5+
67.0543	145	C5H7+
69.0698	2	C5H9+
70.04	110	C2H4N3+
71.0855	4	C5H11+
72.9839	1	C3H2Cl+
79.0541	1	C6H7+
81.0698	6	C6H9+
82.04	31	C3H4N3+
83.0493	1	C5H7O+
84.0556	20	C3H6N3+
85.0284	10	C4H5O2+
85.0648	61	C5H9O+
87.044	7	C4H7O2+
89.0383	1	C7H5+
95.0853	2	C7H11+
100.0505	27	C3H6N3O+
102.0464	5	C8H6+
105.0696	1	C8H9+
122.9995	12	C7H4Cl+
124.0074	2	C7H5Cl+
125.0152	5	C7H6Cl+
128.0617	1	C10H8+
129.07	4	C10H9+
137.0154	17	C8H6Cl+
143.0854	1	C11H11+
146.9762	2	C6H5Cl2+
151.0183	19	C8H6ClN+
152.0019	1	C8H5ClO+
153.0102	7	C8H6ClO+
158.9763	999	C7H5Cl2+
163.0308	2	C10H8Cl+
164.0387	8	C10H9Cl+
166.0177	2	C9H7ClO+
170.9763	4	C8H5Cl2+
171.0206	2	C8H8ClO2+
171.9715	6	C7H4Cl2N+
172.9555	49	C7H3Cl2O+
172.9918	15	C8H7Cl2+
183.9716	1	C8H4Cl2N+
184.9916	1	C9H7Cl2+
185.9873	2	C8H6Cl2N+
186.9711	101	C8H5Cl2O+
188.9861	1	C8H7Cl2O+
190.9661	2	C7H5Cl2O2+
199.0073	2	C10H9Cl2+
200.9865	1	C9H7Cl2O+
200.9985	1	C8H7Cl2N2+
204.0325	9	C10H7ClN3+
220.0275	2	C10H7ClN3O+
228.9934	2	C9H7Cl2N2O+
256.0037	56	C10H8Cl2N3O+
