Mass spectrum: PRP_M358a; LC-ESI-QFT; MS2; CE: 60; R=35000; [M+H]+
Name: PRP_M358a
Name: 3-[2-(2,4-dichlorophenyl)-2-(1,2,4-triazol-1-ylmethyl)-1,3-dioxolan-4-yl]propan-1-ol
Formula: C15H17Cl2N3O3
Exact mass: 357.0647
SMILES: OCCCC1COC(CN2C=NC=N2)(O1)C1=C(Cl)C=C(Cl)C=C1
InChI: InChI=1S/C15H17Cl2N3O3/c16-11-3-4-13(14(17)6-11)15(8-20-10-18-9-19-20)22-7-12(23-15)2-1-5-21/h3-4,6,9-10,12,21H,1-2,5,7-8H2
Instrument: Q Exactive Orbitrap Thermo Scientific
Instrument type: LC-ESI-QFT
Ms type: MS2
Ion mode: POSITIVE
Ionization: ESI
Fragmentation mode: HCD
Collision energy: 60 (nominal)
Resolution: 35000
Column name: XBridge C18 3.5 um, 2.1x50 mm, Waters with guard column
Retention time: 13.8 min
Base peak: 358.0715
Precursor m/z: 358.072
Precursor type: [M+H]+
m/z	relative intensity	assigned
57.0339	1	ClH8N+
59.0495	2	ClH10N+
61.0287	10	C2H5O2+
65.0388	3	C5H5+
67.0543	64	C5H7+
70.04	104	C2H4N3+
71.0855	1	C5H11+
81.0699	1	C6H9+
82.0399	66	C3H4N3+
83.0476	1	C3H5N3+
84.0557	1	C3H6N3+
85.0648	15	C5H9O+
87.0441	3	C4H7O2+
89.0383	2	C7H5+
95.0855	1	C7H11+
98.9842	1	CH4ClO3+
100.0505	34	C3H6N3O+
105.0698	1	C8H9+
107.0855	1	C8H11+
111.0802	1	C7H11O+
122.9994	12	C7H4Cl+
124.0073	3	C7H5Cl+
132.9605	2	C5H3Cl2+
137.0151	2	C8H6Cl+
151.0183	29	C8H6ClN+
152.0023	1	C8H5ClO+
158.9763	999	C7H5Cl2+
164.039	1	C10H9Cl+
167.0132	1	C8H6ClNO+
171.9713	4	C7H4Cl2N+
172.9553	7	C7H3Cl2O+
172.9918	4	C8H7Cl2+
173.9868	1	C10H3ClO+
183.9714	1	C8H4Cl2N+
185.9871	4	C8H6Cl2N+
186.971	139	C8H5Cl2O+
193.0857	1	C11H13O3+
194.0888	4	C4H12N5O4+
200.9977	2	C11H4ClNO+
204.0322	1	C10H7ClN3+
220.027	3	C13H4N2O2+
228.9925	3	C12H4ClNO2+
256.0036	72	C13H5ClN2O2+
