Mass spectrum: PRP_M358b; LC-ESI-QFT; MS2; CE: 30; R=35000; [M+H]+
Name: PRP_M358b
Name: CID 91079068
Name: 1-[2-(2,4-dichlorophenyl)-2-(1,2,4-triazol-1-ylmethyl)-1,3-dioxolan-4-yl]propan-2-ol
Formula: C15H17Cl2N3O3
Exact mass: 357.0647
SMILES: CC(O)CC1COC(CN2C=NC=N2)(O1)C1=C(Cl)C=C(Cl)C=C1
InChI: InChI=1S/C15H17Cl2N3O3/c1-10(21)4-12-6-22-15(23-12,7-20-9-18-8-19-20)13-3-2-11(16)5-14(13)17/h2-3,5,8-10,12,21H,4,6-7H2,1H3
Instrument: Q Exactive Orbitrap Thermo Scientific
Instrument type: LC-ESI-QFT
Ms type: MS2
Ion mode: POSITIVE
Ionization: ESI
Fragmentation mode: HCD
Collision energy: 30 (nominal)
Resolution: 35000
Column name: XBridge C18 3.5 um, 2.1x50 mm, Waters with guard column
Retention time: 14.6 min
Base peak: 199.1689
Precursor m/z: 358.072
Precursor type: [M+H]+
m/z	relative intensity	assigned
61.0287	7	C2H5O2+
67.0543	50	C5H7+
69.07	1	C5H9+
70.04	55	C2H4N3+
71.0855	5	C5H11+
81.0699	1	C6H9+
82.0399	25	C3H4N3+
83.0493	1	C5H7O+
84.0557	3	C3H6N3+
85.0283	4	C4H5O2+
85.0648	79	C5H9O+
100.0505	20	C3H6N3O+
101.0598	3	C5H9O2+
115.0389	4	C5H7O3+
128.0454	8	C4H6N3O2+
158.9762	73	C7H5Cl2+
172.9554	3	C7H3Cl2O+
172.9919	2	C8H7Cl2+
186.9711	40	C8H5Cl2O+
199.007	2	C10H9Cl2+
200.9862	4	C9H7Cl2O+
204.0323	2	C10H7ClN3+
204.9815	3	C8H7Cl2O2+
216.9815	3	C9H7Cl2O2+
220.0267	2	C13H4N2O2+
225.0231	1	C12H11Cl2+
228.9811	1	C10H7Cl2O2+
228.9926	1	C12H4ClNO2+
256.0037	999	C10H8Cl2N3O+
298.0147	4	C12H10Cl2N3O2+
340.0612	5	C15H16Cl2N3O2+
358.0718	31	C15H18Cl2N3O3+
