Mass spectrum: Propiconazole (PRP); LC-ESI-QFT; MS2; CE: 70; R=35000; [M+H]+
Name: Propiconazole (PRP)
Name: PROPICONAZOLE
Name: 1-[[2-(2,4-dichlorophenyl)-4-propyl-1,3-dioxolan-2-yl]methyl]-1,2,4-triazole
Formula: C15H17Cl2N3O2
Exact mass: 341.0698
SMILES: CCCC1COC(CN2C=NC=N2)(O1)C1=C(Cl)C=C(Cl)C=C1
InChI: InChI=1S/C15H17Cl2N3O2/c1-2-3-12-7-21-15(22-12,8-20-10-18-9-19-20)13-5-4-11(16)6-14(13)17/h4-6,9-10,12H,2-3,7-8H2,1H3
Instrument: Q Exactive Orbitrap Thermo Scientific
Instrument type: LC-ESI-QFT
Ms type: MS2
Ion mode: POSITIVE
Ionization: ESI
Fragmentation mode: HCD
Collision energy: 70 (nominal)
Resolution: 35000
Column name: XBridge C18 3.5 um, 2.1x50 mm, Waters with guard column
Retention time: 17.0 min
Base peak: 342.0771
Precursor m/z: 342.0771
Precursor type: [M+H]+
m/z	relative intensity	assigned
53.0027	10	ClH4N+
67.0543	7	C5H7+
67.9892	1	C3O2+
69.0699	91	C5H9+
70.0399	31	C2H4N3+
72.9838	1	C3H2Cl+
84.0555	3	C3H6N3+
89.0385	5	C7H5+
98.9995	7	C5H4Cl+
122.9995	47	C7H4Cl+
124.0073	16	C7H5Cl+
129.0102	1	C6H6ClO+
132.9606	4	C5H3Cl2+
139.0056	4	C6H4ClN2+
146.9762	1	C6H5Cl2+
152.0024	1	C8H5ClO+
158.9762	999	C7H5Cl2+
162.9709	1	C6H5Cl2O+
169.0051	1	C8H6ClO2+
172.9554	127	C7H3Cl2O+
172.9662	14	C9ClNO+
186.9712	3	C8H5Cl2O+
190.9659	14	C7H5Cl2O2+
242.9521	1	C12HCl2N2+
