Mass spectrum: PRP_M358a; LC-ESI-QFT; MS2; CE: 40; R=35000; [M+H]+
Name: PRP_M358a
Name: 3-[2-(2,4-dichlorophenyl)-2-(1,2,4-triazol-1-ylmethyl)-1,3-dioxolan-4-yl]propan-1-ol
Formula: C15H17Cl2N3O3
Exact mass: 357.0647
SMILES: OCCCC1COC(CN2C=NC=N2)(O1)C1=C(Cl)C=C(Cl)C=C1
InChI: InChI=1S/C15H17Cl2N3O3/c16-11-3-4-13(14(17)6-11)15(8-20-10-18-9-19-20)22-7-12(23-15)2-1-5-21/h3-4,6,9-10,12,21H,1-2,5,7-8H2
Instrument: Q Exactive Orbitrap Thermo Scientific
Instrument type: LC-ESI-QFT
Ms type: MS2
Ion mode: POSITIVE
Ionization: ESI
Fragmentation mode: HCD
Collision energy: 40 (nominal)
Resolution: 35000
Column name: XBridge C18 3.5 um, 2.1x50 mm, Waters with guard column
Retention time: 13.8 min
Base peak: 358.0715
Precursor m/z: 358.072
Precursor type: [M+H]+
m/z	relative intensity	assigned
57.0338	1	ClH8N+
61.0287	14	C2H5O2+
65.0387	1	C5H5+
67.0543	77	C5H7+
70.0399	185	C2H4N3+
71.0855	3	C5H11+
82.0399	130	C3H4N3+
83.0492	1	C5H7O+
85.0647	58	C5H9O+
87.044	1	C4H7O2+
100.0505	73	C3H6N3O+
111.0804	1	C7H11O+
122.9993	1	C7H4Cl+
128.0454	11	C4H6N3O2+
151.0183	10	C8H6ClN+
158.9762	269	C7H5Cl2+
172.9552	4	C7H3Cl2O+
172.9919	1	C8H7Cl2+
185.9869	7	C11H3ClO+
186.971	230	C8H5Cl2O+
193.122	1	C12H17O2+
200.9977	7	C11H4ClNO+
203.1056	2	C11H13N3O+
220.0271	6	C10H7ClN3O+
221.0804	1	C10H11N3O3+
221.1007	1	C4H18ClN4O4+
221.117	3	C13H17O3+
228.9927	8	C12H4ClNO2+
236.1042	3	C13H16O4+
240.0086	1	C13H5ClN2O+
256.0036	999	C13H5ClN2O2+
