Mass spectrum: PRP_M258; LC-ESI-QFT; MS2; CE: 70; R=35000; [M+H]+
Name: PRP_M258
Name: 1-(2,4-dichlorophenyl)-2-(1H-1,2,4-triazol-1-yl)ethan-1-ol
Name: 1-(2,4-dichlorophenyl)-2-(1,2,4-triazol-1-yl)ethanol
Formula: C10H9Cl2N3O
Exact mass: 257.0123
SMILES: OC(CN1C=NC=N1)C1=C(Cl)C=C(Cl)C=C1
InChI: InChI=1S/C10H9Cl2N3O/c11-7-1-2-8(9(12)3-7)10(16)4-15-6-13-5-14-15/h1-3,5-6,10,16H,4H2
Instrument: Q Exactive Orbitrap Thermo Scientific
Instrument type: LC-ESI-QFT
Ms type: MS2
Ion mode: POSITIVE
Ionization: ESI
Fragmentation mode: HCD
Collision energy: 70 (nominal)
Resolution: 35000
Column name: XBridge C18 3.5 um, 2.1x50 mm, Waters with guard column
Retention time: 12.3 min
Base peak: 212.1645
Precursor m/z: 258.0195
Precursor type: [M+H]+
m/z	relative intensity	assigned
55.0542	2	C4H7+
57.0698	1	C4H9+
59.0491	1	C3H7O+
67.0542	14	C5H7+
69.0334	1	C4H5O+
69.0699	9	C5H9+
70.0399	999	C2H4N3+
71.0491	1	C4H7O+
79.0543	13	C6H7+
81.0699	24	C6H9+
82.0734	1	CH10N2O2+
83.0491	3	C5H7O+
85.0648	2	C5H9O+
89.0386	5	C7H5+
90.0174	28	H2N4O2+
91.0543	12	C7H7+
92.0577	1	C2H8N2O2+
93.0699	12	C7H9+
95.0493	4	C6H7O+
97.0648	1	C6H9O+
98.9996	1	C5H4Cl+
105.0699	6	C8H9+
109.0648	2	C7H9O+
111.0442	2	C3H10ClNO+
125.0152	114	C7H6Cl+
128.0618	1	C10H8+
129.01	2	C6H6ClO+
134.9996	1	C8H4Cl+
136.0074	45	C8H5Cl+
139.0062	1	C6H4ClN2+
146.9763	2	C6H5Cl2+
153.0102	2	C8H6ClO+
154.0181	3	C8H7ClO+
158.9766	1	C7H5Cl2+
160.9734	1	C2ClN5O2+
170.9761	20	C8H5Cl2+
222.9835	1	C10H5Cl2N2+
228.0216	1	C10H10Cl2N2+
