Mass spectrum: Propiconazole (PRP); LC-ESI-QFT; MS2; CE: 50; R=35000; [M+H]+
Name: Propiconazole (PRP)
Name: PROPICONAZOLE
Name: 1-[[2-(2,4-dichlorophenyl)-4-propyl-1,3-dioxolan-2-yl]methyl]-1,2,4-triazole
Formula: C15H17Cl2N3O2
Exact mass: 341.0698
SMILES: CCCC1COC(CN2C=NC=N2)(O1)C1=C(Cl)C=C(Cl)C=C1
InChI: InChI=1S/C15H17Cl2N3O2/c1-2-3-12-7-21-15(22-12,8-20-10-18-9-19-20)13-5-4-11(16)6-14(13)17/h4-6,9-10,12H,2-3,7-8H2,1H3
Instrument: Q Exactive Orbitrap Thermo Scientific
Instrument type: LC-ESI-QFT
Ms type: MS2
Ion mode: POSITIVE
Ionization: ESI
Fragmentation mode: HCD
Collision energy: 50 (nominal)
Resolution: 35000
Column name: XBridge C18 3.5 um, 2.1x50 mm, Waters with guard column
Retention time: 17.0 min
Base peak: 342.0771
Precursor m/z: 342.0771
Precursor type: [M+H]+
m/z	relative intensity	assigned
53.0027	7	ClH4N+
67.0542	8	C5H7+
67.9892	3	C3O2+
69.0698	293	C5H9+
70.0399	43	C2H4N3+
84.0556	1	C3H6N3+
89.0383	1	C7H5+
122.9992	5	C7H4Cl+
139.0052	1	C9HNO+
152.0023	1	C8H5ClO+
158.9761	999	C7H5Cl2+
172.9553	79	C7H3Cl2O+
172.9917	4	C8H7Cl2+
186.9709	53	C8H5Cl2O+
190.9658	40	C7H5Cl2O2+
204.9813	5	C8H7Cl2O2+
220.0269	1	C13H4N2O2+
256.0034	2	C13H5ClN2O2+
259.0281	5	C12H13Cl2O2+
342.0765	1	C15H18Cl2N3O2+
