Mass spectrum: PRP_M256; LC-ESI-QFT; MS2; CE: 70; R=35000; [M+H]+
Name: PRP_M256
Name: 1-(2,4-dichlorophenyl)-2-(1,2,4-triazol-1-yl)ethanone
Formula: C10H7Cl2N3O
Exact mass: 254.9966
SMILES: ClC1=CC(Cl)=C(C=C1)C(=O)CN1C=NC=N1
InChI: InChI=1S/C10H7Cl2N3O/c11-7-1-2-8(9(12)3-7)10(16)4-15-6-13-5-14-15/h1-3,5-6H,4H2
Instrument: Q Exactive Orbitrap Thermo Scientific
Instrument type: LC-ESI-QFT
Ms type: MS2
Ion mode: POSITIVE
Ionization: ESI
Fragmentation mode: HCD
Collision energy: 70 (nominal)
Resolution: 35000
Column name: XBridge C18 3.5 um, 2.1x50 mm, Waters with guard column
Retention time: 11.6 min
Base peak: 331.2163
Precursor m/z: 256.0039
Precursor type: [M+H]+
m/z	relative intensity	assigned
67.0543	8	C5H7+
70.04	24	C2H4N3+
79.0542	9	C6H7+
82.0399	14	C3H4N3+
83.0478	3	C3H5N3+
89.0385	12	C7H5+
91.0541	3	C7H7+
98.9995	12	C5H4Cl+
122.9995	95	C7H4Cl+
124.0073	27	C7H5Cl+
128.0621	2	C10H8+
132.9607	14	C5H3Cl2+
151.0184	37	C8H6ClN+
158.9762	999	C7H5Cl2+
171.9715	3	C7H4Cl2N+
186.9707	2	C8H5Cl2O+
