Mass spectrum: PRP_M358b; LC-ESI-QFT; MS2; CE: 20; R=35000; [M+H]+
Name: PRP_M358b
Name: CID 91079068
Name: 1-[2-(2,4-dichlorophenyl)-2-(1,2,4-triazol-1-ylmethyl)-1,3-dioxolan-4-yl]propan-2-ol
Formula: C15H17Cl2N3O3
Exact mass: 357.0647
SMILES: CC(O)CC1COC(CN2C=NC=N2)(O1)C1=C(Cl)C=C(Cl)C=C1
InChI: InChI=1S/C15H17Cl2N3O3/c1-10(21)4-12-6-22-15(23-12,7-20-9-18-8-19-20)13-3-2-11(16)5-14(13)17/h2-3,5,8-10,12,21H,4,6-7H2,1H3
Instrument: Q Exactive Orbitrap Thermo Scientific
Instrument type: LC-ESI-QFT
Ms type: MS2
Ion mode: POSITIVE
Ionization: ESI
Fragmentation mode: HCD
Collision energy: 20 (nominal)
Resolution: 35000
Column name: XBridge C18 3.5 um, 2.1x50 mm, Waters with guard column
Retention time: 14.6 min
Base peak: 199.1689
Precursor m/z: 358.072
Precursor type: [M+H]+
m/z	relative intensity	assigned
60.0811	1	C3H10N+
67.0543	13	C5H7+
70.0399	10	C2H4N3+
71.0855	6	C5H11+
82.0396	3	C3H4N3+
85.0647	46	C5H9O+
100.0505	3	C3H6N3O+
101.0596	2	C5H9O2+
115.0389	4	C5H7O3+
128.0454	1	C4H6N3O2+
158.9757	18	C7H5Cl2+
186.9708	3	C8H5Cl2O+
256.0036	999	C13H5ClN2O2+
298.0145	4	C12H10Cl2N3O2+
340.0609	6	C15H16Cl2N3O2+
358.0717	392	C15H18Cl2N3O3+
