Mass spectrum: PRP_M258; LC-ESI-QFT; MS2; CE: 20; R=35000; [M+H]+
Name: PRP_M258
Name: 1-(2,4-dichlorophenyl)-2-(1H-1,2,4-triazol-1-yl)ethan-1-ol
Name: 1-(2,4-dichlorophenyl)-2-(1,2,4-triazol-1-yl)ethanol
Formula: C10H9Cl2N3O
Exact mass: 257.0123
SMILES: OC(CN1C=NC=N1)C1=C(Cl)C=C(Cl)C=C1
InChI: InChI=1S/C10H9Cl2N3O/c11-7-1-2-8(9(12)3-7)10(16)4-15-6-13-5-14-15/h1-3,5-6,10,16H,4H2
Instrument: Q Exactive Orbitrap Thermo Scientific
Instrument type: LC-ESI-QFT
Ms type: MS2
Ion mode: POSITIVE
Ionization: ESI
Fragmentation mode: HCD
Collision energy: 20 (nominal)
Resolution: 35000
Column name: XBridge C18 3.5 um, 2.1x50 mm, Waters with guard column
Retention time: 12.3 min
Base peak: 212.1645
Precursor m/z: 258.0195
Precursor type: [M+H]+
m/z	relative intensity	assigned
59.0491	1	C3H7O+
67.0543	2	C5H7+
70.0399	552	C2H4N3+
81.0697	4	C6H9+
89.0222	1	CH3N3O2+
90.0174	30	H2N4O2+
93.0698	1	C7H9+
97.0649	1	C6H9O+
125.0152	2	C7H6Cl+
188.9866	12	C8H7Cl2O+
258.0195	999	C10H10Cl2N3O+
