Mass spectrum: PRP_M258; LC-ESI-QFT; MS2; CE: 30; R=35000; [M+H]+
Name: PRP_M258
Name: 1-(2,4-dichlorophenyl)-2-(1H-1,2,4-triazol-1-yl)ethan-1-ol
Name: 1-(2,4-dichlorophenyl)-2-(1,2,4-triazol-1-yl)ethanol
Formula: C10H9Cl2N3O
Exact mass: 257.0123
SMILES: OC(CN1C=NC=N1)C1=C(Cl)C=C(Cl)C=C1
InChI: InChI=1S/C10H9Cl2N3O/c11-7-1-2-8(9(12)3-7)10(16)4-15-6-13-5-14-15/h1-3,5-6,10,16H,4H2
Instrument: Q Exactive Orbitrap Thermo Scientific
Instrument type: LC-ESI-QFT
Ms type: MS2
Ion mode: POSITIVE
Ionization: ESI
Fragmentation mode: HCD
Collision energy: 30 (nominal)
Resolution: 35000
Column name: XBridge C18 3.5 um, 2.1x50 mm, Waters with guard column
Retention time: 12.3 min
Base peak: 212.1645
Precursor m/z: 258.0195
Precursor type: [M+H]+
m/z	relative intensity	assigned
57.0699	2	C4H9+
59.0491	1	C3H7O+
60.0808	1	C3H10N+
67.0542	2	C5H7+
69.0699	1	C5H9+
70.0399	999	C2H4N3+
71.0491	4	C4H7O+
79.0541	1	C6H7+
81.0698	8	C6H9+
83.0491	1	C5H7O+
85.0647	1	C5H9O+
90.0173	32	H2N4O2+
91.0542	1	C7H7+
95.0493	1	C6H7O+
97.0648	4	C6H9O+
99.044	1	C5H7O2+
105.0699	1	C8H9+
111.0441	1	C3H10ClNO+
113.0596	1	C6H9O2+
125.0152	8	C7H6Cl+
128.0491	1	C9H6N+
153.0101	14	C8H6ClO+
188.9868	27	C8H7Cl2O+
217.0124	1	C3H9Cl2N5O2+
258.0196	244	C10H10Cl2N3O+
