Mass spectrum: PRP_M256; LC-ESI-QFT; MS2; CE: 60; R=35000; [M+H]+
Name: PRP_M256
Name: 1-(2,4-dichlorophenyl)-2-(1,2,4-triazol-1-yl)ethanone
Formula: C10H7Cl2N3O
Exact mass: 254.9966
SMILES: ClC1=CC(Cl)=C(C=C1)C(=O)CN1C=NC=N1
InChI: InChI=1S/C10H7Cl2N3O/c11-7-1-2-8(9(12)3-7)10(16)4-15-6-13-5-14-15/h1-3,5-6H,4H2
Instrument: Q Exactive Orbitrap Thermo Scientific
Instrument type: LC-ESI-QFT
Ms type: MS2
Ion mode: POSITIVE
Ionization: ESI
Fragmentation mode: HCD
Collision energy: 60 (nominal)
Resolution: 35000
Column name: XBridge C18 3.5 um, 2.1x50 mm, Waters with guard column
Retention time: 11.6 min
Base peak: 331.2163
Precursor m/z: 256.0039
Precursor type: [M+H]+
m/z	relative intensity	assigned
67.0542	8	C5H7+
70.04	27	C2H4N3+
71.0492	2	C4H7O+
79.0543	2	C6H7+
82.04	3	C3H4N3+
83.0476	2	C3H5N3+
89.0385	2	C7H5+
91.0543	7	C7H7+
98.9993	2	C5H4Cl+
111.0439	2	C6H7O2+
120.0519	1	CH6N5O2+
122.9994	25	C7H4Cl+
124.0076	2	C7H5Cl+
129.9582	1	C2H4Cl2O2+
151.0183	43	C8H6ClN+
158.9762	999	C7H5Cl2+
171.9714	8	C7H4Cl2N+
186.9711	38	C8H5Cl2O+
256.0038	10	C10H8Cl2N3O+
