Mass spectrum: PRP_M358a; LC-ESI-QFT; MS2; CE: 30; R=35000; [M+H]+
Name: PRP_M358a
Name: 3-[2-(2,4-dichlorophenyl)-2-(1,2,4-triazol-1-ylmethyl)-1,3-dioxolan-4-yl]propan-1-ol
Formula: C15H17Cl2N3O3
Exact mass: 357.0647
SMILES: OCCCC1COC(CN2C=NC=N2)(O1)C1=C(Cl)C=C(Cl)C=C1
InChI: InChI=1S/C15H17Cl2N3O3/c16-11-3-4-13(14(17)6-11)15(8-20-10-18-9-19-20)22-7-12(23-15)2-1-5-21/h3-4,6,9-10,12,21H,1-2,5,7-8H2
Instrument: Q Exactive Orbitrap Thermo Scientific
Instrument type: LC-ESI-QFT
Ms type: MS2
Ion mode: POSITIVE
Ionization: ESI
Fragmentation mode: HCD
Collision energy: 30 (nominal)
Resolution: 35000
Column name: XBridge C18 3.5 um, 2.1x50 mm, Waters with guard column
Retention time: 13.8 min
Base peak: 358.0715
Precursor m/z: 358.072
Precursor type: [M+H]+
m/z	relative intensity	assigned
61.0287	4	C2H5O2+
67.0543	26	C5H7+
70.0399	47	C2H4N3+
71.0855	2	C5H11+
82.0399	39	C3H4N3+
85.0647	44	C5H9O+
100.0505	20	C3H6N3O+
115.0389	2	C5H7O3+
128.0454	9	C4H6N3O2+
158.976	38	C7H5Cl2+
185.9868	1	C11H3ClO+
186.971	41	C8H5Cl2O+
220.027	2	C10H7ClN3O+
221.117	4	C13H17O3+
228.9927	2	C12H4ClNO2+
236.1038	3	C11H14N3O3+
256.0036	999	C13H5ClN2O2+
266.1017	1	C8H17ClN5O3+
340.0622	3	C15H16Cl2N3O2+
358.0715	9	C15H18Cl2N3O3+
