Mass spectrum: Propiconazole (PRP); LC-ESI-QFT; MS2; CE: 30; R=35000; [M+H]+
Name: Propiconazole (PRP)
Name: PROPICONAZOLE
Name: 1-[[2-(2,4-dichlorophenyl)-4-propyl-1,3-dioxolan-2-yl]methyl]-1,2,4-triazole
Formula: C15H17Cl2N3O2
Exact mass: 341.0698
SMILES: CCCC1COC(CN2C=NC=N2)(O1)C1=C(Cl)C=C(Cl)C=C1
InChI: InChI=1S/C15H17Cl2N3O2/c1-2-3-12-7-21-15(22-12,8-20-10-18-9-19-20)13-5-4-11(16)6-14(13)17/h4-6,9-10,12H,2-3,7-8H2,1H3
Instrument: Q Exactive Orbitrap Thermo Scientific
Instrument type: LC-ESI-QFT
Ms type: MS2
Ion mode: POSITIVE
Ionization: ESI
Fragmentation mode: HCD
Collision energy: 30 (nominal)
Resolution: 35000
Column name: XBridge C18 3.5 um, 2.1x50 mm, Waters with guard column
Retention time: 17.0 min
Base peak: 342.0771
Precursor m/z: 342.0771
Precursor type: [M+H]+
m/z	relative intensity	assigned
53.0027	1	ClH4N+
67.0543	16	C5H7+
67.9894	1	C3O2+
69.0699	822	C5H9+
70.0399	94	C2H4N3+
83.0854	2	C6H11+
87.0804	20	C5H11O+
158.9762	999	C7H5Cl2+
169.0046	1	C8H6ClO2+
172.9552	22	C7H3Cl2O+
172.9917	23	C8H7Cl2+
186.971	160	C8H5Cl2O+
190.966	20	C7H5Cl2O2+
204.9816	197	C8H7Cl2O2+
215.0385	6	C11H13Cl2+
216.9823	1	C9H7Cl2O2+
220.0271	6	C10H7ClN3O+
222.9919	4	C6H7Cl2N3O2+
256.0035	4	C13H5ClN2O2+
259.0285	86	C12H13Cl2O2+
273.044	30	C13H15Cl2O2+
342.0768	813	C15H18Cl2N3O2+
