Mass spectrum: TEB_M404; LC-ESI-QFT; MS2; CE: 10; R=35000; [M+H]+
Name: TEB_M404
Formula: C16H23ClN3O5P
Exact mass: 403.1064
SMILES: CC(C)(CO)C(CCC1=CC=C(Cl)C=C1)(CN1C=NC=N1)OP(O)(O)=O
InChI: InChI=1S/C16H23ClN3O5P/c1-15(2,10-21)16(25-26(22,23)24,9-20-12-18-11-19-20)8-7-13-3-5-14(17)6-4-13/h3-6,11-12,21H,7-10H2,1-2H3,(H2,22,23,24)
Instrument: Q Exactive Orbitrap Thermo Scientific
Instrument type: LC-ESI-QFT
Ms type: MS2
Ion mode: POSITIVE
Ionization: ESI
Fragmentation mode: HCD
Collision energy: 10 (nominal)
Resolution: 35000
Column name: XBridge C18 3.5 um, 2.1x50 mm, Waters with guard column
Retention time: 12.7 min
Base peak: 199.1691
Precursor m/z: 404.1137
Precursor type: [M+H]+
m/z	relative intensity	assigned
70.0399	14	C2H4N3+
86.0964	1	C5H12N+
125.0153	5	C7H6Cl+
138.0218	6	C5H5N3P+
151.0308	4	C8H8OP+
163.0307	2	C9H8OP+
177.0466	3	C11H10Cl+
207.0937	2	C9H19ClNP+
219.0936	16	C14H16Cl+
247.1695	2	C16H23O2+
250.074	3	C11H13N3O2P+
276.1267	5	C15H19ClN3+
288.1263	69	C16H19ClN3+
306.1368	102	C16H21ClN3O+
386.1034	31	C16H22ClN3O4P+
404.1137	999	C16H24ClN3O5P+
