Mass spectrum: TEB_M388; LC-ESI-QFT; MS2; CE: 50; R=35000; [M+H]+
Name: TEB_M388
Formula: C16H23ClN3O4P
Exact mass: 387.1115
SMILES: CC(C)(C)C(CCC1=CC=C(Cl)C=C1)(CN1C=NC=N1)OP(O)(O)=O
InChI: InChI=1S/C16H23ClN3O4P/c1-15(2,3)16(24-25(21,22)23,10-20-12-18-11-19-20)9-8-13-4-6-14(17)7-5-13/h4-7,11-12H,8-10H2,1-3H3,(H2,21,22,23)
Instrument: Q Exactive Orbitrap Thermo Scientific
Instrument type: LC-ESI-QFT
Ms type: MS2
Ion mode: POSITIVE
Ionization: ESI
Fragmentation mode: HCD
Collision energy: 50 (nominal)
Resolution: 35000
Column name: XBridge C18 3.5 um, 2.1x50 mm, Waters with guard column
Retention time: 15.8 min
Base peak: 174.1278
Precursor m/z: 388.1187
Precursor type: [M+H]+
m/z	relative intensity	assigned
53.0386	2	C4H5+
55.0543	12	C4H7+
57.0699	31	C4H9+
60.0808	28	C3H10N+
61.0161	1	CH3NO2+
67.0542	51	C5H7+
69.0335	14	C4H5O+
69.0699	97	C5H9+
70.04	599	C2H4N3+
71.0491	2	C4H7O+
77.0383	2	C6H5+
79.0542	24	C6H7+
81.0335	4	C5H5O+
81.0699	20	C6H9+
82.04	34	C3H4N3+
83.0855	451	C6H11+
85.0284	7	C4H5O2+
89.0386	7	C7H5+
91.0542	7	C7H7+
93.0699	22	C7H9+
94.0651	9	C6H8N+
94.0733	10	C2H10N2O2+
95.0493	12	C2H10NOP+
95.073	9	C6H9N+
95.0855	16	C7H11+
96.0527	2	CH8N2O3+
96.0557	11	C4H6N3+
98.0964	2	C6H12N+
98.9842	16	H4O4P+
103.0543	27	C8H7+
105.0699	391	C8H9+
106.0732	207	C3H10N2O2+
107.0855	3	C8H11+
108.0556	37	C5H6N3+
108.0808	8	C7H10N+
109.0633	12	C5H7N3+
109.1012	59	C8H13+
110.0713	3	C5H8N3+
111.044	2	C6H7O2+
115.0542	23	C9H7+
116.0622	18	C9H8+
119.0492	15	C8H7O+
119.0566	2	C2H7N4O2+
119.0602	17	C7H7N2+
119.0855	1	C9H11+
120.0525	9	C3H8N2O3+
121.0646	16	C8H9O+
121.0887	3	C8H11N+
122.0718	5	C6H8N3+
123.079	9	C6H9N3+
125.0152	999	C7H6Cl+
126.0186	2	C5H4NO3+
129.0698	72	C10H9+
130.0777	130	C10H10+
135.08	3	C9H11O+
137.0958	2	C9H13O+
138.1151	6	C8H14N2+
139.0309	117	C8H8Cl+
143.0856	8	C11H11+
144.0934	16	C11H12+
149.1332	1	C7H20NP+
150.1027	22	C8H12N3+
151.031	153	C9H8Cl+
153.0466	6	C9H10Cl+
161.0965	1	C8H16ClN+
163.0311	2	C6H11ClNP+
163.1103	19	C9H13N3+
164.1182	12	C9H14N3+
165.0466	391	C10H10Cl+
165.1261	31	C9H15N3+
166.0497	2	C8H8NO3+
174.1279	2	C8H19N2P+
177.1274	17	C12H17O+
178.1338	27	C10H16N3+
179.0623	35	C11H12Cl+
186.1281	2	C9H19N2P+
195.0913	6	C5H21ClO3P+
212.1182	29	C13H14N3+
234.0794	50	C12H13ClN3+
236.9511	1	C10H3ClO3P+
254.1647	2	C16H20N3+
290.1419	186	C16H21ClN3+
318.1134	1	C13H22ClN3O2P+
