Mass spectrum: TEB_M388; LC-ESI-QFT; MS2; CE: 70; R=35000; [M+H]+
Name: TEB_M388
Formula: C16H23ClN3O4P
Exact mass: 387.1115
SMILES: CC(C)(C)C(CCC1=CC=C(Cl)C=C1)(CN1C=NC=N1)OP(O)(O)=O
InChI: InChI=1S/C16H23ClN3O4P/c1-15(2,3)16(24-25(21,22)23,10-20-12-18-11-19-20)9-8-13-4-6-14(17)7-5-13/h4-7,11-12H,8-10H2,1-3H3,(H2,21,22,23)
Instrument: Q Exactive Orbitrap Thermo Scientific
Instrument type: LC-ESI-QFT
Ms type: MS2
Ion mode: POSITIVE
Ionization: ESI
Fragmentation mode: HCD
Collision energy: 70 (nominal)
Resolution: 35000
Column name: XBridge C18 3.5 um, 2.1x50 mm, Waters with guard column
Retention time: 15.8 min
Base peak: 174.1278
Precursor m/z: 388.1187
Precursor type: [M+H]+
m/z	relative intensity	assigned
51.0229	1	C4H3+
53.0023	1	C3HO+
53.0386	2	C4H5+
55.0543	23	C4H7+
57.0336	1	C3H5O+
57.0699	18	C4H9+
60.0808	16	C3H10N+
63.0229	1	C5H3+
65.0385	6	C5H5+
67.0542	35	C5H7+
69.0335	8	C4H5O+
69.0699	30	C5H9+
70.04	370	C2H4N3+
77.0385	7	C6H5+
79.0542	46	C6H7+
80.0496	1	C5H6N+
81.0699	23	C6H9+
82.04	17	C3H4N3+
83.0855	121	C6H11+
85.0284	6	C4H5O2+
89.0385	31	C7H5+
90.0465	6	C7H6+
91.0543	21	C7H7+
92.0495	1	C6H6N+
92.0577	2	C2H8N2O2+
93.0699	19	C7H9+
94.0651	12	C6H8N+
94.0733	4	C2H10N2O2+
95.0492	33	C6H7O+
95.0855	7	C7H11+
96.0525	9	CH8N2O3+
96.0557	5	C4H6N3+
96.0809	5	C6H10N+
97.0764	1	CH12N3P+
98.9842	19	H4O4P+
98.9996	15	C5H4Cl+
103.0543	77	C8H7+
104.0576	10	C3H8N2O2+
105.0699	216	C8H9+
106.0732	105	C3H10N2O2+
107.0855	2	C8H11+
108.0556	20	C5H6N3+
108.0805	4	C7H10N+
109.0637	7	C5H7N3+
109.1013	7	C8H13+
110.0714	2	C5H8N3+
115.0542	53	C9H7+
116.0621	65	C9H8+
119.0492	7	C8H7O+
119.0603	18	C7H7N2+
119.0855	8	C9H11+
120.0524	2	C3H8N2O3+
121.0645	1	C8H9O+
122.0713	2	C6H8N3+
123.0791	2	C6H9N3+
125.0152	999	C7H6Cl+
128.062	24	C10H8+
129.0698	90	C10H9+
130.0777	184	C10H10+
133.0649	7	C9H9O+
133.1012	2	C10H13+
135.0802	5	C9H11O+
137.0961	5	C9H13O+
139.0309	50	C8H8Cl+
142.0778	2	C11H10+
143.0606	2	C5H10N3P+
143.0858	7	C7H14NP+
144.0933	14	C11H12+
145.0648	4	C10H9O+
148.0871	1	C8H10N3+
150.0234	5	C5H10ClNP+
150.1027	14	C8H12N3+
151.031	38	C9H8Cl+
155.0605	1	C6H10N3P+
155.0858	1	C8H14NP+
157.0762	2	C6H12N3P+
158.0961	1	C11H12N+
161.0959	1	C11H13O+
162.1027	1	C9H12N3+
163.0313	2	C6H11ClNP+
163.1106	8	C9H13N3+
164.1184	7	C9H14N3+
165.0466	64	C10H10Cl+
177.1277	2	C8H20NOP+
178.134	1	C10H16N3+
179.0625	2	C7H15ClNP+
195.0917	5	C13H11N2+
