Mass spectrum: TEB_M324c; LC-ESI-QFT; MS2; CE: 30; R=70000; [M+H]+
Name: TEB_M324c
Formula: C16H22ClN3O2
Exact mass: 323.1401
SMILES: CC(C)(C)C(O)(CC(O)C1=CC=C(Cl)C=C1)CN1C=NC=N1
InChI: InChI=1S/C16H22ClN3O2/c1-15(2,3)16(22,9-20-11-18-10-19-20)8-14(21)12-4-6-13(17)7-5-12/h4-7,10-11,14,21-22H,8-9H2,1-3H3
Instrument: Q Exactive Orbitrap Thermo Scientific
Instrument type: LC-ESI-QFT
Ms type: MS2
Ion mode: POSITIVE
Ionization: ESI
Fragmentation mode: HCD
Collision energy: 30 (nominal)
Resolution: 70000
Column name: XBridge C18 3.5 um, 2.1x50 mm, Waters with guard column
Retention time: 16.3 min
Base peak: 432.2382
Precursor m/z: 324.1473
Precursor type: [M+H]+
m/z	relative intensity	assigned
57.0701	39	C4H9+
59.0493	18	C3H7O+
67.0544	4	C5H7+
69.07	15	C5H9+
70.04	999	C2H4N3+
71.0491	5	C4H7O+
71.0856	9	C5H11+
72.0445	2	C3H6NO+
79.0542	2	C6H7+
81.0699	21	C6H9+
83.0856	11	C6H11+
85.0647	12	C5H9O+
85.1015	1	C6H13+
86.0347	2	C2H4N3O+
87.0441	2	C4H7O2+
89.0598	30	C4H9O2+
91.0543	2	C7H7+
93.0699	9	C7H9+
95.0855	16	C7H11+
97.0647	13	C6H9O+
97.1011	41	C7H13+
99.0805	12	C6H11O+
101.06	11	C5H9O2+
101.0962	12	C6H13O+
105.0701	4	C8H9+
107.0855	5	C8H11+
109.065	4	C7H9O+
109.1011	12	C8H13+
111.0804	3	C7H11O+
111.1171	3	C8H15+
115.0758	2	C6H11O2+
117.0696	2	C9H9+
117.091	12	C6H13O2+
119.0491	9	C8H7O+
119.0854	3	C9H11+
121.1011	14	C9H13+
123.1171	4	C9H15+
125.0154	31	C7H6Cl+
125.096	3	C8H13O+
126.0218	8	C8H2N2+
133.1014	2	C10H13+
134.104	2	C3H12N5O+
135.1167	9	C10H15+
139.0306	17	C8H8Cl+
141.0101	33	C7H6ClO+
145.1006	3	C11H13+
145.1226	11	C8H17O2+
150.1027	8	C8H12N3+
151.0312	30	C9H8Cl+
153.0463	3	C9H10Cl+
157.1014	2	C12H13+
159.1171	2	C12H15+
160.1197	2	C5H14N5O+
165.0463	19	C10H10Cl+
168.1129	18	C8H14N3O+
169.1016	2	C13H13+
173.1532	3	C10H21O2+
179.0622	14	C11H12Cl+
184.0276	3	C7H7ClN3O+
185.1334	3	C14H17+
191.062	2	C12H12Cl+
191.1793	5	C14H23+
207.0934	39	C13H16Cl+
211.1483	10	C16H19+
219.0936	14	C14H16Cl+
229.1588	13	C16H21O+
288.1259	21	C16H19ClN3+
324.1478	195	C16H23ClN3O2+
