Mass spectrum: TEB_M324a; LC-ESI-QFT; MS2; CE: 30; R=70000; [M+H]+
Name: TEB_M324a
Formula: C16H22ClN3O2
Exact mass: 323.1401
SMILES: CC(C)(CO)C(O)(CCC1=CC=C(Cl)C=C1)CN1C=NC=N1
InChI: InChI=1S/C16H22ClN3O2/c1-15(2,10-21)16(22,9-20-12-18-11-19-20)8-7-13-3-5-14(17)6-4-13/h3-6,11-12,21-22H,7-10H2,1-2H3
Instrument: Q Exactive Orbitrap Thermo Scientific
Instrument type: LC-ESI-QFT
Ms type: MS2
Ion mode: POSITIVE
Ionization: ESI
Fragmentation mode: HCD
Collision energy: 30 (nominal)
Resolution: 70000
Column name: XBridge C18 3.5 um, 2.1x50 mm, Waters with guard column
Retention time: 15.0 min
Base peak: 183.1742
Precursor m/z: 324.1473
Precursor type: [M+H]+
m/z	relative intensity	assigned
69.0699	3	C5H9+
70.0399	999	C2H4N3+
73.0647	3	C4H9O+
81.0697	1	C6H9+
95.0854	1	C7H11+
125.015	18	C7H6Cl+
138.0218	1	C9H2N2+
139.0308	10	C8H8Cl+
139.0401	1	C4H10ClNO2+
151.0309	20	C9H8Cl+
156.0324	11	C6H7ClN3+
163.0307	6	C10H8Cl+
165.0467	16	C10H10Cl+
167.0257	1	C9H8ClO+
177.0458	5	C11H10Cl+
179.062	43	C11H12Cl+
181.0415	17	C10H10ClO+
207.0934	3	C13H16Cl+
219.0933	9	C14H16Cl+
237.1036	2	C14H18ClO+
306.1373	3	C16H21ClN3O+
324.1472	444	C16H23ClN3O2+
