Mass spectrum: TEB_M404; LC-ESI-QFT; MS2; CE: 20; R=35000; [M+H]+
Name: TEB_M404
Formula: C16H23ClN3O5P
Exact mass: 403.1064
SMILES: CC(C)(CO)C(CCC1=CC=C(Cl)C=C1)(CN1C=NC=N1)OP(O)(O)=O
InChI: InChI=1S/C16H23ClN3O5P/c1-15(2,10-21)16(25-26(22,23)24,9-20-12-18-11-19-20)8-7-13-3-5-14(17)6-4-13/h3-6,11-12,21H,7-10H2,1-2H3,(H2,22,23,24)
Instrument: Q Exactive Orbitrap Thermo Scientific
Instrument type: LC-ESI-QFT
Ms type: MS2
Ion mode: POSITIVE
Ionization: ESI
Fragmentation mode: HCD
Collision energy: 20 (nominal)
Resolution: 35000
Column name: XBridge C18 3.5 um, 2.1x50 mm, Waters with guard column
Retention time: 12.7 min
Base peak: 199.1691
Precursor m/z: 404.1137
Precursor type: [M+H]+
m/z	relative intensity	assigned
69.0699	15	C5H9+
70.04	248	C2H4N3+
72.0808	2	C4H10N+
73.0648	6	C4H9O+
81.0699	7	C6H9+
86.0964	16	C5H12N+
88.0394	4	C3H6NO2+
93.0699	2	C7H9+
98.9842	11	H4O4P+
107.0854	16	C8H11+
109.1017	1	C4H16NP+
120.0809	16	C8H10N+
121.1014	2	C5H16NP+
124.0861	1	C2H17ClO3+
125.0149	79	C6H6OP+
133.1012	1	C10H13+
135.0803	2	C9H11O+
138.0219	20	C5H5N3P+
139.0308	33	C8H8Cl+
145.1014	1	C7H16NP+
146.1176	2	C7H16NO2+
147.117	2	C7H18NP+
149.096	2	C10H13O+
151.031	70	C9H8Cl+
153.0467	3	C9H10Cl+
156.0326	6	C6H7ClN3+
163.0309	72	C10H8Cl+
165.0463	17	C9H10OP+
167.0259	7	C9H8ClO+
177.0464	65	C10H10OP+
179.0623	8	C11H12Cl+
181.0413	3	C9H10O2P+
191.0624	8	C8H15ClNP+
194.0481	4	C9H9ClN3+
207.0934	37	C13H16Cl+
219.0936	256	C14H16Cl+
229.1582	3	C16H21O+
237.1042	30	C14H18ClO+
247.1697	10	C16H23O2+
250.0743	62	C12H13ClN3O+
276.1264	28	C15H19ClN3+
281.1573	6	C10H23N3O6+
288.1262	798	C16H19ClN3+
289.1291	7	C14H17N4O3+
306.1368	991	C16H21ClN3O+
307.1401	7	C16H21NO5+
324.1475	6	C16H23ClN3O2+
335.1077	1	C15H19ClN5P+
386.1032	162	C16H22ClN3O4P+
404.1137	999	C16H24ClN3O5P+
