Mass spectrum: TEB_M388; LC-ESI-QFT; MS2; CE: 10; R=35000; [M+H]+
Name: TEB_M388
Formula: C16H23ClN3O4P
Exact mass: 387.1115
SMILES: CC(C)(C)C(CCC1=CC=C(Cl)C=C1)(CN1C=NC=N1)OP(O)(O)=O
InChI: InChI=1S/C16H23ClN3O4P/c1-15(2,3)16(24-25(21,22)23,10-20-12-18-11-19-20)9-8-13-4-6-14(17)7-5-13/h4-7,11-12H,8-10H2,1-3H3,(H2,21,22,23)
Instrument: Q Exactive Orbitrap Thermo Scientific
Instrument type: LC-ESI-QFT
Ms type: MS2
Ion mode: POSITIVE
Ionization: ESI
Fragmentation mode: HCD
Collision energy: 10 (nominal)
Resolution: 35000
Column name: XBridge C18 3.5 um, 2.1x50 mm, Waters with guard column
Retention time: 15.8 min
Base peak: 174.1278
Precursor m/z: 388.1187
Precursor type: [M+H]+
m/z	relative intensity	assigned
57.0699	1	C4H9+
60.0808	4	C3H10N+
69.0698	2	C5H9+
70.0399	21	C2H4N3+
83.0855	18	C6H11+
105.0699	81	C8H9+
106.0732	45	C3H10N2O2+
109.1012	5	C8H13+
119.0491	3	C8H7O+
120.0525	1	C3H8N2O3+
121.0647	4	C8H9O+
122.068	2	C3H10N2O3+
125.0152	7	C7H6Cl+
139.0308	10	C7H8OP+
147.0652	1	C6H11O4+
151.031	2	C9H8Cl+
165.0465	8	C9H10OP+
212.1183	1	C13H14N3+
221.1092	18	C14H18Cl+
234.0791	1	C11H13N3OP+
267.1227	1	C11H22ClNO4+
290.1418	999	C16H21ClN3+
291.1451	4	C16H21NO4+
388.1195	7	C16H24ClN3O4P+
