Mass spectrum: Tebuconazole (TEB); LC-ESI-QFT; MS2; CE: 35; R=70000; [M+H]+
Name: Tebuconazole (TEB)
Name: Tebuconazole
Name: 1-(4-chlorophenyl)-4,4-dimethyl-3-(1,2,4-triazol-1-ylmethyl)pentan-3-ol
Formula: C16H22ClN3O
Exact mass: 307.1451
SMILES: CC(C)(C)C(O)(CCC1=CC=C(Cl)C=C1)CN1C=NC=N1
InChI: InChI=1S/C16H22ClN3O/c1-15(2,3)16(21,10-20-12-18-11-19-20)9-8-13-4-6-14(17)7-5-13/h4-7,11-12,21H,8-10H2,1-3H3
Instrument: Q Exactive Orbitrap Thermo Scientific
Instrument type: LC-ESI-QFT
Ms type: MS2
Ion mode: POSITIVE
Ionization: ESI
Fragmentation mode: HCD
Collision energy: 35 (nominal)
Resolution: 70000
Column name: XBridge C18 3.5 um, 2.1x50 mm, Waters with guard column
Retention time: 16.7 min
Base peak: 308.1527
Precursor m/z: 308.1524
Precursor type: [M+H]+
m/z	relative intensity	assigned
57.0701	5	C4H9+
59.0493	4	C3H7O+
70.04	999	C2H4N3+
71.0856	1	C5H11+
83.0856	6	C6H11+
115.0542	1	C9H7+
125.0153	35	C7H6Cl+
125.0243	1	C3H8ClNO2+
139.031	9	C8H8Cl+
151.0309	34	C9H8Cl+
165.0466	8	C10H10Cl+
308.1524	164	C16H23ClN3O+
