Mass spectrum: TEB_M404; LC-ESI-QFT; MS2; CE: 70; R=35000; [M+H]+
Name: TEB_M404
Formula: C16H23ClN3O5P
Exact mass: 403.1064
SMILES: CC(C)(CO)C(CCC1=CC=C(Cl)C=C1)(CN1C=NC=N1)OP(O)(O)=O
InChI: InChI=1S/C16H23ClN3O5P/c1-15(2,10-21)16(25-26(22,23)24,9-20-12-18-11-19-20)8-7-13-3-5-14(17)6-4-13/h3-6,11-12,21H,7-10H2,1-2H3,(H2,22,23,24)
Instrument: Q Exactive Orbitrap Thermo Scientific
Instrument type: LC-ESI-QFT
Ms type: MS2
Ion mode: POSITIVE
Ionization: ESI
Fragmentation mode: HCD
Collision energy: 70 (nominal)
Resolution: 35000
Column name: XBridge C18 3.5 um, 2.1x50 mm, Waters with guard column
Retention time: 12.7 min
Base peak: 199.1691
Precursor m/z: 404.1137
Precursor type: [M+H]+
m/z	relative intensity	assigned
55.0543	2	C4H7+
57.0335	1	C3H5O+
57.0699	2	C4H9+
58.0651	1	C3H8N+
63.0229	2	C5H3+
65.0385	3	C5H5+
67.0542	12	C5H7+
69.0699	20	C5H9+
70.04	236	C2H4N3+
73.0647	9	C4H9O+
79.0542	39	C6H7+
81.0699	24	C6H9+
84.0444	1	C4H6NO+
84.0809	5	C5H10N+
85.0284	2	C4H5O2+
86.0964	7	C5H12N+
89.0386	33	C7H5+
90.0464	7	C7H6+
91.0543	39	C7H7+
93.07	11	C7H9+
95.0492	21	C6H7O+
95.0856	5	C7H11+
98.9842	26	H4O4P+
98.9996	13	C5H4Cl+
102.0463	1	C8H6+
103.0543	109	C8H7+
104.0621	2	C8H8+
105.0447	4	C6H5N2+
105.0699	14	C8H9+
107.0856	11	C8H11+
109.0647	4	C7H9O+
110.0713	1	C5H8N3+
113.0151	1	C5H6OP+
115.0543	38	C9H7+
116.062	40	C9H8+
117.0698	9	C9H9+
119.0858	2	C5H14NP+
120.0809	15	C8H10N+
120.9954	1	C5H2N2P+
121.0644	1	C8H9O+
123.0678	5	C7H9NO+
125.0153	999	C7H6Cl+
127.0542	2	C10H7+
128.062	91	C10H8+
129.0699	17	C10H9+
130.0647	1	C9H8N+
130.0777	20	C10H10+
131.0856	2	C10H11+
133.0648	2	C9H9O+
133.1007	1	C10H13+
136.0758	2	C4H13N2OP+
139.0309	97	C8H8Cl+
141.0698	40	C11H9+
142.0778	89	C11H10+
143.0857	6	C7H14NP+
144.0936	5	C7H15NP+
145.0649	28	C10H9O+
148.0869	5	C8H10N3+
149.0155	16	C5H9ClNP+
151.031	70	C9H8Cl+
152.0823	1	C7H10N3O+
153.0465	2	C9H10Cl+
153.0697	2	C12H9+
154.0777	4	C12H10+
155.0008	1	C6H4ClN2O+
155.0605	17	C6H10N3P+
155.0856	16	C12H11+
156.0935	15	C12H12+
159.0803	5	C11H11O+
162.0232	7	C10H7Cl+
163.0309	45	C10H8Cl+
165.0465	13	C10H10Cl+
169.076	1	C11H9N2+
169.1012	15	C13H13+
175.0309	1	C11H8Cl+
177.0466	20	C11H10Cl+
189.0471	2	C8H13ClNP+
216.0934	1	C13H15NP+
