Mass spectrum: TEB_M404; LC-ESI-QFT; MS2; CE: 30; R=35000; [M+H]+
Name: TEB_M404
Formula: C16H23ClN3O5P
Exact mass: 403.1064
SMILES: CC(C)(CO)C(CCC1=CC=C(Cl)C=C1)(CN1C=NC=N1)OP(O)(O)=O
InChI: InChI=1S/C16H23ClN3O5P/c1-15(2,10-21)16(25-26(22,23)24,9-20-12-18-11-19-20)8-7-13-3-5-14(17)6-4-13/h3-6,11-12,21H,7-10H2,1-2H3,(H2,22,23,24)
Instrument: Q Exactive Orbitrap Thermo Scientific
Instrument type: LC-ESI-QFT
Ms type: MS2
Ion mode: POSITIVE
Ionization: ESI
Fragmentation mode: HCD
Collision energy: 30 (nominal)
Resolution: 35000
Column name: XBridge C18 3.5 um, 2.1x50 mm, Waters with guard column
Retention time: 12.7 min
Base peak: 199.1691
Precursor m/z: 404.1137
Precursor type: [M+H]+
m/z	relative intensity	assigned
57.0335	6	C3H5O+
57.0699	6	C4H9+
60.0809	3	C3H10N+
67.0388	2	CH7O3+
67.0542	6	C5H7+
69.0699	114	C5H9+
70.04	847	C2H4N3+
72.0808	3	C4H10N+
73.0648	50	C4H9O+
79.0542	10	C6H7+
81.0699	58	C6H9+
83.0491	3	C5H7O+
84.0444	3	C4H6NO+
84.0809	5	C5H10N+
85.0285	4	C4H5O2+
86.0964	40	C5H12N+
88.0392	3	C3H6NO2+
91.0541	4	C7H7+
93.0699	19	C7H9+
95.0855	20	C7H11+
98.9842	41	H4O4P+
105.0698	6	C8H9+
107.0856	116	C8H11+
109.0646	3	C7H9O+
110.0713	4	C5H8N3+
116.0615	3	C9H8+
119.0854	12	C9H11+
120.0806	41	C8H10N+
120.9954	4	C5H2N2P+
121.1014	5	C5H16NP+
125.0152	729	C7H6Cl+
126.0221	6	C4H5N3P+
128.0619	7	C10H8+
129.1023	3	C6H13N2O+
133.1015	3	C10H13+
135.1169	5	C10H15+
137.0959	4	C9H13O+
138.0219	14	C5H5N3P+
139.0309	283	C8H8Cl+
141.0098	2	C6H6O2P+
142.0778	14	C11H10+
143.0857	5	C7H14NP+
145.0649	3	C10H9O+
145.1015	4	C7H16NP+
147.1168	6	C11H15+
149.0154	5	C5H9ClNP+
149.1327	3	C7H20NP+
151.031	328	C9H8Cl+
153.0465	43	C9H10Cl+
155.0604	2	C10H7N2+
156.0327	5	C6H7ClN3+
156.0939	3	C8H15NP+
159.1172	4	C8H18NP+
161.1319	3	C12H17+
163.0309	429	C10H8Cl+
164.1186	3	C9H14N3+
165.0467	83	C10H10Cl+
167.026	12	C5H11ClNOP+
169.1008	3	C13H13+
174.1271	4	C12H16N+
177.0466	442	C11H10Cl+
179.0622	54	C11H12Cl+
181.0415	42	C10H10ClO+
183.1171	13	C10H18NP+
184.1247	20	C14H16+
189.1633	3	C14H21+
191.0621	83	C11H12OP+
193.0779	13	C12H14Cl+
194.0478	27	C8H9N3OP+
201.1637	3	C15H21+
207.0936	39	C13H16Cl+
213.1636	2	C16H21+
219.0937	529	C10H19ClNP+
237.1041	76	C14H18ClO+
247.1698	6	C16H23O2+
250.0743	117	C12H13ClN3O+
257.0604	3	C11H15ClN2OP+
288.1263	922	C16H19ClN3+
289.1285	3	C10H24ClNO6+
306.1368	999	C16H21ClN3O+
307.1413	3	C16H21NO5+
324.148	4	C16H23ClN3O2+
386.1032	36	C16H22ClN3O4P+
404.1138	57	C16H24ClN3O5P+
