Mass spectrum: TEB_M388; LC-ESI-QFT; MS2; CE: 30; R=35000; [M+H]+
Name: TEB_M388
Formula: C16H23ClN3O4P
Exact mass: 387.1115
SMILES: CC(C)(C)C(CCC1=CC=C(Cl)C=C1)(CN1C=NC=N1)OP(O)(O)=O
InChI: InChI=1S/C16H23ClN3O4P/c1-15(2,3)16(24-25(21,22)23,10-20-12-18-11-19-20)9-8-13-4-6-14(17)7-5-13/h4-7,11-12H,8-10H2,1-3H3,(H2,21,22,23)
Instrument: Q Exactive Orbitrap Thermo Scientific
Instrument type: LC-ESI-QFT
Ms type: MS2
Ion mode: POSITIVE
Ionization: ESI
Fragmentation mode: HCD
Collision energy: 30 (nominal)
Resolution: 35000
Column name: XBridge C18 3.5 um, 2.1x50 mm, Waters with guard column
Retention time: 15.8 min
Base peak: 174.1278
Precursor m/z: 388.1187
Precursor type: [M+H]+
m/z	relative intensity	assigned
55.0543	1	C4H7+
57.0698	10	C4H9+
60.0808	11	C3H10N+
67.0542	3	C5H7+
69.0335	5	C4H5O+
69.0699	34	C5H9+
70.04	152	C2H4N3+
71.0855	4	C5H11+
79.0541	2	C6H7+
81.0336	1	C5H5O+
81.0699	1	C6H9+
82.0401	2	C3H4N3+
83.0855	196	C6H11+
85.0285	3	C4H5O2+
93.0699	1	C7H9+
95.0855	6	C7H11+
98.9843	5	CH4ClO3+
103.0543	1	C8H7+
105.0699	177	C8H9+
106.0732	97	C3H10N2O2+
109.1012	29	C8H13+
119.0491	6	C8H7O+
120.0525	4	C3H8N2O3+
121.0648	12	C8H9O+
122.0681	4	C3H10N2O3+
125.0152	106	C7H6Cl+
129.0546	1	C6H9O3+
129.0698	3	C10H9+
130.0777	1	C10H10+
139.0308	55	C7H8OP+
151.031	47	C9H8Cl+
153.0467	3	C5H13ClNP+
165.0466	174	C10H10Cl+
177.1274	6	C12H17O+
178.1343	6	C10H16N3+
179.0622	18	C11H12Cl+
191.1425	1	C13H19O+
194.0478	2	C8H9N3OP+
212.1183	31	C13H14N3+
221.109	11	C13H18OP+
234.0793	46	C12H13ClN3+
254.1648	4	C16H20N3+
290.1419	999	C16H21ClN3+
291.1457	7	C16H21NO4+
