Mass spectrum: TEB_M388; LC-ESI-QFT; MS2; CE: 20; R=35000; [M+H]+
Name: TEB_M388
Formula: C16H23ClN3O4P
Exact mass: 387.1115
SMILES: CC(C)(C)C(CCC1=CC=C(Cl)C=C1)(CN1C=NC=N1)OP(O)(O)=O
InChI: InChI=1S/C16H23ClN3O4P/c1-15(2,3)16(24-25(21,22)23,10-20-12-18-11-19-20)9-8-13-4-6-14(17)7-5-13/h4-7,11-12H,8-10H2,1-3H3,(H2,21,22,23)
Instrument: Q Exactive Orbitrap Thermo Scientific
Instrument type: LC-ESI-QFT
Ms type: MS2
Ion mode: POSITIVE
Ionization: ESI
Fragmentation mode: HCD
Collision energy: 20 (nominal)
Resolution: 35000
Column name: XBridge C18 3.5 um, 2.1x50 mm, Waters with guard column
Retention time: 15.8 min
Base peak: 174.1278
Precursor m/z: 388.1187
Precursor type: [M+H]+
m/z	relative intensity	assigned
57.0699	3	C4H9+
60.0808	5	C3H10N+
69.0334	1	C4H5O+
69.0698	9	C5H9+
70.04	56	C2H4N3+
83.0855	66	C6H11+
95.0855	2	C7H11+
105.0699	114	C8H9+
106.0732	63	C3H10N2O2+
109.1012	13	C8H13+
119.0491	3	C8H7O+
120.0524	2	C3H8N2O3+
121.0647	6	C8H9O+
122.0682	4	C3H10N2O3+
125.0149	16	C6H6OP+
129.0546	2	C6H9O3+
139.0309	23	C8H8Cl+
147.0654	2	C2H14NO4P+
151.031	11	C9H8Cl+
165.0466	36	C10H10Cl+
179.0624	1	C7H15ClNP+
212.1184	11	C13H14N3+
221.1093	20	C14H18Cl+
234.0794	6	C12H13ClN3+
290.1419	999	C16H21ClN3+
291.1456	6	C16H21NO4+
