Mass spectrum: TEB_M404; LC-ESI-QFT; MS2; CE: 50; R=35000; [M+H]+
Name: TEB_M404
Formula: C16H23ClN3O5P
Exact mass: 403.1064
SMILES: CC(C)(CO)C(CCC1=CC=C(Cl)C=C1)(CN1C=NC=N1)OP(O)(O)=O
InChI: InChI=1S/C16H23ClN3O5P/c1-15(2,10-21)16(25-26(22,23)24,9-20-12-18-11-19-20)8-7-13-3-5-14(17)6-4-13/h3-6,11-12,21H,7-10H2,1-2H3,(H2,22,23,24)
Instrument: Q Exactive Orbitrap Thermo Scientific
Instrument type: LC-ESI-QFT
Ms type: MS2
Ion mode: POSITIVE
Ionization: ESI
Fragmentation mode: HCD
Collision energy: 50 (nominal)
Resolution: 35000
Column name: XBridge C18 3.5 um, 2.1x50 mm, Waters with guard column
Retention time: 12.7 min
Base peak: 199.1691
Precursor m/z: 404.1137
Precursor type: [M+H]+
m/z	relative intensity	assigned
55.0543	5	C4H7+
57.0335	1	C3H5O+
57.0699	9	C4H9+
67.0542	14	C5H7+
69.0699	55	C5H9+
70.04	331	C2H4N3+
71.0491	1	C4H7O+
72.0808	3	C4H10N+
73.0648	21	C4H9O+
79.0542	32	C6H7+
81.0699	47	C6H9+
83.0493	1	C5H7O+
83.0854	2	C6H11+
84.0808	2	C5H10N+
85.0285	1	C4H5O2+
86.0964	16	C5H12N+
87.0999	1	H13N3O2+
88.0392	2	C3H6NO2+
89.0384	5	C7H5+
91.0543	20	C7H7+
93.07	18	C7H9+
95.0491	2	C6H7O+
95.0856	13	C7H11+
96.0808	1	C6H10N+
98.9843	28	H4O4P+
103.0542	25	C8H7+
105.0699	13	C8H9+
107.0856	44	C8H11+
108.0446	1	C2H9N2OP+
109.0648	6	C7H9O+
109.1014	1	C4H16NP+
110.0714	7	C5H8N3+
115.0543	13	C9H7+
116.0621	8	C9H8+
117.0699	7	C9H9+
119.0856	7	C9H11+
120.0808	16	C8H10N+
120.9954	2	C5H2N2P+
123.0804	1	C8H11O+
125.0153	999	C7H6Cl+
128.062	45	C10H8+
129.0184	1	CH8NO4P+
129.07	5	C10H9+
130.0779	5	C6H13NP+
131.0855	2	C10H11+
133.1013	2	C10H13+
135.1169	1	C10H15+
136.076	1	C4H13N2OP+
139.0309	218	C8H8Cl+
141.0699	16	C11H9+
142.0778	80	C11H10+
143.0856	3	C11H11+
144.0936	6	C7H15NP+
145.0648	21	C10H9O+
145.1013	3	C11H13+
147.117	3	C7H18NP+
148.0869	3	C8H10N3+
149.0155	10	C5H9ClNP+
150.1027	1	C8H12N3+
151.031	147	C9H8Cl+
152.0817	2	C7H10N3O+
153.0466	32	C9H10Cl+
155.0604	11	C10H7N2+
155.0856	11	C12H11+
156.0934	16	C12H12+
159.0804	6	C11H11O+
159.0916	2	C10H11N2+
162.0229	2	C9H7OP+
163.0309	171	C10H8Cl+
165.0465	49	C10H10Cl+
169.0764	7	C7H12N3P+
169.1013	12	C13H13+
177.0466	142	C11H10Cl+
179.0622	22	C11H12Cl+
181.0413	12	C9H10O2P+
183.117	3	C10H18NP+
184.1249	12	C10H19NP+
190.0546	3	C8H14ClNP+
191.0623	18	C12H12Cl+
199.1311	1	C5H24ClO5+
204.0698	2	C12H13OP+
219.0934	13	C13H16OP+
222.184	1	C12H22N4+
236.1651	1	C14H22NO2+
250.0746	3	C12H13ClN3O+
261.0523	1	C11H14ClO5+
288.1266	9	C16H19ClN3+
306.1368	13	C16H21ClN3O+
