Mass spectrum: TEB_M324b *; LC-ESI-QFT; MS2; CE: 30; R=70000; [M+H]+
Name: TEB_M324b *
Formula: C16H22ClN3O2
Exact mass: 323.1401
SMILES: CC(C)(C)C(O)(CCC1=CC=C(Cl)C=C1)CN1C=NC(O)=N1
InChI: InChI=1S/C16H22ClN3O2/c1-15(2,3)16(22,10-20-11-18-14(21)19-20)9-8-12-4-6-13(17)7-5-12/h4-7,11,22H,8-10H2,1-3H3,(H,19,21)
Instrument: Q Exactive Orbitrap Thermo Scientific
Instrument type: LC-ESI-QFT
Ms type: MS2
Ion mode: POSITIVE
Ionization: ESI
Fragmentation mode: HCD
Collision energy: 30 (nominal)
Resolution: 70000
Column name: XBridge C18 3.5 um, 2.1x50 mm, Waters with guard column
Retention time: 15.8 min
Base peak: 174.1277
Precursor m/z: 324.1473
Precursor type: [M+H]+
m/z	relative intensity	assigned
57.0337	1	C3H5O+
57.0701	8	C4H9+
59.0493	41	C3H7O+
67.0543	2	C5H7+
69.0699	7	C5H9+
70.04	31	C2H4N3+
71.0492	1	C4H7O+
71.0854	2	C5H11+
79.0543	2	C6H7+
81.0699	7	C6H9+
83.0855	11	C6H11+
85.0648	7	C5H9O+
86.0349	999	C2H4N3O+
87.0444	2	C4H7O2+
91.0542	1	C7H7+
93.0697	10	C7H9+
94.0652	4	C6H8N+
95.0855	14	C7H11+
97.0647	5	C6H9O+
97.1011	4	C7H13+
101.0597	6	C5H9O2+
101.0963	1	C6H13O+
105.0699	2	C8H9+
106.0652	1	C7H8N+
107.0854	14	C8H11+
109.1009	6	C8H13+
111.0805	1	C7H11O+
115.0749	2	C6H11O2+
115.1119	1	C7H15O+
117.091	6	C6H13O2+
119.0488	1	C8H7O+
119.0851	1	C9H11+
121.1012	5	C9H13+
125.0152	25	C7H6Cl+
133.1012	2	C10H13+
135.1168	4	C10H15+
139.0309	9	C8H8Cl+
145.1011	1	C11H13+
147.1165	6	C11H15+
149.1326	7	C11H17+
151.0309	27	C9H8Cl+
156.0323	7	C6H7ClN3+
159.1167	2	C12H15+
161.1323	1	C12H17+
163.1126	1	C8H18ClN+
165.0464	7	C10H10Cl+
167.1431	1	C11H19O+
173.1317	1	C13H17+
173.1543	2	C10H21O2+
174.1275	2	C12H16N+
176.1058	1	C9H12N4+
179.0616	2	C11H12Cl+
181.0774	2	C11H14Cl+
188.1056	1	C10H12N4+
204.1014	1	C12H14NO2+
324.1474	446	C16H23ClN3O2+
