Mass spectrum: KET_M565; LC-ESI-QFT; MS2; CE: 20; R=35000; [M+H]+
Name: KET_M565
Formula: C26H30Cl2N4O6
Exact mass: 564.1542
SMILES: [H][C@]1(COC2=CC=C(C=C2)N2CCN(CC2)C(C)=O)CO[C@@](CNC(=O)CNC=O)(O1)C1=CC=C(Cl)C=C1Cl
InChI: InChI=1S/C26H30Cl2N4O6/c1-18(34)31-8-10-32(11-9-31)20-3-5-21(6-4-20)36-14-22-15-37-26(38-22,16-30-25(35)13-29-17-33)23-7-2-19(27)12-24(23)28/h2-7,12,17,22H,8-11,13-16H2,1H3,(H,29,33)(H,30,35)/t22-,26-/m0/s1
Instrument: Q Exactive Orbitrap Thermo Scientific
Instrument type: LC-ESI-QFT
Ms type: MS2
Ion mode: POSITIVE
Ionization: ESI
Fragmentation mode: HCD
Collision energy: 20 (nominal)
Resolution: 35000
Column name: XBridge C18 3.5 um, 2.1x50 mm, Waters with guard column
Retention time: 15.0 min
Base peak: 387.1798
Precursor m/z: 565.1615
Precursor type: [M+H]+
m/z	relative intensity	assigned
86.0963	67	C5H12N+
121.0232	15	H3N5O3+
125.0318	15	C2H7NO5+
144.9807	15	CH5Cl2N3O+
203.9972	26	C11H5ClO2+
219.1126	140	C5H25Cl2O4+
235.1436	22	C6H29Cl2O4+
237.1457	31	C3H27Cl2N4O3+
239.0887	30	CH21Cl2N4O5+
239.1615	68	C3H29Cl2N4O3+
243.9043	14	C4Cl2NO7+
247.1437	83	C7H29Cl2O4+
259.144	32	C15H19N2O2+
261.0181	36	C16H5O4+
277.1541	241	C8H31Cl2O5+
348.9894	115	C19H6ClO5+
463.1174	29	C24H20ClN4O4+
480.145	33	C23H28Cl2N3O4+
537.1649	117	C25H31Cl2N4O5+
547.1508	37	C26H29Cl2N4O5+
565.1613	999	C26H31Cl2N4O6+
