Mass spectrum: KET; LC-ESI-QFT; MS2; CE: 30; R=35000; [M+H]+
Name: KET
Name: ketoconazole
Name: 1-[4-[4-[[(2R,4S)-2-(2,4-dichlorophenyl)-2-(imidazol-1-ylmethyl)-1,3-dioxolan-4-yl]methoxy]phenyl]piperazin-1-yl]ethanone
Formula: C26H28Cl2N4O4
Exact mass: 530.1488
SMILES: [H][C@]1(COC2=CC=C(C=C2)N2CCN(CC2)C(C)=O)CO[C@@](CN2C=CN=C2)(O1)C1=CC=C(Cl)C=C1Cl
InChI: InChI=1S/C26H28Cl2N4O4/c1-19(33)31-10-12-32(13-11-31)21-3-5-22(6-4-21)34-15-23-16-35-26(36-23,17-30-9-8-29-18-30)24-7-2-20(27)14-25(24)28/h2-9,14,18,23H,10-13,15-17H2,1H3/t23-,26-/m0/s1
Instrument: Q Exactive Orbitrap Thermo Scientific
Instrument type: LC-ESI-QFT
Ms type: MS2
Ion mode: POSITIVE
Ionization: ESI
Fragmentation mode: HCD
Collision energy: 30 (nominal)
Resolution: 35000
Column name: XBridge C18 3.5 um, 2.1x50 mm, Waters with guard column
Retention time: 13.6 min
Base peak: 531.1557
Precursor m/z: 531.156
Precursor type: [M+H]+
m/z	relative intensity	assigned
69.0446	3	C3H5N2+
81.0446	2	C4H5N2+
82.0525	31	C4H6N2+
112.0756	10	C6H10NO+
135.0679	6	C8H9NO+
148.0755	2	C9H10NO+
167.0812	2	CH21Cl2O4+
174.0911	4	C11H12NO+
177.102	3	C3H23Cl2O3+
178.1099	1	C3H24Cl2O3+
185.9631	2	C8H4Cl2O+
209.036	2	C6H11Cl2N4+
216.1018	6	C13H14NO2+
216.1256	1	C13H16N2O+
217.1334	16	C13H17N2O+
219.1126	22	C5H25Cl2O4+
220.1205	18	C12H16N2O2+
234.112	3	C13H16NO3+
235.1437	6	C6H29Cl2O4+
238.0059	3	C11H8Cl2N2+
244.005	29	C11H10Cl2O2+
247.1435	2	C7H29Cl2O4+
255.0084	19	C11H9Cl2N2O+
259.1441	4	C15H19N2O2+
267.0081	3	C15H6ClNO2+
268.0163	1	C12H10Cl2N2O+
277.1546	2	C15H21N2O3+
282.0318	5	C16H9ClNO2+
311.0346	2	C17H10ClNO3+
312.0425	1	C14H14Cl2N2O2+
420.076	2	C21H20Cl2NO4+
421.1066	4	C22H18ClN4O3+
446.1019	3	C25H19ClN2O4+
463.1184	1	C23H25Cl2N2O4+
489.1452	111	C24H27Cl2N4O3+
531.1558	999	C26H29Cl2N4O4+
