Mass spectrum: KET_M565; LC-ESI-QFT; MS2; CE: 60; R=35000; [M+H]+
Name: KET_M565
Formula: C26H30Cl2N4O6
Exact mass: 564.1542
SMILES: [H][C@]1(COC2=CC=C(C=C2)N2CCN(CC2)C(C)=O)CO[C@@](CNC(=O)CNC=O)(O1)C1=CC=C(Cl)C=C1Cl
InChI: InChI=1S/C26H30Cl2N4O6/c1-18(34)31-8-10-32(11-9-31)20-3-5-21(6-4-20)36-14-22-15-37-26(38-22,16-30-25(35)13-29-17-33)23-7-2-19(27)12-24(23)28/h2-7,12,17,22H,8-11,13-16H2,1H3,(H,29,33)(H,30,35)/t22-,26-/m0/s1
Instrument: Q Exactive Orbitrap Thermo Scientific
Instrument type: LC-ESI-QFT
Ms type: MS2
Ion mode: POSITIVE
Ionization: ESI
Fragmentation mode: HCD
Collision energy: 60 (nominal)
Resolution: 35000
Column name: XBridge C18 3.5 um, 2.1x50 mm, Waters with guard column
Retention time: 15.0 min
Base peak: 387.1798
Precursor m/z: 565.1615
Precursor type: [M+H]+
m/z	relative intensity	assigned
69.0698	64	C5H9+
70.0651	311	C4H8N+
71.0603	103	C3H7N2+
81.0699	97	C6H9+
86.0963	75	C5H12N+
91.054	76	C7H7+
93.0701	72	C7H9+
95.0856	78	C7H11+
98.9841	120	CH4ClO3+
107.0853	104	C8H11+
112.0756	999	C6H10NO+
119.0729	111	C8H9N+
120.0808	493	C8H10N+
122.06	120	C7H8NO+
124.1418	66	CH20N2O4+
124.9775	71	C4ClN3+
132.0447	70	C5H9ClN2+
134.0596	130	C8H8NO+
148.0754	88	C9H10NO+
151.0183	555	C8H6ClN+
158.9761	325	C7H5Cl2+
162.0911	95	C10H12NO+
174.0912	99	C11H12NO+
177.1019	348	C3H23Cl2O3+
185.9868	356	C11H3ClO+
186.9715	249	C8H5Cl2O+
192.1016	408	C11H14NO2+
203.9973	151	C11H5ClO2+
205.1337	263	C12H17N2O+
235.144	79	C13H19N2O2+
237.1655	69	C3H28ClN3O6+
244.9663	71	C15ClNO+
328.0661	75	C19H16Cl2N+
410.9879	63	C15H9Cl2N4O6+
504.9486	72	C21H3Cl2N6O6+
