Mass spectrum: KET_M565; LC-ESI-QFT; MS2; CE: 30; R=35000; [M+H]+
Name: KET_M565
Formula: C26H30Cl2N4O6
Exact mass: 564.1542
SMILES: [H][C@]1(COC2=CC=C(C=C2)N2CCN(CC2)C(C)=O)CO[C@@](CNC(=O)CNC=O)(O1)C1=CC=C(Cl)C=C1Cl
InChI: InChI=1S/C26H30Cl2N4O6/c1-18(34)31-8-10-32(11-9-31)20-3-5-21(6-4-20)36-14-22-15-37-26(38-22,16-30-25(35)13-29-17-33)23-7-2-19(27)12-24(23)28/h2-7,12,17,22H,8-11,13-16H2,1H3,(H,29,33)(H,30,35)/t22-,26-/m0/s1
Instrument: Q Exactive Orbitrap Thermo Scientific
Instrument type: LC-ESI-QFT
Ms type: MS2
Ion mode: POSITIVE
Ionization: ESI
Fragmentation mode: HCD
Collision energy: 30 (nominal)
Resolution: 35000
Column name: XBridge C18 3.5 um, 2.1x50 mm, Waters with guard column
Retention time: 15.0 min
Base peak: 387.1798
Precursor m/z: 565.1615
Precursor type: [M+H]+
m/z	relative intensity	assigned
86.0963	181	C5H12N+
105.0697	47	C8H9+
112.0756	304	C6H10NO+
115.0749	42	CH12ClN4+
185.9869	46	C11H3ClO+
191.0986	37	C2H15N4O6+
203.9974	471	C11H5ClO2+
205.1337	41	C12H17N2O+
216.1019	76	C13H14NO2+
217.1334	46	C13H17N2O+
219.1128	999	C12H15N2O2+
234.112	279	C13H16NO3+
235.1439	363	C6H29Cl2O4+
239.0887	77	CH21Cl2N4O5+
247.144	596	C14H19N2O2+
253.0373	39	C11H10ClN2O3+
259.1439	165	C8H29Cl2O4+
261.0186	136	C13H8ClNO3+
277.1546	530	C15H21N2O3+
307.1624	44	C10H28ClN2O6+
350.9869	57	C25H2ClN+
463.1188	87	C23H25Cl2N2O4+
