Mass spectrum: KET; LC-ESI-QFT; MS2; CE: 60; R=35000; [M+H]+
Name: KET
Name: ketoconazole
Name: 1-[4-[4-[[(2R,4S)-2-(2,4-dichlorophenyl)-2-(imidazol-1-ylmethyl)-1,3-dioxolan-4-yl]methoxy]phenyl]piperazin-1-yl]ethanone
Formula: C26H28Cl2N4O4
Exact mass: 530.1488
SMILES: [H][C@]1(COC2=CC=C(C=C2)N2CCN(CC2)C(C)=O)CO[C@@](CN2C=CN=C2)(O1)C1=CC=C(Cl)C=C1Cl
InChI: InChI=1S/C26H28Cl2N4O4/c1-19(33)31-10-12-32(13-11-31)21-3-5-22(6-4-21)34-15-23-16-35-26(36-23,17-30-9-8-29-18-30)24-7-2-20(27)14-25(24)28/h2-9,14,18,23H,10-13,15-17H2,1H3/t23-,26-/m0/s1
Instrument: Q Exactive Orbitrap Thermo Scientific
Instrument type: LC-ESI-QFT
Ms type: MS2
Ion mode: POSITIVE
Ionization: ESI
Fragmentation mode: HCD
Collision energy: 60 (nominal)
Resolution: 35000
Column name: XBridge C18 3.5 um, 2.1x50 mm, Waters with guard column
Retention time: 13.6 min
Base peak: 531.1557
Precursor m/z: 531.156
Precursor type: [M+H]+
m/z	relative intensity	assigned
65.0385	3	C5H5+
68.037	34	C3H4N2+
68.0496	3	C4H6N+
69.0447	77	C3H5N2+
70.0651	102	C4H8N+
71.0604	81	C3H7N2+
79.0542	14	C6H7+
81.0447	494	C4H5N2+
82.0525	999	C4H6N2+
83.0603	31	C4H7N2+
86.06	51	C4H8NO+
91.0542	5	C7H7+
95.0603	5	C5H7N2+
103.0543	4	C8H7+
105.0699	5	C8H9+
106.0651	5	C7H8N+
107.0491	27	C7H7O+
107.0603	9	C6H7N2+
109.0395	10	C5H5N2O+
109.076	4	C6H9N2+
111.0553	4	C5H7N2O+
112.0756	275	C6H10NO+
115.054	4	C9H7+
117.0571	8	C8H7N+
117.0698	13	C9H9+
118.0651	16	C8H8N+
119.0494	2	C5H10ClN+
119.073	9	C8H9N+
120.0444	122	C7H6NO+
120.0807	49	C8H10N+
121.0398	3	C6H5N2O+
121.0647	3	C8H9O+
121.0757	2	Cl2H19O2+
122.0599	119	C7H8NO+
122.9995	11	C7H4Cl+
125.0151	10	C7H6Cl+
127.0501	58	C5H7N2O2+
128.0622	4	C10H8+
129.0698	13	C10H9+
130.0651	35	C9H8N+
131.0491	5	C9H7O+
131.073	16	C9H9N+
132.057	10	C9H8O+
132.0808	20	C9H10N+
133.0524	9	C8H7NO+
133.0649	3	C9H9O+
134.06	108	C8H8NO+
135.0678	143	C8H9NO+
136.0757	117	C8H10NO+
138.0231	3	C8H7Cl+
139.0309	9	C8H8Cl+
143.073	4	C10H9N+
144.0808	64	C10H10N+
145.0649	10	C10H9O+
145.0887	29	C10H11N+
146.06	28	C9H8NO+
146.0964	89	C10H12N+
147.0679	5	C9H9NO+
148.0756	241	C9H10NO+
149.0153	18	C9H6Cl+
150.0231	32	C9H7Cl+
151.0308	5	C9H8Cl+
154.0652	3	C11H8N+
155.0601	3	C3H17Cl2O2+
156.0806	16	C11H10N+
157.9684	16	C7H4Cl2+
158.0965	33	C11H12N+
158.9762	178	C7H5Cl2+
159.9846	4	C7H6Cl2+
160.0757	29	C10H10NO+
161.0836	3	C10H11NO+
161.1073	3	C10H13N2+
162.0789	3	C9H10N2O+
162.0911	11	C10H12NO+
163.0306	12	C10H8Cl+
163.123	16	C10H15N2+
167.0258	33	C9H8ClO+
167.0814	158	C8H11N2O2+
168.0555	2	C10H6N3+
169.9684	131	C8H4Cl2+
170.9762	20	C8H5Cl2+
171.0677	3	C11H9NO+
172.0755	24	C11H10NO+
172.1116	3	C12H14N+
172.9554	126	C7H3Cl2O+
173.0833	11	C11H11NO+
174.0912	174	C11H12NO+
174.9711	9	C7H5Cl2O+
175.0865	4	C10H11N2O+
176.0705	2	C10H10NO2+
176.0944	5	C10H12N2O+
176.1068	4	C11H14NO+
177.1021	201	C10H13N2O+
178.0862	4	C10H12NO2+
178.11	11	C10H14N2O+
184.9917	52	C9H7Cl2+
185.0838	2	C9H14ClN2+
185.9633	184	C8H4Cl2O+
186.9711	22	C8H5Cl2O+
188.1068	11	C12H14NO+
189.1385	13	C12H17N2+
190.0862	3	C11H12NO2+
191.0367	2	C13H5NO+
191.1174	2	C4H25Cl2O3+
192.1016	31	C11H14NO2+
198.0913	2	C13H12NO+
200.1071	9	C13H14NO+
202.9657	12	C8H5Cl2O2+
203.0368	44	C14H5NO+
204.1017	4	C12H14NO2+
205.0291	4	C11H8ClNO+
205.1335	4	C12H17N2O+
215.1178	3	C13H15N2O+
216.1019	12	C13H14NO2+
217.1332	30	C6H27Cl2O3+
218.1173	4	C13H16NO2+
219.1127	40	C12H15N2O2+
219.1493	4	C13H19N2O+
220.1204	3	C5H26Cl2O4+
233.0477	4	C12H10ClN2O+
235.1443	2	C13H19N2O2+
238.0058	13	C11H8Cl2N2+
239.0133	5	C14H6ClNO+
244.0051	22	C11H10Cl2O2+
247.0632	15	C13H12ClN2O+
252.9929	3	C11H7Cl2N2O+
255.0084	157	C14H6ClNO2+
267.0084	117	C12H9Cl2N2O+
281.0235	17	C19H5O3+
297.0189	5	C16H8ClNO3+
311.0351	10	C21H3N4+
378.0662	18	C26H8N3O+
416.989	2	C19H4ClN5O5+
489.1473	2	C26H29Cl2NO4+
