Mass spectrum: KET_M565; LC-ESI-QFT; MS2; CE: 40; R=35000; [M+H]+
Name: KET_M565
Formula: C26H30Cl2N4O6
Exact mass: 564.1542
SMILES: [H][C@]1(COC2=CC=C(C=C2)N2CCN(CC2)C(C)=O)CO[C@@](CNC(=O)CNC=O)(O1)C1=CC=C(Cl)C=C1Cl
InChI: InChI=1S/C26H30Cl2N4O6/c1-18(34)31-8-10-32(11-9-31)20-3-5-21(6-4-20)36-14-22-15-37-26(38-22,16-30-25(35)13-29-17-33)23-7-2-19(27)12-24(23)28/h2-7,12,17,22H,8-11,13-16H2,1H3,(H,29,33)(H,30,35)/t22-,26-/m0/s1
Instrument: Q Exactive Orbitrap Thermo Scientific
Instrument type: LC-ESI-QFT
Ms type: MS2
Ion mode: POSITIVE
Ionization: ESI
Fragmentation mode: HCD
Collision energy: 40 (nominal)
Resolution: 35000
Column name: XBridge C18 3.5 um, 2.1x50 mm, Waters with guard column
Retention time: 15.0 min
Base peak: 387.1798
Precursor m/z: 565.1615
Precursor type: [M+H]+
m/z	relative intensity	assigned
74.0601	48	C3H8NO+
81.07	77	C6H9+
86.0964	54	C5H12N+
98.9841	98	CH4ClO3+
104.0498	65	C7H6N+
112.0757	899	C6H10NO+
120.0808	59	C8H10N+
174.092	61	C8H15ClN2+
177.1019	373	C3H23Cl2O3+
178.0849	47	C8H10N4O+
185.987	239	C8H6Cl2N+
192.102	230	C11H14NO2+
195.0866	59	C4H18ClNO5+
203.9976	704	C8H8Cl2NO+
204.102	203	C12H14NO2+
205.1334	500	C12H17N2O+
217.1337	110	C13H17N2O+
219.1127	999	C12H15N2O2+
225.9816	55	C13H3ClO2+
234.1124	470	C13H16NO3+
235.1436	520	C6H29Cl2O4+
247.1439	227	C7H29Cl2O4+
277.1553	75	C12H24ClN3O2+
