Mass spectrum: KET; LC-ESI-QFT; MS2; CE: 40; R=35000; [M+H]+
Name: KET
Name: ketoconazole
Name: 1-[4-[4-[[(2R,4S)-2-(2,4-dichlorophenyl)-2-(imidazol-1-ylmethyl)-1,3-dioxolan-4-yl]methoxy]phenyl]piperazin-1-yl]ethanone
Formula: C26H28Cl2N4O4
Exact mass: 530.1488
SMILES: [H][C@]1(COC2=CC=C(C=C2)N2CCN(CC2)C(C)=O)CO[C@@](CN2C=CN=C2)(O1)C1=CC=C(Cl)C=C1Cl
InChI: InChI=1S/C26H28Cl2N4O4/c1-19(33)31-10-12-32(13-11-31)21-3-5-22(6-4-21)34-15-23-16-35-26(36-23,17-30-9-8-29-18-30)24-7-2-20(27)14-25(24)28/h2-9,14,18,23H,10-13,15-17H2,1H3/t23-,26-/m0/s1
Instrument: Q Exactive Orbitrap Thermo Scientific
Instrument type: LC-ESI-QFT
Ms type: MS2
Ion mode: POSITIVE
Ionization: ESI
Fragmentation mode: HCD
Collision energy: 40 (nominal)
Resolution: 35000
Column name: XBridge C18 3.5 um, 2.1x50 mm, Waters with guard column
Retention time: 13.6 min
Base peak: 531.1557
Precursor m/z: 531.156
Precursor type: [M+H]+
m/z	relative intensity	assigned
68.037	2	C3H4N2+
69.0447	58	C3H5N2+
70.0651	27	C4H8N+
71.0604	29	C3H7N2+
81.0447	137	C4H5N2+
82.0525	848	C4H6N2+
83.0604	20	C4H7N2+
86.06	46	C4H8NO+
97.0395	2	C4H5N2O+
105.07	2	C8H9+
107.0491	5	C7H7O+
107.0604	8	C6H7N2+
112.0756	243	C6H10NO+
113.0707	7	C5H9N2O+
120.0443	10	C7H6NO+
120.0805	3	C8H10N+
122.0599	13	C7H8NO+
130.0652	4	C9H8N+
131.0729	2	C9H9N+
132.0806	9	C9H10N+
133.0649	3	C9H9O+
134.0601	14	C8H8NO+
135.0678	192	C8H9NO+
136.0757	36	C8H10NO+
144.0809	27	C10H10N+
145.0888	12	C10H11N+
146.06	17	C9H8NO+
146.0963	31	C10H12N+
147.0678	2	C9H9NO+
148.0757	122	C9H10NO+
156.0811	3	C11H10N+
158.0965	12	C11H12N+
158.9762	48	C7H5Cl2+
160.0757	16	C10H10NO+
162.0914	17	C10H12NO+
163.0308	10	C10H8Cl+
163.1227	20	C3H25Cl2O2+
167.0255	9	C9H8ClO+
167.0814	88	C8H11N2O2+
169.968	20	C8H4Cl2+
172.0755	31	C11H10NO+
172.9555	25	C7H3Cl2O+
174.0912	137	C11H12NO+
176.0946	4	C10H12N2O+
177.1021	232	C3H23Cl2O3+
178.1099	74	C10H14N2O+
179.0254	3	C10H8ClO+
184.9919	47	C9H7Cl2+
185.9633	110	C8H4Cl2O+
186.9713	11	C8H5Cl2O+
188.1071	15	C12H14NO+
189.1385	39	C12H17N2+
191.118	3	C11H15N2O+
192.1015	20	C11H14NO2+
200.1068	27	C13H14NO+
201.9946	11	C9H8Cl2O+
202.9658	10	C8H5Cl2O2+
203.0365	19	C14H5NO+
203.1179	2	C12H15N2O+
204.1017	15	C12H14NO2+
205.0972	9	C11H13N2O2+
205.1335	12	C12H17N2O+
209.036	39	C11H10ClO2+
213.9948	3	C10H8Cl2O+
215.1177	19	C6H25Cl2O3+
216.1018	81	C13H14NO2+
216.1257	14	C13H16N2O+
217.1334	241	C13H17N2O+
218.1174	12	C13H16NO2+
219.1126	299	C12H15N2O2+
220.1205	184	C12H16N2O2+
226.0061	3	C10H8Cl2N2+
230.1415	5	C14H18N2O+
233.0478	4	C12H10ClN2O+
233.1284	10	C13H17N2O2+
234.1123	37	C13H16NO3+
234.1366	4	C10H21ClN3O+
235.1439	94	C6H29Cl2O4+
238.0058	115	C11H8Cl2N2+
239.0133	4	C14H6ClNO+
244.0051	381	C11H10Cl2O2+
247.0633	30	C13H12ClN2O+
247.144	10	C14H19N2O2+
255.0085	303	C11H9Cl2N2O+
259.1438	33	C8H29Cl2O4+
265.0285	2	C19H5O2+
267.0084	100	C12H9Cl2N2O+
268.0164	27	C12H10Cl2N2O+
277.1542	9	C15H21N2O3+
281.024	22	C16H8ClNO2+
282.032	41	C13H12Cl2N2O+
297.0199	9	C20HN4+
311.0346	41	C17H10ClNO3+
312.0425	4	C14H14Cl2N2O2+
364.0501	3	C18H16Cl2NO3+
378.0652	33	C22H15ClO4+
386	2	C25H5ClNO2+
420.076	22	C21H20Cl2NO4+
420.1005	3	C21H22Cl2N2O3+
421.1075	40	C24H20ClNO4+
446.1033	46	C22H22Cl2N3O3+
487.1304	11	C24H25Cl2N4O3+
489.1452	608	C24H27Cl2N4O3+
529.141	5	C26H27Cl2N4O4+
531.1558	999	C26H29Cl2N4O4+
