Mass spectrum: SMZ-AcOH; LC-ESI-QFT; MS2; CE: 180%; R=17500; [M-H]-
Name: SMZ-AcOH
Formula: C12H13N3O5S
Exact mass: 311.0576
Instrument: Q-Exactive + Thermo Scientific
Instrument type: LC-ESI-QFT
Ms type: MS2
Ion mode: NEGATIVE
Ionization: ESI
Fragmentation mode: HCD
Collision energy: 180 % (nominal)
Resolution: 17500
Column name: Atlantis T3 3um, 3.0x150mm, Waters
Retention time: 16.866 min
Base peak: 91.0036
Precursor m/z: 310.0503
Precursor type: [M-H]-
m/z	relative intensity	assigned
61.9705	90	NOS-
63.9625	999	O2S-
93.0345	57	C6H5O-
