Mass spectrum: CLI_p_457.1769_15.1; LC-ESI-QFT; MS2; CE: 15%; R=17500; [M+H]+
Name: CLI_p_457.1769_15.1
Name: Clindamycin +O2
Name: N-Oxide or hydroxylation of N-(2-chloro-1-(3,4,5-trihydroxy-6-(methylsulfinyl)tetrahydro-2H-pyran-2-yl)propyl)-1-methyl-4-propylpyrrolidine-2-carboxamide
Class: identified ozonation transformation product
Formula: C18H33ClN2O7S
Exact mass: 456.1697
Instrument: Q Exactive Plus Orbitrap Thermo Scientific
Instrument type: LC-ESI-QFT
Ms type: MS2
Ion mode: POSITIVE
Ionization: ESI
Fragmentation mode: HCD
Collision energy: 15 % (nominal)
Resolution: 17500
Column name: C18 Atlantis T3 5 um, 3x150 mm, Waters
Retention time: 14.815 min
Base peak: 65.0597
Precursor m/z: 457.177
Precursor type: [M+H]+
Precursor intensity: 7146493.5
m/z	relative intensity	assigned
126.1276	31	C8H16N+
170.1174	36	C9H16NO2+
226.1671	2	C12H22N2O2+
305.1626	2	C14H26ClN2O3+
318.1702	1	C18H24NO4+
330.2145	5	C16H30N2O5+
333.1578	3	C15H26ClN2O4+
336.1809	2	C15H29ClN2O4+
349.1889	4	C16H30ClN2O4+
365.1839	1	C16H30ClN2O5+
366.1931	2	C16H32NO6S+
377.1839	11	C17H30ClN2O5+
393.1789	265	C17H30ClN2O6+
394.1871	10	C17H31ClN2O6+
442.1536	1	C17H31ClN2O7S+
457.1772	999	C18H34ClN2O7S+
