Mass spectrum: ALI_n_428.2762_19.1; LC-ESI-QFT; MS2; CE: 15%; R=17500; [M-H]-
Name: ALI_n_428.2762_19.1
Name: Aliskiren -C9H14
Name: 5-amino-N-(3-amino-2,2-dimethyl-3-oxopropyl)-4-hydroxy-2,7-diisopropyldecanamide -H4 +O3
Class: identified ozonation transformation product
Formula: C21H39N3O6
Exact mass: 429.2839
Instrument: Q Exactive Plus Orbitrap Thermo Scientific
Instrument type: LC-ESI-QFT
Ms type: MS2
Ion mode: NEGATIVE
Ionization: ESI
Fragmentation mode: HCD
Collision energy: 15 % (nominal)
Resolution: 17500
Column name: C18 Atlantis T3 5 um, 3x150 mm, Waters
Retention time: 19.193 min
Base peak: 91.0038
Precursor m/z: 428.2766
Precursor type: [M-H]-
Precursor intensity: 482380.34375
m/z	relative intensity	assigned
382.2709	999	C20H36N3O4-
428.2813	6	C21H38N3O6-
