Mass spectrum: VAL_p_450.2132_19.2; LC-ESI-QFT; MS2; CE: 15%; R=17500; [M+H]+
Name: VAL_p_450.2132_19.2
Name: Valsartan -H2 +O
Name: N-((2`-(1H-tetrazol-5-yl)-[1,1`-biphenyl]-4-yl)methyl)-N-pentanoylvaline -H2 +O
Class: identified ozonation transformation product
Formula: C24H27N5O4
Exact mass: 449.2063
Instrument: Q Exactive Plus Orbitrap Thermo Scientific
Instrument type: LC-ESI-QFT
Ms type: MS2
Ion mode: POSITIVE
Ionization: ESI
Fragmentation mode: HCD
Collision energy: 15 % (nominal)
Resolution: 17500
Column name: C18 Atlantis T3 5 um, 3x150 mm, Waters
Retention time: 19.104 min
Base peak: 221.1747
Precursor m/z: 450.2136
Precursor type: [M+H]+
Precursor intensity: 1947931
m/z	relative intensity	assigned
99.0442	13	C5H7O2+
178.0785	4	C14H10+
192.0809	10	C14H10N+
198.1134	13	C10H16NO3+
207.0915	104	C14H11N2+
216.123	27	C10H18NO4+
235.0977	999	C14H11N4+
253.1089	3	C14H13N4O+
267.1239	30	C15H15N4O+
293.1279	8	C18H17N2O2+
305.1285	647	C19H17N2O2+
306.1713	286	C18H20N5+
323.1394	7	C19H19N2O3+
352.1768	294	C19H22N5O2+
376.2021	101	C23H26N3O2+
404.2065	44	C23H26N5O2+
422.2071	57	C24H28N3O4+
432.2031	588	C24H26N5O3+
450.2131	155	C24H28N5O4+
450.2787	6	
