Mass spectrum: LVI_n_271.0392_15.1; LC-ESI-QFT; MS2; CE: 50%; R=17500; [M-H]-
Name: LVI_n_271.0392_15.1
Name: Levamisole -C +O5
Name: 6-phenyl-2,3,5,6-tetrahydroimidazo[2,1-b]thiazole -C +O5
Class: identified ozonation transformation product
Formula: C10H12N2O5S
Exact mass: 272.0467
Instrument: Q Exactive Plus Orbitrap Thermo Scientific
Instrument type: LC-ESI-QFT
Ms type: MS2
Ion mode: NEGATIVE
Ionization: ESI
Fragmentation mode: HCD
Collision energy: 50 % (nominal)
Resolution: 17500
Column name: C18 Atlantis T3 5 um, 3x150 mm, Waters
Retention time: 15.165 min
Base peak: 91.0038
Precursor m/z: 271.0394
Precursor type: [M-H]-
Precursor intensity: 4395070.5
m/z	relative intensity	assigned
64.9702	2	HO2S-
79.9574	109	O3S-
80.9651	3	HO3S-
106.9806	4	C2H3O3S-
124.0075	999	C2H6NO3S-
149.9866	24	C3H4NO4S-
