Mass spectrum: LID_p_265.1545_12.4; LC-ESI-QFT; MS2; CE: 50%; R=17500; [M+H]+
Name: LID_p_265.1545_12.4
Name: Lidocaine N-oxide -H2 +O
Name: 2-((2,6-dimethylphenyl)amino)-N,N-diethyl-2-oxoethan-1-amine oxide -H2 +O
Class: identified ozonation transformation product
Formula: C14H20N2O3
Exact mass: 264.1474
Instrument: Q Exactive Plus Orbitrap Thermo Scientific
Instrument type: LC-ESI-QFT
Ms type: MS2
Ion mode: POSITIVE
Ionization: ESI
Fragmentation mode: HCD
Collision energy: 50 % (nominal)
Resolution: 17500
Column name: C18 Atlantis T3 5 um, 3x150 mm, Waters
Retention time: 12.421 min
Base peak: 65.0597
Precursor m/z: 265.1547
Precursor type: [M+H]+
Precursor intensity: 13332748
m/z	relative intensity	assigned
56.0495	2	C3H6N+
58.0651	59	C3H8N+
60.0444	32	C2H6NO+
72.0807	21	C4H10N+
74.06	34	C3H8NO+
74.0964	4	C4H12N+
84.0807	6	C5H10N+
85.0886	2	C5H11N+
86.0964	999	C5H12N+
88.0756	173	C4H10NO+
90.0914	1	C4H12NO+
91.0541	1	C7H7+
106.065	13	C7H8N+
107.0729	46	C7H9N+
108.0806	7	C7H10N+
112.0757	7	C6H10NO+
113.0835	1	C6H11NO+
122.06	6	C7H8NO+
130.0863	9	C6H12NO2+
134.0599	26	C8H8NO+
135.0677	21	C8H9NO+
136.0756	49	C8H10NO+
146.0597	3	C9H8NO+
148.0755	8	C9H10NO+
149.0836	4	C9H11NO+
162.0548	19	C9H8NO2+
176.0705	14	C10H10NO2+
