Mass spectrum: PHE_p_137.0709_14.1; LC-ESI-QFT; MS2; CE: 105%; R=17500; [M+H]+
Name: PHE_p_137.0709_14.1
Name: Phenazone -C4H4
Name: 1,5-dimethyl-2-phenyl-1,2-dihydro-3H-pyrazol-3-one -C4H4
Class: identified ozonation transformation product
Formula: C7H8N2O
Exact mass: 136.0637
Instrument: Q Exactive Plus Orbitrap Thermo Scientific
Instrument type: LC-ESI-QFT
Ms type: MS2
Ion mode: POSITIVE
Ionization: ESI
Fragmentation mode: HCD
Collision energy: 105 % (nominal)
Resolution: 17500
Column name: C18 Atlantis T3 5 um, 3x150 mm, Waters
Retention time: 12.820 min
Base peak: 114.0913
Precursor m/z: 137.0709
Precursor type: [M+H]+
Precursor intensity: 29823252
m/z	relative intensity	assigned
50.0152	53	C4H2+
51.0229	268	C4H3+
53.0386	297	C4H5+
77.0385	476	C6H5+
78.0464	162	C6H6+
81.0334	32	C5H5O+
95.0492	999	C6H7O+
105.0447	587	C6H5N2+
