Mass spectrum: SIT_n_437.0687_20.7; LC-ESI-QFT; MS2; CE: 15%; R=17500; [M-H]-
Name: SIT_n_437.0687_20.7
Name: Sitagliptin -NH3 +O3
Name: 1-(3-(trifluoromethyl)-5,6-dihydro-[1,2,4]triazolo[4,3-a]pyrazin-7(8H)-yl)-4-(2,4,5-trifluorophenyl)butan-1-one -H2 +O3
Class: identified ozonation transformation product
Formula: C16H12F6N4O4
Exact mass: 438.0763
Instrument: Q Exactive Plus Orbitrap Thermo Scientific
Instrument type: LC-ESI-QFT
Ms type: MS2
Ion mode: NEGATIVE
Ionization: ESI
Fragmentation mode: HCD
Collision energy: 15 % (nominal)
Resolution: 17500
Column name: C18 Atlantis T3 5 um, 3x150 mm, Waters
Retention time: 20.919 min
Base peak: 309.1708
Precursor m/z: 437.069
Precursor type: [M-H]-
Precursor intensity: 149618.875
m/z	relative intensity	assigned
145.027	97	C7H4F3-
189.0392	149	C6H4F3N4-
191.0552	127	C11H7F2N-
201.0166	48	C4H3F4N3O2-
250.0754	280	C12H11FN2O3-
391.064	62	C15H9F6N4O2-
393.0791	999	C15H11F6N4O2-
