Mass spectrum: FAD_n_232.0224_21.7; LC-ESI-QFT; MS2; CE: 65%; R=17500; [M-H]-
Name: FAD_n_232.0224_21.7
Name: Flufenamic acid -C5H4 +O
Name: N-ethyl-3-(trifluoromethyl)aniline -H4 +O3
Class: identified ozonation transformation product
Formula: C9H6F3NO3
Exact mass: 233.0300
Instrument: Q Exactive Plus Orbitrap Thermo Scientific
Instrument type: LC-ESI-QFT
Ms type: MS2
Ion mode: NEGATIVE
Ionization: ESI
Fragmentation mode: HCD
Collision energy: 65 % (nominal)
Resolution: 17500
Column name: C18 Atlantis T3 5 um, 3x150 mm, Waters
Retention time: 21.317 min
Base peak: 309.1709
Precursor m/z: 232.0227
Precursor type: [M-H]-
Precursor intensity: 1861263.375
m/z	relative intensity	assigned
68.9957	3	CF3-
90.0349	5	C6H4N-
100.0192	9	C7H2N-
118.03	3	C7H4NO-
120.0256	49	C7H3FN-
133.0271	2	C6H4F3-
140.0317	13	C7H4F2N-
160.0381	999	C7H5F3N-
204.0282	3	C8H5F3NO2-
