Mass spectrum: MAA_n_250.0719_18.5; LC-ESI-QFT; MS2; CE: 55%; R=17500; [M-H]-
Name: MAA_n_250.0719_18.5
Name: Mefenamic acid -C3H2 +O3
Name: 2-((2,3-dimethylphenyl)amino)benzoic acid -C3H2 +O3
Class: identified ozonation transformation product
Formula: C12H13NO5
Exact mass: 251.0794
Instrument: Q Exactive Plus Orbitrap Thermo Scientific
Instrument type: LC-ESI-QFT
Ms type: MS2
Ion mode: NEGATIVE
Ionization: ESI
Fragmentation mode: HCD
Collision energy: 55 % (nominal)
Resolution: 17500
Column name: C18 Atlantis T3 5 um, 3x150 mm, Waters
Retention time: 18.558 min
Base peak: 91.0038
Precursor m/z: 250.0721
Precursor type: [M-H]-
Precursor intensity: 367802.9375
m/z	relative intensity	assigned
57.0345	23	C3H5O-
59.0138	47	C2H3O2-
85.0295	151	C4H5O2-
92.0507	999	C6H6N-
118.0299	347	C7H4NO-
134.0616	18	C8H8NO-
136.0403	234	C7H6NO2-
162.0196	84	C8H4NO3-
