Mass spectrum: CBZ_n_207.0409_17.6; LC-ESI-QFT; MS2; CE: 75%; R=17500; [M-H]-
Name: CBZ_n_207.0409_17.6
Name: Carbamazepine -C6H4 +O3
Name: 5H-dibenzo[b,f]azepine-5-carboxamide -C6H4 +O3
Class: identified ozonation transformation product
Formula: C9H8N2O4
Exact mass: 208.0484
Instrument: Q Exactive Plus Orbitrap Thermo Scientific
Instrument type: LC-ESI-QFT
Ms type: MS2
Ion mode: NEGATIVE
Ionization: ESI
Fragmentation mode: HCD
Collision energy: 75 % (nominal)
Resolution: 17500
Column name: C18 Atlantis T3 5 um, 3x150 mm, Waters
Retention time: 17.709 min
Base peak: 91.0038
Precursor m/z: 207.0411
Precursor type: [M-H]-
Precursor intensity: 843531.1875
m/z	relative intensity	assigned
92.0507	999	C6H6N-
118.0301	14	C7H4NO-
136.0403	79	C7H6NO2-
