Mass spectrum: CYP_p_168.0767_12.4; LC-ESI-QFT; MS2; CE: 90%; R=17500; [M+H]+
Name: CYP_p_168.0767_12.4
Name: Cyprodinil -C7H6 +O2
Name: N-ethyl-4-methylpyrimidin-2-amine -H2 +O2
Class: identified ozonation transformation product
Formula: C7H9N3O2
Exact mass: 167.0695
Instrument: Q Exactive Plus Orbitrap Thermo Scientific
Instrument type: LC-ESI-QFT
Ms type: MS2
Ion mode: POSITIVE
Ionization: ESI
Fragmentation mode: HCD
Collision energy: 90 % (nominal)
Resolution: 17500
Column name: C18 Atlantis T3 5 um, 3x150 mm, Waters
Retention time: 12.392 min
Base peak: 65.0597
Precursor m/z: 168.0768
Precursor type: [M+H]+
Precursor intensity: 3782268.25
m/z	relative intensity	assigned
53.0022	52	C3HO+
53.9974	14	C2NO+
56.0494	49	C3H6N+
57.0447	15	C2H5N2+
58.04	230	CH4N3+
59.024	61	CH3N2O+
59.9404	8	
68.0494	22	C4H6N+
69.0335	999	C4H5O+
83.0239	8	C3H3N2O+
100.0505	891	C3H6N3O+
126.0662	105	C5H8N3O+
