Mass spectrum: DIC_n_259.9873_15.6; LC-ESI-QFT; MS2; CE: 55%; R=17500; [M-H]-
Name: DIC_n_259.9873_15.6
Name: Diclofenac -C4H2+O
Name: 2-(2-((2,6-dichlorophenyl)amino)phenyl)acetic acid -C4H2+O
Class: identified ozonation transformation product
Formula: C10H9Cl2NO3
Exact mass: 260.9959
Instrument: Q Exactive Plus Orbitrap Thermo Scientific
Instrument type: LC-ESI-QFT
Ms type: MS2
Ion mode: NEGATIVE
Ionization: ESI
Fragmentation mode: HCD
Collision energy: 55 % (nominal)
Resolution: 17500
Column name: C18 Atlantis T3 5 um, 3x150 mm, Waters
Retention time: 15.641 min
Base peak: 91.0038
Precursor m/z: 259.9887
Precursor type: [M-H]-
Precursor intensity: 88526.8984375
m/z	relative intensity	assigned
123.9956	48	C9O-
159.9727	999	C6H4Cl2N-
