Mass spectrum: TRA_p_266.1749_12.8; LC-ESI-QFT; MS2; CE: 50%; R=17500; [M+H]+
Name: TRA_p_266.1749_12.8
Name: Hydroxy-desmethyltramadol
Name: Hydroxylation of 1-(3-methoxyphenyl)-2-((methylamino)methyl)cyclohexan-1-ol
Class: identified ozonation transformation product
Formula: C15H23NO3
Exact mass: 265.1678
Instrument: Q Exactive Plus Orbitrap Thermo Scientific
Instrument type: LC-ESI-QFT
Ms type: MS2
Ion mode: POSITIVE
Ionization: ESI
Fragmentation mode: HCD
Collision energy: 50 % (nominal)
Resolution: 17500
Column name: C18 Atlantis T3 5 um, 3x150 mm, Waters
Retention time: 12.870 min
Base peak: 114.0914
Precursor m/z: 266.1751
Precursor type: [M+H]+
Precursor intensity: 4961979
m/z	relative intensity	assigned
55.0179	4	C3H3O+
55.0543	7	C4H7+
56.0496	3	C3H6N+
58.0651	782	C3H8N+
62.06	20	C2H8NO+
65.0386	7	C5H5+
67.0543	20	C5H7+
68.0494	8	C4H6N+
69.0699	5	C5H9+
70.0652	4	C4H8N+
71.049	4	C4H7O+
72.0808	11	C4H10N+
74.06	28	C3H8NO+
79.0541	11	C6H7+
81.0698	16	C6H9+
82.0651	20	C5H8N+
83.0856	5	C6H11+
84.0808	11	C5H10N+
91.0543	9	C7H7+
93.0699	28	C7H9+
94.0652	3	C6H8N+
95.0494	19	C6H7O+
95.0731	9	C6H9N+
97.0885	4	C6H11N+
107.0492	161	C7H7O+
108.0803	15	C7H10N+
110.0964	221	C7H12N+
111.044	28	C6H7O2+
119.0492	3	C8H7O+
121.0284	999	C7H5O2+
121.0645	29	
123.044	14	C7H7O2+
126.1274	4	C8H16N+
128.1437	4	C8H18N+
131.0489	16	C9H7O+
131.0851	6	C10H11+
133.0647	37	C9H9O+
137.0596	6	C8H9O2+
145.0649	189	C10H9O+
146.0728	4	C10H10O+
147.0808	15	C10H11O+
149.06	5	C9H9O2+
158.0727	4	C11H10O+
159.0803	40	C11H11O+
177.0914	17	C11H13O2+
187.1118	141	C13H15O+
205.1225	4	C13H17O2+
248.1646	133	C15H22NO2+
266.1751	23	C15H24NO3+
