Mass spectrum: ALI_p_225.1597_15.3; LC-ESI-QFT; MS2; CE: 70%; R=17500; [M+H]+
Name: ALI_p_225.1597_15.3
Name: Aliskiren -C18H33NO4
Name: 5-amino-N-(3-amino-2,2-dimethyl-3-oxopropyl)-4-hydroxy-2-isopropyl-7-(4-methoxy-3-(3-methoxypropoxy)benzyl)-8-methylnonanamide -C18H33NO4
Class: identified ozonation transformation product
Formula: C12H20N2O2
Exact mass: 224.1525
Instrument: Q Exactive Plus Orbitrap Thermo Scientific
Instrument type: LC-ESI-QFT
Ms type: MS2
Ion mode: POSITIVE
Ionization: ESI
Fragmentation mode: HCD
Collision energy: 70 % (nominal)
Resolution: 17500
Column name: C18 Atlantis T3 5 um, 3x150 mm, Waters
Retention time: 15.184 min
Base peak: 65.0597
Precursor m/z: 225.1598
Precursor type: [M+H]+
Precursor intensity: 31844970
m/z	relative intensity	assigned
53.0022	4	C3HO+
53.0386	6	C4H5+
55.0542	93	C4H7+
56.0494	5	C3H6N+
57.0699	170	C4H9+
58.065	18	C3H8N+
67.0541	17	C5H7+
68.0494	231	C4H6N+
69.0447	8	C3H5N2+
69.0698	32	C5H9+
70.0651	38	C4H8N+
72.0808	34	C4H10N+
79.0542	47	C6H7+
81.0573	13	C5H7N+
81.0699	202	C6H9+
82.065	27	C5H8N+
83.0491	4	C5H7O+
83.0855	33	C6H11+
84.0444	39	C4H6NO+
84.0808	9	C5H10N+
91.0542	10	C7H7+
93.0699	46	C7H9+
94.0653	14	C6H8N+
95.0729	28	C6H9N+
95.0855	11	C7H11+
96.0444	34	C5H6NO+
96.0808	142	C6H10N+
97.0885	5	C6H11N+
98.0965	33	C6H12N+
100.0757	130	C5H10NO+
105.0444	3	C6H5N2+
107.0854	9	C8H11+
108.0806	22	C7H10N+
109.0647	35	C7H9O+
109.0885	7	C7H11N+
109.1012	3	C8H13+
110.0964	268	C7H12N+
111.0806	2	C7H11O+
113.0708	8	C5H9N2O+
120.081	2	C8H10N+
122.0966	2	C8H12N+
126.0913	68	C7H12NO+
137.1076	2	C8H13N2+
137.1197	2	C9H15N+
138.0913	999	C8H12NO+
150.1274	4	C10H16N+
152.1433	109	C10H18N+
180.1382	25	C11H18NO+
