Mass spectrum: Fenazaquin; LC-ESI-ITFT; MS2; HCD30; R=7500; [M+H]+
Name: Fenazaquin
Name: 4-[2-(4-tert-Butylphenyl)ethoxy]quinazoline
Name: 4-{2-[4-(2-Methyl-2-propanyl)phenyl]ethoxy}quinazoline
Formula: C20H22N2O
Exact mass: 306.1732
SMILES: CC(C)(C)C1=CC=C(C=C1)CCOC2=NC=NC3=CC=CC=C32
InChI: InChI=1S/C20H22N2O/c1-20(2,3)16-10-8-15(9-11-16)12-13-23-19-17-6-4-5-7-18(17)21-14-22-19/h4-11,14H,12-13H2,1-3H3
Instrument: LTQ Orbitrap XL Thermo Scientific
Instrument type: LC-ESI-ITFT
Ms type: MS2
Ion mode: POSITIVE
Ionization: ESI
Fragmentation mode: HCD
Collision energy: 30
Resolution: 7500
Column name: X-bridge C18, 3.5um, 2.1x50mm, Waters
Retention time: 16.83 min
Base peak: 307.1804
Precursor m/z: 307.1804
Precursor type: [M+H]+
m/z	relative intensity
57.0691	162
147.0549	160
161.1322	838
307.1804	999
