Mass spectrum: Lufenuron; LC-ESI-ITFT; MS2; HCD 15; R=7500; [M-H]-
Name: Lufenuron
Name: N-{[2,5-Dichloro-4-(1,1,2,3,3,3-hexafluoropropoxy)phenyl]carbamoyl}-2,6-difluorobenzamide
Name: 1-(2,5-dichloro-4-(1,1,2,3,3,3-hexafluoropropoxy)phenyl)-3-(2,6-difluorobenzoyl)urea
Formula: C17H8Cl2F8N2O3
Exact mass: 403.84988
SMILES: C1=CC(=C(C(=C1)F)C(=O)NC(=O)NC2=CC(=C(C=C2Cl)OC(C(C(F)(F)F)F)(F)F)Cl)F
InChI: InChI=1S/C17H8Cl2F8N2O3/c18-6-5-11(32-17(26,27)14(22)16(23,24)25)7(19)4-10(6)28-15(31)29-13(30)12-8(20)2-1-3-9(12)21/h1-5,14H,(H2,28,29,30,31)
Instrument: LTQ Orbitrap XL Thermo Scientific
Instrument type: LC-ESI-ITFT
Ms type: MS2
Ion mode: NEGATIVE
Ionization: ESI
Fragmentation mode: HCD
Collision energy: 15
Resolution: 7500
Column name: X-bridge C18, 3.5um, 2.1x50mm, Waters
Retention time: 15.81 min
Base peak: 508.9704
Precursor m/z: 508.9704
Precursor type: [M-H]-
m/z	relative intensity
170.8421	25
293.0694	34
325.9548	34
338.9733	119
468.9534	21
488.9636	92
508.9704	999
