Mass spectrum: Chlorophene; LC-ESI-ITFT; MS2; HCD 70; R=7500; [M-H]-
Name: Chlorophene
Name: 2-Benzyl-4-chlorophenol
Name: 4-chloro-2-(phenylmethyl)phenol
Formula: C13H11ClO
Exact mass: 218.04985
SMILES: C1=CC=C(C=C1)CC2=C(C=CC(=C2)Cl)O
InChI: InChI=1S/C13H11ClO/c14-12-6-7-13(15)11(9-12)8-10-4-2-1-3-5-10/h1-7,9,15H,8H2
Instrument: LTQ Orbitrap XL Thermo Scientific
Instrument type: LC-ESI-ITFT
Ms type: MS2
Ion mode: NEGATIVE
Ionization: ESI
Fragmentation mode: HCD
Collision energy: 70
Resolution: 7500
Column name: X-bridge C18, 3.5um, 2.1x50mm, Waters
Retention time: 12.89 min
Base peak: 217.0431
Precursor m/z: 217.0431
Precursor type: [M-H]-
m/z	relative intensity
113.1747	21
217.0431	999
