Mass spectrum: Flucofuron; LC-ESI-ITFT; MS2; R=7500; [M-H]-
Name: Flucofuron
Name: N,N'-Bis[4-chloro-3-(trifluoromethyl)phenyl]urea
Formula: C15H8Cl2F6N2O
Exact mass: 415.99179
SMILES: C1=CC(=C(C=C1NC(=O)NC2=CC(=C(C=C2)Cl)C(F)(F)F)C(F)(F)F)Cl
InChI: InChI=1S/C15H8Cl2F6N2O/c16-11-3-1-7(5-9(11)14(18,19)20)24-13(26)25-8-2-4-12(17)10(6-8)15(21,22)23/h1-6H,(H2,24,25,26)
Instrument: LTQ Orbitrap XL Thermo Scientific
Instrument type: LC-ESI-ITFT
Ms type: MS2
Ion mode: NEGATIVE
Ionization: ESI
Fragmentation mode: HCD
Collision energy: scaled by m/z
Resolution: 7500
Column name: X-bridge C18, 3.5um, 2.1x50mm, Waters
Retention time: 15.91 min
Base peak: 414.9846
Precursor m/z: 414.9846
Precursor type: [M-H]-
m/z	relative intensity
193.9988	999
414.9843	694
