Mass spectrum: Hexachlorophene; LC-ESI-ITFT; MS2; R=7500; [M-H]-
Name: Hexachlorophene
Name: 2,2'-methylenebis(3,4,6-trichlorophenol)
Formula: C13H6Cl6O2
Exact mass: 403.84988
SMILES: C1=C(C(=C(C(=C1Cl)Cl)CC2=C(C(=CC(=C2Cl)Cl)Cl)O)O)Cl
InChI: InChI=1S/C13H6Cl6O2/c14-6-2-8(16)12(20)4(10(6)18)1-5-11(19)7(15)3-9(17)13(5)21/h2-3,20-21H,1H2
Instrument: LTQ Orbitrap XL Thermo Scientific
Instrument type: LC-ESI-ITFT
Ms type: MS2
Ion mode: NEGATIVE
Ionization: ESI
Fragmentation mode: HCD
Collision energy: scaled by m/z
Resolution: 7500
Column name: X-bridge C18, 3.5um, 2.1x50mm, Waters
Retention time: 17.02 min
Base peak: 402.8427
Precursor m/z: 402.8427
Precursor type: [M-H]-
m/z	relative intensity
158.9410	51
194.9175	999
302.8940	71
366.8653	392
