Mass spectrum: Flunarizine; LC-ESI-ITFT; MS2; HCD15; R=7500; [M+H]+
Name: Flunarizine
Name: (E)-1-[Bis(p-fluorophenyl)-methyl]-4-cinnamylpiperazine
Name: 1-[Bis(4-fluorophenyl)methyl]-4-[(2E)-3-phenyl-2-propen-1-yl]piperazine
Formula: C26H26F2N2
Exact mass: 404.20639
SMILES: C1CN(CCN1C/C=C/C2=CC=CC=C2)C(C3=CC=C(C=C3)F)C4=CC=C(C=C4)F
InChI: InChI=1S/C26H26F2N2/c27-24-12-8-22(9-13-24)26(23-10-14-25(28)15-11-23)30-19-17-29(18-20-30)16-4-7-21-5-2-1-3-6-21/h1-15,26H,16-20H2/b7-4+
Instrument: LTQ Orbitrap XL Thermo Scientific
Instrument type: LC-ESI-ITFT
Ms type: MS2
Ion mode: POSITIVE
Ionization: ESI
Fragmentation mode: HCD
Collision energy: 15
Resolution: 7500
Column name: X-bridge C18, 3.5um, 2.1x50mm, Waters
Retention time: 10.19 min
Base peak: 405.2135
Precursor m/z: 405.2135
Precursor type: [M+H]+
m/z	relative intensity
117.0694	7
201.1386	33
203.0666	999
385.2078	13
405.2135	205
