Mass spectrum: 10phiC10SPC (STANDARD); LC-ESI-QFT; MS2; HCD50; [M-H]-
Name: 10phiC10SPC (STANDARD)
Name: Decacarboxy sulfophenyl carboxylic acid
Name: 10-(4-sulfophenyl)octanoic acid
Formula: C16H24O5S
Exact mass: 328.1344
SMILES: OS(=O)(=O)c1ccc(CCCCCCCCCC(=O)O)cc1
InChI: InChI=1S/C16H24O5S/c17-16(18)9-7-5-3-1-2-4-6-8-14-10-12-15(13-11-14)22(19,20)21/h10-13H,1-9H2,(H,17,18)(H,19,20,21)
Instrument: Q Exactive Orbitrap Thermo Scientific
Instrument type: LC-ESI-QFT
Ms type: MS2
Ion mode: NEGATIVE
Ionization: ESI
Fragmentation mode: HCD
Collision energy: 50 NCE
Base peak: 327.1272
Precursor m/z: 327.1272
Precursor type: [M-H]-
m/z	relative intensity
57.4058	4
79.9568	127
80.9646	6
106.0423	3
155.9887	3
170.0044	999
171.012	3
183.0121	86
184.0199	9
197.0277	11
201.9942	35
211.0437	4
219.1754	3
225.0589	4
245.1548	14
247.1705	3
263.1653	10
283.1374	14
309.1168	166
