Mass spectrum: ROS_n_336.0821_20.7; LC-ESI-QFT; MS2; CE: 20%; R=17500; [M-H]-
Name: ROS_n_336.0821_20.7
Name: Rosuvastatin -C7H12O3
Name: N-(4-(4-fluorophenyl)-6-isopropylpyrimidin-2-yl)-N-methylmethanesulfonamide -H2 +O
Class: identified ozonation transformation product
Formula: C15H16FN3O3S
Exact mass: 337.0896
Instrument: Q Exactive Plus Orbitrap Thermo Scientific
Instrument type: LC-ESI-QFT
Ms type: MS2
Ion mode: NEGATIVE
Ionization: ESI
Fragmentation mode: HCD
Collision energy: 20 % (nominal)
Resolution: 17500
Column name: C18 Atlantis T3 5 um, 3x150 mm, Waters
Retention time: 20.684 min
Base peak: 91.0038
Precursor m/z: 336.0824
Precursor type: [M-H]-
Precursor intensity: 678983.875
m/z	relative intensity	assigned
258.105	6	C14H13FN3O-
336.0824	999	C15H15FN3O3S-
