Mass spectrum: MPL-dm; LC-ESI-QFT; MS2; CE: 30%; R=17500; [M+H]+
Name: MPL-dm
Name: O-Demethylmetoprolol
Name: 1-[4-(2-hydroxyethyl)phenoxy]-3-(propan-2-ylamino)propan-2-ol
Formula: C14H23NO3
Exact mass: 253.1678
SMILES: CC(NCC(O)COC1=CC=C(CCO)C=C1)C
InChI: InChI=1S/C14H23NO3/c1-11(2)15-9-13(17)10-18-14-5-3-12(4-6-14)7-8-16/h3-6,11,13,15-17H,7-10H2,1-2H3
Instrument: Q-Exactive Thermo Scientific
Instrument type: LC-ESI-QFT
Ms type: MS2
Ion mode: POSITIVE
Ionization: ESI
Fragmentation mode: HCD
Collision energy: 30 % (nominal)
Resolution: 17500
Column name: Atlantis T3 3um, 3.0x150mm, Waters
Retention time: 10.489 min
Base peak: 250.2013
Precursor m/z: 254.1751
Precursor type: [M+H]+
m/z	relative intensity	assigned
56.0495	8	C3H6N+
58.0651	5	C3H8N+
60.0808	1	C3H10N+
72.0806	76	C4H10N+
74.0599	36	C3H8NO+
86.0963	4	C5H12N+
87.0441	4	C4H7O2+
98.0964	71	C6H12N+
103.0392	1	C4H7O3+
116.107	108	C6H14NO+
121.0647	6	C8H9O+
131.0855	3	C10H11+
133.0649	12	C9H9O+
147.0808	1	C10H11O+
148.076	3	C9H10NO+
151.0752	20	C9H11O2+
159.0805	38	C11H11O+
161.0966	1	C11H13O+
165.091	3	C10H13O2+
176.1068	13	C11H14NO+
177.0909	162	C11H13O2+
194.1181	3	C11H16NO2+
212.1282	79	C11H18NO3+
218.154	5	C14H20NO+
219.1384	1	C14H19O2+
236.1647	23	C14H22NO2+
254.1751	999	C14H24NO3+
