Mass spectrum: BEZ-da; LC-ESI-QFT; MS2; CE: 180%; R=17500; [M+H]+
Name: BEZ-da
Name: 4-chloro-N-[2-(4-hydroxyphenyl)ethyl]benzamide
Formula: C15H14ClNO2
Exact mass: 275.0713
SMILES: OC1=CC=C(CCNC(C2=CC=C(Cl)C=C2)=O)C=C1
InChI: InChI=1S/C15H14ClNO2/c16-13-5-3-12(4-6-13)15(19)17-10-9-11-1-7-14(18)8-2-11/h1-8,18H,9-10H2,(H,17,19)
Instrument: Q-Exactive + Thermo Scientific
Instrument type: LC-ESI-QFT
Ms type: MS2
Ion mode: POSITIVE
Ionization: ESI
Fragmentation mode: HCD
Collision energy: 180 % (nominal)
Resolution: 17500
Column name: Atlantis T3 3um, 3.0x150mm, Waters
Retention time: 20.870 min
Base peak: 304.2847
Precursor m/z: 276.0786
Precursor type: [M+H]+
m/z	relative intensity	assigned
50.0151	391	C4H2+
51.0229	999	C4H3+
53.0021	77	C3HO+
53.0384	151	C4H5+
53.9973	22	C2NO+
63.0228	30	C5H3+
65.0386	358	C5H5+
74.0151	524	C6H2+
75.0229	879	C6H3+
76.0305	32	C6H4+
77.0385	300	C6H5+
78.0461	25	C6H6+
79.0541	24	C6H7+
84.9837	93	C4H2Cl+
89.0384	34	C7H5+
91.0542	258	C7H7+
95.0491	382	C6H7O+
102.0464	21	C8H6+
105.0448	239	C6H5N2+
115.0541	37	C9H7+
