Mass spectrum: FEN_p_290.2478_18.3; LC-ESI-QFT; MS2; CE: 40%; R=17500; [M+H]+
Name: FEN_p_290.2478_18.3
Name: 1-[3-(4-tert-butylphenyl)-2-methylpropyl]-1-oxidopiperidin-1-ium
Class: identified ozonation transformation product
Formula: C19H31NO
Exact mass: 289.2406
SMILES: CC(C[N+]1([O-])CCCCC1)CC2=CC=C(C(C)(C)C)C=C2
InChI: InChI=1S/C19H31NO/c1-16(15-20(21)12-6-5-7-13-20)14-17-8-10-18(11-9-17)19(2,3)4/h8-11,16H,5-7,12-15H2,1-4H3
Instrument: Q Exactive Plus Orbitrap Thermo Scientific
Instrument type: LC-ESI-QFT
Ms type: MS2
Ion mode: POSITIVE
Ionization: ESI
Fragmentation mode: HCD
Collision energy: 40 % (nominal)
Resolution: 17500
Column name: C18 Atlantis T3 5 um, 3x150 mm, Waters
Retention time: 18.543 min
Base peak: 221.1749
Precursor m/z: 290.2478
Precursor type: [M+H]+
Precursor intensity: 111875368
m/z	relative intensity	assigned
55.0542	3	C4H7+
56.0495	5	C3H6N+
57.0699	131	C4H9+
70.0651	2	C4H8N+
84.0808	61	C5H10N+
85.0886	24	C5H11N+
86.0964	66	C5H12N+
91.0542	4	C7H7+
98.0964	614	C6H12N+
102.0913	394	C5H12NO+
105.0701	4	C8H9+
107.0493	9	C7H7O+
119.0859	4	C9H11+
131.0855	2	C10H11+
132.0932	3	C10H12+
133.1013	6	C10H13+
140.1435	9	C9H18N+
147.1169	452	C11H15+
149.0959	8	C10H13O+
161.1326	14	C12H17+
163.1118	59	C11H15O+
189.1638	128	C14H21+
234.1852	48	C15H24NO+
272.2368	44	C19H30N+
290.2478	999	C19H32NO+
