Mass spectrum: MEF-Glu; LC-ESI-QFT; MS2; CE: 180%; R=17500; [M+H]+
Name: MEF-Glu
Formula: C20H22N2O5
Exact mass: 370.1529
SMILES: O=C(CCC(NC(C1=C(C=CC=C1)NC2=CC=CC(C)=C2C)=O)C(O)=O)O
InChI: InChI=1S/C20H22N2O5/c1-12-6-5-9-15(13(12)2)21-16-8-4-3-7-14(16)19(25)22-17(20(26)27)10-11-18(23)24/h3-9,17,21H,10-11H2,1-2H3,(H,22,25)(H,23,24)(H,26,27)
Instrument: Q-Exactive + Thermo Scientific
Instrument type: LC-ESI-QFT
Ms type: MS2
Ion mode: POSITIVE
Ionization: ESI
Fragmentation mode: HCD
Collision energy: 180 % (nominal)
Resolution: 17500
Column name: Atlantis T3 3um, 3.0x150mm, Waters
Retention time: 22.708 min
Base peak: 295.1903
Precursor m/z: 371.1601
Precursor type: [M+H]+
m/z	relative intensity	assigned
50.015	75	C4H2+
51.0229	219	C4H3+
52.0306	12	C4H4+
53.0021	24	C3HO+
53.0387	81	C4H5+
55.0541	17	C4H7+
59.9842	11	CO3+
62.015	13	C5H2+
63.0227	101	C5H3+
65.0385	118	C5H5+
74.0152	15	C6H2+
75.0227	85	C6H3+
77.0385	90	C6H5+
78.0463	46	C6H6+
81.0335	13	C5H5O+
89.0385	99	C7H5+
90.0466	15	C7H6+
91.0543	67	C7H7+
95.0491	177	C6H7O+
102.0465	51	C8H6+
103.0542	13	C8H7+
105.0448	132	C6H5N2+
113.0387	58	C9H5+
115.0542	99	C9H7+
116.049	12	C8H6N+
117.057	16	C8H7N+
119.0492	18	C8H7O+
125.0382	16	C10H5+
126.0462	128	C10H6+
127.0547	74	C10H7+
128.0494	167	C9H6N+
128.062	42	C10H8+
129.0448	96	C8H5N2+
139.0538	78	C11H7+
140.0494	141	C10H6N+
145.0651	66	C10H9O+
146.0606	26	C9H8NO+
150.0465	133	C12H6+
151.0539	23	C12H7+
152.062	999	C12H8+
153.0574	75	C11H7N+
153.0699	44	C12H9+
154.0648	85	C11H8N+
155.0609	94	C10H7N2+
163.0534	13	C13H7+
164.0497	11	C12H6N+
165.0702	13	C13H9+
166.0655	38	C12H8N+
169.0648	375	C12H9O+
177.0571	109	C13H7N+
178.0651	681	C13H8N+
179.0599	95	C12H7N2+
179.0733	327	C13H9N+
180.0806	167	C13H10N+
190.0657	16	C14H8N+
191.0731	57	C14H9N+
192.081	15	C14H10N+
196.0761	13	C13H10NO+
208.0757	12	C14H10NO+
211.0624	37	C13H9NO2+
