Mass spectrum: DMT_p_246.1489_17.5; LC-ESI-QFT; MS2; CE: 60%; R=17500; [M+H]+
Name: DMT_p_246.1489_17.5
Name: Tetradehydrogenated N-Desmethyltramadol
Name: 1-(3-methoxyphenyl)-2-((methylamino)methyl)cyclohexan-1-ol -H4
Class: identified ozonation transformation product
Formula: C15H19NO2
Exact mass: 245.1416
Instrument: Q Exactive Plus Orbitrap Thermo Scientific
Instrument type: LC-ESI-QFT
Ms type: MS2
Ion mode: POSITIVE
Ionization: ESI
Fragmentation mode: HCD
Collision energy: 60 % (nominal)
Resolution: 17500
Column name: C18 Atlantis T3 5 um, 3x150 mm, Waters
Retention time: 17.396 min
Base peak: 163.1328
Precursor m/z: 246.1489
Precursor type: [M+H]+
Precursor intensity: 1979365.125
m/z	relative intensity	assigned
55.0183	3	
55.0549	91	
56.0501	28	
58.0658	9	C3H8N+
60.0451	65	C2H6NO+
62.0607	13	C2H8NO+
67.0549	11	C5H7+
68.05	6	C4H6N+
70.0656	6	C4H8N+
79.0543	31	C6H7+
83.0855	33	C6H11+
84.0449	3	C4H6NO+
86.06	16	C4H8NO+
91.0543	31	C7H7+
93.0706	13	C7H9+
94.0656	7	C6H8N+
95.0492	15	C6H7O+
96.16	10	
97.1018	11	C7H13+
107.0497	9	C7H7O+
107.0865	4	C8H11+
109.0657	8	C7H9O+
115.055	11	C9H7+
121.0648	117	C8H9O+
125.0598	29	C7H9O2+
128.062	14	C10H8+
131.0495	7	C9H7O+
135.0445	38	C8H7O2+
135.0556	11	
135.0808	4	C9H11O+
141.0697	23	C11H9+
143.0492	3	C10H7O+
143.0858	5	C11H11+
144.057	29	C10H8O+
144.081	3	C10H10N+
145.0649	23	C10H9O+
146.0609	7	C9H8NO+
146.073	16	C10H10O+
147.0689	4	C9H9NO+
147.0806	10	C10H11O+
152.0619	16	C12H8+
153.0701	11	C12H9+
154.0667	4	C11H8N+
154.0776	21	C12H10+
155.0859	9	C12H11+
156.0572	8	C11H8O+
156.0808	30	C11H10N+
156.0926	3	C12H12+
157.0655	13	C11H9O+
157.0887	233	C11H11N+
158.0726	74	C11H10O+
159.0684	3	C10H9NO+
159.0804	67	C11H11O+
160.0761	4	C10H10NO+
160.0888	5	C11H12O+
162.0918	3	C10H12NO+
165.0699	69	C13H9+
166.0778	21	C13H10+
167.0856	42	C13H11+
168.0807	13	C12H10N+
168.0938	19	C13H12+
169.0652	11	C12H9O+
169.0886	17	C12H11N+
169.1015	24	C13H13+
170.0603	8	C11H8NO+
170.0967	30	C12H12N+
171.0804	271	C12H11O+
172.0755	13	C11H10NO+
172.0883	107	C12H12O+
173.0961	19	C12H13O+
174.0916	19	C11H12NO+
181.0647	17	C13H9O+
182.0727	41	C13H10O+
182.0968	12	C13H12N+
183.0807	26	C13H11O+
184.0751	58	C12H10NO+
184.0885	188	C13H12O+
184.1122	67	C13H14N+
185.0836	276	C12H11NO+
185.1199	632	C13H15N+
186.0912	15	C12H12NO+
187.0986	22	C12H13NO+
188.1072	8	C12H14NO+
195.0929	6	
196.112	16	C14H14N+
197.0962	25	C14H13O+
198.0909	86	C13H12NO+
198.1278	4	C14H16N+
199.1119	106	C14H15O+
200.1067	999	C13H14NO+
212.1071	153	C14H14NO+
213.115	314	C14H15NO+
226.1225	12	C15H16NO+
228.1385	105	C15H18NO+
228.2326	15	
246.1481	8	C15H20NO2+
