Mass spectrum: LID_n_192.0665_16.0; LC-ESI-QFT; MS2; CE: 80%; R=17500; [M-H]-
Name: LID_n_192.0665_16.0
Name: Lidocaine  -C4H11N +O2
Name: Carboxylic acid of N-(2,6-dimethylphenyl)acetamide
Class: identified ozonation transformation product
Formula: C10H11NO3
Exact mass: 192.0665
Instrument: Q Exactive Plus Orbitrap Thermo Scientific
Instrument type: LC-ESI-QFT
Ms type: MS2
Ion mode: NEGATIVE
Ionization: ESI
Fragmentation mode: HCD
Collision energy: 80 % (nominal)
Resolution: 17500
Column name: C18 Atlantis T3 5 um, 3x150 mm, Waters
Retention time: 15.448 min
Base peak: 91.0038
Precursor m/z: 192.0666
Precursor type: [M-H]-
Precursor intensity: 244622.15625
m/z	relative intensity	assigned
55.0187	24	C3H3O-
92.0507	999	C6H6N-
148.0768	52	C9H10NO-
