Mass spectrum: MPL-dm; LC-ESI-QFT; MS2; CE: 45%; R=17500; [M+H]+
Name: MPL-dm
Name: O-Demethylmetoprolol
Name: 1-[4-(2-hydroxyethyl)phenoxy]-3-(propan-2-ylamino)propan-2-ol
Formula: C14H23NO3
Exact mass: 253.1678
SMILES: CC(NCC(O)COC1=CC=C(CCO)C=C1)C
InChI: InChI=1S/C14H23NO3/c1-11(2)15-9-13(17)10-18-14-5-3-12(4-6-14)7-8-16/h3-6,11,13,15-17H,7-10H2,1-2H3
Instrument: Q-Exactive Thermo Scientific
Instrument type: LC-ESI-QFT
Ms type: MS2
Ion mode: POSITIVE
Ionization: ESI
Fragmentation mode: HCD
Collision energy: 45 % (nominal)
Resolution: 17500
Column name: Atlantis T3 3um, 3.0x150mm, Waters
Retention time: 10.489 min
Base peak: 250.2013
Precursor m/z: 254.1751
Precursor type: [M+H]+
m/z	relative intensity	assigned
56.0495	246	C3H6N+
58.0652	90	C3H8N+
60.0808	5	C3H10N+
72.0806	840	C4H10N+
74.0599	612	C3H8NO+
84.0812	16	C5H10N+
86.0966	21	C5H12N+
87.0439	19	C4H7O2+
91.0543	46	C7H7+
93.0701	9	C7H9+
95.0494	7	C6H7O+
95.0854	7	C7H11+
98.0964	652	C6H12N+
100.1122	23	C6H14N+
103.0544	5	C8H7+
105.07	56	C8H9+
107.0492	5	C7H7O+
115.054	4	C9H7+
116.107	663	C6H14NO+
117.0696	8	C9H9+
121.0648	162	C8H9O+
129.0697	29	C10H9+
131.0492	17	C9H7O+
131.0855	145	C10H11+
133.0648	400	C9H9O+
135.0806	20	C9H11O+
141.0698	34	C11H9+
144.0572	49	C10H8O+
147.0803	43	C10H11O+
148.0757	85	C9H10NO+
149.0712	29	C8H9N2O+
151.0753	374	C9H11O2+
159.0804	577	C11H11O+
165.091	60	C10H13O2+
176.107	80	C11H14NO+
177.0909	999	C11H13O2+
212.1282	199	C11H18NO3+
218.153	8	C14H20NO+
236.165	27	C14H22NO2+
254.1751	611	C14H24NO3+
