Mass spectrum: BZF_p_156.0209_16.9; LC-ESI-QFT; MS2; CE: 95%; R=17500; [M+H]+
Name: BZF_p_156.0209_16.9
Name: 4-chlorobenzamide
Class: identified ozonation transformation product
Formula: C7H6ClNO
Exact mass: 155.0138
SMILES: C1=CC(=CC=C1C(=O)N)Cl
InChI: InChI=1S/C7H6ClNO/c8-6-3-1-5(2-4-6)7(9)10/h1-4H,(H2,9,10)
Instrument: Q Exactive Plus Orbitrap Thermo Scientific
Instrument type: LC-ESI-QFT
Ms type: MS2
Ion mode: POSITIVE
Ionization: ESI
Fragmentation mode: HCD
Collision energy: 95 % (nominal)
Resolution: 17500
Column name: C18 Atlantis T3 5 um, 3x150 mm, Waters
Retention time: 16.793 min
Base peak: 131.0855
Precursor m/z: 156.0211
Precursor type: [M+H]+
Precursor intensity: 1106070.875
m/z	relative intensity	assigned
51.023	50	C4H3+
53.0023	23	C3HO+
53.0387	34	C4H5+
55.0179	16	C3H3O+
75.0229	192	C6H3+
77.0386	15	C6H5+
79.0178	11	C5H3O+
86.9996	87	C4H4Cl+
93.0334	7	C6H5O+
95.0492	87	C6H7O+
105.0448	58	
110.9995	96	C6H4Cl+
111.0442	29	
113.015	11	C6H6Cl+
129.0102	372	C6H6ClO+
138.9947	362	C7H4ClO+
139.0059	999	
156.0806	18	
