Mass spectrum: SMZ-AcOH; LC-ESI-QFT; MS2; CE: 15%; R=17500; [M+H]+
Name: SMZ-AcOH
Formula: C12H13N3O5S
Exact mass: 311.0576
Instrument: Q-Exactive + Thermo Scientific
Instrument type: LC-ESI-QFT
Ms type: MS2
Ion mode: POSITIVE
Ionization: ESI
Fragmentation mode: HCD
Collision energy: 15 % (nominal)
Resolution: 17500
Column name: Atlantis T3 3um, 3.0x150mm, Waters
Retention time: 16.844 min
Base peak: 278.2115
Precursor m/z: 312.0649
Precursor type: [M+H]+
m/z	relative intensity	assigned
59.0491	6	C3H7O+
87.044	5	C4H7O2+
89.0596	70	C4H9O2+
99.0552	9	C4H7N2O+
101.0597	19	C5H9O2+
103.0753	12	C5H11O2+
106.065	11	C7H8N+
107.0703	1	C4H11O3+
119.0605	1	C7H7N2+
131.0699	1	C6H11O3+
133.0859	37	C6H13O3+
134.0892	31	CH14N2O5+
147.0791	1	C8H9N3+
150.0556	1	C2H14O5S+
151.0629	56	C8H9NO2+
152.0706	21	C8H10NO2+
160.0868	2	C9H10N3+
166.0494	9	H12N3O5S+
186.0218	1	C7H8NO3S+
189.0897	35	C10H11N3O+
202.0977	18	C11H12N3O+
205.084	1	C10H11N3O2+
206.0924	1	C10H12N3O2+
214.0169	126	C8H8NO4S+
246.0872	40	C12H12N3O3+
248.1029	6	C12H14N3O3+
252.0434	2	C10H10N3O3S+
266.0597	1	C11H12N3O3S+
312.0648	999	C12H14N3O5S+
