Mass spectrum: 1H-Benzotriazole-4-carboxylic acid (Tentative); LC-ESI-ITFT; MS2; 80-110; R=7500; [M+H]+
Name: 1H-Benzotriazole-4-carboxylic acid (Tentative)
Name: 1H-Benzotriazole-4-carboxylic acid
Name: 4-Methylbenzotriazole Transformation Product 31
Formula: C7H5N3O2
Exact mass: 163.0382
SMILES: C1=CC2=NNN=C2C(=C1)C(=O)O
InChI: InChI=1S/C7H5N3O2/c11-7(12)4-2-1-3-5-6(4)9-10-8-5/h1-3H,(H,11,12)(H,8,9,10)
Instrument: LTQ Orbitrap XL Thermo Scientific
Instrument type: LC-ESI-ITFT
Ms type: MS2
Ion mode: POSITIVE
Ionization: ESI
Fragmentation mode: HCD
Collision energy: scaled 80 (m/z=200) to 110 (m/z=120)
Resolution: 7500
Column name: Atlantis T3 3um, 3.0x150mm, Waters
Retention time: 19.7 min
Base peak: 164.0445
Precursor m/z: 164.0445
Precursor type: [M+H]+
m/z	relative intensity
63.022	339
72.0405	240
89.0077	241
90.0329	999
110.0411	278
118.0285	614
146.0352	306
164.0452	619
