Mass spectrum: 1H-Benzotriazole TP18 (Tentative); LC-ESI-ITFT; MS2; 80-110; R=7500; [M+H]+
Name: 1H-Benzotriazole TP18 (Tentative)
Name: 1H-Benzotriazole Transformation Product 18 (TP18)
Formula: C8H7N3O2
Exact mass: 177.0538
Instrument: LTQ Orbitrap XL Thermo Scientific
Instrument type: LC-ESI-ITFT
Ms type: MS2
Ion mode: POSITIVE
Ionization: ESI
Fragmentation mode: HCD
Collision energy: scaled 80 (m/z=200) to 110 (m/z=120)
Resolution: 7500
Column name: Atlantis T3 3um, 3.0x150mm, Waters
Retention time: 18.3 min
Base peak: 178.0605
Precursor m/z: 178.0605
Precursor type: [M+H]+
m/z	relative intensity
53.0377	64
65.0378	77
73.0112	17
76.0494	17
77.0378	161
79.0533	24
88.0208	69
91.0409	158
92.0488	156
93.0325	28
94.0642	60
95.0482	85
104.0487	156
105.044	109
106.0499	16
107.191	21
120.055	999
122.0591	22
133.0633	32
172.0991	19
178.0607	266
