Mass spectrum: RAN-dm; LC-ESI-QFT; MS2; CE: 75%; R=17500; [M+H]+
Name: RAN-dm
Name: Desmethyl Ranitidine
Name: (E)-1-N-methyl-1-N`-[2-[[5-(methylaminomethyl)furan-2-yl]methylsulfanyl]ethyl]-2-nitroethene-1,1-diamine
Formula: C12H20N4O3S
Exact mass: 300.1256
SMILES: CN/C(NCCSCC1=CC=C(CNC)O1)=C\[N+]([O-])=O
InChI: InChI=1S/C12H20N4O3S/c1-13-7-10-3-4-11(19-10)9-20-6-5-15-12(14-2)8-16(17)18/h3-4,8,13-15H,5-7,9H2,1-2H3/b12-8+
Instrument: Q-Exactive + Thermo Scientific
Instrument type: LC-ESI-QFT
Ms type: MS2
Ion mode: POSITIVE
Ionization: ESI
Fragmentation mode: HCD
Collision energy: 75 % (nominal)
Resolution: 17500
Column name: Atlantis T3 3um, 3.0x150mm, Waters
Retention time: 10.238 min
Base peak: 267.1704
Precursor m/z: 301.1329
Precursor type: [M+H]+
m/z	relative intensity	assigned
56.0496	63	C3H6N+
61.0106	71	C2H5S+
81.0335	683	C5H5O+
83.0604	70	C4H7N2+
97.0759	280	C5H9N2+
98.0838	84	C5H10N2+
102.0372	999	C4H8NS+
107.0494	71	C7H7O+
121.0756	50	C7H9N2+
125.0058	408	C6H5OS+
130.0564	69	C5H10N2S+
130.9819	185	C7HNS+
135.0918	64	C8H11N2+
184.0492	38	C8H4N6+
254.0893	40	C9H12N5O4+
