Mass spectrum: RAN-dm; LC-ESI-QFT; MS2; CE: 120%; R=17500; [M+H]+
Name: RAN-dm
Name: Desmethyl Ranitidine
Name: (E)-1-N-methyl-1-N`-[2-[[5-(methylaminomethyl)furan-2-yl]methylsulfanyl]ethyl]-2-nitroethene-1,1-diamine
Formula: C12H20N4O3S
Exact mass: 300.1256
SMILES: CN/C(NCCSCC1=CC=C(CNC)O1)=C\[N+]([O-])=O
InChI: InChI=1S/C12H20N4O3S/c1-13-7-10-3-4-11(19-10)9-20-6-5-15-12(14-2)8-16(17)18/h3-4,8,13-15H,5-7,9H2,1-2H3/b12-8+
Instrument: Q-Exactive + Thermo Scientific
Instrument type: LC-ESI-QFT
Ms type: MS2
Ion mode: POSITIVE
Ionization: ESI
Fragmentation mode: HCD
Collision energy: 120 % (nominal)
Resolution: 17500
Column name: Atlantis T3 3um, 3.0x150mm, Waters
Retention time: 10.238 min
Base peak: 267.1704
Precursor m/z: 301.1329
Precursor type: [M+H]+
m/z	relative intensity	assigned
53.0386	589	C4H5+
56.0495	392	C3H6N+
58.9949	99	C2H3S+
61.0106	171	C2H5S+
80.0494	89	C5H6N+
81.0335	999	C5H5O+
93.0571	98	C6H7N+
97.0759	330	C5H9N2+
102.0371	811	C4H8NS+
105.0448	127	C6H5N2+
107.049	85	C7H7O+
189.9587	81	C8NO3S+
