Mass spectrum: SPA-10C (SAMPLE); LC-ESI-QFT; MS2; HCD65; [M-H]-
Name: SPA-10C (SAMPLE)
Name: C10-sulfophenyl carboxylic acid
Name: 6-(4-sulfophenyl)decanoic acid
Formula: C16H24O5S
Exact mass: 328.1344
SMILES: OS(=O)(=O)c1ccc(cc1)C(CCCC)CCCCC(=O)O
InChI: InChI=1S/C16H24O5S/c1-2-3-6-13(7-4-5-8-16(17)18)14-9-11-15(12-10-14)22(19,20)21/h9-13H,2-8H2,1H3,(H,17,18)(H,19,20,21)
Instrument: Q Exactive Orbitrap Thermo Scientific
Instrument type: LC-ESI-QFT
Ms type: MS2
Ion mode: NEGATIVE
Ionization: ESI
Fragmentation mode: HCD
Collision energy: 65 NCE
Base peak: 327.1272
Precursor m/z: 327.1272
Precursor type: [M-H]-
m/z	relative intensity
79.9567	166
80.9646	58
93.0343	7
119.0503	55
149.0460	28
156.9964	5
170.0043	83
183.0120	999
184.0195	23
185.0068	27
196.0200	5
197.0277	123
198.0354	11
201.9943	13
211.0431	15
216.0101	10
225.0589	22
239.0746	14
253.0907	5
309.1172	8
