Mass spectrum: SMZ-AcOH; LC-ESI-QFT; MS2; CE: 45%; R=17500; [M+H]+
Name: SMZ-AcOH
Formula: C12H13N3O5S
Exact mass: 311.0576
Instrument: Q-Exactive + Thermo Scientific
Instrument type: LC-ESI-QFT
Ms type: MS2
Ion mode: POSITIVE
Ionization: ESI
Fragmentation mode: HCD
Collision energy: 45 % (nominal)
Resolution: 17500
Column name: Atlantis T3 3um, 3.0x150mm, Waters
Retention time: 16.844 min
Base peak: 278.2115
Precursor m/z: 312.0649
Precursor type: [M+H]+
m/z	relative intensity	assigned
55.0178	22	C3H3O+
57.0335	6	C3H5O+
57.0698	6	C4H9+
59.0491	118	C3H7O+
60.0443	15	C2H6NO+
68.0495	13	C4H6N+
72.0443	7	C3H6NO+
77.0384	5	C6H5+
79.0542	21	C6H7+
80.0495	8	C5H6N+
81.0336	7	C5H5O+
87.044	42	C4H7O2+
89.0597	233	C4H9O2+
90.0549	17	C3H8NO2+
92.0493	8	C6H6N+
93.0337	17	C6H5O+
94.0651	64	C6H8N+
95.0127	18	C5H3O2+
95.049	33	C6H7O+
95.0856	5	C7H11+
99.0552	130	C4H7N2O+
101.0597	109	C5H9O2+
103.0758	6	C5H11O2+
104.0494	132	C7H6N+
104.0706	63	C4H10NO2+
105.0573	5	C7H7N+
106.0651	810	C7H8N+
108.0444	277	C6H6NO+
110.0599	4	C6H8NO+
118.0864	8	C5H12NO2+
119.0607	7	C7H7N2+
120.0445	323	C7H6NO+
122.06	347	C7H8NO+
131.0604	4	C8H7N2+
132.0443	15	C8H6NO+
133.0857	6	C6H13O3+
136.0395	78	C7H6NO2+
137.0467	4	C7H7NO2+
144.0678	4	C9H8N2+
145.0856	5	C7H13O3+
146.0712	31	C8H8N3+
147.0795	30	C8H9N3+
150.055	417	C8H8NO2+
151.0628	239	C8H9NO2+
152.0699	6	C8H10NO2+
158.0715	17	C9H8N3+
159.0792	99	C9H9N3+
160.0871	25	C9H10N3+
161.0008	13	C4H5N2O3S+
164.115	7	C4H14N5O2+
166.05	999	C8H8NO3+
168.0655	40	C8H10NO3+
172.0869	82	C10H10N3+
174.066	55	C9H8N3O+
175.0867	5	C10H11N2O+
179.1062	6	C9H13N3O+
189.0895	29	C10H11N3O+
202.098	19	C11H12N3O+
205.0847	5	C10H11N3O2+
206.0376	5	C9H8N3OS+
214.0169	142	C8H8NO4S+
218.0927	29	C11H12N3O2+
246.0877	17	C12H12N3O3+
277.9602	4	C8N5O5S+
