Mass spectrum: CBDZ-M; LC-ESI-QFT; MS2; CE: 120%; R=17500; [M+H]+
Name: CBDZ-M
Name: Lobendazole
Name: ethyl N-(1H-benzimidazol-2-yl)carbamate
Formula: C10H11N3O2
Exact mass: 205.0851
SMILES: O=C(NC1=NC2=CC=CC=C2N1)OCC
InChI: InChI=1S/C10H11N3O2/c1-2-15-10(14)13-9-11-7-5-3-4-6-8(7)12-9/h3-6H,2H2,1H3,(H2,11,12,13,14)
Instrument: Q-Exactive + Thermo Scientific
Instrument type: LC-ESI-QFT
Ms type: MS2
Ion mode: POSITIVE
Ionization: ESI
Fragmentation mode: HCD
Collision energy: 120 % (nominal)
Resolution: 17500
Column name: Atlantis T3 3um, 3.0x150mm, Waters
Retention time: 15.185 min
Base peak: 268.1907
Precursor m/z: 206.0924
Precursor type: [M+H]+
m/z	relative intensity	assigned
51.0229	5	C4H3+
53.0386	13	C4H5+
55.0541	3	C4H7+
63.0229	16	C5H3+
64.0179	4	C4H2N+
65.0386	996	C5H5+
66.0463	14	C5H6+
78.0337	14	C5H4N+
79.0415	15	C5H5N+
79.054	3	C6H7+
80.0495	172	C5H6N+
81.0335	17	C5H5O+
90.0338	183	C6H4N+
91.0542	4	C7H7+
92.0495	999	C6H6N+
93.0573	236	C6H7N+
96.0444	4	C5H6NO+
105.0447	372	C6H5N2+
106.0284	6	C6H4NO+
106.0526	45	C6H6N2+
107.0604	150	C6H7N2+
108.044	6	C6H6NO+
110.0601	12	C6H8NO+
117.0448	39	C7H5N2+
118.0523	13	C7H6N2+
132.0557	298	C7H6N3+
133.0633	96	C7H7N3+
134.0713	518	C7H8N3+
135.0553	87	C7H7N2O+
160.0507	201	C8H6N3O+
