Mass spectrum: 5,6-Dimethylbenzotriazole; LC-ESI-ITFT; MS2; 80-110; R=7500; [M+H]+
Name: 5,6-Dimethylbenzotriazole
Name: 5,6-Dimethyl-1H-benzotriazole
Formula: C8H9N3
Exact mass: 147.07965
SMILES: CC1=CC2=C(C=C1C)N=NN2
InChI: InChI=1S/C8H9N3/c1-5-3-7-8(4-6(5)2)10-11-9-7/h3-4H,1-2H3,(H,9,10,11)
Instrument: LTQ Orbitrap XL Thermo Scientific
Instrument type: LC-ESI-ITFT
Ms type: MS2
Ion mode: POSITIVE
Ionization: ESI
Fragmentation mode: HCD
Collision energy: scaled 80 (m/z=200) to 110 (m/z=120)
Resolution: 7500
Column name: Atlantis T3 3um, 3.0x150mm, Waters
Retention time: 23.5 min
Base peak: 148.0865
Precursor m/z: 148.0865
Precursor type: [M+H]+
m/z	relative intensity
53.0378	278
65.0378	76
77.0378	508
78.0456	53
80.0487	124
81.0327	54
91.0536	999
92.0487	62
93.0566	187
93.0692	535
94.0644	81
95.0484	87
103.0536	291
104.0488	255
105.0441	363
105.0566	252
118.0646	135
119.0723	138
120.0802	211
148.0865	777
