Mass spectrum: MEF-Glu; LC-ESI-QFT; MS2; CE: 75%; R=17500; [M+H]+
Name: MEF-Glu
Formula: C20H22N2O5
Exact mass: 370.1529
SMILES: O=C(CCC(NC(C1=C(C=CC=C1)NC2=CC=CC(C)=C2C)=O)C(O)=O)O
InChI: InChI=1S/C20H22N2O5/c1-12-6-5-9-15(13(12)2)21-16-8-4-3-7-14(16)19(25)22-17(20(26)27)10-11-18(23)24/h3-9,17,21H,10-11H2,1-2H3,(H,22,25)(H,23,24)(H,26,27)
Instrument: Q-Exactive + Thermo Scientific
Instrument type: LC-ESI-QFT
Ms type: MS2
Ion mode: POSITIVE
Ionization: ESI
Fragmentation mode: HCD
Collision energy: 75 % (nominal)
Resolution: 17500
Column name: Atlantis T3 3um, 3.0x150mm, Waters
Retention time: 22.708 min
Base peak: 295.1903
Precursor m/z: 371.1601
Precursor type: [M+H]+
m/z	relative intensity	assigned
55.0542	17	C4H7+
57.0698	39	C4H9+
59.0492	3	C3H7O+
65.0383	2	C5H5+
67.054	12	C5H7+
69.0696	10	C5H9+
79.054	10	C6H7+
81.0697	13	C6H9+
83.049	5	C5H7O+
88.0755	3	C4H10NO+
93.0699	4	C7H9+
95.0489	3	C6H7O+
95.0851	9	C7H11+
105.0697	14	C8H9+
107.0855	2	C8H11+
109.1009	3	C8H13+
123.0804	5	C8H11O+
179.0728	5	C13H9N+
180.0806	187	C13H10N+
181.0885	58	C13H11N+
183.0676	13	C12H9NO+
194.0966	5	C14H12N+
196.0753	3	C13H10NO+
207.0674	2	C14H9NO+
208.0758	198	C14H10NO+
209.0835	999	C14H11NO+
222.0913	24	C15H12NO+
223.0996	24	C15H13NO+
224.1069	372	C15H14NO+
