Mass spectrum: SMZ-PtO; LC-ESI-QFT; MS2; CE: 75%; R=17500; [M+H]+
Name: SMZ-PtO
Formula: C17H15N7O5S
Exact mass: 429.0855
SMILES: CC1=CC(NS(=O)(C2=CC=C(NCC3=NC(C(NC(O)=N4)=O)=C4N=C3)C=C2)=O)=NO1
InChI: InChI=1S/C17H15N7O5S/c1-9-6-13(23-29-9)24-30(27,28)12-4-2-10(3-5-12)18-7-11-8-19-15-14(20-11)16(25)22-17(26)21-15/h2-6,8,18H,7H2,1H3,(H,23,24)(H2,19,21,22,25,26)
Instrument: Q-Exactive + Thermo Scientific
Instrument type: LC-ESI-QFT
Ms type: MS2
Ion mode: POSITIVE
Ionization: ESI
Fragmentation mode: HCD
Collision energy: 75 % (nominal)
Resolution: 17500
Column name: Atlantis T3 3um, 3.0x150mm, Waters
Retention time: 16.782 min
Base peak: 164.9847
Precursor m/z: 430.0928
Precursor type: [M+H]+
m/z	relative intensity	assigned
52.0182	4	C3H2N+
53.0134	3	C2HN2+
53.0385	4	C4H5+
54.0339	9	C3H4N+
55.0178	2	C3H3O+
65.0386	20	C5H5+
68.0496	2	C4H6N+
70.065	2	C4H8N+
77.0386	2	C6H5+
78.0464	2	C6H6+
79.0291	178	C4H3N2+
79.0542	19	C6H7+
80.037	9	C4H4N2+
80.0495	25	C5H6N+
81.0446	3	C4H5N2+
87.0443	2	C4H7O2+
88.0759	2	C4H10NO+
89.0386	2	C7H5+
91.0542	3	C7H7+
92.0494	34	C6H6N+
93.0084	3	C4HN2O+
93.0573	29	C6H7N+
94.0398	17	C4H4N3+
96.0556	19	C4H6N3+
97.0397	43	C4H5N2O+
99.0552	18	C4H7N2O+
104.0495	27	C7H6N+
105.0323	2	C5H3N3+
105.0448	12	C6H5N2+
106.04	999	C5H4N3+
106.0651	352	C7H8N+
107.0478	97	C5H5N3+
108.0444	143	C6H6NO+
108.0556	298	C5H6N3+
110.0599	5	C6H8NO+
116.0496	34	C8H6N+
117.0578	3	C8H7N+
118.0648	3	C8H8N+
119.0605	4	C7H7N2+
120.0189	4	C5H2N3O+
121.0507	3	C5H5N4+
122.0348	18	C5H4N3O+
124.0506	863	C5H6N3O+
125.0583	12	C5H7N3O+
128.0494	25	C9H6N+
129.0448	4	C8H5N2+
131.048	2	CH11N2O3S+
131.0599	4	C8H7N2+
132.0443	3	C8H6NO+
134.0603	17	C8H8NO+
135.0425	15	C6H5N3O+
138.0296	8	C5H4N3O2+
138.0662	28	C6H8N3O+
139.0378	19	C5H5N3O2+
141.0447	21	C9H5N2+
142.053	9	C9H6N2+
143.0605	120	C9H7N2+
144.0447	3	C9H6NO+
144.0557	8	C8H6N3+
144.0683	2	C9H8N2+
145.0763	9	C9H9N2+
146.0604	8	C9H8NO+
146.0713	25	C8H8N3+
147.0795	8	C8H9N3+
151.0379	13	C6H5N3O2+
153.0427	22	H7N7OS+
153.0559	18	CH9N6OS+
155.0604	103	C10H7N2+
156.0558	21	C9H6N3+
156.0686	23	C4H14NO3S+
157.064	4	C3H13N2O3S+
158.0713	4	C9H8N3+
159.0434	4	C2H11N2O4S+
159.0554	14	C3H13NO4S+
159.0792	14	C9H9N3+
161.0709	10	C9H9N2O+
165.0414	2	H11N3O5S+
167.0479	2	C10H5N3+
168.0557	195	C10H6N3+
169.051	3	C9H5N4+
169.0637	11	C10H7N3+
170.0713	209	C10H8N3+
171.0552	50	C2H11N4O3S+
171.0672	21	C3H13N3O3S+
172.0504	4	C9H6N3O+
173.0714	4	C10H9N2O+
174.0662	12	C3H14N2O4S+
177.0408	168	C7H5N4O2+
178.0486	530	C7H6N4O2+
179.0325	35	C7H5N3O3+
180.0559	40	C11H6N3+
181.0357	5	C6H5N4O3+
181.0633	8	C5H13N2O3S+
182.0204	2	C7N7+
182.0588	8	C2H10N6O2S+
182.0719	8	C5H14N2O3S+
183.0796	2	C5H15N2O3S+
186.0665	26	C10H8N3O+
187.0614	11	C9H7N4O+
194.0584	3	C11H6N4+
195.0512	133	C7H7N4O3+
195.0671	59	C5H13N3O3S+
196.0506	31	C3H10N5O3S+
196.0739	3	C3H12N6O2S+
197.0457	11	C2H9N6O3S+
197.0824	44	C11H9N4+
198.0666	28	C11H8N3O+
202.048	4	CH10N6O4S+
209.0672	8	C8H9N4O3+
210.0532	8	C3H10N6O3S+
211.0621	4	C5H13N3O4S+
213.0412	4	C4H11N3O5S+
213.0769	17	C11H9N4O+
214.061	22	C5H14N2O5S+
223.0613	17	C12H7N4O+
224.0469	2	C6H12N2O5S+
224.0694	3	C4H12N6O3S+
225.0786	24	C6H15N3O4S+
238.0716	2	C4H12N7O3S+
239.058	2	C6H13N3O5S+
240.0639	9	C12H8N4O2+
241.0722	22	C12H9N4O2+
242.0561	9	C12H8N3O3+
253.0595	3	C12H7N5O2+
266.0683	3	C15H10N2O3+
267.0755	17	C7H15N4O5S+
268.083	27	C13H10N5O2+
