Mass spectrum: 1H-Benzotriazole TP20 (Tentative); LC-ESI-ITFT; MS2; 80-110; R=7500; [M+H]+
Name: 1H-Benzotriazole TP20 (Tentative)
Name: 1H-Benzotriazole Transformation Product 20 (TP20)
Formula: C6H5N3O4
Exact mass: 183.0280
Instrument: LTQ Orbitrap XL Thermo Scientific
Instrument type: LC-ESI-ITFT
Ms type: MS2
Ion mode: POSITIVE
Ionization: ESI
Fragmentation mode: HCD
Collision energy: scaled 80 (m/z=200) to 110 (m/z=120)
Resolution: 7500
Column name: Atlantis T3 3um, 3.0x150mm, Waters
Retention time: 14.8 min
Base peak: 184.0345
Precursor m/z: 184.0345
Precursor type: [M+H]+
m/z	relative intensity
53.1045	15
54.033	450
55.0171	112
59.0546	15
64.0173	313
65.0598	35
66.033	604
67.0171	295
68.0123	200
68.9963	999
69.9916	33
80.0123	146
82.0278	39
84.0586	16
92.0124	307
92.9962	41
95.012	52
98.0228	49
110.0232	64
120.0078	33
