Mass spectrum: SMZ-AcOH; LC-ESI-QFT; MS2; CE: 30%; R=17500; [M+H]+
Name: SMZ-AcOH
Formula: C12H13N3O5S
Exact mass: 311.0576
Instrument: Q-Exactive + Thermo Scientific
Instrument type: LC-ESI-QFT
Ms type: MS2
Ion mode: POSITIVE
Ionization: ESI
Fragmentation mode: HCD
Collision energy: 30 % (nominal)
Resolution: 17500
Column name: Atlantis T3 3um, 3.0x150mm, Waters
Retention time: 16.844 min
Base peak: 278.2115
Precursor m/z: 312.0649
Precursor type: [M+H]+
m/z	relative intensity	assigned
59.0491	73	C3H7O+
80.0495	8	C5H6N+
87.0442	43	C4H7O2+
88.0755	4	C4H10NO+
89.0597	337	C4H9O2+
90.055	23	C3H8NO2+
95.0127	7	C5H3O2+
99.0553	108	C4H7N2O+
101.0597	90	C5H9O2+
103.0753	35	C5H11O2+
104.0494	7	C7H6N+
104.0705	38	C4H10NO2+
106.0651	192	C7H8N+
107.0704	3	C4H11O3+
108.0444	166	C6H6NO+
109.052	5	C6H7NO+
118.0865	3	C5H12NO2+
119.0604	16	C7H7N2+
120.0441	12	C7H6NO+
122.0602	40	C7H8NO+
133.0859	84	C6H13O3+
134.0893	58	CH14N2O5+
136.0394	49	C7H6NO2+
137.0462	3	C5H5N4O+
146.0714	33	C8H8N3+
147.0792	38	C8H9N3+
148.1047	14	H14N5O4+
150.055	275	C8H8NO2+
151.0628	655	C8H9NO2+
152.0707	48	C8H10NO2+
159.0787	26	C9H9N3+
160.0871	31	C9H10N3+
161.0014	18	C4H5N2O3S+
163.1112	15	C9H13N3+
166.05	501	C8H8NO3+
168.0118	4	C7H6NO2S+
168.0656	4	C8H10NO3+
172.0866	31	C10H10N3+
174.0663	29	C9H8N3O+
174.0791	5	C10H10N2O+
179.1062	14	C9H13N3O+
186.022	16	C7H8NO3S+
189.0897	147	C10H11N3O+
193.0297	5	C8H7N3OS+
200.0823	4	C11H10N3O+
202.0975	79	C11H12N3O+
205.0857	14	C12H13O3+
206.0384	18	C9H8N3OS+
206.0917	3	C10H12N3O2+
214.0169	999	C8H8NO4S+
218.0923	39	C11H12N3O2+
246.0873	172	C12H12N3O3+
248.1022	5	C12H14N3O3+
266.0588	16	C11H12N3O3S+
312.0646	209	C12H14N3O5S+
