Mass spectrum: MPL-dm; LC-ESI-QFT; MS2; CE: 180%; R=17500; [M+H]+
Name: MPL-dm
Name: O-Demethylmetoprolol
Name: 1-[4-(2-hydroxyethyl)phenoxy]-3-(propan-2-ylamino)propan-2-ol
Formula: C14H23NO3
Exact mass: 253.1678
SMILES: CC(NCC(O)COC1=CC=C(CCO)C=C1)C
InChI: InChI=1S/C14H23NO3/c1-11(2)15-9-13(17)10-18-14-5-3-12(4-6-14)7-8-16/h3-6,11,13,15-17H,7-10H2,1-2H3
Instrument: Q-Exactive Thermo Scientific
Instrument type: LC-ESI-QFT
Ms type: MS2
Ion mode: POSITIVE
Ionization: ESI
Fragmentation mode: HCD
Collision energy: 180 % (nominal)
Resolution: 17500
Column name: Atlantis T3 3um, 3.0x150mm, Waters
Retention time: 10.489 min
Base peak: 250.2013
Precursor m/z: 254.1751
Precursor type: [M+H]+
m/z	relative intensity	assigned
50.0152	243	C4H2+
51.023	325	C4H3+
53.0024	19	C3HO+
53.0387	35	C4H5+
56.0494	70	C3H6N+
58.0651	65	C3H8N+
63.0228	91	C5H3+
65.0385	506	C5H5+
67.0542	17	C5H7+
75.0226	32	C6H3+
77.0384	478	C6H5+
78.0462	34	C6H6+
79.0541	35	C6H7+
89.0386	146	C7H5+
91.0543	328	C7H7+
95.0492	999	C6H7O+
102.0463	92	C8H6+
103.0545	18	C8H7+
105.0448	384	C6H5N2+
115.0542	268	C9H7+
128.062	29	C10H8+
155.0607	15	C10H7N2+
