Mass spectrum: SMZ-PtO; LC-ESI-QFT; MS2; CE: 75%; R=17500; [M-H]-
Name: SMZ-PtO
Formula: C17H15N7O5S
Exact mass: 429.0855
SMILES: CC1=CC(NS(=O)(C2=CC=C(NCC3=NC(C(NC(O)=N4)=O)=C4N=C3)C=C2)=O)=NO1
InChI: InChI=1S/C17H15N7O5S/c1-9-6-13(23-29-9)24-30(27,28)12-4-2-10(3-5-12)18-7-11-8-19-15-14(20-11)16(25)22-17(26)21-15/h2-6,8,18H,7H2,1H3,(H,23,24)(H2,19,21,22,25,26)
Instrument: Q-Exactive + Thermo Scientific
Instrument type: LC-ESI-QFT
Ms type: MS2
Ion mode: NEGATIVE
Ionization: ESI
Fragmentation mode: HCD
Collision energy: 75 % (nominal)
Resolution: 17500
Column name: Atlantis T3 3um, 3.0x150mm, Waters
Retention time: 16.803 min
Base peak: 91.0036
Precursor m/z: 428.0783
Precursor type: [M-H]-
m/z	relative intensity	assigned
63.9625	94	O2S-
65.0145	4	C3HN2-
65.9984	6	C3NO-
77.0146	5	C4HN2-
77.9656	16	NO2S-
82.0299	60	C4H4NO-
91.0428	66	C6H5N-
92.0506	254	C6H6N-
96.0328	19	C4H4N2O-
105.0332	20	C5H3N3-
107.0377	194	C6H5NO-
111.0069	3	C3HN3O2-
117.0457	20	C7H5N2-
119.0614	4	C7H7N2-
120.0202	16	C5H2N3O-
131.0488	14	C7H5N3-
132.0203	7	C6H2N3O-
132.044	8	C6H4N4-
133.0283	104	C6H3N3O-
134.036	6	C6H4N3O-
144.0562	4	H10N5O2S-
145.0642	14	C8H7N3-
146.0721	5	C8H8N3-
148.0386	4	C6H4N4O-
155.0046	15	C6H5NO2S-
156.0126	21	C6H6NO2S-
161.0717	3	C9H9N2O-
163.0265	5	H9N3O5S-
175.026	8	C7H3N4O2-
176.0339	999	C7H4N4O2-
177.0412	8	C7H5N4O2-
187.0744	4	C2H13N5O3S-
195.0686	5	C5H13N3O3S-
208.024	33	C7H4N4O4-
224.0716	3	C6H14N3O4S-
267.0775	4	C13H9N5O2-
