Mass spectrum: 5-Methyl-1H-Benzotriazole TP42 (Tentative); LC-ESI-ITFT; MS2; 80-110; R=7500; [M+H]+
Name: 5-Methyl-1H-Benzotriazole TP42 (Tentative)
Name: 5-Methyl-1H-Benzotriazole Transformation Product 42 (TP42)
Name: 5-Methylbenzotriazole TP42
Formula: C9H9N3O2
Exact mass: 191.0695
Instrument: LTQ Orbitrap XL Thermo Scientific
Instrument type: LC-ESI-ITFT
Ms type: MS2
Ion mode: POSITIVE
Ionization: ESI
Fragmentation mode: HCD
Collision energy: scaled 80 (m/z=200) to 110 (m/z=120)
Resolution: 7500
Column name: Atlantis T3 3um, 3.0x150mm, Waters
Retention time: 22.9 min
Base peak: 192.0757
Precursor m/z: 192.0757
Precursor type: [M+H]+
m/z	relative intensity
65.0377	158
91.0534	999
102.129	77
116.0481	86
120.1414	35
