Mass spectrum: MPL-dm; LC-ESI-QFT; MS2; CE: 120%; R=17500; [M+H]+
Name: MPL-dm
Name: O-Demethylmetoprolol
Name: 1-[4-(2-hydroxyethyl)phenoxy]-3-(propan-2-ylamino)propan-2-ol
Formula: C14H23NO3
Exact mass: 253.1678
SMILES: CC(NCC(O)COC1=CC=C(CCO)C=C1)C
InChI: InChI=1S/C14H23NO3/c1-11(2)15-9-13(17)10-18-14-5-3-12(4-6-14)7-8-16/h3-6,11,13,15-17H,7-10H2,1-2H3
Instrument: Q-Exactive Thermo Scientific
Instrument type: LC-ESI-QFT
Ms type: MS2
Ion mode: POSITIVE
Ionization: ESI
Fragmentation mode: HCD
Collision energy: 120 % (nominal)
Resolution: 17500
Column name: Atlantis T3 3um, 3.0x150mm, Waters
Retention time: 10.489 min
Base peak: 250.2013
Precursor m/z: 254.1751
Precursor type: [M+H]+
m/z	relative intensity	assigned
50.0152	10	C4H2+
51.023	38	C4H3+
53.0385	47	C4H5+
55.018	14	C3H3O+
56.0495	202	C3H6N+
58.0652	78	C3H8N+
65.0385	141	C5H5+
67.0541	6	C5H7+
72.0807	10	C4H10N+
74.0598	36	C3H8NO+
77.0385	272	C6H5+
78.0462	31	C6H6+
79.0499	10	CH7N2O2+
79.0541	200	C6H7+
81.0334	8	C5H5O+
89.0387	10	C7H5+
91.0542	691	C7H7+
93.0698	16	C7H9+
95.0491	999	C6H7O+
102.0464	31	C8H6+
103.0542	292	C8H7+
105.0447	358	C6H5N2+
105.0697	38	C8H9+
107.0492	25	C7H7O+
115.0542	185	C9H7+
116.0621	71	C9H8+
121.0647	14	C8H9O+
128.0617	30	C10H8+
129.0694	7	C10H9+
131.0498	9	C9H7O+
144.057	38	C10H8O+
