Mass spectrum: SMZ-AcOH; LC-ESI-QFT; MS2; CE: 180%; R=17500; [M+H]+
Name: SMZ-AcOH
Formula: C12H13N3O5S
Exact mass: 311.0576
Instrument: Q-Exactive + Thermo Scientific
Instrument type: LC-ESI-QFT
Ms type: MS2
Ion mode: POSITIVE
Ionization: ESI
Fragmentation mode: HCD
Collision energy: 180 % (nominal)
Resolution: 17500
Column name: Atlantis T3 3um, 3.0x150mm, Waters
Retention time: 16.844 min
Base peak: 278.2115
Precursor m/z: 312.0649
Precursor type: [M+H]+
m/z	relative intensity	assigned
50.0151	626	C4H2+
51.0229	912	C4H3+
52.0181	28	C3H2N+
52.0307	101	C4H4+
53.0022	123	C3HO+
53.0386	184	C4H5+
53.9973	13	C2NO+
55.0179	22	C3H3O+
63.0229	409	C5H3+
64.0182	30	C4H2N+
64.0307	88	C5H4+
65.0386	999	C5H5+
66.0338	27	C4H4N+
66.0464	75	C5H6+
75.0228	20	C6H3+
76.0307	263	C6H4+
77.0386	271	C6H5+
78.034	129	C5H4N+
78.0463	121	C6H6+
79.0417	15	C5H5N+
79.0543	32	C6H7+
80.0495	15	C5H6N+
81.0335	61	C5H5O+
91.0415	25	C6H5N+
91.0541	14	C7H7+
92.0495	179	C6H6N+
95.0492	420	C6H7O+
96.0443	54	C5H6NO+
104.0495	170	C7H6N+
105.0448	205	C6H5N2+
106.0654	26	C7H8N+
