Mass spectrum: CBDZ-M; LC-ESI-QFT; MS2; CE: 45%; R=17500; [M+H]+
Name: CBDZ-M
Name: Lobendazole
Name: ethyl N-(1H-benzimidazol-2-yl)carbamate
Formula: C10H11N3O2
Exact mass: 205.0851
SMILES: O=C(NC1=NC2=CC=CC=C2N1)OCC
InChI: InChI=1S/C10H11N3O2/c1-2-15-10(14)13-9-11-7-5-3-4-6-8(7)12-9/h3-6H,2H2,1H3,(H2,11,12,13,14)
Instrument: Q-Exactive + Thermo Scientific
Instrument type: LC-ESI-QFT
Ms type: MS2
Ion mode: POSITIVE
Ionization: ESI
Fragmentation mode: HCD
Collision energy: 45 % (nominal)
Resolution: 17500
Column name: Atlantis T3 3um, 3.0x150mm, Waters
Retention time: 15.185 min
Base peak: 268.1907
Precursor m/z: 206.0924
Precursor type: [M+H]+
m/z	relative intensity	assigned
56.0494	1	C3H6N+
57.07	1	C4H9+
59.0491	2	C3H7O+
74.0598	2	C3H8NO+
88.0391	1	C3H6NO2+
88.0758	1	C4H10NO+
115.0753	8	C6H11O2+
122.0812	1	C4H12NO3+
133.0636	9	C7H7N3+
134.0713	810	C7H8N3+
149.0233	2	C8H5O3+
160.0506	999	C8H6N3O+
162.1024	10	C9H12N3+
178.0611	701	C8H8N3O2+
206.0926	81	C10H12N3O2+
