Mass spectrum: FLE_n_362.04655_19.2; LC-ESI-QFT; MS2; CE: 15%; R=17500; [M+HCOO-]-
Name: FLE_n_362.04655_19.2
Name: 2,5-bis(2,2,2-trifluoroethoxy)benzamide
Class: identified ozonation transformation product
Formula: C11H9F6NO3
Exact mass: 317.0487
SMILES: FC(F)(COC1=CC(C(N)=O)=C(C=C1)OCC(F)(F)F)F
InChI: InChI=1S/C11H9F6NO3/c12-10(13,14)4-20-6-1-2-8(7(3-6)9(18)19)21-5-11(15,16)17/h1-3H,4-5H2,(H2,18,19)
Instrument: Q Exactive Plus Orbitrap Thermo Scientific
Instrument type: LC-ESI-QFT
Ms type: MS2
Ion mode: NEGATIVE
Ionization: ESI
Fragmentation mode: HCD
Collision energy: 15 % (nominal)
Resolution: 17500
Column name: C18 Atlantis T3 5 um, 3x150 mm, Waters
Retention time: 19.224 min
Base peak: 91.0038
Precursor m/z: 362.0469
Precursor type: [M+HCOO]-
Precursor intensity: 2525717.5
m/z	relative intensity	assigned
61.9882	70	NO3-
178.0314	36	C9H5FNO2-
227.0201	381	C10H4F3NO2-
228.0282	105	C10H5F3NO2-
256.0229	170	C11H5F3NO3-
276.0292	202	C11H6F4NO3-
296.035	422	C11H7F5NO3-
316.0415	999	C11H8F6NO3-
362.2349	37	
