Mass spectrum: NP1EC (TENTATIVE); LC-ESI-ITFT; MS2; HCD60; [M-H]-
Name: NP1EC (TENTATIVE)
Name: NPEC1
Name: Nonylphenyl-monoethoxylate-carboxylic acid
Name: (4-nonylphenoxy)acetic acid
Formula: C17H26O3
Exact mass: 278.1882
SMILES: O=C(O)COc1ccc(cc1)CCCCCCCCC
InChI: InChI=1S/C17H26O3/c1-2-3-4-5-6-7-8-9-15-10-12-16(13-11-15)20-14-17(18)19/h10-13H,2-9,14H2,1H3,(H,18,19)
Instrument: LTQ Orbitrap XL Thermo Scientific
Instrument type: LC-ESI-ITFT
Ms type: MS2
Ion mode: NEGATIVE
Ionization: ESI
Fragmentation mode: HCD
Collision energy: 60 NCE
Base peak: 277.1798
Precursor m/z: 277.1798
Precursor type: [M-H]-
m/z	relative intensity
66.0942	5
97.2706	5
147.0815	7
161.0972	8
175.1118	4
219.1747	999
233.1903	14
277.1486	7
277.1798	27
