Mass spectrum: CBDZ-M; LC-ESI-QFT; MS2; CE: 150%; R=17500; [M+H]+
Name: CBDZ-M
Name: Lobendazole
Name: ethyl N-(1H-benzimidazol-2-yl)carbamate
Formula: C10H11N3O2
Exact mass: 205.0851
SMILES: O=C(NC1=NC2=CC=CC=C2N1)OCC
InChI: InChI=1S/C10H11N3O2/c1-2-15-10(14)13-9-11-7-5-3-4-6-8(7)12-9/h3-6H,2H2,1H3,(H2,11,12,13,14)
Instrument: Q-Exactive + Thermo Scientific
Instrument type: LC-ESI-QFT
Ms type: MS2
Ion mode: POSITIVE
Ionization: ESI
Fragmentation mode: HCD
Collision energy: 150 % (nominal)
Resolution: 17500
Column name: Atlantis T3 3um, 3.0x150mm, Waters
Retention time: 15.185 min
Base peak: 268.1907
Precursor m/z: 206.0924
Precursor type: [M+H]+
m/z	relative intensity	assigned
50.015	4	C4H2+
51.0229	17	C4H3+
53.0021	12	C3HO+
53.0385	20	C4H5+
53.9973	2	C2NO+
63.0229	37	C5H3+
64.0182	18	C4H2N+
65.0386	999	C5H5+
66.0464	29	C5H6+
67.0418	2	C4H5N+
78.0338	44	C5H4N+
79.0418	21	C5H5N+
80.0494	170	C5H6N+
81.0335	20	C5H5O+
90.0338	155	C6H4N+
91.0417	12	C6H5N+
92.0495	306	C6H6N+
93.0573	138	C6H7N+
96.0444	12	C5H6NO+
105.0447	214	C6H5N2+
106.0526	22	C6H6N2+
107.0604	49	C6H7N2+
108.0447	4	C6H6NO+
110.0605	3	C6H8NO+
117.0448	10	C7H5N2+
118.0526	5	C7H6N2+
132.0556	40	C7H6N3+
133.0635	27	C7H7N3+
134.0712	54	C7H8N3+
135.0554	21	C7H7N2O+
160.0509	11	C8H6N3O+
