Mass spectrum: C10-DATS (TENTATIVE); LC-ESI-ITFT; MS2; HCD60; [M-H]-
Name: C10-DATS (TENTATIVE)
Name: C10-Dialkyl tetralin sulfonate
Name: 8-butyl-5-ethyl-5,6,7,8-tetrahydronaphthalene-2-sulfonic acid
Name: 8-butyl-5-ethyl-tetralin sulfonate
Formula: C16H24O3S
Exact mass: 296.1446
SMILES: O=S(=O)(O)c1ccc2c(c1)C(CCC2CC)CCCC
InChI: InChI=1S/C16H24O3S/c1-3-5-6-13-8-7-12(4-2)15-10-9-14(11-16(13)15)20(17,18)19/h9-13H,3-8H2,1-2H3,(H,17,18,19)
Instrument: LTQ Orbitrap XL Thermo Scientific
Instrument type: LC-ESI-ITFT
Ms type: MS2
Ion mode: NEGATIVE
Ionization: ESI
Fragmentation mode: HCD
Collision energy: 60 NCE
Base peak: 295.1363
Precursor m/z: 295.1363
Precursor type: [M-H]-
m/z	relative intensity
50.3276	1
61.4246	1
90.2869	3
183.0123	2
209.0262	4
210.0356	11
223.0422	3
237.0553	3
238.0663	4
242.0221	1
251.0753	1
252.0824	4
277.2168	2
295.1363	999
296.1398	3
