Mass spectrum: ALI_n_241.1556_15.2; LC-ESI-QFT; MS2; CE: 60%; R=17500; [M-H]-
Name: ALI_n_241.1556_15.2
Name: Aliskiren -C18H31NO3
Name: didehydrogenated N-(3-amino-2,2-dimethyl-3-oxopropyl)-4-hydroxy-2-isopropylbutanamide
Class: identified ozonation transformation product
Formula: C12H22N2O3
Exact mass: 242.1630
Instrument: Q Exactive Plus Orbitrap Thermo Scientific
Instrument type: LC-ESI-QFT
Ms type: MS2
Ion mode: NEGATIVE
Ionization: ESI
Fragmentation mode: HCD
Collision energy: 60 % (nominal)
Resolution: 17500
Column name: C18 Atlantis T3 5 um, 3x150 mm, Waters
Retention time: 15.209 min
Base peak: 91.0038
Precursor m/z: 241.1558
Precursor type: [M-H]-
Precursor intensity: 478326.375
m/z	relative intensity	assigned
57.0346	847	C3H5O-
68.0361	209	H6NO3-
84.0455	195	C4H6NO-
86.0612	970	C4H8NO-
94.0663	132	C6H8N-
97.0659	201	C6H9O-
99.0815	150	C6H11O-
114.0923	64	C6H12NO-
115.0877	464	C5H11N2O-
124.0768	955	C7H10NO-
125.0607	187	C7H9O2-
140.0718	999	C7H10NO2-
168.1391	79	C10H18NO-
178.0746	165	C9H10N2O2-
180.0907	65	C9H12N2O2-
195.1501	855	C11H19N2O-
196.1346	70	C11H18NO2-
221.1295	206	C12H17N2O2-
223.1454	803	C12H19N2O2-
241.1554	89	C12H21N2O3-
