Mass spectrum: BEZ-da; LC-ESI-QFT; MS2; CE: 90%; R=17500; [M+H]+
Name: BEZ-da
Name: 4-chloro-N-[2-(4-hydroxyphenyl)ethyl]benzamide
Formula: C15H14ClNO2
Exact mass: 275.0713
SMILES: OC1=CC=C(CCNC(C2=CC=C(Cl)C=C2)=O)C=C1
InChI: InChI=1S/C15H14ClNO2/c16-13-5-3-12(4-6-13)15(19)17-10-9-11-1-7-14(18)8-2-11/h1-8,18H,9-10H2,(H,17,19)
Instrument: Q-Exactive + Thermo Scientific
Instrument type: LC-ESI-QFT
Ms type: MS2
Ion mode: POSITIVE
Ionization: ESI
Fragmentation mode: HCD
Collision energy: 90 % (nominal)
Resolution: 17500
Column name: Atlantis T3 3um, 3.0x150mm, Waters
Retention time: 20.870 min
Base peak: 304.2847
Precursor m/z: 276.0786
Precursor type: [M+H]+
m/z	relative intensity	assigned
51.0229	151	C4H3+
53.002	33	C3HO+
53.0386	323	C4H5+
55.0178	92	C3H3O+
55.0543	156	C4H7+
56.0495	25	C3H6N+
57.0699	273	C4H9+
58.0651	44	C3H8N+
59.0492	62	C3H7O+
60.0445	21	C2H6NO+
65.0384	42	C5H5+
67.0541	109	C5H7+
68.0498	18	C4H6N+
69.0698	25	C5H9+
70.0651	229	C4H8N+
72.0809	187	C4H10N+
74.0601	30	C3H8NO+
75.0228	105	C6H3+
77.0386	150	C6H5+
79.0178	26	C5H3O+
79.0542	91	C6H7+
81.0332	21	C5H5O+
81.0699	94	C6H9+
83.0492	18	C5H7O+
86.9996	118	C4H4Cl+
88.0755	78	C4H10NO+
91.0542	839	C7H7+
93.07	308	C7H9+
95.0491	732	C6H7O+
102.0913	30	C5H12NO+
103.0542	888	C8H7+
105.0447	447	C6H5N2+
105.0698	24	C8H9+
110.9995	31	C6H4Cl+
111.0443	34	C3H10ClNO+
111.0803	25	C7H11O+
114.9951	18	C5H4ClO+
121.0647	274	C8H9O+
129.0101	312	C6H6ClO+
138.9946	467	C7H4ClO+
139.0059	999	C9HNO+
200.0011	20	C10H3ClN3+
