Mass spectrum: MEF-Glu; LC-ESI-QFT; MS2; CE: 60%; R=17500; [M+H]+
Name: MEF-Glu
Formula: C20H22N2O5
Exact mass: 370.1529
SMILES: O=C(CCC(NC(C1=C(C=CC=C1)NC2=CC=CC(C)=C2C)=O)C(O)=O)O
InChI: InChI=1S/C20H22N2O5/c1-12-6-5-9-15(13(12)2)21-16-8-4-3-7-14(16)19(25)22-17(20(26)27)10-11-18(23)24/h3-9,17,21H,10-11H2,1-2H3,(H,22,25)(H,23,24)(H,26,27)
Instrument: Q-Exactive + Thermo Scientific
Instrument type: LC-ESI-QFT
Ms type: MS2
Ion mode: POSITIVE
Ionization: ESI
Fragmentation mode: HCD
Collision energy: 60 % (nominal)
Resolution: 17500
Column name: Atlantis T3 3um, 3.0x150mm, Waters
Retention time: 22.708 min
Base peak: 295.1903
Precursor m/z: 371.1601
Precursor type: [M+H]+
m/z	relative intensity	assigned
57.0699	37	C4H9+
59.0491	2	C3H7O+
67.0539	4	C5H7+
69.0696	4	C5H9+
70.0649	2	C4H8N+
71.0853	4	C5H11+
79.054	3	C6H7+
81.0696	13	C6H9+
83.0489	11	C5H7O+
83.0854	3	C6H11+
93.0696	3	C7H9+
95.0853	4	C7H11+
101.0594	7	C5H9O2+
105.0697	3	C8H9+
107.0853	8	C8H11+
107.1152	2	CH17NO4+
109.1007	8	C8H13+
119.0852	4	C9H11+
123.0802	3	C8H11O+
131.0857	1	C10H11+
180.0803	21	C13H10N+
181.0884	14	C13H11N+
183.067	2	C12H9NO+
195.0686	2	C13H9NO+
196.0757	3	C13H10NO+
199.0343	2	C7H7N2O5+
207.0675	2	C14H9NO+
208.0761	29	C14H10NO+
209.0835	518	C14H11NO+
222.0912	17	C15H12NO+
223.0978	13	C13H11N4+
224.1069	999	C15H14NO+
