Mass spectrum: 1-Methylbenzotriazole; LC-ESI-ITFT; MS2; 80-110; R=7500; [M+H]+
Name: 1-Methylbenzotriazole
Name: 1-Methyl-1H-benzotriazole
Formula: C7H7N3
Exact mass: 133.0640
SMILES: CN1C2=CC=CC=C2N=N1
InChI: InChI=1S/C7H7N3/c1-10-7-5-3-2-4-6(7)8-9-10/h2-5H,1H3
Instrument: LTQ Orbitrap XL Thermo Scientific
Instrument type: LC-ESI-ITFT
Ms type: MS2
Ion mode: POSITIVE
Ionization: ESI
Fragmentation mode: HCD
Collision energy: scaled 80 (m/z=200) to 110 (m/z=120)
Resolution: 7500
Column name: Atlantis T3 3um, 3.0x150mm, Waters
Retention time: 20.1 min
Base peak: 134.0706
Precursor m/z: 134.0706
Precursor type: [M+H]+
m/z	relative intensity
51.0221	21
53.0378	274
55.017	19
63.0221	22
64.03	21
65.0377	92
65.0601	13
77.0378	544
78.033	20
78.0456	188
79.0534	356
80.0486	14
81.0327	60
91.0409	703
95.0484	108
104.0486	24
105.044	369
105.0565	21
106.0644	325
134.0706	999
