Mass spectrum: BEZ-da; LC-ESI-QFT; MS2; CE: 30%; R=17500; [M+H]+
Name: BEZ-da
Name: 4-chloro-N-[2-(4-hydroxyphenyl)ethyl]benzamide
Formula: C15H14ClNO2
Exact mass: 275.0713
SMILES: OC1=CC=C(CCNC(C2=CC=C(Cl)C=C2)=O)C=C1
InChI: InChI=1S/C15H14ClNO2/c16-13-5-3-12(4-6-13)15(19)17-10-9-11-1-7-14(18)8-2-11/h1-8,18H,9-10H2,(H,17,19)
Instrument: Q-Exactive + Thermo Scientific
Instrument type: LC-ESI-QFT
Ms type: MS2
Ion mode: POSITIVE
Ionization: ESI
Fragmentation mode: HCD
Collision energy: 30 % (nominal)
Resolution: 17500
Column name: Atlantis T3 3um, 3.0x150mm, Waters
Retention time: 20.870 min
Base peak: 304.2847
Precursor m/z: 276.0786
Precursor type: [M+H]+
m/z	relative intensity	assigned
57.07	9	C4H9+
62.0601	24	C2H8NO+
70.0652	7	C4H8N+
71.0857	6	C5H11+
74.0601	6	C3H8NO+
81.0697	5	C6H9+
88.0759	7	C4H10NO+
91.0538	5	C7H7+
93.0698	20	C7H9+
95.0858	7	C7H11+
102.0911	6	C5H12NO+
106.0863	17	C4H12NO2+
113.0596	5	C6H9O2+
121.0648	647	C8H9O+
123.1169	29	C9H15+
125.0958	4	C8H13O+
136.0756	7	C8H10NO+
138.9946	999	C7H4ClO+
155.1068	47	C9H15O2+
157.0858	6	C8H13O3+
215.1071	6	C14H15O2+
244.0715	8	C12H10N3O3+
