Mass spectrum: MEF-Glu; LC-ESI-QFT; MS2; CE: 75%; R=17500; [M-H]-
Name: MEF-Glu
Formula: C20H22N2O5
Exact mass: 370.1529
SMILES: O=C(CCC(NC(C1=C(C=CC=C1)NC2=CC=CC(C)=C2C)=O)C(O)=O)O
InChI: InChI=1S/C20H22N2O5/c1-12-6-5-9-15(13(12)2)21-16-8-4-3-7-14(16)19(25)22-17(20(26)27)10-11-18(23)24/h3-9,17,21H,10-11H2,1-2H3,(H,22,25)(H,23,24)(H,26,27)
Instrument: Q-Exactive + Thermo Scientific
Instrument type: LC-ESI-QFT
Ms type: MS2
Ion mode: NEGATIVE
Ionization: ESI
Fragmentation mode: HCD
Collision energy: 75 % (nominal)
Resolution: 17500
Column name: Atlantis T3 3um, 3.0x150mm, Waters
Retention time: 22.730 min
Base peak: 293.1757
Precursor m/z: 369.1456
Precursor type: [M-H]-
m/z	relative intensity	assigned
59.0138	148	C2H3O2-
84.0454	287	C4H6NO-
91.9751	82	CO5-
92.0507	360	C6H6N-
128.0355	126	C5H6NO3-
179.087	88	C14H11-
180.0823	433	C13H10N-
192.0818	399	C14H10N-
194.0972	472	C14H12N-
196.1129	999	C14H14N-
221.1092	168	C15H13N2-
