Mass spectrum: SMZ-AcOH; LC-ESI-QFT; MS2; CE: 150%; R=17500; [M+H]+
Name: SMZ-AcOH
Formula: C12H13N3O5S
Exact mass: 311.0576
Instrument: Q-Exactive + Thermo Scientific
Instrument type: LC-ESI-QFT
Ms type: MS2
Ion mode: POSITIVE
Ionization: ESI
Fragmentation mode: HCD
Collision energy: 150 % (nominal)
Resolution: 17500
Column name: Atlantis T3 3um, 3.0x150mm, Waters
Retention time: 16.844 min
Base peak: 278.2115
Precursor m/z: 312.0649
Precursor type: [M+H]+
m/z	relative intensity	assigned
50.0151	143	C4H2+
51.0229	370	C4H3+
52.018	11	C3H2N+
53.0022	58	C3HO+
53.0386	161	C4H5+
54.0339	12	C3H4N+
54.0464	12	C4H6+
55.0178	30	C3H3O+
56.0494	15	C3H6N+
60.0206	12	C2H4O2+
63.0229	149	C5H3+
64.0308	53	C5H4+
65.0386	999	C5H5+
66.0338	12	C4H4N+
66.0464	35	C5H6+
67.0418	12	C4H5N+
67.0543	16	C5H7+
75.023	12	C6H3+
76.0307	164	C6H4+
77.0386	156	C6H5+
78.0338	84	C5H4N+
78.0464	99	C6H6+
79.0416	10	C5H5N+
79.0543	85	C6H7+
80.0495	13	C5H6N+
81.0335	44	C5H5O+
90.034	9	C6H4N+
91.0416	63	C6H5N+
91.0544	8	C7H7+
92.0495	294	C6H6N+
93.0572	13	C6H7N+
94.0412	8	C6H6O+
95.0491	380	C6H7O+
96.0444	127	C5H6NO+
104.0495	240	C7H6N+
105.0448	233	C6H5N2+
105.0569	14	C7H7N+
106.0652	99	C7H8N+
106.1214	6	C3H14N4+
120.0444	77	C7H6NO+
137.0469	14	C7H7NO2+
