Mass spectrum: 1H-Benzotriazole TP19  (Tentative); LC-ESI-ITFT; MS2; 80-110; R=7500; [M+H]+
Name: 1H-Benzotriazole TP19  (Tentative)
Name: 1H-Benzotriazole Transformation Product 19 (TP19)
Formula: C8H7N3O2
Exact mass: 177.0538
Instrument: LTQ Orbitrap XL Thermo Scientific
Instrument type: LC-ESI-ITFT
Ms type: MS2
Ion mode: POSITIVE
Ionization: ESI
Fragmentation mode: HCD
Collision energy: scaled 80 (m/z=200) to 110 (m/z=120)
Resolution: 7500
Column name: Atlantis T3 3um, 3.0x150mm, Waters
Retention time: 21.0 min
Base peak: 178.0605
Precursor m/z: 178.0605
Precursor type: [M+H]+
m/z	relative intensity
50.0142	10
51.0221	42
53.0378	540
55.017	30
65.0376	8
65.0596	8
68.9965	8
77.0307	7
77.0379	999
78.0331	73
81.0328	113
88.0208	38
94.0406	6
95.0485	178
96.0437	17
104.0489	62
105.0442	959
106.0416	6
120.0552	99
132.0552	680
