Mass spectrum: CBDZ-M; LC-ESI-QFT; MS2; CE: 30%; R=17500; [M+H]+
Name: CBDZ-M
Name: Lobendazole
Name: ethyl N-(1H-benzimidazol-2-yl)carbamate
Formula: C10H11N3O2
Exact mass: 205.0851
SMILES: O=C(NC1=NC2=CC=CC=C2N1)OCC
InChI: InChI=1S/C10H11N3O2/c1-2-15-10(14)13-9-11-7-5-3-4-6-8(7)12-9/h3-6H,2H2,1H3,(H2,11,12,13,14)
Instrument: Q-Exactive + Thermo Scientific
Instrument type: LC-ESI-QFT
Ms type: MS2
Ion mode: POSITIVE
Ionization: ESI
Fragmentation mode: HCD
Collision energy: 30 % (nominal)
Resolution: 17500
Column name: Atlantis T3 3um, 3.0x150mm, Waters
Retention time: 15.185 min
Base peak: 268.1907
Precursor m/z: 206.0924
Precursor type: [M+H]+
m/z	relative intensity	assigned
59.0491	2	C3H7O+
65.0387	1	C5H5+
88.0392	1	C3H6NO2+
101.0597	3	C5H9O2+
115.0753	16	C6H11O2+
122.0814	1	C4H12NO3+
133.0637	1	C7H7N3+
134.0712	155	C7H8N3+
149.0232	6	C8H5O3+
160.0506	707	C8H6N3O+
162.1025	1	C9H12N3+
178.0612	999	C8H8N3O2+
181.9874	3	C10NO3+
206.0926	882	C10H12N3O2+
