Mass spectrum: SMZ-AcOH; LC-ESI-QFT; MS2; CE: 75%; R=17500; [M-H]-
Name: SMZ-AcOH
Formula: C12H13N3O5S
Exact mass: 311.0576
Instrument: Q-Exactive + Thermo Scientific
Instrument type: LC-ESI-QFT
Ms type: MS2
Ion mode: NEGATIVE
Ionization: ESI
Fragmentation mode: HCD
Collision energy: 75 % (nominal)
Resolution: 17500
Column name: Atlantis T3 3um, 3.0x150mm, Waters
Retention time: 16.866 min
Base peak: 91.0036
Precursor m/z: 310.0503
Precursor type: [M-H]-
m/z	relative intensity	assigned
63.9625	499	O2S-
77.9656	19	NO2S-
78.973	19	HNO2S-
79.981	35	H2NO2S-
91.0189	29	C6H3O-
92.0506	192	C6H6N-
102.0351	37	C7H4N-
104.0505	110	C7H6N-
118.0301	30	C7H4NO-
119.0612	28	C7H7N2-
120.0455	999	C7H6NO-
122.0612	176	C7H8NO-
139.9936	41	C6H4O2S-
141.0015	76	C6H5O2S-
156.0121	24	C6H6NO2S-
168.0125	621	C7H6NO2S-
185.0385	72	C7H9N2O2S-
