Mass spectrum: SIT_p_391.0988_19.8; LC-ESI-QFT; MS2; CE: 15%; R=17500; [M+H]+
Name: SIT_p_391.0988_19.8
Name: (E)-1-[3-(trifluoromethyl)-6,8-dihydro-5H-[1,2,4]triazolo[4,3-a]pyrazin-7-yl]-4-(2,4,5-trifluorophenyl)but-2-en-1-one
Class: identified ozonation transformation product
Formula: C16H12F6N4O
Exact mass: 390.0915
SMILES: O=C(/C=C/CC1=C(C=C(F)C(F)=C1)F)N2CCN3C(C2)=NN=C3C(F)(F)F
InChI: InChI=1S/C16H12F6N4O/c17-10-7-12(19)11(18)6-9(10)2-1-3-14(27)25-4-5-26-13(8-25)23-24-15(26)16(20,21)22/h1,3,6-7H,2,4-5,8H2/b3-1+
Instrument: Q Exactive Plus Orbitrap Thermo Scientific
Instrument type: LC-ESI-QFT
Ms type: MS2
Ion mode: POSITIVE
Ionization: ESI
Fragmentation mode: HCD
Collision energy: 15 % (nominal)
Resolution: 17500
Column name: C18 Atlantis T3 5 um, 3x150 mm, Waters
Retention time: 19.761 min
Base peak: 290.269
Precursor m/z: 391.0988
Precursor type: [M+H]+
Precursor intensity: 9382336
m/z	relative intensity	assigned
193.0697	3	C11H9F2N+
199.0363	10	C5H5F4N3O+
391.0987	999	C16H13F6N4O+
