Mass spectrum: LAM_p_259.9988_13.7; LC-ESI-QFT; MS2; CE: 55%; R=17500; [M+H]+
Name: LAM_p_259.9988_13.7
Name: (E)-2-((Z)-1-(2,3-dichlorophenyl)-2-hydroxyvinyl)diazene-1-carbimidic acid
Class: identified ozonation transformation product
Formula: C9H7Cl2N3O2
Exact mass: 258.9915
SMILES: N=C(O)/N=N/C(=C\O)c1cccc(Cl)c1Cl
InChI: InChI=1S/C9H7Cl2N3O2/c10-6-3-1-2-5(8(6)11)7(4-15)13-14-9(12)16/h1-4,15H,(H2,12,16)/b7-4-,14-13+
Instrument: Q Exactive Plus Orbitrap Thermo Scientific
Instrument type: LC-ESI-QFT
Ms type: MS2
Ion mode: POSITIVE
Ionization: ESI
Fragmentation mode: HCD
Collision energy: 55 % (nominal)
Resolution: 17500
Column name: C18 Atlantis T3 5 um, 3x150 mm, Waters
Retention time: 13.708 min
Base peak: 275.2347
Precursor m/z: 259.9988
Precursor type: [M+H]+
Precursor intensity: 6307667.5
m/z	relative intensity	assigned
108.9844	1	C6H2Cl+
135.9942	2	C7H3ClN+
137.0027	1	C7H4ClN+
152.0133	1	C7H5ClN2+
154.006	1	C4H8Cl2N2+
164.001	22	C7H3ClN3+
171.9715	999	C7H4Cl2N+
172.9555	33	C7H3Cl2O+
172.9695	1	
179	2	C8H4ClN2O+
179.0244	28	C8H6ClN3+
189.982	64	C7H6Cl2NO+
198.9823	46	C8H5Cl2N2+
199.9658	2	C8H4Cl2NO+
203.9979	12	C8H8Cl2NO+
206.0116	6	C9H5ClN3O+
207.0194	91	C9H6ClN3O+
211.0143	5	C8H6ClN3O2+
216.9923	2	C8H7Cl2N2O+
242.9723	2	C9H5Cl2N2O2+
