Mass spectrum: PHE_p_165.1021_17.6; LC-ESI-QFT; MS2; CE: 90%; R=17500; [M+H]+
Name: PHE_p_165.1021_17.6
Name: 2-Acetyl-2-methyl-1-phenylhydrazine
Name: N-methyl-N`-phenylacetohydrazide
Class: identified ozonation transformation product
Formula: C9H12N2O
Exact mass: 164.0950
SMILES: CC(N(NC1=CC=CC=C1)C)=O
InChI: InChI=1S/C9H12N2O/c1-8(12)11(2)10-9-6-4-3-5-7-9/h3-7,10H,1-2H3
Instrument: Q Exactive Plus Orbitrap Thermo Scientific
Instrument type: LC-ESI-QFT
Ms type: MS2
Ion mode: POSITIVE
Ionization: ESI
Fragmentation mode: HCD
Collision energy: 90 % (nominal)
Resolution: 17500
Column name: C18 Atlantis T3 5 um, 3x150 mm, Waters
Retention time: 17.412 min
Base peak: 163.1329
Precursor m/z: 165.1022
Precursor type: [M+H]+
Precursor intensity: 10026235
m/z	relative intensity	assigned
53.0022	5	C3HO+
56.0577	3	
65.0386	999	C5H5+
66.0464	16	C5H6+
74.06	25	C3H8NO+
81.0574	11	C5H7N+
92.0495	551	C6H6N+
93.0573	223	C6H7N+
105.0448	9	C6H5N2+
106.065	11	C7H8N+
107.0605	13	C6H7N2+
108.0682	232	C6H8N2+
