Mass spectrum: FFA_n_189.0167_20.1; LC-ESI-QFT; MS2; CE: 85%; R=17500; [M-H]-
Name: FFA_n_189.0167_20.1
Name: 3-(trifluoromethyl)benzoic acid
Class: identified ozonation transformation product
Formula: C8H5F3O2
Exact mass: 190.0242
SMILES: FC(F)(F)C1=CC=CC(C(O)=O)=C1
InChI: InChI=1S/C8H5F3O2/c9-8(10,11)6-3-1-2-5(4-6)7(12)13/h1-4H,(H,12,13)
Instrument: Q Exactive Plus Orbitrap Thermo Scientific
Instrument type: LC-ESI-QFT
Ms type: MS2
Ion mode: NEGATIVE
Ionization: ESI
Fragmentation mode: HCD
Collision energy: 85 % (nominal)
Resolution: 17500
Column name: C18 Atlantis T3 5 um, 3x150 mm, Waters
Retention time: 20.188 min
Base peak: 91.0037
Precursor m/z: 189.0169
Precursor type: [M-H]-
Precursor intensity: 811625.3125
m/z	relative intensity	assigned
68.6464	78	
105.0143	112	C7H2F-
125.0206	80	C7H3F2-
145.027	999	C7H4F3-
189.0169	167	C8H4F3O2-
