Mass spectrum: C12-AS (TENTATIVE); LC-ESI-ITFT; MS2; HCD60; [M-H]-
Name: C12-AS (TENTATIVE)
Name: dodecyl hydrogen sulfate
Formula: C12H26O4S
Exact mass: 266.1552
SMILES: OS(=O)(=O)OCCCCCCCCCCCC
InChI: InChI=1S/C12H26O4S/c1-2-3-4-5-6-7-8-9-10-11-12-16-17(13,14)15/h2-12H2,1H3,(H,13,14,15)
Instrument: LTQ Orbitrap XL Thermo Scientific
Instrument type: LC-ESI-ITFT
Ms type: MS2
Ion mode: NEGATIVE
Ionization: ESI
Fragmentation mode: HCD
Collision energy: 60 NCE
Base peak: 265.1470
Precursor m/z: 265.1470
Precursor type: [M-H]-
m/z	relative intensity
96.9602	295
125.615	3
265.147	999
