Mass spectrum: SMX/SMZ_n_200.9972_14.1; LC-ESI-QFT; MS2; CE: 80%; R=17500; [M-H]-
Name: SMX/SMZ_n_200.9972_14.1
Name: 4-nitrobenzenesulfonamide
Class: identified ozonation transformation product
Formula: C6H6N2O4S
Exact mass: 202.0048
SMILES: NS(C1=CC=C([N+]([O-])=O)C=C1)(=O)=O
InChI: InChI=1S/C6H6N2O4S/c7-13(11,12)6-3-1-5(2-4-6)8(9)10/h1-4H,(H2,7,11,12)
Instrument: Q Exactive Plus Orbitrap Thermo Scientific
Instrument type: LC-ESI-QFT
Ms type: MS2
Ion mode: NEGATIVE
Ionization: ESI
Fragmentation mode: HCD
Collision energy: 80 % (nominal)
Resolution: 17500
Column name: C18 Atlantis T3 5 um, 3x150 mm, Waters
Retention time: 14.055 min
Base peak: 91.0037
Precursor m/z: 200.9976
Precursor type: [M-H]-
Precursor intensity: 1085269
m/z	relative intensity	assigned
77.9656	93	NO2S-
107.0377	759	C6H5NO-
108.0217	27	C6H4O2-
137.0356	999	C6H5N2O2-
138.0197	14	C6H4NO3-
