Mass spectrum: 5-Hydroxy-1,2,3-triazole; LC-ESI-ITFT; MS2; 80-110; R=7500; [M+H]+
Name: 5-Hydroxy-1,2,3-triazole
Name: 1H-1,2,3-triazol-5-ol
Formula: C2H3N3O
Exact mass: 85.0276
SMILES: OC1=CN=NN1
InChI: InChI=1S/C2H3N3O/c6-2-1-3-5-4-2/h1H,(H2,3,4,5,6)
Instrument: LTQ Orbitrap XL Thermo Scientific
Instrument type: LC-ESI-ITFT
Ms type: MS2
Ion mode: POSITIVE
Ionization: ESI
Fragmentation mode: HCD
Collision energy: scaled 80 (m/z=200) to 110 (m/z=120)
Resolution: 7500
Column name: Atlantis T3 3um, 3.0x150mm, Waters
Retention time: 3.7 min
Base peak: 86.0344
Precursor m/z: 86.0344
Precursor type: [M+H]+
m/z	relative intensity
57.0202	25
86.0344	999
