Mass spectrum: VAL_n_234.1133_17.8; LC-ESI-QFT; MS2; CE: 65%; R=17500; [M-H]-
Name: VAL_n_234.1133_17.8
Name: 4-(pentanamidomethyl)benzoic acid
Class: identified ozonation transformation product
Formula: C13H17NO3
Exact mass: 235.1208
SMILES: CCCCC(=O)NCc1ccc(C(=O)O)cc1
InChI: InChI=1S/C13H17NO3/c1-2-3-4-12(15)14-9-10-5-7-11(8-6-10)13(16)17/h5-8H,2-4,9H2,1H3,(H,14,15)(H,16,17)
Instrument: Q Exactive Plus Orbitrap Thermo Scientific
Instrument type: LC-ESI-QFT
Ms type: MS2
Ion mode: NEGATIVE
Ionization: ESI
Fragmentation mode: HCD
Collision energy: 65 % (nominal)
Resolution: 17500
Column name: C18 Atlantis T3 5 um, 3x150 mm, Waters
Retention time: 17.553 min
Base peak: 91.0037
Precursor m/z: 234.1136
Precursor type: [M-H]-
Precursor intensity: 217381.953125
m/z	relative intensity	assigned
100.0768	999	C5H10NO-
190.124	30	C12H16NO-
