Mass spectrum: CBZ_p_283.0711_17.3; LC-ESI-QFT; MS2; CE: 45%; R=17500; [M+H]+
Name: CBZ_p_283.0711_17.3
Name: 2-(2,4-Dioxo-3,4-dihydroquinazolin-1(2H)-yl)benzoic acid
Name: 2-(2,4-dioxoquinazolin-1-yl)benzoic acid
Class: identified ozonation transformation product
Formula: C15H10N2O4
Exact mass: 282.0641
SMILES: O=C(O)C1=CC=CC=C1N2C(NC(C3=C2C=CC=C3)=O)=O
InChI: InChI=1S/C15H10N2O4/c18-13-9-5-1-3-7-11(9)17(15(21)16-13)12-8-4-2-6-10(12)14(19)20/h1-8H,(H,19,20)(H,16,18,21)
Instrument: Q Exactive Plus Orbitrap Thermo Scientific
Instrument type: LC-ESI-QFT
Ms type: MS2
Ion mode: POSITIVE
Ionization: ESI
Fragmentation mode: HCD
Collision energy: 45 % (nominal)
Resolution: 17500
Column name: C18 Atlantis T3 5 um, 3x150 mm, Waters
Retention time: 17.239 min
Base peak: 183.0781
Precursor m/z: 283.0713
Precursor type: [M+H]+
Precursor intensity: 5317052
m/z	relative intensity	assigned
58.0649	2	C3H8N+
69.9923	47	C2NO2+
84.9596	6	
119.049	1	C8H7O+
131.0852	1	C10H11+
159.1172	1	
166.0647	17	C12H8N+
194.06	194	C13H8NO+
195.0678	13	C13H9NO+
196.0757	350	C13H10NO+
222.055	999	C14H8NO2+
240.0655	400	C14H10NO3+
254.0812	38	
265.0606	74	C15H9N2O3+
