Mass spectrum: SMZ-AcOH; LC-ESI-QFT; MS2; CE: 90%; R=17500; [M+H]+
Name: SMZ-AcOH
Formula: C12H13N3O5S
Exact mass: 311.0576
Instrument: Q-Exactive + Thermo Scientific
Instrument type: LC-ESI-QFT
Ms type: MS2
Ion mode: POSITIVE
Ionization: ESI
Fragmentation mode: HCD
Collision energy: 90 % (nominal)
Resolution: 17500
Column name: Atlantis T3 3um, 3.0x150mm, Waters
Retention time: 16.844 min
Base peak: 278.2115
Precursor m/z: 312.0649
Precursor type: [M+H]+
m/z	relative intensity	assigned
51.0228	16	C4H3+
53.0385	55	C4H5+
55.0179	46	C3H3O+
55.0541	4	C4H7+
56.0494	8	C3H6N+
57.0333	15	C3H5O+
59.0491	40	C3H7O+
60.0204	5	C2H4O2+
60.0443	17	C2H6NO+
63.0227	6	C5H3+
65.0386	246	C5H5+
67.0542	98	C5H7+
68.0492	6	C4H6N+
77.0384	22	C6H5+
78.0338	16	C5H4N+
78.0463	23	C6H6+
79.0542	91	C6H7+
80.0494	7	C5H6N+
81.0335	7	C5H5O+
90.0337	13	C6H4N+
91.0416	85	C6H5N+
91.0541	4	C7H7+
92.0495	285	C6H6N+
93.0335	36	C6H5O+
93.0572	26	C6H7N+
94.0651	136	C6H8N+
95.0491	176	C6H7O+
96.0443	136	C5H6NO+
99.0554	22	C4H7N2O+
101.0597	17	C5H9O2+
104.0494	294	C7H6N+
105.0448	73	C6H5N2+
105.0573	45	C7H7N+
106.0651	671	C7H8N+
110.0599	19	C6H8NO+
118.0532	4	CH12NO3S+
119.0605	23	C7H7N2+
120.0444	999	C7H6NO+
122.0602	37	C7H8NO+
131.0606	4	C8H7N2+
132.0435	4	H10N3O3S+
132.0687	4	C8H8N2+
133.0637	4	C7H7N3+
137.0471	59	C7H7NO2+
143.0606	15	C9H7N2+
144.0683	18	C9H8N2+
146.0715	27	C8H8N3+
158.0714	15	C9H8N3+
159.0792	20	C9H9N3+
174.0669	7	C3H14N2O4S+
