Mass spectrum: Dihydro-dihydroxy-benzotriazole (TP8) (Tentative); LC-ESI-ITFT; MS2; 80-110; R=7500; [M+H]+
Name: Dihydro-dihydroxy-benzotriazole (TP8) (Tentative)
Name: (1,2,3,4,5,6and/or7)-dihydro-(1,4,5,6and/or7)-dihydroxy-benzotriazole
Formula: C6H7N3O2
Exact mass: 153.0538
Instrument: LTQ Orbitrap XL Thermo Scientific
Instrument type: LC-ESI-ITFT
Ms type: MS2
Ion mode: POSITIVE
Ionization: ESI
Fragmentation mode: HCD
Collision energy: scaled 80 (m/z=200) to 110 (m/z=120)
Resolution: 7500
Column name: Atlantis T3 3um, 3.0x150mm, Waters
Retention time: 6.2 min
Base peak: 154.0604
Precursor m/z: 154.0604
Precursor type: [M+H]+
m/z	relative intensity
52.0866	14
53.0377	339
55.0171	24
65.0602	17
80.0487	999
81.0327	90
108.0436	190
