Mass spectrum: C10-LAS (TENTATIVE); LC-ESI-ITFT; MS2; HCD60; [M-H]-
Name: C10-LAS (TENTATIVE)
Name: C10-linear alkylbenzyl sulfonate
Name: 4-(decan-4-yl)benzenesulfonic acid
Formula: C16H26O3S
Exact mass: 298.1603
SMILES: OS(=O)(=O)c1ccc(cc1)C(CCC)CCCCCC
InChI: InChI=1S/C16H26O3S/c1-3-5-6-7-9-14(8-4-2)15-10-12-16(13-11-15)20(17,18)19/h10-14H,3-9H2,1-2H3,(H,17,18,19)
Instrument: LTQ Orbitrap XL Thermo Scientific
Instrument type: LC-ESI-ITFT
Ms type: MS2
Ion mode: NEGATIVE
Ionization: ESI
Fragmentation mode: HCD
Collision energy: 60 NCE
Base peak: 297.1521
Precursor m/z: 297.1521
Precursor type: [M-H]-
m/z	relative intensity
79.9569	2
88.4503	1
88.6137	1
88.777	1
170.0045	3
183.0119	96
184.0146	5
197.0275	3
212.0509	1
225.0589	1
226.0667	6
227.0732	1
233.1904	2
239.0722	1
240.0826	4
295.9688	1
296.6031	1
296.6325	1
297.1521	999
298.1552	173
