Mass spectrum: DIU_p_215.0582_14.8; LC-ESI-QFT; MS2; CE: 70%; R=17500; [M+H]+
Name: DIU_p_215.0582_14.8
Name: Diuron -Cl +OH
Name: 3-(3,4-dichlorophenyl)-1,1-dimethylurea -Cl +OH
Class: identified ozonation transformation product
Formula: C9H11ClN2O2
Exact mass: 214.0509
Instrument: Q Exactive Plus Orbitrap Thermo Scientific
Instrument type: LC-ESI-QFT
Ms type: MS2
Ion mode: POSITIVE
Ionization: ESI
Fragmentation mode: HCD
Collision energy: 70 % (nominal)
Resolution: 17500
Column name: C18 Atlantis T3 5 um, 3x150 mm, Waters
Retention time: 14.779 min
Base peak: 192.121
Precursor m/z: 215.0582
Precursor type: [M+H]+
Precursor intensity: 18870976
m/z	relative intensity	assigned
72.0444	999	C3H6NO+
142.0054	122	C6H5ClNO+
