Mass spectrum: MEF-Glu; LC-ESI-QFT; MS2; CE: 60%; R=17500; [M-H]-
Name: MEF-Glu
Formula: C20H22N2O5
Exact mass: 370.1529
SMILES: O=C(CCC(NC(C1=C(C=CC=C1)NC2=CC=CC(C)=C2C)=O)C(O)=O)O
InChI: InChI=1S/C20H22N2O5/c1-12-6-5-9-15(13(12)2)21-16-8-4-3-7-14(16)19(25)22-17(20(26)27)10-11-18(23)24/h3-9,17,21H,10-11H2,1-2H3,(H,22,25)(H,23,24)(H,26,27)
Instrument: Q-Exactive + Thermo Scientific
Instrument type: LC-ESI-QFT
Ms type: MS2
Ion mode: NEGATIVE
Ionization: ESI
Fragmentation mode: HCD
Collision energy: 60 % (nominal)
Resolution: 17500
Column name: Atlantis T3 3um, 3.0x150mm, Waters
Retention time: 22.730 min
Base peak: 293.1757
Precursor m/z: 369.1456
Precursor type: [M-H]-
m/z	relative intensity	assigned
59.0139	26	C2H3O2-
84.0456	119	C4H6NO-
92.0508	20	C6H6N-
102.0562	22	C4H8NO2-
128.0353	110	C5H6NO3-
166.0637	19	C9H10O3-
179.0875	33	C14H11-
180.0821	104	C13H10N-
192.0819	107	C14H10N-
194.0975	122	C14H12N-
196.1131	999	C14H14N-
221.0887	28	C6H13N4O5-
221.1084	293	C15H13N2-
222.0931	18	C15H12NO-
239.119	24	C15H15N2O-
299.0098	19	C17H3N2O4-
