Mass spectrum: MEF-Glu; LC-ESI-QFT; MS2; CE: 45%; R=17500; [M+H]+
Name: MEF-Glu
Formula: C20H22N2O5
Exact mass: 370.1529
SMILES: O=C(CCC(NC(C1=C(C=CC=C1)NC2=CC=CC(C)=C2C)=O)C(O)=O)O
InChI: InChI=1S/C20H22N2O5/c1-12-6-5-9-15(13(12)2)21-16-8-4-3-7-14(16)19(25)22-17(20(26)27)10-11-18(23)24/h3-9,17,21H,10-11H2,1-2H3,(H,22,25)(H,23,24)(H,26,27)
Instrument: Q-Exactive + Thermo Scientific
Instrument type: LC-ESI-QFT
Ms type: MS2
Ion mode: POSITIVE
Ionization: ESI
Fragmentation mode: HCD
Collision energy: 45 % (nominal)
Resolution: 17500
Column name: Atlantis T3 3um, 3.0x150mm, Waters
Retention time: 22.708 min
Base peak: 295.1903
Precursor m/z: 371.1601
Precursor type: [M+H]+
m/z	relative intensity	assigned
55.0178	1	C3H3O+
55.0541	2	C4H7+
57.0698	18	C4H9+
67.0542	4	C5H7+
69.0696	4	C5H9+
71.0855	1	C5H11+
81.0699	4	C6H9+
83.0491	2	C5H7O+
83.0854	2	C6H11+
88.0755	1	C4H10NO+
93.0699	2	C7H9+
95.0854	5	C7H11+
97.0647	1	C6H9O+
101.0596	8	C5H9O2+
105.0698	1	C8H9+
107.0851	1	C8H11+
109.101	5	C8H13+
111.0439	2	C6H7O2+
111.0803	1	C7H11O+
115.075	1	C6H11O2+
121.1012	2	C9H13+
123.0801	2	C8H11O+
129.0541	2	C6H9O3+
133.1014	1	C10H13+
183.1745	2	C12H23O+
209.0833	44	C14H11NO+
224.1069	999	C15H14NO+
227.0295	1	C8H7N2O6+
245.0397	1	C20H5+
255.0967	4	C11H15N2O5+
285.0088	5	C20HN2O+
286.0346	1	C14H8NO6+
