Mass spectrum: Benzotriazole-5-carboxylic acid; LC-ESI-ITFT; MS2; 80-110; R=7500; [M+H]+
Name: Benzotriazole-5-carboxylic acid
Name: 1H-Benzotriazole-5-carboxylic acid
Formula: C7H5N3O2
Exact mass: 163.0382
SMILES: C1=CC2=C(C=C1C(=O)O)N=NN2
InChI: InChI=1S/C7H5N3O2/c11-7(12)4-1-2-5-6(3-4)9-10-8-5/h1-3H,(H,11,12)(H,8,9,10)
Instrument: LTQ Orbitrap XL Thermo Scientific
Instrument type: LC-ESI-ITFT
Ms type: MS2
Ion mode: POSITIVE
Ionization: ESI
Fragmentation mode: HCD
Collision energy: scaled 80 (m/z=200) to 110 (m/z=120)
Resolution: 7500
Column name: Atlantis T3 3um, 3.0x150mm, Waters
Retention time: 18.6 min
Base peak: 164.0455
Precursor m/z: 164.0455
Precursor type: [M+H]+
m/z	relative intensity
53.0377	51
63.0221	223
65.0377	381
68.0123	61
78.0329	26
80.0487	999
81.0327	132
90.033	358
91.0408	12
92.0486	89
96.0438	12
106.028	87
107.0354	19
108.0436	733
118.028	121
118.0393	264
119.0473	11
120.055	61
124.0386	21
136.0387	52
