Mass spectrum: 1H-Benzotriazole TP21 (Tentative); LC-ESI-ITFT; MS2; 80-110; R=7500; [M+H]+
Name: 1H-Benzotriazole TP21 (Tentative)
Name: 1H-Benzotriazole Transformation Product 21 (TP21)
Formula: C6H5N3O4
Exact mass: 183.0280
Instrument: LTQ Orbitrap XL Thermo Scientific
Instrument type: LC-ESI-ITFT
Ms type: MS2
Ion mode: POSITIVE
Ionization: ESI
Fragmentation mode: HCD
Collision energy: scaled 80 (m/z=200) to 110 (m/z=120)
Resolution: 7500
Column name: Atlantis T3 3um, 3.0x150mm, Waters
Retention time: 16.1 min
Base peak: 184.0345
Precursor m/z: 184.0345
Precursor type: [M+H]+
m/z	relative intensity
63.9253	142
65.0607	277
81.919	150
95.1691	172
98.023	999
101.0004	141
