Mass spectrum: SMZ-AcOH; LC-ESI-QFT; MS2; CE: 90%; R=17500; [M-H]-
Name: SMZ-AcOH
Formula: C12H13N3O5S
Exact mass: 311.0576
Instrument: Q-Exactive + Thermo Scientific
Instrument type: LC-ESI-QFT
Ms type: MS2
Ion mode: NEGATIVE
Ionization: ESI
Fragmentation mode: HCD
Collision energy: 90 % (nominal)
Resolution: 17500
Column name: Atlantis T3 3um, 3.0x150mm, Waters
Retention time: 16.866 min
Base peak: 91.0036
Precursor m/z: 310.0503
Precursor type: [M-H]-
m/z	relative intensity	assigned
63.9624	583	O2S-
78.9733	26	HNO2S-
79.9812	34	H2NO2S-
91.0187	44	C6H3O-
92.0507	193	C6H6N-
102.0349	37	C7H4N-
104.0505	100	C7H6N-
118.0299	35	C7H4NO-
119.0612	49	C7H7N2-
120.0455	999	C7H6NO-
122.0611	108	C7H8NO-
139.9942	41	C6H4O2S-
168.0124	121	C7H6NO2S-
