Mass spectrum: 10phiC10SPC (STANDARD); LC-ESI-QFT; MS2; HCD80; [M-H]-
Name: 10phiC10SPC (STANDARD)
Name: Decacarboxy sulfophenyl carboxylic acid
Name: 10-(4-sulfophenyl)octanoic acid
Formula: C16H24O5S
Exact mass: 328.1344
SMILES: OS(=O)(=O)c1ccc(CCCCCCCCCC(=O)O)cc1
InChI: InChI=1S/C16H24O5S/c17-16(18)9-7-5-3-1-2-4-6-8-14-10-12-15(13-11-14)22(19,20)21/h10-13H,1-9H2,(H,17,18)(H,19,20,21)
Instrument: Q Exactive Orbitrap Thermo Scientific
Instrument type: LC-ESI-QFT
Ms type: MS2
Ion mode: NEGATIVE
Ionization: ESI
Fragmentation mode: HCD
Collision energy: 80 NCE
Base peak: 327.1272
Precursor m/z: 327.1272
Precursor type: [M-H]-
m/z	relative intensity
63.9617	46
79.9568	292
80.9647	16
95.0135	3
106.0424	10
119.0504	38
121.0296	2
133.0659	4
155.9889	21
170.0044	999
183.0121	255
184.0199	5
197.0278	32
201.9942	38
211.0436	8
225.0591	8
239.0751	4
309.1165	4
