Mass spectrum: SMZ-Pt; LC-ESI-QFT; MS2; CE: 120%; R=17500; [M+H]+
Name: SMZ-Pt
Formula: C17H16N8O4S
Exact mass: 428.1015
SMILES: CC1=CC(NS(=O)(C2=CC=C(NCC3=NC(C(NC(N)=N4)=O)=C4N=C3)C=C2)=O)=NO1
InChI: InChI=1S/C17H16N8O4S/c1-9-6-13(24-29-9)25-30(27,28)12-4-2-10(3-5-12)19-7-11-8-20-15-14(21-11)16(26)23-17(18)22-15/h2-6,8,19H,7H2,1H3,(H,24,25)(H3,18,20,22,23,26)
Instrument: Q-Exactive + Thermo Scientific
Instrument type: LC-ESI-QFT
Ms type: MS2
Ion mode: POSITIVE
Ionization: ESI
Fragmentation mode: HCD
Collision energy: 120 % (nominal)
Resolution: 17500
Column name: Atlantis T3 3um, 3.0x150mm, Waters
Retention time: 16.780 min
Base peak: 164.9846
Precursor m/z: 429.1088
Precursor type: [M+H]+
m/z	relative intensity	assigned
52.018	116	C3H2N+
54.0336	315	C3H4N+
69.0083	83	C2HN2O+
79.0291	999	C4H3N2+
81.0446	611	C4H5N2+
106.0397	377	C5H4N3+
108.0552	102	C5H6N3+
114.0333	120	H8N3O2S+
124.0505	118	C5H6N3O+
129.0445	78	C8H5N2+
142.0519	69	C9H6N2+
205.0517	80	C6H11N3O3S+
