Mass spectrum: MEF-Glu; LC-ESI-QFT; MS2; CE: 90%; R=17500; [M+H]+
Name: MEF-Glu
Formula: C20H22N2O5
Exact mass: 370.1529
SMILES: O=C(CCC(NC(C1=C(C=CC=C1)NC2=CC=CC(C)=C2C)=O)C(O)=O)O
InChI: InChI=1S/C20H22N2O5/c1-12-6-5-9-15(13(12)2)21-16-8-4-3-7-14(16)19(25)22-17(20(26)27)10-11-18(23)24/h3-9,17,21H,10-11H2,1-2H3,(H,22,25)(H,23,24)(H,26,27)
Instrument: Q-Exactive + Thermo Scientific
Instrument type: LC-ESI-QFT
Ms type: MS2
Ion mode: POSITIVE
Ionization: ESI
Fragmentation mode: HCD
Collision energy: 90 % (nominal)
Resolution: 17500
Column name: Atlantis T3 3um, 3.0x150mm, Waters
Retention time: 22.708 min
Base peak: 295.1903
Precursor m/z: 371.1601
Precursor type: [M+H]+
m/z	relative intensity	assigned
51.023	4	C4H3+
53.0384	7	C4H5+
55.0542	47	C4H7+
57.0699	43	C4H9+
67.0541	29	C5H7+
69.0696	9	C5H9+
79.0539	27	C6H7+
81.0698	20	C6H9+
88.0371	4	H8O5+
91.0541	25	C7H7+
93.0698	6	C7H9+
95.0489	10	C6H7O+
95.0853	10	C7H11+
97.0651	5	C6H9O+
103.0541	5	C8H7+
105.0696	17	C8H9+
115.0547	5	C9H7+
119.0853	5	C9H11+
129.0696	6	C10H9+
152.0618	6	C12H8+
166.0651	7	C12H8N+
167.0731	20	C12H9N+
175.0357	4	C5H7N2O5+
179.0728	36	C13H9N+
180.0807	926	C13H10N+
181.0884	150	C13H11N+
182.0603	8	C12H8NO+
183.0677	43	C12H9NO+
194.0602	9	C13H8NO+
194.0966	49	C14H12N+
196.0759	8	C13H10NO+
207.0678	21	C14H9NO+
208.0757	712	C14H10NO+
209.0835	999	C14H11NO+
211.0621	5	C13H9NO2+
222.0913	50	C15H12NO+
223.099	21	C15H13NO+
224.107	100	C15H14NO+
