Mass spectrum: Methyl-hydroxy-benzotriazole (TP6) (Tentative); LC-ESI-ITFT; MS2; 80-110; R=7500; [M+H]+
Name: Methyl-hydroxy-benzotriazole (TP6) (Tentative)
Name: (4,5,6or7)-hydroxy-(4,5,6or7)-methyl benzotriazole
Formula: C7H7N3O
Exact mass: 149.0589
Instrument: LTQ Orbitrap XL Thermo Scientific
Instrument type: LC-ESI-ITFT
Ms type: MS2
Ion mode: POSITIVE
Ionization: ESI
Fragmentation mode: HCD
Collision energy: scaled 80 (m/z=200) to 110 (m/z=120)
Resolution: 7500
Column name: Atlantis T3 3um, 3.0x150mm, Waters
Retention time: 20.9 min
Base peak: 150.0655
Precursor m/z: 150.0655
Precursor type: [M+H]+
m/z	relative intensity
51.0221	20
52.0299	121
53.038	31
54.033	109
63.0221	130
63.841	19
65.0378	293
65.0604	28
66.033	38
67.0533	115
77.038	30
78.033	58
79.0409	249
80.0246	41
82.0282	44
90.0333	45
92.0487	63
93.0572	29
94.0281	82
95.0484	999
106.0276	27
107.0359	533
107.0471	591
111.0302	39
122.0595	195
135.0421	897
150.0656	453
