Mass spectrum: C11-LAS (STANDARD MIX); LC-ESI-QFT; MS2; HCD90; [M-H]-
Name: C11-LAS (STANDARD MIX)
Name: C11-linear alkylbenzyl sulfonate
Name: 4-(undecan-5-yl)benzenesulfonic acid
Formula: C17H28O3S
Exact mass: 312.1759
SMILES: OS(=O)(=O)c1ccc(cc1)C(CCCC)CCCCCC
InChI: InChI=1S/C17H28O3S/c1-3-5-7-8-10-15(9-6-4-2)16-11-13-17(14-12-16)21(18,19)20/h11-15H,3-10H2,1-2H3,(H,18,19,20)
Instrument: Q Exactive Orbitrap Thermo Scientific
Instrument type: LC-ESI-QFT
Ms type: MS2
Ion mode: NEGATIVE
Ionization: ESI
Fragmentation mode: HCD
Collision energy: 90 NCE
Base peak: 311.1686
Precursor m/z: 311.1686
Precursor type: [M-H]-
m/z	relative intensity
79.9566	381
80.9649	5
93.0346	7
119.0505	855
133.0655	9
155.9875	7
170.004	37
183.0115	999
195.0124	18
196.0211	12
197.0272	19
225.0591	6
239.0748	4
