Mass spectrum: VAL_n_200.1289_18.1; LC-ESI-QFT; MS2; CE: 80%; R=17500; [M-H]-
Name: VAL_n_200.1289_18.1
Name: 3-Methyl-2-pentanamidobutanoic acid
Name: pentanoylvaline
Class: identified ozonation transformation product
Formula: C10H19NO3
Exact mass: 201.1365
SMILES: CC(C(C(O)=O)NC(CCCC)=O)C
InChI: InChI=1S/C10H19NO3/c1-4-5-6-8(12)11-9(7(2)3)10(13)14/h7,9H,4-6H2,1-3H3,(H,11,12)(H,13,14)
Instrument: Q Exactive Plus Orbitrap Thermo Scientific
Instrument type: LC-ESI-QFT
Ms type: MS2
Ion mode: NEGATIVE
Ionization: ESI
Fragmentation mode: HCD
Collision energy: 80 % (nominal)
Resolution: 17500
Column name: C18 Atlantis T3 5 um, 3x150 mm, Waters
Retention time: 17.030 min
Base peak: 91.0037
Precursor m/z: 200.1292
Precursor type: [M-H]-
Precursor intensity: 1508132
m/z	relative intensity	assigned
57.0343	405	C3H5O-
58.0297	328	C2H4NO-
68.4811	803	
139.1128	999	C9H15O-
