Mass spectrum: CIT_p_341.1661_16.2; LC-ESI-QFT; MS2; CE: 20%; R=17500; [M+H]+
Name: CIT_p_341.1661_16.2
Name: Citalopram N-oxide
Name: 3-[5-cyano-1-(4-fluorophenyl)-3H-2-benzofuran-1-yl]-N,N-dimethylpropan-1-amine oxide
Class: identified ozonation transformation product
Formula: C20H21FN2O2
Exact mass: 340.1587
SMILES: C[N+]([O-])(CCCC1(OCC2=C1C=CC(C#N)=C2)C3=CC=C(F)C=C3)C
InChI: InChI=1S/C20H21FN2O2/c1-23(2,24)11-3-10-20(17-5-7-18(21)8-6-17)19-9-4-15(13-22)12-16(19)14-25-20/h4-9,12H,3,10-11,14H2,1-2H3
Instrument: Q Exactive Plus Orbitrap Thermo Scientific
Instrument type: LC-ESI-QFT
Ms type: MS2
Ion mode: POSITIVE
Ionization: ESI
Fragmentation mode: HCD
Collision energy: 20 % (nominal)
Resolution: 17500
Column name: C18 Atlantis T3 5 um, 3x150 mm, Waters
Retention time: 16.508 min
Base peak: 163.1329
Precursor m/z: 341.166
Precursor type: [M+H]+
Precursor intensity: 68221616
m/z	relative intensity	assigned
62.06	2	C2H8NO+
109.0448	135	C7H6F+
116.0494	16	C8H6N+
123.0239	6	C7H4FO+
144.0444	1	C9H6NO+
156.0808	5	C11H10N+
166.065	14	C12H8N+
184.0757	12	C12H10NO+
234.0705	7	C16H9FN+
236.086	1	C16H11FN+
262.1027	497	C18H13FN+
280.1132	333	C18H15FNO+
341.166	999	C20H22FN2O2+
