Mass spectrum: PHE_p_237.0868_15.1; LC-ESI-QFT; MS2; CE: 65%; R=17500; [M+H]+
Name: PHE_p_237.0868_15.1
Name: 2-(N-[acetyl(methyl)amino]anilino)-2-oxoacetic acid
Class: identified ozonation transformation product
Formula: C11H12N2O4
Exact mass: 236.0797
SMILES: CC(=O)N(C)N(C(=O)C(=O)O)c1ccccc1
InChI: InChI=1S/C11H12N2O4/c1-8(14)12(2)13(10(15)11(16)17)9-6-4-3-5-7-9/h3-7H,1-2H3,(H,16,17)
Instrument: Q Exactive Plus Orbitrap Thermo Scientific
Instrument type: LC-ESI-QFT
Ms type: MS2
Ion mode: POSITIVE
Ionization: ESI
Fragmentation mode: HCD
Collision energy: 65 % (nominal)
Resolution: 17500
Column name: C18 Atlantis T3 5 um, 3x150 mm, Waters
Retention time: 14.535 min
Base peak: 192.121
Precursor m/z: 237.087
Precursor type: [M+H]+
Precursor intensity: 1422502.625
m/z	relative intensity	assigned
53.0386	68	C4H5+
55.0178	24	C3H3O+
56.0494	17	C3H6N+
57.0334	9	C3H5O+
58.0287	27	C2H4NO+
60.0443	13	C2H6NO+
65.0386	261	C5H5+
69.0333	9	C4H5O+
69.07	12	C5H9+
74.0601	17	C3H8NO+
77.0384	31	C6H5+
79.0542	48	C6H7+
80.0495	11	C5H6N+
81.057	6	C5H7N+
82.0651	7	C5H8N+
83.0491	11	C5H7O+
88.0757	10	C4H10NO+
92.0495	270	C6H6N+
93.0336	104	C6H5O+
93.0574	197	C6H7N+
94.0651	319	C6H8N+
95.0491	255	C6H7O+
95.0853	9	
104.0493	54	C7H6N+
105.0448	135	C6H5N2+
106.0651	123	C7H8N+
107.0605	19	C6H7N2+
107.0729	25	C7H9N+
108.0682	999	C6H8N2+
110.0598	7	C6H8NO+
111.0441	206	C6H7O2+
120.0444	237	C7H6NO+
121.0522	24	C7H7NO+
121.0756	14	C7H9N2+
122.0598	20	C7H8NO+
122.0841	11	C7H10N2+
123.0911	30	C7H11N2+
125.0597	15	C7H9O2+
133.0761	25	C8H9N2+
134.0474	61	C7H6N2O+
149.071	39	C8H9N2O+
191.1267	18	
