Mass spectrum: SUL_p_358.1432_10.5; LC-ESI-QFT; MS2; CE: 15%; R=17500; [M+H]+
Name: SUL_p_358.1432_10.5
Name: N-[(1-ethyl-1-oxidopyrrolidin-1-ium-2-yl)methyl]-2-methoxy-5-sulfamoylbenzamide
Class: identified ozonation transformation product
Formula: C15H23N3O5S
Exact mass: 357.1358
SMILES: CC[N+]1(CCCC1CNC(=O)C2=C(C=CC(=C2)[S](=O)(=O)N)OC)[O-]
InChI: InChI=1S/C15H23N3O5S/c1-3-18(20)8-4-5-11(18)10-17-15(19)13-9-12(24(16,21)22)6-7-14(13)23-2/h6-7,9,11H,3-5,8,10H2,1-2H3,(H,17,19)(H2,16,21,22)
Instrument: Q Exactive Plus Orbitrap Thermo Scientific
Instrument type: LC-ESI-QFT
Ms type: MS2
Ion mode: POSITIVE
Ionization: ESI
Fragmentation mode: HCD
Collision energy: 15 % (nominal)
Resolution: 17500
Column name: C18 Atlantis T3 5 um, 3x150 mm, Waters
Retention time: 10.613 min
Base peak: 358.1433
Precursor m/z: 358.1431
Precursor type: [M+H]+
Precursor intensity: 70901408
m/z	relative intensity	assigned
74.0573	1	H10O4+
74.0608	1	C3H8NO+
98.0969	2	H18O3S+
128.1071	7	C7H14NO+
214.0153	9	C14H2N2O+
278.164	1	C15H22N2O3+
297.0907	1	C13H17N2O4S+
340.1316	1	C15H22N3O4S+
358.1432	999	C15H24N3O5S+
