Mass spectrum: CBDZ-M; LC-ESI-QFT; MS2; CE: 180%; R=17500; [M+H]+
Name: CBDZ-M
Name: Lobendazole
Name: ethyl N-(1H-benzimidazol-2-yl)carbamate
Formula: C10H11N3O2
Exact mass: 205.0851
SMILES: O=C(NC1=NC2=CC=CC=C2N1)OCC
InChI: InChI=1S/C10H11N3O2/c1-2-15-10(14)13-9-11-7-5-3-4-6-8(7)12-9/h3-6H,2H2,1H3,(H2,11,12,13,14)
Instrument: Q-Exactive + Thermo Scientific
Instrument type: LC-ESI-QFT
Ms type: MS2
Ion mode: POSITIVE
Ionization: ESI
Fragmentation mode: HCD
Collision energy: 180 % (nominal)
Resolution: 17500
Column name: Atlantis T3 3um, 3.0x150mm, Waters
Retention time: 15.185 min
Base peak: 268.1907
Precursor m/z: 206.0924
Precursor type: [M+H]+
m/z	relative intensity	assigned
50.015	21	C4H2+
51.0229	66	C4H3+
52.0307	31	C4H4+
53.0022	40	C3HO+
53.0386	54	C4H5+
53.9974	4	C2NO+
54.0339	3	C3H4N+
62.0149	5	C5H2+
63.0229	92	C5H3+
64.0182	63	C4H2N+
65.0386	999	C5H5+
66.0464	54	C5H6+
78.0338	97	C5H4N+
79.0417	21	C5H5N+
80.0495	163	C5H6N+
81.0335	6	C5H5O+
90.0338	110	C6H4N+
91.0418	15	C6H5N+
92.0494	112	C6H6N+
93.0573	84	C6H7N+
96.0444	18	C5H6NO+
104.0344	3	C3H6NO3+
105.0447	152	C6H5N2+
106.0529	15	C6H6N2+
107.0604	13	C6H7N2+
132.0557	6	C7H6N3+
133.0641	5	C7H7N3+
134.0712	4	C7H8N3+
135.0557	4	C7H7N2O+
