Mass spectrum: SMZ-AcOH; LC-ESI-QFT; MS2; CE: 120%; R=17500; [M-H]-
Name: SMZ-AcOH
Formula: C12H13N3O5S
Exact mass: 311.0576
Instrument: Q-Exactive + Thermo Scientific
Instrument type: LC-ESI-QFT
Ms type: MS2
Ion mode: NEGATIVE
Ionization: ESI
Fragmentation mode: HCD
Collision energy: 120 % (nominal)
Resolution: 17500
Column name: Atlantis T3 3um, 3.0x150mm, Waters
Retention time: 16.866 min
Base peak: 91.0036
Precursor m/z: 310.0503
Precursor type: [M-H]-
m/z	relative intensity	assigned
61.9705	89	NOS-
63.9625	999	O2S-
77.9656	36	NO2S-
78.9732	90	HNO2S-
79.9572	37	O3S-
92.0507	40	C6H6N-
93.0346	143	C6H5O-
104.0504	48	C7H6N-
120.0454	448	C7H6NO-
