Mass spectrum: Benzotriazolyl-3-propanoic acid (TP22) (Tentative); LC-ESI-ITFT; MS2; 80-110; R=7500; [M+H]+
Name: Benzotriazolyl-3-propanoic acid (TP22) (Tentative)
Name: 1H-Benzotriazole Transformation Product 22
Formula: C9H9N3O2
Exact mass: 191.0695
Instrument: LTQ Orbitrap XL Thermo Scientific
Instrument type: LC-ESI-ITFT
Ms type: MS2
Ion mode: POSITIVE
Ionization: ESI
Fragmentation mode: HCD
Collision energy: scaled 80 (m/z=200) to 110 (m/z=120)
Resolution: 7500
Column name: Atlantis T3 3um, 3.0x150mm, Waters
Retention time: 19.8 min
Base peak: 192.0757
Precursor m/z: 192.0757
Precursor type: [M+H]+
m/z	relative intensity
55.017	9
60.0438	8
65.0377	95
65.0599	14
67.1213	12
70.0434	9
73.0275	48
77.0378	12
91.0534	12
92.0487	130
101.919	8
105.0691	16
119.047	8
120.055	999
150.0906	16
176.0877	8
192.0768	12
192.1011	19
