Mass spectrum: MEF-Glu; LC-ESI-QFT; MS2; CE: 90%; R=17500; [M-H]-
Name: MEF-Glu
Formula: C20H22N2O5
Exact mass: 370.1529
SMILES: O=C(CCC(NC(C1=C(C=CC=C1)NC2=CC=CC(C)=C2C)=O)C(O)=O)O
InChI: InChI=1S/C20H22N2O5/c1-12-6-5-9-15(13(12)2)21-16-8-4-3-7-14(16)19(25)22-17(20(26)27)10-11-18(23)24/h3-9,17,21H,10-11H2,1-2H3,(H,22,25)(H,23,24)(H,26,27)
Instrument: Q-Exactive + Thermo Scientific
Instrument type: LC-ESI-QFT
Ms type: MS2
Ion mode: NEGATIVE
Ionization: ESI
Fragmentation mode: HCD
Collision energy: 90 % (nominal)
Resolution: 17500
Column name: Atlantis T3 3um, 3.0x150mm, Waters
Retention time: 22.730 min
Base peak: 293.1757
Precursor m/z: 369.1456
Precursor type: [M-H]-
m/z	relative intensity	assigned
57.0345	271	C3H5O-
84.0456	291	C4H6NO-
92.0505	502	C6H6N-
93.0345	254	C6H5O-
180.0819	999	C13H10N-
192.082	481	C14H10N-
194.0979	497	C14H12N-
