Mass spectrum: DIC_n_257.9729_16.7; LC-ESI-QFT; MS2; CE: 55%; R=17500; [M-H]-
Name: DIC_n_257.9729_16.7
Name: Diclofenac -C4H4+O
Name: 2-(2-((2,6-dichlorophenyl)amino)phenyl)acetic acid -C4H4+O
Class: identified ozonation transformation product
Formula: C10H7Cl2NO3
Exact mass: 258.9803
Instrument: Q Exactive Plus Orbitrap Thermo Scientific
Instrument type: LC-ESI-QFT
Ms type: MS2
Ion mode: NEGATIVE
Ionization: ESI
Fragmentation mode: HCD
Collision energy: 55 % (nominal)
Resolution: 17500
Column name: C18 Atlantis T3 5 um, 3x150 mm, Waters
Retention time: 16.654 min
Base peak: 91.0038
Precursor m/z: 257.973
Precursor type: [M-H]-
Precursor intensity: 208207.140625
m/z	relative intensity	assigned
80.9652	37	
123.9959	56	C6H3ClN-
159.9727	999	C6H4Cl2N-
