Mass spectrum: RAN-dm; LC-ESI-QFT; MS2; CE: 90%; R=17500; [M+H]+
Name: RAN-dm
Name: Desmethyl Ranitidine
Name: (E)-1-N-methyl-1-N`-[2-[[5-(methylaminomethyl)furan-2-yl]methylsulfanyl]ethyl]-2-nitroethene-1,1-diamine
Formula: C12H20N4O3S
Exact mass: 300.1256
SMILES: CN/C(NCCSCC1=CC=C(CNC)O1)=C\[N+]([O-])=O
InChI: InChI=1S/C12H20N4O3S/c1-13-7-10-3-4-11(19-10)9-20-6-5-15-12(14-2)8-16(17)18/h3-4,8,13-15H,5-7,9H2,1-2H3/b12-8+
Instrument: Q-Exactive + Thermo Scientific
Instrument type: LC-ESI-QFT
Ms type: MS2
Ion mode: POSITIVE
Ionization: ESI
Fragmentation mode: HCD
Collision energy: 90 % (nominal)
Resolution: 17500
Column name: Atlantis T3 3um, 3.0x150mm, Waters
Retention time: 10.238 min
Base peak: 267.1704
Precursor m/z: 301.1329
Precursor type: [M+H]+
m/z	relative intensity	assigned
53.0388	42	C4H5+
56.0496	98	C3H6N+
61.0105	181	C2H5S+
67.0542	45	C5H7+
79.0544	48	C6H7+
81.0335	999	C5H5O+
97.0759	334	C5H9N2+
102.0371	781	C4H8NS+
125.0059	167	C6H5OS+
130.9818	214	C7HNS+
