Mass spectrum: COF_n_225.0627_12.2; LC-ESI-QFT; MS2; CE: 70%; R=17500; [M-H]-
Name: COF_n_225.0627_12.2
Name: 9-hydroxy-1,3,7-trimethyl-7,9-dihydro-1H-purine-2,6,8(3H)-trione
Class: identified ozonation transformation product
Formula: C8H10N4O4
Exact mass: 226.0702
SMILES: O=C(N(C)C(N1O)=C2N(C)C1=O)N(C)C2=O
InChI: InChI=1S/C8H10N4O4/c1-9-4-5(12(16)8(9)15)10(2)7(14)11(3)6(4)13/h16H,1-3H3
Instrument: Q Exactive Plus Orbitrap Thermo Scientific
Instrument type: LC-ESI-QFT
Ms type: MS2
Ion mode: NEGATIVE
Ionization: ESI
Fragmentation mode: HCD
Collision energy: 70 % (nominal)
Resolution: 17500
Column name: C18 Atlantis T3 5 um, 3x150 mm, Waters
Retention time: 12.263 min
Base peak: 91.0037
Precursor m/z: 225.0629
Precursor type: [M-H]-
Precursor intensity: 668716.875
m/z	relative intensity	assigned
83.0251	999	C3H3N2O-
