Mass spectrum: BEZ-da; LC-ESI-QFT; MS2; CE: 60%; R=17500; [M+H]+
Name: BEZ-da
Name: 4-chloro-N-[2-(4-hydroxyphenyl)ethyl]benzamide
Formula: C15H14ClNO2
Exact mass: 275.0713
SMILES: OC1=CC=C(CCNC(C2=CC=C(Cl)C=C2)=O)C=C1
InChI: InChI=1S/C15H14ClNO2/c16-13-5-3-12(4-6-13)15(19)17-10-9-11-1-7-14(18)8-2-11/h1-8,18H,9-10H2,(H,17,19)
Instrument: Q-Exactive + Thermo Scientific
Instrument type: LC-ESI-QFT
Ms type: MS2
Ion mode: POSITIVE
Ionization: ESI
Fragmentation mode: HCD
Collision energy: 60 % (nominal)
Resolution: 17500
Column name: Atlantis T3 3um, 3.0x150mm, Waters
Retention time: 20.870 min
Base peak: 304.2847
Precursor m/z: 276.0786
Precursor type: [M+H]+
m/z	relative intensity	assigned
53.0023	7	C3HO+
53.0384	11	C4H5+
55.0542	42	C4H7+
57.0699	213	C4H9+
58.0652	12	C3H8N+
59.0491	15	C3H7O+
62.0598	34	C2H8NO+
67.0541	45	C5H7+
69.0698	42	C5H9+
70.0652	218	C4H8N+
71.062	8	C2H12Cl+
71.0855	58	C5H11+
72.0808	104	C4H10N+
74.0598	10	C3H8NO+
77.0386	12	C6H5+
79.0541	10	C6H7+
81.0699	47	C6H9+
83.0493	7	C5H7O+
83.0854	14	C6H11+
86.9996	12	C4H4Cl+
88.0757	215	C4H10NO+
91.0543	174	C7H7+
93.0699	338	C7H9+
95.0491	76	C6H7O+
95.0855	44	C7H11+
97.0646	7	C6H9O+
99.0436	8	C5H7O2+
102.0912	59	C5H12NO+
103.0542	234	C8H7+
105.0446	17	C6H5N2+
105.07	9	C8H9+
106.0863	44	C4H12NO2+
109.1016	29	C8H13+
111.0441	12	C3H10ClNO+
111.0803	41	C7H11O+
121.0648	773	C8H9O+
125.0962	9	C8H13O+
129.0102	47	C6H6ClO+
131.0859	7	C10H11+
135.1008	7	C4H13N3O2+
137.0965	12	C9H13O+
138.9947	999	C7H4ClO+
139.0057	166	C9HNO+
153.0908	10	C9H13O2+
155.1062	15	C9H15O2+
