Mass spectrum: SMZ-PtO; LC-ESI-QFT; MS2; CE: 60%; R=17500; [M-H]-
Name: SMZ-PtO
Formula: C17H15N7O5S
Exact mass: 429.0855
SMILES: CC1=CC(NS(=O)(C2=CC=C(NCC3=NC(C(NC(O)=N4)=O)=C4N=C3)C=C2)=O)=NO1
InChI: InChI=1S/C17H15N7O5S/c1-9-6-13(23-29-9)24-30(27,28)12-4-2-10(3-5-12)18-7-11-8-19-15-14(20-11)16(25)22-17(26)21-15/h2-6,8,18H,7H2,1H3,(H,23,24)(H2,19,21,22,25,26)
Instrument: Q-Exactive + Thermo Scientific
Instrument type: LC-ESI-QFT
Ms type: MS2
Ion mode: NEGATIVE
Ionization: ESI
Fragmentation mode: HCD
Collision energy: 60 % (nominal)
Resolution: 17500
Column name: Atlantis T3 3um, 3.0x150mm, Waters
Retention time: 16.803 min
Base peak: 91.0036
Precursor m/z: 428.0783
Precursor type: [M-H]-
m/z	relative intensity	assigned
63.9624	37	O2S-
77.9656	4	NO2S-
79.0299	1	C4H3N2-
79.9574	2	O3S-
82.0298	33	C4H4NO-
91.0427	16	C6H5N-
92.0506	115	C6H6N-
96.0328	23	C4H4N2O-
104.0251	2	C5H2N3-
105.0332	3	C5H3N3-
107.0377	103	C6H5NO-
117.0461	14	C7H5N2-
119.0616	2	C7H7N2-
120.0205	4	C5H2N3O-
122.0249	14	C6H4NO2-
131.0493	13	C7H5N3-
132.0441	9	C6H4N4-
133.028	34	C6H3N3O-
134.0362	3	C6H4N3O-
145.0645	8	C8H7N3-
146.0726	13	C8H8N3-
155.0046	56	C6H5NO2S-
156.0125	54	C6H6NO2S-
159.995	12	C4H4N2O3S-
161.072	16	C9H9N2O-
162.0175	3	C4N7O-
163.0261	10	C6H3N4O2-
170.0163	2	C6H6N2O2S-
170.0725	7	C10H8N3-
175.026	12	C7H3N4O2-
176.0339	999	C7H4N4O2-
177.0421	10	C7H5N4O2-
187.0745	7	C2H13N5O3S-
195.0678	3	C5H13N3O3S-
196.0757	2	C11H8N4-
197.0835	7	C11H9N4-
208.0239	25	C7H4N4O4-
211.0631	2	C5H13N3O4S-
224.0705	3	C6H14N3O4S-
225.0784	21	C14H11NO2-
239.0566	3	C4H11N6O4S-
266.0678	12	C13H8N5O2-
267.0763	51	C13H9N5O2-
268.0843	23	C13H10N5O2-
270.0632	4	C12H8N5O3-
332.046	3	C13H10N5O4S-
