Mass spectrum: 1-Hydroxybenzotriazole; LC-ESI-ITFT; MS2; 80-110; R=7500; [M+H]+
Name: 1-Hydroxybenzotriazole
Name: 1-Hydroxy-1H-benzotriazole
Formula: C6H5N3O
Exact mass: 135.0433
SMILES: C1=CC=C2C(=C1)N=NN2O
InChI: InChI=1S/C6H5N3O/c10-9-6-4-2-1-3-5(6)7-8-9/h1-4,10H
Instrument: LTQ Orbitrap XL Thermo Scientific
Instrument type: LC-ESI-ITFT
Ms type: MS2
Ion mode: POSITIVE
Ionization: ESI
Fragmentation mode: HCD
Collision energy: scaled 80 (m/z=200) to 110 (m/z=120)
Resolution: 7500
Column name: Atlantis T3 3um, 3.0x150mm, Waters
Retention time: 16.5 min
Base peak: 136.0505
Precursor m/z: 136.0505
Precursor type: [M+H]+
m/z	relative intensity
53.0377	7
63.0221	96
64.0299	100
65.0251	41
77.0378	34
78.0456	45
80.0488	18
81.0327	8
90.0332	8
91.0291	12
91.041	999
91.0503	8
91.0552	10
91.0659	6
92.0361	15
95.0485	7
105.0442	13
109.0517	7
119.0472	122
136.0499	99
