Mass spectrum: SIT_p_426.0996_19.1; LC-ESI-QFT; MS2; CE: 15%; R=17500; [M+H]+
Name: SIT_p_426.0996_19.1
Name: Demethylated Nitrositagliptin
Name: 3-nitro-1-(3-(trifluoromethyl)-5,6-dihydro-[1,2,4]triazolo[4,3-a]pyrazin-7(8H)-yl)-4-(2,4,5-trifluorophenyl)butan-1-one -CH2
Class: identified ozonation transformation product
Formula: C15H13F6N5O3
Exact mass: 425.0923
Instrument: Q Exactive Plus Orbitrap Thermo Scientific
Instrument type: LC-ESI-QFT
Ms type: MS2
Ion mode: POSITIVE
Ionization: ESI
Fragmentation mode: HCD
Collision energy: 15 % (nominal)
Resolution: 17500
Column name: C18 Atlantis T3 5 um, 3x150 mm, Waters
Retention time: 18.946 min
Base peak: 221.1748
Precursor m/z: 426.0995
Precursor type: [M+H]+
Precursor intensity: 963192.1875
m/z	relative intensity	assigned
242.0787	628	C12H11F3NO+
289.0796	999	C12H12F3N2O3+
426.0999	463	C15H14F6N5O3+
