Mass spectrum: 1H-Benzotriazole TP10 (Tentative); LC-ESI-ITFT; MS2; 80-110; R=7500; [M+H]+
Name: 1H-Benzotriazole TP10 (Tentative)
Name: 1H-Benzotriazole Transformation Product 10 (TP10)
Formula: C5H5N3O3
Exact mass: 155.0330
Instrument: LTQ Orbitrap XL Thermo Scientific
Instrument type: LC-ESI-ITFT
Ms type: MS2
Ion mode: POSITIVE
Ionization: ESI
Fragmentation mode: HCD
Collision energy: scaled 80 (m/z=200) to 110 (m/z=120)
Resolution: 7500
Column name: Atlantis T3 3um, 3.0x150mm, Waters
Retention time: 13.8 min
Base peak: 156.0396
Precursor m/z: 156.0396
Precursor type: [M+H]+
m/z	relative intensity
54.0325	478
55.0169	624
58.064	765
65.0597	610
68.012	645
112.0499	999
