Mass spectrum: BEZ-da; LC-ESI-QFT; MS2; CE: 75%; R=17500; [M+H]+
Name: BEZ-da
Name: 4-chloro-N-[2-(4-hydroxyphenyl)ethyl]benzamide
Formula: C15H14ClNO2
Exact mass: 275.0713
SMILES: OC1=CC=C(CCNC(C2=CC=C(Cl)C=C2)=O)C=C1
InChI: InChI=1S/C15H14ClNO2/c16-13-5-3-12(4-6-13)15(19)17-10-9-11-1-7-14(18)8-2-11/h1-8,18H,9-10H2,(H,17,19)
Instrument: Q-Exactive + Thermo Scientific
Instrument type: LC-ESI-QFT
Ms type: MS2
Ion mode: POSITIVE
Ionization: ESI
Fragmentation mode: HCD
Collision energy: 75 % (nominal)
Resolution: 17500
Column name: Atlantis T3 3um, 3.0x150mm, Waters
Retention time: 20.870 min
Base peak: 304.2847
Precursor m/z: 276.0786
Precursor type: [M+H]+
m/z	relative intensity	assigned
51.0229	59	C4H3+
53.0021	25	C3HO+
53.0386	121	C4H5+
55.0178	31	C3H3O+
55.0542	97	C4H7+
57.0699	329	C4H9+
58.065	23	C3H8N+
59.049	21	C3H7O+
62.0598	19	C2H8NO+
65.0386	21	C5H5+
67.0542	109	C5H7+
68.0496	13	C4H6N+
69.0698	73	C5H9+
70.0284	21	C3H4NO+
70.0651	304	C4H8N+
71.0856	27	C5H11+
72.0808	170	C4H10N+
74.06	19	C3H8NO+
75.0228	26	C6H3+
77.0384	52	C6H5+
79.0543	59	C6H7+
81.0332	16	C5H5O+
81.0698	110	C6H9+
83.0491	18	C5H7O+
83.0854	24	C6H11+
86.9996	80	C4H4Cl+
88.0756	187	C4H10NO+
91.0542	590	C7H7+
93.0699	565	C7H9+
95.0492	314	C6H7O+
95.0854	52	C7H11+
102.0913	22	C5H12NO+
103.0542	706	C8H7+
105.0448	141	C6H5N2+
105.0702	16	C8H9+
107.0856	21	C8H11+
111.0447	17	C3H10ClNO+
111.0803	25	C7H11O+
119.0854	14	C9H11+
121.0648	702	C8H9O+
129.0101	246	C6H6ClO+
131.0858	16	C10H11+
138.9946	999	C7H4ClO+
139.0059	594	C9HNO+
