Mass spectrum: SIT_n_436.0847_18.3; LC-ESI-QFT; MS2; CE: 15%; R=17500; [M-H]-
Name: SIT_n_436.0847_18.3
Name: Sitagliptin -H2 +O2
Name: 3-amino-1-(3-(trifluoromethyl)-5,6-dihydro-[1,2,4]triazolo[4,3-a]pyrazin-7(8H)-yl)-4-(2,4,5-trifluorophenyl)butan-1-one -H2 +O2
Class: identified ozonation transformation product
Formula: C16H13F6N5O3
Exact mass: 437.0923
Instrument: Q Exactive Plus Orbitrap Thermo Scientific
Instrument type: LC-ESI-QFT
Ms type: MS2
Ion mode: NEGATIVE
Ionization: ESI
Fragmentation mode: HCD
Collision energy: 15 % (nominal)
Resolution: 17500
Column name: C18 Atlantis T3 5 um, 3x150 mm, Waters
Retention time: 19.065 min
Base peak: 436.0842
Precursor m/z: 436.085
Precursor type: [M-H]-
Precursor intensity: 64477204
m/z	relative intensity	assigned
84.0093	11	C3H2NO2-
136.0128	81	C3HF3N3-
145.0269	105	C2H3F4N3-
149.0204	80	C4H2F3N3-
150.0286	42	C9H4F2-
161.0086	19	C9HF2N-
163.0235	62	C4H2F3N4-
164.0083	32	C9H2F2O-
164.0316	88	C4H3F3N4-
165.0391	67	C4H4F3N4-
168.0263	89	C3H3F3N4O-
170.0222	106	C3H2F4N4-
171.0063	36	C8H2F3O-
177.039	14	C5H4F3N4-
178.0107	31	C4HF3N4O-
180.0266	84	C9H4F2NO-
182.0224	71	C9H3F3N-
184.0376	133	C4H4F4N4-
189.0395	129	C11H5F2N-
191.0189	217	C10H3F2NO-
191.0549	999	C6H6F3N4-
200.033	39	C9H5F3NO-
203.0184	15	C6H2F3N4O-
206.0061	30	C10H2F2NO2-
208.022	36	C10H4F2NO2-
210.0159	9	C8HF3N4-
218.0662	34	C12H8F2N2-
219.0497	69	C7H6F3N4O-
226.0116	46	C5H2F4N4O2-
228.0276	395	C5H4F4N4O2-
229.0344	22	C13H5F2NO-
233.066	15	C13H9F2NO-
235.0317	19	C14H4FN2O-
244.0233	22	C10H5F3NO3-
246.0606	456	C8H7F3N5O-
247.0448	26	C8H6F3N4O2-
249.0478	51	C7H6F3N5O2-
256.0456	30	C14H6F2N2O-
259.0449	23	C9H6F3N4O2-
273.0483	57	C14H7F2N2O2-
329.047	35	C13H6F5N4O-
355.0623	38	C15H8F5N4O-
371.0572	38	C15H8F5N4O2-
374.0847	15	C15H10F6N5-
375.0677	23	C15H9F6N4O-
380.058	26	C16H7F5N5O-
381.0645	20	C16H8F5N5O-
389.0835	241	C16H11F6N4O-
398.0679	110	C16H9F5N5O2-
401.0718	20	C16H9F6N5O-
405.0804	48	C16H11F6N4O2-
418.0737	98	C16H10F6N5O2-
