Mass spectrum: SPA-5DC (TENTATIVE); LC-ESI-ITFT; MS2; HCD60; [M-H]-
Name: SPA-5DC (TENTATIVE)
Name: Sulfophenyl alkyl dicarboxylic acid
Name: 4-(4-sulfophenyl)heptanedioic acid
Formula: C13H16O7S
Exact mass: 316.0617
SMILES: OS(=O)(=O)c1ccc(cc1)C(CCC(=O)O)CCC(=O)O
InChI: InChI=1S/C13H16O7S/c14-12(15)7-3-10(4-8-13(16)17)9-1-5-11(6-2-9)21(18,19)20/h1-2,5-6,10H,3-4,7-8H2,(H,14,15)(H,16,17)(H,18,19,20)
Instrument: LTQ Orbitrap XL Thermo Scientific
Instrument type: LC-ESI-ITFT
Ms type: MS2
Ion mode: NEGATIVE
Ionization: ESI
Fragmentation mode: HCD
Collision energy: 60 NCE
Base peak: 315.0533
Precursor m/z: 315.0533
Precursor type: [M-H]-
m/z	relative intensity
76.1545	2
79.9576	24
80.9655	5
170.004	19
183.0119	75
184.0199	16
211.0442	5
235.0599	3
243.0327	157
251.1051	2
253.0533	25
255.0328	33
256.0404	2
271.064	60
297.0431	48
313.6974	2
315.0533	999
316.0542	2
