Mass spectrum: ETO_n_302.1395_19.6; LC-ESI-QFT; MS2; CE: 35%; R=17500; [M-H]-
Name: ETO_n_302.1395_19.6
Name: Hydroxy-Etodolac
Name: Hydroxilation of 2-(1,8-diethyl-1,3,4,9-tetrahydropyrano[3,4-b]indol-1-yl)acetic acid
Class: identified ozonation transformation product
Formula: C17H21NO4
Exact mass: 303.1471
Instrument: Q Exactive Plus Orbitrap Thermo Scientific
Instrument type: LC-ESI-QFT
Ms type: MS2
Ion mode: NEGATIVE
Ionization: ESI
Fragmentation mode: HCD
Collision energy: 35 % (nominal)
Resolution: 17500
Column name: C18 Atlantis T3 5 um, 3x150 mm, Waters
Retention time: 19.582 min
Base peak: 334.2601
Precursor m/z: 302.1398
Precursor type: [M-H]-
Precursor intensity: 737583.9375
m/z	relative intensity	assigned
71.0503	465	C4H7O-
73.0662	3	C4H9O-
115.0401	999	C5H7O3-
158.0973	5	C11H12N-
184.077	15	C12H10NO-
186.0924	362	C12H12NO-
213.1155	28	C14H15NO-
254.1183	3	C16H16NO2-
257.1063	5	C15H15NO3-
258.15	180	C16H20NO2-
284.1292	16	C17H18NO3-
