Mass spectrum: SMZ-Pt; LC-ESI-QFT; MS2; CE: 45%; R=17500; [M-H]-
Name: SMZ-Pt
Formula: C17H16N8O4S
Exact mass: 428.1015
SMILES: CC1=CC(NS(=O)(C2=CC=C(NCC3=NC(C(NC(N)=N4)=O)=C4N=C3)C=C2)=O)=NO1
InChI: InChI=1S/C17H16N8O4S/c1-9-6-13(24-29-9)25-30(27,28)12-4-2-10(3-5-12)19-7-11-8-20-15-14(21-11)16(26)23-17(18)22-15/h2-6,8,19H,7H2,1H3,(H,24,25)(H3,18,20,22,23,26)
Instrument: Q-Exactive + Thermo Scientific
Instrument type: LC-ESI-QFT
Ms type: MS2
Ion mode: NEGATIVE
Ionization: ESI
Fragmentation mode: HCD
Collision energy: 45 % (nominal)
Resolution: 17500
Column name: Atlantis T3 3um, 3.0x150mm, Waters
Retention time: 16.758 min
Base peak: 91.0036
Precursor m/z: 427.0942
Precursor type: [M-H]-
m/z	relative intensity	assigned
92.0503	114	C6H6N-
98.0243	52	C4H4NO2-
131.0488	124	C7H5N3-
156.0122	441	C6H6NO2S-
159.9953	126	C12O-
161.0719	94	C9H9N2O-
175.0498	999	C7H5N5O-
266.0908	288	C5H14N8O3S-
267.1	416	C13H11N6O-
331.0628	233	C13H11N6O3S-
359.0663	56	C16H7N8O3-
