Mass spectrum: SMX_n_225.9926_16.4; LC-ESI-QFT; MS2; CE: 65%; R=17500; [M-H]-
Name: SMX_n_225.9926_16.4
Name: 6-nitro-2H-benzo[e][1,2,4]thiadiazine 1,1-dioxide
Class: identified ozonation transformation product
Formula: C7H5N3O4S
Exact mass: 227.0001
SMILES: [O-][N+](C1=CC(N=CNS2(=O)=O)=C2C=C1)=O
InChI: InChI=1S/C7H5N3O4S/c11-10(12)5-1-2-7-6(3-5)8-4-9-15(7,13)14/h1-4H,(H,8,9)
Instrument: Q Exactive Plus Orbitrap Thermo Scientific
Instrument type: LC-ESI-QFT
Ms type: MS2
Ion mode: NEGATIVE
Ionization: ESI
Fragmentation mode: HCD
Collision energy: 65 % (nominal)
Resolution: 17500
Column name: C18 Atlantis T3 5 um, 3x150 mm, Waters
Retention time: 16.450 min
Base peak: 91.0038
Precursor m/z: 225.9928
Precursor type: [M-H]-
Precursor intensity: 9959815
m/z	relative intensity	assigned
68.0141	16	C3H2NO-
87.9737	65	CN2OS-
95.0138	7	C5H3O2-
103.9686	340	CN2O2S-
104.0379	18	C6H4N2-
108.0217	209	C6H4O2-
116.038	51	C7H4N2-
119.0251	263	C6H3N2O-
123.0089	15	C6H3O3-
132.0329	999	C7H4N2O-
138.0196	301	C6H4NO3-
162.0309	562	C7H4N3O2-
179.9999	548	C7H4N2O2S-
182.9867	42	C6H3N2O3S-
195.9947	42	C7H4N2O3S-
225.9929	86	C7H4N3O4S-
