Mass spectrum: MEF-Glu; LC-ESI-QFT; MS2; CE: 150%; R=17500; [M+H]+
Name: MEF-Glu
Formula: C20H22N2O5
Exact mass: 370.1529
SMILES: O=C(CCC(NC(C1=C(C=CC=C1)NC2=CC=CC(C)=C2C)=O)C(O)=O)O
InChI: InChI=1S/C20H22N2O5/c1-12-6-5-9-15(13(12)2)21-16-8-4-3-7-14(16)19(25)22-17(20(26)27)10-11-18(23)24/h3-9,17,21H,10-11H2,1-2H3,(H,22,25)(H,23,24)(H,26,27)
Instrument: Q-Exactive + Thermo Scientific
Instrument type: LC-ESI-QFT
Ms type: MS2
Ion mode: POSITIVE
Ionization: ESI
Fragmentation mode: HCD
Collision energy: 150 % (nominal)
Resolution: 17500
Column name: Atlantis T3 3um, 3.0x150mm, Waters
Retention time: 22.708 min
Base peak: 295.1903
Precursor m/z: 371.1601
Precursor type: [M+H]+
m/z	relative intensity	assigned
50.015	22	C4H2+
51.0229	75	C4H3+
53.0021	12	C3HO+
53.0386	71	C4H5+
55.0541	16	C4H7+
63.0228	19	C5H3+
65.0386	72	C5H5+
75.0228	10	C6H3+
77.0384	61	C6H5+
78.0463	20	C6H6+
79.0541	15	C6H7+
89.0383	17	C7H5+
91.0538	84	C7H7+
92.0257	18	C6H4O+
95.049	108	C6H7O+
105.0332	11	C7H5O+
105.0446	61	C6H5N2+
115.0541	63	C9H7+
126.0462	12	C10H6+
127.0542	46	C10H7+
128.0495	136	C9H6N+
128.0616	46	C10H8+
129.0446	11	C8H5N2+
139.0539	57	C11H7+
140.0494	72	C10H6N+
141.0573	8	C10H7N+
145.0648	20	C10H9O+
146.06	36	C9H8NO+
150.0466	11	C12H6+
152.062	853	C12H8+
153.0576	22	C11H7N+
153.0699	103	C12H9+
154.0651	101	C11H8N+
155.06	47	C10H7N2+
155.0729	46	C11H9N+
164.049	10	C12H6N+
165.0697	40	C13H9+
166.065	20	C12H8N+
167.0732	50	C12H9N+
169.0646	185	C12H9O+
177.0574	54	C13H7N+
178.0651	524	C13H8N+
179.0602	44	C12H7N2+
179.073	650	C13H9N+
180.0807	999	C13H10N+
182.0604	49	C12H8NO+
183.068	23	C12H9NO+
191.0726	53	C14H9N+
192.0802	19	C14H10N+
193.0892	42	C14H11N+
196.076	13	C13H10NO+
207.0684	21	C14H9NO+
208.0758	92	C14H10NO+
211.0627	63	C13H9NO2+
