Mass spectrum: SMZ-PtO; LC-ESI-QFT; MS2; CE: 45%; R=17500; [M-H]-
Name: SMZ-PtO
Formula: C17H15N7O5S
Exact mass: 429.0855
SMILES: CC1=CC(NS(=O)(C2=CC=C(NCC3=NC(C(NC(O)=N4)=O)=C4N=C3)C=C2)=O)=NO1
InChI: InChI=1S/C17H15N7O5S/c1-9-6-13(23-29-9)24-30(27,28)12-4-2-10(3-5-12)18-7-11-8-19-15-14(20-11)16(25)22-17(26)21-15/h2-6,8,18H,7H2,1H3,(H,23,24)(H2,19,21,22,25,26)
Instrument: Q-Exactive + Thermo Scientific
Instrument type: LC-ESI-QFT
Ms type: MS2
Ion mode: NEGATIVE
Ionization: ESI
Fragmentation mode: HCD
Collision energy: 45 % (nominal)
Resolution: 17500
Column name: Atlantis T3 3um, 3.0x150mm, Waters
Retention time: 16.803 min
Base peak: 91.0036
Precursor m/z: 428.0783
Precursor type: [M-H]-
m/z	relative intensity	assigned
63.9624	12	O2S-
77.9656	2	NO2S-
79.9573	7	O3S-
82.0299	16	C4H4NO-
92.0505	102	C6H6N-
96.033	33	C4H4N2O-
107.0377	38	C6H5NO-
117.0457	11	C7H5N2-
120.0205	2	C5H2N3O-
122.0249	37	C6H4NO2-
131.0487	8	C7H5N3-
132.0439	11	C6H4N4-
133.028	3	C6H3N3O-
145.0644	3	C8H7N3-
146.0722	23	C8H8N3-
150.0314	2	H10N2O5S-
155.0047	90	C6H5NO2S-
156.0125	135	C6H6NO2S-
159.9948	40	C4H4N2O3S-
161.072	40	C9H9N2O-
162.0175	2	C4N7O-
163.0261	11	C6H3N4O2-
170.0149	1	C6H6N2O2S-
175.0261	11	C7H3N4O2-
176.0339	999	C7H4N4O2-
177.0417	8	C7H5N4O2-
181.037	1	C6H5N4O3-
187.0749	12	C10H9N3O-
188.0825	3	C2H14N5O3S-
190.0397	2	C4H8N5O2S-
197.0832	10	C11H9N4-
208.0237	27	C7H4N4O4-
224.0729	2	C7H10N7S-
224.094	12	C12H10N5-
225.0784	45	C14H11NO2-
228.0238	4	C11H6N3OS-
252.044	16	C16H4N4-
266.0691	3	C7H14N4O5S-
267.0762	145	C13H9N5O2-
268.084	262	C13H10N5O2-
270.0626	20	C4H12N7O5S-
271.0299	1	C12H7N4O2S-
282.0636	2	C13H8N5O3-
288.0561	93	C12H10N5O2S-
289.0401	34	C12H9N4O3S-
313.0266	2	C13H7N5O3S-
314.0352	12	C13H8N5O3S-
315.0435	3	C13H9N5O3S-
332.046	283	C13H10N5O4S-
