Mass spectrum: SMZ-Pt; LC-ESI-QFT; MS2; CE: 180%; R=17500; [M+H]+
Name: SMZ-Pt
Formula: C17H16N8O4S
Exact mass: 428.1015
SMILES: CC1=CC(NS(=O)(C2=CC=C(NCC3=NC(C(NC(N)=N4)=O)=C4N=C3)C=C2)=O)=NO1
InChI: InChI=1S/C17H16N8O4S/c1-9-6-13(24-29-9)25-30(27,28)12-4-2-10(3-5-12)19-7-11-8-20-15-14(21-11)16(26)23-17(18)22-15/h2-6,8,19H,7H2,1H3,(H,24,25)(H3,18,20,22,23,26)
Instrument: Q-Exactive + Thermo Scientific
Instrument type: LC-ESI-QFT
Ms type: MS2
Ion mode: POSITIVE
Ionization: ESI
Fragmentation mode: HCD
Collision energy: 180 % (nominal)
Resolution: 17500
Column name: Atlantis T3 3um, 3.0x150mm, Waters
Retention time: 16.780 min
Base peak: 164.9846
Precursor m/z: 429.1088
Precursor type: [M+H]+
m/z	relative intensity	assigned
51.0228	291	C4H3+
52.018	999	C3H2N+
54.0337	296	C3H4N+
63.0227	259	C5H3+
74.0151	161	C6H2+
79.0291	221	C4H3N2+
81.0448	357	C4H5N2+
89.0388	243	C7H5+
95.0494	196	C6H7O+
