Mass spectrum: TRA_p_280.1905_14.4; LC-ESI-QFT; MS2; CE: 45%; R=17500; [M+H]+
Name: TRA_p_280.1905_14.4
Name: 1-[2-hydroxy-2-(3-methoxyphenyl)cyclohexyl]-N,N-dimethylmethanamine oxide
Class: identified ozonation transformation product
Formula: C16H25NO3
Exact mass: 279.1834
SMILES: COC1=CC(C2(CCCCC2C[N+](C)([O-])C)O)=CC=C1
InChI: InChI=1S/C16H25NO3/c1-17(2,19)12-14-7-4-5-10-16(14,18)13-8-6-9-15(11-13)20-3/h6,8-9,11,14,18H,4-5,7,10,12H2,1-3H3
Instrument: Q Exactive Plus Orbitrap Thermo Scientific
Instrument type: LC-ESI-QFT
Ms type: MS2
Ion mode: POSITIVE
Ionization: ESI
Fragmentation mode: HCD
Collision energy: 45 % (nominal)
Resolution: 17500
Column name: C18 Atlantis T3 5 um, 3x150 mm, Waters
Retention time: 14.368 min
Base peak: 149.1173
Precursor m/z: 280.1907
Precursor type: [M+H]+
Precursor intensity: 58068860
m/z	relative intensity	assigned
55.0542	6	C4H7+
58.0651	869	C3H8N+
62.06	17	C2H8NO+
67.0542	10	C5H7+
69.0698	4	C5H9+
70.0654	4	C4H8N+
72.0808	4	C4H10N+
74.0599	33	C3H8NO+
77.0386	4	C6H5+
79.0543	9	C6H7+
81.0699	12	C6H9+
82.0651	17	C5H8N+
83.0855	12	C6H11+
84.0808	13	C5H10N+
93.0697	21	C7H9+
95.073	8	C6H9N+
107.0492	13	C7H7O+
108.0808	14	C7H10N+
109.0648	22	C7H9O+
110.0964	272	C7H12N+
121.0648	138	C8H9O+
125.0597	41	C7H9O2+
135.0441	999	C8H7O2+
137.0598	12	C8H9O2+
144.057	4	C10H8O+
145.0648	11	C10H9O+
147.0805	28	C10H11O+
159.0805	108	C11H11O+
173.0963	31	C12H13O+
191.1072	19	C12H15O2+
199.1117	6	C14H15O+
201.1273	184	C14H17O+
219.1377	4	C14H19O2+
262.1803	181	C16H24NO2+
280.1906	15	C16H26NO3+
