Mass spectrum: BEZ-M; LC-ESI-QFT; MS2; CE: 30%; R=17500; [M+H]+
Name: BEZ-M
Formula: C20H22ClNO4
Exact mass: 375.1237
SMILES: CC(C(OC)=O)(OC1=CC=C(CCNC(C2=CC=C(Cl)C=C2)=O)C=C1)C
InChI: InChI=1S/C20H22ClNO4/c1-20(2,19(24)25-3)26-17-10-4-14(5-11-17)12-13-22-18(23)15-6-8-16(21)9-7-15/h4-11H,12-13H2,1-3H3,(H,22,23)
Instrument: Q-Exactive + Thermo Scientific
Instrument type: LC-ESI-QFT
Ms type: MS2
Ion mode: POSITIVE
Ionization: ESI
Fragmentation mode: HCD
Collision energy: 30 % (nominal)
Resolution: 17500
Column name: Atlantis T3 3um, 3.0x150mm, Waters
Retention time: 22.957 min
Base peak: 292.1212
Precursor m/z: 376.131
Precursor type: [M+H]+
m/z	relative intensity	assigned
55.0177	9	C3H3O+
57.07	31	C4H9+
69.0335	48	C4H5O+
73.0648	145	C4H9O+
81.0698	4	C6H9+
95.0855	7	C7H11+
97.0647	9	C6H9O+
101.0598	187	C5H9O2+
105.0321	3	C5H3N3+
109.1012	6	C8H13+
113.0598	129	C6H9O2+
121.0649	497	C8H9O+
123.1167	4	C9H15+
127.1119	5	C8H15O+
135.0806	5	C9H11O+
135.1167	4	C10H15+
138.9946	999	C7H4ClO+
141.0547	24	C7H9O3+
149.06	10	C6H12ClNO+
161.0962	77	C11H13O+
179.108	5	C8H18ClNO+
204.1147	59	C13H16O2+
222.1252	82	C13H18O3+
235.1403	4	C10H21NO5+
236.1403	5	C14H20O3+
259.1343	16	C13H22ClNO2+
276.0787	434	C15H15ClNO2+
316.1099	247	C18H19ClNO2+
326.0938	17	C19H17ClNO2+
344.1042	5	C19H19ClNO3+
