Mass spectrum: SMZ-PtO; LC-ESI-QFT; MS2; CE: 120%; R=17500; [M-H]-
Name: SMZ-PtO
Formula: C17H15N7O5S
Exact mass: 429.0855
SMILES: CC1=CC(NS(=O)(C2=CC=C(NCC3=NC(C(NC(O)=N4)=O)=C4N=C3)C=C2)=O)=NO1
InChI: InChI=1S/C17H15N7O5S/c1-9-6-13(23-29-9)24-30(27,28)12-4-2-10(3-5-12)18-7-11-8-19-15-14(20-11)16(25)22-17(26)21-15/h2-6,8,18H,7H2,1H3,(H,23,24)(H2,19,21,22,25,26)
Instrument: Q-Exactive + Thermo Scientific
Instrument type: LC-ESI-QFT
Ms type: MS2
Ion mode: NEGATIVE
Ionization: ESI
Fragmentation mode: HCD
Collision energy: 120 % (nominal)
Resolution: 17500
Column name: Atlantis T3 3um, 3.0x150mm, Waters
Retention time: 16.803 min
Base peak: 91.0036
Precursor m/z: 428.0783
Precursor type: [M-H]-
m/z	relative intensity	assigned
63.9625	764	O2S-
64.0192	43	C4H2N-
65.0146	45	C3HN2-
65.9986	83	C3NO-
66.01	32	C2N3-
77.9655	141	NO2S-
82.0299	82	C4H4NO-
91.0428	538	C6H5N-
92.0505	999	C6H6N-
107.0378	193	C6H5NO-
133.0279	85	C6H3N3O-
137.0746	32	C2H11N5S-
169.0356	34	C3H3N7O2-
176.034	197	C7H4N4O2-
