Mass spectrum: CBZ_n_179.0461_17.2; LC-ESI-QFT; MS2; CE: 85%; R=17500; [M-H]-
Name: CBZ_n_179.0461_17.2
Name: Carbamazepine -C7H4 +O2
Name: Hydroxylation of 4-hydroxy-3,4-dihydroquinazolin-2(1H)-one
Class: identified ozonation transformation product
Formula: C8H8N2O3
Exact mass: 180.0535
Instrument: Q Exactive Plus Orbitrap Thermo Scientific
Instrument type: LC-ESI-QFT
Ms type: MS2
Ion mode: NEGATIVE
Ionization: ESI
Fragmentation mode: HCD
Collision energy: 85 % (nominal)
Resolution: 17500
Column name: C18 Atlantis T3 5 um, 3x150 mm, Waters
Retention time: 17.176 min
Base peak: 91.0038
Precursor m/z: 179.0462
Precursor type: [M-H]-
Precursor intensity: 2986042.5
m/z	relative intensity	assigned
78.035	43	C5H4N-
91.0428	16	C6H5N-
92.0505	40	C6H6N-
106.0299	43	C6H4NO-
107.0377	443	C6H5NO-
118.0296	9	C7H4NO-
134.0248	97	C7H4NO2-
136.0277	7	C6H4N2O2-
137.0356	999	C6H5N2O2-
138.0201	33	C6H4NO3-
138.0389	14	
