Mass spectrum: 4-Methylbenzotriazole; LC-ESI-ITFT; MS2; 80-110; R=7500; [M+H]+
Name: 4-Methylbenzotriazole
Name: 4-Methyl-1H-benzotriazole
Formula: C7H7N3
Exact mass: 133.0640
SMILES: CC1=C2C(=CC=C1)NN=N2
InChI: InChI=1S/C7H7N3/c1-5-3-2-4-6-7(5)9-10-8-6/h2-4H,1H3,(H,8,9,10)
Instrument: LTQ Orbitrap XL Thermo Scientific
Instrument type: LC-ESI-ITFT
Ms type: MS2
Ion mode: POSITIVE
Ionization: ESI
Fragmentation mode: HCD
Collision energy: scaled 80 (m/z=200) to 110 (m/z=120)
Resolution: 7500
Column name: Atlantis T3 3um, 3.0x150mm, Waters
Retention time: 22.0 min
Base peak: 134.0706
Precursor m/z: 134.0706
Precursor type: [M+H]+
m/z	relative intensity
51.022	28
53.0377	370
55.0169	15
65.0377	15
66.0454	18
67.0407	15
77.0374	15
78.0331	32
79.0439	9
79.0534	849
80.0485	36
81.0326	49
89.0378	20
95.0486	11
96.0437	16
104.0489	10
105.0439	35
105.0562	15
106.0644	293
134.0706	999
