Mass spectrum: IRB_p_329.1858_19.4; LC-ESI-QFT; MS2; CE: 25%; R=17500; [M+H]+
Name: IRB_p_329.1858_19.4
Name: 4-((2-butyl-4-oxo-1,3-diazaspiro[4.4]non-1-en-3-yl)methyl)benzoic acid
Class: identified ozonation transformation product
Formula: C19H24N2O3
Exact mass: 328.1787
SMILES: CCCCC1=NC2(C(N1CC3=CC=C(C=C3)C(O)=O)=O)CCCC2
InChI: InChI=1S/C19H24N2O3/c1-2-3-6-16-20-19(11-4-5-12-19)18(24)21(16)13-14-7-9-15(10-8-14)17(22)23/h7-10H,2-6,11-13H2,1H3,(H,22,23)
Instrument: Q Exactive Plus Orbitrap Thermo Scientific
Instrument type: LC-ESI-QFT
Ms type: MS2
Ion mode: POSITIVE
Ionization: ESI
Fragmentation mode: HCD
Collision energy: 25 % (nominal)
Resolution: 17500
Column name: C18 Atlantis T3 5 um, 3x150 mm, Waters
Retention time: 19.234 min
Base peak: 65.0597
Precursor m/z: 329.186
Precursor type: [M+H]+
Precursor intensity: 312300.9375
m/z	relative intensity	assigned
98.9842	394	
116.9949	6	
131.0106	5	
174.9923	97	
294.1791	5	
329.1864	999	C19H25N2O3+
