Mass spectrum: 8phiC8SPC (STANDARD); LC-ESI-QFT; MS2; HCD50; [M-H]-
Name: 8phiC8SPC (STANDARD)
Name: Octacarboxy sulfophenyl carboxylic acid
Name: 8-(4-sulfophenyl)octanoic acid
Formula: C14H20O5S
Exact mass: 300.1031
SMILES: OS(=O)(=O)c1ccc(CCCCCCCC(=O)O)cc1
InChI: InChI=1S/C14H20O5S/c15-14(16)7-5-3-1-2-4-6-12-8-10-13(11-9-12)20(17,18)19/h8-11H,1-7H2,(H,15,16)(H,17,18,19)
Instrument: Q Exactive Orbitrap Thermo Scientific
Instrument type: LC-ESI-QFT
Ms type: MS2
Ion mode: NEGATIVE
Ionization: ESI
Fragmentation mode: HCD
Collision energy: 50 NCE
Base peak: 299.0958
Precursor m/z: 299.0958
Precursor type: [M-H]-
m/z	relative intensity
55.2646	6
63.9617	3
79.9568	107
80.9646	8
155.9887	4
170.0044	886
171.0118	1
183.012	57
184.02	7
197.0282	6
201.9941	33
211.0436	1
217.1234	8
235.134	10
255.1065	8
281.0853	115
299.0958	999
