Mass spectrum: MEF-Glu; LC-ESI-QFT; MS2; CE: 45%; R=17500; [M-H]-
Name: MEF-Glu
Formula: C20H22N2O5
Exact mass: 370.1529
SMILES: O=C(CCC(NC(C1=C(C=CC=C1)NC2=CC=CC(C)=C2C)=O)C(O)=O)O
InChI: InChI=1S/C20H22N2O5/c1-12-6-5-9-15(13(12)2)21-16-8-4-3-7-14(16)19(25)22-17(20(26)27)10-11-18(23)24/h3-9,17,21H,10-11H2,1-2H3,(H,22,25)(H,23,24)(H,26,27)
Instrument: Q-Exactive + Thermo Scientific
Instrument type: LC-ESI-QFT
Ms type: MS2
Ion mode: NEGATIVE
Ionization: ESI
Fragmentation mode: HCD
Collision energy: 45 % (nominal)
Resolution: 17500
Column name: Atlantis T3 3um, 3.0x150mm, Waters
Retention time: 22.730 min
Base peak: 293.1757
Precursor m/z: 369.1456
Precursor type: [M-H]-
m/z	relative intensity	assigned
59.0138	48	C2H3O2-
83.0505	14	C5H7O-
84.0454	94	C4H6NO-
85.0299	14	C4H5O2-
89.1661	10	C2H21N2O-
128.0353	152	C5H6NO3-
180.0824	12	C13H10N-
194.0973	41	C14H12N-
196.1131	999	C14H14N-
221.1085	266	C15H13N2-
222.0923	52	C15H12NO-
223.1334	16	C13H19O3-
239.1189	210	C15H15N2O-
240.1031	71	C15H14NO2-
263.1559	61	C18H19N2-
265.1342	25	C17H17N2O-
281.1656	142	C18H21N2O-
299.0109	21	C17H3N2O4-
