Mass spectrum: SUC_n_403.0202_13.3; LC-ESI-QFT; MS2; CE: 15%; R=17500; [M+HCOO-]-
Name: SUC_n_403.0202_13.3
Name: 6-((2,5-bis(chloromethyl)-3,4-dihydroxytetrahydrofuran-2-yl)oxy)-4,5-dihydroxy-5,6-dihydro-2H-pyran-2-carbaldehyde
Class: identified ozonation transformation product
Formula: C12H16Cl2O8
Exact mass: 358.0222
SMILES: OC1=C(C(OC(C1O)OC2(C(C(C(O2)CCl)O)O)CCl)C=O)[H]
InChI: InChI=1S/C12H16Cl2O8/c13-2-7-9(18)10(19)12(4-14,21-7)22-11-8(17)6(16)1-5(3-15)20-11/h1,3,5,7-11,16-19H,2,4H2
Instrument: Q Exactive Plus Orbitrap Thermo Scientific
Instrument type: LC-ESI-QFT
Ms type: MS2
Ion mode: NEGATIVE
Ionization: ESI
Fragmentation mode: HCD
Collision energy: 15 % (nominal)
Resolution: 17500
Column name: C18 Atlantis T3 5 um, 3x150 mm, Waters
Retention time: 13.325 min
Base peak: 91.0038
Precursor m/z: 403.0204
Precursor type: [M+HCOO]-
Precursor intensity: 74585.6484375
m/z	relative intensity	assigned
141.0192	270	C6H5O4-
357.015	999	C12H15Cl2O8-
