Mass spectrum: SMZ-AcOH; LC-ESI-QFT; MS2; CE: 30%; R=17500; [M-H]-
Name: SMZ-AcOH
Formula: C12H13N3O5S
Exact mass: 311.0576
Instrument: Q-Exactive + Thermo Scientific
Instrument type: LC-ESI-QFT
Ms type: MS2
Ion mode: NEGATIVE
Ionization: ESI
Fragmentation mode: HCD
Collision energy: 30 % (nominal)
Resolution: 17500
Column name: Atlantis T3 3um, 3.0x150mm, Waters
Retention time: 16.866 min
Base peak: 91.0036
Precursor m/z: 310.0503
Precursor type: [M-H]-
m/z	relative intensity	assigned
63.9625	25	O2S-
82.0171	12	C3H2N2O-
82.0298	121	C4H4NO-
92.0504	22	C6H6N-
96.033	35	C4H4N2O-
97.0408	26	C4H5N2O-
119.0613	66	C7H7N2-
120.0455	39	C7H6NO-
121.0772	12	C7H9N2-
122.0611	10	C7H8NO-
141.0018	18	C6H5O2S-
145.065	6	C8H7N3-
150.0563	47	C8H8NO2-
156.0126	33	C6H6NO2S-
159.9946	37	C4H4N2O3S-
160.0877	29	C9H10N3-
168.0124	999	C7H6NO2S-
169.0204	32	C7H7NO2S-
170.0278	153	C7H8NO2S-
173.047	5	C2H11N3O4S-
174.0682	5	C11H10O2-
183.023	43	C7H7N2O2S-
185.039	267	C7H9N2O2S-
187.0749	69	C10H9N3O-
188.083	7	C10H10N3O-
202.099	10	C11H12N3O-
214.0181	60	C8H8NO4S-
230.0936	10	C12H12N3O2-
266.0599	34	C11H12N3O3S-
310.0507	62	C12H12N3O5S-
