Mass spectrum: SMZ-PtO; LC-ESI-QFT; MS2; CE: 15%; R=17500; [M+H]+
Name: SMZ-PtO
Formula: C17H15N7O5S
Exact mass: 429.0855
SMILES: CC1=CC(NS(=O)(C2=CC=C(NCC3=NC(C(NC(O)=N4)=O)=C4N=C3)C=C2)=O)=NO1
InChI: InChI=1S/C17H15N7O5S/c1-9-6-13(23-29-9)24-30(27,28)12-4-2-10(3-5-12)18-7-11-8-19-15-14(20-11)16(25)22-17(26)21-15/h2-6,8,18H,7H2,1H3,(H,23,24)(H2,19,21,22,25,26)
Instrument: Q-Exactive + Thermo Scientific
Instrument type: LC-ESI-QFT
Ms type: MS2
Ion mode: POSITIVE
Ionization: ESI
Fragmentation mode: HCD
Collision energy: 15 % (nominal)
Resolution: 17500
Column name: Atlantis T3 3um, 3.0x150mm, Waters
Retention time: 16.782 min
Base peak: 164.9847
Precursor m/z: 430.0928
Precursor type: [M+H]+
m/z	relative intensity	assigned
134.0347	2	C6H4N3O+
156.0108	2	C6H6NO2S+
177.0399	18	C7H5N4O2+
178.0483	1	C7H6N4O2+
195.0503	2	C7H7N4O3+
268.0828	41	C13H10N5O2+
269.0903	2	C5H15N7O4S+
270.0983	47	C13H12N5O2+
284.0775	42	C13H10N5O3+
300.0725	4	C13H10N5O4+
332.0443	119	C13H10N5O4S+
349.0724	1	C15H15N3O5S+
350.0552	999	C13H12N5O5S+
352.0581	2	C12H12N6O5S+
364.0711	13	C14H14N5O5S+
430.0928	33	C17H16N7O5S+
