Mass spectrum: BEZ-da; LC-ESI-QFT; MS2; CE: 45%; R=17500; [M+H]+
Name: BEZ-da
Name: 4-chloro-N-[2-(4-hydroxyphenyl)ethyl]benzamide
Formula: C15H14ClNO2
Exact mass: 275.0713
SMILES: OC1=CC=C(CCNC(C2=CC=C(Cl)C=C2)=O)C=C1
InChI: InChI=1S/C15H14ClNO2/c16-13-5-3-12(4-6-13)15(19)17-10-9-11-1-7-14(18)8-2-11/h1-8,18H,9-10H2,(H,17,19)
Instrument: Q-Exactive + Thermo Scientific
Instrument type: LC-ESI-QFT
Ms type: MS2
Ion mode: POSITIVE
Ionization: ESI
Fragmentation mode: HCD
Collision energy: 45 % (nominal)
Resolution: 17500
Column name: Atlantis T3 3um, 3.0x150mm, Waters
Retention time: 20.870 min
Base peak: 304.2847
Precursor m/z: 276.0786
Precursor type: [M+H]+
m/z	relative intensity	assigned
57.0699	116	C4H9+
58.065	9	C3H8N+
59.0491	6	C3H7O+
62.0598	33	C2H8NO+
67.0543	9	C5H7+
69.0336	6	C4H5O+
70.0651	84	C4H8N+
71.049	9	C4H7O+
71.0855	54	C5H11+
72.0807	37	C4H10N+
74.0602	12	C3H8NO+
79.0538	6	C6H7+
81.0698	36	C6H9+
85.0646	7	C5H9O+
85.1012	13	C6H13+
88.0757	170	C4H10NO+
90.0809	8	C2H15ClO+
91.0542	44	C7H7+
93.07	87	C7H9+
95.0492	11	C6H7O+
95.0854	22	C7H11+
97.1012	7	C7H13+
98.0965	5	C6H12N+
99.0446	5	C2H10ClNO+
102.0916	70	C5H12NO+
103.0541	40	C8H7+
106.0864	104	C4H12NO2+
109.1011	8	C8H13+
111.0806	12	C7H11O+
119.0859	5	C9H11+
121.0648	861	C8H9O+
123.1169	10	C9H15+
134.0965	8	C9H12N+
138.9946	999	C7H4ClO+
153.0907	9	C9H13O2+
155.1068	42	C9H15O2+
157.0859	8	C8H13O3+
