Mass spectrum: VEN_p_278.1749_19.4; LC-ESI-QFT; MS2; CE: 45%; R=17500; [M+H]+
Name: VEN_p_278.1749_19.4
Name: N-desmethyl venlafaxine -H2 +O
Name: 1-(1-(4-methoxyphenyl)-2-(methylamino)ethyl)cyclohexan-1-ol -H2 +O
Class: identified ozonation transformation product
Formula: C16H23NO3
Exact mass: 277.1678
Instrument: Q Exactive Plus Orbitrap Thermo Scientific
Instrument type: LC-ESI-QFT
Ms type: MS2
Ion mode: POSITIVE
Ionization: ESI
Fragmentation mode: HCD
Collision energy: 45 % (nominal)
Resolution: 17500
Column name: C18 Atlantis T3 5 um, 3x150 mm, Waters
Retention time: 11.592 min
Base peak: 130.159
Precursor m/z: 278.1751
Precursor type: [M+H]+
Precursor intensity: 6772896
m/z	relative intensity	assigned
55.0542	6	C4H7+
56.0495	2	C3H6N+
58.0652	373	C3H8N+
69.0699	4	C5H9+
70.0652	16	C4H8N+
84.0809	13	C5H10N+
98.0965	999	C6H12N+
110.0966	3	C7H12N+
121.0649	1	C8H9O+
125.12	11	C8H15N+
131.0855	3	C10H11+
135.0441	2	C8H7O2+
168.0651	2	C8H10NO3+
260.1648	27	C16H22NO2+
278.1395	6	
278.1755	48	C16H24NO3+
