Mass spectrum: CBDZ-M; LC-ESI-QFT; MS2; CE: 60%; R=17500; [M+H]+
Name: CBDZ-M
Name: Lobendazole
Name: ethyl N-(1H-benzimidazol-2-yl)carbamate
Formula: C10H11N3O2
Exact mass: 205.0851
SMILES: O=C(NC1=NC2=CC=CC=C2N1)OCC
InChI: InChI=1S/C10H11N3O2/c1-2-15-10(14)13-9-11-7-5-3-4-6-8(7)12-9/h3-6H,2H2,1H3,(H2,11,12,13,14)
Instrument: Q-Exactive + Thermo Scientific
Instrument type: LC-ESI-QFT
Ms type: MS2
Ion mode: POSITIVE
Ionization: ESI
Fragmentation mode: HCD
Collision energy: 60 % (nominal)
Resolution: 17500
Column name: Atlantis T3 3um, 3.0x150mm, Waters
Retention time: 15.185 min
Base peak: 268.1907
Precursor m/z: 206.0924
Precursor type: [M+H]+
m/z	relative intensity	assigned
56.0494	2	C3H6N+
58.0651	1	C3H8N+
65.0386	1	C5H5+
74.06	2	C3H8NO+
81.07	1	C6H9+
87.0443	1	C4H7O2+
88.0755	8	C4H10NO+
92.0495	23	C6H6N+
93.0574	4	C6H7N+
93.0695	1	C7H9+
107.0603	2	C6H7N2+
108.0883	1	CH10N5O+
132.0555	20	C7H6N3+
133.0635	23	C7H7N3+
134.0712	999	C7H8N3+
135.055	1	C7H7N2O+
149.0234	2	C8H5O3+
160.0506	792	C8H6N3O+
162.1025	4	C9H12N3+
178.0611	141	C8H8N3O2+
206.0932	2	C10H12N3O2+
