Mass spectrum: SPA-9C (TENTATIVE); LC-ESI-ITFT; MS2; HCD60; [M-H]-
Name: SPA-9C (TENTATIVE)
Name: Propyl-(pentylcarboxy)-sulfophenyl carboxylic acid
Name: 6-(4-sulfophenyl)nonanoic acid
Formula: C15H22O5S
Exact mass: 314.1188
SMILES: OS(=O)(=O)c1ccc(cc1)C(CCC)CCCCC(=O)O
InChI: InChI=1S/C15H22O5S/c1-2-5-12(6-3-4-7-15(16)17)13-8-10-14(11-9-13)21(18,19)20/h8-12H,2-7H2,1H3,(H,16,17)(H,18,19,20)
Instrument: LTQ Orbitrap XL Thermo Scientific
Instrument type: LC-ESI-ITFT
Ms type: MS2
Ion mode: NEGATIVE
Ionization: ESI
Fragmentation mode: HCD
Collision energy: 60 NCE
Base peak: 313.1105
Precursor m/z: 313.1105
Precursor type: [M-H]-
m/z	relative intensity
77.3279	2
77.4513	1
79.2451	1
79.9573	6
81.9528	1
170.0046	1
183.0119	40
184.0205	7
185.0086	3
197.0273	62
198.0365	6
211.0427	3
212.0514	2
225.0578	1
226.067	3
239.0739	3
240.0823	2
249.1476	1
270.0605	1
295.0997	2
313.1105	999
314.1137	125
