Mass spectrum: BZF_p_212.0469_17.1; LC-ESI-QFT; MS2; CE: 75%; R=17500; [M+H]+
Name: BZF_p_212.0469_17.1
Name: 4-chloro-N-(3-oxopropyl)benzamide
Class: identified ozonation transformation product
Formula: C10H10ClNO2
Exact mass: 211.0400
SMILES: O=CCCNC(=O)c1ccc(Cl)cc1
InChI: InChI=1S/C10H10ClNO2/c11-9-4-2-8(3-5-9)10(14)12-6-1-7-13/h2-5,7H,1,6H2,(H,12,14)
Instrument: Q Exactive Plus Orbitrap Thermo Scientific
Instrument type: LC-ESI-QFT
Ms type: MS2
Ion mode: POSITIVE
Ionization: ESI
Fragmentation mode: HCD
Collision energy: 75 % (nominal)
Resolution: 17500
Column name: C18 Atlantis T3 5 um, 3x150 mm, Waters
Retention time: 17.269 min
Base peak: 183.0781
Precursor m/z: 212.0473
Precursor type: [M+H]+
Precursor intensity: 323862.375
m/z	relative intensity	assigned
51.023	23	C4H3+
55.0179	63	C3H3O+
55.0544	20	C4H7+
57.0699	20	C4H9+
70.0652	17	C4H8N+
71.0492	9	C4H7O+
75.0229	10	C6H3+
80.0577	7	
81.0698	18	C6H9+
83.0489	7	C5H7O+
86.9996	52	C4H4Cl+
93.07	16	C7H9+
95.0494	11	C6H7O+
105.0699	12	C8H9+
106.0369	12	
106.0733	9	
110.9997	14	C6H4Cl+
129.0103	141	C6H6ClO+
130.0733	17	
137.0186	7	
138.9947	999	C7H4ClO+
139.0059	504	C9HNO+
151.0215	24	
152.0246	69	C8H7ClN+
153.0006	54	
154.0039	95	C10H2O2+
