Mass spectrum: Methyl-hydroxy-benzotriazole (TP5) (Tentative); LC-ESI-ITFT; MS2; 80-110; R=7500; [M+H]+
Name: Methyl-hydroxy-benzotriazole (TP5) (Tentative)
Name: (4,5,6or7)-hydroxy-(4,5,6or7)-methyl benzotriazole
Formula: C7H7N3O
Exact mass: 149.0589
Instrument: LTQ Orbitrap XL Thermo Scientific
Instrument type: LC-ESI-ITFT
Ms type: MS2
Ion mode: POSITIVE
Ionization: ESI
Fragmentation mode: HCD
Collision energy: scaled 80 (m/z=200) to 110 (m/z=120)
Resolution: 7500
Column name: Atlantis T3 3um, 3.0x150mm, Waters
Retention time: 20.6 min
Base peak: 150.0655
Precursor m/z: 150.0655
Precursor type: [M+H]+
m/z	relative intensity
50.0143	37
51.022	37
52.0299	108
54.033	135
55.017	17
63.0221	112
65.0377	149
66.033	236
67.0534	54
77.0378	29
78.033	169
79.0408	288
81.0326	33
82.028	17
90.0331	57
92.0488	82
93.0202	24
93.0564	28
94.028	337
94.0645	36
95.0359	60
95.0484	114
105.0443	18
106.028	16
107.0359	753
108.0434	20
111.0308	55
125.0462	20
135.0421	999
150.0656	393
