Mass spectrum: 4,(6or7)-dimethyl benzotriazole (Tentative); LC-ESI-ITFT; MS2; 80-110; R=7500; [M+H]+
Name: 4,(6or7)-dimethyl benzotriazole (Tentative)
Formula: C8H9N3
Exact mass: 147.0796
Instrument: LTQ Orbitrap XL Thermo Scientific
Instrument type: LC-ESI-ITFT
Ms type: MS2
Ion mode: POSITIVE
Ionization: ESI
Fragmentation mode: HCD
Collision energy: scaled 80 (m/z=200) to 110 (m/z=120)
Resolution: 7500
Column name: Atlantis T3 3um, 3.0x150mm, Waters
Retention time: 22.1 min
Base peak: 148.0859
Precursor m/z: 148.0859
Precursor type: [M+H]+
m/z	relative intensity
65.0377	198
77.0378	126
79.0537	41
91.0536	999
92.0615	55
104.0489	221
105.044	33
105.0563	56
120.08	80
148.0865	306
