Mass spectrum: SMZ-PtO; LC-ESI-QFT; MS2; CE: 60%; R=17500; [M+H]+
Name: SMZ-PtO
Formula: C17H15N7O5S
Exact mass: 429.0855
SMILES: CC1=CC(NS(=O)(C2=CC=C(NCC3=NC(C(NC(O)=N4)=O)=C4N=C3)C=C2)=O)=NO1
InChI: InChI=1S/C17H15N7O5S/c1-9-6-13(23-29-9)24-30(27,28)12-4-2-10(3-5-12)18-7-11-8-19-15-14(20-11)16(25)22-17(26)21-15/h2-6,8,18H,7H2,1H3,(H,23,24)(H2,19,21,22,25,26)
Instrument: Q-Exactive + Thermo Scientific
Instrument type: LC-ESI-QFT
Ms type: MS2
Ion mode: POSITIVE
Ionization: ESI
Fragmentation mode: HCD
Collision energy: 60 % (nominal)
Resolution: 17500
Column name: Atlantis T3 3um, 3.0x150mm, Waters
Retention time: 16.782 min
Base peak: 164.9847
Precursor m/z: 430.0928
Precursor type: [M+H]+
m/z	relative intensity	assigned
52.0182	3	C3H2N+
53.0135	5	C2HN2+
53.0384	2	C4H5+
65.0387	5	C5H5+
77.0385	3	C6H5+
79.029	56	C4H3N2+
79.0542	7	C6H7+
80.037	2	C4H4N2+
80.0495	13	C5H6N+
81.0447	4	C4H5N2+
88.0755	3	C4H10NO+
92.0494	29	C6H6N+
93.0574	34	C6H7N+
94.0401	5	C4H4N3+
95.0487	23	C6H7O+
96.0557	14	C4H6N3+
97.0398	59	C4H5N2O+
99.0551	37	C4H7N2O+
104.0495	40	C7H6N+
106.04	765	C5H4N3+
106.0651	524	C7H8N+
107.0481	26	C5H5N3+
108.0444	303	C6H6NO+
108.0556	738	C5H6N3+
112.051	2	C4H6N3O+
116.0497	6	C8H6N+
117.057	11	C8H7N+
118.0656	3	C8H8N+
120.0444	6	C7H6NO+
121.0269	3	C5H3N3O+
124.0506	461	C5H6N3O+
128.0495	12	C9H6N+
131.06	4	C8H7N2+
134.0605	4	C2H14O4S+
135.0427	4	C6H5N3O+
138.0301	7	C5H4N3O2+
138.0662	16	C6H8N3O+
141.0451	4	C3H11NO3S+
142.0531	4	C9H6N2+
143.0605	107	C9H7N2+
144.0443	3	C9H6NO+
145.0647	3	C10H9O+
145.0761	7	C9H9N2+
146.0707	23	C8H8N3+
147.0791	26	C8H9N3+
153.044	4	C10H5N2+
155.0605	104	C10H7N2+
156.0118	21	C6H6NO2S+
156.0558	36	C9H6N3+
156.0685	18	C10H8N2+
158.0719	5	C3H14N2O3S+
159.0563	3	C3H13NO4S+
159.0791	31	C9H9N3+
160.0874	7	C3H16N2O3S+
161.002	5	C12HO+
161.0711	3	C9H9N2O+
165.0415	7	H11N3O5S+
166.0257	6	C8H6O4+
166.0489	14	H12N3O5S+
166.0612	3	C7H8N3O2+
168.0557	169	C10H6N3+
169.0392	3	C2H9N4O3S+
170.0713	388	C10H8N3+
171.0539	43	C2H11N4O3S+
171.0678	39	C11H9NO+
172.0507	3	C9H6N3O+
173.0704	21	C10H9N2O+
174.0666	26	C3H14N2O4S+
176.0568	10	C7H6N5O+
177.0408	999	C7H5N4O2+
178.0486	929	C7H6N4O2+
179.0327	11	C7H5N3O3+
180.0558	75	C11H6N3+
181.0359	12	C6H5N4O3+
182.0575	5	C2H10N6O2S+
182.0721	22	C5H14N2O3S+
184.0509	11	C4H12N2O4S+
186.0661	37	C10H8N3O+
187.062	24	C9H7N4O+
188.0812	21	C2H14N5O3S+
192.0515	6	C7H6N5O2+
194.0594	4	C11H6N4+
195.0514	851	C7H7N4O3+
195.0668	110	C5H13N3O3S+
196.0507	65	C3H10N5O3S+
196.0706	5	C6H8N6O2+
197.0457	14	C2H9N6O3S+
197.0822	180	C11H9N4+
198.0664	73	C11H8N3O+
202.0487	15	C9H6N4O2+
207.066	3	C4H11N6O2S+
208.0486	7	C9H8N2O4+
209.0673	85	C8H9N4O3+
211.0621	5	C5H13N3O4S+
213.0414	6	C4H11N3O5S+
213.0777	36	C5H15N3O4S+
214.0612	78	C5H14N2O5S+
216.0777	6	C5H16N2O5S+
222.0777	5	C12H8N5+
223.0615	93	C12H7N4O+
224.0456	17	C6H12N2O5S+
224.0672	8	C10H6N7+
225.077	101	C6H15N3O4S+
226.0623	3	C6H14N2O5S+
227.0557	23	C3H11N6O4S+
239.0564	13	C6H13N3O5S+
239.0791	4	C11H13NO5+
240.0638	19	C4H12N6O4S+
240.0863	4	C4H14N7O3S+
241.072	292	C12H9N4O2+
242.056	69	C12H8N3O3+
251.0554	21	C5H11N6O4S+
252.0645	3	C7H14N3O5S+
253.0595	34	C12H7N5O2+
254.0667	4	C4H12N7O4S+
256.0835	4	C6H16N4O5S+
266.0679	5	C7H14N4O5S+
267.0752	62	C13H9N5O2+
268.083	147	C13H10N5O2+
269.0904	13	C5H15N7O4S+
284.0776	57	C13H10N5O3+
