Mass spectrum: SMZ-Pt; LC-ESI-QFT; MS2; CE: 120%; R=17500; [M-H]-
Name: SMZ-Pt
Formula: C17H16N8O4S
Exact mass: 428.1015
SMILES: CC1=CC(NS(=O)(C2=CC=C(NCC3=NC(C(NC(N)=N4)=O)=C4N=C3)C=C2)=O)=NO1
InChI: InChI=1S/C17H16N8O4S/c1-9-6-13(24-29-9)25-30(27,28)12-4-2-10(3-5-12)19-7-11-8-20-15-14(21-11)16(26)23-17(18)22-15/h2-6,8,19H,7H2,1H3,(H,24,25)(H3,18,20,22,23,26)
Instrument: Q-Exactive + Thermo Scientific
Instrument type: LC-ESI-QFT
Ms type: MS2
Ion mode: NEGATIVE
Ionization: ESI
Fragmentation mode: HCD
Collision energy: 120 % (nominal)
Resolution: 17500
Column name: Atlantis T3 3um, 3.0x150mm, Waters
Retention time: 16.758 min
Base peak: 91.0036
Precursor m/z: 427.0942
Precursor type: [M-H]-
m/z	relative intensity	assigned
63.9623	184	O2S-
66.0097	999	C2N3-
132.0444	206	C6H4N4-
301.0721	139	C9H13N6O4S-
