Mass spectrum: BEZ-da; LC-ESI-QFT; MS2; CE: 120%; R=17500; [M+H]+
Name: BEZ-da
Name: 4-chloro-N-[2-(4-hydroxyphenyl)ethyl]benzamide
Formula: C15H14ClNO2
Exact mass: 275.0713
SMILES: OC1=CC=C(CCNC(C2=CC=C(Cl)C=C2)=O)C=C1
InChI: InChI=1S/C15H14ClNO2/c16-13-5-3-12(4-6-13)15(19)17-10-9-11-1-7-14(18)8-2-11/h1-8,18H,9-10H2,(H,17,19)
Instrument: Q-Exactive + Thermo Scientific
Instrument type: LC-ESI-QFT
Ms type: MS2
Ion mode: POSITIVE
Ionization: ESI
Fragmentation mode: HCD
Collision energy: 120 % (nominal)
Resolution: 17500
Column name: Atlantis T3 3um, 3.0x150mm, Waters
Retention time: 20.870 min
Base peak: 304.2847
Precursor m/z: 276.0786
Precursor type: [M+H]+
m/z	relative intensity	assigned
50.015	95	C4H2+
51.0229	349	C4H3+
53.002	97	C3HO+
53.0386	450	C4H5+
55.0178	18	C3H3O+
55.0542	156	C4H7+
57.0698	95	C4H9+
65.0386	245	C5H5+
67.0542	108	C5H7+
70.065	45	C4H8N+
72.0807	34	C4H10N+
74.0151	39	C6H2+
75.0229	711	C6H3+
77.0385	330	C6H5+
79.0543	75	C6H7+
81.0333	35	C5H5O+
81.0701	27	C6H9+
84.9838	46	C4H2Cl+
86.9996	75	C4H4Cl+
89.0386	26	C7H5+
91.0542	766	C7H7+
93.07	89	C7H9+
94.0414	34	C6H6O+
95.0492	999	C6H7O+
103.0542	382	C8H7+
105.0448	557	C6H5N2+
110.9996	130	C6H4Cl+
128.0621	34	C10H8+
129.0104	231	C6H6ClO+
139.0056	620	C9HNO+
