Mass spectrum: STA-0DC (TENTATIVE); LC-ESI-ITFT; MS2; HCD60; [M-H]-
Name: STA-0DC (TENTATIVE)
Name: 6-sulfo-1,2,3,4-tetrahydronaphthalene-1,4-dicarboxylic acid
Formula: C12H12O7S
Exact mass: 300.030373
SMILES: O=S(=O)(O)c1ccc2c(c1)C(CCC2C(=O)O)C(=O)O
InChI: InChI=1S/C12H12O7S/c13-11(14)8-3-4-9(12(15)16)10-5-6(20(17,18)19)1-2-7(8)10/h1-2,5,8-9H,3-4H2,(H,13,14)(H,15,16)(H,17,18,19)
Instrument: LTQ Orbitrap XL Thermo Scientific
Instrument type: LC-ESI-ITFT
Ms type: MS2
Ion mode: NEGATIVE
Ionization: ESI
Fragmentation mode: HCD
Collision energy: 60 NCE
Base peak: 299.095
Precursor m/z: 299.0231
Precursor type: [M-H]-
m/z	relative intensity
64.9154	2
69.9758	1
79.9574	5
87.0602	2
183.0120	30
184.0200	8
185.0086	3
197.0273	34
198.0352	6
200.0319	1
211.0422	2
212.0509	12
225.0582	4
270.0550	2
281.0825	1
298.0867	1
299.0950	999
300.0983	12
300.3049	1
