Mass spectrum: VAL_n_334.1657_20.4; LC-ESI-QFT; MS2; CE: 25%; R=17500; [M-H]-
Name: VAL_n_334.1657_20.4
Name: Valsartan -C6H4N4 +O2
Name: N-(4-methylbenzyl)-N-pentanoylvaline -H2 +O2
Class: identified ozonation transformation product
Formula: C18H25NO5
Exact mass: 335.1733
Instrument: Q Exactive Plus Orbitrap Thermo Scientific
Instrument type: LC-ESI-QFT
Ms type: MS2
Ion mode: NEGATIVE
Ionization: ESI
Fragmentation mode: HCD
Collision energy: 25 % (nominal)
Resolution: 17500
Column name: C18 Atlantis T3 5 um, 3x150 mm, Waters
Retention time: 20.243 min
Base peak: 300.2545
Precursor m/z: 334.166
Precursor type: [M-H]-
Precursor intensity: 1443865.375
m/z	relative intensity	assigned
84.0092	80	C3H2NO2-
98.0249	22	C4H4NO2-
124.004	54	C5H2NO3-
168.0791	4	C9H12O3-
190.0999	27	C12H14O2-
193.1596	23	C13H21O-
207.1391	21	C13H19O2-
209.1543	4	C13H21O2-
233.1057	36	C13H15NO3-
234.1497	13	C14H20NO2-
247.1703	806	C16H23O2-
248.1654	2	C15H22NO2-
262.182	13	C16H24NO2-
265.0955	2	C13H15NO5-
272.1655	5	C17H22NO2-
273.1498	77	C17H21O3-
277.0955	52	C14H15NO5-
290.1762	999	C17H24NO3-
291.1601	6	C17H23O4-
316.1547	6	C18H22NO4-
317.1398	3	C18H21O5-
334.1661	529	C18H24NO5-
