Mass spectrum: Dihydroxy-benzotriazole (TP7) (Tentative); LC-ESI-ITFT; MS2; 80-110; R=7500; [M+H]+
Name: Dihydroxy-benzotriazole (TP7) (Tentative)
Name: (1,4,5,6and/or7)-dihydroxy-benzotriazole
Formula: C6H5N3O2
Exact mass: 151.0382
Instrument: LTQ Orbitrap XL Thermo Scientific
Instrument type: LC-ESI-ITFT
Ms type: MS2
Ion mode: POSITIVE
Ionization: ESI
Fragmentation mode: HCD
Collision energy: scaled 80 (m/z=200) to 110 (m/z=120)
Resolution: 7500
Column name: Atlantis T3 3um, 3.0x150mm, Waters
Retention time: 8.1 min
Base peak: 152.0447
Precursor m/z: 152.0447
Precursor type: [M+H]+
m/z	relative intensity
50.107	105
53.0268	84
56.077	82
65.0599	344
68.0123	999
78.0331	309
79.0537	130
99.1511	109
102.2041	114
106.0649	223
