Mass spectrum: ASP_p_416.1486_12.8; LC-ESI-QFT; MS2; CE: 15%; R=17500; [M+H]+
Name: ASP_p_416.1486_12.8
Name: 1-ethyl-2-((5-(ethylsulfonyl)-2-methoxy-4-nitrobenzamido)methyl)pyrrolidine 1-oxide
Class: identified ozonation transformation product
Formula: C17H25N3O7S
Exact mass: 415.1413
SMILES: [O-][N+]1(CCCC1CNC(C2=C(OC)C=C([N+]([O-])=O)C(S(=O)(CC)=O)=C2)=O)CC
InChI: InChI=1S/C17H25N3O7S/c1-4-20(24)8-6-7-12(20)11-18-17(21)13-9-16(28(25,26)5-2)14(19(22)23)10-15(13)27-3/h9-10,12H,4-8,11H2,1-3H3,(H,18,21)
Instrument: Q Exactive Plus Orbitrap Thermo Scientific
Instrument type: LC-ESI-QFT
Ms type: MS2
Ion mode: POSITIVE
Ionization: ESI
Fragmentation mode: HCD
Collision energy: 15 % (nominal)
Resolution: 17500
Column name: C18 Atlantis T3 5 um, 3x150 mm, Waters
Retention time: 12.977 min
Base peak: 114.0914
Precursor m/z: 416.1486
Precursor type: [M+H]+
Precursor intensity: 8758272
m/z	relative intensity	assigned
84.0808	1	C5H10N+
98.0967	2	C6H12N+
128.1067	4	C7H14NO+
272.0234	2	C10H10NO6S+
416.1486	999	C17H26N3O7S+
