Mass spectrum: BEZ-M; LC-ESI-QFT; MS2; CE: 180%; R=17500; [M+H]+
Name: BEZ-M
Formula: C20H22ClNO4
Exact mass: 375.1237
SMILES: CC(C(OC)=O)(OC1=CC=C(CCNC(C2=CC=C(Cl)C=C2)=O)C=C1)C
InChI: InChI=1S/C20H22ClNO4/c1-20(2,19(24)25-3)26-17-10-4-14(5-11-17)12-13-22-18(23)15-6-8-16(21)9-7-15/h4-11H,12-13H2,1-3H3,(H,22,23)
Instrument: Q-Exactive + Thermo Scientific
Instrument type: LC-ESI-QFT
Ms type: MS2
Ion mode: POSITIVE
Ionization: ESI
Fragmentation mode: HCD
Collision energy: 180 % (nominal)
Resolution: 17500
Column name: Atlantis T3 3um, 3.0x150mm, Waters
Retention time: 22.957 min
Base peak: 292.1212
Precursor m/z: 376.131
Precursor type: [M+H]+
m/z	relative intensity	assigned
50.0151	322	C4H2+
51.0229	781	C4H3+
52.0306	19	C4H4+
53.0021	91	C3HO+
53.0386	131	C4H5+
55.0177	31	C3H3O+
55.0542	20	C4H7+
63.0229	33	C5H3+
65.0386	257	C5H5+
66.0464	28	C5H6+
74.0151	653	C6H2+
75.0229	999	C6H3+
76.0305	40	C6H4+
77.0386	172	C6H5+
78.0463	32	C6H6+
81.0333	20	C5H5O+
84.9839	142	C4H2Cl+
89.0386	21	C7H5+
91.0543	179	C7H7+
94.0412	19	C6H6O+
95.0492	318	C6H7O+
102.0464	35	C8H6+
105.0448	228	C6H5N2+
115.0543	94	C9H7+
129.0102	25	C6H6ClO+
139.0055	39	C9HNO+
