Mass spectrum: C12-AE1S (TENTATIVE); LC-ESI-ITFT; MS2; HCD60; [M-H]-
Name: C12-AE1S (TENTATIVE)
Name: 2-(dodecyloxy)ethyl hydrogen sulfate
Formula: C14H30O5S
Exact mass: 310.1814
SMILES: O=S(O)(=O)OCCOCCCCCCCCCCCC
InChI: InChI=1S/C14H30O5S/c1-2-3-4-5-6-7-8-9-10-11-12-18-13-14-19-20(15,16)17/h2-14H2,1H3,(H,15,16,17)
Instrument: LTQ Orbitrap XL Thermo Scientific
Instrument type: LC-ESI-ITFT
Ms type: MS2
Ion mode: NEGATIVE
Ionization: ESI
Fragmentation mode: HCD
Collision energy: 60 NCE
Base peak: 309.1730
Precursor m/z: 309.1730
Precursor type: [M-H]-
m/z	relative intensity
96.9603	144
122.976	10
242.953	7
309.173	999
