Mass spectrum: MEF-Glu; LC-ESI-QFT; MS2; CE: 30%; R=17500; [M+H]+
Name: MEF-Glu
Formula: C20H22N2O5
Exact mass: 370.1529
SMILES: O=C(CCC(NC(C1=C(C=CC=C1)NC2=CC=CC(C)=C2C)=O)C(O)=O)O
InChI: InChI=1S/C20H22N2O5/c1-12-6-5-9-15(13(12)2)21-16-8-4-3-7-14(16)19(25)22-17(20(26)27)10-11-18(23)24/h3-9,17,21H,10-11H2,1-2H3,(H,22,25)(H,23,24)(H,26,27)
Instrument: Q-Exactive + Thermo Scientific
Instrument type: LC-ESI-QFT
Ms type: MS2
Ion mode: POSITIVE
Ionization: ESI
Fragmentation mode: HCD
Collision energy: 30 % (nominal)
Resolution: 17500
Column name: Atlantis T3 3um, 3.0x150mm, Waters
Retention time: 22.708 min
Base peak: 295.1903
Precursor m/z: 371.1601
Precursor type: [M+H]+
m/z	relative intensity	assigned
57.0698	11	C4H9+
67.0543	1	C5H7+
89.0593	1	C4H9O2+
95.0856	2	C7H11+
97.101	1	C7H13+
101.0594	2	C5H9O2+
109.1008	2	C8H13+
111.044	5	C6H7O2+
116.0704	1	C5H10NO2+
119.0853	1	C9H11+
121.1017	1	C9H13+
129.0544	6	C6H9O3+
183.1745	1	C12H23O+
224.1069	999	C15H14NO+
242.1167	1	C15H16NO2+
285.0095	9	C20HN2O+
325.1509	1	C14H21N4O5+
357.1668	9	C19H23N3O4+
