Mass spectrum: DIC_n_299.9834_16.4; LC-ESI-QFT; MS2; CE: 35%; R=17500; [M-H]-
Name: DIC_n_299.9834_16.4
Name: (E)-4-((2,6-dichlorophenyl)amino)-3-formyl-5-oxopent-3-enoic acid
Class: identified ozonation transformation product
Formula: C12H9Cl2NO4
Exact mass: 300.9909
SMILES: OC(C/C(C=O)=C(NC1=C(Cl)C=CC=C1Cl)/C=O)=O
InChI: InChI=1S/C12H9Cl2NO4/c13-8-2-1-3-9(14)12(8)15-10(6-17)7(5-16)4-11(18)19/h1-3,5-6,15H,4H2,(H,18,19)/b10-7+
Instrument: Q Exactive Plus Orbitrap Thermo Scientific
Instrument type: LC-ESI-QFT
Ms type: MS2
Ion mode: NEGATIVE
Ionization: ESI
Fragmentation mode: HCD
Collision energy: 35 % (nominal)
Resolution: 17500
Column name: C18 Atlantis T3 5 um, 3x150 mm, Waters
Retention time: 16.408 min
Base peak: 91.0037
Precursor m/z: 299.9836
Precursor type: [M-H]-
Precursor intensity: 45277.49609375
m/z	relative intensity
300.1552	999
