Mass spectrum: CAN_n_365.1000_18.9; LC-ESI-QFT; MS2; CE: 15%; R=17500; [M-H]-
Name: CAN_n_365.1000_18.9
Name: Candesartan -C7H6 +O
Name: 1-((2`-(1H-tetrazol-5-yl)-[1,1`-biphenyl]-4-yl)methyl)-2-ethoxy-1H-benzo[d]imidazole-7-carboxylic acid -C7H6 +O
Class: identified ozonation transformation product
Formula: C17H14N6O4
Exact mass: 366.1077
Instrument: Q Exactive Plus Orbitrap Thermo Scientific
Instrument type: LC-ESI-QFT
Ms type: MS2
Ion mode: NEGATIVE
Ionization: ESI
Fragmentation mode: HCD
Collision energy: 15 % (nominal)
Resolution: 17500
Column name: C18 Atlantis T3 5 um, 3x150 mm, Waters
Retention time: 19.154 min
Base peak: 91.0038
Precursor m/z: 365.1004
Precursor type: [M-H]-
Precursor intensity: 815806.75
m/z	relative intensity	assigned
222.104	24	C14H12N3-
250.1098	108	C14H12N5-
265.1102	21	C15H13N4O-
276.089	178	C15H10N5O-
293.1156	999	C15H13N6O-
321.1104	72	C16H13N6O2-
347.0901	79	C17H11N6O3-
