Mass spectrum: CLI_n_453.1466_17.7; LC-ESI-QFT; MS2; CE: 15%; R=17500; [M-H]-
Name: CLI_n_453.1466_17.7
Name: Clindamycin -H2 +O2
Name: N-(2-chloro-1-(3,4,5-trihydroxy-6-(methylthio)tetrahydro-2H-pyran-2-yl)propyl)-1-methyl-4-propylpyrrolidine-2-carboxamide -H2 +O2
Class: identified ozonation transformation product
Formula: C18H31ClN2O7S
Exact mass: 454.1541
Instrument: Q Exactive Plus Orbitrap Thermo Scientific
Instrument type: LC-ESI-QFT
Ms type: MS2
Ion mode: NEGATIVE
Ionization: ESI
Fragmentation mode: HCD
Collision energy: 15 % (nominal)
Resolution: 17500
Column name: C18 Atlantis T3 5 um, 3x150 mm, Waters
Retention time: 17.653 min
Base peak: 91.0038
Precursor m/z: 453.1468
Precursor type: [M-H]-
Precursor intensity: 46959.859375
m/z	relative intensity	assigned
391.0632	742	C16H20ClO7S-
453.148	999	C18H30ClN2O7S-
