Mass spectrum: C11-LAS (SAMPLE); LC-ESI-QFT; MS2; HCD90; [M-H]-
Name: C11-LAS (SAMPLE)
Name: C11-linear alkylbenzyl sulfonate
Name: 4-(undecan-5-yl)benzenesulfonic acid
Formula: C17H28O3S
Exact mass: 312.1759
SMILES: OS(=O)(=O)c1ccc(cc1)C(CCCC)CCCCCC
InChI: InChI=1S/C17H28O3S/c1-3-5-7-8-10-15(9-6-4-2)16-11-13-17(14-12-16)21(18,19)20/h11-15H,3-10H2,1-2H3,(H,18,19,20)
Instrument: Q Exactive Orbitrap Thermo Scientific
Instrument type: LC-ESI-QFT
Ms type: MS2
Ion mode: NEGATIVE
Ionization: ESI
Fragmentation mode: HCD
Collision energy: 90 NCE
Base peak: 311.1686
Precursor m/z: 311.1686
Precursor type: [M-H]-
m/z	relative intensity
79.9566	412
80.9649	8
91.0554	4
93.0347	9
119.0505	879
132.0578	1
133.0655	12
155.9886	11
170.004	57
183.0116	999
195.0123	18
196.0185	11
197.0273	20
225.0593	5
239.0748	5
