Mass spectrum: SMZ-AcOH; LC-ESI-QFT; MS2; CE: 15%; R=17500; [M-H]-
Name: SMZ-AcOH
Formula: C12H13N3O5S
Exact mass: 311.0576
Instrument: Q-Exactive + Thermo Scientific
Instrument type: LC-ESI-QFT
Ms type: MS2
Ion mode: NEGATIVE
Ionization: ESI
Fragmentation mode: HCD
Collision energy: 15 % (nominal)
Resolution: 17500
Column name: Atlantis T3 3um, 3.0x150mm, Waters
Retention time: 16.866 min
Base peak: 91.0036
Precursor m/z: 310.0503
Precursor type: [M-H]-
m/z	relative intensity	assigned
82.0172	7	C3H2N2O-
82.0297	83	C4H4NO-
119.0614	55	C7H7N2-
150.0559	5	C8H8NO2-
159.9949	20	C4H4N2O3S-
160.0883	13	C9H10N3-
168.0124	158	C7H6NO2S-
170.0279	34	C7H8NO2S-
183.0235	17	C7H7N2O2S-
185.0389	50	C7H9N2O2S-
187.0749	25	C10H9N3O-
200.0828	6	C11H10N3O-
202.0986	41	C11H12N3O-
214.0184	7	C8H8NO4S-
230.0931	35	C12H12N3O2-
237.0333	5	C10H9N2O3S-
264.0448	8	C11H10N3O3S-
266.0602	104	C11H12N3O3S-
310.0503	999	C12H12N3O5S-
