Mass spectrum: SIT_n_420.0899_18.2; LC-ESI-QFT; MS2; CE: 15%; R=17500; [M-H]-
Name: SIT_n_420.0899_18.2
Name: 3-nitroso-1-(3-(trifluoromethyl)-5,6-dihydro-[1,2,4]triazolo[4,3-a]pyrazin-7(8H)-yl)-4-(2,4,5-trifluorophenyl)butan-1-one
Class: identified ozonation transformation product
Formula: C16H13F6N5O2
Exact mass: 421.0973
SMILES: O=C(N1CCN2C(C1)=NN=C2C(F)(F)F)CC(CC3=CC(F)=C(C=C3F)F)N=O
InChI: InChI=1S/C16H13F6N5O2/c17-10-6-12(19)11(18)4-8(10)3-9(25-29)5-14(28)26-1-2-27-13(7-26)23-24-15(27)16(20,21)22/h4,6,9H,1-3,5,7H2
Instrument: Q Exactive Plus Orbitrap Thermo Scientific
Instrument type: LC-ESI-QFT
Ms type: MS2
Ion mode: NEGATIVE
Ionization: ESI
Fragmentation mode: HCD
Collision energy: 15 % (nominal)
Resolution: 17500
Column name: C18 Atlantis T3 5 um, 3x150 mm, Waters
Retention time: 18.247 min
Base peak: 91.0038
Precursor m/z: 420.0901
Precursor type: [M-H]-
Precursor intensity: 104617.1484375
m/z	relative intensity	assigned
136.0128	999	C3HF3N3-
171.0432	24	C9H6F3-
274.0561	126	C14H8F2N2O2-
357.0791	35	C12H11F6N4O2-
377.0841	431	C15H11F6N4O-
402.0789	11	C16H10F6N5O-
420.0901	467	C16H12F6N5O2-
