Mass spectrum: 1H-Benzotriazole TP9 (Tentative); LC-ESI-ITFT; MS2; 80-110; R=7500; [M+H]+
Name: 1H-Benzotriazole TP9 (Tentative)
Name: 1H-Benzotriazole Transformation Product 9 (TP9)
Formula: C5H5N3O3
Exact mass: 155.0330
Instrument: LTQ Orbitrap XL Thermo Scientific
Instrument type: LC-ESI-ITFT
Ms type: MS2
Ion mode: POSITIVE
Ionization: ESI
Fragmentation mode: HCD
Collision energy: scaled 80 (m/z=200) to 110 (m/z=120)
Resolution: 7500
Column name: Atlantis T3 3um, 3.0x150mm, Waters
Retention time: 10.1 min
Base peak: 156.0396
Precursor m/z: 156.0396
Precursor type: [M+H]+
m/z	relative intensity
65.0602	53
85.027	15
87.0532	17
96.0186	999
126.0709	17
138.0293	166
156.0405	39
