Mass spectrum: SMZ-Pt; LC-ESI-QFT; MS2; CE: 75%; R=17500; [M+H]+
Name: SMZ-Pt
Formula: C17H16N8O4S
Exact mass: 428.1015
SMILES: CC1=CC(NS(=O)(C2=CC=C(NCC3=NC(C(NC(N)=N4)=O)=C4N=C3)C=C2)=O)=NO1
InChI: InChI=1S/C17H16N8O4S/c1-9-6-13(24-29-9)25-30(27,28)12-4-2-10(3-5-12)19-7-11-8-20-15-14(21-11)16(26)23-17(18)22-15/h2-6,8,19H,7H2,1H3,(H,24,25)(H3,18,20,22,23,26)
Instrument: Q-Exactive + Thermo Scientific
Instrument type: LC-ESI-QFT
Ms type: MS2
Ion mode: POSITIVE
Ionization: ESI
Fragmentation mode: HCD
Collision energy: 75 % (nominal)
Resolution: 17500
Column name: Atlantis T3 3um, 3.0x150mm, Waters
Retention time: 16.780 min
Base peak: 164.9846
Precursor m/z: 429.1088
Precursor type: [M+H]+
m/z	relative intensity	assigned
79.029	253	C4H3N2+
81.0448	526	C4H5N2+
91.0578	60	C4H11S+
106.04	613	C5H4N3+
106.0653	65	C7H8N+
108.0554	999	C5H6N3+
124.0505	715	C5H6N3O+
133.0505	64	C6H5N4+
143.0604	195	C9H7N2+
148.062	81	C6H6N5+
155.0603	104	C10H7N2+
168.0567	56	C4H12N2O3S+
170.0711	232	C10H8N3+
176.0566	575	C7H6N5O+
177.065	249	CH13N4O4S+
195.0665	395	C11H7N4+
222.0774	75	C12H8N5+
