Mass spectrum: BEZ-M; LC-ESI-QFT; MS2; CE: 15%; R=17500; [M+H]+
Name: BEZ-M
Formula: C20H22ClNO4
Exact mass: 375.1237
SMILES: CC(C(OC)=O)(OC1=CC=C(CCNC(C2=CC=C(Cl)C=C2)=O)C=C1)C
InChI: InChI=1S/C20H22ClNO4/c1-20(2,19(24)25-3)26-17-10-4-14(5-11-17)12-13-22-18(23)15-6-8-16(21)9-7-15/h4-11H,12-13H2,1-3H3,(H,22,23)
Instrument: Q-Exactive + Thermo Scientific
Instrument type: LC-ESI-QFT
Ms type: MS2
Ion mode: POSITIVE
Ionization: ESI
Fragmentation mode: HCD
Collision energy: 15 % (nominal)
Resolution: 17500
Column name: Atlantis T3 3um, 3.0x150mm, Waters
Retention time: 22.957 min
Base peak: 292.1212
Precursor m/z: 376.131
Precursor type: [M+H]+
m/z	relative intensity	assigned
73.0645	5	C4H9O+
101.0597	24	C5H9O2+
113.0597	106	C6H9O2+
121.0645	24	C8H9O+
138.9941	32	C7H4ClO+
141.0546	7	C7H9O3+
149.0598	14	C9H9O2+
185.0821	3	C6H16ClNO3+
197.1168	5	C11H17O3+
221.1173	31	C13H17O3+
227.9991	3	C19+
276.0786	782	C15H15ClNO2+
316.11	281	C18H19ClNO2+
326.0945	6	C19H17ClNO2+
341.1422	16	C20H22ClN2O+
376.1312	999	C20H23ClNO4+
