Mass spectrum: SMZ-PtO; LC-ESI-QFT; MS2; CE: 45%; R=17500; [M+H]+
Name: SMZ-PtO
Formula: C17H15N7O5S
Exact mass: 429.0855
SMILES: CC1=CC(NS(=O)(C2=CC=C(NCC3=NC(C(NC(O)=N4)=O)=C4N=C3)C=C2)=O)=NO1
InChI: InChI=1S/C17H15N7O5S/c1-9-6-13(23-29-9)24-30(27,28)12-4-2-10(3-5-12)18-7-11-8-19-15-14(20-11)16(25)22-17(26)21-15/h2-6,8,18H,7H2,1H3,(H,23,24)(H2,19,21,22,25,26)
Instrument: Q-Exactive + Thermo Scientific
Instrument type: LC-ESI-QFT
Ms type: MS2
Ion mode: POSITIVE
Ionization: ESI
Fragmentation mode: HCD
Collision energy: 45 % (nominal)
Resolution: 17500
Column name: Atlantis T3 3um, 3.0x150mm, Waters
Retention time: 16.782 min
Base peak: 164.9847
Precursor m/z: 430.0928
Precursor type: [M+H]+
m/z	relative intensity	assigned
79.0291	4	C4H3N2+
87.044	4	C4H7O2+
88.0757	10	C4H10NO+
92.0494	10	C6H6N+
93.0573	16	C6H7N+
97.0399	3	C4H5N2O+
99.0552	20	C4H7N2O+
104.0495	16	C7H6N+
106.0399	62	C5H4N3+
106.0651	249	C7H8N+
108.0443	240	C6H6NO+
108.0555	119	C5H6N3+
117.057	3	C8H7N+
124.0506	26	C5H6N3O+
143.0605	17	C9H7N2+
146.0712	16	C8H8N3+
147.0792	12	C8H9N3+
155.0602	28	C10H7N2+
156.0113	30	C6H6NO2S+
156.0684	2	C10H8N2+
159.079	27	C9H9N3+
160.0869	3	C9H10N3+
161.0019	9	C12HO+
165.0415	3	H11N3O5S+
166.0489	17	C6H6N4O2+
168.0556	12	C10H6N3+
170.0713	124	C10H8N3+
171.0545	21	C2H11N4O3S+
171.0674	29	C3H13N3O3S+
173.071	18	C10H9N2O+
174.0666	14	C3H14N2O4S+
176.0565	10	C7H6N5O+
177.0407	999	C7H5N4O2+
178.0486	345	C7H6N4O2+
180.0558	25	C11H6N3+
181.0352	2	C6H5N4O3+
182.0715	12	C11H8N3+
186.0657	11	C10H8N3O+
187.0616	12	C9H7N4O+
188.0815	10	C2H14N5O3S+
189.0902	5	C10H11N3O+
192.0512	2	C7H6N5O2+
195.0513	796	C7H7N4O3+
196.0494	16	C3H10N5O3S+
197.0822	232	C11H9N4+
198.0663	39	C11H8N3O+
201.0664	2	C5H15NO5S+
202.0479	16	CH10N6O4S+
208.0477	20	C9H8N2O4+
209.0672	67	C8H9N4O3+
213.0772	28	C11H9N4O+
214.0612	23	C5H14N2O5S+
215.0564	4	C10H7N4O2+
215.092	4	C3H15N6O3S+
216.0772	9	C5H16N2O5S+
222.0775	5	C12H8N5+
223.0613	92	C12H7N4O+
224.0456	9	C6H12N2O5S+
224.0679	3	C11H12O5+
224.09	2	CH16N6O5S+
225.077	183	C6H15N3O4S+
226.061	10	C6H14N2O5S+
227.0564	42	C11H7N4O2+
239.0563	18	C6H13N3O5S+
240.0641	4	C12H8N4O2+
240.0883	8	C4H14N7O3S+
241.072	637	C12H9N4O2+
242.0561	47	C12H8N3O3+
243.0878	3	C4H15N6O4S+
250.0727	12	C7H14N4O4S+
251.0564	76	C13H7N4O2+
252.0637	4	C5H12N6O4S+
253.0589	14	C4H11N7O4S+
254.0636	10	C15H12NOS+
256.0826	8	C4H14N7O4S+
267.0746	57	C5H13N7O4S+
268.0829	579	C13H10N5O2+
269.0668	10	C13H9N4O3+
269.0908	105	C13H11N5O2+
270.1003	2	C15H14N2O3+
284.0777	557	C13H10N5O3+
300.0738	4	C13H10N5O4+
