Mass spectrum: SMZ-PtO; LC-ESI-QFT; MS2; CE: 90%; R=17500; [M+H]+
Name: SMZ-PtO
Formula: C17H15N7O5S
Exact mass: 429.0855
SMILES: CC1=CC(NS(=O)(C2=CC=C(NCC3=NC(C(NC(O)=N4)=O)=C4N=C3)C=C2)=O)=NO1
InChI: InChI=1S/C17H15N7O5S/c1-9-6-13(23-29-9)24-30(27,28)12-4-2-10(3-5-12)18-7-11-8-19-15-14(20-11)16(25)22-17(26)21-15/h2-6,8,18H,7H2,1H3,(H,23,24)(H2,19,21,22,25,26)
Instrument: Q-Exactive + Thermo Scientific
Instrument type: LC-ESI-QFT
Ms type: MS2
Ion mode: POSITIVE
Ionization: ESI
Fragmentation mode: HCD
Collision energy: 90 % (nominal)
Resolution: 17500
Column name: Atlantis T3 3um, 3.0x150mm, Waters
Retention time: 16.782 min
Base peak: 164.9847
Precursor m/z: 430.0928
Precursor type: [M+H]+
m/z	relative intensity	assigned
51.0229	3	C4H3+
52.0181	29	C3H2N+
53.0134	10	C2HN2+
53.0386	16	C4H5+
53.9974	4	C2NO+
54.0338	13	C3H4N+
55.0178	3	C3H3O+
65.0386	41	C5H5+
66.0337	7	C4H4N+
67.029	4	C3H3N2+
68.013	3	C3H2NO+
72.0442	2	C3H6NO+
77.0135	2	C4HN2+
77.0386	10	C6H5+
78.0214	3	C4H2N2+
78.0339	2	C5H4N+
78.0463	3	C6H6+
79.0291	553	C4H3N2+
79.0542	52	C6H7+
80.0368	38	C4H4N2+
80.0494	57	C5H6N+
81.0209	2	C4H3NO+
81.0446	3	C4H5N2+
89.0385	17	C7H5+
91.054	16	C7H7+
92.0495	42	C6H6N+
93.0084	8	C4HN2O+
93.0574	30	C6H7N+
94.0401	47	C4H4N3+
95.0239	7	C4H3N2O+
96.0319	13	C4H4N2O+
96.0441	2	C5H6NO+
96.0556	20	C4H6N3+
97.0395	21	C4H5N2O+
97.0634	13	C4H7N3+
99.0553	4	C4H7N2O+
104.0496	22	C7H6N+
105.0322	16	C5H3N3+
105.0446	30	C6H5N2+
106.04	999	C5H4N3+
106.0651	331	C7H8N+
107.0478	233	C5H5N3+
108.0444	109	C6H6NO+
108.0556	79	C5H6N3+
110.0599	4	C6H8NO+
114.034	9	C8H4N+
116.0495	86	C8H6N+
117.0576	9	C8H7N+
118.0652	8	C8H8N+
119.0606	14	C7H7N2+
120.0189	2	C5H2N3O+
120.0447	4	C7H6NO+
121.0399	2	C6H5N2O+
121.0514	3	C5H5N4+
122.0349	52	C5H4N3O+
123.0429	3	C5H5N3O+
124.0506	903	C5H6N3O+
125.0585	36	C5H7N3O+
127.0421	2	C3H11O3S+
128.0494	58	C9H6N+
129.0447	27	C8H5N2+
129.0569	4	C9H7N+
130.04	8	C7H4N3+
130.0526	2	C8H6N2+
130.0659	2	C3H14O3S+
131.0486	2	CH11N2O3S+
131.0602	10	C8H7N2+
132.0439	4	C8H6NO+
134.0601	29	C8H8NO+
135.043	20	C6H5N3O+
135.0523	2	C4H9NO4+
138.0297	9	C5H4N3O2+
138.0665	24	C6H8N3O+
139.0378	33	C5H5N3O2+
141.0348	3	C5H7N3S+
141.0448	51	C9H5N2+
142.0523	18	C9H6N2+
143.0605	131	C9H7N2+
144.0444	8	C9H6NO+
144.0556	13	C8H6N3+
145.0762	9	C9H9N2+
146.0599	14	C9H8NO+
146.0714	31	C8H8N3+
147.0553	8	C8H7N2O+
147.0792	3	C8H9N3+
151.0377	18	C6H5N3O2+
153.043	32	H7N7OS+
153.0537	20	H13N2O5S+
154.0401	8	C9H4N3+
155.0479	7	C9H5N3+
155.0603	88	C10H7N2+
156.0556	19	C9H6N3+
156.0684	17	C10H8N2+
158.0716	4	C9H8N3+
159.0552	29	C3H13NO4S+
159.0785	4	C9H9N3+
161.071	9	C9H9N2O+
166.0397	3	C10H4N3+
167.0477	15	C10H5N3+
168.0557	141	C10H6N3+
169.0507	12	C9H5N4+
169.0638	17	C10H7N3+
170.0714	122	C10H8N3+
171.054	34	C2H11N4O3S+
171.0678	22	C11H9NO+
173.0707	2	C10H9N2O+
174.0667	8	C3H14N2O4S+
177.041	23	C7H5N4O2+
178.0486	244	C7H6N4O2+
179.0328	34	C7H5N3O3+
180.056	21	C5H12N2O3S+
181.0647	2	C5H13N2O3S+
182.0585	5	C2H10N6O2S+
186.0664	9	C10H8N3O+
187.0615	10	C9H7N4O+
195.0509	14	C7H7N4O3+
195.0669	32	C5H13N3O3S+
196.0505	12	C3H10N5O3S+
197.0447	8	C2H9N6O3S+
197.0823	17	C11H9N4+
198.0659	8	C11H8N3O+
210.0539	9	C11H6N4O+
210.0777	8	C11H8N5+
211.0618	4	C11H7N4O+
213.0772	8	C11H9N4O+
214.0629	2	C5H14N2O5S+
223.0617	3	C12H7N4O+
224.069	2	C4H12N6O3S+
225.0771	2	C6H15N3O4S+
240.0644	2	C12H8N4O2+
