Mass spectrum: PYZ_n_301.9991_22.6; LC-ESI-QFT; MS2; CE: 35%; R=17500; [M-H]-
Name: PYZ_n_301.9991_22.6
Name: 3-(3,5-dichlorobenzamido)-3-methyl-2-oxobutanoic acid
Class: identified ozonation transformation product
Formula: C12H11Cl2NO4
Exact mass: 303.0065
SMILES: CC(NC(C1=CC(Cl)=CC(Cl)=C1)=O)(C(C(O)=O)=O)C
InChI: InChI=1S/C12H11Cl2NO4/c1-12(2,9(16)11(18)19)15-10(17)6-3-7(13)5-8(14)4-6/h3-5H,1-2H3,(H,15,17)(H,18,19)
Instrument: Q Exactive Plus Orbitrap Thermo Scientific
Instrument type: LC-ESI-QFT
Ms type: MS2
Ion mode: NEGATIVE
Ionization: ESI
Fragmentation mode: HCD
Collision energy: 35 % (nominal)
Resolution: 17500
Column name: C18 Atlantis T3 5 um, 3x150 mm, Waters
Retention time: 22.148 min
Base peak: 286.2388
Precursor m/z: 301.9992
Precursor type: [M-H]-
Precursor intensity: 1758524
m/z	relative intensity	assigned
84.0455	12	C4H6NO-
112.0404	32	C5H6NO2-
144.9617	999	C6H3Cl2-
188.9516	109	C7H3Cl2O2-
194.0375	3	C10H9ClNO-
213.9836	4	C9H6Cl2NO-
230.0143	130	C10H10Cl2NO-
258.0093	53	C11H10Cl2NO2-
302.2615	60	
