Mass spectrum: CAN_p_207.0766_17.0; LC-ESI-QFT; MS2; CE: 75%; R=17500; [M+H]+
Name: CAN_p_207.0766_17.0
Name: 1H-Benzimidazole-7-carboxylic acid, 2-ethoxy-
Name: 2-ethoxy-1H-benzimidazole-4-carboxylic acid
Class: identified ozonation transformation product
Formula: C10H10N2O3
Exact mass: 206.0691
SMILES: CCOC1=NC2=C(N1)C(C(O)=O)=CC=C2
InChI: InChI=1S/C10H10N2O3/c1-2-15-10-11-7-5-3-4-6(9(13)14)8(7)12-10/h3-5H,2H2,1H3,(H,11,12)(H,13,14)
Instrument: Q Exactive Plus Orbitrap Thermo Scientific
Instrument type: LC-ESI-QFT
Ms type: MS2
Ion mode: POSITIVE
Ionization: ESI
Fragmentation mode: HCD
Collision energy: 75 % (nominal)
Resolution: 17500
Column name: C18 Atlantis T3 5 um, 3x150 mm, Waters
Retention time: 16.820 min
Base peak: 131.0856
Precursor m/z: 207.0764
Precursor type: [M+H]+
Precursor intensity: 5942364
m/z	relative intensity	assigned
57.0698	4	C4H9+
59.0492	215	C3H7O+
69.0699	71	C5H9+
73.0285	3	C3H5O2+
78.0336	11	C5H4N+
81.0446	4	C4H5N2+
87.0805	4	C5H11O+
103.0543	5	C8H7+
105.0448	999	C6H5N2+
105.0692	23	
106.0288	8	C6H4NO+
123.0552	15	C6H7N2O+
128.0622	9	C10H8+
133.0395	43	C7H5N2O+
133.1013	6	
143.0605	7	C9H7N2+
148.0268	100	C7H4N2O2+
151.0503	439	C7H7N2O2+
161.0345	650	C8H5N2O2+
161.0462	167	C9H7NO2+
171.0553	46	C10H7N2O+
179.0452	553	C8H7N2O3+
193.0613	14	C9H9N2O3+
207.076	6	C10H11N2O3+
