Mass spectrum: FAD_n_260.0537_19.0; LC-ESI-QFT; MS2; CE: 55%; R=17500; [M-H]-
Name: FAD_n_260.0537_19.0
Name: Flufenamic acid -C3 +O
Name: 2-((3-(trifluoromethyl)phenyl)amino)benzoic acid -C3 +O
Class: identified ozonation transformation product
Formula: C11H10F3NO3
Exact mass: 261.0613
Instrument: Q Exactive Plus Orbitrap Thermo Scientific
Instrument type: LC-ESI-QFT
Ms type: MS2
Ion mode: NEGATIVE
Ionization: ESI
Fragmentation mode: HCD
Collision energy: 55 % (nominal)
Resolution: 17500
Column name: C18 Atlantis T3 5 um, 3x150 mm, Waters
Retention time: 19.035 min
Base peak: 225.0558
Precursor m/z: 260.054
Precursor type: [M-H]-
Precursor intensity: 358760.625
m/z	relative intensity	assigned
55.0189	23	C3H3O-
99.0088	190	C4H3O3-
160.038	999	C7H5F3N-
214.0491	16	C10H7F3NO-
216.0642	95	C10H9F3NO-
