Mass spectrum: SMX_n_282.0188_18.0; LC-ESI-QFT; MS2; CE: 45%; R=17500; [M-H]-
Name: SMX_n_282.0188_18.0
Name: N-(5-methylisoxazol-3-yl)-4-nitrobenzenesulfonamide
Class: identified ozonation transformation product
Formula: C10H9N3O5S
Exact mass: 283.0263
SMILES: CC1=CC(NS(C2=CC=C([N+]([O-])=O)C=C2)(=O)=O)=NO1
InChI: InChI=1S/C10H9N3O5S/c1-7-6-10(11-18-7)12-19(16,17)9-4-2-8(3-5-9)13(14)15/h2-6H,1H3,(H,11,12)
Instrument: Q Exactive Plus Orbitrap Thermo Scientific
Instrument type: LC-ESI-QFT
Ms type: MS2
Ion mode: NEGATIVE
Ionization: ESI
Fragmentation mode: HCD
Collision energy: 45 % (nominal)
Resolution: 17500
Column name: C18 Atlantis T3 5 um, 3x150 mm, Waters
Retention time: 18.024 min
Base peak: 91.0037
Precursor m/z: 282.019
Precursor type: [M-H]-
Precursor intensity: 1075928.875
m/z	relative intensity	assigned
92.0269	14	C6H4O-
108.0214	5	C6H4O2-
122.025	104	C6H4NO2-
136.0281	6	C6H4N2O2-
138.0197	999	C6H4NO3-
166.0145	14	C7H4NO4-
185.9866	110	C6H4NO4S-
192.0222	1	C5H8N2O4S-
192.9595	2	C8HO4S-
