Mass spectrum: MPL-dm; LC-ESI-QFT; MS2; CE: 150%; R=17500; [M+H]+
Name: MPL-dm
Name: O-Demethylmetoprolol
Name: 1-[4-(2-hydroxyethyl)phenoxy]-3-(propan-2-ylamino)propan-2-ol
Formula: C14H23NO3
Exact mass: 253.1678
SMILES: CC(NCC(O)COC1=CC=C(CCO)C=C1)C
InChI: InChI=1S/C14H23NO3/c1-11(2)15-9-13(17)10-18-14-5-3-12(4-6-14)7-8-16/h3-6,11,13,15-17H,7-10H2,1-2H3
Instrument: Q-Exactive Thermo Scientific
Instrument type: LC-ESI-QFT
Ms type: MS2
Ion mode: POSITIVE
Ionization: ESI
Fragmentation mode: HCD
Collision energy: 150 % (nominal)
Resolution: 17500
Column name: Atlantis T3 3um, 3.0x150mm, Waters
Retention time: 10.489 min
Base peak: 250.2013
Precursor m/z: 254.1751
Precursor type: [M+H]+
m/z	relative intensity	assigned
50.0152	71	C4H2+
51.023	115	C4H3+
53.0386	43	C4H5+
56.0495	106	C3H6N+
58.0651	64	C3H8N+
63.0229	34	C5H3+
65.0385	303	C5H5+
77.0384	382	C6H5+
78.0464	46	C6H6+
79.0542	87	C6H7+
89.0382	61	C7H5+
90.0461	12	C7H6+
91.0543	413	C7H7+
95.0491	999	C6H7O+
102.0464	48	C8H6+
103.0543	104	C8H7+
105.0448	382	C6H5N2+
107.0492	11	C7H7O+
115.0542	255	C9H7+
116.062	10	C9H8+
128.0619	20	C10H8+
