Mass spectrum: BEZ-M; LC-ESI-QFT; MS2; CE: 90%; R=17500; [M+H]+
Name: BEZ-M
Formula: C20H22ClNO4
Exact mass: 375.1237
SMILES: CC(C(OC)=O)(OC1=CC=C(CCNC(C2=CC=C(Cl)C=C2)=O)C=C1)C
InChI: InChI=1S/C20H22ClNO4/c1-20(2,19(24)25-3)26-17-10-4-14(5-11-17)12-13-22-18(23)15-6-8-16(21)9-7-15/h4-11H,12-13H2,1-3H3,(H,22,23)
Instrument: Q-Exactive + Thermo Scientific
Instrument type: LC-ESI-QFT
Ms type: MS2
Ion mode: POSITIVE
Ionization: ESI
Fragmentation mode: HCD
Collision energy: 90 % (nominal)
Resolution: 17500
Column name: Atlantis T3 3um, 3.0x150mm, Waters
Retention time: 22.957 min
Base peak: 292.1212
Precursor m/z: 376.131
Precursor type: [M+H]+
m/z	relative intensity	assigned
51.0228	83	C4H3+
53.002	17	C3HO+
53.0386	191	C4H5+
55.0178	179	C3H3O+
55.0542	88	C4H7+
57.0699	270	C4H9+
59.0491	18	C3H7O+
65.0385	24	C5H5+
67.0541	54	C5H7+
69.0334	21	C4H5O+
73.0648	386	C4H9O+
75.0232	107	C6H3+
77.0384	62	C6H5+
79.018	15	C5H3O+
79.054	71	C6H7+
81.0334	17	C5H5O+
81.0699	52	C6H9+
86.9997	109	C4H4Cl+
91.0542	563	C7H7+
93.0336	24	C6H5O+
93.0699	324	C7H9+
94.0412	20	C6H6O+
95.0492	475	C6H7O+
97.101	16	C7H13+
102.0461	15	C8H6+
103.0543	548	C8H7+
105.0447	231	C6H5N2+
105.0698	70	C8H9+
107.0492	15	C7H7O+
110.9995	88	C6H4Cl+
111.0439	23	C6H7O2+
119.0489	12	C8H7O+
121.0396	22	C6H5N2O+
121.0648	382	C8H9O+
128.0619	51	C10H8+
129.0102	331	C6H6ClO+
131.0487	14	C9H7O+
138.9945	610	C7H4ClO+
139.0058	999	C9HNO+
