Mass spectrum: ATZ_p_188.0697_16.8; LC-ESI-QFT; MS2; CE: 85%; R=17500; [M+H]+
Name: ATZ_p_188.0697_16.8
Name: Deethylatrazine
Name: 6-chloro-2-N-propan-2-yl-1,3,5-triazine-2,4-diamine
Class: identified ozonation transformation product
Formula: C6H10ClN5
Exact mass: 187.0625
SMILES: CC(C)Nc1nc(N)nc(Cl)n1
InChI: InChI=1S/C6H10ClN5/c1-3(2)9-6-11-4(7)10-5(8)12-6/h3H,1-2H3,(H3,8,9,10,11,12)
Instrument: Q Exactive Plus Orbitrap Thermo Scientific
Instrument type: LC-ESI-QFT
Ms type: MS2
Ion mode: POSITIVE
Ionization: ESI
Fragmentation mode: HCD
Collision energy: 85 % (nominal)
Resolution: 17500
Column name: C18 Atlantis T3 5 um, 3x150 mm, Waters
Retention time: 16.671 min
Base peak: 173.0856
Precursor m/z: 188.0697
Precursor type: [M+H]+
Precursor intensity: 72004840
m/z	relative intensity	assigned
53.0022	5	ClH4N+
61.9792	129	CHClN+
68.0243	703	C2H2N3+
79.0057	999	CH4ClN2+
85.0509	4	C2H5N4+
86.035	10	
104.001	974	C2H3ClN3+
110.0462	190	C3H4N5+
128.057	20	
146.0229	504	C3H5ClN5+
188.0703	5	C6H11ClN5+
