Mass spectrum: SMZ-AcOH; LC-ESI-QFT; MS2; CE: 60%; R=17500; [M-H]-
Name: SMZ-AcOH
Formula: C12H13N3O5S
Exact mass: 311.0576
Instrument: Q-Exactive + Thermo Scientific
Instrument type: LC-ESI-QFT
Ms type: MS2
Ion mode: NEGATIVE
Ionization: ESI
Fragmentation mode: HCD
Collision energy: 60 % (nominal)
Resolution: 17500
Column name: Atlantis T3 3um, 3.0x150mm, Waters
Retention time: 16.866 min
Base peak: 91.0036
Precursor m/z: 310.0503
Precursor type: [M-H]-
m/z	relative intensity	assigned
63.9624	237	O2S-
79.9811	13	H2NO2S-
82.0298	65	C4H4NO-
92.0506	184	C6H6N-
96.9601	16	HO4S-
97.0117	9	C5H5S-
97.0407	16	C4H5N2O-
104.0506	42	C7H6N-
106.0664	9	C7H8N-
118.0299	16	C7H4NO-
119.0612	39	C7H7N2-
120.0455	451	C7H6NO-
121.0771	16	C7H9N2-
122.0612	116	C7H8NO-
139.9934	63	C6H4O2S-
141.0013	72	C6H5O2S-
150.0562	12	C8H8NO2-
152.0174	48	C7H6NOS-
156.0125	57	C6H6NO2S-
168.0124	999	C7H6NO2S-
170.0277	20	C7H8NO2S-
183.0234	15	C7H7N2O2S-
185.039	167	C7H9N2O2S-
