Mass spectrum: CBZ_p_267.0762_17.7; LC-ESI-QFT; MS2; CE: 50%; R=17500; [M+H]+
Name: CBZ_p_267.0762_17.7
Name: 1-(2-Formylphenyl)quinazoline-2,4(1H,3H)-dione
Name: 2-(2,4-dioxoquinazolin-1-yl)benzaldehyde
Class: identified ozonation transformation product
Formula: C15H10N2O3
Exact mass: 266.0691
SMILES: O=CC1=CC=CC=C1N2C(NC(C3=C2C=CC=C3)=O)=O
InChI: InChI=1S/C15H10N2O3/c18-9-10-5-1-3-7-12(10)17-13-8-4-2-6-11(13)14(19)16-15(17)20/h1-9H,(H,16,19,20)
Instrument: Q Exactive Plus Orbitrap Thermo Scientific
Instrument type: LC-ESI-QFT
Ms type: MS2
Ion mode: POSITIVE
Ionization: ESI
Fragmentation mode: HCD
Collision energy: 50 % (nominal)
Resolution: 17500
Column name: C18 Atlantis T3 5 um, 3x150 mm, Waters
Retention time: 16.857 min
Base peak: 137.09
Precursor m/z: 267.0764
Precursor type: [M+H]+
Precursor intensity: 6060001
m/z	relative intensity	assigned
145.0392	1	C8H5N2O+
167.0724	3	C12H9N+
168.0805	5	C12H10N+
178.065	3	C13H8N+
180.0807	3	C13H10N+
193.076	1	C13H9N2+
194.0592	1	C13H8NO+
195.0677	5	C13H9NO+
195.0904	1	C13H11N2+
196.0756	999	C13H10NO+
206.0599	18	C14H8NO+
207.1495	1	
221.0713	2	C14H9N2O+
222.0544	5	C14H8NO2+
224.0706	56	C14H10NO2+
239.0819	9	C14H11N2O2+
240.0661	1	C14H10NO3+
249.0659	2	C15H9N2O2+
267.0771	1	C15H11N2O3+
