Mass spectrum: BEZ-M; LC-ESI-QFT; MS2; CE: 150%; R=17500; [M+H]+
Name: BEZ-M
Formula: C20H22ClNO4
Exact mass: 375.1237
SMILES: CC(C(OC)=O)(OC1=CC=C(CCNC(C2=CC=C(Cl)C=C2)=O)C=C1)C
InChI: InChI=1S/C20H22ClNO4/c1-20(2,19(24)25-3)26-17-10-4-14(5-11-17)12-13-22-18(23)15-6-8-16(21)9-7-15/h4-11H,12-13H2,1-3H3,(H,22,23)
Instrument: Q-Exactive + Thermo Scientific
Instrument type: LC-ESI-QFT
Ms type: MS2
Ion mode: POSITIVE
Ionization: ESI
Fragmentation mode: HCD
Collision energy: 150 % (nominal)
Resolution: 17500
Column name: Atlantis T3 3um, 3.0x150mm, Waters
Retention time: 22.957 min
Base peak: 292.1212
Precursor m/z: 376.131
Precursor type: [M+H]+
m/z	relative intensity	assigned
50.015	136	C4H2+
51.0229	457	C4H3+
53.0021	89	C3HO+
53.0386	291	C4H5+
55.0178	66	C3H3O+
55.054	60	C4H7+
57.0699	30	C4H9+
65.0386	193	C5H5+
67.054	25	C5H7+
73.0648	28	C4H9O+
74.0151	227	C6H2+
75.0229	999	C6H3+
76.0306	30	C6H4+
77.0385	238	C6H5+
79.0543	23	C6H7+
81.0333	24	C5H5O+
84.984	79	C4H2Cl+
86.9998	20	C4H4Cl+
91.0543	374	C7H7+
94.0411	35	C6H6O+
95.0491	542	C6H7O+
102.0465	25	C8H6+
103.0541	68	C8H7+
105.0447	317	C6H5N2+
110.9994	85	C6H4Cl+
115.0543	30	C9H7+
128.062	24	C10H8+
129.0102	99	C6H6ClO+
139.006	183	C6H4ClN2+
141.0704	16	C11H9+
152.0621	17	C12H8+
