Mass spectrum: SIT_n_405.0789_18.6; LC-ESI-QFT; MS2; CE: 15%; R=17500; [M-H]-
Name: SIT_n_405.0789_18.6
Name: 1-[3-(trifluoromethyl)-6,8-dihydro-5H-[1,2,4]triazolo[4,3-a]pyrazin-7-yl]-4-(2,4,5-trifluorophenyl)butane-1,3-dione
Class: identified ozonation transformation product
Formula: C16H12F6N4O2
Exact mass: 406.0864
SMILES: O=C(CC(N1CCN2C(C1)=NN=C2C(F)(F)F)=O)CC3=CC(F)=C(F)C=C3F
InChI: InChI=1S/C16H12F6N4O2/c17-10-6-12(19)11(18)4-8(10)3-9(27)5-14(28)25-1-2-26-13(7-25)23-24-15(26)16(20,21)22/h4,6H,1-3,5,7H2
Instrument: Q Exactive Plus Orbitrap Thermo Scientific
Instrument type: LC-ESI-QFT
Ms type: MS2
Ion mode: NEGATIVE
Ionization: ESI
Fragmentation mode: HCD
Collision energy: 15 % (nominal)
Resolution: 17500
Column name: C18 Atlantis T3 5 um, 3x150 mm, Waters
Retention time: 18.607 min
Base peak: 91.0038
Precursor m/z: 405.0792
Precursor type: [M-H]-
Precursor intensity: 774382.5625
m/z	relative intensity	assigned
149.0198	4	C4H2F3N3-
169.0268	30	C4H3F4N3-
171.0068	16	F5H2N3O2-
191.055	723	C6H6F3N4-
213.017	189	C10H4F3O2-
233.0658	16	C13H9F2NO-
259.0449	168	C9H6F3N4O2-
363.0661	12	C14H9F6N4O-
385.0727	62	C16H10F5N4O2-
387.0698	8	C16H9F6N4O-
405.0791	999	C16H11F6N4O2-
