Mass spectrum: BEZ-M; LC-ESI-QFT; MS2; CE: 60%; R=17500; [M+H]+
Name: BEZ-M
Formula: C20H22ClNO4
Exact mass: 375.1237
SMILES: CC(C(OC)=O)(OC1=CC=C(CCNC(C2=CC=C(Cl)C=C2)=O)C=C1)C
InChI: InChI=1S/C20H22ClNO4/c1-20(2,19(24)25-3)26-17-10-4-14(5-11-17)12-13-22-18(23)15-6-8-16(21)9-7-15/h4-11H,12-13H2,1-3H3,(H,22,23)
Instrument: Q-Exactive + Thermo Scientific
Instrument type: LC-ESI-QFT
Ms type: MS2
Ion mode: POSITIVE
Ionization: ESI
Fragmentation mode: HCD
Collision energy: 60 % (nominal)
Resolution: 17500
Column name: Atlantis T3 3um, 3.0x150mm, Waters
Retention time: 22.957 min
Base peak: 292.1212
Precursor m/z: 376.131
Precursor type: [M+H]+
m/z	relative intensity	assigned
53.0386	5	C4H5+
55.0178	72	C3H3O+
55.0541	8	C4H7+
57.0699	143	C4H9+
59.0491	10	C3H7O+
67.0541	22	C5H7+
69.0335	34	C4H5O+
69.0699	8	C5H9+
71.0493	5	C4H7O+
71.0855	6	C5H11+
73.0648	278	C4H9O+
77.0386	4	C6H5+
78.009	24	C3N3+
79.0542	5	C6H7+
81.0697	19	C6H9+
85.1011	6	C6H13+
86.9997	7	C4H4Cl+
91.0542	86	C7H7+
93.0699	152	C7H9+
95.0491	31	C6H7O+
95.0856	7	C7H11+
101.0599	42	C5H9O2+
103.0542	80	C8H7+
105.045	9	C6H5N2+
105.0699	9	C8H9+
107.0855	8	C8H11+
109.1009	7	C8H13+
113.0598	11	C6H9O2+
119.0855	9	C9H11+
121.0648	662	C8H9O+
123.0435	5	C7H7O2+
125.0707	6	C6H9N2O+
129.0102	27	C6H6ClO+
133.1014	6	C10H13+
138.9947	999	C7H4ClO+
139.0056	109	C9HNO+
141.0551	7	C4H12ClNO2+
149.06	9	C6H12ClNO+
161.0965	20	C8H16ClN+
189.1275	6	C13H17O+
193.0997	4	C9H18ClO2+
204.1146	64	C13H16O2+
218.1306	10	C11H21ClNO+
222.1255	123	C10H21ClNO2+
236.1413	9	C11H23ClNO2+
247.0191	5	C16H6ClN+
260.1422	5	C13H23ClNO2+
