Mass spectrum: SMZ-PtO; LC-ESI-QFT; MS2; CE: 150%; R=17500; [M-H]-
Name: SMZ-PtO
Formula: C17H15N7O5S
Exact mass: 429.0855
SMILES: CC1=CC(NS(=O)(C2=CC=C(NCC3=NC(C(NC(O)=N4)=O)=C4N=C3)C=C2)=O)=NO1
InChI: InChI=1S/C17H15N7O5S/c1-9-6-13(23-29-9)24-30(27,28)12-4-2-10(3-5-12)18-7-11-8-19-15-14(20-11)16(25)22-17(26)21-15/h2-6,8,18H,7H2,1H3,(H,23,24)(H2,19,21,22,25,26)
Instrument: Q-Exactive + Thermo Scientific
Instrument type: LC-ESI-QFT
Ms type: MS2
Ion mode: NEGATIVE
Ionization: ESI
Fragmentation mode: HCD
Collision energy: 150 % (nominal)
Resolution: 17500
Column name: Atlantis T3 3um, 3.0x150mm, Waters
Retention time: 16.803 min
Base peak: 91.0036
Precursor m/z: 428.0783
Precursor type: [M-H]-
m/z	relative intensity	assigned
50.0036	62	C3N-
63.9624	999	O2S-
64.0193	74	C4H2N-
65.9986	72	C3NO-
77.9656	135	NO2S-
90.0346	51	C6H4N-
91.0428	123	C6H5N-
92.0506	454	C6H6N-
127.0516	61	C5H7N2O2-
216.9687	56	C6H3NO6S-
393.093	59	C16H11N9O4-
