Mass spectrum: SMZ-PtO; LC-ESI-QFT; MS2; CE: 120%; R=17500; [M+H]+
Name: SMZ-PtO
Formula: C17H15N7O5S
Exact mass: 429.0855
SMILES: CC1=CC(NS(=O)(C2=CC=C(NCC3=NC(C(NC(O)=N4)=O)=C4N=C3)C=C2)=O)=NO1
InChI: InChI=1S/C17H15N7O5S/c1-9-6-13(23-29-9)24-30(27,28)12-4-2-10(3-5-12)18-7-11-8-19-15-14(20-11)16(25)22-17(26)21-15/h2-6,8,18H,7H2,1H3,(H,23,24)(H2,19,21,22,25,26)
Instrument: Q-Exactive + Thermo Scientific
Instrument type: LC-ESI-QFT
Ms type: MS2
Ion mode: POSITIVE
Ionization: ESI
Fragmentation mode: HCD
Collision energy: 120 % (nominal)
Resolution: 17500
Column name: Atlantis T3 3um, 3.0x150mm, Waters
Retention time: 16.782 min
Base peak: 164.9847
Precursor m/z: 430.0928
Precursor type: [M+H]+
m/z	relative intensity	assigned
50.0151	10	C4H2+
51.0101	2	C3HN+
51.0229	26	C4H3+
52.0182	168	C3H2N+
53.0135	26	C2HN2+
53.026	40	C3H3N+
53.0386	45	C4H5+
53.9975	28	C2NO+
54.0338	33	C3H4N+
55.0178	14	C3H3O+
55.0291	3	C2H3N2+
57.021	3	C2H3NO+
63.0229	13	C5H3+
64.0182	4	C4H2N+
65.0386	76	C5H5+
66.0213	5	C3H2N2+
66.0339	5	C4H4N+
66.0464	12	C5H6+
67.0291	10	C3H3N2+
68.0131	3	C3H2NO+
69.0083	10	C2HN2O+
75.0231	19	C6H3+
76.0308	2	C6H4+
77.0131	3	C4HN2+
77.0385	29	C6H5+
78.0214	17	C4H2N2+
78.034	4	C5H4N+
78.0424	2	CH6N2O2+
78.0464	22	C6H6+
79.0291	999	C4H3N2+
79.0542	69	C6H7+
80.0369	77	C4H4N2+
80.0494	86	C5H6N+
81.0209	14	C4H3NO+
81.0446	2	C4H5N2+
83.0241	2	C3H3N2O+
89.0386	87	C7H5+
90.0337	5	C6H4N+
91.0416	4	C6H5N+
91.0544	23	C7H7+
92.0495	27	C6H6N+
93.0084	16	C4HN2O+
93.0575	23	C6H7N+
94.0401	34	C4H4N3+
95.0491	116	C6H7O+
96.0318	37	C4H4N2O+
96.0444	4	C5H6NO+
96.0555	5	C4H6N3+
97.0399	13	C4H5N2O+
97.0638	3	C4H7N3+
102.0338	5	C7H4N+
102.0469	4	C8H6+
103.0295	2	H9NO3S+
103.0418	10	C7H5N+
104.0493	25	C7H6N+
105.0325	34	C5H3N3+
105.0447	66	C6H5N2+
106.04	383	C5H4N3+
106.0651	111	C7H8N+
107.0478	116	C5H5N3+
108.0445	33	C6H6NO+
110.0603	4	C6H8NO+
114.0339	66	C8H4N+
115.0419	10	C8H5N+
116.0495	112	C8H6N+
117.0447	3	C7H5N2+
117.0576	10	C8H7N+
118.0523	8	C7H6N2+
118.0653	4	C8H8N+
119.0493	5	C8H7O+
119.0605	13	C7H7N2+
120.0445	5	C7H6NO+
121.0401	2	H11NO4S+
122.035	29	C5H4N3O+
124.0506	181	C5H6N3O+
125.0585	26	C5H7N3O+
126.034	4	C9H4N+
127.0418	13	C9H5N+
128.0375	12	C8H4N2+
128.0497	66	C9H6N+
129.0448	50	C8H5N2+
129.0548	3	C6H9O3+
129.0575	3	C9H7N+
130.0404	19	C7H4N3+
130.0526	2	C8H6N2+
131.0482	3	CH11N2O3S+
131.0607	4	C8H7N2+
132.0446	12	C8H6NO+
134.0602	31	C8H8NO+
135.0557	2	CH13NO4S+
138.0302	4	C5H4N3O2+
138.0662	4	C6H8N3O+
139.0378	11	C5H5N3O2+
140.0373	4	C9H4N2+
141.0448	49	C9H5N2+
142.0527	50	C9H6N2+
143.0603	46	C9H7N2+
144.0457	3	C3H12O4S+
144.0562	13	C8H6N3+
146.0601	9	C9H8NO+
146.0714	9	C8H8N3+
153.0441	27	C10H5N2+
154.0405	21	C3H10N2O3S+
154.051	2	H8N7OS+
155.0602	37	C10H7N2+
156.0562	4	C3H12N2O3S+
156.0681	4	C10H8N2+
159.0553	24	C3H13NO4S+
167.0481	14	C4H11N2O3S+
168.0557	27	C10H6N3+
169.0514	15	C3H11N3O3S+
169.0642	5	C4H13N2O3S+
170.071	20	C10H8N3+
171.0545	4	C2H11N4O3S+
171.0672	3	C3H13N3O3S+
178.0492	5	C7H6N4O2+
195.0678	10	C5H13N3O3S+
