Mass spectrum: ATE_p_283.1666_21.2; LC-ESI-QFT; MS2; CE: 45%; R=17500; [M+H]+
Name: ATE_p_283.1666_21.2
Name: Hydroxy-atenolol
Name: Hydroxylation of 2-(4-(2-hydroxy-3-(isopropylamino)propoxy)phenyl)acetamide
Class: identified ozonation transformation product
Formula: C14H22N2O4
Exact mass: 282.1580
Instrument: Q Exactive Plus Orbitrap Thermo Scientific
Instrument type: LC-ESI-QFT
Ms type: MS2
Ion mode: POSITIVE
Ionization: ESI
Fragmentation mode: HCD
Collision energy: 45 % (nominal)
Resolution: 17500
Column name: C18 Atlantis T3 5 um, 3x150 mm, Waters
Retention time: 21.082 min
Base peak: 65.0597
Precursor m/z: 283.1652
Precursor type: [M+H]+
Precursor intensity: 1479714
m/z	relative intensity	assigned
55.0542	81	C4H7+
67.0542	45	C5H7+
69.0335	30	C4H5O+
69.0699	75	C5H9+
79.0544	54	C6H7+
81.0334	12	C5H5O+
93.0699	74	C7H9+
98.9842	996	
105.0698	18	C8H9+
109.065	25	C7H9O+
116.9949	19	
119.0857	41	C9H11+
121.1015	60	C9H13+
123.1166	26	C9H15+
131.0858	29	C10H11+
135.1169	30	C10H15+
139.0756	17	C8H11O2+
145.0647	46	C10H9O+
145.1008	34	C11H13+
147.1171	27	C11H15+
159.0804	568	C11H11O+
159.1169	15	
160.0881	44	C11H12O+
163.1116	29	C11H15O+
173.0962	99	C12H13O+
201.1274	999	C14H17O+
