Mass spectrum: CBDZ-M; LC-ESI-QFT; MS2; CE: 75%; R=17500; [M+H]+
Name: CBDZ-M
Name: Lobendazole
Name: ethyl N-(1H-benzimidazol-2-yl)carbamate
Formula: C10H11N3O2
Exact mass: 205.0851
SMILES: O=C(NC1=NC2=CC=CC=C2N1)OCC
InChI: InChI=1S/C10H11N3O2/c1-2-15-10(14)13-9-11-7-5-3-4-6-8(7)12-9/h3-6H,2H2,1H3,(H2,11,12,13,14)
Instrument: Q-Exactive + Thermo Scientific
Instrument type: LC-ESI-QFT
Ms type: MS2
Ion mode: POSITIVE
Ionization: ESI
Fragmentation mode: HCD
Collision energy: 75 % (nominal)
Resolution: 17500
Column name: Atlantis T3 3um, 3.0x150mm, Waters
Retention time: 15.185 min
Base peak: 268.1907
Precursor m/z: 206.0924
Precursor type: [M+H]+
m/z	relative intensity	assigned
56.0494	2	C3H6N+
57.0336	1	C3H5O+
59.0492	1	C3H7O+
65.0386	14	C5H5+
80.0494	5	C5H6N+
88.0758	12	C4H10NO+
92.0494	117	C6H6N+
93.0572	24	C6H7N+
105.0447	12	C6H5N2+
106.0527	1	C6H6N2+
107.0604	23	C6H7N2+
110.0601	1	C6H8NO+
117.0446	1	C7H5N2+
121.0401	1	C6H5N2O+
125.0841	1	C7H11NO+
132.0556	90	C7H6N3+
133.0635	39	C7H7N3+
134.0712	999	C7H8N3+
135.055	17	C7H7N2O+
160.0506	663	C8H6N3O+
178.0612	18	C8H8N3O2+
