Mass spectrum: BEZ-M; LC-ESI-QFT; MS2; CE: 75%; R=17500; [M+H]+
Name: BEZ-M
Formula: C20H22ClNO4
Exact mass: 375.1237
SMILES: CC(C(OC)=O)(OC1=CC=C(CCNC(C2=CC=C(Cl)C=C2)=O)C=C1)C
InChI: InChI=1S/C20H22ClNO4/c1-20(2,19(24)25-3)26-17-10-4-14(5-11-17)12-13-22-18(23)15-6-8-16(21)9-7-15/h4-11H,12-13H2,1-3H3,(H,22,23)
Instrument: Q-Exactive + Thermo Scientific
Instrument type: LC-ESI-QFT
Ms type: MS2
Ion mode: POSITIVE
Ionization: ESI
Fragmentation mode: HCD
Collision energy: 75 % (nominal)
Resolution: 17500
Column name: Atlantis T3 3um, 3.0x150mm, Waters
Retention time: 22.957 min
Base peak: 292.1212
Precursor m/z: 376.131
Precursor type: [M+H]+
m/z	relative intensity	assigned
51.0229	34	C4H3+
53.002	10	C3HO+
53.0386	71	C4H5+
55.0179	110	C3H3O+
55.0541	46	C4H7+
57.0699	238	C4H9+
59.0491	14	C3H7O+
67.0541	48	C5H7+
69.0333	41	C4H5O+
69.0697	36	C5H9+
73.0648	406	C4H9O+
75.0228	17	C6H3+
77.0383	14	C6H5+
78.009	43	C3N3+
79.054	41	C6H7+
81.0696	32	C6H9+
86.9994	51	C4H4Cl+
91.0543	315	C7H7+
93.0699	363	C7H9+
95.0491	151	C6H7O+
95.0853	13	C7H11+
101.0594	8	C5H9O2+
103.0542	392	C8H7+
105.0334	31	C7H5O+
105.0446	67	C6H5N2+
105.0697	51	C8H9+
107.0853	15	C8H11+
110.9993	39	C6H4Cl+
119.0853	9	C9H11+
121.0648	642	C8H9O+
123.0445	12	C7H7O2+
129.0101	121	C6H6ClO+
131.0855	10	C10H11+
133.1006	9	C10H13+
138.9944	999	C7H4ClO+
139.0057	476	C9HNO+
143.0853	10	C11H11+
204.1143	39	C13H16O2+
222.1255	52	C10H21ClNO2+
236.1406	9	C14H20O3+
