Mass spectrum: SPA-8C (SAMPLE); LC-ESI-QFT; MS2; HCD65; [M-H]-
Name: SPA-8C (SAMPLE)
Name: C8-sulfophenyl carboxylic acid
Name: 6-(4-sulfophenyl)octanoic acid
Formula: C14H20O5S
Exact mass: 300.1031
SMILES: OS(=O)(=O)c1ccc(cc1)C(CC)CCCCC(=O)O
InChI: InChI=1S/C14H20O5S/c1-2-11(5-3-4-6-14(15)16)12-7-9-13(10-8-12)20(17,18)19/h7-11H,2-6H2,1H3,(H,15,16)(H,17,18,19)
Instrument: Q Exactive Orbitrap Thermo Scientific
Instrument type: LC-ESI-QFT
Ms type: MS2
Ion mode: NEGATIVE
Ionization: ESI
Fragmentation mode: HCD
Collision energy: 65 NCE
Base peak: 299.0955
Precursor m/z: 299.0955
Precursor type: [M-H]-
m/z	relative intensity
73.0287	6
79.9567	220
80.9646	65
93.0343	8
119.0503	55
133.0659	9
155.9887	6
156.9963	7
170.0044	13
183.0119	999
184.0196	13
196.0199	10
197.0276	138
209.0275	3
211.0434	16
216.0083	3
225.0591	19
239.0748	10
281.0851	8
299.0959	26
