Mass spectrum: SMZ-PtO; LC-ESI-QFT; MS2; CE: 150%; R=17500; [M+H]+
Name: SMZ-PtO
Formula: C17H15N7O5S
Exact mass: 429.0855
SMILES: CC1=CC(NS(=O)(C2=CC=C(NCC3=NC(C(NC(O)=N4)=O)=C4N=C3)C=C2)=O)=NO1
InChI: InChI=1S/C17H15N7O5S/c1-9-6-13(23-29-9)24-30(27,28)12-4-2-10(3-5-12)18-7-11-8-19-15-14(20-11)16(25)22-17(26)21-15/h2-6,8,18H,7H2,1H3,(H,23,24)(H2,19,21,22,25,26)
Instrument: Q-Exactive + Thermo Scientific
Instrument type: LC-ESI-QFT
Ms type: MS2
Ion mode: POSITIVE
Ionization: ESI
Fragmentation mode: HCD
Collision energy: 150 % (nominal)
Resolution: 17500
Column name: Atlantis T3 3um, 3.0x150mm, Waters
Retention time: 16.782 min
Base peak: 164.9847
Precursor m/z: 430.0928
Precursor type: [M+H]+
m/z	relative intensity	assigned
50.0151	58	C4H2+
51.0229	153	C4H3+
52.0182	625	C3H2N+
53.0022	7	C3HO+
53.0134	81	C2HN2+
53.026	110	C3H3N+
53.0386	108	C4H5+
53.9974	44	C2NO+
54.0338	66	C3H4N+
55.0178	9	C3H3O+
55.0291	6	C2H3N2+
62.015	15	C5H2+
63.0229	88	C5H3+
64.0181	10	C4H2N+
65.0386	131	C5H5+
66.0212	6	C3H2N2+
66.0339	4	C4H4N+
66.0464	29	C5H6+
67.0291	23	C3H3N2+
68.013	8	C3H2NO+
69.0083	16	C2HN2O+
69.9923	6	C2NO2+
70.0287	7	C3H4NO+
74.0149	16	C6H2+
75.0105	5	C5HN+
75.0229	103	C6H3+
76.0183	29	C5H2N+
76.0306	28	C6H4+
77.0134	34	C4HN2+
77.0386	94	C6H5+
78.0213	33	C4H2N2+
78.0339	22	C5H4N+
78.0465	37	C6H6+
79.0291	999	C4H3N2+
79.0542	57	C6H7+
80.0369	88	C4H4N2+
80.0495	112	C5H6N+
81.021	24	C4H3NO+
81.0334	6	C5H5O+
87.023	8	C7H3+
88.0182	27	C6H2N+
89.0386	238	C7H5+
90.0341	19	C6H4N+
91.0417	20	C6H5N+
91.0543	29	C7H7+
92.0495	23	C6H6N+
93.0085	19	C4HN2O+
93.0575	18	C6H7N+
95.0491	206	C6H7O+
96.0318	36	C4H4N2O+
96.0443	6	C5H6NO+
97.0397	19	C4H5N2O+
99.0231	9	C8H3+
100.0181	28	C7H2N+
101.0261	5	C7H3N+
101.0387	6	C8H5+
102.0341	18	C7H4N+
102.0465	9	C8H6+
103.0417	6	C7H5N+
104.0493	29	C7H6N+
105.0448	137	C6H5N2+
106.04	141	C5H4N3+
106.065	44	C7H8N+
107.0479	22	C5H5N3+
108.0449	7	C6H6NO+
110.0603	4	C6H8NO+
114.0339	152	C8H4N+
115.0417	37	C8H5N+
116.0371	6	C7H4N2+
116.0495	97	C8H6N+
117.0575	17	C8H7N+
118.0525	8	C7H6N2+
119.0496	4	C8H7O+
119.0605	5	C7H7N2+
120.0448	8	C7H6NO+
124.0504	33	C5H6N3O+
126.0342	6	C3H10O3S+
127.0417	19	C9H5N+
128.0369	6	C8H4N2+
128.0497	49	C9H6N+
129.0446	41	C8H5N2+
130.04	32	C7H4N3+
131.0614	5	C2H13NO3S+
132.0448	15	C8H6NO+
134.0605	22	C2H14O4S+
140.0369	16	C9H4N2+
141.0449	23	C9H5N2+
142.0528	54	C9H6N2+
143.0605	9	C9H7N2+
144.0451	4	C3H12O4S+
144.0556	7	C8H6N3+
146.0604	4	C9H8NO+
146.0716	4	C8H8N3+
153.0449	6	C10H5N2+
154.0402	9	C9H4N3+
155.0604	17	C10H7N2+
156.0559	5	C9H6N3+
158.0472	5	C9H6N2O+
168.0562	16	C4H12N2O3S+
239.0427	3	C3H9N7O4S+
