Mass spectrum: C10-LAS (SAMPLE); LC-ESI-QFT; MS2; HCD90; [M-H]-
Name: C10-LAS (SAMPLE)
Name: C10-linear alkylbenzyl sulfonate
Name: 4-(decan-4-yl)benzenesulfonic acid
Formula: C16H26O3S
Exact mass: 298.1603
SMILES: OS(=O)(=O)c1ccc(cc1)C(CCC)CCCCCC
InChI: InChI=1S/C16H26O3S/c1-3-5-6-7-9-14(8-4-2)15-10-12-16(13-11-15)20(17,18)19/h10-14H,3-9H2,1-2H3,(H,17,18,19)
Instrument: Q Exactive Orbitrap Thermo Scientific
Instrument type: LC-ESI-QFT
Ms type: MS2
Ion mode: NEGATIVE
Ionization: ESI
Fragmentation mode: HCD
Collision energy: 90 NCE
Base peak: 297.1521
Precursor m/z: 297.1521
Precursor type: [M-H]-
m/z	relative intensity
79.9571	394
80.9647	7
93.0346	8
117.0348	2
119.0503	855
133.0665	9
155.9879	8
169.9952	1
170.0036	39
183.0111	999
195.0119	15
196.021	9
197.0266	19
225.0584	6
239.0745	2
