Mass spectrum: SMZ-PtO; LC-ESI-QFT; MS2; CE: 30%; R=17500; [M+H]+
Name: SMZ-PtO
Formula: C17H15N7O5S
Exact mass: 429.0855
SMILES: CC1=CC(NS(=O)(C2=CC=C(NCC3=NC(C(NC(O)=N4)=O)=C4N=C3)C=C2)=O)=NO1
InChI: InChI=1S/C17H15N7O5S/c1-9-6-13(23-29-9)24-30(27,28)12-4-2-10(3-5-12)18-7-11-8-19-15-14(20-11)16(25)22-17(26)21-15/h2-6,8,18H,7H2,1H3,(H,23,24)(H2,19,21,22,25,26)
Instrument: Q-Exactive + Thermo Scientific
Instrument type: LC-ESI-QFT
Ms type: MS2
Ion mode: POSITIVE
Ionization: ESI
Fragmentation mode: HCD
Collision energy: 30 % (nominal)
Resolution: 17500
Column name: Atlantis T3 3um, 3.0x150mm, Waters
Retention time: 16.782 min
Base peak: 164.9847
Precursor m/z: 430.0928
Precursor type: [M+H]+
m/z	relative intensity	assigned
87.0441	2	C4H7O2+
88.0759	2	C4H10NO+
96.0447	4	C5H6NO+
99.0555	3	C4H7N2O+
106.0413	5	C7H6O+
106.065	10	C7H8N+
108.0444	15	C6H6NO+
108.0555	1	C5H6N3+
147.079	1	C8H9N3+
155.0596	1	C2H11N4O2S+
156.0115	9	C6H6NO2S+
159.0796	4	C9H9N3+
161.0021	2	C12HO+
166.0489	1	H12N3O5S+
170.0715	4	C10H8N3+
174.0672	1	C3H14N2O4S+
176.0569	3	C7H6N5O+
177.0407	89	C7H5N4O2+
178.0482	15	C7H6N4O2+
187.0609	1	C9H7N4O+
189.0894	8	C10H11N3O+
195.0515	49	C7H7N4O3+
197.0823	26	C11H9N4+
209.0671	4	C8H9N4O3+
213.0779	1	C5H15N3O4S+
223.0614	9	C12H7N4O+
225.0772	38	C6H15N3O4S+
227.0568	4	C11H7N4O2+
240.0875	4	C4H14N7O3S+
241.072	110	C12H9N4O2+
244.0824	1	C3H14N7O4S+
251.0564	22	C13H7N4O2+
254.0592	15	C10H12N3O3S+
267.0748	5	C13H9N5O2+
268.0829	999	C13H10N5O2+
269.0907	116	C13H11N5O2+
270.0985	9	C13H12N5O2+
272.0784	3	C12H10N5O3+
275.0889	1	C11H11N6O3+
283.0692	4	C5H13N7O5S+
284.0778	839	C13H10N5O3+
300.0728	20	C13H10N5O4+
332.0446	15	C13H10N5O4S+
336.1196	8	C16H14N7O2+
350.0553	150	C13H12N5O5S+
364.1133	3	C14H16N6O6+
