Mass spectrum: SMZ-PtO; LC-ESI-QFT; MS2; CE: 90%; R=17500; [M-H]-
Name: SMZ-PtO
Formula: C17H15N7O5S
Exact mass: 429.0855
SMILES: CC1=CC(NS(=O)(C2=CC=C(NCC3=NC(C(NC(O)=N4)=O)=C4N=C3)C=C2)=O)=NO1
InChI: InChI=1S/C17H15N7O5S/c1-9-6-13(23-29-9)24-30(27,28)12-4-2-10(3-5-12)18-7-11-8-19-15-14(20-11)16(25)22-17(26)21-15/h2-6,8,18H,7H2,1H3,(H,23,24)(H2,19,21,22,25,26)
Instrument: Q-Exactive + Thermo Scientific
Instrument type: LC-ESI-QFT
Ms type: MS2
Ion mode: NEGATIVE
Ionization: ESI
Fragmentation mode: HCD
Collision energy: 90 % (nominal)
Resolution: 17500
Column name: Atlantis T3 3um, 3.0x150mm, Waters
Retention time: 16.803 min
Base peak: 91.0036
Precursor m/z: 428.0783
Precursor type: [M-H]-
m/z	relative intensity	assigned
52.0192	9	C3H2N-
63.9625	273	O2S-
65.0143	19	C3HN2-
65.9984	19	C3NO-
77.9655	70	NO2S-
82.0297	151	C4H4NO-
91.0428	259	C6H5N-
92.0506	532	C6H6N-
94.0299	24	C5H4NO-
105.0332	13	C5H3N3-
107.0378	335	C6H5NO-
117.0212	11	C5HN4-
117.0456	52	C7H5N2-
120.0205	18	C5H2N3O-
131.0485	12	C7H5N3-
132.02	21	C6H2N3O-
133.0283	242	C6H3N3O-
134.035	12	C4H2N6-
148.0395	19	C6H4N4O-
153.9712	10	C4N3O2S-
155.0055	13	H3N4O6-
175.0254	14	C7H3N4O2-
176.0339	999	C7H4N4O2-
208.0238	20	C7H4N4O4-
