Mass spectrum: ROS_p_352.1124_22.0; LC-ESI-QFT; MS2; CE: 15%; R=17500; [M+H]+
Name: ROS_p_352.1124_22.0
Name: N-(4-(4-Fluorophenyl)-5-formyl-6-isopropylpyrimidin-2-yl)-N-methylmethanesulfonamide
Name: N-[4-(4-fluorophenyl)-5-formyl-6-propan-2-ylpyrimidin-2-yl]-N-methylmethanesulfonamide
Class: identified ozonation transformation product
Formula: C16H18FN3O3S
Exact mass: 351.1053
SMILES: CC(C)c2nc(N(C)S(C)(=O)=O)nc(c1ccc(F)cc1)c2C=O
InChI: InChI=1S/C16H18FN3O3S/c1-10(2)14-13(9-21)15(11-5-7-12(17)8-6-11)19-16(18-14)20(3)24(4,22)23/h5-10H,1-4H3
Instrument: Q Exactive Plus Orbitrap Thermo Scientific
Instrument type: LC-ESI-QFT
Ms type: MS2
Ion mode: POSITIVE
Ionization: ESI
Fragmentation mode: HCD
Collision energy: 15 % (nominal)
Resolution: 17500
Column name: C18 Atlantis T3 5 um, 3x150 mm, Waters
Retention time: 21.959 min
Base peak: 229.1435
Precursor m/z: 352.1126
Precursor type: [M+H]+
Precursor intensity: 8885750
m/z	relative intensity	assigned
230.1078	1	C10H18N2O2S+
274.1345	1	C15H17FN3O+
320.0601	11	C15H13FN2O3S+
352.1126	999	C16H19FN3O3S+
