Mass spectrum: SMZ-PtO; LC-ESI-QFT; MS2; CE: 30%; R=17500; [M-H]-
Name: SMZ-PtO
Formula: C17H15N7O5S
Exact mass: 429.0855
SMILES: CC1=CC(NS(=O)(C2=CC=C(NCC3=NC(C(NC(O)=N4)=O)=C4N=C3)C=C2)=O)=NO1
InChI: InChI=1S/C17H15N7O5S/c1-9-6-13(23-29-9)24-30(27,28)12-4-2-10(3-5-12)18-7-11-8-19-15-14(20-11)16(25)22-17(26)21-15/h2-6,8,18H,7H2,1H3,(H,23,24)(H2,19,21,22,25,26)
Instrument: Q-Exactive + Thermo Scientific
Instrument type: LC-ESI-QFT
Ms type: MS2
Ion mode: NEGATIVE
Ionization: ESI
Fragmentation mode: HCD
Collision energy: 30 % (nominal)
Resolution: 17500
Column name: Atlantis T3 3um, 3.0x150mm, Waters
Retention time: 16.803 min
Base peak: 91.0036
Precursor m/z: 428.0783
Precursor type: [M-H]-
m/z	relative intensity	assigned
92.0503	8	C6H6N-
96.033	1	C4H4N2O-
117.0453	1	C7H5N2-
122.0249	12	C6H4NO2-
146.072	1	C8H8N3-
155.0046	13	C6H5NO2S-
156.0125	26	C6H6NO2S-
159.9949	8	C4H4N2O3S-
161.072	9	C9H9N2O-
163.0253	1	C4HN7O-
175.0262	6	C7H3N4O2-
176.0338	195	C7H4N4O2-
177.0421	2	C7H5N4O2-
187.0749	2	C10H9N3O-
188.0831	7	C10H10N3O-
208.0244	5	C7H4N4O4-
224.0951	5	C12H10N5-
225.0793	1	C14H11NO2-
251.0365	8	C16H3N4-
252.0448	43	C10H10N3O3S-
267.076	57	C13H9N5O2-
268.0839	108	C13H10N5O2-
270.063	7	C12H8N5O3-
282.0873	26	C13H10N6O2-
288.0559	89	C12H10N5O2S-
289.0396	8	C12H9N4O3S-
314.0352	11	C13H8N5O3S-
315.041	9	C16H5N5O3-
332.0459	999	C13H10N5O4S-
347.056	1	C13H11N6O4S-
384.0896	1	C16H14N7O3S-
385.0701	1	C14H11N9O3S-
428.0786	289	C17H14N7O5S-
