Mass spectrum: CBDZ-M; LC-ESI-QFT; MS2; CE: 15%; R=17500; [M+H]+
Name: CBDZ-M
Name: Lobendazole
Name: ethyl N-(1H-benzimidazol-2-yl)carbamate
Formula: C10H11N3O2
Exact mass: 205.0851
SMILES: O=C(NC1=NC2=CC=CC=C2N1)OCC
InChI: InChI=1S/C10H11N3O2/c1-2-15-10(14)13-9-11-7-5-3-4-6-8(7)12-9/h3-6H,2H2,1H3,(H2,11,12,13,14)
Instrument: Q-Exactive + Thermo Scientific
Instrument type: LC-ESI-QFT
Ms type: MS2
Ion mode: POSITIVE
Ionization: ESI
Fragmentation mode: HCD
Collision energy: 15 % (nominal)
Resolution: 17500
Column name: Atlantis T3 3um, 3.0x150mm, Waters
Retention time: 15.185 min
Base peak: 268.1907
Precursor m/z: 206.0924
Precursor type: [M+H]+
m/z	relative intensity	assigned
59.049	2	C3H7O+
99.0803	1	C6H11O+
101.0596	1	C5H9O2+
115.0752	8	C6H11O2+
133.0633	1	C7H7N3+
134.071	26	C7H8N3+
149.0235	5	C8H5O3+
160.0505	268	C8H6N3O+
178.0611	437	C8H8N3O2+
206.0925	999	C10H12N3O2+
