Mass spectrum: C10-LAS (STANDARD MIX); LC-ESI-QFT; MS2; HCD90; [M-H]-
Name: C10-LAS (STANDARD MIX)
Name: C10-linear alkylbenzyl sulfonate
Name: 4-(decan-4-yl)benzenesulfonic acid
Formula: C16H26O3S
Exact mass: 298.1603
SMILES: OS(=O)(=O)c1ccc(cc1)C(CCC)CCCCCC
InChI: InChI=1S/C16H26O3S/c1-3-5-6-7-9-14(8-4-2)15-10-12-16(13-11-15)20(17,18)19/h10-14H,3-9H2,1-2H3,(H,17,18,19)
Instrument: Q Exactive Orbitrap Thermo Scientific
Instrument type: LC-ESI-QFT
Ms type: MS2
Ion mode: NEGATIVE
Ionization: ESI
Fragmentation mode: HCD
Collision energy: 90 NCE
Base peak: 297.1521
Precursor m/z: 297.1521
Precursor type: [M-H]-
m/z	relative intensity
79.9565	359
119.0504	830
170.0038	36
183.0114	999
197.027	18
