Mass spectrum: LID_p_251.1752_13.6; LC-ESI-QFT; MS2; CE: 55%; R=17500; [M+H]+
Name: LID_p_251.1752_13.6
Name: Lidocaine N-oxide
Name: 2-(2,6-dimethylanilino)-N,N-diethyl-2-oxoethanamine oxide
Class: identified ozonation transformation product
Formula: C14H22N2O2
Exact mass: 250.1681
SMILES: CC[N+](CC)(CC(=O)NC1=C(C=CC=C1C)C)[O-]
InChI: InChI=1S/C14H22N2O2/c1-5-16(18,6-2)10-13(17)15-14-11(3)8-7-9-12(14)4/h7-9H,5-6,10H2,1-4H3,(H,15,17)
Instrument: Q Exactive Plus Orbitrap Thermo Scientific
Instrument type: LC-ESI-QFT
Ms type: MS2
Ion mode: POSITIVE
Ionization: ESI
Fragmentation mode: HCD
Collision energy: 55 % (nominal)
Resolution: 17500
Column name: C18 Atlantis T3 5 um, 3x150 mm, Waters
Retention time: 13.865 min
Base peak: 270.2334
Precursor m/z: 251.1754
Precursor type: [M+H]+
Precursor intensity: 114820568
m/z	relative intensity	assigned
56.0496	5	C3H6N+
58.0651	89	C3H8N+
60.0444	80	C2H6NO+
72.0808	22	C4H10N+
74.06	62	C3H8NO+
74.0964	11	C4H12N+
84.0807	10	C5H10N+
86.0964	999	C5H12N+
88.0757	299	C4H10NO+
90.0915	4	C4H12NO+
105.0699	40	C8H9+
107.0731	3	C7H9N+
112.0753	2	C6H10NO+
120.0808	172	C8H10N+
121.0644	3	C8H9O+
121.0889	10	C8H11N+
122.0964	66	C8H12N+
123.0804	13	C8H11O+
130.086	7	C6H12NO2+
132.0807	3	C9H10N+
133.0759	7	C8H9N2+
134.0963	15	C9H12N+
146.0959	2	C10H12N+
147.0673	1	C9H9NO+
148.0757	42	C9H10NO+
150.0911	2	C9H12NO+
163.0617	2	C9H9NO2+
163.0985	2	C10H13NO+
164.107	31	C10H14NO+
251.1753	3	C14H23N2O2+
