Mass spectrum: CBDZ-M; LC-ESI-QFT; MS2; CE: 90%; R=17500; [M+H]+
Name: CBDZ-M
Name: Lobendazole
Name: ethyl N-(1H-benzimidazol-2-yl)carbamate
Formula: C10H11N3O2
Exact mass: 205.0851
SMILES: O=C(NC1=NC2=CC=CC=C2N1)OCC
InChI: InChI=1S/C10H11N3O2/c1-2-15-10(14)13-9-11-7-5-3-4-6-8(7)12-9/h3-6H,2H2,1H3,(H2,11,12,13,14)
Instrument: Q-Exactive + Thermo Scientific
Instrument type: LC-ESI-QFT
Ms type: MS2
Ion mode: POSITIVE
Ionization: ESI
Fragmentation mode: HCD
Collision energy: 90 % (nominal)
Resolution: 17500
Column name: Atlantis T3 3um, 3.0x150mm, Waters
Retention time: 15.185 min
Base peak: 268.1907
Precursor m/z: 206.0924
Precursor type: [M+H]+
m/z	relative intensity	assigned
65.0386	109	C5H5+
66.0422	2	H6N2O2+
80.0494	25	C5H6N+
88.0756	10	C4H10NO+
90.034	19	C6H4N+
91.0542	1	C7H7+
92.0495	414	C6H6N+
93.0573	66	C6H7N+
105.0447	77	C6H5N2+
106.0526	6	C6H6N2+
107.0603	70	C6H7N2+
110.06	5	C6H8NO+
117.0449	8	C7H5N2+
117.0573	1	C8H7N+
124.0758	1	C7H10NO+
125.0703	1	C6H9N2O+
132.0557	239	C7H6N3+
133.0635	69	C7H7N3+
134.0713	999	C7H8N3+
135.0552	52	C7H7N2O+
160.0506	569	C8H6N3O+
