Mass spectrum: RAN-dm; LC-ESI-QFT; MS2; CE: 15%; R=17500; [M+H]+
Name: RAN-dm
Name: Desmethyl Ranitidine
Name: (E)-1-N-methyl-1-N`-[2-[[5-(methylaminomethyl)furan-2-yl]methylsulfanyl]ethyl]-2-nitroethene-1,1-diamine
Formula: C12H20N4O3S
Exact mass: 300.1256
SMILES: CN/C(NCCSCC1=CC=C(CNC)O1)=C\[N+]([O-])=O
InChI: InChI=1S/C12H20N4O3S/c1-13-7-10-3-4-11(19-10)9-20-6-5-15-12(14-2)8-16(17)18/h3-4,8,13-15H,5-7,9H2,1-2H3/b12-8+
Instrument: Q-Exactive + Thermo Scientific
Instrument type: LC-ESI-QFT
Ms type: MS2
Ion mode: POSITIVE
Ionization: ESI
Fragmentation mode: HCD
Collision energy: 15 % (nominal)
Resolution: 17500
Column name: Atlantis T3 3um, 3.0x150mm, Waters
Retention time: 10.238 min
Base peak: 267.1704
Precursor m/z: 301.1329
Precursor type: [M+H]+
m/z	relative intensity	assigned
98.0839	35	C5H10N2+
124.0755	432	C7H10NO+
144.0774	306	C5H10N3O2+
176.049	999	C5H10N3O2S+
196.9921	75	C9HN4S+
211.0082	34	C12H5NOS+
224.0986	258	C11H16N2OS+
242.9978	71	C12H5NO3S+
270.0906	965	C11H16N3O3S+
