Mass spectrum: BEZ-M; LC-ESI-QFT; MS2; CE: 45%; R=17500; [M+H]+
Name: BEZ-M
Formula: C20H22ClNO4
Exact mass: 375.1237
SMILES: CC(C(OC)=O)(OC1=CC=C(CCNC(C2=CC=C(Cl)C=C2)=O)C=C1)C
InChI: InChI=1S/C20H22ClNO4/c1-20(2,19(24)25-3)26-17-10-4-14(5-11-17)12-13-22-18(23)15-6-8-16(21)9-7-15/h4-11H,12-13H2,1-3H3,(H,22,23)
Instrument: Q-Exactive + Thermo Scientific
Instrument type: LC-ESI-QFT
Ms type: MS2
Ion mode: POSITIVE
Ionization: ESI
Fragmentation mode: HCD
Collision energy: 45 % (nominal)
Resolution: 17500
Column name: Atlantis T3 3um, 3.0x150mm, Waters
Retention time: 22.957 min
Base peak: 292.1212
Precursor m/z: 376.131
Precursor type: [M+H]+
m/z	relative intensity	assigned
55.0179	32	C3H3O+
55.054	3	C4H7+
57.0699	96	C4H9+
59.0492	4	C3H7O+
67.0541	13	C5H7+
69.0335	40	C4H5O+
69.0699	4	C5H9+
71.0854	6	C5H11+
73.0648	205	C4H9O+
81.0699	6	C6H9+
85.0644	4	C5H9O+
88.0755	4	C4H10NO+
91.0542	13	C7H7+
93.0698	41	C7H9+
95.0493	3	C6H7O+
99.0445	3	C2H10ClNO+
99.0802	3	C6H11O+
101.0596	92	C5H9O2+
103.0541	15	C8H7+
105.0336	3	C7H5O+
105.0702	4	C8H9+
109.1012	15	C8H13+
111.0002	4	C6H4Cl+
113.0597	56	C6H9O2+
119.0852	8	C9H11+
121.0648	618	C8H9O+
123.1171	5	C9H15+
133.0654	5	C6H12ClN+
133.1009	4	C10H13+
135.0809	7	C6H14ClN+
135.1164	4	C10H15+
137.0967	5	C6H16ClN+
138.9945	999	C7H4ClO+
141.0545	14	C7H9O3+
149.06	8	C6H12ClNO+
156.0216	5	C7H7ClNO+
161.0961	69	C11H13O+
171.1169	4	C13H15+
175.1119	3	C12H15O+
182.0367	3	C9H9ClNO+
189.0914	4	C9H16ClNO+
196.1227	2	C9H21ClO2+
201.0551	3	C9H12ClNO2+
203.0713	3	C9H14ClNO2+
204.1149	74	C10H19ClNO+
209.1296	5	C10H22ClO2+
218.1299	20	C14H18O2+
222.1254	135	C10H21ClNO2+
235.064	3	C12H12ClN2O+
236.1413	19	C11H23ClNO2+
259.1337	4	C13H22ClNO2+
260.1422	5	C13H23ClNO2+
275.1744	6	C16H23N2O2+
