Mass spectrum: RAN-dm; LC-ESI-QFT; MS2; CE: 45%; R=17500; [M+H]+
Name: RAN-dm
Name: Desmethyl Ranitidine
Name: (E)-1-N-methyl-1-N`-[2-[[5-(methylaminomethyl)furan-2-yl]methylsulfanyl]ethyl]-2-nitroethene-1,1-diamine
Formula: C12H20N4O3S
Exact mass: 300.1256
SMILES: CN/C(NCCSCC1=CC=C(CNC)O1)=C\[N+]([O-])=O
InChI: InChI=1S/C12H20N4O3S/c1-13-7-10-3-4-11(19-10)9-20-6-5-15-12(14-2)8-16(17)18/h3-4,8,13-15H,5-7,9H2,1-2H3/b12-8+
Instrument: Q-Exactive + Thermo Scientific
Instrument type: LC-ESI-QFT
Ms type: MS2
Ion mode: POSITIVE
Ionization: ESI
Fragmentation mode: HCD
Collision energy: 45 % (nominal)
Resolution: 17500
Column name: Atlantis T3 3um, 3.0x150mm, Waters
Retention time: 10.238 min
Base peak: 267.1704
Precursor m/z: 301.1329
Precursor type: [M+H]+
m/z	relative intensity	assigned
95.0496	33	C6H7O+
97.0761	106	C5H9N2+
98.0839	314	C5H10N2+
102.0373	449	C4H8NS+
124.0757	74	C7H10NO+
125.0056	748	C6H5OS+
130.056	999	C5H10N2S+
135.0023	30	HN5O4+
148.0759	39	C9H10NO+
165.1022	118	C9H13N2O+
176.0487	321	C5H10N3O2S+
177.1021	34	C10H13N2O+
181.0794	30	C9H13N2S+
191.1179	167	C11H15N2O+
196.9923	114	C11H3NOS+
