Mass spectrum: FEN_p_320.2220_22.5; LC-ESI-QFT; MS2; CE: 30%; R=17500; [M+H]+
Name: FEN_p_320.2220_22.5
Name: Fenpropidin N-oxide -H2 +O2
Name: 1-(3-(4-(tert-butyl)phenyl)-2-methylpropyl)piperidine 1-oxide -H2 +O2
Class: identified ozonation transformation product
Formula: C19H29NO3
Exact mass: 319.2147
Instrument: Q Exactive Plus Orbitrap Thermo Scientific
Instrument type: LC-ESI-QFT
Ms type: MS2
Ion mode: POSITIVE
Ionization: ESI
Fragmentation mode: HCD
Collision energy: 30 % (nominal)
Resolution: 17500
Column name: C18 Atlantis T3 5 um, 3x150 mm, Waters
Retention time: 23.452 min
Base peak: 65.0597
Precursor m/z: 320.222
Precursor type: [M+H]+
Precursor intensity: 33694848
m/z	relative intensity	assigned
56.0495	70	C3H6N+
57.07	6	C4H9+
72.0444	3	C3H6NO+
74.06	10	C3H8NO+
84.0445	2	C4H6NO+
102.0549	409	C4H8NO2+
163.1115	5	C11H15O+
189.1262	1	C13H17O+
219.1744	527	C15H23O+
231.1741	2	C16H23O+
244.1697	20	C16H22NO+
246.1485	6	C15H20NO2+
247.1691	6	C16H23O2+
290.2111	18	C18H28NO2+
302.2115	999	C19H28NO2+
320.2221	429	C19H30NO3+
