Mass spectrum: MPL-dm; LC-ESI-QFT; MS2; CE: 60%; R=17500; [M+H]+
Name: MPL-dm
Name: O-Demethylmetoprolol
Name: 1-[4-(2-hydroxyethyl)phenoxy]-3-(propan-2-ylamino)propan-2-ol
Formula: C14H23NO3
Exact mass: 253.1678
SMILES: CC(NCC(O)COC1=CC=C(CCO)C=C1)C
InChI: InChI=1S/C14H23NO3/c1-11(2)15-9-13(17)10-18-14-5-3-12(4-6-14)7-8-16/h3-6,11,13,15-17H,7-10H2,1-2H3
Instrument: Q-Exactive Thermo Scientific
Instrument type: LC-ESI-QFT
Ms type: MS2
Ion mode: POSITIVE
Ionization: ESI
Fragmentation mode: HCD
Collision energy: 60 % (nominal)
Resolution: 17500
Column name: Atlantis T3 3um, 3.0x150mm, Waters
Retention time: 10.489 min
Base peak: 250.2013
Precursor m/z: 254.1751
Precursor type: [M+H]+
m/z	relative intensity	assigned
55.0179	14	C3H3O+
56.0495	690	C3H6N+
58.0652	178	C3H8N+
67.0542	8	C5H7+
70.065	9	C4H8N+
72.0807	999	C4H10N+
74.0599	951	C3H8NO+
77.0383	12	C6H5+
79.0542	96	C6H7+
81.0699	9	C6H9+
84.0806	56	C5H10N+
87.0442	15	C4H7O2+
91.0542	487	C7H7+
93.0698	63	C7H9+
95.0491	106	C6H7O+
95.0854	18	C7H11+
98.0965	487	C6H12N+
100.1122	57	C6H14N+
103.0543	139	C8H7+
105.0699	448	C8H9+
107.049	17	C7H7O+
107.0854	11	C8H11+
115.0544	74	C9H7+
116.0619	84	C9H8+
116.107	407	C6H14NO+
117.0698	88	C9H9+
119.0853	36	C9H11+
121.0647	537	C8H9O+
129.0698	111	C10H9+
131.0491	69	C9H7O+
131.0856	320	C10H11+
133.0648	968	C9H9O+
135.0798	16	C7H9N3+
141.0698	111	C11H9+
144.0569	183	C10H8O+
147.0804	73	C10H11O+
148.0757	165	C9H10NO+
149.0598	25	C9H9O2+
149.071	246	C8H9N2O+
151.0754	451	C9H11O2+
159.0804	572	C11H11O+
165.0914	39	C10H13O2+
167.0112	9	C9HN3O+
169.076	21	C11H9N2+
176.1067	14	C11H14NO+
177.0909	327	C11H13O2+
254.1748	22	C14H24NO3+
