Mass spectrum: SMZ-AcOH; LC-ESI-QFT; MS2; CE: 75%; R=17500; [M+H]+
Name: SMZ-AcOH
Formula: C12H13N3O5S
Exact mass: 311.0576
Instrument: Q-Exactive + Thermo Scientific
Instrument type: LC-ESI-QFT
Ms type: MS2
Ion mode: POSITIVE
Ionization: ESI
Fragmentation mode: HCD
Collision energy: 75 % (nominal)
Resolution: 17500
Column name: Atlantis T3 3um, 3.0x150mm, Waters
Retention time: 16.844 min
Base peak: 278.2115
Precursor m/z: 312.0649
Precursor type: [M+H]+
m/z	relative intensity	assigned
50.0151	3	C4H2+
53.0386	18	C4H5+
55.0178	51	C3H3O+
56.0494	6	C3H6N+
57.0334	20	C3H5O+
57.0698	5	C4H9+
59.0492	40	C3H7O+
60.0204	3	C2H4O2+
60.0444	20	C2H6NO+
65.0386	81	C5H5+
67.0543	42	C5H7+
68.0495	15	C4H6N+
72.0444	4	C3H6NO+
73.0282	3	C3H5O2+
77.0386	6	C6H5+
78.0337	3	C5H4N+
78.0462	4	C6H6+
79.0543	48	C6H7+
80.0493	3	C5H6N+
87.0441	13	C4H7O2+
89.0597	19	C4H9O2+
91.0415	39	C6H5N+
92.0495	98	C6H6N+
93.0336	43	C6H5O+
93.0572	7	C6H7N+
94.0652	153	C6H8N+
95.0491	111	C6H7O+
96.0443	58	C5H6NO+
99.0555	36	C4H7N2O+
101.0598	28	C5H9O2+
104.0495	315	C7H6N+
105.045	26	C6H5N2+
105.0573	33	C7H7N+
106.0651	641	C7H8N+
108.0443	4	C6H6NO+
110.0598	21	C6H8NO+
119.0607	13	C7H7N2+
120.0444	999	C7H6NO+
122.0601	110	C7H8NO+
131.0601	4	C8H7N2+
132.0447	13	C8H6NO+
132.0683	6	C8H8N2+
136.9784	2	C2H3NO4S+
137.0473	25	C7H7NO2+
143.0606	5	C9H7N2+
144.0682	18	C9H8N2+
145.0636	2	C8H7N3+
146.0716	27	C8H8N3+
147.0793	6	C8H9N3+
150.0549	17	C8H8NO2+
158.0714	11	C9H8N3+
159.079	35	C9H9N3+
160.086	3	CH14N5O2S+
166.05	66	C8H8NO3+
172.0867	15	C10H10N3+
174.0667	11	C3H14N2O4S+
230.0205	2	C12H6O5+
