Mass spectrum: SMZ-Pt; LC-ESI-QFT; MS2; CE: 45%; R=17500; [M+H]+
Name: SMZ-Pt
Formula: C17H16N8O4S
Exact mass: 428.1015
SMILES: CC1=CC(NS(=O)(C2=CC=C(NCC3=NC(C(NC(N)=N4)=O)=C4N=C3)C=C2)=O)=NO1
InChI: InChI=1S/C17H16N8O4S/c1-9-6-13(24-29-9)25-30(27,28)12-4-2-10(3-5-12)19-7-11-8-20-15-14(21-11)16(26)23-17(18)22-15/h2-6,8,19H,7H2,1H3,(H,24,25)(H3,18,20,22,23,26)
Instrument: Q-Exactive + Thermo Scientific
Instrument type: LC-ESI-QFT
Ms type: MS2
Ion mode: POSITIVE
Ionization: ESI
Fragmentation mode: HCD
Collision energy: 45 % (nominal)
Resolution: 17500
Column name: Atlantis T3 3um, 3.0x150mm, Waters
Retention time: 16.780 min
Base peak: 164.9846
Precursor m/z: 429.1088
Precursor type: [M+H]+
m/z	relative intensity	assigned
70.0649	16	C4H8N+
108.0556	76	C5H6N3+
117.9705	16	CN3O2S+
170.0714	17	C10H8N3+
176.0567	999	C7H6N5O+
177.0648	66	C7H7N5O+
194.0683	17	C9H10N2O3+
195.067	26	C11H7N4+
197.0824	66	C11H9N4+
222.0776	152	C12H8N5+
224.0922	53	C12H10N5+
238.0727	20	C6H14N4O4S+
240.0876	285	C4H14N7O3S+
250.072	28	C13H8N5O+
267.0987	264	C13H11N6O+
283.0938	209	C13H11N6O2+
