Mass spectrum: 8phiC8SPC (STANDARD); LC-ESI-QFT; MS2; HCD80; [M-H]-
Name: 8phiC8SPC (STANDARD)
Name: Octacarboxy sulfophenyl carboxylic acid
Name: 8-(4-sulfophenyl)octanoic acid
Formula: C14H20O5S
Exact mass: 300.1031
SMILES: OS(=O)(=O)c1ccc(CCCCCCCC(=O)O)cc1
InChI: InChI=1S/C14H20O5S/c15-14(16)7-5-3-1-2-4-6-12-8-10-13(11-9-12)20(17,18)19/h8-11H,1-7H2,(H,15,16)(H,17,18,19)
Instrument: Q Exactive Orbitrap Thermo Scientific
Instrument type: LC-ESI-QFT
Ms type: MS2
Ion mode: NEGATIVE
Ionization: ESI
Fragmentation mode: HCD
Collision energy: 80 NCE
Base peak: 299.0955
Precursor m/z: 299.0955
Precursor type: [M-H]-
m/z	relative intensity
63.9617	43
79.9568	322
80.9646	22
95.0135	3
106.0423	7
119.0504	28
133.0659	3
155.9889	20
158.9756	1
170.0044	999
183.012	188
184.0198	3
197.0278	15
201.9941	41
211.0438	7
225.0597	1
281.0852	4
299.0955	7
