Mass spectrum: LID_p_247.1438_17.8; LC-ESI-QFT; MS2; CE: 60%; R=17500; [M+H]+
Name: LID_p_247.1438_17.8
Name: Hydroxy-tetradehydrogenated lidocaine
Name: 2-(diethylamino)-N-(2,6-dimethylphenyl)acetamide -H4 +O
Class: identified ozonation transformation product
Formula: C14H18N2O2
Exact mass: 246.1368
Instrument: Q Exactive Plus Orbitrap Thermo Scientific
Instrument type: LC-ESI-QFT
Ms type: MS2
Ion mode: POSITIVE
Ionization: ESI
Fragmentation mode: HCD
Collision energy: 60 % (nominal)
Resolution: 17500
Column name: C18 Atlantis T3 5 um, 3x150 mm, Waters
Retention time: 16.966 min
Base peak: 137.09
Precursor m/z: 247.1441
Precursor type: [M+H]+
Precursor intensity: 1462719.625
m/z	relative intensity	assigned
50.0175	2	
52.9314	2	
54.3204	2	
55.0178	3	C3H3O+
55.0542	31	C4H7+
56.0495	65	C3H6N+
56.0575	11	
57.0528	8	
57.0699	4	C4H9+
59.0491	16	C3H7O+
62.0602	4	C2H8NO+
67.0542	10	C5H7+
69.0334	3	C4H5O+
69.0698	21	C5H9+
69.3939	6	
70.0287	9	C3H4NO+
70.0652	3	C4H8N+
70.0731	11	H10N2O2+
72.0443	61	C3H6NO+
72.0807	999	C4H10N+
74.06	15	C3H8NO+
75.0632	4	
79.0541	28	C6H7+
80.0491	4	C5H6N+
81.0697	5	C6H9+
83.0855	5	C6H11+
86.1847	3	
88.0756	5	C4H10NO+
89.0788	3	
91.0542	21	C7H7+
93.0698	23	C7H9+
95.0491	8	C6H7O+
95.0856	8	C7H11+
97.0643	4	C6H9O+
98.06	6	C5H8NO+
98.0962	4	C6H12N+
103.0542	52	C8H7+
105.0698	298	C8H9+
106.0778	8	C8H10+
107.0856	34	C8H11+
109.0646	4	C7H9O+
109.1015	6	C8H13+
110.1045	8	C3H14N2O2+
116.0623	4	C9H8+
116.5313	3	
117.0572	15	C8H7N+
118.0649	26	C8H8N+
119.0487	6	C8H7O+
119.0855	25	C9H11+
120.0807	158	C8H10N+
121.0646	3	C8H9O+
121.1017	5	C9H13+
123.0804	43	C8H11O+
129.0698	34	C10H9+
130.0649	48	C9H8N+
130.0733	32	C5H10N2O2+
131.0759	5	
131.0852	24	C10H11+
132.0806	84	C9H10N+
133.0522	34	C8H7NO+
133.0759	50	C8H9N2+
133.0884	70	C9H11N+
138.0996	5	
146.0965	22	C10H12N+
148.0756	272	C9H10NO+
148.1119	757	C10H14N+
156.6748	3	
166.0945	8	
174.0902	6	C11H12NO+
185.1151	4	
217.0752	3	
229.2357	5	
247.1436	12	C14H19N2O2+
