Mass spectrum: SMZ-Pt; LC-ESI-QFT; MS2; CE: 60%; R=17500; [M+H]+
Name: SMZ-Pt
Formula: C17H16N8O4S
Exact mass: 428.1015
SMILES: CC1=CC(NS(=O)(C2=CC=C(NCC3=NC(C(NC(N)=N4)=O)=C4N=C3)C=C2)=O)=NO1
InChI: InChI=1S/C17H16N8O4S/c1-9-6-13(24-29-9)25-30(27,28)12-4-2-10(3-5-12)19-7-11-8-20-15-14(21-11)16(26)23-17(18)22-15/h2-6,8,19H,7H2,1H3,(H,24,25)(H3,18,20,22,23,26)
Instrument: Q-Exactive + Thermo Scientific
Instrument type: LC-ESI-QFT
Ms type: MS2
Ion mode: POSITIVE
Ionization: ESI
Fragmentation mode: HCD
Collision energy: 60 % (nominal)
Resolution: 17500
Column name: Atlantis T3 3um, 3.0x150mm, Waters
Retention time: 16.780 min
Base peak: 164.9846
Precursor m/z: 429.1088
Precursor type: [M+H]+
m/z	relative intensity	assigned
81.0447	83	C4H5N2+
91.0576	39	C4H11S+
106.04	115	C5H4N3+
108.0556	432	C5H6N3+
124.0506	54	C5H6N3O+
134.0346	27	C6H4N3O+
148.062	25	C6H6N5+
155.0605	29	C10H7N2+
170.071	126	C10H8N3+
176.0567	999	C7H6N5O+
177.0645	140	C7H7N5O+
195.0673	160	C11H7N4+
197.0824	54	C11H9N4+
222.0773	138	C12H8N5+
223.0624	34	C6H13N3O4S+
224.094	39	C12H10N5+
239.0832	22	C9H13N5OS+
240.0874	87	C4H14N7O3S+
267.0994	32	C7H17N5O4S+
270.9818	21	C12H3N2O4S+
