Mass spectrum: 4-Hydroxybenzotriazole; LC-ESI-ITFT; MS2; 80-110; R=7500; [M+H]+
Name: 4-Hydroxybenzotriazole
Name: 1,2-dihydrobenzotriazol-4-one
Name: 2H-benzotriazol-4-ol
Name: 4-Hydroxy-1H-benzotriazole
Formula: C6H5N3O
Exact mass: 135.04326178
SMILES: C1=CC2=NNN=C2C(=C1)O
InChI: InChI=1S/C6H5N3O/c10-5-3-1-2-4-6(5)8-9-7-4/h1-3,10H,(H,7,8,9)
Instrument: LTQ Orbitrap XL Thermo Scientific
Instrument type: LC-ESI-ITFT
Ms type: MS2
Ion mode: POSITIVE
Ionization: ESI
Fragmentation mode: HCD
Collision energy: scaled 80 (m/z=200) to 110 (m/z=120)
Resolution: 7500
Column name: Atlantis T3 3um, 3.0x150mm, Waters
Retention time: 16.9 min
Base peak: 136.0501
Precursor m/z: 136.0501
Precursor type: [M+H]+
m/z	relative intensity
53.0377	61
54.033	31
62.0144	5
63.0221	203
64.0173	13
68.0122	18
78.0329	13
80.0345	6
80.0388	9
80.0487	999
80.0585	6
80.0604	9
81.0327	192
81.0441	9
90.0331	60
96.0438	7
107.0359	19
108.0438	43
109.0108	6
136.0501	523
