Mass spectrum: BEZ-da; LC-ESI-QFT; MS2; CE: 150%; R=17500; [M+H]+
Name: BEZ-da
Name: 4-chloro-N-[2-(4-hydroxyphenyl)ethyl]benzamide
Formula: C15H14ClNO2
Exact mass: 275.0713
SMILES: OC1=CC=C(CCNC(C2=CC=C(Cl)C=C2)=O)C=C1
InChI: InChI=1S/C15H14ClNO2/c16-13-5-3-12(4-6-13)15(19)17-10-9-11-1-7-14(18)8-2-11/h1-8,18H,9-10H2,(H,17,19)
Instrument: Q-Exactive + Thermo Scientific
Instrument type: LC-ESI-QFT
Ms type: MS2
Ion mode: POSITIVE
Ionization: ESI
Fragmentation mode: HCD
Collision energy: 150 % (nominal)
Resolution: 17500
Column name: Atlantis T3 3um, 3.0x150mm, Waters
Retention time: 20.870 min
Base peak: 304.2847
Precursor m/z: 276.0786
Precursor type: [M+H]+
m/z	relative intensity	assigned
50.0151	150	C4H2+
51.0229	609	C4H3+
53.0021	31	C3HO+
53.0386	298	C4H5+
55.0176	26	C3H3O+
55.0542	30	C4H7+
63.0229	23	C5H3+
65.0386	299	C5H5+
66.0462	28	C5H6+
67.0541	27	C5H7+
74.0151	171	C6H2+
75.0229	999	C6H3+
77.0385	374	C6H5+
78.0464	80	C6H6+
84.984	44	C4H2Cl+
91.0543	347	C7H7+
94.0412	33	C6H6O+
95.0492	754	C6H7O+
102.0463	31	C8H6+
103.054	90	C8H7+
105.0448	388	C6H5N2+
110.9994	27	C6H4Cl+
115.0543	29	C9H7+
129.01	47	C6H6ClO+
139.0058	133	C9HNO+
