Mass spectrum: MPL-dm; LC-ESI-QFT; MS2; CE: 75%; R=17500; [M+H]+
Name: MPL-dm
Name: O-Demethylmetoprolol
Name: 1-[4-(2-hydroxyethyl)phenoxy]-3-(propan-2-ylamino)propan-2-ol
Formula: C14H23NO3
Exact mass: 253.1678
SMILES: CC(NCC(O)COC1=CC=C(CCO)C=C1)C
InChI: InChI=1S/C14H23NO3/c1-11(2)15-9-13(17)10-18-14-5-3-12(4-6-14)7-8-16/h3-6,11,13,15-17H,7-10H2,1-2H3
Instrument: Q-Exactive Thermo Scientific
Instrument type: LC-ESI-QFT
Ms type: MS2
Ion mode: POSITIVE
Ionization: ESI
Fragmentation mode: HCD
Collision energy: 75 % (nominal)
Resolution: 17500
Column name: Atlantis T3 3um, 3.0x150mm, Waters
Retention time: 10.489 min
Base peak: 250.2013
Precursor m/z: 254.1751
Precursor type: [M+H]+
m/z	relative intensity	assigned
53.0386	12	C4H5+
55.018	16	C3H3O+
56.0495	676	C3H6N+
58.0651	167	C3H8N+
65.0387	10	C5H5+
67.0543	8	C5H7+
70.0651	11	C4H8N+
72.0806	455	C4H10N+
74.0599	591	C3H8NO+
77.0384	61	C6H5+
79.0542	270	C6H7+
84.0806	44	C5H10N+
91.0542	999	C7H7+
93.0699	149	C7H9+
95.0491	375	C6H7O+
98.0966	132	C6H12N+
100.1119	57	C6H14N+
102.0465	8	C8H6+
103.0543	491	C8H7+
105.0449	127	C6H5N2+
105.0699	681	C8H9+
107.0491	54	C7H7O+
107.0852	11	C8H11+
115.0541	152	C9H7+
116.0622	123	C9H8+
116.1069	104	C6H14NO+
117.0699	50	C9H9+
119.0858	18	C9H11+
121.0648	458	C8H9O+
129.0698	84	C10H9+
131.0488	54	C9H7O+
131.0856	145	C10H11+
133.0648	559	C9H9O+
141.07	99	C11H9+
144.057	198	C10H8O+
148.0757	88	C9H10NO+
149.071	239	C8H9N2O+
151.0756	145	C9H11O2+
159.0809	148	C11H11O+
177.0905	18	C11H13O2+
215.1258	8	C9H17N3O3+
