Mass spectrum: MPL-dm; LC-ESI-QFT; MS2; CE: 15%; R=17500; [M+H]+
Name: MPL-dm
Name: O-Demethylmetoprolol
Name: 1-[4-(2-hydroxyethyl)phenoxy]-3-(propan-2-ylamino)propan-2-ol
Formula: C14H23NO3
Exact mass: 253.1678
SMILES: CC(NCC(O)COC1=CC=C(CCO)C=C1)C
InChI: InChI=1S/C14H23NO3/c1-11(2)15-9-13(17)10-18-14-5-3-12(4-6-14)7-8-16/h3-6,11,13,15-17H,7-10H2,1-2H3
Instrument: Q-Exactive Thermo Scientific
Instrument type: LC-ESI-QFT
Ms type: MS2
Ion mode: POSITIVE
Ionization: ESI
Fragmentation mode: HCD
Collision energy: 15 % (nominal)
Resolution: 17500
Column name: Atlantis T3 3um, 3.0x150mm, Waters
Retention time: 10.489 min
Base peak: 250.2013
Precursor m/z: 254.1751
Precursor type: [M+H]+
m/z	relative intensity	assigned
72.0806	7	C4H10N+
74.0599	3	C3H8NO+
87.044	2	C4H7O2+
98.0965	6	C6H12N+
116.1069	12	C6H14NO+
151.0751	1	C9H11O2+
159.0803	2	C11H11O+
177.091	18	C11H13O2+
212.1283	11	C11H18NO3+
236.1648	7	C14H22NO2+
254.1751	999	C14H24NO3+
