Mass spectrum: BEZ-da; LC-ESI-QFT; MS2; CE: 15%; R=17500; [M+H]+
Name: BEZ-da
Name: 4-chloro-N-[2-(4-hydroxyphenyl)ethyl]benzamide
Formula: C15H14ClNO2
Exact mass: 275.0713
SMILES: OC1=CC=C(CCNC(C2=CC=C(Cl)C=C2)=O)C=C1
InChI: InChI=1S/C15H14ClNO2/c16-13-5-3-12(4-6-13)15(19)17-10-9-11-1-7-14(18)8-2-11/h1-8,18H,9-10H2,(H,17,19)
Instrument: Q-Exactive + Thermo Scientific
Instrument type: LC-ESI-QFT
Ms type: MS2
Ion mode: POSITIVE
Ionization: ESI
Fragmentation mode: HCD
Collision energy: 15 % (nominal)
Resolution: 17500
Column name: Atlantis T3 3um, 3.0x150mm, Waters
Retention time: 20.870 min
Base peak: 304.2847
Precursor m/z: 276.0786
Precursor type: [M+H]+
m/z	relative intensity	assigned
57.07	6	C4H9+
69.0333	5	C4H5O+
121.0648	428	C8H9O+
123.1167	7	C9H15+
136.076	6	C8H10NO+
138.9945	715	C7H4ClO+
155.1069	6	C9H15O2+
183.1008	5	C8H13N3O2+
276.0785	999	C15H15ClNO2+
