Mass spectrum: FLE_n_374.0465_19.4; LC-ESI-QFT; MS2; CE: 15%; R=17500; [M-H]-
Name: FLE_n_374.0465_19.4
Name: 2-[[2,5-bis(2,2,2-trifluoroethoxy)benzoyl]amino]acetic acid
Class: identified ozonation transformation product
Formula: C13H11F6NO5
Exact mass: 375.0541
SMILES: O=C(C1=CC(OCC(F)(F)F)=CC=C1OCC(F)(F)F)NCC(O)=O
InChI: InChI=1S/C13H11F6NO5/c14-12(15,16)5-24-7-1-2-9(25-6-13(17,18)19)8(3-7)11(23)20-4-10(21)22/h1-3H,4-6H2,(H,20,23)(H,21,22)
Instrument: Q Exactive Plus Orbitrap Thermo Scientific
Instrument type: LC-ESI-QFT
Ms type: MS2
Ion mode: NEGATIVE
Ionization: ESI
Fragmentation mode: HCD
Collision energy: 15 % (nominal)
Resolution: 17500
Column name: C18 Atlantis T3 5 um, 3x150 mm, Waters
Retention time: 19.448 min
Base peak: 334.26
Precursor m/z: 374.0469
Precursor type: [M-H]-
Precursor intensity: 568833.6875
m/z	relative intensity	assigned
74.0249	4	C2H4NO2-
187.0276	4	C10H5NO3-
207.0338	86	C10H6FNO3-
242.0434	5	C11H7F3NO2-
270.0383	35	C12H7F3NO3-
274.0339	3	C8H8F4NO5-
279.0359	7	C10H8F3NO5-
290.044	19	C12H8F4NO3-
299.0144	11	C11H5F6O3-
310.0501	3	C12H9F5NO3-
354.0414	44	C13H9F5NO5-
374.0468	999	C13H10F6NO5-
