Mass spectrum: SMZ-PtO; LC-ESI-QFT; MS2; CE: 180%; R=17500; [M+H]+
Name: SMZ-PtO
Formula: C17H15N7O5S
Exact mass: 429.0855
SMILES: CC1=CC(NS(=O)(C2=CC=C(NCC3=NC(C(NC(O)=N4)=O)=C4N=C3)C=C2)=O)=NO1
InChI: InChI=1S/C17H15N7O5S/c1-9-6-13(23-29-9)24-30(27,28)12-4-2-10(3-5-12)18-7-11-8-19-15-14(20-11)16(25)22-17(26)21-15/h2-6,8,18H,7H2,1H3,(H,23,24)(H2,19,21,22,25,26)
Instrument: Q-Exactive + Thermo Scientific
Instrument type: LC-ESI-QFT
Ms type: MS2
Ion mode: POSITIVE
Ionization: ESI
Fragmentation mode: HCD
Collision energy: 180 % (nominal)
Resolution: 17500
Column name: Atlantis T3 3um, 3.0x150mm, Waters
Retention time: 16.782 min
Base peak: 164.9847
Precursor m/z: 430.0928
Precursor type: [M+H]+
m/z	relative intensity	assigned
50.0151	147	C4H2+
51.0229	289	C4H3+
52.0182	999	C3H2N+
53.0021	9	C3HO+
53.0134	77	C2HN2+
53.0261	114	C3H3N+
53.0386	100	C4H5+
53.9973	23	C2NO+
54.0338	79	C3H4N+
55.0179	9	C3H3O+
55.0289	9	C2H3N2+
61.0072	8	C5H+
62.0151	37	C5H2+
63.0229	160	C5H3+
64.018	39	C4H2N+
65.0019	7	C4HO+
65.0386	109	C5H5+
66.0212	10	C3H2N2+
66.0338	4	C4H4N+
66.0463	19	C5H6+
67.0289	8	C3H3N2+
69.0082	22	C2HN2O+
69.992	6	C2NO2+
70.0286	24	C3H4NO+
74.0151	54	C6H2+
75.0102	30	C5HN+
75.0229	145	C6H3+
76.0181	60	C5H2N+
76.0306	23	C6H4+
77.0135	62	C4HN2+
77.026	5	C5H3N+
77.0386	79	C6H5+
78.0211	9	C4H2N2+
78.0336	25	C5H4N+
78.0463	24	C6H6+
79.0291	452	C4H3N2+
80.0368	11	C4H4N2+
80.0495	61	C5H6N+
87.0104	5	C6HN+
87.0229	8	C7H3+
88.0183	61	C6H2N+
88.0306	12	C7H4+
89.0386	251	C7H5+
90.0338	10	C6H4N+
90.0462	5	C7H6+
91.0416	9	C6H5N+
91.0544	5	C7H7+
92.0494	5	C6H6N+
95.0492	146	C6H7O+
96.0319	6	C4H4N2O+
96.0441	6	C5H6NO+
97.0396	11	C4H5N2O+
98.0154	5	C8H2+
99.0228	7	C8H3+
100.0183	39	C7H2N+
101.0257	7	C7H3N+
102.0337	20	C7H4N+
102.0461	7	C8H6+
104.0496	5	C7H6N+
105.0447	85	C6H5N2+
106.0402	36	C5H4N3+
114.0339	110	C8H4N+
115.0416	33	C8H5N+
116.0493	29	C8H6N+
118.0533	4	CH12NO3S+
127.042	7	C9H5N+
128.0496	11	C9H6N+
129.0445	7	C8H5N2+
130.0395	20	C7H4N3+
140.0359	5	CH8N4O2S+
142.0522	20	C9H6N2+
143.0599	5	C9H7N2+
