Mass spectrum: BEZ-M; LC-ESI-QFT; MS2; CE: 120%; R=17500; [M+H]+
Name: BEZ-M
Formula: C20H22ClNO4
Exact mass: 375.1237
SMILES: CC(C(OC)=O)(OC1=CC=C(CCNC(C2=CC=C(Cl)C=C2)=O)C=C1)C
InChI: InChI=1S/C20H22ClNO4/c1-20(2,19(24)25-3)26-17-10-4-14(5-11-17)12-13-22-18(23)15-6-8-16(21)9-7-15/h4-11H,12-13H2,1-3H3,(H,22,23)
Instrument: Q-Exactive + Thermo Scientific
Instrument type: LC-ESI-QFT
Ms type: MS2
Ion mode: POSITIVE
Ionization: ESI
Fragmentation mode: HCD
Collision energy: 120 % (nominal)
Resolution: 17500
Column name: Atlantis T3 3um, 3.0x150mm, Waters
Retention time: 22.957 min
Base peak: 292.1212
Precursor m/z: 376.131
Precursor type: [M+H]+
m/z	relative intensity	assigned
50.0151	69	C4H2+
51.0229	262	C4H3+
53.0021	93	C3HO+
53.0386	326	C4H5+
55.0179	152	C3H3O+
55.0541	78	C4H7+
57.0335	16	C3H5O+
57.0698	112	C4H9+
59.0489	23	C3H7O+
65.0387	229	C5H5+
67.0541	72	C5H7+
69.0698	23	C5H9+
73.0648	202	C4H9O+
74.015	78	C6H2+
75.0229	884	C6H3+
77.0385	260	C6H5+
78.0463	22	C6H6+
79.0542	83	C6H7+
80.0495	17	C5H6N+
81.0332	53	C5H5O+
84.9837	33	C4H2Cl+
86.9999	129	C4H4Cl+
91.0542	700	C7H7+
93.0336	19	C6H5O+
93.0701	66	C7H9+
94.0416	31	C6H6O+
95.0491	999	C6H7O+
102.0464	25	C8H6+
103.0542	367	C8H7+
105.0447	470	C6H5N2+
110.9996	209	C6H4Cl+
111.0436	23	C6H7O2+
115.0542	37	C9H7+
119.0492	20	C8H7O+
121.0646	36	C8H9O+
128.0618	39	C10H8+
129.0102	337	C6H6ClO+
138.9945	70	C7H4ClO+
139.0057	749	C9HNO+
