Mass spectrum: DIP_p_272.1644_16.5; LC-ESI-QFT; MS2; CE: 50%; R=17500; [M+H]+
Name: DIP_p_272.1644_16.5
Name: Amoxydramine
Name: 2-benzhydryloxy-N,N-dimethylethanamine oxide
Class: identified ozonation transformation product
Formula: C17H21NO2
Exact mass: 271.1572
SMILES: C[N+](C)(CCOC(C1=CC=CC=C1)C2=CC=CC=C2)[O-]
InChI: InChI=1S/C17H21NO2/c1-18(2,19)13-14-20-17(15-9-5-3-6-10-15)16-11-7-4-8-12-16/h3-12,17H,13-14H2,1-2H3
Instrument: Q Exactive Plus Orbitrap Thermo Scientific
Instrument type: LC-ESI-QFT
Ms type: MS2
Ion mode: POSITIVE
Ionization: ESI
Fragmentation mode: HCD
Collision energy: 50 % (nominal)
Resolution: 17500
Column name: C18 Atlantis T3 5 um, 3x150 mm, Waters
Retention time: 16.800 min
Base peak: 272.1645
Precursor m/z: 272.1645
Precursor type: [M+H]+
Precursor intensity: 161932320
m/z	relative intensity	assigned
58.0651	23	C3H8N+
88.0757	83	C4H10NO+
95.0491	2	C6H7O+
152.062	41	C12H8+
153.0698	3	C12H9+
154.078	1	C12H10+
155.0856	28	C12H11+
165.0699	65	C13H9+
166.0777	18	C13H10+
167.0856	999	C13H11+
169.0645	1	C12H9O+
183.0806	4	C13H11O+
