Mass spectrum: SMZ-Pt; LC-ESI-QFT; MS2; CE: 90%; R=17500; [M+H]+
Name: SMZ-Pt
Formula: C17H16N8O4S
Exact mass: 428.1015
SMILES: CC1=CC(NS(=O)(C2=CC=C(NCC3=NC(C(NC(N)=N4)=O)=C4N=C3)C=C2)=O)=NO1
InChI: InChI=1S/C17H16N8O4S/c1-9-6-13(24-29-9)25-30(27,28)12-4-2-10(3-5-12)19-7-11-8-20-15-14(21-11)16(26)23-17(18)22-15/h2-6,8,19H,7H2,1H3,(H,24,25)(H3,18,20,22,23,26)
Instrument: Q-Exactive + Thermo Scientific
Instrument type: LC-ESI-QFT
Ms type: MS2
Ion mode: POSITIVE
Ionization: ESI
Fragmentation mode: HCD
Collision energy: 90 % (nominal)
Resolution: 17500
Column name: Atlantis T3 3um, 3.0x150mm, Waters
Retention time: 16.780 min
Base peak: 164.9846
Precursor m/z: 429.1088
Precursor type: [M+H]+
m/z	relative intensity	assigned
54.0336	110	C3H4N+
79.029	667	C4H3N2+
81.0446	869	C4H5N2+
106.04	999	C5H4N3+
107.0481	107	C5H5N3+
108.0557	711	C5H6N3+
116.0495	73	C8H6N+
124.0504	920	C5H6N3O+
139.0979	71	C6H11N4+
142.0532	87	C9H6N2+
143.0603	158	C9H7N2+
155.0602	102	C10H7N2+
168.0555	119	C4H12N2O3S+
170.0712	151	C10H8N3+
195.0661	153	C11H7N4+
196.052	71	C13H8O2+
