Mass spectrum: OP (TENTATIVE); LC-ESI-ITFT; MS2; HCD75; [M+H]+
Name: OP (TENTATIVE)
Name: octyl phenol
Name: 4-octylphenol
Formula: C14H22O
Exact mass: 206.1671
SMILES: Oc1ccc(cc1)CCCCCCCC
InChI: InChI=1S/C14H22O/c1-2-3-4-5-6-7-8-13-9-11-14(15)12-10-13/h9-12,15H,2-8H2,1H3
Instrument: LTQ Orbitrap XL Thermo Scientific
Instrument type: LC-ESI-ITFT
Ms type: MS2
Ion mode: POSITIVE
Ionization: ESI
Fragmentation mode: HCD
Collision energy: 75 NCE
Base peak: 207.1741
Precursor m/z: 207.1741
Precursor type: [M+H]+
m/z	relative intensity
62.0297	68
66.0768	55
69.461	57
73.564	60
74.1524	53
74.3274	52
76.4528	53
80.0776	51
102.0625	58
107.0855	96
109.1004	72
119.0858	92
123.08	103
133.101	169
137.0958	999
147.117	189
147.1508	52
149.1331	57
151.111	157
166.0455	59
177.1269	126
189.1625	180
192.1524	99
207.1741	278
212.8763	65
