Mass spectrum: SMZ-Pt; LC-ESI-QFT; MS2; CE: 60%; R=17500; [M-H]-
Name: SMZ-Pt
Formula: C17H16N8O4S
Exact mass: 428.1015
SMILES: CC1=CC(NS(=O)(C2=CC=C(NCC3=NC(C(NC(N)=N4)=O)=C4N=C3)C=C2)=O)=NO1
InChI: InChI=1S/C17H16N8O4S/c1-9-6-13(24-29-9)25-30(27,28)12-4-2-10(3-5-12)19-7-11-8-20-15-14(21-11)16(26)23-17(18)22-15/h2-6,8,19H,7H2,1H3,(H,24,25)(H3,18,20,22,23,26)
Instrument: Q-Exactive + Thermo Scientific
Instrument type: LC-ESI-QFT
Ms type: MS2
Ion mode: NEGATIVE
Ionization: ESI
Fragmentation mode: HCD
Collision energy: 60 % (nominal)
Resolution: 17500
Column name: Atlantis T3 3um, 3.0x150mm, Waters
Retention time: 16.758 min
Base peak: 91.0036
Precursor m/z: 427.0942
Precursor type: [M-H]-
m/z	relative intensity	assigned
92.0506	433	C6H6N-
107.0377	177	C6H5NO-
131.0486	202	C7H5N3-
132.044	864	C6H4N4-
156.0122	185	C6H6NO2S-
175.0495	999	C7H5N5O-
