Mass spectrum: SMZ-Pt; LC-ESI-QFT; MS2; CE: 15%; R=17500; [M+H]+
Name: SMZ-Pt
Formula: C17H16N8O4S
Exact mass: 428.1015
SMILES: CC1=CC(NS(=O)(C2=CC=C(NCC3=NC(C(NC(N)=N4)=O)=C4N=C3)C=C2)=O)=NO1
InChI: InChI=1S/C17H16N8O4S/c1-9-6-13(24-29-9)25-30(27,28)12-4-2-10(3-5-12)19-7-11-8-20-15-14(21-11)16(26)23-17(18)22-15/h2-6,8,19H,7H2,1H3,(H,24,25)(H3,18,20,22,23,26)
Instrument: Q-Exactive + Thermo Scientific
Instrument type: LC-ESI-QFT
Ms type: MS2
Ion mode: POSITIVE
Ionization: ESI
Fragmentation mode: HCD
Collision energy: 15 % (nominal)
Resolution: 17500
Column name: Atlantis T3 3um, 3.0x150mm, Waters
Retention time: 16.780 min
Base peak: 164.9846
Precursor m/z: 429.1088
Precursor type: [M+H]+
m/z	relative intensity	assigned
176.0575	50	CH12N4O4S+
208.9536	69	C8HO5S+
267.0993	40	C7H17N5O4S+
269.1169	13	C17H17O3+
283.0936	48	C13H11N6O2+
331.0612	163	C13H11N6O3S+
349.0712	999	C13H13N6O4S+
429.1072	84	C17H17N8O4S+
