Mass spectrum: STA-4C (TENTATIVE); LC-ESI-ITFT; MS2; HCD60; [M-H]-
Name: STA-4C (TENTATIVE)
Name: 3-(4-ethyl-6-sulfo-1,2,3,4-tetrahydronaphthalen-1-yl)propanoic acid
Formula: C15H20O5S
Exact mass: 312.1031
SMILES: O=S(=O)(O)c1ccc2c(c1)C(CCC2CCC(=O)O)CC
InChI: InChI=1S/C15H20O5S/c1-2-10-3-4-11(5-8-15(16)17)13-7-6-12(9-14(10)13)21(18,19)20/h6-7,9-11H,2-5,8H2,1H3,(H,16,17)(H,18,19,20)
Instrument: LTQ Orbitrap XL Thermo Scientific
Instrument type: LC-ESI-ITFT
Ms type: MS2
Ion mode: NEGATIVE
Ionization: ESI
Fragmentation mode: HCD
Collision energy: 60 NCE
Base peak: 311.0948
Precursor m/z: 311.0948
Precursor type: [M-H]-
m/z	relative intensity
79.9576	79
83.8546	7
184.0198	31
249.1479	14
267.1062	39
267.1595	10
293.0833	7
311.0948	999
312.1047	7
