Mass spectrum: SMZ-AcOH; LC-ESI-QFT; MS2; CE: 120%; R=17500; [M+H]+
Name: SMZ-AcOH
Formula: C12H13N3O5S
Exact mass: 311.0576
Instrument: Q-Exactive + Thermo Scientific
Instrument type: LC-ESI-QFT
Ms type: MS2
Ion mode: POSITIVE
Ionization: ESI
Fragmentation mode: HCD
Collision energy: 120 % (nominal)
Resolution: 17500
Column name: Atlantis T3 3um, 3.0x150mm, Waters
Retention time: 16.844 min
Base peak: 278.2115
Precursor m/z: 312.0649
Precursor type: [M+H]+
m/z	relative intensity	assigned
50.0151	52	C4H2+
51.0229	182	C4H3+
53.0021	13	C3HO+
53.0386	163	C4H5+
55.0178	52	C3H3O+
56.0494	16	C3H6N+
57.0334	10	C3H5O+
59.049	28	C3H7O+
60.0206	26	C2H4O2+
60.0442	10	C2H6NO+
63.0229	56	C5H3+
64.0307	26	C5H4+
65.0386	999	C5H5+
67.0543	97	C5H7+
68.0494	8	C4H6N+
75.0227	7	C6H3+
76.0308	61	C6H4+
77.0385	121	C6H5+
78.0338	80	C5H4N+
78.0464	95	C6H6+
79.0417	32	C5H5N+
79.0542	193	C6H7+
80.0494	13	C5H6N+
81.0336	28	C5H5O+
90.034	12	C6H4N+
91.0417	119	C6H5N+
91.0543	11	C7H7+
92.0495	700	C6H6N+
93.0337	14	C6H5O+
93.0573	36	C6H7N+
94.0412	31	C6H6O+
94.065	32	C6H8N+
95.0492	379	C6H7O+
96.0444	266	C5H6NO+
104.0495	305	C7H6N+
105.0448	222	C6H5N2+
106.0652	470	C7H8N+
110.06	8	C6H8NO+
118.0525	12	C7H6N2+
119.0606	28	C7H7N2+
120.0445	483	C7H6NO+
130.0407	8	CH10N2O3S+
131.0609	8	C8H7N2+
137.0472	95	C7H7NO2+
143.0595	6	CH11N4O2S+
146.0716	8	C8H8N3+
158.0714	9	C9H8N3+
