Mass spectrum: MEF-Glu; LC-ESI-QFT; MS2; CE: 120%; R=17500; [M+H]+
Name: MEF-Glu
Formula: C20H22N2O5
Exact mass: 370.1529
SMILES: O=C(CCC(NC(C1=C(C=CC=C1)NC2=CC=CC(C)=C2C)=O)C(O)=O)O
InChI: InChI=1S/C20H22N2O5/c1-12-6-5-9-15(13(12)2)21-16-8-4-3-7-14(16)19(25)22-17(20(26)27)10-11-18(23)24/h3-9,17,21H,10-11H2,1-2H3,(H,22,25)(H,23,24)(H,26,27)
Instrument: Q-Exactive + Thermo Scientific
Instrument type: LC-ESI-QFT
Ms type: MS2
Ion mode: POSITIVE
Ionization: ESI
Fragmentation mode: HCD
Collision energy: 120 % (nominal)
Resolution: 17500
Column name: Atlantis T3 3um, 3.0x150mm, Waters
Retention time: 22.708 min
Base peak: 295.1903
Precursor m/z: 371.1601
Precursor type: [M+H]+
m/z	relative intensity	assigned
51.0228	5	C4H3+
53.002	4	C3HO+
53.0385	16	C4H5+
55.0541	19	C4H7+
65.0383	17	C5H5+
67.054	16	C5H7+
77.0385	4	C6H5+
78.0462	6	C6H6+
79.054	19	C6H7+
81.0699	3	C6H9+
91.0541	34	C7H7+
92.0254	7	C6H4O+
93.0694	4	C7H9+
95.0491	28	C6H7O+
103.0541	6	C8H7+
105.0335	5	C7H5O+
105.0446	14	C6H5N2+
105.0698	4	C8H9+
115.0541	7	C9H7+
128.0493	4	C9H6N+
128.0625	3	C10H8+
139.054	5	C11H7+
145.0653	2	C10H9O+
152.062	102	C12H8+
153.0699	30	C12H9+
154.0652	27	C11H8N+
155.073	18	C11H9N+
166.065	15	C12H8N+
166.0773	3	C13H10+
167.0727	18	C12H9N+
169.0648	17	C12H9O+
178.0649	51	C13H8N+
179.073	142	C13H9N+
180.0807	999	C13H10N+
181.0879	17	C13H11N+
182.0604	24	C12H8NO+
183.0678	39	C12H9NO+
190.0646	5	C14H8N+
191.0732	7	C14H9N+
192.0809	13	C14H10N+
193.0881	18	C14H11N+
194.0595	3	C13H8NO+
194.0964	25	C14H12N+
195.0681	3	C13H9NO+
196.0752	6	C13H10NO+
204.0805	4	C15H10N+
207.0679	40	C14H9NO+
208.0757	288	C14H10NO+
209.0836	42	C14H11NO+
211.0629	31	C13H9NO2+
222.0914	7	C15H12NO+
229.0035	4	C14HN2O2+
243.0267	3	C11H5N3O4+
295.0699	3	C16H11N2O4+
