Mass spectrum: SMZ-AcOH; LC-ESI-QFT; MS2; CE: 45%; R=17500; [M-H]-
Name: SMZ-AcOH
Formula: C12H13N3O5S
Exact mass: 311.0576
Instrument: Q-Exactive + Thermo Scientific
Instrument type: LC-ESI-QFT
Ms type: MS2
Ion mode: NEGATIVE
Ionization: ESI
Fragmentation mode: HCD
Collision energy: 45 % (nominal)
Resolution: 17500
Column name: Atlantis T3 3um, 3.0x150mm, Waters
Retention time: 16.866 min
Base peak: 91.0036
Precursor m/z: 310.0503
Precursor type: [M-H]-
m/z	relative intensity	assigned
63.9625	71	O2S-
82.0171	9	C3H2N2O-
82.0297	47	C4H4NO-
92.0505	97	C6H6N-
96.033	10	C4H4N2O-
97.0408	22	C4H5N2O-
106.0664	6	C7H8N-
119.0614	50	C7H7N2-
120.0455	135	C7H6NO-
121.0772	29	C7H9N2-
122.0611	41	C7H8NO-
124.0432	5	C3H10NO2S-
139.9936	9	C6H4O2S-
141.0017	45	C6H5O2S-
150.0561	45	C8H8NO2-
152.0177	28	C7H6NOS-
156.0126	39	C6H6NO2S-
168.0124	999	C7H6NO2S-
169.0196	12	C7H7NO2S-
170.0282	73	C7H8NO2S-
183.0234	13	C7H7N2O2S-
185.0389	213	C7H9N2O2S-
187.0748	8	C10H9N3O-
214.0175	28	C8H8NO4S-
