Mass spectrum: HCT_n_293.9415_10.8; LC-ESI-QFT; MS2; CE: 40%; R=17500; [M-H]-
Name: HCT_n_293.9415_10.8
Name: Chlorothiazide
Name: 6-chloro-4H-benzo[e][1,2,4]thiadiazine-7-sulfonamide 1,1-dioxide
Class: identified ozonation transformation product
Formula: C7H6ClN3O4S2
Exact mass: 294.9488
SMILES: NS(C(C=C1C(NC=NS1(=O)=O)=C2)=C2Cl)(=O)=O
InChI: InChI=1S/C7H6ClN3O4S2/c8-4-1-5-7(2-6(4)16(9,12)13)17(14,15)11-3-10-5/h1-3H,(H,10,11)(H2,9,12,13)
Instrument: Q Exactive Plus Orbitrap Thermo Scientific
Instrument type: LC-ESI-QFT
Ms type: MS2
Ion mode: NEGATIVE
Ionization: ESI
Fragmentation mode: HCD
Collision energy: 40 % (nominal)
Resolution: 17500
Column name: C18 Atlantis T3 5 um, 3x150 mm, Waters
Retention time: 11.076 min
Base peak: 91.0037
Precursor m/z: 293.9415
Precursor type: [M-H]-
Precursor intensity: 2150328.25
m/z	relative intensity	assigned
65.9986	6	C3NO-
71.0139	1	C3H3O2-
77.9657	1	NO2S-
90.0223	2	C5H2N2-
118.0175	7	C3H5ClN3-
119.0014	5	C6HNO2-
119.025	1	C6H3N2O-
120.0093	4	C6H2NO2-
126.983	2	C5H2ClNO-
134.0119	2	C6H2N2O2-
147.0208	1	C7H3N2O2-
152.9859	2	C6H2ClN2O-
154.9784	4	C6H2ClNO2-
181.9796	3	C3H5ClN3O2S-
182.9872	10	C6H3N2O3S-
213.9609	81	C7H3ClN2O2S-
214.9689	83	C7H4ClN2O2S-
216.9475	2	C6H2ClN2O3S-
221.1512	18	
229.9559	9	C7H3ClN2O3S-
229.9799	4	C7H5ClN3O2S-
257.9651	1	C7H4N3O4S2-
293.9418	999	C7H5ClN3O4S2-
