Mass spectrum: 1-Methoxymethylbenzotriazole; LC-ESI-ITFT; MS2; 80-110; R=7500; [M+H]+
Name: 1-Methoxymethylbenzotriazole
Name: 1-Methoxymethyl-1H-benzotriazole
Formula: C8H9N3O
Exact mass: 163.1766
SMILES: n1nn(c2ccccc12)COC
InChI: InChI=1S/C8H9N3O/c1-12-6-11-8-5-3-2-4-7(8)9-10-11/h2-5H,6H2,1H3
Instrument: LTQ Orbitrap XL Thermo Scientific
Instrument type: LC-ESI-ITFT
Ms type: MS2
Ion mode: POSITIVE
Ionization: ESI
Fragmentation mode: HCD
Collision energy: scaled 80 (m/z=200) to 110 (m/z=120)
Resolution: 7500
Column name: Atlantis T3 3um, 3.0x150mm, Waters
Retention time: 21.2 min
Base peak: 164.1839
Precursor m/z: 164.1839
Precursor type: [M+H]+
m/z	relative intensity
53.0377	237
65.0375	53
65.0594	60
77.0378	413
78.0455	89
79.0534	300
91.041	160
93.056	41
95.0482	67
104.0486	120
105.0439	372
106.0644	327
120.0438	137
134.0705	999
