Mass spectrum: MPL-dm; LC-ESI-QFT; MS2; CE: 90%; R=17500; [M+H]+
Name: MPL-dm
Name: O-Demethylmetoprolol
Name: 1-[4-(2-hydroxyethyl)phenoxy]-3-(propan-2-ylamino)propan-2-ol
Formula: C14H23NO3
Exact mass: 253.1678
SMILES: CC(NCC(O)COC1=CC=C(CCO)C=C1)C
InChI: InChI=1S/C14H23NO3/c1-11(2)15-9-13(17)10-18-14-5-3-12(4-6-14)7-8-16/h3-6,11,13,15-17H,7-10H2,1-2H3
Instrument: Q-Exactive Thermo Scientific
Instrument type: LC-ESI-QFT
Ms type: MS2
Ion mode: POSITIVE
Ionization: ESI
Fragmentation mode: HCD
Collision energy: 90 % (nominal)
Resolution: 17500
Column name: Atlantis T3 3um, 3.0x150mm, Waters
Retention time: 10.489 min
Base peak: 250.2013
Precursor m/z: 254.1751
Precursor type: [M+H]+
m/z	relative intensity	assigned
51.0231	8	C4H3+
53.0387	13	C4H5+
55.0179	26	C3H3O+
56.0495	453	C3H6N+
58.0652	147	C3H8N+
65.0385	39	C5H5+
67.0542	16	C5H7+
72.0807	164	C4H10N+
74.0599	238	C3H8NO+
77.0385	108	C6H5+
79.0542	347	C6H7+
81.0334	12	C5H5O+
84.0809	14	C5H10N+
91.0542	999	C7H7+
93.0698	131	C7H9+
95.0491	654	C6H7O+
98.0964	27	C6H12N+
100.1122	13	C6H14N+
102.0465	26	C8H6+
103.0543	573	C8H7+
105.0447	238	C6H5N2+
105.0699	360	C8H9+
107.0491	37	C7H7O+
115.0541	192	C9H7+
116.062	127	C9H8+
116.1071	12	C6H14NO+
117.0696	39	C9H9+
119.0492	8	C8H7O+
121.0648	193	C8H9O+
128.062	33	C10H8+
129.0697	56	C10H9+
131.0494	34	C9H7O+
131.0599	8	C8H7N2+
131.0854	29	C10H11+
132.0568	7	C9H8O+
133.0649	133	C9H9O+
141.07	37	C11H9+
144.0571	112	C10H8O+
147.0801	7	C10H11O+
148.0759	28	C9H10NO+
149.0711	94	C8H9N2O+
151.0755	15	C9H11O2+
159.0802	9	C11H11O+
