Mass spectrum: FAD_n_258.0384_19.6; LC-ESI-QFT; MS2; CE: 55%; R=17500; [M-H]-
Name: FAD_n_258.0384_19.6
Name: (Z)-4-oxo-4-((3-(trifluoromethyl)phenyl)amino)but-2-enoic acid
Class: identified ozonation transformation product
Formula: C11H8F3NO3
Exact mass: 259.0456
SMILES: FC(F)(F)C1=CC(NC(/C=C\C(O)=O)=O)=CC=C1
InChI: InChI=1S/C11H8F3NO3/c12-11(13,14)7-2-1-3-8(6-7)15-9(16)4-5-10(17)18/h1-6H,(H,15,16)(H,17,18)/b5-4-
Instrument: Q Exactive Plus Orbitrap Thermo Scientific
Instrument type: LC-ESI-QFT
Ms type: MS2
Ion mode: NEGATIVE
Ionization: ESI
Fragmentation mode: HCD
Collision energy: 55 % (nominal)
Resolution: 17500
Column name: C18 Atlantis T3 5 um, 3x150 mm, Waters
Retention time: 19.653 min
Base peak: 91.0038
Precursor m/z: 258.0384
Precursor type: [M-H]-
Precursor intensity: 777287
m/z	relative intensity	assigned
96.993	7	C4HO3-
154.0296	20	C10H4NO-
160.0381	999	C7H5F3N-
161.022	10	C7H4F3O-
174.036	49	C10H5FNO-
184.0381	13	C9H5F3N-
186.0173	57	C8H3F3NO-
194.042	47	C10H6F2NO-
199.0251	13	C9H4F3NO-
204.0275	6	C8H5F3NO2-
212.0328	22	C10H5F3NO-
214.0486	284	C10H7F3NO-
258.1719	8	
