Mass spectrum: SMZ-AcOH; LC-ESI-QFT; MS2; CE: 60%; R=17500; [M+H]+
Name: SMZ-AcOH
Formula: C12H13N3O5S
Exact mass: 311.0576
Instrument: Q-Exactive + Thermo Scientific
Instrument type: LC-ESI-QFT
Ms type: MS2
Ion mode: POSITIVE
Ionization: ESI
Fragmentation mode: HCD
Collision energy: 60 % (nominal)
Resolution: 17500
Column name: Atlantis T3 3um, 3.0x150mm, Waters
Retention time: 16.844 min
Base peak: 278.2115
Precursor m/z: 312.0649
Precursor type: [M+H]+
m/z	relative intensity	assigned
53.0386	6	C4H5+
55.0178	64	C3H3O+
57.0334	16	C3H5O+
57.0698	5	C4H9+
59.0492	106	C3H7O+
60.0442	29	C2H6NO+
65.0385	30	C5H5+
67.0542	25	C5H7+
68.0496	17	C4H6N+
70.0651	4	C4H8N+
71.0492	4	C4H7O+
72.0444	5	C3H6NO+
77.0385	4	C6H5+
79.0542	39	C6H7+
80.0494	6	C5H6N+
81.0695	5	C6H9+
87.0442	27	C4H7O2+
89.0597	70	C4H9O2+
90.0553	5	C3H8NO2+
91.0416	20	C6H5N+
92.0494	39	C6H6N+
93.0335	52	C6H5O+
93.0574	4	C6H7N+
94.0652	195	C6H8N+
95.0492	105	C6H7O+
96.0442	17	C5H6NO+
97.0396	4	C4H5N2O+
99.0553	88	C4H7N2O+
101.0598	74	C5H9O2+
104.0494	361	C7H6N+
104.0706	23	C4H10NO2+
105.0448	7	C6H5N2+
105.0574	28	C7H7N+
106.0651	959	C7H8N+
108.0444	75	C6H6NO+
110.06	24	C6H8NO+
112.0757	8	C6H10NO+
119.0604	18	C7H7N2+
120.0444	999	C7H6NO+
121.1013	5	C9H13+
122.06	420	C7H8NO+
131.0597	5	C8H7N2+
132.0443	34	C8H6NO+
132.0679	6	C8H8N2+
136.0396	25	C7H6NO2+
137.0475	17	C7H7NO2+
144.0684	17	C9H8N2+
145.0752	4	CH13N4O2S+
145.0858	5	C7H13O3+
146.0711	50	C8H8N3+
147.0794	27	C8H9N3+
150.0549	123	C8H8NO2+
151.0738	5	C7H9N3O+
158.0714	6	C9H8N3+
159.0792	64	C9H9N3+
160.0868	22	C9H10N3+
166.05	469	C8H8NO3+
168.0652	17	H14N3O5S+
172.0871	39	C10H10N3+
174.0662	44	C9H8N3O+
175.0865	4	C10H11N2O+
186.0671	5	C4H14N2O4S+
214.0178	4	C8H8NO4S+
