Mass spectrum: RAN-dm; LC-ESI-QFT; MS2; CE: 30%; R=17500; [M+H]+
Name: RAN-dm
Name: Desmethyl Ranitidine
Name: (E)-1-N-methyl-1-N`-[2-[[5-(methylaminomethyl)furan-2-yl]methylsulfanyl]ethyl]-2-nitroethene-1,1-diamine
Formula: C12H20N4O3S
Exact mass: 300.1256
SMILES: CN/C(NCCSCC1=CC=C(CNC)O1)=C\[N+]([O-])=O
InChI: InChI=1S/C12H20N4O3S/c1-13-7-10-3-4-11(19-10)9-20-6-5-15-12(14-2)8-16(17)18/h3-4,8,13-15H,5-7,9H2,1-2H3/b12-8+
Instrument: Q-Exactive + Thermo Scientific
Instrument type: LC-ESI-QFT
Ms type: MS2
Ion mode: POSITIVE
Ionization: ESI
Fragmentation mode: HCD
Collision energy: 30 % (nominal)
Resolution: 17500
Column name: Atlantis T3 3um, 3.0x150mm, Waters
Retention time: 10.238 min
Base peak: 267.1704
Precursor m/z: 301.1329
Precursor type: [M+H]+
m/z	relative intensity	assigned
88.0216	69	C3H6NS+
98.084	282	C5H10N2+
102.0369	24	C4H8NS+
124.0757	194	C7H10NO+
125.0056	200	C6H5OS+
130.056	208	C5H10N2S+
144.077	104	C5H10N3O2+
153.037	17	C8H9OS+
165.1027	18	C9H13N2O+
170.0638	25	C8H12NOS+
176.049	999	C5H10N3O2S+
181.0793	19	C9H13N2S+
191.1187	73	C11H15N2O+
193.0561	26	C10H11NOS+
196.9926	125	C11H3NOS+
211.0082	34	C12H5NOS+
224.0977	171	C11H16N2OS+
270.0904	28	C11H16N3O3S+
