Mass spectrum: MEF-Glu; LC-ESI-QFT; MS2; CE: 30%; R=17500; [M-H]-
Name: MEF-Glu
Formula: C20H22N2O5
Exact mass: 370.1529
SMILES: O=C(CCC(NC(C1=C(C=CC=C1)NC2=CC=CC(C)=C2C)=O)C(O)=O)O
InChI: InChI=1S/C20H22N2O5/c1-12-6-5-9-15(13(12)2)21-16-8-4-3-7-14(16)19(25)22-17(20(26)27)10-11-18(23)24/h3-9,17,21H,10-11H2,1-2H3,(H,22,25)(H,23,24)(H,26,27)
Instrument: Q-Exactive + Thermo Scientific
Instrument type: LC-ESI-QFT
Ms type: MS2
Ion mode: NEGATIVE
Ionization: ESI
Fragmentation mode: HCD
Collision energy: 30 % (nominal)
Resolution: 17500
Column name: Atlantis T3 3um, 3.0x150mm, Waters
Retention time: 22.730 min
Base peak: 293.1757
Precursor m/z: 369.1456
Precursor type: [M-H]-
m/z	relative intensity	assigned
59.0141	31	C2H3O2-
83.0505	29	C5H7O-
84.0457	87	C4H6NO-
128.0353	483	C5H6NO3-
196.1127	386	C14H14N-
221.1081	48	C15H13N2-
222.0925	251	C15H12NO-
239.1189	611	C15H15N2O-
240.1028	795	C15H14NO2-
263.1558	147	C18H19N2-
265.1342	32	C17H17N2O-
281.1656	735	C18H21N2O-
299.0093	88	C17H3N2O4-
307.1455	317	C19H19N2O2-
325.1559	999	C19H21N2O3-
