Mass spectrum: ROS_n_300.0656_17.7; LC-ESI-QFT; MS2; CE: 35%; R=17500; [M-H]-
Name: ROS_n_300.0656_17.7
Name: Rosuvastatin -C11H13FO
Name: (E)-7-(4-(4-fluorophenyl)-6-isopropyl-2-(N-methylmethylsulfonamido)pyrimidin-5-yl)-3,5-dihydroxyhept-6-enoic acid -C11H13FO
Class: identified ozonation transformation product
Formula: C11H15N3O5S
Exact mass: 301.0732
Instrument: Q Exactive Plus Orbitrap Thermo Scientific
Instrument type: LC-ESI-QFT
Ms type: MS2
Ion mode: NEGATIVE
Ionization: ESI
Fragmentation mode: HCD
Collision energy: 35 % (nominal)
Resolution: 17500
Column name: C18 Atlantis T3 5 um, 3x150 mm, Waters
Retention time: 17.779 min
Base peak: 91.0038
Precursor m/z: 300.066
Precursor type: [M-H]-
Precursor intensity: 661884.0625
m/z	relative intensity	assigned
63.9624	62	O2S-
78.986	334	CH3O2S-
85.0407	7	C3H5N2O-
108.0125	249	C2H6NO2S-
109.0406	21	C5H5N2O-
147.0565	166	C8H7N2O-
148.0642	39	C8H8N2O-
149.0715	6	C8H9N2O-
150.1034	10	C8H12N3-
160.0884	15	C9H10N3-
176.0832	11	C9H10N3O-
178.0986	999	C9H12N3O-
222.088	5	C10H12N3O3-
