Mass spectrum: IRB_p_253.1545_14.2; LC-ESI-QFT; MS2; CE: 55%; R=17500; [M+H]+
Name: IRB_p_253.1545_14.2
Name: 2-(2-butyl-4-oxo-1,3-diazaspiro[4.4]non-1-en-3-yl)acetic acid
Class: identified ozonation transformation product
Formula: C13H20N2O3
Exact mass: 252.1474
SMILES: CCCCC1=NC2(C(N1CC(O)=O)=O)CCCC2
InChI: InChI=1S/C13H20N2O3/c1-2-3-6-10-14-13(7-4-5-8-13)12(18)15(10)9-11(16)17/h2-9H2,1H3,(H,16,17)
Instrument: Q Exactive Plus Orbitrap Thermo Scientific
Instrument type: LC-ESI-QFT
Ms type: MS2
Ion mode: POSITIVE
Ionization: ESI
Fragmentation mode: HCD
Collision energy: 55 % (nominal)
Resolution: 17500
Column name: C18 Atlantis T3 5 um, 3x150 mm, Waters
Retention time: 14.100 min
Base peak: 65.0597
Precursor m/z: 253.1547
Precursor type: [M+H]+
Precursor intensity: 3515166.5
m/z	relative intensity	assigned
55.0542	4	C4H7+
56.0495	9	C3H6N+
57.0699	82	C4H9+
58.0287	7	C2H4NO+
67.0542	26	C5H7+
81.0698	7	C6H9+
82.0287	3	C4H4NO+
83.0491	6	C5H7O+
84.0808	999	C5H10N+
85.0648	188	C5H9O+
95.0493	7	C6H7O+
95.0855	4	C7H11+
96.0808	11	C6H10N+
98.9842	31	
114.0914	649	C6H12NO+
132.1024	4	C6H14NO2+
142.0863	694	C7H12NO2+
164.1074	2	C10H14NO+
176.1072	6	C11H14NO+
253.1547	170	C13H21N2O3+
