Mass spectrum: CAN_p_341.1130_19.6; LC-ESI-QFT; MS2; CE: 70%; R=17500; [M+H]+
Name: CAN_p_341.1130_19.6
Name: 1-(4-carboxybenzyl)-2-ethoxy-1H-benzo[d]imidazole-7-carboxylic acid
Class: identified ozonation transformation product
Formula: C18H16N2O5
Exact mass: 340.1059
SMILES: CCOC1=NC2=C(N1CC3=CC=C(C(O)=O)C=C3)C(C(O)=O)=CC=C2
InChI: InChI=1S/C18H16N2O5/c1-2-25-18-19-14-5-3-4-13(17(23)24)15(14)20(18)10-11-6-8-12(9-7-11)16(21)22/h3-9H,2,10H2,1H3,(H,21,22)(H,23,24)
Instrument: Q Exactive Plus Orbitrap Thermo Scientific
Instrument type: LC-ESI-QFT
Ms type: MS2
Ion mode: POSITIVE
Ionization: ESI
Fragmentation mode: HCD
Collision energy: 70 % (nominal)
Resolution: 17500
Column name: C18 Atlantis T3 5 um, 3x150 mm, Waters
Retention time: 19.463 min
Base peak: 65.0597
Precursor m/z: 341.1132
Precursor type: [M+H]+
Precursor intensity: 926507.375
m/z	relative intensity	assigned
135.044	563	C8H7O2+
161.0346	10	C8H5N2O2+
163.0754	42	C10H11O2+
179.0452	33	C8H7N2O3+
189.0656	60	C10H9N2O2+
207.0765	738	C10H11N2O3+
221.0918	11	C11H13N2O3+
267.1222	46	
269.0918	6	C15H13N2O3+
285.1321	11	
295.0706	10	C16H11N2O4+
297.1233	14	C17H17N2O3+
313.082	310	C16H13N2O5+
341.1134	999	C18H17N2O5+
