Mass spectrum: 2-(2-(2-ethoxyethoxy)ethoxy)ethanol; LC-ESI-ITFT; MS2; CE: 65 eV; R=30000; [M+H]+
Name: 2-(2-(2-ethoxyethoxy)ethoxy)ethanol
Formula: C8H18O4
Exact mass: 178.1205
SMILES: COCCOCCOCCOC
InChI: InChI=1S/C8H18O4/c1-9-3-5-11-7-8-12-6-4-10-2/h3-8H2,1-2H3
Instrument: Orbitrap Classic, Thermo Scientific
Instrument type: LC-ESI-ITFT
Ms type: MS2
Ion mode: POSITIVE
Ionization: ESI
Fragmentation mode: CID
Collision energy: 65 eV FT-MS
Resolution: 30000
Column name: XBridge C18 3.5um, 2.1x150mm, Waters
Retention time: 5.464 min
Base peak: 179.1275
Precursor m/z: 179.1278
Precursor type: [M+H]+
m/z	relative intensity	assigned
73.0646	111	C4H9O+
89.0595	342	C4H9O2+
91.0752	3	C4H11O2+
111.0683	1	C6H9NO+
117.0907	999	C6H13O2+
133.0856	550	C6H13O3+
135.1012	14	C6H15O3+
151.0962	15	C6H15O4+
156.0524	1	C6H8N2O3+
161.1168	9	C8H17O3+
