Mass spectrum: dimethyl(tetradecyl)amine; LC-ESI-ITFT; MS2; CE: 35 eV; R=7500; [M+H]+
Name: dimethyl(tetradecyl)amine
Formula: C16H35N
Exact mass: 241.2770
SMILES: N(CCCCCCCC)CCCCCCCC
InChI: InChI=1S/C16H35N/c1-3-5-7-9-11-13-15-17-16-14-12-10-8-6-4-2/h17H,3-16H2,1-2H3
Instrument: Orbitrap Classic, Thermo Scientific
Instrument type: LC-ESI-ITFT
Ms type: MS2
Ion mode: POSITIVE
Ionization: ESI
Fragmentation mode: CID
Collision energy: 35 eV FT-MS
Resolution: 7500
Column name: XBridge C18 3.5um, 2.1x150mm, Waters
Retention time: 25.022 min
Base peak: 242.2839
Precursor m/z: 242.2842
Precursor type: [M+H]+
m/z	relative intensity	assigned
196.0637	6	C12H8N2O+
242.284	999	C16H36N+
