Mass spectrum: o-phenetidine; LC-ESI-ITFT; MS2; CE: 35 eV; R=7500; [M+H]+
Name: o-phenetidine
Formula: C8H11NO
Exact mass: 137.0841
SMILES: CCOc1ccccc1N
InChI: InChI=1S/C8H11NO/c1-2-10-8-6-4-3-5-7(8)9/h3-6H,2,9H2,1H3
Instrument: Orbitrap Classic, Thermo Scientific
Instrument type: LC-ESI-ITFT
Ms type: MS2
Ion mode: POSITIVE
Ionization: ESI
Fragmentation mode: CID
Collision energy: 35 eV FT-MS
Resolution: 7500
Column name: XBridge C18 3.5um, 2.1x150mm, Waters
Retention time: 5.030 min
Base peak: 138.0912
Precursor m/z: 138.0913
Precursor type: [M+H]+
m/z	relative intensity	assigned
109.0522	103	C6H7NO+
110.0599	999	C6H8NO+
121.0646	44	C8H9O+
138.0913	59	C8H12NO+
