Mass spectrum: metolachloor; LC-ESI-ITFT; MS2; CE: 35 eV; R=7500; [M+H]+
Name: metolachloor
Formula: C15H22ClNO2
Exact mass: 283.1339
SMILES: CCc1cccc(C)c1N(C(C)COC)C(=O)CCl
InChI: InChI=1S/C15H22ClNO2/c1-5-13-8-6-7-11(2)15(13)17(14(18)9-16)12(3)10-19-4/h6-8,12H,5,9-10H2,1-4H3
Instrument: Orbitrap Classic, Thermo Scientific
Instrument type: LC-ESI-ITFT
Ms type: MS2
Ion mode: POSITIVE
Ionization: ESI
Fragmentation mode: CID
Collision energy: 35 eV FT-MS
Resolution: 7500
Column name: XBridge C18 3.5um, 2.1x150mm, Waters
Retention time: 23.265 min
Base peak: 284.1414
Precursor m/z: 284.1412
Precursor type: [M+H]+
m/z	relative intensity	assigned
212.084	2	C11H15ClNO+
252.1149	999	C14H19ClNO+
