Mass spectrum: 2-(2-(2-ethoxyethoxy)ethoxy)ethanol; LC-ESI-ITFT; MS2; CE: 35 eV; R=7500; [M+H]+
Name: 2-(2-(2-ethoxyethoxy)ethoxy)ethanol
Formula: C8H18O4
Exact mass: 178.1205
SMILES: COCCOCCOCCOC
InChI: InChI=1S/C8H18O4/c1-9-3-5-11-7-8-12-6-4-10-2/h3-8H2,1-2H3
Instrument: Orbitrap Classic, Thermo Scientific
Instrument type: LC-ESI-ITFT
Ms type: MS2
Ion mode: POSITIVE
Ionization: ESI
Fragmentation mode: CID
Collision energy: 35 eV FT-MS
Resolution: 7500
Column name: XBridge C18 3.5um, 2.1x150mm, Waters
Retention time: 5.464 min
Base peak: 179.1275
Precursor m/z: 179.1278
Precursor type: [M+H]+
m/z	relative intensity	assigned
73.0646	106	C4H9O+
89.0595	319	C4H9O2+
91.0753	4	C4H11O2+
117.0907	999	C6H13O2+
133.0855	554	C6H13O3+
135.1009	17	C6H15O3+
151.0959	13	C6H15O4+
161.1166	10	C8H17O3+
179.1275	56	C8H19O4+
