Mass spectrum: 2-(2-(2-ethoxyethoxy)ethoxy)ethanol; LC-ESI-ITFT; MS2; CE: 35 eV; R=nominal; [M+H]+
Name: 2-(2-(2-ethoxyethoxy)ethoxy)ethanol
Formula: C8H18O4
Exact mass: 178.1205
SMILES: COCCOCCOCCOC
InChI: InChI=1S/C8H18O4/c1-9-3-5-11-7-8-12-6-4-10-2/h3-8H2,1-2H3
Instrument: Orbitrap Classic, Thermo Scientific
Instrument type: LC-ESI-ITFT
Ms type: MS2
Ion mode: POSITIVE
Ionization: ESI
Fragmentation mode: CID
Collision energy: 35 eV IT-MS
Resolution: nominal
Column name: XBridge C18 3.5um, 2.1x150mm, Waters
Retention time: 5.464 min
Base peak: 179.1275
Precursor m/z: 179.1278
Precursor type: [M+H]+
m/z	relative intensity	assigned
87.1042	23	C5H13N+
89.0957	999	C5H13O+
