Mass spectrum: caffeine; LC-ESI-ITFT; MS2; CE: 65 eV; R=30000; [M+H]+
Name: caffeine
Formula: C8H10N4O2
Exact mass: 194.0804
SMILES: Cn1cnc2N(C)C(=O)N(C)C(=O)c12
InChI: InChI=1S/C8H10N4O2/c1-10-4-9-6-5(10)7(13)12(3)8(14)11(6)2/h4H,1-3H3
Instrument: Orbitrap Classic, Thermo Scientific
Instrument type: LC-ESI-ITFT
Ms type: MS2
Ion mode: POSITIVE
Ionization: ESI
Fragmentation mode: CID
Collision energy: 65 eV FT-MS
Resolution: 30000
Column name: XBridge C18 3.5um, 2.1x150mm, Waters
Retention time: 5.873 min
Base peak: 195.0874
Precursor m/z: 195.0877
Precursor type: [M+H]+
m/z	relative intensity	assigned
110.0712	12	C5H8N3+
138.0662	999	C6H8N3O+
151.0979	8	C7H11N4+
163.0611	4	C7H7N4O+
181.0724	1	C7H9N4O2+
188.0098	1	C8H2N3O3+
