Mass spectrum: dimethyl(tetradecyl)amine; LC-ESI-ITFT; MS2; CE: 65 eV; R=30000; [M+H]+
Name: dimethyl(tetradecyl)amine
Formula: C16H35N
Exact mass: 241.2770
SMILES: N(CCCCCCCC)CCCCCCCC
InChI: InChI=1S/C16H35N/c1-3-5-7-9-11-13-15-17-16-14-12-10-8-6-4-2/h17H,3-16H2,1-2H3
Instrument: Orbitrap Classic, Thermo Scientific
Instrument type: LC-ESI-ITFT
Ms type: MS2
Ion mode: POSITIVE
Ionization: ESI
Fragmentation mode: CID
Collision energy: 65 eV FT-MS
Resolution: 30000
Column name: XBridge C18 3.5um, 2.1x150mm, Waters
Retention time: 25.022 min
Base peak: 242.2839
Precursor m/z: 242.2842
Precursor type: [M+H]+
m/z	relative intensity	assigned
67.018	278	C4H3O+
85.1011	385	C6H13+
189.2331	999	C11H29N2+
