Mass spectrum: Irgarol; LC-ESI-ITFT; MS2; CE: 35 eV; R=30000; [M+H]+
Name: Irgarol
Formula: C11H19N5S
Exact mass: 253.1361
SMILES: CSc1nc(NC2CC2)nc(NC(C)(C)C)n1
InChI: InChI=1S/C11H19N5S/c1-11(2,3)16-9-13-8(12-7-5-6-7)14-10(15-9)17-4/h7H,5-6H2,1-4H3,(H2,12,13,14,15,16)
Instrument: Orbitrap Classic, Thermo Scientific
Instrument type: LC-ESI-ITFT
Ms type: MS2
Ion mode: POSITIVE
Ionization: ESI
Fragmentation mode: CID
Collision energy: 35 eV FT-MS II
Resolution: 30000
Column name: XBridge C18 3.5um, 2.1x150mm, Waters
Retention time: 16.447 min
Base peak: 254.1429
Precursor m/z: 254.1434
Precursor type: [M+H]+
m/z	relative intensity	assigned
198.0805	999	C7H12N5S+
254.1429	119	C11H20N5S+
