Mass spectrum: triphenylphosphineoxide; LC-ESI-ITFT; MS2; CE: 35 eV; R=7500; [M+H]+
Name: triphenylphosphineoxide
Formula: C18H15OP
Exact mass: 278.0861
SMILES: O=[P](c1ccccc1)(c2ccccc2)c3ccccc3
InChI: InChI=1S/C18H15OP/c19-20(16-10-4-1-5-11-16,17-12-6-2-7-13-17)18-14-8-3-9-15-18/h1-15H
Instrument: Orbitrap Classic, Thermo Scientific
Instrument type: LC-ESI-ITFT
Ms type: MS2
Ion mode: POSITIVE
Ionization: ESI
Fragmentation mode: CID
Collision energy: 35 eV FT-MS
Resolution: 7500
Column name: XBridge C18 3.5um, 2.1x150mm, Waters
Retention time: 17.809 min
Base peak: 279.0934
Precursor m/z: 279.0933
Precursor type: [M+H]+
m/z	relative intensity	assigned
201.0462	999	C12H10OP+
219.0569	52	C12H12O2P+
238.9788	1	C15N2P+
279.0931	196	C18H16OP+
