Mass spectrum: methylcinnamate; LC-ESI-ITFT; MS2; CE: 35 eV; R=30000; [M+H]+
Name: methylcinnamate
Formula: C10H10O2
Exact mass: 162.0681
SMILES: O=C(OC)C=Cc(cccc1)c1
InChI: InChI=1S/C10H10O2/c1-12-10(11)8-7-9-5-3-2-4-6-9/h2-8H,1H3
Instrument: Orbitrap Classic, Thermo Scientific
Instrument type: LC-ESI-ITFT
Ms type: MS2
Ion mode: POSITIVE
Ionization: ESI
Fragmentation mode: CID
Collision energy: 35 eV FT-MS II
Resolution: 30000
Column name: XBridge C18 3.5um, 2.1x150mm, Waters
Retention time: 20.119 min
Base peak: 131.049
Precursor m/z: 163.0754
Precursor type: [M+H]+
m/z	relative intensity	assigned
89.0596	18	C4H9O2+
103.0542	7	C8H7+
107.0701	7	C4H11O3+
107.0855	2	C8H11+
121.0647	12	C8H9O+
131.0491	999	C9H7O+
