Mass spectrum: N-lauroylsarcosine; LC-ESI-ITFT; MS2; CE: 65 eV; R=30000; [M+H]+
Name: N-lauroylsarcosine
Formula: C15H29NO3
Exact mass: 271.2147
SMILES: CCCCCCCCCCCC(=O)N(C)CC(O)=O
InChI: InChI=1S/C15H29NO3/c1-3-4-5-6-7-8-9-10-11-12-14(17)16(2)13-15(18)19/h3-13H2,1-2H3,(H,18,19)
Instrument: Orbitrap Classic, Thermo Scientific
Instrument type: LC-ESI-ITFT
Ms type: MS2
Ion mode: POSITIVE
Ionization: ESI
Fragmentation mode: CID
Collision energy: 65 eV FT-MS
Resolution: 30000
Column name: XBridge C18 3.5um, 2.1x150mm, Waters
Retention time: 26.193 min
Base peak: 272.222
Precursor m/z: 272.222
Precursor type: [M+H]+
m/z	relative intensity	assigned
90.0547	999	C3H8NO2+
102.1407	5	C7H18+
118.1099	6	C5H14N2O+
178.0858	5	C10H12NO2+
189.1847	8	C11H25O2+
189.2095	7	C11H27NO+
189.2197	13	C10H27N3+
190.1916	7	C9H24N3O+
209.0137	6	C15HN2+
254.2107	90	C15H28NO2+
