Mass spectrum: DIMETHOMORF; LC-ESI-ITFT; MS2; CE: 35 eV; R=7500; [M+H]+
Name: DIMETHOMORF
Formula: C21H22ClNO4
Exact mass: 387.1237
SMILES: COc1ccc(cc1OC)C(=C\C(=O)N2CCOCC2)/c3ccc(Cl)cc3
InChI: InChI=1S/C21H22ClNO4/c1-25-19-8-5-16(13-20(19)26-2)18(15-3-6-17(22)7-4-15)14-21(24)23-9-11-27-12-10-23/h3-8,13-14H,9-12H2,1-2H3/b18-14-
Instrument: Orbitrap Classic, Thermo Scientific
Instrument type: LC-ESI-ITFT
Ms type: MS2
Ion mode: POSITIVE
Ionization: ESI
Fragmentation mode: CID
Collision energy: 35 eV FT-MS
Resolution: 7500
Column name: XBridge C18 3.5um, 2.1x150mm, Waters
Retention time: 19.725 min
Base peak: 388.1312
Precursor m/z: 388.131
Precursor type: [M+H]+
m/z	relative intensity	assigned
301.0629	999	C17H14ClO3+
302.0342	1	C16H11ClO4+
