Mass spectrum: 5-(Difluoromethoxy)-2-mercapto-1H-benzimidazole; LC-ESI-ITFT; MS2; CE: 35 eV; R=7500; [M+H]+
Name: 5-(Difluoromethoxy)-2-mercapto-1H-benzimidazole
Formula: C8H6F2N2OS
Exact mass: 216.0169
SMILES: C1(N2)=C(N=C2S)C=C(C=C1)OC(F)F
InChI: InChI=1S/C8H6F2N2OS/c9-7(10)13-4-1-2-5-6(3-4)12-8(14)11-5/h1-3,7H,(H2,11,12,14)
Instrument: Orbitrap Classic, Thermo Scientific
Instrument type: LC-ESI-ITFT
Ms type: MS2
Ion mode: POSITIVE
Ionization: ESI
Fragmentation mode: CID
Collision energy: 35 eV FT-MS
Resolution: 7500
Column name: XBridge C18 3.5um, 2.1x150mm, Waters
Retention time: 11.894 min
Base peak: 217.0235
Precursor m/z: 217.0242
Precursor type: [M+H]+
m/z	relative intensity	assigned
149.0164	207	C7H5N2S+
150.0241	99	C7H6N2S+
159.0486	108	C7H7F2NO+
167.0271	241	C7H7N2OS+
177.011	22	C8H5N2OS+
184.0438	123	C8H6F2N2O+
185.0514	51	C8H7F2N2O+
197.0173	278	C8H6FN2OS+
217.0236	999	C8H7F2N2OS+
218.0272	32	C6H7FN4O2S+
