Mass spectrum: (S)-1-Anilino-4-methyl-2-methylthio-4-phenyl-2-imidazolin-5-one; LC-ESI-ITFT; MS2; CE: 35 eV; R=30000; [M+H]+
Name: (S)-1-Anilino-4-methyl-2-methylthio-4-phenyl-2-imidazolin-5-one
Formula: C17H17N3OS
Exact mass: 311.1092
SMILES: CSC1=N[C@](C)(C(=O)N1Nc2ccccc2)c3ccccc3
InChI: InChI=1S/C17H17N3OS/c1-17(13-9-5-3-6-10-13)15(21)20(16(18-17)22-2)19-14-11-7-4-8-12-14/h3-12,19H,1-2H3/t17-/m0/s1
Instrument: Orbitrap Classic, Thermo Scientific
Instrument type: LC-ESI-ITFT
Ms type: MS2
Ion mode: POSITIVE
Ionization: ESI
Fragmentation mode: CID
Collision energy: 35 eV FT-MS II
Resolution: 30000
Column name: XBridge C18 3.5um, 2.1x150mm, Waters
Retention time: 21.602 min
Base peak: 312.1158
Precursor m/z: 312.1165
Precursor type: [M+H]+
m/z	relative intensity	assigned
103.0541	66	C8H7+
120.0805	23	C8H10N+
131.0489	1	C9H7O+
143.0271	1	C5H7N2OS+
150.0244	1	C7H6N2S+
151.0575	1	C9H11S+
161.0708	20	C9H9N2O+
165.0479	155	C8H9N2S+
170.0961	3	C12H12N+
193.0791	11	C10H13N2S+
195.091	2	C13H11N2+
205.0791	4	C11H13N2S+
211.1226	117	C14H15N2+
219.0583	4	C11H11N2OS+
221.1072	6	C15H13N2+
222.0909	37	C15H12NO+
234.0694	1	C11H12N3OS+
236.1178	962	C15H14N3+
239.1173	414	C15H15N2O+
264.1125	999	C16H14N3O+
265.1202	15	C16H15N3O+
267.0942	114	C16H15N2S+
284.1208	10	C16H18N3S+
295.0892	144	C17H15N2OS+
