Mass spectrum: 3,9-dicyclohex-3-enyl-2,4,8,10-tetraoxaspiro[5.5]undecane; LC-ESI-ITFT; MS2; CE: 35 eV; R=nominal; [M+H]+
Name: 3,9-dicyclohex-3-enyl-2,4,8,10-tetraoxaspiro[5.5]undecane
Formula: C19H28O4
Exact mass: 320.1988
SMILES: C1CC(CC=C1)C2OCC3(CO2)COC(OC3)C4CCC=CC4
InChI: InChI=1S/C19H28O4/c1-3-7-15(8-4-1)17-20-11-19(12-21-17)13-22-18(23-14-19)16-9-5-2-6-10-16/h1-3,5,15-18H,4,6-14H2
Instrument: Orbitrap Classic, Thermo Scientific
Instrument type: LC-ESI-ITFT
Ms type: MS2
Ion mode: POSITIVE
Ionization: ESI
Fragmentation mode: CID
Collision energy: 35 eV IT-MS
Resolution: nominal
Column name: XBridge C18 3.5um, 2.1x150mm, Waters
Retention time: 32.567 min
Base peak: 321.2055
Precursor m/z: 321.206
Precursor type: [M+H]+
m/z	relative intensity	assigned
147.1743	97	C9H23O+
179.0346	999	C9H7O4+
185.0952	373	C13H13O+
187.1481	193	C14H19+
193.1228	51	C12H17O2+
197.097	116	C14H13O+
205.0517	23	C14H7NO+
207.159	42	C10H23O4+
213.2315	7	C13H29N2+
239.2234	42	C15H29NO+
249.2077	75	C16H27NO+
267.1959	24	C16H27O3+
285.1558	40	C14H23NO5+
