Mass spectrum: cyclic3-(1,2-ethanediylacetale)-estra-5(10),9(11)-diene-3,17-dione; LC-ESI-ITFT; MS2; CE: 35 eV; R=nominal; [M+H]+
Name: cyclic3-(1,2-ethanediylacetale)-estra-5(10),9(11)-diene-3,17-dione
Formula: C20H26O3
Exact mass: 314.1882
SMILES: C[C@]12CC=C3[C@@H](CCC4=C3CCC5(C4)OCCO5)[C@@H]1CCC2=O
InChI: InChI=1S/C20H26O3/c1-19-8-6-15-14-7-9-20(22-10-11-23-20)12-13(14)2-3-16(15)17(19)4-5-18(19)21/h6,16-17H,2-5,7-12H2,1H3/t16-,17+,19+/m1/s1
Instrument: Orbitrap Classic, Thermo Scientific
Instrument type: LC-ESI-ITFT
Ms type: MS2
Ion mode: POSITIVE
Ionization: ESI
Fragmentation mode: CID
Collision energy: 35 eV IT-MS
Resolution: nominal
Column name: XBridge C18 3.5um, 2.1x150mm, Waters
Retention time: 23.221 min
Base peak: 315.1949
Precursor m/z: 315.1955
Precursor type: [M+H]+
m/z	relative intensity	assigned
120.9924	8	C6HO3+
157.1339	107	C8H17N2O+
159.1012	22	C8H15O3+
173.0924	16	C7H13N2O3+
175.1433	224	C8H19N2O2+
181.1949	30	C13H25+
223.1207	33	C12H17NO3+
227.2011	67	C14H27O2+
241.1189	85	C11H17N2O4+
244.2054	3	C17H26N+
255.1697	999	C13H23N2O3+
