Mass spectrum: 2`,6`-difluoro-5-methyl[1,2,4]triazolo[1,5-a]pyrimidine-2-sulfoanilide; LC-ESI-ITFT; MS2; CE: 65 eV; R=30000; [M+H]+
Name: 2`,6`-difluoro-5-methyl[1,2,4]triazolo[1,5-a]pyrimidine-2-sulfoanilide
Formula: C12H9F2N5O2S
Exact mass: 325.0445
SMILES: N1(C=C2)N=C(N=C1N=C2C)S(=O)(NC(=C(F)C=C1)C(F)=C1)=O
InChI: InChI=1S/C12H9F2N5O2S/c1-7-5-6-19-11(15-7)16-12(17-19)22(20,21)18-10-8(13)3-2-4-9(10)14/h2-6,18H,1H3
Instrument: Orbitrap Classic, Thermo Scientific
Instrument type: LC-ESI-ITFT
Ms type: MS2
Ion mode: POSITIVE
Ionization: ESI
Fragmentation mode: CID
Collision energy: 65 eV FT-MS
Resolution: 30000
Column name: XBridge C18 3.5um, 2.1x150mm, Waters
Retention time: 11.526 min
Base peak: 326.0512
Precursor m/z: 326.0518
Precursor type: [M+H]+
m/z	relative intensity	assigned
84.0804	3	FH9N4+
108.0242	23	CH2F2N4+
128.0304	228	C6H4F2N+
129.0382	466	C3H10FO2S+
131.0366	4	C8H5NO+
134.0587	8	C6H6N4+
135.0664	17	C6H7N4+
144.0253	289	C6H4F2NO+
145.0331	24	C6H5F2NO+
151.0612	5	C6H7N4O+
160.9873	4	C6H3F2OS+
182.0253	197	C6H6N4OS+
183.0331	41	C6H7N4OS+
191.9921	706	C6H4F2NO2S+
197.0124	44	C6H5N4O2S+
215.0231	10	C12HN5+
242.0831	242	C12H9FN5+
258.0779	13	C12H9FN5O+
262.0892	999	C12H10F2N5+
306.0448	44	C12H9FN5O2S+
308.041	10	C12H8F2N5OS+
