Mass spectrum: 1,4-dioxacyclohexadecane-5,16-dione; LC-ESI-ITFT; MS2; CE: 35 eV; R=7500; [M+H]+
Name: 1,4-dioxacyclohexadecane-5,16-dione
Formula: C14H24O4
Exact mass: 256.1675
SMILES: O=C(OCCOC(=O)CCCCCCCCC1)C1
InChI: InChI=1S/C14H24O4/c15-13-9-7-5-3-1-2-4-6-8-10-14(16)18-12-11-17-13/h1-12H2
Instrument: Orbitrap Classic, Thermo Scientific
Instrument type: LC-ESI-ITFT
Ms type: MS2
Ion mode: POSITIVE
Ionization: ESI
Fragmentation mode: CID
Collision energy: 35 eV FT-MS
Resolution: 7500
Column name: XBridge C18 3.5um, 2.1x150mm, Waters
Retention time: 26.137 min
Base peak: 257.1748
Precursor m/z: 257.1747
Precursor type: [M+H]+
m/z	relative intensity	assigned
67.0542	14	C5H7+
77.0389	8	C6H5+
78.0791	5	C2H10N2O+
79.0544	44	C6H7+
81.07	68	C6H9+
83.0492	9	C5H7O+
83.0856	51	C6H11+
91.0543	46	C7H7+
93.07	155	C7H9+
95.0856	49	C7H11+
97.0648	43	C6H9O+
97.1011	10	C7H13+
107.0855	125	C8H11+
109.1012	40	C8H13+
111.0805	66	C7H11O+
115.0758	8	C6H11O2+
117.0702	33	C9H9+
121.1012	112	C9H13+
123.1166	15	C9H15+
125.0959	19	C8H13O+
131.0856	24	C10H11+
133.1014	31	C10H13+
135.117	63	C10H15+
149.1327	999	C11H17+
159.117	229	C12H15+
167.1432	418	C11H19O+
177.1275	116	C12H17O+
185.1539	7	C11H21O2+
195.1382	76	C12H19O2+
213.1486	184	C12H21O3+
231.1597	10	C12H23O4+
239.1643	104	C14H23O3+
257.175	41	C14H25O4+
