Mass spectrum: 11-aminoundecanoicacid; LC-ESI-ITFT; MS2; CE: 35 eV; R=nominal; [M+H]+
Name: 11-aminoundecanoicacid
Formula: C11H23NO2
Exact mass: 201.1729
SMILES: NCCCCCCCCCCC(O)=O
InChI: InChI=1S/C11H23NO2/c12-10-8-6-4-2-1-3-5-7-9-11(13)14/h1-10,12H2,(H,13,14)
Instrument: Orbitrap Classic, Thermo Scientific
Instrument type: LC-ESI-ITFT
Ms type: MS2
Ion mode: POSITIVE
Ionization: ESI
Fragmentation mode: CID
Collision energy: 35 eV IT-MS
Resolution: nominal
Column name: XBridge C18 3.5um, 2.1x150mm, Waters
Retention time: 9.922 min
Base peak: 202.1799
Precursor m/z: 202.1802
Precursor type: [M+H]+
m/z	relative intensity	assigned
59.1064	4	CH15O2+
71.048	4	C2H5N3+
115.0047	28	C7HNO+
139.1103	9	C7H13N3+
149.1048	999	C6H15NO3+
