Mass spectrum: 11-aminoundecanoicacid; LC-ESI-ITFT; MS2; CE: 35 eV; R=7500; [M+H]+
Name: 11-aminoundecanoicacid
Formula: C11H23NO2
Exact mass: 201.1729
SMILES: NCCCCCCCCCCC(O)=O
InChI: InChI=1S/C11H23NO2/c12-10-8-6-4-2-1-3-5-7-9-11(13)14/h1-10,12H2,(H,13,14)
Instrument: Orbitrap Classic, Thermo Scientific
Instrument type: LC-ESI-ITFT
Ms type: MS2
Ion mode: POSITIVE
Ionization: ESI
Fragmentation mode: CID
Collision energy: 35 eV FT-MS
Resolution: 7500
Column name: XBridge C18 3.5um, 2.1x150mm, Waters
Retention time: 9.922 min
Base peak: 202.1799
Precursor m/z: 202.1802
Precursor type: [M+H]+
m/z	relative intensity	assigned
149.1326	16	C11H17+
167.1428	12	C11H19O+
184.1692	999	C11H22NO+
