Mass spectrum: diisopropylsuccinate; LC-ESI-ITFT; MS2; CE: 35 eV; R=30000; [M+H]+
Name: diisopropylsuccinate
Formula: C10H18O4
Exact mass: 202.1205
SMILES: CC(C)OC(=O)CCC(=O)OC(C)C
InChI: InChI=1S/C10H18O4/c1-7(2)13-9(11)5-6-10(12)14-8(3)4/h7-8H,5-6H2,1-4H3
Instrument: Orbitrap Classic, Thermo Scientific
Instrument type: LC-ESI-ITFT
Ms type: MS2
Ion mode: POSITIVE
Ionization: ESI
Fragmentation mode: CID
Collision energy: 35 eV FT-MS II
Resolution: 30000
Column name: XBridge C18 3.5um, 2.1x150mm, Waters
Retention time: 19.416 min
Base peak: 225.1093
Precursor m/z: 203.1278
Precursor type: [M+H]+
m/z	relative intensity	assigned
55.0179	3	C3H3O+
73.0283	9	C3H5O2+
101.0232	999	C4H5O3+
119.0337	650	C4H7O4+
142.0578	4	C2H10N2O5+
143.0702	104	C7H11O3+
161.0807	308	C7H13O4+
196.1181	20	C7H18NO5+
