Mass spectrum: 2-methylquinolin-8-ol; LC-ESI-ITFT; MS2; CE: 35 eV; R=7500; [M+H]+
Name: 2-methylquinolin-8-ol
Formula: C10H9NO
Exact mass: 159.0684
SMILES: Cc1ccc2cccc(O)c2n1
InChI: InChI=1S/C10H9NO/c1-7-5-6-8-3-2-4-9(12)10(8)11-7/h2-6,12H,1H3
Instrument: Orbitrap Classic, Thermo Scientific
Instrument type: LC-ESI-ITFT
Ms type: MS2
Ion mode: POSITIVE
Ionization: ESI
Fragmentation mode: CID
Collision energy: 35 eV FT-MS
Resolution: 7500
Column name: XBridge C18 3.5um, 2.1x150mm, Waters
Retention time: 4.017 min
Base peak: 160.0755
Precursor m/z: 160.0757
Precursor type: [M+H]+
m/z	relative intensity	assigned
132.0808	57	C9H10N+
160.0756	999	C10H10NO+
