Mass spectrum: diethyldiallylmalonate; LC-ESI-ITFT; MS2; CE: 35 eV; R=7500; [M+H]+
Name: diethyldiallylmalonate
Formula: C13H20O4
Exact mass: 240.1362
SMILES: CCOC(=O)C(C(=O)OCC)(CC=C)CC=C
InChI: InChI=1S/C13H20O4/c1-5-9-13(10-6-2,11(14)16-7-3)12(15)17-8-4/h5-6H,1-2,7-10H2,3-4H3
Instrument: Orbitrap Classic, Thermo Scientific
Instrument type: LC-ESI-ITFT
Ms type: MS2
Ion mode: POSITIVE
Ionization: ESI
Fragmentation mode: CID
Collision energy: 35 eV FT-MS
Resolution: 7500
Column name: XBridge C18 3.5um, 2.1x150mm, Waters
Retention time: 25.698 min
Base peak: 241.143
Precursor m/z: 241.1434
Precursor type: [M+H]+
m/z	relative intensity	assigned
91.0542	19	C7H7+
93.0698	166	C7H9+
95.0853	16	C7H11+
111.0806	14	C7H11O+
121.0647	121	C8H9O+
123.0805	34	C8H11O+
139.0754	163	C8H11O2+
149.0596	108	C9H9O2+
167.0706	102	C9H11O3+
167.1065	999	C10H15O2+
185.0807	785	C9H13O4+
195.1014	342	C11H15O3+
196.1458	10	C12H20O2+
213.1119	950	C11H17O4+
