Mass spectrum: 3,9-dicyclohex-3-enyl-2,4,8,10-tetraoxaspiro[5.5]undecane; LC-ESI-ITFT; MS2; CE: 35 eV; R=7500; [M+H]+
Name: 3,9-dicyclohex-3-enyl-2,4,8,10-tetraoxaspiro[5.5]undecane
Formula: C19H28O4
Exact mass: 320.1988
SMILES: C1CC(CC=C1)C2OCC3(CO2)COC(OC3)C4CCC=CC4
InChI: InChI=1S/C19H28O4/c1-3-7-15(8-4-1)17-20-11-19(12-21-17)13-22-18(23-14-19)16-9-5-2-6-10-16/h1-3,5,15-18H,4,6-14H2
Instrument: Orbitrap Classic, Thermo Scientific
Instrument type: LC-ESI-ITFT
Ms type: MS2
Ion mode: POSITIVE
Ionization: ESI
Fragmentation mode: CID
Collision energy: 35 eV FT-MS
Resolution: 7500
Column name: XBridge C18 3.5um, 2.1x150mm, Waters
Retention time: 32.567 min
Base peak: 321.2055
Precursor m/z: 321.206
Precursor type: [M+H]+
m/z	relative intensity	assigned
81.0698	20	C6H9+
91.0539	2	C7H7+
95.0854	2	C7H11+
109.0651	3	C7H9O+
121.0885	1	C8H11N+
127.0753	6	C7H11O2+
133.1011	8	C10H13+
163.1113	1	C11H15O+
175.1481	15	C13H19+
179.1064	37	C11H15O2+
181.1219	3	C11H17O2+
185.1329	8	C14H17+
191.1068	1	C12H15O2+
197.117	4	C11H17O3+
203.143	10	C14H19O+
209.1174	10	C12H17O3+
211.1326	999	C12H19O3+
227.1271	9	C12H19O4+
257.9978	1	C19NO+
273.1847	2	C18H25O2+
303.1945	23	C19H27O3+
