Mass spectrum: FIPRONIL; LC-ESI-ITFT; MS2; CE: 35 eV; R=7500; [M+H]+
Name: FIPRONIL
Formula: C12H4Cl2F6N4OS
Exact mass: 435.9387
SMILES: Clc1cc(C(F)(F)F)cc(Cl)c1N2C(N)=C(S(=O)C(F)(F)F)C(C#N)=N2
InChI: InChI=1S/C12H4Cl2F6N4OS/c13-5-1-4(11(15,16)17)2-6(14)8(5)24-10(22)9(7(3-21)23-24)26(25)12(18,19)20/h1-2H,22H2
Instrument: Orbitrap Classic, Thermo Scientific
Instrument type: LC-ESI-ITFT
Ms type: MS2
Ion mode: POSITIVE
Ionization: ESI
Fragmentation mode: CID
Collision energy: 35 eV FT-MS
Resolution: 7500
Column name: XBridge C18 3.5um, 2.1x150mm, Waters
Retention time: 25.630 min
Base peak: 436.9459
Precursor m/z: 436.946
Precursor type: [M+H]+
m/z	relative intensity	assigned
192.9564	1	C6H2ClF2NS+
319.9832	3	C12H2F6N2S+
350.9476	4	C11H4Cl2F3N4S+
351.933	1	C11H3Cl2F3N3OS+
366.9423	13	C11H5Cl2F6NS+
367.9504	999	C11H5Cl2F3N4OS+
388.9795	1	C12H5Cl2F6N4+
418.9335	1	C12H3Cl2F6N4S+
