Mass spectrum: 2,6-diisopropylaniline; LC-ESI-ITFT; MS2; CE: 35 eV; R=30000; [M+H]+
Name: 2,6-diisopropylaniline
Formula: C12H19N
Exact mass: 177.1517
SMILES: Nc(c(ccc1)C(C)C)c1C(C)C
InChI: InChI=1S/C12H19N/c1-8(2)10-6-5-7-11(9(3)4)12(10)13/h5-9H,13H2,1-4H3
Instrument: Orbitrap Classic, Thermo Scientific
Instrument type: LC-ESI-ITFT
Ms type: MS2
Ion mode: POSITIVE
Ionization: ESI
Fragmentation mode: CID
Collision energy: 35 eV FT-MS II
Resolution: 30000
Column name: XBridge C18 3.5um, 2.1x150mm, Waters
Retention time: 20.357 min
Base peak: 178.1589
Precursor m/z: 178.159
Precursor type: [M+H]+
m/z	relative intensity	assigned
77.0711	1	C2H9N2O+
91.0542	39	C7H7+
94.0651	15	C6H8N+
105.0699	10	C8H9+
106.0652	3	C7H8N+
119.0856	2	C9H11+
120.0807	2	C8H10N+
132.0809	1	C9H10N+
133.1012	119	C10H13+
134.0965	69	C9H12N+
136.1121	46	C9H14N+
148.1122	32	C10H14N+
160.1125	1	C11H14N+
162.1278	437	C11H16N+
174.1279	11	C12H16N+
176.1435	78	C12H18N+
178.159	999	C12H20N+
