Mass spectrum: 1,4-dioxacyclohexadecane-5,16-dione; LC-ESI-ITFT; MS2; CE: 35 eV; R=nominal; [M+H]+
Name: 1,4-dioxacyclohexadecane-5,16-dione
Formula: C14H24O4
Exact mass: 256.1675
SMILES: O=C(OCCOC(=O)CCCCCCCCC1)C1
InChI: InChI=1S/C14H24O4/c15-13-9-7-5-3-1-2-4-6-8-10-14(16)18-12-11-17-13/h1-12H2
Instrument: Orbitrap Classic, Thermo Scientific
Instrument type: LC-ESI-ITFT
Ms type: MS2
Ion mode: POSITIVE
Ionization: ESI
Fragmentation mode: CID
Collision energy: 35 eV IT-MS
Resolution: nominal
Column name: XBridge C18 3.5um, 2.1x150mm, Waters
Retention time: 26.137 min
Base peak: 257.1748
Precursor m/z: 257.1747
Precursor type: [M+H]+
m/z	relative intensity	assigned
81.1272	109	C4H17O+
111.004	84	H3N2O5+
121.065	163	C8H9O+
125.0345	44	C5H5N2O2+
127.1331	5	C5H19O3+
140.0917	8	C4H14NO4+
143.0492	8	C10H7O+
149.0597	999	C9H9O2+
177.1147	97	C11H15NO+
179.1429	1	C12H19O+
185.0913	5	C8H13N2O3+
203.1887	1	C11H25NO2+
239.1598	95	C9H23N2O5+
