Mass spectrum: 1,4-dioxacyclohexadecane-5,16-dione; LC-ESI-ITFT; MS2; CE: 65 eV; R=30000; [M+H]+
Name: 1,4-dioxacyclohexadecane-5,16-dione
Formula: C14H24O4
Exact mass: 256.1675
SMILES: O=C(OCCOC(=O)CCCCCCCCC1)C1
InChI: InChI=1S/C14H24O4/c15-13-9-7-5-3-1-2-4-6-8-10-14(16)18-12-11-17-13/h1-12H2
Instrument: Orbitrap Classic, Thermo Scientific
Instrument type: LC-ESI-ITFT
Ms type: MS2
Ion mode: POSITIVE
Ionization: ESI
Fragmentation mode: CID
Collision energy: 65 eV FT-MS
Resolution: 30000
Column name: XBridge C18 3.5um, 2.1x150mm, Waters
Retention time: 26.137 min
Base peak: 257.1748
Precursor m/z: 257.1747
Precursor type: [M+H]+
m/z	relative intensity	assigned
67.0543	8	C5H7+
77.0386	14	C6H5+
79.0543	30	C6H7+
81.0699	61	C6H9+
83.0856	46	C6H11+
91.0543	39	C7H7+
93.0699	133	C7H9+
95.0856	55	C7H11+
97.0648	32	C6H9O+
97.1012	11	C7H13+
105.0699	10	C8H9+
107.0856	133	C8H11+
109.1012	43	C8H13+
111.0805	55	C7H11O+
115.0753	8	C6H11O2+
117.07	25	C9H9+
121.1012	125	C9H13+
123.117	16	C9H15+
125.0962	16	C8H13O+
131.0857	23	C10H11+
133.1014	25	C10H13+
135.1169	72	C10H15+
147.1168	7	C11H15+
149.1326	999	C11H17+
151.1119	8	C10H15O+
159.1169	239	C12H15+
167.1431	402	C11H19O+
175.1483	11	C13H19+
177.1275	111	C12H17O+
185.1538	6	C11H21O2+
193.1587	5	C13H21O+
195.138	77	C12H19O2+
200.1773	4	C12H24O2+
213.1485	214	C12H21O3+
239.1641	97	C14H23O3+
