Mass spectrum: Valsartan; LC-ESI-ITFT; MS2; CE: 35 eV; R=30000; [M+H]+
Name: Valsartan
Formula: C24H29N5O3
Exact mass: 435.2270
SMILES: CCCCC(=O)N(Cc1ccc(cc1)c2ccccc2c3[nH]nnn3)[C@@H](C(C)C)C(O)=O
InChI: InChI=1S/C24H29N5O3/c1-4-5-10-21(30)29(22(16(2)3)24(31)32)15-17-11-13-18(14-12-17)19-8-6-7-9-20(19)23-25-27-28-26-23/h6-9,11-14,16,22H,4-5,10,15H2,1-3H3,(H,31,32)(H,25,26,27,28)/t22-/m0/s1
Instrument: Orbitrap Classic, Thermo Scientific
Instrument type: LC-ESI-ITFT
Ms type: MS2
Ion mode: POSITIVE
Ionization: ESI
Fragmentation mode: CID
Collision energy: 35 eV FT-MS II
Resolution: 30000
Column name: XBridge C18 3.5um, 2.1x150mm, Waters
Retention time: 20.120 min
Base peak: 436.2342
Precursor m/z: 436.2343
Precursor type: [M+H]+
m/z	relative intensity	assigned
178.0779	1	C14H10+
180.0806	6	C13H10N+
190.065	6	C14H8N+
206.0837	2	C14H10N2+
207.0915	31	C14H11N2+
235.0976	162	C14H11N4+
236.101	1	C9H12N6O2+
291.149	38	C19H19N2O+
306.1711	227	C18H20N5+
307.1744	2	C13H21N7O2+
352.1766	47	C19H22N5O2+
362.2224	176	C23H28N3O+
363.2256	2	C18H29N5O3+
408.2282	446	C24H30N3O3+
418.2233	999	C24H28N5O2+
419.2271	15	C19H29N7O4+
