Mass spectrum: 8-Chloro-5,10-dihydro-11H-dibenzo[b,e][1,4]-diazepin-11-one; LC-ESI-ITFT; MS2; CE: 35 eV; R=30000; [M+H]+
Name: 8-Chloro-5,10-dihydro-11H-dibenzo[b,e][1,4]-diazepin-11-one
Formula: C13H9ClN2O
Exact mass: 244.0403
SMILES: C1=CC(=CC(NC(=O)C2C=C3)=C1NC=2C=C3)Cl
InChI: InChI=1S/C13H9ClN2O/c14-8-5-6-11-12(7-8)16-13(17)9-3-1-2-4-10(9)15-11/h1-7,15H,(H,16,17)
Instrument: Orbitrap Classic, Thermo Scientific
Instrument type: LC-ESI-ITFT
Ms type: MS2
Ion mode: POSITIVE
Ionization: ESI
Fragmentation mode: CID
Collision energy: 35 eV FT-MS II
Resolution: 30000
Column name: XBridge C18 3.5um, 2.1x150mm, Waters
Retention time: 17.891 min
Base peak: 245.047
Precursor m/z: 245.0476
Precursor type: [M+H]+
m/z	relative intensity	assigned
63.0678	2	C2H9NO+
77.0262	2	C5H3N+
147.0232	3	C12H3+
157.0511	2	C8H5N4+
200.0023	2	C12H5ClO+
201.0538	2	C7H10ClN4O+
209.0705	143	C13H9N2O+
210.0782	438	C13H10N2O+
228.0205	999	C13H7ClNO+
245.0469	36	C13H10ClN2O+
