Mass spectrum: diethyldiallylmalonate; LC-ESI-ITFT; MS2; CE: 65 eV; R=30000; [M+H]+
Name: diethyldiallylmalonate
Formula: C13H20O4
Exact mass: 240.1362
SMILES: CCOC(=O)C(C(=O)OCC)(CC=C)CC=C
InChI: InChI=1S/C13H20O4/c1-5-9-13(10-6-2,11(14)16-7-3)12(15)17-8-4/h5-6H,1-2,7-10H2,3-4H3
Instrument: Orbitrap Classic, Thermo Scientific
Instrument type: LC-ESI-ITFT
Ms type: MS2
Ion mode: POSITIVE
Ionization: ESI
Fragmentation mode: CID
Collision energy: 65 eV FT-MS
Resolution: 30000
Column name: XBridge C18 3.5um, 2.1x150mm, Waters
Retention time: 25.698 min
Base peak: 241.143
Precursor m/z: 241.1434
Precursor type: [M+H]+
m/z	relative intensity	assigned
77.0385	4	C6H5+
81.0698	5	C6H9+
91.0542	27	C7H7+
93.0698	204	C7H9+
95.049	3	C6H7O+
95.0854	21	C7H11+
111.0803	14	C7H11O+
121.0647	158	C8H9O+
123.0804	30	C8H11O+
130.1349	1	C8H18O+
139.0753	196	C8H11O2+
141.091	5	C8H13O2+
149.0597	120	C9H9O2+
167.0704	126	C9H11O3+
167.1066	999	C10H15O2+
169.1222	5	C10H17O2+
173.044	1	C7H9O5+
177.0908	3	C11H13O2+
179.0134	1	C12H3O2+
185.0806	797	C9H13O4+
195.1013	320	C11H15O3+
196.0975	2	C10H14NO3+
196.1463	8	C12H20O2+
207.1496	1	C12H19N2O+
213.1118	911	C11H17O4+
