Mass spectrum: 2`,6`-difluoro-5-methyl[1,2,4]triazolo[1,5-a]pyrimidine-2-sulfoanilide; LC-ESI-ITFT; MS2; CE: 35 eV; R=nominal; [M+H]+
Name: 2`,6`-difluoro-5-methyl[1,2,4]triazolo[1,5-a]pyrimidine-2-sulfoanilide
Formula: C12H9F2N5O2S
Exact mass: 325.0445
SMILES: N1(C=C2)N=C(N=C1N=C2C)S(=O)(NC(=C(F)C=C1)C(F)=C1)=O
InChI: InChI=1S/C12H9F2N5O2S/c1-7-5-6-19-11(15-7)16-12(17-19)22(20,21)18-10-8(13)3-2-4-9(10)14/h2-6,18H,1H3
Instrument: Orbitrap Classic, Thermo Scientific
Instrument type: LC-ESI-ITFT
Ms type: MS2
Ion mode: POSITIVE
Ionization: ESI
Fragmentation mode: CID
Collision energy: 35 eV IT-MS
Resolution: nominal
Column name: XBridge C18 3.5um, 2.1x150mm, Waters
Retention time: 11.526 min
Base peak: 326.0512
Precursor m/z: 326.0518
Precursor type: [M+H]+
m/z	relative intensity	assigned
109.0658	5	C4H10FO2+
126.0464	1	C10H6+
128.0576	307	FH7N5O2+
143.9995	343	C12+
145.0464	47	C7H7F2O+
151.066	14	C3H7F2N5+
182.0345	243	C10H4N3O+
225.0532	6	C12H7N3O2+
262.08	999	C10H10N6O3+
286.028	6	C8H7FN6O3S+
307.0292	2	C7H7F2N7O3S+
