Mass spectrum: 4,4?-Dichlorobenzophenone; LC-ESI-ITFT; MS2; CE: 35 eV; R=7500; [M+H]+
Name: 4,4?-Dichlorobenzophenone
Formula: C13H8Cl2O
Exact mass: 249.9952
SMILES: O=C(c(ccc(c1)Cl)c1)c(ccc(c2)Cl)c2
InChI: InChI=1S/C13H8Cl2O/c14-11-5-1-9(2-6-11)13(16)10-3-7-12(15)8-4-10/h1-8H
Instrument: Orbitrap Classic, Thermo Scientific
Instrument type: LC-ESI-ITFT
Ms type: MS2
Ion mode: POSITIVE
Ionization: ESI
Fragmentation mode: CID
Collision energy: 35 eV FT-MS
Resolution: 7500
Column name: XBridge C18 3.5um, 2.1x150mm, Waters
Retention time: 28.332 min
Base peak: 251.0026
Precursor m/z: 251.0025
Precursor type: [M+H]+
m/z	relative intensity	assigned
89.0601	1	C4H9O2+
110.9997	3	C6H4Cl+
138.9946	999	C7H4ClO+
251.0022	26	C13H9Cl2O+
