Mass spectrum: 1-(4-chloorfenyl)-4,4-dimethyl-3-(1,2,4-tria-zool-1-ylmethyl)-3-pentanol/tebuconazool; LC-ESI-ITFT; MS2; CE: 65 eV; R=30000; [M+H]+
Name: 1-(4-chloorfenyl)-4,4-dimethyl-3-(1,2,4-tria-zool-1-ylmethyl)-3-pentanol/tebuconazool
Formula: C16H22ClN3O
Exact mass: 307.1451
SMILES: CC(C)(C)C(O)(CCc1ccc(Cl)cc1)Cn2cncn2
InChI: InChI=1S/C16H22ClN3O/c1-15(2,3)16(21,10-20-12-18-11-19-20)9-8-13-4-6-14(17)7-5-13/h4-7,11-12,21H,8-10H2,1-3H3
Instrument: Orbitrap Classic, Thermo Scientific
Instrument type: LC-ESI-ITFT
Ms type: MS2
Ion mode: POSITIVE
Ionization: ESI
Fragmentation mode: CID
Collision energy: 65 eV FT-MS
Resolution: 30000
Column name: XBridge C18 3.5um, 2.1x150mm, Waters
Retention time: 22.159 min
Base peak: 308.1521
Precursor m/z: 308.1524
Precursor type: [M+H]+
m/z	relative intensity	assigned
98.1165	54	CH14N4O+
125.0149	204	C7H6Cl+
139.0306	182	C8H8Cl+
148.0385	53	C3H7ClN5+
151.0307	673	C9H8Cl+
165.0463	460	C10H10Cl+
177.0446	53	C12H5N2+
179.0619	124	C11H12Cl+
181.0776	83	C11H14Cl+
196.1695	82	C12H22NO+
290.1411	999	C16H21ClN3+
