Mass spectrum: caffeine; LC-ESI-ITFT; MS2; CE: 35 eV; R=nominal; [M+H]+
Name: caffeine
Formula: C8H10N4O2
Exact mass: 194.0804
SMILES: Cn1cnc2N(C)C(=O)N(C)C(=O)c12
InChI: InChI=1S/C8H10N4O2/c1-10-4-9-6-5(10)7(13)12(3)8(14)11(6)2/h4H,1-3H3
Instrument: Orbitrap Classic, Thermo Scientific
Instrument type: LC-ESI-ITFT
Ms type: MS2
Ion mode: POSITIVE
Ionization: ESI
Fragmentation mode: CID
Collision energy: 35 eV IT-MS
Resolution: nominal
Column name: XBridge C18 3.5um, 2.1x150mm, Waters
Retention time: 5.873 min
Base peak: 195.0874
Precursor m/z: 195.0877
Precursor type: [M+H]+
m/z	relative intensity	assigned
83.0243	1	C3H3N2O+
138.0067	999	C5H2N2O3+
163.0724	4	C6H7N6+
