Mass spectrum: 1-(4-chloorfenyl)-4,4-dimethyl-3-(1,2,4-tria-zool-1-ylmethyl)-3-pentanol/tebuconazool; LC-ESI-ITFT; MS2; CE: 35 eV; R=30000; [M+H]+
Name: 1-(4-chloorfenyl)-4,4-dimethyl-3-(1,2,4-tria-zool-1-ylmethyl)-3-pentanol/tebuconazool
Formula: C16H22ClN3O
Exact mass: 307.1451
SMILES: CC(C)(C)C(O)(CCc1ccc(Cl)cc1)Cn2cncn2
InChI: InChI=1S/C16H22ClN3O/c1-15(2,3)16(21,10-20-12-18-11-19-20)9-8-13-4-6-14(17)7-5-13/h4-7,11-12,21H,8-10H2,1-3H3
Instrument: Orbitrap Classic, Thermo Scientific
Instrument type: LC-ESI-ITFT
Ms type: MS2
Ion mode: POSITIVE
Ionization: ESI
Fragmentation mode: CID
Collision energy: 35 eV FT-MS II
Resolution: 30000
Column name: XBridge C18 3.5um, 2.1x150mm, Waters
Retention time: 22.159 min
Base peak: 308.1521
Precursor m/z: 308.1524
Precursor type: [M+H]+
m/z	relative intensity	assigned
125.015	152	C7H6Cl+
128.9608	51	C4ClNO2+
139.0306	243	C8H8Cl+
151.0307	539	C9H8Cl+
165.0462	388	C10H10Cl+
179.0618	62	C11H12Cl+
181.0779	57	C11H14Cl+
196.1687	75	C12H22NO+
202.0733	41	C8H13ClN3O+
202.0779	45	C16H10+
262.0989	45	C15H17ClNO+
267.0221	47	C16H8ClO2+
290.1409	999	C16H21ClN3+
