Mass spectrum: (S)-1-Anilino-4-methyl-2-methylthio-4-phenyl-2-imidazolin-5-one; LC-ESI-ITFT; MS2; CE: 65 eV; R=30000; [M+H]+
Name: (S)-1-Anilino-4-methyl-2-methylthio-4-phenyl-2-imidazolin-5-one
Formula: C17H17N3OS
Exact mass: 311.1092
SMILES: CSC1=N[C@](C)(C(=O)N1Nc2ccccc2)c3ccccc3
InChI: InChI=1S/C17H17N3OS/c1-17(13-9-5-3-6-10-13)15(21)20(16(18-17)22-2)19-14-11-7-4-8-12-14/h3-12,19H,1-2H3/t17-/m0/s1
Instrument: Orbitrap Classic, Thermo Scientific
Instrument type: LC-ESI-ITFT
Ms type: MS2
Ion mode: POSITIVE
Ionization: ESI
Fragmentation mode: CID
Collision energy: 65 eV FT-MS
Resolution: 30000
Column name: XBridge C18 3.5um, 2.1x150mm, Waters
Retention time: 21.602 min
Base peak: 312.1158
Precursor m/z: 312.1165
Precursor type: [M+H]+
m/z	relative intensity	assigned
103.0541	61	C8H7+
120.0805	20	C8H10N+
131.0489	1	C9H7O+
143.0273	1	C5H7N2OS+
150.0244	2	C7H6N2S+
161.0708	23	C9H9N2O+
165.0479	143	C8H9N2S+
170.0961	4	C12H12N+
188.0815	3	C10H10N3O+
193.0792	11	C10H13N2S+
194.0962	1	C14H12N+
195.0915	1	C13H11N2+
205.0789	4	C11H13N2S+
211.1226	114	C14H15N2+
219.0585	2	C11H11N2OS+
221.1068	5	C15H13N2+
222.091	39	C15H12NO+
236.1179	999	C15H14N3+
239.1174	335	C15H15N2O+
264.1126	779	C16H14N3O+
265.1204	12	C16H15N3O+
267.0944	105	C16H15N2S+
284.121	7	C16H18N3S+
295.0894	104	C17H15N2OS+
