Mass spectrum: 1,4-dioxacyclohexadecane-5,16-dione; LC-ESI-ITFT; MS2; CE: 35 eV; R=30000; [M+H]+
Name: 1,4-dioxacyclohexadecane-5,16-dione
Formula: C14H24O4
Exact mass: 256.1675
SMILES: O=C(OCCOC(=O)CCCCCCCCC1)C1
InChI: InChI=1S/C14H24O4/c15-13-9-7-5-3-1-2-4-6-8-10-14(16)18-12-11-17-13/h1-12H2
Instrument: Orbitrap Classic, Thermo Scientific
Instrument type: LC-ESI-ITFT
Ms type: MS2
Ion mode: POSITIVE
Ionization: ESI
Fragmentation mode: CID
Collision energy: 35 eV FT-MS II
Resolution: 30000
Column name: XBridge C18 3.5um, 2.1x150mm, Waters
Retention time: 26.137 min
Base peak: 257.1748
Precursor m/z: 257.1747
Precursor type: [M+H]+
m/z	relative intensity	assigned
67.0543	11	C5H7+
69.07	8	C5H9+
73.1015	4	C5H13+
77.0387	6	C6H5+
79.0543	36	C6H7+
81.0699	61	C6H9+
83.0491	4	C5H7O+
83.0856	47	C6H11+
85.0649	5	C5H9O+
91.0543	41	C7H7+
93.07	119	C7H9+
95.0856	46	C7H11+
97.0649	37	C6H9O+
97.1012	12	C7H13+
107.0856	120	C8H11+
109.1012	45	C8H13+
111.0805	68	C7H11O+
115.0754	6	C6H11O2+
117.07	37	C9H9+
119.0856	5	C9H11+
121.1013	120	C9H13+
123.1169	15	C9H15+
125.0963	27	C8H13O+
129.091	6	C7H13O2+
131.0856	25	C10H11+
133.1013	19	C10H13+
135.117	55	C10H15+
147.1169	4	C11H15+
149.1327	999	C11H17+
159.117	199	C12H15+
161.1329	5	C12H17+
167.1432	392	C11H19O+
175.1484	14	C13H19+
177.1275	110	C12H17O+
195.138	77	C12H19O2+
213.1486	197	C12H21O3+
231.1593	9	C12H23O4+
239.1642	97	C14H23O3+
257.1745	9	C14H25O4+
