Mass spectrum: bis(2-ethylhexyl)amine; LC-ESI-ITFT; MS2; CE: 35 eV; R=30000; [M+H]+
Name: bis(2-ethylhexyl)amine
Formula: C16H35N
Exact mass: 241.2770
SMILES: N(CC(CCCC)CC)CC(CCCC)CC
InChI: InChI=1S/C16H35N/c1-5-9-11-15(7-3)13-17-14-16(8-4)12-10-6-2/h15-17H,5-14H2,1-4H3
Instrument: Orbitrap Classic, Thermo Scientific
Instrument type: LC-ESI-ITFT
Ms type: MS2
Ion mode: POSITIVE
Ionization: ESI
Fragmentation mode: CID
Collision energy: 35 eV FT-MS II
Resolution: 30000
Column name: XBridge C18 3.5um, 2.1x150mm, Waters
Retention time: 21.132 min
Base peak: 242.284
Precursor m/z: 242.2842
Precursor type: [M+H]+
m/z	relative intensity	assigned
57.0699	15	C4H9+
71.0855	63	C5H11+
113.1325	8	C8H17+
128.1435	6	C8H18N+
130.159	999	C8H20N+
133.0267	4	C6H3N3O+
136.0052	4	C9N2+
189.2572	9	C13H33+
196.0509	24	C11H6N3O+
208.0179	4	C16H2N+
242.2841	929	C16H36N+
250.0965	4	C15H12N3O+
