Mass spectrum: dibutyladipate; LC-ESI-ITFT; MS2; CE: 35 eV; R=nominal; [M+H]+
Name: dibutyladipate
Formula: C14H26O4
Exact mass: 258.1831
SMILES: CCCCOC(=O)CCCCC(=O)OCCCC
InChI: InChI=1S/C14H26O4/c1-3-5-11-17-13(15)9-7-8-10-14(16)18-12-6-4-2/h3-12H2,1-2H3
Instrument: Orbitrap Classic, Thermo Scientific
Instrument type: LC-ESI-ITFT
Ms type: MS2
Ion mode: POSITIVE
Ionization: ESI
Fragmentation mode: CID
Collision energy: 35 eV IT-MS
Resolution: nominal
Column name: XBridge C18 3.5um, 2.1x150mm, Waters
Retention time: 28.446 min
Base peak: 259.1896
Precursor m/z: 259.1904
Precursor type: [M+H]+
m/z	relative intensity	assigned
101.1321	999	C7H17+
