Mass spectrum: 7-oxabicyclo[4.1.0]hept-3-ylmethyl7-oxabicyclo[4.1.0]heptane-3-carboxylate; LC-ESI-ITFT; MS2; CE: 35 eV; R=7500; [M+H]+
Name: 7-oxabicyclo[4.1.0]hept-3-ylmethyl7-oxabicyclo[4.1.0]heptane-3-carboxylate
Formula: C14H20O4
Exact mass: 252.1362
SMILES: O=C(OCC1CCC2OC2C1)C3CCC4OC4C3
InChI: InChI=1S/C14H20O4/c15-14(9-2-4-11-13(6-9)18-11)16-7-8-1-3-10-12(5-8)17-10/h8-13H,1-7H2
Instrument: Orbitrap Classic, Thermo Scientific
Instrument type: LC-ESI-ITFT
Ms type: MS2
Ion mode: POSITIVE
Ionization: ESI
Fragmentation mode: CID
Collision energy: 35 eV FT-MS
Resolution: 7500
Column name: XBridge C18 3.5um, 2.1x150mm, Waters
Retention time: 14.532 min
Base peak: 253.1431
Precursor m/z: 253.1434
Precursor type: [M+H]+
m/z	relative intensity	assigned
67.0543	33	C5H7+
69.0699	24	C5H9+
77.0386	63	C6H5+
77.1534	7	C2H21O2+
79.0542	331	C6H7+
81.0698	216	C6H9+
83.0854	10	C6H11+
91.0541	121	C7H7+
93.0698	405	C7H9+
97.0647	147	C6H9O+
107.049	348	C7H7O+
111.0803	999	C7H11O+
125.0596	868	C7H9O2+
129.0908	50	C7H13O2+
143.0702	578	C7H11O3+
171.1168	56	C13H15+
203.0586	7	C11H9NO3+
217.1221	59	C14H17O2+
235.1325	256	C14H19O3+
