Mass spectrum: 2`,6`-difluoro-5-methyl[1,2,4]triazolo[1,5-a]pyrimidine-2-sulfoanilide; LC-ESI-ITFT; MS2; CE: 35 eV; R=7500; [M+H]+
Name: 2`,6`-difluoro-5-methyl[1,2,4]triazolo[1,5-a]pyrimidine-2-sulfoanilide
Formula: C12H9F2N5O2S
Exact mass: 325.0445
SMILES: N1(C=C2)N=C(N=C1N=C2C)S(=O)(NC(=C(F)C=C1)C(F)=C1)=O
InChI: InChI=1S/C12H9F2N5O2S/c1-7-5-6-19-11(15-7)16-12(17-19)22(20,21)18-10-8(13)3-2-4-9(10)14/h2-6,18H,1H3
Instrument: Orbitrap Classic, Thermo Scientific
Instrument type: LC-ESI-ITFT
Ms type: MS2
Ion mode: POSITIVE
Ionization: ESI
Fragmentation mode: CID
Collision energy: 35 eV FT-MS
Resolution: 7500
Column name: XBridge C18 3.5um, 2.1x150mm, Waters
Retention time: 11.526 min
Base peak: 326.0512
Precursor m/z: 326.0518
Precursor type: [M+H]+
m/z	relative intensity	assigned
108.0245	11	C6H3FN+
128.0304	261	C6H4F2N+
129.0383	546	C6H5F2N+
134.0589	11	C6H6N4+
135.0658	18	CH6FN7+
144.0254	268	C6H4F2NO+
145.0333	30	C6H5F2NO+
182.0254	204	C6H6N4OS+
183.0329	32	C6H7N4OS+
191.9921	714	C6H4F2NO2S+
197.0121	56	C6H5N4O2S+
203.0771	7	C4H9N7O3+
242.0832	223	C12H9FN5+
258.0758	16	C12H10N4O3+
262.0891	999	C12H10F2N5+
286.0424	10	C12H7FN6S+
306.0441	39	C12H9FN5O2S+
