Mass spectrum: 2-Acetylacetophenone; LC-ESI-ITFT; MS2; CE: 65 eV; R=30000; [M+H]+
Name: 2-Acetylacetophenone
Formula: C10H10O2
Exact mass: 162.0681
SMILES: CC(=O)c1c(C(=O)C)cccc1
InChI: InChI=1S/C10H10O2/c1-7(11)9-5-3-4-6-10(9)8(2)12/h3-6H,1-2H3
Instrument: Orbitrap Classic, Thermo Scientific
Instrument type: LC-ESI-ITFT
Ms type: MS2
Ion mode: POSITIVE
Ionization: ESI
Fragmentation mode: CID
Collision energy: 65 eV FT-MS
Resolution: 30000
Column name: XBridge C18 3.5um, 2.1x150mm, Waters
Retention time: 10.264 min
Base peak: 163.075
Precursor m/z: 163.0754
Precursor type: [M+H]+
m/z	relative intensity	assigned
115.0393	3	C5H7O3+
115.0421	2	C8H5N+
117.0543	1	C5H9O3+
117.0697	4	C9H9+
121.0646	19	C8H9O+
145.0645	999	C10H9O+
