Mass spectrum: 6-methoxy-m-toluidine; LC-ESI-ITFT; MS2; CE: 65 eV; R=30000; [M+H]+
Name: 6-methoxy-m-toluidine
Formula: C8H11NO
Exact mass: 137.0841
SMILES: COc1ccc(C)cc1N
InChI: InChI=1S/C8H11NO/c1-6-3-4-8(10-2)7(9)5-6/h3-5H,9H2,1-2H3
Instrument: Orbitrap Classic, Thermo Scientific
Instrument type: LC-ESI-ITFT
Ms type: MS2
Ion mode: POSITIVE
Ionization: ESI
Fragmentation mode: CID
Collision energy: 65 eV FT-MS
Resolution: 30000
Column name: XBridge C18 3.5um, 2.1x150mm, Waters
Retention time: 5.153 min
Base peak: 138.0912
Precursor m/z: 138.0913
Precursor type: [M+H]+
m/z	relative intensity	assigned
77.0583	2	CH7N3O+
106.0649	19	C7H8N+
121.0646	6	C8H9O+
122.0598	9	C7H8NO+
123.0675	999	C7H9NO+
