Mass spectrum: Metoprolol; LC-ESI-ITFT; MS2; CE: 35 eV; R=7500; [M+H]+
Name: Metoprolol
Formula: C15H25NO3
Exact mass: 267.1834
SMILES: COCCc1ccc(OCC(O)CNC(C)C)cc1
InChI: InChI=1S/C15H25NO3/c1-12(2)16-10-14(17)11-19-15-6-4-13(5-7-15)8-9-18-3/h4-7,12,14,16-17H,8-11H2,1-3H3
Instrument: Orbitrap Classic, Thermo Scientific
Instrument type: LC-ESI-ITFT
Ms type: MS2
Ion mode: POSITIVE
Ionization: ESI
Fragmentation mode: CID
Collision energy: 35 eV FT-MS
Resolution: 7500
Column name: XBridge C18 3.5um, 2.1x150mm, Waters
Retention time: 8.915 min
Base peak: 268.1903
Precursor m/z: 268.1907
Precursor type: [M+H]+
m/z	relative intensity	assigned
74.06	14	C3H8NO+
98.0963	96	C6H12N+
116.1069	583	C6H14NO+
121.0648	106	C8H9O+
133.0648	58	C9H9O+
147.0811	10	C10H11O+
159.0804	276	C11H11O+
161.0962	72	C11H13O+
163.1124	23	C11H15O+
165.0911	30	C10H13O2+
176.107	161	C11H14NO+
177.091	75	C11H13O2+
191.1065	999	C12H15O2+
194.1173	125	C11H16NO2+
218.1539	544	C14H20NO+
226.1434	326	C12H20NO3+
233.1525	16	C15H21O2+
250.18	194	C15H24NO2+
268.1903	132	C15H26NO3+
