Mass spectrum: p-phenetidine; LC-ESI-ITFT; MS2; CE: 65 eV; R=30000; [M+H]+
Name: p-phenetidine
Formula: C8H11NO
Exact mass: 137.0841
SMILES: CCOc1ccc(N)cc1
InChI: InChI=1S/C8H11NO/c1-2-10-8-5-3-7(9)4-6-8/h3-6H,2,9H2,1H3
Instrument: Orbitrap Classic, Thermo Scientific
Instrument type: LC-ESI-ITFT
Ms type: MS2
Ion mode: POSITIVE
Ionization: ESI
Fragmentation mode: CID
Collision energy: 65 eV FT-MS
Resolution: 30000
Column name: XBridge C18 3.5um, 2.1x150mm, Waters
Retention time: 4.809 min
Base peak: 138.0911
Precursor m/z: 138.0913
Precursor type: [M+H]+
m/z	relative intensity	assigned
65.0386	3	C5H5+
92.0494	12	C6H6N+
93.0335	3	C6H5O+
93.0572	10	C6H7N+
94.0649	4	C6H8N+
109.0522	3	C6H7NO+
110.06	999	C6H8NO+
121.0524	2	C7H7NO+
