Mass spectrum: p-phenetidine; LC-ESI-ITFT; MS2; CE: 35 eV; R=nominal; [M+H]+
Name: p-phenetidine
Formula: C8H11NO
Exact mass: 137.0841
SMILES: CCOc1ccc(N)cc1
InChI: InChI=1S/C8H11NO/c1-2-10-8-5-3-7(9)4-6-8/h3-6H,2,9H2,1H3
Instrument: Orbitrap Classic, Thermo Scientific
Instrument type: LC-ESI-ITFT
Ms type: MS2
Ion mode: POSITIVE
Ionization: ESI
Fragmentation mode: CID
Collision energy: 35 eV IT-MS
Resolution: nominal
Column name: XBridge C18 3.5um, 2.1x150mm, Waters
Retention time: 4.809 min
Base peak: 138.0911
Precursor m/z: 138.0913
Precursor type: [M+H]+
m/z	relative intensity	assigned
94.0651	999	C6H8N+
