Mass spectrum: Valsartan; LC-ESI-ITFT; MS2; CE: 35 eV; R=7500; [M+H]+
Name: Valsartan
Formula: C24H29N5O3
Exact mass: 435.2270
SMILES: CCCCC(=O)N(Cc1ccc(cc1)c2ccccc2c3[nH]nnn3)[C@@H](C(C)C)C(O)=O
InChI: InChI=1S/C24H29N5O3/c1-4-5-10-21(30)29(22(16(2)3)24(31)32)15-17-11-13-18(14-12-17)19-8-6-7-9-20(19)23-25-27-28-26-23/h6-9,11-14,16,22H,4-5,10,15H2,1-3H3,(H,31,32)(H,25,26,27,28)/t22-/m0/s1
Instrument: Orbitrap Classic, Thermo Scientific
Instrument type: LC-ESI-ITFT
Ms type: MS2
Ion mode: POSITIVE
Ionization: ESI
Fragmentation mode: CID
Collision energy: 35 eV FT-MS
Resolution: 7500
Column name: XBridge C18 3.5um, 2.1x150mm, Waters
Retention time: 20.120 min
Base peak: 436.2342
Precursor m/z: 436.2343
Precursor type: [M+H]+
m/z	relative intensity	assigned
180.0799	6	C13H10N+
190.0649	7	C14H8N+
191.0779	1	C5H11N4O4+
206.0834	3	C14H10N2+
207.0914	30	C14H11N2+
210.1732	1	C12H22N2O+
235.0977	161	C14H11N4+
291.1491	39	C19H19N2O+
306.1713	224	C18H20N5+
352.1767	49	C19H22N5O2+
353.1769	1	C23H21N4+
362.2224	184	C23H28N3O+
408.2281	434	C24H30N3O3+
418.2233	999	C24H28N5O2+
419.1707	2	C21H21N7O3+
419.2304	17	C24H29N5O2+
