Mass spectrum: tris(2-chloroethyl)phosphate; LC-ESI-ITFT; MS2; CE: 35 eV; R=7500; [M+H]+
Name: tris(2-chloroethyl)phosphate
Formula: C6H12Cl3O4P
Exact mass: 283.9539
SMILES: ClCCO[P](=O)(OCCCl)OCCCl
InChI: InChI=1S/C6H12Cl3O4P/c7-1-4-11-14(10,12-5-2-8)13-6-3-9/h1-6H2
Instrument: Orbitrap Classic, Thermo Scientific
Instrument type: LC-ESI-ITFT
Ms type: MS2
Ion mode: POSITIVE
Ionization: ESI
Fragmentation mode: CID
Collision energy: 35 eV FT-MS
Resolution: 7500
Column name: XBridge C18 3.5um, 2.1x150mm, Waters
Retention time: 16.204 min
Base peak: 284.9613
Precursor m/z: 284.9612
Precursor type: [M+H]+
m/z	relative intensity	assigned
98.9842	21	H4O4P+
124.9999	122	C2H6O4P+
160.9767	99	C3H7Cl2O3+
186.9922	216	C4H9ClO4P+
222.9689	999	C4H10Cl2O4P+
248.9846	21	C6H12Cl2O4P+
