Mass spectrum: Irbesartan; LC-ESI-ITFT; MS2; CE: 35 eV; R=30000; [M+H]+
Name: Irbesartan
Formula: C25H28N6O
Exact mass: 428.2325
SMILES: CCCCC1=NC2(CCCC2)C(=O)N1Cc3ccc(cc3)c4ccccc4c5[nH]nnn5
InChI: InChI=1S/C25H28N6O/c1-2-3-10-22-26-25(15-6-7-16-25)24(32)31(22)17-18-11-13-19(14-12-18)20-8-4-5-9-21(20)23-27-29-30-28-23/h4-5,8-9,11-14H,2-3,6-7,10,15-17H2,1H3,(H,27,28,29,30)
Instrument: Orbitrap Classic, Thermo Scientific
Instrument type: LC-ESI-ITFT
Ms type: MS2
Ion mode: POSITIVE
Ionization: ESI
Fragmentation mode: CID
Collision energy: 35 eV FT-MS II
Resolution: 30000
Column name: XBridge C18 3.5um, 2.1x150mm, Waters
Retention time: 16.137 min
Base peak: 429.24
Precursor m/z: 429.2397
Precursor type: [M+H]+
m/z	relative intensity	assigned
167.1542	3	C10H19N2+
178.065	4	C13H8N+
179.0734	1	C13H9N+
180.0808	14	C13H10N+
190.0652	4	C14H8N+
191.073	1	C14H9N+
192.0682	2	C13H8N2+
195.1492	145	C11H19N2O+
205.0762	3	C14H9N2+
206.0839	22	C14H10N2+
207.0915	999	C14H11N2+
208.0949	12	C9H12N4O2+
318.1597	1	C20H20N3O+
386.2225	90	C25H28N3O+
387.226	1	C18H27N8O2+
401.2333	324	C25H29N4O+
