Mass spectrum: FIPRONIL; LC-ESI-ITFT; MS2; CE: 35 eV; R=nominal; [M+H]+
Name: FIPRONIL
Formula: C12H4Cl2F6N4OS
Exact mass: 435.9387
SMILES: Clc1cc(C(F)(F)F)cc(Cl)c1N2C(N)=C(S(=O)C(F)(F)F)C(C#N)=N2
InChI: InChI=1S/C12H4Cl2F6N4OS/c13-5-1-4(11(15,16)17)2-6(14)8(5)24-10(22)9(7(3-21)23-24)26(25)12(18,19)20/h1-2H,22H2
Instrument: Orbitrap Classic, Thermo Scientific
Instrument type: LC-ESI-ITFT
Ms type: MS2
Ion mode: POSITIVE
Ionization: ESI
Fragmentation mode: CID
Collision energy: 35 eV IT-MS
Resolution: nominal
Column name: XBridge C18 3.5um, 2.1x150mm, Waters
Retention time: 25.630 min
Base peak: 436.9459
Precursor m/z: 436.946
Precursor type: [M+H]+
m/z	relative intensity	assigned
319.9818	2	C12ClF3N6+
351.9703	1	C12HClF6N3O+
367.9248	999	C9H2Cl2F6N3S+
388.9334	1	C12H4Cl2F5N2OS+
418.9423	1	C11H4Cl2F5N5OS+
