Mass spectrum: 7-oxabicyclo[4.1.0]hept-3-ylmethyl7-oxabicyclo[4.1.0]heptane-3-carboxylate; LC-ESI-ITFT; MS2; CE: 35 eV; R=nominal; [M+H]+
Name: 7-oxabicyclo[4.1.0]hept-3-ylmethyl7-oxabicyclo[4.1.0]heptane-3-carboxylate
Formula: C14H20O4
Exact mass: 252.1362
SMILES: O=C(OCC1CCC2OC2C1)C3CCC4OC4C3
InChI: InChI=1S/C14H20O4/c15-14(9-2-4-11-13(6-9)18-11)16-7-8-1-3-10-12(5-8)17-10/h8-13H,1-7H2
Instrument: Orbitrap Classic, Thermo Scientific
Instrument type: LC-ESI-ITFT
Ms type: MS2
Ion mode: POSITIVE
Ionization: ESI
Fragmentation mode: CID
Collision energy: 35 eV IT-MS
Resolution: nominal
Column name: XBridge C18 3.5um, 2.1x150mm, Waters
Retention time: 14.532 min
Base peak: 253.1431
Precursor m/z: 253.1434
Precursor type: [M+H]+
m/z	relative intensity	assigned
79.0266	162	CH5NO3+
107.0575	407	C3H9NO3+
111.0231	999	C9H3+
127.0624	10	C6H9NO2+
129.0916	121	C7H13O2+
181.0882	1	C13H11N+
199.0147	7	C10H3N2O3+
217.1433	33	C11H21O4+
