Mass spectrum: (S)-1-Anilino-4-methyl-2-methylthio-4-phenyl-2-imidazolin-5-one; LC-ESI-ITFT; MS2; CE: 35 eV; R=nominal; [M+H]+
Name: (S)-1-Anilino-4-methyl-2-methylthio-4-phenyl-2-imidazolin-5-one
Formula: C17H17N3OS
Exact mass: 311.1092
SMILES: CSC1=N[C@](C)(C(=O)N1Nc2ccccc2)c3ccccc3
InChI: InChI=1S/C17H17N3OS/c1-17(13-9-5-3-6-10-13)15(21)20(16(18-17)22-2)19-14-11-7-4-8-12-14/h3-12,19H,1-2H3/t17-/m0/s1
Instrument: Orbitrap Classic, Thermo Scientific
Instrument type: LC-ESI-ITFT
Ms type: MS2
Ion mode: POSITIVE
Ionization: ESI
Fragmentation mode: CID
Collision energy: 35 eV IT-MS
Resolution: nominal
Column name: XBridge C18 3.5um, 2.1x150mm, Waters
Retention time: 21.602 min
Base peak: 312.1158
Precursor m/z: 312.1165
Precursor type: [M+H]+
m/z	relative intensity	assigned
131.0926	999	C4H11N4O+
188.0956	120	C6H14N5S+
195.0748	58	C7H9N5O2+
204.0998	3	C10H12N4O+
221.1027	275	C10H13N4O2+
284.0858	262	C15H14N3OS+
