Mass spectrum: N-phenylbenzenesulphonamide; LC-ESI-ITFT; MS2; CE: 35 eV; R=nominal; [M+H]+
Name: N-phenylbenzenesulphonamide
Formula: C12H11NO2S
Exact mass: 233.0510
SMILES: c1ccccc1S(=O)(=O)Nc2ccccc2
InChI: InChI=1S/C12H11NO2S/c14-16(15,12-9-5-2-6-10-12)13-11-7-3-1-4-8-11/h1-10,13H
Instrument: Orbitrap Classic, Thermo Scientific
Instrument type: LC-ESI-ITFT
Ms type: MS2
Ion mode: POSITIVE
Ionization: ESI
Fragmentation mode: CID
Collision energy: 35 eV IT-MS
Resolution: nominal
Column name: XBridge C18 3.5um, 2.1x150mm, Waters
Retention time: 18.830 min
Base peak: 234.058
Precursor m/z: 234.0583
Precursor type: [M+H]+
m/z	relative intensity	assigned
83.0523	1	C2H11OS+
168.0531	999	C7H8N2O3+
198.0581	3	C9H12NO2S+
