Mass spectrum: 1,4-bis(p-tolylamino)anthraquinone; LC-ESI-ITFT; MS2; CE: 35 eV; R=30000; [M+H]+
Name: 1,4-bis(p-tolylamino)anthraquinone
Formula: C28H22N2O2
Exact mass: 418.1681
SMILES: O=C(c(c(C(=O)c1c(Nc(ccc(c2)C)c2)ccc3Nc(ccc(c4)C)c4)ccc5)c5)c13
InChI: InChI=1S/C28H22N2O2/c1-17-7-11-19(12-8-17)29-23-15-16-24(30-20-13-9-18(2)10-14-20)26-25(23)27(31)21-5-3-4-6-22(21)28(26)32/h3-16,29-30H,1-2H3
Instrument: Orbitrap Classic, Thermo Scientific
Instrument type: LC-ESI-ITFT
Ms type: MS2
Ion mode: POSITIVE
Ionization: ESI
Fragmentation mode: CID
Collision energy: 35 eV FT-MS II
Resolution: 30000
Column name: XBridge C18 3.5um, 2.1x150mm, Waters
Retention time: 41.673 min
Base peak: 419.1733
Precursor m/z: 419.1754
Precursor type: [M+H]+
m/z	relative intensity	assigned
296.1072	2	C21H14NO+
297.0786	1	C20H11NO2+
297.1389	1	C21H17N2+
310.0865	1	C21H12NO2+
311.0943	3	C21H13NO2+
312.1021	21	C21H14NO2+
312.1265	1	C21H16N2O+
313.11	10	C21H15NO2+
327.1131	29	C21H15N2O2+
328.1211	2	C21H16N2O2+
338.1052	11	C22H14N2O2+
339.1129	3	C22H15N2O2+
359.1547	2	C26H19N2+
373.1702	4	C27H21N2+
383.155	1	C28H19N2+
385.1338	1	C27H17N2O+
386.1417	3	C27H18N2O+
389.1654	3	C27H21N2O+
399.1502	2	C28H19N2O+
400.1579	14	C28H20N2O+
401.1657	133	C28H21N2O+
402.1494	1	C28H20NO2+
402.1682	1	C23H22N4O3+
403.1451	11	C27H19N2O2+
404.1531	2	C27H20N2O2+
417.1605	25	C28H21N2O2+
418.1676	999	C28H22N2O2+
