Mass spectrum: 4-Methyl-1H-benzotriazole; LC-ESI-ITFT; MS2; CE: 35 eV; R=7500; [M+H]+
Name: 4-Methyl-1H-benzotriazole
Formula: C7H7N3
Exact mass: 133.0640
SMILES: Cc1cccc2n[nH]nc12
InChI: InChI=1S/C7H7N3/c1-5-3-2-4-6-7(5)9-10-8-6/h2-4H,1H3,(H,8,9,10)
Instrument: Orbitrap Classic, Thermo Scientific
Instrument type: LC-ESI-ITFT
Ms type: MS2
Ion mode: POSITIVE
Ionization: ESI
Fragmentation mode: CID
Collision energy: 35 eV FT-MS
Resolution: 7500
Column name: XBridge C18 3.5um, 2.1x150mm, Waters
Retention time: 9.604 min
Base peak: 134.071
Precursor m/z: 134.0713
Precursor type: [M+H]+
m/z	relative intensity	assigned
79.054	5	C6H7+
106.0648	15	C7H8N+
134.071	999	C7H8N3+
