Mass spectrum: N-phenylbenzenesulphonamide; LC-ESI-ITFT; MS2; CE: 65 eV; R=30000; [M+H]+
Name: N-phenylbenzenesulphonamide
Formula: C12H11NO2S
Exact mass: 233.0510
SMILES: c1ccccc1S(=O)(=O)Nc2ccccc2
InChI: InChI=1S/C12H11NO2S/c14-16(15,12-9-5-2-6-10-12)13-11-7-3-1-4-8-11/h1-10,13H
Instrument: Orbitrap Classic, Thermo Scientific
Instrument type: LC-ESI-ITFT
Ms type: MS2
Ion mode: POSITIVE
Ionization: ESI
Fragmentation mode: CID
Collision energy: 65 eV FT-MS
Resolution: 30000
Column name: XBridge C18 3.5um, 2.1x150mm, Waters
Retention time: 18.830 min
Base peak: 234.058
Precursor m/z: 234.0583
Precursor type: [M+H]+
m/z	relative intensity	assigned
92.0495	6	C6H6N+
93.0572	999	C6H7N+
108.0443	167	C6H6NO+
109.052	196	C6H7NO+
156.0112	19	C6H6NO2S+
168.0809	3	C12H10N+
169.0839	50	C7H11N3O2+
170.0918	12	C7H12N3O2+
193.0306	2	C8H7N3OS+
