Mass spectrum: p-phenetidine; LC-ESI-ITFT; MS2; CE: 35 eV; R=30000; [M+H]+
Name: p-phenetidine
Formula: C8H11NO
Exact mass: 137.0841
SMILES: CCOc1ccc(N)cc1
InChI: InChI=1S/C8H11NO/c1-2-10-8-5-3-7(9)4-6-8/h3-6H,2,9H2,1H3
Instrument: Orbitrap Classic, Thermo Scientific
Instrument type: LC-ESI-ITFT
Ms type: MS2
Ion mode: POSITIVE
Ionization: ESI
Fragmentation mode: CID
Collision energy: 35 eV FT-MS II
Resolution: 30000
Column name: XBridge C18 3.5um, 2.1x150mm, Waters
Retention time: 4.809 min
Base peak: 138.0911
Precursor m/z: 138.0913
Precursor type: [M+H]+
m/z	relative intensity	assigned
65.0386	1	C5H5+
71.0114	1	CHN3O+
92.0495	5	C6H6N+
93.0334	1	C6H5O+
93.0573	2	C6H7N+
94.0651	4	C6H8N+
109.052	1	C6H7NO+
110.0599	356	C6H8NO+
138.0912	999	C8H12NO+
