Mass spectrum: Valsartan; LC-ESI-ITFT; MS2; CE: 65 eV; R=30000; [M+H]+
Name: Valsartan
Formula: C24H29N5O3
Exact mass: 435.2270
SMILES: CCCCC(=O)N(Cc1ccc(cc1)c2ccccc2c3[nH]nnn3)[C@@H](C(C)C)C(O)=O
InChI: InChI=1S/C24H29N5O3/c1-4-5-10-21(30)29(22(16(2)3)24(31)32)15-17-11-13-18(14-12-17)19-8-6-7-9-20(19)23-25-27-28-26-23/h6-9,11-14,16,22H,4-5,10,15H2,1-3H3,(H,31,32)(H,25,26,27,28)/t22-/m0/s1
Instrument: Orbitrap Classic, Thermo Scientific
Instrument type: LC-ESI-ITFT
Ms type: MS2
Ion mode: POSITIVE
Ionization: ESI
Fragmentation mode: CID
Collision energy: 65 eV FT-MS
Resolution: 30000
Column name: XBridge C18 3.5um, 2.1x150mm, Waters
Retention time: 20.120 min
Base peak: 436.2342
Precursor m/z: 436.2343
Precursor type: [M+H]+
m/z	relative intensity	assigned
153.0699	2	C12H9+
159.0964	1	CH13N5O4+
178.0778	1	C14H10+
180.0806	7	C13H10N+
187.0932	1	C5H11N6O2+
189.2181	1	C7H29N2O3+
189.2317	2	C11H29N2+
190.065	14	C14H8N+
191.0726	1	C14H9N+
192.0683	2	C13H8N2+
206.0838	4	C14H10N2+
207.0916	45	C14H11N2+
235.0977	174	C14H11N4+
236.1011	2	C9H12N6O2+
291.149	81	C19H19N2O+
291.9932	1	C23O+
306.1711	254	C18H20N5+
307.1742	2	C13H21N7O2+
352.1768	66	C19H22N5O2+
353.1796	1	C14H23N7O4+
362.2225	305	C23H28N3O+
363.2258	3	C18H29N5O3+
390.2289	3	C23H28N5O+
408.2282	439	C24H30N3O3+
418.2234	999	C24H28N5O2+
419.2271	18	C19H29N7O4+
