Mass spectrum: 2`,6`-difluoro-5-methyl[1,2,4]triazolo[1,5-a]pyrimidine-2-sulfoanilide; LC-ESI-ITFT; MS2; CE: 35 eV; R=30000; [M+H]+
Name: 2`,6`-difluoro-5-methyl[1,2,4]triazolo[1,5-a]pyrimidine-2-sulfoanilide
Formula: C12H9F2N5O2S
Exact mass: 325.0445
SMILES: N1(C=C2)N=C(N=C1N=C2C)S(=O)(NC(=C(F)C=C1)C(F)=C1)=O
InChI: InChI=1S/C12H9F2N5O2S/c1-7-5-6-19-11(15-7)16-12(17-19)22(20,21)18-10-8(13)3-2-4-9(10)14/h2-6,18H,1H3
Instrument: Orbitrap Classic, Thermo Scientific
Instrument type: LC-ESI-ITFT
Ms type: MS2
Ion mode: POSITIVE
Ionization: ESI
Fragmentation mode: CID
Collision energy: 35 eV FT-MS II
Resolution: 30000
Column name: XBridge C18 3.5um, 2.1x150mm, Waters
Retention time: 11.526 min
Base peak: 326.0512
Precursor m/z: 326.0518
Precursor type: [M+H]+
m/z	relative intensity	assigned
108.0243	12	CH2F2N4+
128.0305	242	C6H4F2N+
129.0383	564	C6H5F2N+
133.0487	5	C6H10FS+
134.0585	8	C6H6N4+
135.0662	15	C6H7N4+
144.0254	313	C6H4F2NO+
145.0331	31	C6H5F2NO+
153.0226	8	C5H5N4S+
182.0254	217	C6H6N4OS+
183.0331	50	C6H7N4OS+
191.9922	794	C6H4F2NO2S+
197.0124	48	C6H5N4O2S+
200.0614	5	C11H7FN3+
215.0229	11	C12HN5+
242.0832	250	C12H9FN5+
258.0776	8	C12H9FN5O+
262.0893	999	C12H10F2N5+
286.0382	8	C12H8N5O2S+
306.0451	42	C12H9FN5O2S+
308.04	5	C12H8F2N5OS+
326.0509	6	C12H10F2N5O2S+
