Mass spectrum: N-phenylbenzenesulphonamide; LC-ESI-ITFT; MS2; CE: 35 eV; R=30000; [M+H]+
Name: N-phenylbenzenesulphonamide
Formula: C12H11NO2S
Exact mass: 233.0510
SMILES: c1ccccc1S(=O)(=O)Nc2ccccc2
InChI: InChI=1S/C12H11NO2S/c14-16(15,12-9-5-2-6-10-12)13-11-7-3-1-4-8-11/h1-10,13H
Instrument: Orbitrap Classic, Thermo Scientific
Instrument type: LC-ESI-ITFT
Ms type: MS2
Ion mode: POSITIVE
Ionization: ESI
Fragmentation mode: CID
Collision energy: 35 eV FT-MS II
Resolution: 30000
Column name: XBridge C18 3.5um, 2.1x150mm, Waters
Retention time: 18.830 min
Base peak: 234.058
Precursor m/z: 234.0583
Precursor type: [M+H]+
m/z	relative intensity	assigned
92.0495	5	C6H6N+
93.0572	999	C6H7N+
108.0443	150	C6H6NO+
109.0521	192	C6H7NO+
141	1	C6H5O2S+
152.9634	1	C6HO3S+
156.0113	18	C6H6NO2S+
168.0807	1	C12H10N+
169.084	41	C7H11N3O2+
170.0918	10	C7H12N3O2+
192.9736	1	C12HOS+
234.058	136	C12H12NO2S+
