Mass spectrum: N-(1,1-dimethyl-3-oxobutyl)acrylamide; LC-ESI-ITFT; MS2; CE: 35 eV; R=7500; [M+H]+
Name: N-(1,1-dimethyl-3-oxobutyl)acrylamide
Formula: C9H15NO2
Exact mass: 169.1103
SMILES: CC(=O)CC(C)(C)NC(=O)C=C
InChI: InChI=1S/C9H15NO2/c1-5-8(12)10-9(3,4)6-7(2)11/h5H,1,6H2,2-4H3,(H,10,12)
Instrument: Orbitrap Classic, Thermo Scientific
Instrument type: LC-ESI-ITFT
Ms type: MS2
Ion mode: POSITIVE
Ionization: ESI
Fragmentation mode: CID
Collision energy: 35 eV FT-MS
Resolution: 7500
Column name: XBridge C18 3.5um, 2.1x150mm, Waters
Retention time: 6.765 min
Base peak: 170.1172
Precursor m/z: 170.1176
Precursor type: [M+H]+
m/z	relative intensity	assigned
55.0178	16	C3H3O+
58.0651	118	C3H8N+
72.0442	103	C3H6NO+
81.0697	4	C6H9+
99.0802	999	C6H11O+
112.0753	79	C6H10NO+
170.1171	61	C9H16NO2+
