Mass spectrum: Imazamethabenz-methyl; LC-ESI-ITFT; MS2; CE: 35 eV; R=nominal; [M+H]+
Name: Imazamethabenz-methyl
Formula: C16H20N2O3
Exact mass: 288.1474
SMILES: COC(=O)c1ccc(C)cc1C2=NC(=O)C(C)(N2)C(C)C
InChI: InChI=1S/C16H20N2O3/c1-9(2)16(4)15(20)17-13(18-16)12-8-10(3)6-7-11(12)14(19)21-5/h6-9H,1-5H3,(H,17,18,20)
Instrument: Orbitrap Classic, Thermo Scientific
Instrument type: LC-ESI-ITFT
Ms type: MS2
Ion mode: POSITIVE
Ionization: ESI
Fragmentation mode: CID
Collision energy: 35 eV IT-MS
Resolution: nominal
Column name: XBridge C18 3.5um, 2.1x150mm, Waters
Retention time: 11.605 min
Base peak: 289.1548
Precursor m/z: 289.1547
Precursor type: [M+H]+
m/z	relative intensity	assigned
187.0287	3	C13H3N2+
215.1418	147	C13H17N3+
230.1056	2	C13H14N2O2+
261.0875	999	C13H13N2O4+
