Mass spectrum: Irbesartan; LC-ESI-ITFT; MS2; CE: 65 eV; R=30000; [M+H]+
Name: Irbesartan
Formula: C25H28N6O
Exact mass: 428.2325
SMILES: CCCCC1=NC2(CCCC2)C(=O)N1Cc3ccc(cc3)c4ccccc4c5[nH]nnn5
InChI: InChI=1S/C25H28N6O/c1-2-3-10-22-26-25(15-6-7-16-25)24(32)31(22)17-18-11-13-19(14-12-18)20-8-4-5-9-21(20)23-27-29-30-28-23/h4-5,8-9,11-14H,2-3,6-7,10,15-17H2,1H3,(H,27,28,29,30)
Instrument: Orbitrap Classic, Thermo Scientific
Instrument type: LC-ESI-ITFT
Ms type: MS2
Ion mode: POSITIVE
Ionization: ESI
Fragmentation mode: CID
Collision energy: 65 eV FT-MS
Resolution: 30000
Column name: XBridge C18 3.5um, 2.1x150mm, Waters
Retention time: 16.137 min
Base peak: 429.24
Precursor m/z: 429.2397
Precursor type: [M+H]+
m/z	relative intensity	assigned
167.1543	4	C10H19N2+
178.0652	4	C13H8N+
179.073	2	C13H9N+
180.0807	22	C13H10N+
189.2218	1	C12H29O+
190.0652	4	C14H8N+
191.073	1	C14H9N+
192.0679	2	C13H8N2+
195.1492	154	C11H19N2O+
196.0762	1	C13H10NO+
205.076	6	C14H9N2+
206.0839	24	C14H10N2+
207.0916	999	C14H11N2+
208.095	1	C9H12N4O2+
318.1593	1	C18H18N6+
372.2201	1	C25H28N2O+
386.2226	95	C25H28N3O+
401.2334	239	C25H29N4O+
