Mass spectrum: Imazamethabenz-methyl; LC-ESI-ITFT; MS2; CE: 65 eV; R=30000; [M+H]+
Name: Imazamethabenz-methyl
Formula: C16H20N2O3
Exact mass: 288.1474
SMILES: COC(=O)c1ccc(C)cc1C2=NC(=O)C(C)(N2)C(C)C
InChI: InChI=1S/C16H20N2O3/c1-9(2)16(4)15(20)17-13(18-16)12-8-10(3)6-7-11(12)14(19)21-5/h6-9H,1-5H3,(H,17,18,20)
Instrument: Orbitrap Classic, Thermo Scientific
Instrument type: LC-ESI-ITFT
Ms type: MS2
Ion mode: POSITIVE
Ionization: ESI
Fragmentation mode: CID
Collision energy: 65 eV FT-MS
Resolution: 30000
Column name: XBridge C18 3.5um, 2.1x150mm, Waters
Retention time: 11.605 min
Base peak: 289.1548
Precursor m/z: 289.1547
Precursor type: [M+H]+
m/z	relative intensity	assigned
86.0964	13	C5H12N+
114.0913	4	C6H12NO+
144.0446	1	C9H6NO+
160.0761	1	C10H10NO+
161.071	8	C9H9N2O+
176.0707	12	C10H10NO2+
215.0815	13	C12H11N2O2+
229.1335	240	C14H17N2O+
244.1332	8	C15H18NO2+
247.1077	83	C13H15N2O3+
257.1283	999	C15H17N2O2+
261.1593	201	C15H21N2O2+
