Mass spectrum: 7,8-dimethoxy-1,3-dihydro-2H-3-benzazepin-2-one; LC-ESI-ITFT; MS2; CE: 35 eV; R=30000; [M+H]+
Name: 7,8-dimethoxy-1,3-dihydro-2H-3-benzazepin-2-one
Formula: C12H13NO3
Exact mass: 219.0895
SMILES: COc1cc2CC(=O)NC=Cc2cc1OC
InChI: InChI=1S/C12H13NO3/c1-15-10-5-8-3-4-13-12(14)7-9(8)6-11(10)16-2/h3-6H,7H2,1-2H3,(H,13,14)
Instrument: Orbitrap Classic, Thermo Scientific
Instrument type: LC-ESI-ITFT
Ms type: MS2
Ion mode: POSITIVE
Ionization: ESI
Fragmentation mode: CID
Collision energy: 35 eV FT-MS II
Resolution: 30000
Column name: XBridge C18 3.5um, 2.1x150mm, Waters
Retention time: 10.496 min
Base peak: 220.0965
Precursor m/z: 220.0968
Precursor type: [M+H]+
m/z	relative intensity	assigned
160.0757	4	C10H10NO+
161.0835	32	C10H11NO+
177.0909	1	C11H13O2+
188.0709	2	C11H10NO2+
189.0786	4	C11H11NO2+
192.1017	999	C11H14NO2+
193.0361	1	C9H7NO4+
202.086	1	C12H12NO2+
203.0699	12	C12H11O3+
205.0731	1	C11H11NO3+
220.0965	17	C12H14NO3+
