Mass spectrum: 3,3-pentamethylene-4-butyrolactam; LC-ESI-ITFT; MS2; CE: 35 eV; R=7500; [M+H]+
Name: 3,3-pentamethylene-4-butyrolactam
Formula: C9H15NO
Exact mass: 153.1154
SMILES: O=C1CC2(CCCCC2)CN1
InChI: InChI=1S/C9H15NO/c11-8-6-9(7-10-8)4-2-1-3-5-9/h1-7H2,(H,10,11)
Instrument: Orbitrap Classic, Thermo Scientific
Instrument type: LC-ESI-ITFT
Ms type: MS2
Ion mode: POSITIVE
Ionization: ESI
Fragmentation mode: CID
Collision energy: 35 eV FT-MS
Resolution: 7500
Column name: XBridge C18 3.5um, 2.1x150mm, Waters
Retention time: 11.360 min
Base peak: 154.1226
Precursor m/z: 154.1226
Precursor type: [M+H]+
m/z	relative intensity	assigned
67.054	6	C5H7+
91.0543	10	C7H7+
93.0698	13	C7H9+
95.0854	168	C7H11+
109.1008	19	C8H13+
112.1118	21	C7H14N+
119.0852	30	C9H11+
137.0961	9	C9H13O+
154.1224	999	C9H16NO+
