Mass spectrum: tris(2-chloroethyl)phosphate; LC-ESI-ITFT; MS2; CE: 35 eV; R=nominal; [M+H]+
Name: tris(2-chloroethyl)phosphate
Formula: C6H12Cl3O4P
Exact mass: 283.9539
SMILES: ClCCO[P](=O)(OCCCl)OCCCl
InChI: InChI=1S/C6H12Cl3O4P/c7-1-4-11-14(10,12-5-2-8)13-6-3-9/h1-6H2
Instrument: Orbitrap Classic, Thermo Scientific
Instrument type: LC-ESI-ITFT
Ms type: MS2
Ion mode: POSITIVE
Ionization: ESI
Fragmentation mode: CID
Collision energy: 35 eV IT-MS
Resolution: nominal
Column name: XBridge C18 3.5um, 2.1x150mm, Waters
Retention time: 16.204 min
Base peak: 284.9613
Precursor m/z: 284.9612
Precursor type: [M+H]+
m/z	relative intensity	assigned
160.9913	129	C6H7ClOP+
186.9542	231	C5ClN2O4+
222.8954	999	C3H2Cl3O5+
248.9709	22	C5H10Cl2NO4P+
