Mass spectrum: N-lauroylsarcosine; LC-ESI-ITFT; MS2; CE: 35 eV; R=30000; [M+H]+
Name: N-lauroylsarcosine
Formula: C15H29NO3
Exact mass: 271.2147
SMILES: CCCCCCCCCCCC(=O)N(C)CC(O)=O
InChI: InChI=1S/C15H29NO3/c1-3-4-5-6-7-8-9-10-11-12-14(17)16(2)13-15(18)19/h3-13H2,1-2H3,(H,18,19)
Instrument: Orbitrap Classic, Thermo Scientific
Instrument type: LC-ESI-ITFT
Ms type: MS2
Ion mode: POSITIVE
Ionization: ESI
Fragmentation mode: CID
Collision energy: 35 eV FT-MS II
Resolution: 30000
Column name: XBridge C18 3.5um, 2.1x150mm, Waters
Retention time: 26.193 min
Base peak: 272.222
Precursor m/z: 272.222
Precursor type: [M+H]+
m/z	relative intensity	assigned
90.0547	999	C3H8NO2+
108.0939	6	C8H12+
189.2199	7	C10H27N3+
189.232	10	C11H29N2+
214.1929	5	C13H26O2+
254.2107	89	C15H28NO2+
