Mass spectrum: diethyldiallylmalonate; LC-ESI-ITFT; MS2; CE: 35 eV; R=nominal; [M+H]+
Name: diethyldiallylmalonate
Formula: C13H20O4
Exact mass: 240.1362
SMILES: CCOC(=O)C(C(=O)OCC)(CC=C)CC=C
InChI: InChI=1S/C13H20O4/c1-5-9-13(10-6-2,11(14)16-7-3)12(15)17-8-4/h5-6H,1-2,7-10H2,3-4H3
Instrument: Orbitrap Classic, Thermo Scientific
Instrument type: LC-ESI-ITFT
Ms type: MS2
Ion mode: POSITIVE
Ionization: ESI
Fragmentation mode: CID
Collision energy: 35 eV IT-MS
Resolution: nominal
Column name: XBridge C18 3.5um, 2.1x150mm, Waters
Retention time: 25.698 min
Base peak: 241.143
Precursor m/z: 241.1434
Precursor type: [M+H]+
m/z	relative intensity	assigned
149.0191	83	C3H5N2O5+
177.1119	5	C8H17O4+
184.9877	719	C10HO4+
195.0556	382	C12H7N2O+
213.1028	999	C13H13N2O+
