Mass spectrum: N-Acetylaminoantipyrine; LC-ESI-ITFT; MS2; CE: 35 eV; R=30000; [M+H]+
Name: N-Acetylaminoantipyrine
Formula: C13H15N3O2
Exact mass: 245.1164
SMILES: CN1N(C(=O)C(=C1C)NC(C)=O)c2ccccc2
InChI: InChI=1S/C13H15N3O2/c1-9-12(14-10(2)17)13(18)16(15(9)3)11-7-5-4-6-8-11/h4-8H,1-3H3,(H,14,17)
Instrument: Orbitrap Classic, Thermo Scientific
Instrument type: LC-ESI-ITFT
Ms type: MS2
Ion mode: POSITIVE
Ionization: ESI
Fragmentation mode: CID
Collision energy: 35 eV FT-MS II
Resolution: 30000
Column name: XBridge C18 3.5um, 2.1x150mm, Waters
Retention time: 5.902 min
Base peak: 246.1233
Precursor m/z: 246.1237
Precursor type: [M+H]+
m/z	relative intensity	assigned
137.0714	1	C7H9N2O+
204.1128	158	C11H14N3O+
228.1126	999	C13H14N3O+
