Mass spectrum: 1,2-bis(2-methoxyethoxy)ethane; LC-ESI-ITFT; MS2; CE: 65 eV; R=30000; [M+H]+
Name: 1,2-bis(2-methoxyethoxy)ethane
Formula: C8H18O4
Exact mass: 178.1205
SMILES: COCCOCCOCCOC
InChI: InChI=1S/C8H18O4/c1-9-3-5-11-7-8-12-6-4-10-2/h3-8H2,1-2H3
Instrument: Orbitrap Classic, Thermo Scientific
Instrument type: LC-ESI-ITFT
Ms type: MS2
Ion mode: POSITIVE
Ionization: ESI
Fragmentation mode: CID
Collision energy: 65 eV FT-MS
Resolution: 30000
Column name: XBridge C18 3.5um, 2.1x150mm, Waters
Retention time: 5.883 min
Base peak: 179.1274
Precursor m/z: 179.1278
Precursor type: [M+H]+
m/z	relative intensity	assigned
59.0491	262	C3H7O+
89.0595	36	C4H9O2+
103.0751	999	C5H11O2+
133.0855	93	C6H13O3+
147.1012	127	C7H15O3+
