Mass spectrum: 1,4-bis(p-tolylamino)anthraquinone; LC-ESI-ITFT; MS2; CE: 35 eV; R=nominal; [M+H]+
Name: 1,4-bis(p-tolylamino)anthraquinone
Formula: C28H22N2O2
Exact mass: 418.1681
SMILES: O=C(c(c(C(=O)c1c(Nc(ccc(c2)C)c2)ccc3Nc(ccc(c4)C)c4)ccc5)c5)c13
InChI: InChI=1S/C28H22N2O2/c1-17-7-11-19(12-8-17)29-23-15-16-24(30-20-13-9-18(2)10-14-20)26-25(23)27(31)21-5-3-4-6-22(21)28(26)32/h3-16,29-30H,1-2H3
Instrument: Orbitrap Classic, Thermo Scientific
Instrument type: LC-ESI-ITFT
Ms type: MS2
Ion mode: POSITIVE
Ionization: ESI
Fragmentation mode: CID
Collision energy: 35 eV IT-MS
Resolution: nominal
Column name: XBridge C18 3.5um, 2.1x150mm, Waters
Retention time: 41.673 min
Base peak: 419.1733
Precursor m/z: 419.1754
Precursor type: [M+H]+
m/z	relative intensity	assigned
268.1652	2	C13H22N3O3+
269.1765	1	C18H23NO+
419.1762	999	C28H23N2O2+
