Mass spectrum: 1,3-diethyldiphenylurea; LC-ESI-ITFT; MS2; CE: 35 eV; R=7500; [M+H]+
Name: 1,3-diethyldiphenylurea
Formula: C17H20N2O
Exact mass: 268.1576
SMILES: CCN(C(=O)N(CC)c1ccccc1)c2ccccc2
InChI: InChI=1S/C17H20N2O/c1-3-18(15-11-7-5-8-12-15)17(20)19(4-2)16-13-9-6-10-14-16/h5-14H,3-4H2,1-2H3
Instrument: Orbitrap Classic, Thermo Scientific
Instrument type: LC-ESI-ITFT
Ms type: MS2
Ion mode: POSITIVE
Ionization: ESI
Fragmentation mode: CID
Collision energy: 35 eV FT-MS
Resolution: 7500
Column name: XBridge C18 3.5um, 2.1x150mm, Waters
Retention time: 23.996 min
Base peak: 269.1648
Precursor m/z: 269.1648
Precursor type: [M+H]+
m/z	relative intensity	assigned
92.0495	14	C6H6N+
120.0443	475	C7H6NO+
148.0758	999	C9H10NO+
152.1051	1	C7H12N4+
