Mass spectrum: 1H-Benzotriazole; LC-ESI-ITFT; MS2; CE: 65 eV; R=30000; [M+H]+
Name: 1H-Benzotriazole
Formula: C6H5N3
Exact mass: 119.0483
SMILES: N1=NNC(C=CC2)=C1C=2
InChI: InChI=1S/C6H5N3/c1-2-4-6-5(3-1)7-9-8-6/h1-4H,(H,7,8,9)
Instrument: Orbitrap Classic, Thermo Scientific
Instrument type: LC-ESI-ITFT
Ms type: MS2
Ion mode: POSITIVE
Ionization: ESI
Fragmentation mode: CID
Collision energy: 65 eV FT-MS
Resolution: 30000
Column name: XBridge C18 3.5um, 2.1x150mm, Waters
Retention time: 7.124 min
Base peak: 120.0554
Precursor m/z: 120.0556
Precursor type: [M+H]+
m/z	relative intensity	assigned
92.0494	999	C6H6N+
127.0485	429	C3H5N5O+
