Mass spectrum: 3,9-dicyclohex-3-enyl-2,4,8,10-tetraoxaspiro[5.5]undecane; LC-ESI-ITFT; MS2; CE: 65 eV; R=30000; [M+H]+
Name: 3,9-dicyclohex-3-enyl-2,4,8,10-tetraoxaspiro[5.5]undecane
Formula: C19H28O4
Exact mass: 320.1988
SMILES: C1CC(CC=C1)C2OCC3(CO2)COC(OC3)C4CCC=CC4
InChI: InChI=1S/C19H28O4/c1-3-7-15(8-4-1)17-20-11-19(12-21-17)13-22-18(23-14-19)16-9-5-2-6-10-16/h1-3,5,15-18H,4,6-14H2
Instrument: Orbitrap Classic, Thermo Scientific
Instrument type: LC-ESI-ITFT
Ms type: MS2
Ion mode: POSITIVE
Ionization: ESI
Fragmentation mode: CID
Collision energy: 65 eV FT-MS
Resolution: 30000
Column name: XBridge C18 3.5um, 2.1x150mm, Waters
Retention time: 32.567 min
Base peak: 321.2055
Precursor m/z: 321.206
Precursor type: [M+H]+
m/z	relative intensity	assigned
81.0698	22	C6H9+
95.0855	3	C7H11+
105.0698	3	C8H9+
109.0647	2	C7H9O+
127.0752	4	C7H11O2+
133.101	10	C10H13+
134.0243	1	C7H4NO2+
135.1169	2	C10H15+
147.1168	4	C11H15+
159.1166	2	C12H15+
163.1117	2	C11H15O+
175.148	13	C13H19+
179.1064	35	C11H15O2+
181.1221	2	C11H17O2+
185.1322	8	C14H17+
191.1065	3	C12H15O2+
197.1171	4	C11H17O3+
203.1429	9	C14H19O+
209.117	12	C12H17O3+
211.1326	999	C12H19O3+
227.1274	11	C12H19O4+
285.1852	2	C19H25O2+
303.1952	23	C19H27O3+
317.2082	1	C15H29N2O5+
