Mass spectrum: Oxazepam; LC-ESI-ITFT; MS2; CE: 35 eV; R=30000; [M+H]+
Name: Oxazepam
Formula: C15H11ClN2O2
Exact mass: 286.0509
SMILES: OC1N=C(c2ccccc2)c3cc(Cl)ccc3NC1=O
InChI: InChI=1S/C15H11ClN2O2/c16-10-6-7-12-11(8-10)13(9-4-2-1-3-5-9)18-15(20)14(19)17-12/h1-8,15,20H,(H,17,19)
Instrument: Orbitrap Classic, Thermo Scientific
Instrument type: LC-ESI-ITFT
Ms type: MS2
Ion mode: POSITIVE
Ionization: ESI
Fragmentation mode: CID
Collision energy: 35 eV FT-MS II
Resolution: 30000
Column name: XBridge C18 3.5um, 2.1x150mm, Waters
Retention time: 15.688 min
Base peak: 287.0578
Precursor m/z: 287.0582
Precursor type: [M+H]+
m/z	relative intensity	assigned
241.0286	2	C14H8ClNO+
241.0526	28	C14H10ClN2+
269.0475	999	C15H10ClN2O+
