Mass spectrum: Aminodiphenylsulfone; LC-ESI-ITFT; MS2; CE: 35 eV; R=7500; [M+H]+
Name: Aminodiphenylsulfone
Formula: C12H11NO2S
Exact mass: 233.0510
SMILES: Nc1c(S(=O)(=O)c2ccccc2)cccc1
InChI: InChI=1S/C12H11NO2S/c13-11-8-4-5-9-12(11)16(14,15)10-6-2-1-3-7-10/h1-9H,13H2
Instrument: Orbitrap Classic, Thermo Scientific
Instrument type: LC-ESI-ITFT
Ms type: MS2
Ion mode: POSITIVE
Ionization: ESI
Fragmentation mode: CID
Collision energy: 35 eV FT-MS
Resolution: 7500
Column name: XBridge C18 3.5um, 2.1x150mm, Waters
Retention time: 17.855 min
Base peak: 234.0582
Precursor m/z: 234.0583
Precursor type: [M+H]+
m/z	relative intensity	assigned
65.0384	9	C5H5+
80.0492	2	C5H6N+
92.0493	493	C6H6N+
108.0442	262	C6H6NO+
156.0111	999	C6H6NO2S+
174.0216	55	C6H8NO3S+
