Mass spectrum: CARBOFURAN; LC-ESI-ITFT; MS2; CE: 35 eV; R=7500; [M+H]+
Name: CARBOFURAN
Formula: C12H15NO3
Exact mass: 221.1052
SMILES: CNC(=O)Oc1cccc2CC(C)(C)Oc12
InChI: InChI=1S/C12H15NO3/c1-12(2)7-8-5-4-6-9(10(8)16-12)15-11(14)13-3/h4-6H,7H2,1-3H3,(H,13,14)
Instrument: Orbitrap Classic, Thermo Scientific
Instrument type: LC-ESI-ITFT
Ms type: MS2
Ion mode: POSITIVE
Ionization: ESI
Fragmentation mode: CID
Collision energy: 35 eV FT-MS
Resolution: 7500
Column name: XBridge C18 3.5um, 2.1x150mm, Waters
Retention time: 15.352 min
Base peak: 222.1123
Precursor m/z: 222.1125
Precursor type: [M+H]+
m/z	relative intensity	assigned
123.0441	30	C7H7O2+
137.0596	1	C8H9O2+
147.0803	1	C10H11O+
159.1023	1	C8H15O3+
165.091	999	C10H13O2+
222.1125	13	C12H16NO3+
