Mass spectrum: 1,2-Benzisothiazol-3(2H)-one; LC-ESI-ITFT; MS2; CE: 35 eV; R=30000; [M+H]+
Name: 1,2-Benzisothiazol-3(2H)-one
Formula: C7H5NOS
Exact mass: 151.0092
SMILES: S1NC(C(C1=CC1)=CC=1)=O
InChI: InChI=1S/C7H5NOS/c9-7-5-3-1-2-4-6(5)10-8-7/h1-4H,(H,8,9)
Instrument: Orbitrap Classic, Thermo Scientific
Instrument type: LC-ESI-ITFT
Ms type: MS2
Ion mode: POSITIVE
Ionization: ESI
Fragmentation mode: CID
Collision energy: 35 eV FT-MS II
Resolution: 30000
Column name: XBridge C18 3.5um, 2.1x150mm, Waters
Retention time: 8.294 min
Base peak: 152.0163
Precursor m/z: 152.0165
Precursor type: [M+H]+
m/z	relative intensity	assigned
109.0106	11	C6H5S+
134.0057	2	C7H4NS+
152.0164	999	C7H6NOS+
