Mass spectrum: cyclic3-(1,2-ethanediylacetale)-estra-5(10),9(11)-diene-3,17-dione; LC-ESI-ITFT; MS2; CE: 35 eV; R=7500; [M+H]+
Name: cyclic3-(1,2-ethanediylacetale)-estra-5(10),9(11)-diene-3,17-dione
Formula: C20H26O3
Exact mass: 314.1882
SMILES: C[C@]12CC=C3[C@@H](CCC4=C3CCC5(C4)OCCO5)[C@@H]1CCC2=O
InChI: InChI=1S/C20H26O3/c1-19-8-6-15-14-7-9-20(22-10-11-23-20)12-13(14)2-3-16(15)17(19)4-5-18(19)21/h6,16-17H,2-5,7-12H2,1H3/t16-,17+,19+/m1/s1
Instrument: Orbitrap Classic, Thermo Scientific
Instrument type: LC-ESI-ITFT
Ms type: MS2
Ion mode: POSITIVE
Ionization: ESI
Fragmentation mode: CID
Collision energy: 35 eV FT-MS
Resolution: 7500
Column name: XBridge C18 3.5um, 2.1x150mm, Waters
Retention time: 23.221 min
Base peak: 315.1949
Precursor m/z: 315.1955
Precursor type: [M+H]+
m/z	relative intensity	assigned
99.044	35	C5H7O2+
157.1014	6	C12H13+
175.1123	8	C12H15O+
181.1015	2	C14H13+
183.1172	3	C14H15+
193.1011	9	C15H13+
195.1168	20	C15H15+
197.0959	15	C14H13O+
197.1327	3	C15H17+
201.0911	1	C13H13O2+
209.1325	8	C16H17+
211.1111	9	C15H15O+
211.1482	10	C16H19+
213.1276	6	C15H17O+
219.1376	23	C14H19O2+
225.1637	8	C17H21+
229.1591	9	C16H21O+
235.148	101	C18H19+
236.1515	4	C13H20N2O2+
237.164	18	C18H21+
241.1221	7	C16H17O2+
243.1749	2	C17H23O+
253.1586	538	C18H21O+
254.162	24	C13H22N2O3+
255.1375	15	C17H19O2+
255.1743	21	C18H23O+
271.169	687	C18H23O2+
272.1721	38	C13H24N2O4+
297.1845	999	C20H25O2+
298.188	50	C15H26N2O4+
