Mass spectrum: 7,8-dimethoxy-1,3-dihydro-2H-3-benzazepin-2-one; LC-ESI-ITFT; MS2; CE: 65 eV; R=30000; [M+H]+
Name: 7,8-dimethoxy-1,3-dihydro-2H-3-benzazepin-2-one
Formula: C12H13NO3
Exact mass: 219.0895
SMILES: COc1cc2CC(=O)NC=Cc2cc1OC
InChI: InChI=1S/C12H13NO3/c1-15-10-5-8-3-4-13-12(14)7-9(8)6-11(10)16-2/h3-6H,7H2,1-2H3,(H,13,14)
Instrument: Orbitrap Classic, Thermo Scientific
Instrument type: LC-ESI-ITFT
Ms type: MS2
Ion mode: POSITIVE
Ionization: ESI
Fragmentation mode: CID
Collision energy: 65 eV FT-MS
Resolution: 30000
Column name: XBridge C18 3.5um, 2.1x150mm, Waters
Retention time: 10.496 min
Base peak: 220.0965
Precursor m/z: 220.0968
Precursor type: [M+H]+
m/z	relative intensity	assigned
160.0757	2	C10H10NO+
161.058	1	C8H7N3O+
161.0834	26	C10H11NO+
188.07	2	C11H10NO2+
189.0784	4	C11H11NO2+
192.1017	999	C11H14NO2+
193.036	2	C9H7NO4+
203.0699	13	C12H11O3+
205.0731	1	C11H11NO3+
