Mass spectrum: N-(n-octyl)-2-pyrrolidinone; LC-ESI-ITFT; MS2; CE: 35 eV; R=nominal; [M+H]+
Name: N-(n-octyl)-2-pyrrolidinone
Formula: C12H23NO
Exact mass: 197.1780
SMILES: CCCCCCCCN1CCCC1=O
InChI: InChI=1S/C12H23NO/c1-2-3-4-5-6-7-10-13-11-8-9-12(13)14/h2-11H2,1H3
Instrument: Orbitrap Classic, Thermo Scientific
Instrument type: LC-ESI-ITFT
Ms type: MS2
Ion mode: POSITIVE
Ionization: ESI
Fragmentation mode: CID
Collision energy: 35 eV IT-MS
Resolution: nominal
Column name: XBridge C18 3.5um, 2.1x150mm, Waters
Retention time: 21.872 min
Base peak: 198.1849
Precursor m/z: 198.1852
Precursor type: [M+H]+
m/z	relative intensity	assigned
156.1384	999	C9H18NO+
