Mass spectrum: N-phenylbenzenesulphonamide; LC-ESI-ITFT; MS2; CE: 35 eV; R=7500; [M+H]+
Name: N-phenylbenzenesulphonamide
Formula: C12H11NO2S
Exact mass: 233.0510
SMILES: c1ccccc1S(=O)(=O)Nc2ccccc2
InChI: InChI=1S/C12H11NO2S/c14-16(15,12-9-5-2-6-10-12)13-11-7-3-1-4-8-11/h1-10,13H
Instrument: Orbitrap Classic, Thermo Scientific
Instrument type: LC-ESI-ITFT
Ms type: MS2
Ion mode: POSITIVE
Ionization: ESI
Fragmentation mode: CID
Collision energy: 35 eV FT-MS
Resolution: 7500
Column name: XBridge C18 3.5um, 2.1x150mm, Waters
Retention time: 18.830 min
Base peak: 234.058
Precursor m/z: 234.0583
Precursor type: [M+H]+
m/z	relative intensity	assigned
92.0495	6	C6H6N+
93.0572	999	C6H7N+
108.0443	177	C6H6NO+
109.0521	207	C6H7NO+
117.9746	3	C6NS+
156.0112	16	C6H6NO2S+
169.0838	37	C7H11N3O2+
170.0918	11	C7H12N3O2+
234.058	83	C12H12NO2S+
