Mass spectrum: cyclic3-(1,2-ethanediylacetale)-estra-5(10),9(11)-diene-3,17-dione; LC-ESI-ITFT; MS2; CE: 65 eV; R=30000; [M+H]+
Name: cyclic3-(1,2-ethanediylacetale)-estra-5(10),9(11)-diene-3,17-dione
Formula: C20H26O3
Exact mass: 314.1882
SMILES: C[C@]12CC=C3[C@@H](CCC4=C3CCC5(C4)OCCO5)[C@@H]1CCC2=O
InChI: InChI=1S/C20H26O3/c1-19-8-6-15-14-7-9-20(22-10-11-23-20)12-13(14)2-3-16(15)17(19)4-5-18(19)21/h6,16-17H,2-5,7-12H2,1H3/t16-,17+,19+/m1/s1
Instrument: Orbitrap Classic, Thermo Scientific
Instrument type: LC-ESI-ITFT
Ms type: MS2
Ion mode: POSITIVE
Ionization: ESI
Fragmentation mode: CID
Collision energy: 65 eV FT-MS
Resolution: 30000
Column name: XBridge C18 3.5um, 2.1x150mm, Waters
Retention time: 23.221 min
Base peak: 315.1949
Precursor m/z: 315.1955
Precursor type: [M+H]+
m/z	relative intensity	assigned
97.0648	1	C6H9O+
99.044	38	C5H7O2+
143.0854	1	C11H11+
157.1013	7	C12H13+
159.0805	1	C11H11O+
169.1012	1	C13H13+
171.1167	1	C13H15+
175.1118	11	C12H15O+
179.0854	3	C14H11+
179.1067	1	C11H15O2+
181.1012	2	C14H13+
183.1169	2	C14H15+
189.2089	1	C11H27NO+
193.1012	13	C15H13+
195.1168	26	C15H15+
196.1204	1	C10H16N2O2+
197.096	20	C14H13O+
197.1324	5	C15H17+
201.0909	2	C13H13O2+
201.1272	2	C14H17O+
203.1066	1	C13H15O2+
205.1222	5	C13H17O2+
209.1323	10	C16H17+
211.1117	13	C15H15O+
211.148	13	C16H19+
213.1272	6	C15H17O+
219.1379	23	C14H19O2+
223.1485	1	C17H19+
225.1274	2	C16H17O+
225.1638	8	C17H21+
229.1586	8	C16H21O+
235.148	114	C18H19+
236.1514	4	C13H20N2O2+
237.1636	17	C18H21+
241.1222	4	C16H17O2+
243.1748	1	C17H23O+
253.1585	602	C18H21O+
254.1618	14	C13H22N2O3+
255.1378	15	C17H19O2+
255.1741	20	C18H23O+
257.1538	2	C17H21O2+
271.169	701	C18H23O2+
272.1723	22	C13H24N2O4+
296.0481	1	C20H8O3+
297.1846	999	C20H25O2+
298.1879	38	C15H26N2O4+
