Mass spectrum: diethyldiallylmalonate; LC-ESI-ITFT; MS2; CE: 35 eV; R=30000; [M+H]+
Name: diethyldiallylmalonate
Formula: C13H20O4
Exact mass: 240.1362
SMILES: CCOC(=O)C(C(=O)OCC)(CC=C)CC=C
InChI: InChI=1S/C13H20O4/c1-5-9-13(10-6-2,11(14)16-7-3)12(15)17-8-4/h5-6H,1-2,7-10H2,3-4H3
Instrument: Orbitrap Classic, Thermo Scientific
Instrument type: LC-ESI-ITFT
Ms type: MS2
Ion mode: POSITIVE
Ionization: ESI
Fragmentation mode: CID
Collision energy: 35 eV FT-MS II
Resolution: 30000
Column name: XBridge C18 3.5um, 2.1x150mm, Waters
Retention time: 25.698 min
Base peak: 241.143
Precursor m/z: 241.1434
Precursor type: [M+H]+
m/z	relative intensity	assigned
77.0385	3	C6H5+
81.0698	6	C6H9+
91.0541	26	C7H7+
93.0698	184	C7H9+
95.0854	14	C7H11+
111.0804	10	C7H11O+
121.0647	153	C8H9O+
123.0803	33	C8H11O+
139.0753	181	C8H11O2+
141.0909	5	C8H13O2+
149.0597	113	C9H9O2+
167.0704	121	C9H11O3+
167.1066	998	C10H15O2+
169.122	8	C10H17O2+
175.1225	1	C11H15N2+
177.091	3	C11H13O2+
185.0807	776	C9H13O4+
195.1014	327	C11H15O3+
196.1467	11	C12H20O2+
213.1119	999	C11H17O4+
