Mass spectrum: 5-(Difluoromethoxy)-2-mercapto-1H-benzimidazole; LC-ESI-ITFT; MS2; CE: 35 eV; R=30000; [M+H]+
Name: 5-(Difluoromethoxy)-2-mercapto-1H-benzimidazole
Formula: C8H6F2N2OS
Exact mass: 216.0169
SMILES: C1(N2)=C(N=C2S)C=C(C=C1)OC(F)F
InChI: InChI=1S/C8H6F2N2OS/c9-7(10)13-4-1-2-5-6(3-4)12-8(14)11-5/h1-3,7H,(H2,11,12,14)
Instrument: Orbitrap Classic, Thermo Scientific
Instrument type: LC-ESI-ITFT
Ms type: MS2
Ion mode: POSITIVE
Ionization: ESI
Fragmentation mode: CID
Collision energy: 35 eV FT-MS II
Resolution: 30000
Column name: XBridge C18 3.5um, 2.1x150mm, Waters
Retention time: 11.894 min
Base peak: 217.0235
Precursor m/z: 217.0242
Precursor type: [M+H]+
m/z	relative intensity	assigned
82.9762	41	CHF2S+
140.9929	35	C2H3F2N2OS+
149.0164	831	C7H5N2S+
150.0244	332	C7H6N2S+
156.9941	37	C4H3N3O2S+
159.0488	432	C7H7F2NO+
163.9604	44	C4F2NO2S+
167.027	866	C7H7N2OS+
177.0116	52	C8H5N2OS+
184.0438	470	C8H6F2N2O+
185.0516	150	C8H7F2N2O+
197.0174	999	C8H6FN2OS+
217.0233	230	C8H7F2N2OS+
