Mass spectrum: dioctylamine; LC-ESI-ITFT; MS2; CE: 35 eV; R=30000; [M+H]+
Name: dioctylamine
Formula: C16H35N
Exact mass: 241.2770
SMILES: N(CCCCCCCC)CCCCCCCC
InChI: InChI=1S/C16H35N/c1-3-5-7-9-11-13-15-17-16-14-12-10-8-6-4-2/h17H,3-16H2,1-2H3
Instrument: Orbitrap Classic, Thermo Scientific
Instrument type: LC-ESI-ITFT
Ms type: MS2
Ion mode: POSITIVE
Ionization: ESI
Fragmentation mode: CID
Collision energy: 35 eV FT-MS II
Resolution: 30000
Column name: XBridge C18 3.5um, 2.1x150mm, Waters
Retention time: 22.885 min
Base peak: 242.2838
Precursor m/z: 242.2842
Precursor type: [M+H]+
m/z	relative intensity	assigned
71.0854	2	C5H11+
119.1182	1	C5H15N2O+
128.1432	3	C8H18N+
130.1589	242	C8H20N+
181.1011	1	C14H13+
189.2443	2	C12H31N+
196.05	7	C11H6N3O+
242.2837	999	C16H36N+
