Mass spectrum: Metoprolol; LC-ESI-ITFT; MS2; CE: 35 eV; R=30000; [M+H]+
Name: Metoprolol
Formula: C15H25NO3
Exact mass: 267.1834
SMILES: COCCc1ccc(OCC(O)CNC(C)C)cc1
InChI: InChI=1S/C15H25NO3/c1-12(2)16-10-14(17)11-19-15-6-4-13(5-7-15)8-9-18-3/h4-7,12,14,16-17H,8-11H2,1-3H3
Instrument: Orbitrap Classic, Thermo Scientific
Instrument type: LC-ESI-ITFT
Ms type: MS2
Ion mode: POSITIVE
Ionization: ESI
Fragmentation mode: CID
Collision energy: 35 eV FT-MS II
Resolution: 30000
Column name: XBridge C18 3.5um, 2.1x150mm, Waters
Retention time: 8.915 min
Base peak: 268.1903
Precursor m/z: 268.1907
Precursor type: [M+H]+
m/z	relative intensity	assigned
60.0934	3	C4H12+
69.1725	3	H23NO2+
74.06	16	C3H8NO+
86.0964	5	C5H12N+
98.0964	79	C6H12N+
105.0698	5	C8H9+
116.1069	628	C6H14NO+
117.032	3	C6H3N3+
117.0703	3	C9H9+
121.0647	116	C8H9O+
131.0856	10	C10H11+
133.0648	57	C9H9O+
141.0698	3	C11H9+
143.0858	5	C11H11+
147.0804	11	C10H11O+
159.0804	261	C11H11O+
161.0961	59	C11H13O+
163.1118	24	C11H15O+
165.0909	25	C10H13O2+
175.1118	7	C12H15O+
176.1069	155	C11H14NO+
177.0909	86	C11H13O2+
179.1066	15	C11H15O2+
180.0688	3	C12H8N2+
191.1066	999	C12H15O2+
193.0394	4	C12H5N2O+
194.1174	119	C11H16NO2+
201.1272	15	C14H17O+
218.1537	548	C14H20NO+
226.1436	363	C12H20NO3+
232.1788	3	C11H24N2O3+
233.1536	12	C15H21O2+
250.1799	226	C15H24NO2+
268.1905	52	C15H26NO3+
