Mass spectrum: cyclic3-(1,2-ethanediylacetale)-estra-5(10),9(11)-diene-3,17-dione; LC-ESI-ITFT; MS2; CE: 35 eV; R=30000; [M+H]+
Name: cyclic3-(1,2-ethanediylacetale)-estra-5(10),9(11)-diene-3,17-dione
Formula: C20H26O3
Exact mass: 314.1882
SMILES: C[C@]12CC=C3[C@@H](CCC4=C3CCC5(C4)OCCO5)[C@@H]1CCC2=O
InChI: InChI=1S/C20H26O3/c1-19-8-6-15-14-7-9-20(22-10-11-23-20)12-13(14)2-3-16(15)17(19)4-5-18(19)21/h6,16-17H,2-5,7-12H2,1H3/t16-,17+,19+/m1/s1
Instrument: Orbitrap Classic, Thermo Scientific
Instrument type: LC-ESI-ITFT
Ms type: MS2
Ion mode: POSITIVE
Ionization: ESI
Fragmentation mode: CID
Collision energy: 35 eV FT-MS II
Resolution: 30000
Column name: XBridge C18 3.5um, 2.1x150mm, Waters
Retention time: 23.221 min
Base peak: 315.1949
Precursor m/z: 315.1955
Precursor type: [M+H]+
m/z	relative intensity	assigned
97.0648	1	C6H9O+
99.0441	38	C5H7O2+
157.1011	5	C12H13+
175.1118	6	C12H15O+
179.086	2	C14H11+
179.1068	1	C11H15O2+
181.1014	2	C14H13+
183.1167	3	C14H15+
193.1011	8	C15H13+
195.1167	19	C15H15+
196.016	1	C12H4O3+
197.0961	11	C14H13O+
197.1322	1	C15H17+
201.0908	2	C13H13O2+
201.1268	1	C14H17O+
205.1222	3	C13H17O2+
207.1168	1	C16H15+
209.1326	5	C16H17+
211.1118	6	C15H15O+
211.1481	10	C16H19+
211.2164	1	C13H27N2+
213.1272	3	C15H17O+
219.1378	24	C14H19O2+
225.1636	7	C17H21+
229.1586	7	C16H21O+
235.1481	93	C18H19+
237.1637	13	C18H21+
241.1222	2	C16H17O2+
250.1105	1	C16H14N2O+
253.1586	467	C18H21O+
255.1378	12	C17H19O2+
255.1742	20	C18H23O+
256.0745	1	C18H10NO+
271.1691	602	C18H23O2+
286.1565	1	C18H22O3+
297.1847	999	C20H25O2+
