Mass spectrum: 4,4`-sulphonyldiphenol; LC-ESI-ITFT; MS2; CE: 35 eV; R=7500; [M+H]+
Name: 4,4`-sulphonyldiphenol
Formula: C12H10O4S
Exact mass: 250.0300
SMILES: Oc1ccc(cc1)[S](=O)(=O)c2ccc(O)cc2
InChI: InChI=1S/C12H10O4S/c13-9-1-5-11(6-2-9)17(15,16)12-7-3-10(14)4-8-12/h1-8,13-14H
Instrument: Orbitrap Classic, Thermo Scientific
Instrument type: LC-ESI-ITFT
Ms type: MS2
Ion mode: POSITIVE
Ionization: ESI
Fragmentation mode: CID
Collision energy: 35 eV FT-MS
Resolution: 7500
Column name: XBridge C18 3.5um, 2.1x150mm, Waters
Retention time: 11.889 min
Base peak: 251.0373
Precursor m/z: 251.0373
Precursor type: [M+H]+
m/z	relative intensity	assigned
65.0385	9	C5H5+
81.0339	1	C5H5O+
93.0334	17	C6H5O+
109.0284	90	C6H5O2+
111.0441	2	C6H7O2+
121.0397	69	C6H5N2O+
156.9954	999	C6H5O3S+
