Mass spectrum: N-butylbenzenesulphonamide; LC-ESI-ITFT; MS2; CE: 35 eV; R=30000; [M+H]+
Name: N-butylbenzenesulphonamide
Formula: C10H15NO2S
Exact mass: 213.0823
SMILES: O=S(=O)(NCCCC)c(cccc1)c1
InChI: InChI=1S/C10H15NO2S/c1-2-3-9-11-14(12,13)10-7-5-4-6-8-10/h4-8,11H,2-3,9H2,1H3
Instrument: Orbitrap Classic, Thermo Scientific
Instrument type: LC-ESI-ITFT
Ms type: MS2
Ion mode: POSITIVE
Ionization: ESI
Fragmentation mode: CID
Collision energy: 35 eV FT-MS II
Resolution: 30000
Column name: XBridge C18 3.5um, 2.1x150mm, Waters
Retention time: 18.653 min
Base peak: 214.0891
Precursor m/z: 214.0896
Precursor type: [M+H]+
m/z	relative intensity	assigned
77.0384	61	C6H5+
105.0444	2	C6H5N2+
141.0003	644	C6H5O2S+
158.0268	999	C6H8NO2S+
