Mass spectrum: 1,4-bis(p-tolylamino)anthraquinone; LC-ESI-ITFT; MS2; CE: 65 eV; R=30000; [M+H]+
Name: 1,4-bis(p-tolylamino)anthraquinone
Formula: C28H22N2O2
Exact mass: 418.1681
SMILES: O=C(c(c(C(=O)c1c(Nc(ccc(c2)C)c2)ccc3Nc(ccc(c4)C)c4)ccc5)c5)c13
InChI: InChI=1S/C28H22N2O2/c1-17-7-11-19(12-8-17)29-23-15-16-24(30-20-13-9-18(2)10-14-20)26-25(23)27(31)21-5-3-4-6-22(21)28(26)32/h3-16,29-30H,1-2H3
Instrument: Orbitrap Classic, Thermo Scientific
Instrument type: LC-ESI-ITFT
Ms type: MS2
Ion mode: POSITIVE
Ionization: ESI
Fragmentation mode: CID
Collision energy: 65 eV FT-MS
Resolution: 30000
Column name: XBridge C18 3.5um, 2.1x150mm, Waters
Retention time: 41.673 min
Base peak: 419.1733
Precursor m/z: 419.1754
Precursor type: [M+H]+
m/z	relative intensity	assigned
181.0883	1	C13H11N+
196.1123	2	C14H14N+
254.0964	2	C19H12N+
268.1122	9	C20H14N+
269.0839	1	C19H11NO+
269.1155	1	C15H15N3O2+
270.1152	1	C19H14N2+
281.1071	2	C20H13N2+
282.0915	2	C20H12NO+
282.1152	4	C20H14N2+
283.0991	2	C20H13NO+
284.1071	7	C20H14NO+
285.1107	1	C15H15N3O3+
286.086	2	C19H12NO2+
286.1465	2	C20H18N2+
293.1076	1	C21H13N2+
294.0915	3	C21H12NO+
295.0864	2	C20H11N2O+
295.0993	7	C21H13NO+
295.1243	1	C21H15N2+
296.1071	21	C21H14NO+
297.0784	18	C20H11NO2+
297.1015	1	C20H13N2O+
297.1387	9	C21H17N2+
298.0873	4	C20H12NO2+
298.1419	1	C16H18N4O2+
299.1183	2	C20H15N2O+
300.1022	3	C20H14NO2+
301.1098	3	C20H15NO2+
309.1024	5	C21H13N2O+
310.0865	10	C21H12NO2+
310.1112	1	C21H14N2O+
311.0822	5	C20H11N2O2+
311.0943	30	C21H13NO2+
311.1182	2	C21H15N2O+
312.1017	179	C21H14NO2+
313.109	123	C21H15NO2+
314.1413	1	C21H18N2O+
321.1025	1	C22H13N2O+
323.0816	3	C21H11N2O2+
324.1256	1	C22H16N2O+
325.0974	6	C21H13N2O2+
325.1099	4	C22H15NO2+
326.0978	1	C25H12N+
326.1064	2	C21H14N2O2+
326.1178	3	C22H16NO2+
327.1127	300	C21H15N2O2+
337.0972	5	C22H13N2O2+
338.1048	94	C22H14N2O2+
339.1137	19	C22H15N2O2+
341.1286	1	C22H17N2O2+
350.1419	1	C24H18N2O+
357.1384	4	C26H17N2+
358.1415	1	C21H18N4O2+
358.1471	1	C26H18N2+
359.1542	18	C26H19N2+
360.1575	3	C21H20N4O2+
361.1699	2	C26H21N2+
371.1543	5	C27H19N2+
373.1697	36	C27H21N2+
374.1408	1	C26H18N2O+
374.1727	7	C22H22N4O2+
375.1495	7	C26H19N2O+
375.1855	1	C27H23N2+
376.1523	1	C21H20N4O3+
377.1289	2	C25H17N2O2+
378.1494	1	C26H20NO2+
383.1544	27	C28H19N2+
384.1381	1	C28H18NO+
384.1572	6	C23H20N4O2+
385.1337	16	C27H17N2O+
386.1415	37	C27H18N2O+
387.1443	6	C22H19N4O3+
388.1214	1	C26H16N2O2+
389.165	23	C27H21N2O+
390.168	4	C22H22N4O3+
399.1494	26	C28H19N2O+
400.1569	99	C28H20N2O+
401.1645	999	C28H21N2O+
402.1483	14	C28H20NO2+
402.1676	232	C23H22N4O3+
403.1438	74	C27H19N2O2+
404.1509	41	C27H20N2O2+
417.1592	118	C28H21N2O2+
418.1669	284	C28H22N2O2+
