Mass spectrum: DIMETHOMORF; LC-ESI-ITFT; MS2; CE: 35 eV; R=nominal; [M+H]+
Name: DIMETHOMORF
Formula: C21H22ClNO4
Exact mass: 387.1237
SMILES: COc1ccc(cc1OC)C(=C\C(=O)N2CCOCC2)/c3ccc(Cl)cc3
InChI: InChI=1S/C21H22ClNO4/c1-25-19-8-5-16(13-20(19)26-2)18(15-3-6-17(22)7-4-15)14-21(24)23-9-11-27-12-10-23/h3-8,13-14H,9-12H2,1-2H3/b18-14-
Instrument: Orbitrap Classic, Thermo Scientific
Instrument type: LC-ESI-ITFT
Ms type: MS2
Ion mode: POSITIVE
Ionization: ESI
Fragmentation mode: CID
Collision energy: 35 eV IT-MS
Resolution: nominal
Column name: XBridge C18 3.5um, 2.1x150mm, Waters
Retention time: 19.725 min
Base peak: 388.1312
Precursor m/z: 388.131
Precursor type: [M+H]+
m/z	relative intensity	assigned
114.0427	35	CH9ClN3O+
122.1088	11	C9H14+
139.125	10	C7H20Cl+
208.0143	26	C11H2N3O2+
302.055	999	C17H8N3O3+
