Mass spectrum: 1,3-diethyldiphenylurea; LC-ESI-ITFT; MS2; CE: 65 eV; R=30000; [M+H]+
Name: 1,3-diethyldiphenylurea
Formula: C17H20N2O
Exact mass: 268.1576
SMILES: CCN(C(=O)N(CC)c1ccccc1)c2ccccc2
InChI: InChI=1S/C17H20N2O/c1-3-18(15-11-7-5-8-12-15)17(20)19(4-2)16-13-9-6-10-14-16/h5-14H,3-4H2,1-2H3
Instrument: Orbitrap Classic, Thermo Scientific
Instrument type: LC-ESI-ITFT
Ms type: MS2
Ion mode: POSITIVE
Ionization: ESI
Fragmentation mode: CID
Collision energy: 65 eV FT-MS
Resolution: 30000
Column name: XBridge C18 3.5um, 2.1x150mm, Waters
Retention time: 23.996 min
Base peak: 269.1648
Precursor m/z: 269.1648
Precursor type: [M+H]+
m/z	relative intensity	assigned
77.0386	2	C6H5+
92.0495	17	C6H6N+
120.0443	494	C7H6NO+
148.0757	999	C9H10NO+
189.1718	1	C8H21N4O+
205.1084	1	C10H13N4O+
