Mass spectrum: N-(n-octyl)-2-pyrrolidinone; LC-ESI-ITFT; MS2; CE: 65 eV; R=30000; [M+H]+
Name: N-(n-octyl)-2-pyrrolidinone
Formula: C12H23NO
Exact mass: 197.1780
SMILES: CCCCCCCCN1CCCC1=O
InChI: InChI=1S/C12H23NO/c1-2-3-4-5-6-7-10-13-11-8-9-12(13)14/h2-11H2,1H3
Instrument: Orbitrap Classic, Thermo Scientific
Instrument type: LC-ESI-ITFT
Ms type: MS2
Ion mode: POSITIVE
Ionization: ESI
Fragmentation mode: CID
Collision energy: 65 eV FT-MS
Resolution: 30000
Column name: XBridge C18 3.5um, 2.1x150mm, Waters
Retention time: 21.872 min
Base peak: 198.1849
Precursor m/z: 198.1852
Precursor type: [M+H]+
m/z	relative intensity	assigned
68.0493	2	C4H6N+
69.0333	12	C4H5O+
70.065	3	C4H8N+
86.0599	999	C4H8NO+
98.0598	26	C5H8NO+
100.0755	6	C5H10NO+
114.0911	37	C6H12NO+
128.1068	98	C7H14NO+
130.0775	2	C10H10+
139.063	2	C7H9NO2+
142.1225	54	C8H16NO+
156.138	14	C9H18NO+
163.1231	2	C10H15N2+
164.1517	2	C7H20N2O2+
170.1543	2	C10H20NO+
