Mass spectrum: dibutyladipate; LC-ESI-ITFT; MS2; CE: 35 eV; R=7500; [M+H]+
Name: dibutyladipate
Formula: C14H26O4
Exact mass: 258.1831
SMILES: CCCCOC(=O)CCCCC(=O)OCCCC
InChI: InChI=1S/C14H26O4/c1-3-5-11-17-13(15)9-7-8-10-14(16)18-12-6-4-2/h3-12H2,1-2H3
Instrument: Orbitrap Classic, Thermo Scientific
Instrument type: LC-ESI-ITFT
Ms type: MS2
Ion mode: POSITIVE
Ionization: ESI
Fragmentation mode: CID
Collision energy: 35 eV FT-MS
Resolution: 7500
Column name: XBridge C18 3.5um, 2.1x150mm, Waters
Retention time: 28.446 min
Base peak: 259.1896
Precursor m/z: 259.1904
Precursor type: [M+H]+
m/z	relative intensity	assigned
83.049	9	C5H7O+
101.0596	41	C5H9O2+
111.0439	286	C6H7O2+
129.0544	999	C6H9O3+
157.1223	13	C9H17O2+
185.1169	834	C10H17O3+
216.0422	2	C12H8O4+
