Mass spectrum: 7-oxabicyclo[4.1.0]hept-3-ylmethyl7-oxabicyclo[4.1.0]heptane-3-carboxylate; LC-ESI-ITFT; MS2; CE: 65 eV; R=30000; [M+H]+
Name: 7-oxabicyclo[4.1.0]hept-3-ylmethyl7-oxabicyclo[4.1.0]heptane-3-carboxylate
Formula: C14H20O4
Exact mass: 252.1362
SMILES: O=C(OCC1CCC2OC2C1)C3CCC4OC4C3
InChI: InChI=1S/C14H20O4/c15-14(9-2-4-11-13(6-9)18-11)16-7-8-1-3-10-12(5-8)17-10/h8-13H,1-7H2
Instrument: Orbitrap Classic, Thermo Scientific
Instrument type: LC-ESI-ITFT
Ms type: MS2
Ion mode: POSITIVE
Ionization: ESI
Fragmentation mode: CID
Collision energy: 65 eV FT-MS
Resolution: 30000
Column name: XBridge C18 3.5um, 2.1x150mm, Waters
Retention time: 14.532 min
Base peak: 253.1431
Precursor m/z: 253.1434
Precursor type: [M+H]+
m/z	relative intensity	assigned
67.0542	35	C5H7+
69.0698	43	C5H9+
77.0385	90	C6H5+
79.0542	464	C6H7+
81.0698	198	C6H9+
83.0855	10	C6H11+
91.0542	129	C7H7+
93.0698	439	C7H9+
95.0854	12	C7H11+
97.0647	170	C6H9O+
107.0491	404	C7H7O+
109.0647	6	C7H9O+
111.0803	916	C7H11O+
125.0596	999	C7H9O2+
129.0908	52	C7H13O2+
143.0702	660	C7H11O3+
171.1169	57	C13H15+
189.1273	16	C13H17O+
199.1113	10	C14H15O+
207.1377	12	C13H19O2+
217.1222	62	C14H17O2+
235.1326	265	C14H19O3+
256.0102	5	C12H4N2O5+
