Mass spectrum: Metoprolol; LC-ESI-ITFT; MS2; CE: 65 eV; R=30000; [M+H]+
Name: Metoprolol
Formula: C15H25NO3
Exact mass: 267.1834
SMILES: COCCc1ccc(OCC(O)CNC(C)C)cc1
InChI: InChI=1S/C15H25NO3/c1-12(2)16-10-14(17)11-19-15-6-4-13(5-7-15)8-9-18-3/h4-7,12,14,16-17H,8-11H2,1-3H3
Instrument: Orbitrap Classic, Thermo Scientific
Instrument type: LC-ESI-ITFT
Ms type: MS2
Ion mode: POSITIVE
Ionization: ESI
Fragmentation mode: CID
Collision energy: 65 eV FT-MS
Resolution: 30000
Column name: XBridge C18 3.5um, 2.1x150mm, Waters
Retention time: 8.915 min
Base peak: 268.1903
Precursor m/z: 268.1907
Precursor type: [M+H]+
m/z	relative intensity	assigned
74.06	17	C3H8NO+
96.0811	4	C6H10N+
98.0964	92	C6H12N+
105.0695	4	C8H9+
108.115	4	C5H16O2+
116.1069	643	C6H14NO+
121.0648	113	C8H9O+
131.0854	9	C10H11+
133.0648	43	C9H9O+
135.08	4	C9H11O+
147.0805	9	C10H11O+
150.0919	6	C9H12NO+
152.0239	3	C9H2N3+
159.0804	266	C11H11O+
161.0961	67	C11H13O+
163.1117	21	C11H15O+
165.0911	28	C10H13O2+
175.1119	8	C12H15O+
176.107	155	C11H14NO+
177.091	82	C11H13O2+
179.107	8	C11H15O2+
191.1066	999	C12H15O2+
194.1174	132	C11H16NO2+
201.1274	13	C14H17O+
218.1538	527	C14H20NO+
226.1436	333	C12H20NO3+
233.1538	13	C15H21O2+
250.1799	213	C15H24NO2+
