Mass spectrum: 1,3-diphenylguanidine; LC-ESI-ITFT; MS2; CE: 35 eV; R=7500; [M+H]+
Name: 1,3-diphenylguanidine
Formula: C13H13N3
Exact mass: 211.1109
SMILES: N=C(Nc1ccccc1)Nc2ccccc2
InChI: InChI=1S/C13H13N3/c14-13(15-11-7-3-1-4-8-11)16-12-9-5-2-6-10-12/h1-10H,(H3,14,15,16)
Instrument: Orbitrap Classic, Thermo Scientific
Instrument type: LC-ESI-ITFT
Ms type: MS2
Ion mode: POSITIVE
Ionization: ESI
Fragmentation mode: CID
Collision energy: 35 eV FT-MS
Resolution: 7500
Column name: XBridge C18 3.5um, 2.1x150mm, Waters
Retention time: 7.592 min
Base peak: 212.1181
Precursor m/z: 212.1182
Precursor type: [M+H]+
m/z	relative intensity	assigned
77.0386	9	C6H5+
94.065	589	C6H8N+
119.0602	828	C7H7N2+
195.0913	999	C13H11N2+
212.118	253	C13H14N3+
