Mass spectrum: Metoprolol; LC-ESI-ITFT; MS2; CE: 35 eV; R=nominal; [M+H]+
Name: Metoprolol
Formula: C15H25NO3
Exact mass: 267.1834
SMILES: COCCc1ccc(OCC(O)CNC(C)C)cc1
InChI: InChI=1S/C15H25NO3/c1-12(2)16-10-14(17)11-19-15-6-4-13(5-7-15)8-9-18-3/h4-7,12,14,16-17H,8-11H2,1-3H3
Instrument: Orbitrap Classic, Thermo Scientific
Instrument type: LC-ESI-ITFT
Ms type: MS2
Ion mode: POSITIVE
Ionization: ESI
Fragmentation mode: CID
Collision energy: 35 eV IT-MS
Resolution: nominal
Column name: XBridge C18 3.5um, 2.1x150mm, Waters
Retention time: 8.915 min
Base peak: 268.1903
Precursor m/z: 268.1907
Precursor type: [M+H]+
m/z	relative intensity	assigned
91.005	3	C5HNO+
116.0668	907	H10N3O4+
117.0171	6	C2H3N3O3+
121.0975	161	C4H13N2O2+
144.1343	9	C3H18N3O3+
148.1816	3	C9H24O+
159.0426	288	C8H5N3O+
173.0551	2	C6H9N2O4+
191.1636	999	C10H23O3+
208.1544	5	C9H22NO4+
218.142	484	C13H18N2O+
236.1416	1	C14H20O3+
