Mass spectrum: 5-(Difluoromethoxy)-2-mercapto-1H-benzimidazole; LC-ESI-ITFT; MS2; CE: 35 eV; R=nominal; [M+H]+
Name: 5-(Difluoromethoxy)-2-mercapto-1H-benzimidazole
Formula: C8H6F2N2OS
Exact mass: 216.0169
SMILES: C1(N2)=C(N=C2S)C=C(C=C1)OC(F)F
InChI: InChI=1S/C8H6F2N2OS/c9-7(10)13-4-1-2-5-6(3-4)12-8(14)11-5/h1-3,7H,(H2,11,12,14)
Instrument: Orbitrap Classic, Thermo Scientific
Instrument type: LC-ESI-ITFT
Ms type: MS2
Ion mode: POSITIVE
Ionization: ESI
Fragmentation mode: CID
Collision energy: 35 eV IT-MS
Resolution: nominal
Column name: XBridge C18 3.5um, 2.1x150mm, Waters
Retention time: 11.894 min
Base peak: 217.0235
Precursor m/z: 217.0242
Precursor type: [M+H]+
m/z	relative intensity	assigned
166.9993	999	C5FN4O2+
199.0018	24	C7H3F2N3S+
