Mass spectrum: Valsartan; LC-ESI-ITFT; MS2; CE: 35 eV; R=nominal; [M+H]+
Name: Valsartan
Formula: C24H29N5O3
Exact mass: 435.2270
SMILES: CCCCC(=O)N(Cc1ccc(cc1)c2ccccc2c3[nH]nnn3)[C@@H](C(C)C)C(O)=O
InChI: InChI=1S/C24H29N5O3/c1-4-5-10-21(30)29(22(16(2)3)24(31)32)15-17-11-13-18(14-12-17)19-8-6-7-9-20(19)23-25-27-28-26-23/h6-9,11-14,16,22H,4-5,10,15H2,1-3H3,(H,31,32)(H,25,26,27,28)/t22-/m0/s1
Instrument: Orbitrap Classic, Thermo Scientific
Instrument type: LC-ESI-ITFT
Ms type: MS2
Ion mode: POSITIVE
Ionization: ESI
Fragmentation mode: CID
Collision energy: 35 eV IT-MS
Resolution: nominal
Column name: XBridge C18 3.5um, 2.1x150mm, Waters
Retention time: 20.120 min
Base peak: 436.2342
Precursor m/z: 436.2343
Precursor type: [M+H]+
m/z	relative intensity	assigned
180.1003	20	C8H12N4O+
190.1768	27	C6H20N7+
191.0647	6	C4H9N5O4+
206.1084	19	C16H14+
207.2162	96	C7H25N7+
235.0507	786	C14H7N2O2+
306.144	999	C13H18N6O3+
324.1388	2	C23H18NO+
352.0907	181	C16H12N6O4+
362.158	742	C15H20N7O4+
