Mass spectrum: 4-Cyclododecyl-2,6-dimethylmorpholine; LC-ESI-ITFT; MS2; CE: 35 eV; R=7500; [M+H]+
Name: 4-Cyclododecyl-2,6-dimethylmorpholine
Formula: C18H35NO
Exact mass: 281.2719
SMILES: CC1CN(CC(C)O1)C2CCCCCCCCCCC2
InChI: InChI=1S/C18H35NO/c1-16-14-19(15-17(2)20-16)18-12-10-8-6-4-3-5-7-9-11-13-18/h16-18H,3-15H2,1-2H3
Instrument: Orbitrap Classic, Thermo Scientific
Instrument type: LC-ESI-ITFT
Ms type: MS2
Ion mode: POSITIVE
Ionization: ESI
Fragmentation mode: CID
Collision energy: 35 eV FT-MS
Resolution: 7500
Column name: XBridge C18 3.5um, 2.1x150mm, Waters
Retention time: 16.727 min
Base peak: 282.2784
Precursor m/z: 282.2791
Precursor type: [M+H]+
m/z	relative intensity	assigned
69.0697	5	C5H9+
98.0962	202	C6H12N+
111.1166	2	C8H15+
116.1067	999	C6H14NO+
