Mass spectrum: 3,3-pentamethylene-4-butyrolactam; LC-ESI-ITFT; MS2; CE: 65 eV; R=30000; [M+H]+
Name: 3,3-pentamethylene-4-butyrolactam
Formula: C9H15NO
Exact mass: 153.1154
SMILES: O=C1CC2(CCCCC2)CN1
InChI: InChI=1S/C9H15NO/c11-8-6-9(7-10-8)4-2-1-3-5-9/h1-7H2,(H,10,11)
Instrument: Orbitrap Classic, Thermo Scientific
Instrument type: LC-ESI-ITFT
Ms type: MS2
Ion mode: POSITIVE
Ionization: ESI
Fragmentation mode: CID
Collision energy: 65 eV FT-MS
Resolution: 30000
Column name: XBridge C18 3.5um, 2.1x150mm, Waters
Retention time: 11.360 min
Base peak: 154.1226
Precursor m/z: 154.1226
Precursor type: [M+H]+
m/z	relative intensity	assigned
60.0443	23	C2H6NO+
67.0541	48	C5H7+
69.0697	12	C5H9+
70.0649	11	C4H8N+
91.0541	55	C7H7+
93.0697	93	C7H9+
95.0854	999	C7H11+
109.1009	108	C8H13+
112.1119	112	C7H14N+
119.0853	209	C9H11+
137.0958	45	C9H13O+
