Mass spectrum: (S)-1-Anilino-4-methyl-2-methylthio-4-phenyl-2-imidazolin-5-one; LC-ESI-ITFT; MS2; CE: 35 eV; R=7500; [M+H]+
Name: (S)-1-Anilino-4-methyl-2-methylthio-4-phenyl-2-imidazolin-5-one
Formula: C17H17N3OS
Exact mass: 311.1092
SMILES: CSC1=N[C@](C)(C(=O)N1Nc2ccccc2)c3ccccc3
InChI: InChI=1S/C17H17N3OS/c1-17(13-9-5-3-6-10-13)15(21)20(16(18-17)22-2)19-14-11-7-4-8-12-14/h3-12,19H,1-2H3/t17-/m0/s1
Instrument: Orbitrap Classic, Thermo Scientific
Instrument type: LC-ESI-ITFT
Ms type: MS2
Ion mode: POSITIVE
Ionization: ESI
Fragmentation mode: CID
Collision energy: 35 eV FT-MS
Resolution: 7500
Column name: XBridge C18 3.5um, 2.1x150mm, Waters
Retention time: 21.602 min
Base peak: 312.1158
Precursor m/z: 312.1165
Precursor type: [M+H]+
m/z	relative intensity	assigned
103.0541	59	C8H7+
120.0805	21	C8H10N+
131.049	3	C9H7O+
161.0706	20	C9H9N2O+
165.048	163	C8H9N2S+
170.0959	2	C12H12N+
193.079	13	C10H13N2S+
205.0786	5	C11H13N2S+
211.1227	114	C14H15N2+
219.0569	4	C9H9N5S+
221.1062	7	C15H13N2+
222.091	40	C15H12NO+
236.1179	949	C15H14N3+
239.1174	396	C15H15N2O+
264.1124	999	C16H14N3O+
265.1197	16	C16H15N3O+
267.0942	104	C16H15N2S+
284.1218	12	C16H18N3S+
295.0892	155	C17H15N2OS+
