Mass spectrum: dibutyladipate; LC-ESI-ITFT; MS2; CE: 65 eV; R=30000; [M+H]+
Name: dibutyladipate
Formula: C14H26O4
Exact mass: 258.1831
SMILES: CCCCOC(=O)CCCCC(=O)OCCCC
InChI: InChI=1S/C14H26O4/c1-3-5-11-17-13(15)9-7-8-10-14(16)18-12-6-4-2/h3-12H2,1-2H3
Instrument: Orbitrap Classic, Thermo Scientific
Instrument type: LC-ESI-ITFT
Ms type: MS2
Ion mode: POSITIVE
Ionization: ESI
Fragmentation mode: CID
Collision energy: 65 eV FT-MS
Resolution: 30000
Column name: XBridge C18 3.5um, 2.1x150mm, Waters
Retention time: 28.446 min
Base peak: 259.1896
Precursor m/z: 259.1904
Precursor type: [M+H]+
m/z	relative intensity	assigned
83.0491	17	C5H7O+
101.0596	52	C5H9O2+
111.0439	340	C6H7O2+
129.0545	999	C6H9O3+
148.0185	1	C11H2N+
157.1222	16	C9H17O2+
185.1169	821	C10H17O3+
203.1268	2	C10H19O4+
244.12	1	C14H16N2O2+
