Mass spectrum: 2,6-diisopropylaniline; LC-ESI-ITFT; MS2; CE: 35 eV; R=7500; [M+H]+
Name: 2,6-diisopropylaniline
Formula: C12H19N
Exact mass: 177.1517
SMILES: Nc(c(ccc1)C(C)C)c1C(C)C
InChI: InChI=1S/C12H19N/c1-8(2)10-6-5-7-11(9(3)4)12(10)13/h5-9H,13H2,1-4H3
Instrument: Orbitrap Classic, Thermo Scientific
Instrument type: LC-ESI-ITFT
Ms type: MS2
Ion mode: POSITIVE
Ionization: ESI
Fragmentation mode: CID
Collision energy: 35 eV FT-MS
Resolution: 7500
Column name: XBridge C18 3.5um, 2.1x150mm, Waters
Retention time: 20.357 min
Base peak: 178.1589
Precursor m/z: 178.159
Precursor type: [M+H]+
m/z	relative intensity	assigned
91.0542	58	C7H7+
94.0652	20	C6H8N+
105.0698	17	C8H9+
106.065	6	C7H8N+
119.0858	6	C9H11+
120.0802	4	C8H10N+
133.1012	165	C10H13+
134.0966	74	C9H12N+
136.1122	59	C9H14N+
148.1124	36	C10H14N+
160.1118	4	C11H14N+
162.1278	600	C11H16N+
174.1279	16	C12H16N+
176.1436	144	C12H18N+
178.1591	999	C12H20N+
