Mass spectrum: Carbamazepine10,11-epoxide; LC-ESI-ITFT; MS2; CE: 35 eV; R=nominal; [M+H]+
Name: Carbamazepine10,11-epoxide
Formula: C15H12N2O2
Exact mass: 252.0899
SMILES: NC(=O)N1c2ccccc2C3OC3c4ccccc14
InChI: InChI=1S/C15H12N2O2/c16-15(18)17-11-7-3-1-5-9(11)13-14(19-13)10-6-2-4-8-12(10)17/h1-8,13-14H,(H2,16,18)
Instrument: Orbitrap Classic, Thermo Scientific
Instrument type: LC-ESI-ITFT
Ms type: MS2
Ion mode: POSITIVE
Ionization: ESI
Fragmentation mode: CID
Collision energy: 35 eV IT-MS
Resolution: nominal
Column name: XBridge C18 3.5um, 2.1x150mm, Waters
Retention time: 12.085 min
Base peak: 253.0968
Precursor m/z: 253.0972
Precursor type: [M+H]+
m/z	relative intensity	assigned
180.0569	1	C13H8O+
210.0792	999	C13H10N2O+
