Mass spectrum: Irbesartan; LC-ESI-ITFT; MS2; CE: 35 eV; R=nominal; [M+H]+
Name: Irbesartan
Formula: C25H28N6O
Exact mass: 428.2325
SMILES: CCCCC1=NC2(CCCC2)C(=O)N1Cc3ccc(cc3)c4ccccc4c5[nH]nnn5
InChI: InChI=1S/C25H28N6O/c1-2-3-10-22-26-25(15-6-7-16-25)24(32)31(22)17-18-11-13-19(14-12-18)20-8-4-5-9-21(20)23-27-29-30-28-23/h4-5,8-9,11-14H,2-3,6-7,10,15-17H2,1H3,(H,27,28,29,30)
Instrument: Orbitrap Classic, Thermo Scientific
Instrument type: LC-ESI-ITFT
Ms type: MS2
Ion mode: POSITIVE
Ionization: ESI
Fragmentation mode: CID
Collision energy: 35 eV IT-MS
Resolution: nominal
Column name: XBridge C18 3.5um, 2.1x150mm, Waters
Retention time: 16.137 min
Base peak: 429.24
Precursor m/z: 429.2397
Precursor type: [M+H]+
m/z	relative intensity	assigned
192.1082	24	C3H12N8O2+
195.1036	999	C14H13N+
196.0401	6	C12H6NO2+
205.1013	29	C16H13+
208.0956	10	C9H12N4O2+
250.1775	1	C11H20N7+
318.062	5	C14H6N8O2+
372.0123	5	C19N8O2+
384.2182	1	C24H26N5+
402.1232	2	C24H14N6O+
