Mass spectrum: 2,6-diisopropylaniline; LC-ESI-ITFT; MS2; CE: 65 eV; R=30000; [M+H]+
Name: 2,6-diisopropylaniline
Formula: C12H19N
Exact mass: 177.1517
SMILES: Nc(c(ccc1)C(C)C)c1C(C)C
InChI: InChI=1S/C12H19N/c1-8(2)10-6-5-7-11(9(3)4)12(10)13/h5-9H,13H2,1-4H3
Instrument: Orbitrap Classic, Thermo Scientific
Instrument type: LC-ESI-ITFT
Ms type: MS2
Ion mode: POSITIVE
Ionization: ESI
Fragmentation mode: CID
Collision energy: 65 eV FT-MS
Resolution: 30000
Column name: XBridge C18 3.5um, 2.1x150mm, Waters
Retention time: 20.357 min
Base peak: 178.1589
Precursor m/z: 178.159
Precursor type: [M+H]+
m/z	relative intensity	assigned
91.0542	95	C7H7+
94.0651	38	C6H8N+
97.0652	1	C6H9O+
105.0698	25	C8H9+
106.0651	11	C7H8N+
117.0698	2	C9H9+
119.0855	7	C9H11+
120.0807	9	C8H10N+
130.1228	1	C7H16NO+
131.0119	1	C6HN3O+
132.0808	4	C9H10N+
133.1012	270	C10H13+
134.0964	129	C9H12N+
136.112	106	C9H14N+
148.1121	66	C10H14N+
153.0701	1	C12H9+
160.1122	5	C11H14N+
162.1277	999	C11H16N+
174.1277	13	C12H16N+
