Mass spectrum: N-lauroylsarcosine; LC-ESI-ITFT; MS2; CE: 35 eV; R=7500; [M+H]+
Name: N-lauroylsarcosine
Formula: C15H29NO3
Exact mass: 271.2147
SMILES: CCCCCCCCCCCC(=O)N(C)CC(O)=O
InChI: InChI=1S/C15H29NO3/c1-3-4-5-6-7-8-9-10-11-12-14(17)16(2)13-15(18)19/h3-13H2,1-2H3,(H,18,19)
Instrument: Orbitrap Classic, Thermo Scientific
Instrument type: LC-ESI-ITFT
Ms type: MS2
Ion mode: POSITIVE
Ionization: ESI
Fragmentation mode: CID
Collision energy: 35 eV FT-MS
Resolution: 7500
Column name: XBridge C18 3.5um, 2.1x150mm, Waters
Retention time: 26.193 min
Base peak: 272.222
Precursor m/z: 272.222
Precursor type: [M+H]+
m/z	relative intensity	assigned
90.0548	999	C3H8NO2+
108.017	8	CH4N2O4+
130.0252	9	C3H4N3O3+
189.2326	18	C11H29N2+
254.2107	84	C15H28NO2+
