Mass spectrum: 3,9-dicyclohex-3-enyl-2,4,8,10-tetraoxaspiro[5.5]undecane; LC-ESI-ITFT; MS2; CE: 35 eV; R=30000; [M+H]+
Name: 3,9-dicyclohex-3-enyl-2,4,8,10-tetraoxaspiro[5.5]undecane
Formula: C19H28O4
Exact mass: 320.1988
SMILES: C1CC(CC=C1)C2OCC3(CO2)COC(OC3)C4CCC=CC4
InChI: InChI=1S/C19H28O4/c1-3-7-15(8-4-1)17-20-11-19(12-21-17)13-22-18(23-14-19)16-9-5-2-6-10-16/h1-3,5,15-18H,4,6-14H2
Instrument: Orbitrap Classic, Thermo Scientific
Instrument type: LC-ESI-ITFT
Ms type: MS2
Ion mode: POSITIVE
Ionization: ESI
Fragmentation mode: CID
Collision energy: 35 eV FT-MS II
Resolution: 30000
Column name: XBridge C18 3.5um, 2.1x150mm, Waters
Retention time: 32.567 min
Base peak: 321.2055
Precursor m/z: 321.206
Precursor type: [M+H]+
m/z	relative intensity	assigned
79.054	1	C6H7+
81.0698	23	C6H9+
95.0854	2	C7H11+
105.0697	2	C8H9+
109.0647	1	C7H9O+
117.0697	1	C9H9+
119.0854	1	C9H11+
125.0959	3	C8H13O+
127.0753	4	C7H11O2+
131.0854	1	C10H11+
133.101	8	C10H13+
135.1168	1	C10H15+
143.0855	1	C11H11+
145.101	2	C11H13+
147.1166	5	C11H15+
159.1168	1	C12H15+
163.112	2	C11H15O+
175.1479	15	C13H19+
179.1064	33	C11H15O2+
181.1218	2	C11H17O2+
185.1322	7	C14H17+
187.1479	4	C14H19+
191.1065	1	C12H15O2+
195.1376	1	C12H19O2+
197.117	4	C11H17O3+
203.1428	7	C14H19O+
209.1171	10	C12H17O3+
211.1325	999	C12H19O3+
223.1327	1	C13H19O3+
227.1273	8	C12H19O4+
229.1427	1	C12H21O4+
249.1631	1	C19H21+
267.1732	1	C19H23O+
273.1839	2	C18H25O2+
285.1841	1	C19H25O2+
303.1949	24	C19H27O3+
