Mass spectrum: Picolinafen; LC-ESI-QTOF; MS2; 120 V
Name: Picolinafen
Class: Herbicide
Formula: C19H12F4N2O2
Exact mass: 376.0835
SMILES: C1=CC(=CC(=C1)OC2=CC=CC(=N2)C(=O)NC3=CC=C(C=C3)F)C(F)(F)F
InChI: InChI=1S/C19H12F4N2O2/c20-13-7-9-14(10-8-13)24-18(26)16-5-2-6-17(25-16)27-15-4-1-3-12(11-15)19(21,22)23/h1-11H,(H,24,26)
Instrument: TripleTOF 6600 SCIEX
Instrument type: LC-ESI-QTOF
Ms type: MS2
Ion mode: POSITIVE
Collision energy: 120
Fragmentation mode: CID
Ionization: ESI
Column name: Zorbax Eclipse Plus C18 2.1 mm x 150 mm, 3.5 um, Agilent
Retention time: 15.501 min
Precursor m/z: 377.0908
Precursor type: [M+H]+
m/z	relative intensity
35.9986	10
37.0065	55
38.0139	46
39.0221	244
50.0146	12
51.0025	53
51.0211	10
57.0127	38
68.9933	114
69.0122	32
73.0051	38
74.0134	462
75.0033	197
75.0209	999
81.0112	42
83.0284	14
92.9922	14
95.0094	20
95.0273	497
98.0129	18
99.0017	93
105.0118	14
107.0257	12
113.0361	42
114.0283	14
114.0437	14
117.0097	16
119.0085	59
122.0113	20
123.0327	130
124.0171	16
125.0174	187
132.0323	14
133.044	26
140.0476	36
143.0306	24
145.0231	236
162.0244	18
182.032	18
