Mass spectrum: Trihexyltetradecylphosphonium; LC-ESI-QTOF; MS2; 150 V
Name: Trihexyltetradecylphosphonium
Formula: [C32H68P]+
Exact mass: 483.5053
SMILES: CCCCCCCCCCCCCC[P+](CCCCCC)(CCCCCC)CCCCCC
InChI: InChI=1S/C32H68P/c1-5-9-13-17-18-19-20-21-22-23-24-28-32-33(29-25-14-10-6-2,30-26-15-11-7-3)31-27-16-12-8-4/h5-32H2,1-4H3/q+1
Instrument: TripleTOF 5600 SCIEX
Instrument type: LC-ESI-QTOF
Ms type: MS2
Ion mode: POSITIVE
Collision energy: 150
Fragmentation mode: CID
Ionization: ESI
Column name: Zorbax Eclipse Plus C18 2.1 mm x 150 mm, 3.5 um, Agilent
Retention time: 17.125 min
Precursor m/z: 483.5053
Precursor type: [M]+
m/z	relative intensity
39.0234	178
41.0392	267
43.0547	85
43.9818	170
44.9895	369
45.9973	467
47.0052	229
48.013	174
55.0548	182
56.9891	476
59.0046	561
61.0203	999
62.0279	718
71.004	93
73.0199	144
74.0272	76
75.0357	752
76.043	624
85.0181	55
87.034	80
88.0406	97
89.0501	157
90.0567	106
101.0503	119
103.0661	136
115.0659	119
117.0814	72
129.0813	76
131.0983	59
