Mass spectrum: Flubendazole; LC-ESI-QTOF; MS2; 80 V
Name: Flubendazole
Class: Pharmaceutical
Formula: C16H12FN3O3
Exact mass: 313.0863
SMILES: COC(=O)Nc1[nH]c2cc(ccc2n1)C(=O)c3ccc(F)cc3
InChI: InChI=1S/C16H12FN3O3/c1-23-16(22)20-15-18-12-7-4-10(8-13(12)19-15)14(21)9-2-5-11(17)6-3-9/h2-8H,1H3,(H2,18,19,20,22)
Instrument: TripleTOF 5600 SCIEX
Instrument type: LC-ESI-QTOF
Ms type: MS2
Ion mode: NEGATIVE
Collision energy: 80
Fragmentation mode: CID
Ionization: ESI
Column name: Zorbax Eclipse Plus C18 2.1 mm x 150 mm, 3.5 um, Agilent
Retention time: 9.113 min
Precursor m/z: 312.079
Precursor type: [M-H]-
m/z	relative intensity
42.0015	116
115.0295	178
129.0329	330
156.0209	67
157.0283	999
