Mass spectrum: Salicylamide; LC-ESI-QTOF; MS2; 60 V
Name: Salicylamide
Formula: C7H7NO2
Exact mass: 137.0477
SMILES: C1=CC=C(C(=C1)C(=O)N)O
InChI: InChI=1S/C7H7NO2/c8-7(10)5-3-1-2-4-6(5)9/h1-4,9H,(H2,8,10)
Instrument: TripleTOF X500R SCIEX
Instrument type: LC-ESI-QTOF
Ms type: MS2
Ion mode: POSITIVE
Collision energy: 60
Fragmentation mode: CID
Ionization: ESI
Column name: Zorbax Eclipse Plus C18 2.1 mm x 150 mm, 3.5 um, Agilent
Retention time: 6.236 min
Precursor m/z: 138.055
Precursor type: [M+H]+
m/z	relative intensity
37.0074	174
38.0152	185
39.0231	999
44.0135	137
50.0155	33
51.0227	107
53.0022	85
63.0236	22
65.0384	163
74.0148	51
75.0225	33
76.0181	25
77.0398	25
