Mass spectrum: Azacyclonol; LC-ESI-QTOF; MS2; 40 V
Name: Azacyclonol
Class: Pharmaceutical
Formula: C18H21NO
Exact mass: 267.1623
SMILES: OC(C1CCNCC1)(C2=CC=CC=C2)C3=CC=CC=C3
InChI: InChI=1S/C18H21NO/c20-18(15-7-3-1-4-8-15,16-9-5-2-6-10-16)17-11-13-19-14-12-17/h1-10,17,19-20H,11-14H2
Instrument: TripleTOF 5600 SCIEX
Instrument type: LC-ESI-QTOF
Ms type: MS2
Ion mode: POSITIVE
Collision energy: 40
Fragmentation mode: CID
Ionization: ESI
Column name: Zorbax Eclipse Plus C18 2.1 mm x 150 mm, 3.5 um, Agilent
Retention time: 6.644 min
Precursor m/z: 268.1696
Precursor type: [M+H]+
m/z	relative intensity
42.0344	11
44.0495	31
56.0494	72
65.0383	37
70.0662	25
77.0388	14
79.0556	14
80.0493	23
82.0653	147
91.0545	999
103.0543	76
105.0701	261
115.0544	111
117.0676	124
127.0543	81
128.0626	511
129.0701	98
130.0646	82
131.0826	17
132.0814	165
141.0697	34
143.086	601
144.0811	19
145.0902	25
152.0621	45
155.0858	12
165.069	84
166.0782	86
167.0862	220
172.1097	11
178.0779	37
179.0871	31
181.1012	107
191.0868	15
192.0935	14
193.1015	10
203.0879	14
204.0931	40
205.1021	24
207.1191	11
250.1594	61
