Mass spectrum: Spirodiclofen-enol; LC-ESI-QTOF; MS2; 40 V
Name: Spirodiclofen-enol
Formula: C15H14Cl2O3
Exact mass: 312.032
SMILES: C1CCC2(CC1)C(=C(C(=O)O2)C3=C(C=C(C=C3)Cl)Cl)O
InChI: InChI=1S/C15H14Cl2O3/c16-9-4-5-10(11(17)8-9)12-13(18)15(20-14(12)19)6-2-1-3-7-15/h4-5,8,18H,1-3,6-7H2
Instrument: TripleTOF 6600 SCIEX
Instrument type: LC-ESI-QTOF
Ms type: MS2
Ion mode: POSITIVE
Collision energy: 40
Fragmentation mode: CID
Ionization: ESI
Column name: Zorbax Eclipse Plus C18 2.1 mm x 150 mm, 3.5 um, Agilent
Retention time: 12.261 min
Precursor m/z: 313.0393
Precursor type: [M+H]+
m/z	relative intensity
67.0541	36
77.0378	10
79.0536	23
81.0696	31
110.9985	24
138.9931	19
139.0035	14
146.9753	21
150.0222	16
156.9601	827
158.9758	453
162.0224	38
165.067	10
166.0171	11
170.9753	27
172.9546	40
172.9916	13
174.9699	84
178.0767	85
179.0851	162
182.9751	30
184.9553	999
186.9697	27
188.0392	15
196.9901	28
198.9694	12
202.9655	37
204.0319	43
208.9909	17
212.95	709
213.0461	10
214.0529	101
214.9649	70
223.007	10
230.9598	193
239.0009	54
242.0464	18
249.0229	45
267.0335	76
277.0156	19
295.0278	184
313.0377	18
