Mass spectrum: Dacarbazine; LC-ESI-QTOF; MS2; 40 V
Name: Dacarbazine
Class: Pharmaceutical
Formula: C6H10N6O
Exact mass: 182.0916
SMILES: CN(C)NN=C1C(=NC=N1)C(=O)N
InChI: InChI=1S/C6H10N6O/c1-12(2)11-10-6-4(5(7)13)8-3-9-6/h3,11H,1-2H3,(H2,7,13)
Instrument: TripleTOF 5600 SCIEX
Instrument type: LC-ESI-QTOF
Ms type: MS2
Ion mode: POSITIVE
Collision energy: 40
Fragmentation mode: CID
Ionization: ESI
Column name: Zorbax Eclipse Plus C18 2.1 mm x 150 mm, 3.5 um, Agilent
Retention time: 4.473 min
Precursor m/z: 183.0989
Precursor type: [M+H]+
m/z	relative intensity
38.0152	20
40.0269	33
42.0431	13
53.0198	148
53.0443	20
55.0343	80
65.0187	999
67.0139	37
67.0331	137
67.0541	23
68.0173	43
68.0417	861
69.0473	20
79.0342	33
80.0388	148
81.0475	26
83.0638	43
93.0094	97
94.0404	23
94.0489	23
95.0253	154
95.0458	50
95.061	53
96.033	47
121.014	87
123.0429	632
