Mass spectrum: O-desmethyl-venlafaxine; LC-ESI-QTOF; MS2; 70 V
Name: O-desmethyl-venlafaxine
Class: Metabolite; Pharmaceutical
Formula: C16H25NO2
Exact mass: 263.1885
SMILES: CN(C)CC(C1=CC=C(C=C1)O)C2(CCCCC2)O
InChI: InChI=1S/C16H25NO2/c1-17(2)12-15(13-6-8-14(18)9-7-13)16(19)10-4-3-5-11-16/h6-9,15,18-19H,3-5,10-12H2,1-2H3
Instrument: TripleTOF 5600 SCIEX
Instrument type: LC-ESI-QTOF
Ms type: MS2
Ion mode: POSITIVE
Collision energy: 70
Fragmentation mode: CID
Ionization: ESI
Column name: Zorbax Eclipse Plus C18 2.1 mm x 150 mm, 3.5 um, Agilent
Retention time: 5.367 min
Precursor m/z: 264.1958
Precursor type: [M+H]+
m/z	relative intensity
42.0484	72
43.0538	25
55.0273	20
56.058	22
58.0748	999
77.0445	622
79.0595	250
81.0393	12
81.0754	93
89.0433	16
91.0575	107
103.0572	90
105.0716	140
107.0511	783
115.0565	152
116.0638	27
119.0502	13
120.0573	22
127.0559	37
128.063	15
131.0507	42
133.0648	36
141.0697	18
144.0576	53
145.0649	13
