Mass spectrum: Metolachlor ESA; LC-ESI-QTOF; MS2; 40 V
Name: Metolachlor ESA
Class: Herbicide; Transformation_product-Metabolite
Formula: C15H23NO5S
Exact mass: 329.1297
SMILES: CCC1=CC=CC(=C1N(C(C)COC)C(=O)CS(=O)(=O)O)C
InChI: InChI=1S/C15H23NO5S/c1-5-13-8-6-7-11(2)15(13)16(12(3)9-21-4)14(17)10-22(18,19)20/h6-8,12H,5,9-10H2,1-4H3,(H,18,19,20)
Instrument: TripleTOF 5600 SCIEX
Instrument type: LC-ESI-QTOF
Ms type: MS2
Ion mode: POSITIVE
Collision energy: 40
Fragmentation mode: CID
Ionization: ESI
Column name: Zorbax Eclipse Plus C18 2.1 mm x 150 mm, 3.5 um, Agilent
Retention time: 8.247 min
Precursor m/z: 330.137
Precursor type: [M+H]+
m/z	relative intensity
73.0689	19
120.0792	16
132.081	54
133.0882	18
134.0961	49
136.1114	39
143.0861	25
144.0795	32
145.0884	47
146.0956	99
148.1127	17
158.0948	43
159.1041	41
160.0748	11
160.1114	494
174.1267	299
175.1351	54
176.1435	187
188.1046	34
202.1223	999
216.14	11
217.1487	10
234.1493	21
280.1042	9
298.1103	383
