Mass spectrum: Dimethomorph; LC-ESI-QTOF; MS2; 50 V
Name: Dimethomorph
Class: Fungicide
Formula: C21H22ClNO4
Exact mass: 387.1237
SMILES: COC1=C(C=C(C=C1)/C(=C/C(=O)N2CCOCC2)/C3=CC=C(C=C3)Cl)OC
InChI: InChI=1S/C21H22ClNO4/c1-25-19-8-5-16(13-20(19)26-2)18(15-3-6-17(22)7-4-15)14-21(24)23-9-11-27-12-10-23/h3-8,13-14H,9-12H2,1-2H3/b18-14+
Instrument: TripleTOF 5600 SCIEX
Instrument type: LC-ESI-QTOF
Ms type: MS2
Ion mode: POSITIVE
Collision energy: 50
Fragmentation mode: CID
Ionization: ESI
Column name: Zorbax Eclipse Plus C18 2.1 mm x 150 mm, 3.5 um, Agilent
Retention time: 11.552 min
Precursor m/z: 388.131
Precursor type: [M+H]+
m/z	relative intensity
70.0323	54
77.0411	16
79.0564	14
109.0646	10
110.9998	30
114.0553	21
122.0369	28
125.0157	71
137.0599	81
138.9951	237
152.0619	17
165.0555	999
167.0855	22
177.0703	12
178.0785	14
194.0733	11
195.0805	45
199.0305	22
215.0258	71
223.0758	66
227.026	48
228.0329	15
229.0417	27
230.0496	10
235.0751	27
238.0985	90
241.042	13
242.0497	215
243.0212	102
251.0705	11
257.0372	49
258.0448	212
266.095	23
270.0448	36
273.0679	173
286.0393	29
301.0627	175
