Mass spectrum: Trifloxystrobin; LC-ESI-QTOF; MS2; 30 V
Name: Trifloxystrobin
Class: Fungicide
Formula: C20H19F3N2O4
Exact mass: 408.1297
SMILES: CC(=NOCC1=CC=CC=C1C(=NOC)C(=O)OC)C2=CC(=CC=C2)C(F)(F)F
InChI: InChI=1S/C20H19F3N2O4/c1-13(14-8-6-9-16(11-14)20(21,22)23)24-29-12-15-7-4-5-10-17(15)18(25-28-3)19(26)27-2/h4-11H,12H2,1-3H3
Instrument: TripleTOF 5600 SCIEX
Instrument type: LC-ESI-QTOF
Ms type: MS2
Ion mode: POSITIVE
Collision energy: 30
Fragmentation mode: CID
Ionization: ESI
Column name: Zorbax Eclipse Plus C18 2.1 mm x 150 mm, 3.5 um, Agilent
Retention time: 15.037 min
Precursor m/z: 409.137
Precursor type: [M+H]+
m/z	relative intensity
89.0429	12
91.0582	22
105.0723	47
116.0507	660
117.0589	34
118.0663	39
119.0516	14
119.0733	14
130.0663	25
131.0739	522
132.0817	371
143.0378	13
145.0268	207
146.0613	175
147.0688	27
148.0766	16
162.0921	70
173.0332	40
175.0637	28
178.0872	18
186.0525	999
206.081	859
