Mass spectrum: Celiprolol; LC-ESI-QTOF; MS2; 40 V
Name: Celiprolol
Class: Pharmaceutical
Formula: C20H33N3O4
Exact mass: 379.2471
InChI: InChI=1S/C20H33N3O4/c1-7-23(8-2)19(26)22-15-9-10-18(17(11-15)14(3)24)27-13-16(25)12-21-20(4,5)6/h9-11,16,21,25H,7-8,12-13H2,1-6H3,(H,22,26)
Instrument: TripleTOF 5600 SCIEX
Instrument type: LC-ESI-QTOF
Ms type: CID
Ion mode: NEGATIVE
Collision energy: 40
Ionization: ESI
Column name: Zorbax Eclipse Plus C18 2.1 mm x 150 mm, 3.5 um, Agilent
Retention time: 6.532 min
Precursor m/z: 378.2398
Precursor type: [M-H]-
m/z	relative intensity
134.0246	60
134.0597	90
149.0494	90
160.0446	45
176.0373	408
176.0716	999
190.0888	348
204.1033	136
219.0785	787
248.1168	575
378.245	348
