Mass spectrum: N-[2-[(2-Bromo-4,6-dinitrophenyl)azo]-5-(diethylamino)phenyl]acetamide; LC-ESI-QTOF; MS2; 60 V
Name: N-[2-[(2-Bromo-4,6-dinitrophenyl)azo]-5-(diethylamino)phenyl]acetamide
Formula: C18H19BrN6O5
Exact mass: 478.06
SMILES: CCN(CC)C1=CC(=C(C=C1)N=NC2=C(C=C(C=C2Br)[N+](=O)[O-])[N+](=O)[O-])NC(=O)C
InChI: InChI=1S/C18H19BrN6O5/c1-4-23(5-2)12-6-7-15(16(9-12)20-11(3)26)21-22-18-14(19)8-13(24(27)28)10-17(18)25(29)30/h6-10H,4-5H2,1-3H3,(H,20,26)
Instrument: TripleTOF X500R SCIEX
Instrument type: LC-ESI-QTOF
Ms type: MS2
Ion mode: POSITIVE
Collision energy: 60
Fragmentation mode: CID
Ionization: ESI
Column name: Zorbax Eclipse Plus C18 2.1 mm x 150 mm, 3.5 um, Agilent
Retention time: 16.579 min
Precursor m/z: 479.0673
Precursor type: [M+H]+
m/z	relative intensity
43.0183	15
93.0574	24
94.0641	11
106.0651	11
107.0604	39
108.0451	34
108.0822	16
109.0759	32
119.0613	21
120.0582	38
121.0768	204
123.0922	11
132.0805	11
133.0658	42
134.0723	170
135.0924	62
136.076	72
145.0773	11
147.0559	15
147.081	29
148.0633	58
148.0877	132
149.0712	10
149.1079	109
150.0933	13
161.0723	15
161.1072	17
162.1029	244
163.0861	300
163.123	99
175.0744	21
176.1185	22
177.1027	264
191.1181	999
194.0752	11
204.1143	32
205.1337	11
222.1111	10
237.1374	10
250.1334	15
265.1452	31
271.9928	14
272.9919	24
273.9837	12
284.9915	14
300.0114	15
300.9927	12
301.029	12
316.033	17
328.0476	18
329.0494	29
344.065	38
345.0472	26
346.0161	12
375.0366	20
376.0416	10
390.0596	13
