Mass spectrum: Azathioprine; LC-ESI-QTOF; MS2; 80 V
Name: Azathioprine
Class: Pharmaceutical
Formula: C9H7N7O2S
Exact mass: 277.0382
SMILES: Cn1cnc(c1Sc2ncnc3nc[nH]c23)[N+]([O-])=O
InChI: InChI=1S/C9H7N7O2S/c1-15-4-14-7(16(17)18)9(15)19-8-5-6(11-2-10-5)12-3-13-8/h2-4H,1H3,(H,10,11,12,13)
Instrument: TripleTOF 5600 SCIEX
Instrument type: LC-ESI-QTOF
Ms type: MS2
Ion mode: NEGATIVE
Collision energy: 80
Fragmentation mode: CID
Ionization: ESI
Column name: Zorbax Eclipse Plus C18 2.1 mm x 150 mm, 3.5 um, Agilent
Retention time: 5.367 min
Precursor m/z: 276.0309
Precursor type: [M-H]-
m/z	relative intensity
42.0013	131
45.9967	709
57.9776	270
64.0078	62
66.0116	62
69.9767	113
81.9763	75
85.9715	251
90.0107	999
111.0031	760
112.0105	69
112.9832	81
117.0218	615
144.0332	56
158.0037	81
