Mass spectrum: 4-Desmethyl-trimethoprim; LC-ESI-QTOF; MS2; 40 V
Name: 4-Desmethyl-trimethoprim
Class: Pharmaceutical
Formula: C13H16N4O3
Exact mass: 276.1222
SMILES: COC1=CC(=CC(=C1O)OC)CC2=CN=C(N=C2N)N
InChI: InChI=1S/C13H16N4O3/c1-19-9-4-7(5-10(20-2)11(9)18)3-8-6-16-13(15)17-12(8)14/h4-6,18H,3H2,1-2H3,(H4,14,15,16,17)
Instrument: TripleTOF 5600 SCIEX
Instrument type: LC-ESI-QTOF
Ms type: MS2
Ion mode: POSITIVE
Collision energy: 40
Fragmentation mode: CID
Ionization: ESI
Column name: Zorbax Eclipse Plus C18 2.1 mm x 150 mm, 3.5 um, Agilent
Retention time: 4.783 min
Precursor m/z: 277.1295
Precursor type: [M+H]+
m/z	relative intensity
81.047	65
110.0586	19
123.0673	367
124.074	11
148.0739	14
173.0809	19
187.098	71
188.1059	28
203.0933	10
215.0921	22
216.0999	81
219.0881	150
231.0876	56
232.0951	52
233.1032	99
243.0875	12
245.1034	39
247.0818	46
259.0821	29
261.0992	999
262.104	67
277.1296	40
