Mass spectrum: Alizarin; LC-ESI-QTOF; MS2; 40 V
Name: Alizarin
Formula: C14H8O4
Exact mass: 240.0423
SMILES: C1=CC=C2C(=C1)C(=O)C3=C(C2=O)C(=C(C=C3)O)O
InChI: InChI=1S/C14H8O4/c15-10-6-5-9-11(14(10)18)13(17)8-4-2-1-3-7(8)12(9)16/h1-6,15,18H
Instrument: TripleTOF X500R SCIEX
Instrument type: LC-ESI-QTOF
Ms type: MS2
Ion mode: POSITIVE
Collision energy: 40
Fragmentation mode: CID
Ionization: ESI
Column name: Zorbax Eclipse Plus C18 2.1 mm x 150 mm, 3.5 um, Agilent
Retention time: 10.763 min
Precursor m/z: 241.0496
Precursor type: [M+H]+
m/z	relative intensity
77.0377	23
105.0328	65
107.0132	53
113.04	29
115.0555	53
127.0552	212
128.0632	821
129.0704	638
137.0254	59
139.0551	993
141.069	35
149.0251	35
157.0656	999
167.0506	396
185.0605	579
195.0439	230
213.056	407
241.0504	916
