Mass spectrum: Picolinafen; LC-ESI-QTOF; MS2; 90 V
Name: Picolinafen
Class: Herbicide
Formula: C19H12F4N2O2
Exact mass: 376.0835
SMILES: C1=CC(=CC(=C1)OC2=CC=CC(=N2)C(=O)NC3=CC=C(C=C3)F)C(F)(F)F
InChI: InChI=1S/C19H12F4N2O2/c20-13-7-9-14(10-8-13)24-18(26)16-5-2-6-17(25-16)27-15-4-1-3-12(11-15)19(21,22)23/h1-11H,(H,24,26)
Instrument: TripleTOF 6600 SCIEX
Instrument type: LC-ESI-QTOF
Ms type: MS2
Ion mode: POSITIVE
Collision energy: 90
Fragmentation mode: CID
Ionization: ESI
Column name: Zorbax Eclipse Plus C18 2.1 mm x 150 mm, 3.5 um, Agilent
Retention time: 15.501 min
Precursor m/z: 377.0908
Precursor type: [M+H]+
m/z	relative intensity
37.0063	33
38.014	21
39.0221	183
68.9921	30
74.0125	114
75.0026	53
75.0214	279
95.0097	11
95.0275	498
99.002	26
113.0349	21
114.0439	19
119.0077	33
123.0324	107
125.0177	202
133.0428	39
140.0477	39
141.0551	12
143.0266	41
145.0233	999
150.0309	14
162.0251	10
163.0347	29
170.0396	16
182.0307	20
189.0376	12
190.0428	21
191.0383	12
238.0447	11
