Mass spectrum: 2-Azaspiro[4.5]decane-1,3-dione; LC-ESI-QTOF; MS2; 30 V
Name: 2-Azaspiro[4.5]decane-1,3-dione
Class: Pharmaceutical
Formula: C9H13NO2
Exact mass: 167.0946
SMILES: C1CCC2(CC1)CC(=O)NC2=O
InChI: InChI=1S/C9H13NO2/c11-7-6-9(8(12)10-7)4-2-1-3-5-9/h1-6H2,(H,10,11,12)
Instrument: TripleTOF 5600 SCIEX
Instrument type: LC-ESI-QTOF
Ms type: MS2
Ion mode: POSITIVE
Collision energy: 30
Fragmentation mode: CID
Ionization: ESI
Column name: Zorbax Eclipse Plus C18 2.1 mm x 150 mm, 3.5 um, Agilent
Retention time: 7.402 min
Precursor m/z: 168.1019
Precursor type: [M+H]+
m/z	relative intensity
44.0252	18
60.0547	16
67.0608	73
77.0463	14
79.0588	170
81.0743	999
93.0735	18
95.0883	370
97.1033	30
98.0988	166
105.0706	37
122.0969	9
123.081	68
140.1071	40
168.1002	37
