Mass spectrum: Metazachlor ESA; LC-ESI-QTOF; MS2; 90 V
Name: Metazachlor ESA
Class: Transformation_product; Herbicide; Metabolite; Transformation_product-Metabolite
Formula: C14H17N3O4S
Exact mass: 323.094
SMILES: Cc1cccc(c1N(Cn2cccn2)C(=O)CS(=O)(=O)O)C
InChI: InChI=1S/C14H17N3O4S/c1-11-5-3-6-12(2)14(11)17(10-16-8-4-7-15-16)13(18)9-22(19,20)21/h3-8H,9-10H2,1-2H3,(H,19,20,21)
Instrument: TripleTOF 6600 SCIEX
Instrument type: LC-ESI-QTOF
Ms type: MS2
Ion mode: NEGATIVE
Collision energy: 90
Fragmentation mode: CID
Ionization: ESI
Column name: Zorbax Eclipse Plus C18 2.1 mm x 150 mm, 3.5 um, Agilent
Retention time: 6.639 min
Precursor m/z: 322.0867
Precursor type: [M-H]-
m/z	relative intensity
40.0198	31
41.0039	41
47.9674	67
63.962	36
65.0144	41
67.0299	574
76.9697	170
79.9569	999
93.9718	98
130.0663	67
