Mass spectrum: Azoxystrobin; LC-ESI-QTOF; MS2; 120 V
Name: Azoxystrobin
Class: Fungicide
Formula: C22H17N3O5
Exact mass: 403.1168
SMILES: COC=C(C1=CC=CC=C1OC2=NC=NC(=C2)OC3=CC=CC=C3C#N)C(=O)OC
InChI: InChI=1S/C22H17N3O5/c1-27-13-17(22(26)28-2)16-8-4-6-10-19(16)30-21-11-20(24-14-25-21)29-18-9-5-3-7-15(18)12-23/h3-11,13-14H,1-2H3
Instrument: TripleTOF 6600 SCIEX
Instrument type: LC-ESI-QTOF
Ms type: MS2
Ion mode: POSITIVE
Collision energy: 120
Fragmentation mode: CID
Ionization: ESI
Column name: Zorbax Eclipse Plus C18 2.1 mm x 150 mm, 3.5 um, Agilent
Retention time: 12.114 min
Precursor m/z: 404.1241
Precursor type: [M+H]+
m/z	relative intensity
39.0221	29
49.0064	35
50.014	159
51.0219	529
52.017	49
53.0012	54
61.006	21
62.014	47
63.0217	201
64.0284	15
65.0372	119
68.0112	12
68.9954	43
69.9912	10
74.0135	126
75.0216	422
76.0174	84
76.0289	108
77.0375	999
78.0316	15
78.0449	42
87.0209	19
88.0164	31
88.0293	33
89.0373	764
90.0327	28
90.0445	24
91.04	63
91.0512	21
92.0248	10
92.0474	19
93.0324	14
99.0212	15
100.0284	29
101.0372	131
102.0324	345
103.0397	49
104.0241	26
104.0477	140
105.0321	47
105.0422	22
113.037	12
114.0323	96
115.0396	43
115.0541	10
116.0481	170
117.0553	14
119.0345	15
120.043	22
126.0324	15
127.0399	77
128.0471	45
129.0428	59
130.0377	206
140.0476	21
142.05	10
144.0427	240
145.0271	14
151.0534	12
153.0443	12
154.0359	15
156.0428	49
163.0522	24
164.047	17
172.0379	99
176.0591	10
177.0552	10
181.0382	12
188.0478	19
189.0552	22
190.0632	54
200.0474	10
201.0567	17
214.0616	12
215.0572	15
216.0678	17
