Mass spectrum: Dasatinib; LC-ESI-QTOF; MS2; 90 V
Name: Dasatinib
Class: Pharmaceutical
Formula: C22H26ClN7O2S
Exact mass: 487.1557
SMILES: Cc1nc(Nc2sc(cn2)C(=O)Nc3c(C)cccc3Cl)cc(n1)N4CCN(CCO)CC4
InChI: InChI=1S/C22H26ClN7O2S/c1-14-4-3-5-16(23)20(14)28-21(32)17-13-24-22(33-17)27-18-12-19(26-15(2)25-18)30-8-6-29(7-9-30)10-11-31/h3-5,12-13,31H,6-11H2,1-2H3,(H,28,32)(H,24,25,26,27)
Instrument: TripleTOF 5600 SCIEX
Instrument type: LC-ESI-QTOF
Ms type: MS2
Ion mode: POSITIVE
Collision energy: 90
Fragmentation mode: CID
Ionization: ESI
Column name: Zorbax Eclipse Plus C18 2.1 mm x 150 mm, 3.5 um, Agilent
Retention time: 7.247 min
Precursor m/z: 488.163
Precursor type: [M+H]+
m/z	relative intensity
81.0488	171
84.999	142
93.0453	142
118.041	171
125.0157	171
134.0693	285
135.0765	256
146.0703	142
150.0129	285
161.0807	999
173.0783	142
175.0864	256
175.9878	171
176.0277	114
176.0935	485
178.0401	114
187.0953	285
191.0396	199
193.0562	228
202.1058	199
205.0508	199
219.067	199
232.0645	285
