Mass spectrum: Aminophenazone; LC-ESI-QTOF; MS2; 70 V
Name: Aminophenazone
Class: Pharmaceutical; Transformation_product-Metabolite
Formula: C13H17N3O
Exact mass: 231.1372
SMILES: CC1=C(C(=O)N(N1C)C2=CC=CC=C2)N(C)C
InChI: InChI=1S/C13H17N3O/c1-10-12(14(2)3)13(17)16(15(10)4)11-8-6-5-7-9-11/h5-9H,1-4H3
Instrument: TripleTOF 5600 SCIEX
Instrument type: LC-ESI-QTOF
Ms type: MS2
Ion mode: POSITIVE
Collision energy: 70
Fragmentation mode: CID
Ionization: ESI
Column name: Zorbax Eclipse Plus C18 2.1 mm x 150 mm, 3.5 um, Agilent
Retention time: 4.71 min
Precursor m/z: 232.1444
Precursor type: [M+H]+
m/z	relative intensity
42.047	104
54.0442	13
55.0494	33
56.059	678
57.0655	24
58.074	381
67.0475	12
68.0563	28
70.0717	147
72.0865	77
77.0443	243
78.0521	11
79.0592	26
81.0483	20
82.0661	17
83.0653	97
91.0594	17
95.0639	17
97.08	999
98.0881	20
104.0513	15
106.0678	70
111.095	20
117.0581	20
118.0661	11
123.057	12
