Mass spectrum: Tris(4-isopropylphenyl) phosphate; LC-ESI-QTOF; MS2; 120 V
Name: Tris(4-isopropylphenyl) phosphate
Class: Industrial_process
Formula: C27H33O4P
Exact mass: 452.2116
SMILES: CC(C)C1=CC=C(C=C1)OP(=O)(OC2=CC=C(C=C2)C(C)C)OC3=CC=C(C=C3)C(C)C
InChI: InChI=1S/C27H33O4P/c1-19(2)22-7-13-25(14-8-22)29-32(28,30-26-15-9-23(10-16-26)20(3)4)31-27-17-11-24(12-18-27)21(5)6/h7-21H,1-6H3
Instrument: TripleTOF 6600 SCIEX
Instrument type: LC-ESI-QTOF
Ms type: MS2
Ion mode: POSITIVE
Collision energy: 120
Fragmentation mode: CID
Ionization: ESI
Column name: Zorbax Eclipse Plus C18 2.1 mm x 150 mm, 3.5 um, Agilent
Retention time: 18.874 min
Precursor m/z: 453.2189
Precursor type: [M+H]+
m/z	relative intensity
39.0226	121
41.0378	121
51.0222	243
65.0381	341
77.0378	657
91.0535	365
103.0531	121
115.0528	219
139.0531	121
150.0463	121
151.053	341
152.0612	999
165.0691	219
168.0548	194
226.0773	268
