Mass spectrum: Indoxacarb; LC-ESI-QTOF; MS2; 60 V
Name: Indoxacarb
Class: Insecticide
Formula: C22H17ClF3N3O7
Exact mass: 527.0707
SMILES: COC(=O)[C@]12Cc3cc(ccc3C1=NN(CO2)C(=O)N(c4ccc(cc4)OC(F)(F)F)C(=O)OC)Cl
InChI: InChI=1S/C22H17ClF3N3O7/c1-33-18(30)21-10-12-9-13(23)3-8-16(12)17(21)27-28(11-35-21)19(31)29(20(32)34-2)14-4-6-15(7-5-14)36-22(24,25)26/h3-9H,10-11H2,1-2H3/t21-/m0/s1
Instrument: TripleTOF 5600 SCIEX
Instrument type: LC-ESI-QTOF
Ms type: MS2
Ion mode: POSITIVE
Collision energy: 60
Fragmentation mode: CID
Ionization: ESI
Column name: Zorbax Eclipse Plus C18 2.1 mm x 150 mm, 3.5 um, Agilent
Retention time: 15.019 min
Precursor m/z: 528.078
Precursor type: [M+H]+
m/z	relative intensity
56.0206	79
59.0182	26
77.0415	19
81.0167	11
90.0351	10
104.0501	75
106.029	20
115.0544	27
116.0621	16
122.9997	24
126.0391	24
127.0425	72
128.0618	46
132.0448	93
134.0243	136
137.0153	19
141.0567	12
142.0646	25
148.0072	16
149.0157	69
150.0111	657
152.0022	21
154.0419	11
155.0601	46
160.0507	10
161.0145	36
162.0111	541
163.0289	47
164.0249	49
165.0334	16
167.0257	87
175.0029	40
175.0215	19
176.0219	36
177.033	58
179.0258	78
189.0212	136
190.0061	219
190.0402	37
195.0208	92
203.0188	999
204.0084	61
207.0208	47
215.0413	14
217.0159	76
218.0419	95
219.0318	69
223.0152	10
230.9949	12
