Mass spectrum: Fluoxastrobin; LC-ESI-QTOF; MS2; 80 V
Name: Fluoxastrobin
Class: Fungicide
Formula: C21H16ClFN4O5
Exact mass: 458.0793
SMILES: CON=C(C1=CC=CC=C1OC2=C(C(=NC=N2)OC3=CC=CC=C3Cl)F)C4=NOCCO4
InChI: InChI=1S/C21H16ClFN4O5/c1-28-26-18(21-27-30-11-10-29-21)13-6-2-4-8-15(13)31-19-17(23)20(25-12-24-19)32-16-9-5-3-7-14(16)22/h2-9,12H,10-11H2,1H3
Instrument: TripleTOF 6600 SCIEX
Instrument type: LC-ESI-QTOF
Ms type: MS2
Ion mode: POSITIVE
Collision energy: 80
Fragmentation mode: CID
Ionization: ESI
Column name: Zorbax Eclipse Plus C18 2.1 mm x 150 mm, 3.5 um, Agilent
Retention time: 13.269 min
Precursor m/z: 459.0866
Precursor type: [M+H]+
m/z	relative intensity
39.0227	19
43.0175	43
45.0328	20
50.0152	10
51.0233	61
62.0133	14
63.0218	64
64.0169	13
64.0309	36
65.0381	106
69.9914	20
73.0069	11
73.0188	14
74.0143	101
75.0222	465
76.0177	33
76.0297	84
77.0377	272
78.0335	54
84.9819	24
89.0382	16
90.0327	213
91.0409	61
92.0251	55
92.049	16
93.0324	57
94.0199	13
95.0289	147
98.9983	54
100.0169	30
101.0261	11
102.0331	638
103.0401	41
104.0348	38
104.0466	26
105.0321	180
106.0245	49
107.0293	124
108.0345	17
110.9984	760
112.0066	21
113.0248	23
114.0325	46
115.0403	82
116.0363	51
117.0432	45
118.0276	20
118.0508	27
119.0348	77
120.0239	11
120.0421	60
121.0306	73
122.0387	149
123.0003	16
123.0343	67
125.0114	11
127.027	21
128.0003	45
128.0346	26
129.0092	16
129.0439	325
130.0383	610
131.024	11
132.0243	130
133.0311	290
134.0401	86
135.0345	14
137.0014	14
137.0266	26
138.0099	175
139.0048	354
139.0516	10
140.036	64
140.9885	73
141.0412	14
141.987	11
142.04	26
143.0042	17
144.0296	48
144.0542	10
145.0379	108
146.0228	62
147.0333	67
147.993	16
148.0325	33
149.0272	125
150.0341	396
151.007	23
151.0537	13
153.0414	16
154.0399	48
154.9891	21
155.0328	11
157.0388	16
158.0245	16
158.0337	13
159.0336	92
160.0419	205
161.0275	114
162.0321	35
163.0029	11
163.045	13
163.9966	20
164.0455	10
166.0393	10
167.9991	134
168.0304	21
169.039	147
170.0365	21
170.0506	29
171.0384	20
173.035	19
174.0448	27
175.0291	90
176.043	43
177.0204	23
177.0564	52
178.0287	64
178.0598	17
178.9969	17
182.0333	17
184.0271	13
185.0351	17
186.0399	21
187.0274	23
187.0491	16
188.0364	999
189.0443	27
189.0584	10
190.065	10
191.0273	11
191.0589	11
192.0324	11
192.0672	13
193.0518	11
194.0346	27
195.0472	17
196.0524	68
197.0619	46
199.0401	13
200.0451	13
201.0411	16
202.0453	35
203.0577	52
204.0555	19
204.0687	10
205.0405	27
205.0752	11
206.0575	11
208.0517	20
212.0427	10
213.0316	13
213.0506	16
214.041	30
215.0591	23
217.0623	16
218.0651	17
221.0456	42
222.052	14
223.0652	51
224.0491	32
225.0581	38
228.0521	17
230.0353	51
230.0685	27
231.0562	32
232.0587	23
235.064	13
239.0411	10
241.052	27
246.0686	13
248.0602	30
249.0686	11
250.0483	64
250.0684	11
251.0604	95
257.0531	16
261.0642	20
263.0617	14
278.073	16
279.0575	61
280.0625	13
290.0699	11
298.0614	11
304.0495	13
306.065	39
