Mass spectrum: N-(1,3-Dimethylbutyl)-N`-phenyl-p-phenylenediamine; LC-ESI-QTOF; MS2; 130 V
Name: N-(1,3-Dimethylbutyl)-N`-phenyl-p-phenylenediamine
Class: Industrial_process
Formula: C18H24N2
Exact mass: 268.1939
SMILES: CC(C)CC(C)NC1=CC=C(C=C1)NC2=CC=CC=C2
InChI: InChI=1S/C18H24N2/c1-14(2)13-15(3)19-17-9-11-18(12-10-17)20-16-7-5-4-6-8-16/h4-12,14-15,19-20H,13H2,1-3H3
Instrument: TripleTOF 6600 SCIEX
Instrument type: LC-ESI-QTOF
Ms type: MS2
Ion mode: POSITIVE
Collision energy: 130
Fragmentation mode: CID
Ionization: ESI
Column name: Zorbax Eclipse Plus C18 2.1 mm x 150 mm, 3.5 um, Agilent
Retention time: 9.189 min
Precursor m/z: 269.2012
Precursor type: [M+H]+
m/z	relative intensity
37.0063	154
38.002	35
38.0145	126
39.0225	548
41.0265	28
41.0376	42
49.0067	91
50.0144	358
51.0222	605
52.0177	112
52.0292	98
53.0379	999
54.0332	182
61.0067	133
62.0143	274
63.0222	619
64.0179	77
64.0295	56
65.0378	253
66.0332	42
66.0459	84
74.0142	98
75.0217	126
76.0182	35
77.0381	281
78.0332	112
78.045	35
79.0418	56
80.0487	999
86.014	91
87.0225	133
88.0167	28
88.0307	56
89.0377	316
90.0334	84
90.0451	35
92.0486	35
98.0153	28
101.0377	56
102.0456	49
103.0519	28
105.0438	49
107.0589	70
113.0377	211
114.043	49
115.053	119
116.0488	49
126.0456	70
127.0531	140
128.0486	42
128.0606	84
137.037	35
138.0458	63
139.0536	281
140.049	168
154.0659	49
164.0487	42
166.064	77
167.0701	28
