Mass spectrum: 2-Phenyl-2-imidazoline; LC-ESI-QTOF; MS2; 70 V
Name: 2-Phenyl-2-imidazoline
Class: Pharmaceutical; Industrial_process
Formula: C9H10N2
Exact mass: 146.0844
SMILES: C1CN=C(N1)C2=CC=CC=C2
InChI: InChI=1S/C9H10N2/c1-2-4-8(5-3-1)9-10-6-7-11-9/h1-5H,6-7H2,(H,10,11)
Instrument: TripleTOF 5600 SCIEX
Instrument type: LC-ESI-QTOF
Ms type: MS2
Ion mode: POSITIVE
Collision energy: 70
Fragmentation mode: CID
Ionization: ESI
Column name: Zorbax Eclipse Plus C18 2.1 mm x 150 mm, 3.5 um, Agilent
Retention time: 4.346 min
Precursor m/z: 147.0917
Precursor type: [M+H]+
m/z	relative intensity
51.0227	982
65.0383	15
74.0131	13
75.023	11
77.0383	999
104.0491	55
