Mass spectrum: Thiamine Disulfide; LC-ESI-QTOF; MS2; 100 V
Name: Thiamine Disulfide
Class: Pharmaceutical
Formula: C24H34N8O4S2
Exact mass: 562.2144
SMILES: CC1=NC=C(C(=N1)N)CN(C=O)C(=C(CCO)SSC(=C(C)N(CC2=CN=C(N=C2N)C)C=O)CCO)C
InChI: InChI=1S/C24H34N8O4S2/c1-15(31(13-35)11-19-9-27-17(3)29-23(19)25)21(5-7-33)37-38-22(6-8-34)16(2)32(14-36)12-20-10-28-18(4)30-24(20)26/h9-10,13-14,33-34H,5-8,11-12H2,1-4H3,(H2,25,27,29)(H2,26,28,30)
Instrument: TripleTOF 6600 SCIEX
Instrument type: LC-ESI-QTOF
Ms type: MS2
Ion mode: POSITIVE
Collision energy: 100
Fragmentation mode: CID
Ionization: ESI
Column name: Zorbax Eclipse Plus C18 2.1 mm x 150 mm, 3.5 um, Agilent
Retention time: 4.48 min
Precursor m/z: 563.2217
Precursor type: [M+H]+
m/z	relative intensity
42.0331	83
54.0326	118
55.041	204
66.0331	89
69.0439	191
80.0486	30
81.0439	298
82.0516	395
83.0591	89
85.0641	15
87.0261	10
93.0437	92
95.0585	19
96.0548	83
97.0746	18
99.0247	10
102.0377	12
105.0436	14
107.0595	151
108.0553	53
109.0615	34
110.0703	866
112.0208	15
113.0282	86
114.0365	31
115.0203	18
117.043	15
118.0655	12
119.0598	11
122.0704	183
123.0784	999
124.086	441
126.0359	70
131.0594	14
132.0688	11
133.0757	21
134.0707	21
135.0655	17
136.0848	14
137.0805	44
138.0648	11
139.0967	11
144.0472	203
145.0748	46
146.0712	17
147.0763	28
148.0873	29
149.0834	14
154.0425	12
160.0863	32
161.081	21
162.0896	45
163.0868	31
165.0462	17
172.0862	15
173.0936	50
174.101	26
175.0327	12
175.0963	12
176.1116	12
186.103	17
189.1123	48
199.0964	23
204.1134	31
232.0758	10
233.0857	10
263.0964	11
