Mass spectrum: Flurtamone; LC-ESI-QTOF; MS2; 60 V
Name: Flurtamone
Class: Herbicide
Formula: C18H14F3NO2
Exact mass: 333.0977
SMILES: CNC1=C(C(=O)C(O1)C2=CC=CC=C2)C3=CC(=CC=C3)C(F)(F)F
InChI: InChI=1S/C18H14F3NO2/c1-22-17-14(12-8-5-9-13(10-12)18(19,20)21)15(23)16(24-17)11-6-3-2-4-7-11/h2-10,16,22H,1H3
Instrument: TripleTOF 6600 SCIEX
Instrument type: LC-ESI-QTOF
Ms type: MS2
Ion mode: POSITIVE
Collision energy: 60
Fragmentation mode: CID
Ionization: ESI
Column name: Zorbax Eclipse Plus C18 2.1 mm x 150 mm, 3.5 um, Agilent
Retention time: 11.864 min
Precursor m/z: 334.105
Precursor type: [M+H]+
m/z	relative intensity
58.0288	25
77.0388	109
103.0542	14
105.0341	95
120.0809	24
151.0373	20
152.0626	30
169.0267	21
176.0628	22
177.0707	35
178.079	999
196.0691	21
197.0222	16
201.0521	18
207.062	213
209.0774	10
225.0522	16
227.0683	476
246.0669	59
247.0746	64
