Mass spectrum: Sudan I; LC-ESI-QTOF; MS2; 40 V
Name: Sudan I
Formula: C16H12N2O
Exact mass: 248.095
SMILES: C1=CC=C(C=C1)N=NC2=C(C=CC3=CC=CC=C32)O
InChI: InChI=1S/C16H12N2O/c19-15-11-10-12-6-4-5-9-14(12)16(15)18-17-13-7-2-1-3-8-13/h1-11,19H
Instrument: TripleTOF 6600 SCIEX
Instrument type: LC-ESI-QTOF
Ms type: MS2
Ion mode: POSITIVE
Collision energy: 40
Fragmentation mode: CID
Ionization: ESI
Column name: Zorbax Eclipse Plus C18 2.1 mm x 150 mm, 3.5 um, Agilent
Retention time: 15.674 min
Precursor m/z: 249.1023
Precursor type: [M+H]+
m/z	relative intensity
65.0386	16
66.0462	39
75.0228	16
77.0386	50
92.0496	34
93.0576	999
101.0386	88
128.0497	517
129.0446	77
156.0443	111
204.0817	43
219.0921	13
231.0924	269
232.0988	160
233.0856	14
248.0964	15
