Mass spectrum: Salbutamol; LC-ESI-QTOF; MS2; 100 V
Name: Salbutamol
Class: Pharmaceutical
Formula: C13H21NO3
Exact mass: 239.1521
SMILES: CC(C)(NCC(c1cc(CO)c(O)cc1)O)C
InChI: InChI=1S/C13H21NO3/c1-13(2,3)14-7-12(17)9-4-5-11(16)10(6-9)8-15/h4-6,12,14-17H,7-8H2,1-3H3
Instrument: TripleTOF 5600 SCIEX
Instrument type: LC-ESI-QTOF
Ms type: CID
Ion mode: POSITIVE
Collision energy: 100
Ionization: ESI
Column name: Zorbax Eclipse Plus C18 2.1 mm x 150 mm, 3.5 um, Agilent
Retention time: 4.69 min
Precursor m/z: 240.1594
Precursor type: [M+H]+
m/z	relative intensity
53.0432	33
57.0752	133
58.0704	57
65.0427	530
74.0166	23
75.0247	28
77.0411	999
77.0762	33
78.035	23
78.0478	105
79.0446	19
79.054	23
80.0525	109
89.0397	148
90.0495	57
91.0553	583
102.0468	38
103.056	43
104.0504	81
105.0328	33
107.0482	38
117.0558	71
118.0643	38
130.0593	19
