Mass spectrum: Didesmethyl-citalopram; LC-ESI-QTOF; MS2; 40 V
Name: Didesmethyl-citalopram
Class: Pharmaceutical; Metabolite
Formula: C18H17FN2O
Exact mass: 296.1325
SMILES: c1cc(ccc1C2(c3ccc(cc3CO2)C#N)CCCN)F
InChI: InChI=1S/C18H17FN2O/c19-16-5-3-15(4-6-16)18(8-1-9-20)17-7-2-13(11-21)10-14(17)12-22-18/h2-7,10H,1,8-9,12,20H2
Instrument: TripleTOF 5600 SCIEX
Instrument type: LC-ESI-QTOF
Ms type: MS2
Ion mode: POSITIVE
Collision energy: 40
Fragmentation mode: CID
Ionization: ESI
Column name: Zorbax Eclipse Plus C18 2.1 mm x 150 mm, 3.5 um, Agilent
Retention time: 7.575 min
Precursor m/z: 297.1398
Precursor type: [M+H]+
m/z	relative intensity
83.0317	58
89.0402	35
109.0449	999
116.0494	200
133.045	11
139.0541	12
140.0494	40
142.0616	14
154.0642	10
156.0814	19
166.0651	83
183.0909	34
190.0651	12
202.0786	14
207.0601	27
208.0567	37
214.067	27
215.0854	52
218.0594	11
219.0623	15
220.0683	67
221.0642	150
222.0719	41
226.0653	22
227.0734	170
232.0567	16
233.0732	54
234.0724	328
235.0883	56
236.0868	12
238.0673	15
240.0813	64
241.0899	42
242.0964	58
244.0685	15
245.0674	51
246.0719	174
247.0799	264
250.1014	19
258.0699	11
259.0805	11
260.087	43
261.0956	43
262.1033	276
279.1298	107
280.1139	13
297.142	14
