Mass spectrum: Phenothiazine; LC-ESI-QTOF; MS2; 140 V
Name: Phenothiazine
Class: Pharmaceutical
Formula: C12H9NS
Exact mass: 199.0456
SMILES: C1=CC=C2C(=C1)NC3=CC=CC=C3S2
InChI: InChI=1S/C12H9NS/c1-3-7-11-9(5-1)13-10-6-2-4-8-12(10)14-11/h1-8,13H
Instrument: TripleTOF 6600 SCIEX
Instrument type: LC-ESI-QTOF
Ms type: MS2
Ion mode: POSITIVE
Collision energy: 140
Fragmentation mode: CID
Ionization: ESI
Column name: Zorbax Eclipse Plus C18 2.1 mm x 150 mm, 3.5 um, Agilent
Retention time: 13.113 min
Precursor m/z: 200.0529
Precursor type: [M+H]+
m/z	relative intensity
35.9985	52
37.0066	255
38.0142	145
39.0222	226
43.9701	23
44.9782	139
49.0063	272
50.0142	999
51.0217	476
52.0169	29
59.9988	127
61.006	656
62.0137	737
63.0218	528
67.9701	127
68.9779	673
69.9798	23
73.0058	162
74.0139	662
75.0093	29
75.0211	121
76.0173	34
77.0368	29
80.9776	34
81.9855	23
83.9974	52
85.006	313
86.0135	319
87.0209	110
88.0172	34
89.0366	46
91.9711	29
92.9776	46
97.0055	40
98.0131	197
99.0203	34
109.0057	40
