Mass spectrum: Crotamiton; LC-ESI-QTOF; MS2; 60 V
Name: Crotamiton
Formula: C13H17NO
Exact mass: 203.131
SMILES: CCN(C1=CC=CC=C1C)C(=O)C=CC
InChI: InChI=1S/C13H17NO/c1-4-8-13(15)14(5-2)12-10-7-6-9-11(12)3/h4,6-10H,5H2,1-3H3
Instrument: TripleTOF 6600 SCIEX
Instrument type: LC-ESI-QTOF
Ms type: MS2
Ion mode: POSITIVE
Collision energy: 60
Fragmentation mode: CID
Ionization: ESI
Column name: Zorbax Eclipse Plus C18 2.1 mm x 150 mm, 3.5 um, Agilent
Retention time: 11.073 min
Precursor m/z: 204.1383
Precursor type: [M+H]+
m/z	relative intensity
37.0073	62
38.0152	62
39.0234	738
41.039	718
51.0228	14
63.0226	13
65.0386	250
66.0456	26
68.049	65
69.0336	383
77.0385	227
78.0455	14
79.0541	98
89.038	31
90.0461	13
91.0541	426
92.0487	13
93.0571	369
103.0535	15
104.0492	17
106.0652	999
107.072	61
108.0801	18
115.0537	45
116.0496	17
117.0567	43
118.0646	44
119.0733	10
120.0796	20
128.0495	15
130.0642	21
