Mass spectrum: 2-p-Tolyl-1H-benzoimidazole; LC-ESI-QTOF; MS2; 120 V
Name: 2-p-Tolyl-1H-benzoimidazole
Class: Pharmaceutical
Formula: C14H12N2
Exact mass: 208.1
SMILES: CC1=CC=C(C=C1)C2=NC3=CC=CC=C3N2
InChI: InChI=1S/C14H12N2/c1-10-6-8-11(9-7-10)14-15-12-4-2-3-5-13(12)16-14/h2-9H,1H3,(H,15,16)
Instrument: TripleTOF 5600 SCIEX
Instrument type: LC-ESI-QTOF
Ms type: MS2
Ion mode: POSITIVE
Collision energy: 120
Fragmentation mode: CID
Ionization: ESI
Column name: Zorbax Eclipse Plus C18 2.1 mm x 150 mm, 3.5 um, Agilent
Retention time: 6.061 min
Precursor m/z: 209.1073
Precursor type: [M+H]+
m/z	relative intensity
52.0289	211
64.0359	107
65.0455	999
73.0114	28
74.0208	229
75.0263	131
76.0227	56
76.0358	51
77.0436	173
85.0153	23
86.0178	79
87.0267	89
88.0215	23
88.0366	28
89.0424	196
90.0409	18
91.044	32
98.0156	46
99.0261	28
100.0196	18
102.0437	42
111.0212	28
113.0411	60
114.0345	32
126.043	23
137.0379	56
138.0338	18
139.0539	32
140.0522	42
150.0483	70
151.0494	23
164.0549	18
