Mass spectrum: Michler`s ketone; LC-ESI-QTOF; MS2; 40 V
Name: Michler`s ketone
Formula: C17H20N2O
Exact mass: 268.1576
SMILES: CN(C)C1=CC=C(C=C1)C(=O)C2=CC=C(C=C2)N(C)C
InChI: InChI=1S/C17H20N2O/c1-18(2)15-9-5-13(6-10-15)17(20)14-7-11-16(12-8-14)19(3)4/h5-12H,1-4H3
Instrument: TripleTOF X500R SCIEX
Instrument type: LC-ESI-QTOF
Ms type: MS2
Ion mode: POSITIVE
Collision energy: 40
Fragmentation mode: CID
Ionization: ESI
Column name: Zorbax Eclipse Plus C18 2.1 mm x 150 mm, 3.5 um, Agilent
Retention time: 12.383 min
Precursor m/z: 269.1649
Precursor type: [M+H]+
m/z	relative intensity
42.034	37
77.0393	24
79.0543	26
91.0548	36
92.0557	12
93.0702	17
103.0539	14
104.0497	23
105.0576	67
106.0647	10
118.0656	23
119.0732	12
120.0809	137
134.0604	106
148.0752	999
181.0884	11
209.0837	19
210.0918	183
224.1077	108
237.1023	18
237.1389	116
238.1118	15
239.1184	15
253.1335	193
254.1413	197
269.1646	141
