Mass spectrum: 4,4`-Thiodianiline; LC-ESI-QTOF; MS2; 110 V
Name: 4,4`-Thiodianiline
Formula: C12H12N2S
Exact mass: 216.0721
SMILES: C1=CC(=CC=C1N)SC2=CC=C(C=C2)N
InChI: InChI=1S/C12H12N2S/c13-9-1-5-11(6-2-9)15-12-7-3-10(14)4-8-12/h1-8H,13-14H2
Instrument: TripleTOF 6600 SCIEX
Instrument type: LC-ESI-QTOF
Ms type: MS2
Ion mode: POSITIVE
Collision energy: 110
Fragmentation mode: CID
Ionization: ESI
Column name: Zorbax Eclipse Plus C18 2.1 mm x 150 mm, 3.5 um, Agilent
Retention time: 6.429 min
Precursor m/z: 217.0794
Precursor type: [M+H]+
m/z	relative intensity
37.0072	104
39.0221	353
44.9791	166
49.0065	145
50.0142	999
51.0222	353
53.0378	478
54.0339	124
61.006	166
62.0141	249
63.0225	541
65.0373	208
67.97	83
68.9783	686
73.008	104
74.0148	374
75.0219	291
76.0287	187
77.0377	270
79.0417	104
80.0477	437
81.9866	145
86.0141	291
87.0212	249
89.0362	353
94.9951	83
98.0144	124
113.036	166
122.0077	124
123.014	124
126.0473	228
