Mass spectrum: 2-[(4-hydroxy-9,10-dioxoanthracen-1-yl)amino]-5-methylbenzenesulfonic acid; LC-ESI-QTOF; MS2; 70 V
Name: 2-[(4-hydroxy-9,10-dioxoanthracen-1-yl)amino]-5-methylbenzenesulfonic acid
Formula: C21H15NO6S
Exact mass: 409.062
SMILES: CC1=CC(=C(C=C1)NC2=C3C(=C(C=C2)O)C(=O)C4=CC=CC=C4C3=O)S(=O)(=O)O
InChI: InChI=1S/C21H15NO6S/c1-11-6-7-14(17(10-11)29(26,27)28)22-15-8-9-16(23)19-18(15)20(24)12-4-2-3-5-13(12)21(19)25/h2-10,22-23H,1H3,(H,26,27,28)
Instrument: TripleTOF X500R SCIEX
Instrument type: LC-ESI-QTOF
Ms type: MS2
Ion mode: POSITIVE
Collision energy: 70
Fragmentation mode: CID
Ionization: ESI
Column name: Zorbax Eclipse Plus C18 2.1 mm x 150 mm, 3.5 um, Agilent
Retention time: 11.683 min
Precursor m/z: 410.0693
Precursor type: [M+H]+
m/z	relative intensity
152.0618	92
153.0728	55
180.0821	37
201.0701	111
202.0784	277
203.0731	55
215.0865	64
216.087	46
226.0771	185
227.0737	222
228.0814	999
229.0894	573
230.0998	55
238.0631	64
239.0739	212
240.0798	138
241.089	138
242.0966	157
243.1011	129
244.1145	175
252.083	240
253.0879	323
254.0982	277
255.0854	37
255.102	37
256.075	536
257.0849	370
270.0935	64
281.0834	92
282.0958	148
283.098	83
284.0713	166
285.0801	351
286.0898	55
298.0872	92
300.0712	55
312.0682	277
312.0978	64
313.0767	481
314.0785	46
326.0828	249
327.087	92
342.0777	231
343.084	64
