Mass spectrum: Clothianidin; LC-ESI-QTOF; MS2; 70 V
Name: Clothianidin
Class: Insecticide
Formula: C6H8ClN5O2S
Exact mass: 249.0087
SMILES: CN=C(NCc1sc(Cl)nc1)N[N+]([O-])=O
InChI: InChI=1S/C6H8ClN5O2S/c1-8-6(11-12(13)14)10-3-4-2-9-5(7)15-4/h2H,3H2,1H3,(H2,8,10,11)
Instrument: TripleTOF 5600 SCIEX
Instrument type: LC-ESI-QTOF
Ms type: MS2
Ion mode: POSITIVE
Collision energy: 70
Fragmentation mode: CID
Ionization: ESI
Column name: Zorbax Eclipse Plus C18 2.1 mm x 150 mm, 3.5 um, Agilent
Retention time: 6.736 min
Precursor m/z: 250.016
Precursor type: [M+H]+
m/z	relative intensity
54.0397	249
57.0503	178
59	214
69.0472	214
69.0593	178
71.0008	570
83.0621	214
83.992	356
86.0069	784
87.9949	142
96.0557	856
98.0034	142
108.0557	142
110.071	999
111.0778	214
113.0161	606
118.9594	214
131.9653	642
132.9716	142
