Mass spectrum: Candesartan; LC-ESI-QTOF; MS2; 150 V
Name: Candesartan
Class: Pharmaceutical
Formula: C24H20N6O3
Exact mass: 440.1597
SMILES: CCOc1nc2cccc(C(O)=O)c2n1Cc3ccc(cc3)c4ccccc4c5n[nH]nn5
InChI: InChI=1S/C24H20N6O3/c1-2-33-24-25-20-9-5-8-19(23(31)32)21(20)30(24)14-15-10-12-16(13-11-15)17-6-3-4-7-18(17)22-26-28-29-27-22/h3-13H,2,14H2,1H3,(H,31,32)(H,26,27,28,29)
Instrument: TripleTOF 5600 SCIEX
Instrument type: LC-ESI-QTOF
Ms type: MS2
Ion mode: POSITIVE
Collision energy: 150
Fragmentation mode: CID
Ionization: ESI
Column name: Zorbax Eclipse Plus C18 2.1 mm x 150 mm, 3.5 um, Agilent
Retention time: 10.001 min
Precursor m/z: 441.167
Precursor type: [M+H]+
m/z	relative intensity
65.0419	47
74.0181	49
75.0259	102
76.0347	36
77.0417	211
78.0362	77
78.049	35
80.0513	11
86.0168	19
87.0246	78
88.0213	17
88.0341	28
89.0401	139
90.0354	26
91.0563	18
98.0157	49
99.0236	49
100.0309	31
101.0391	68
102.0463	81
105.046	80
111.0229	18
113.0383	165
114.0338	31
114.0465	26
115.0547	198
116.0494	10
123.0226	17
124.0315	17
125.039	76
126.0469	248
127.0546	129
128.0503	23
128.0627	40
137.0384	114
138.0452	82
139.0545	259
140.0498	194
149.0384	74
150.0471	764
151.0554	999
152.0624	631
153.0585	39
161.0392	60
162.0472	131
163.0551	752
164.0555	475
165.0464	13
165.0706	228
166.0654	15
174.0462	26
175.0502	63
176.0624	370
177.0578	259
178.0655	133
179.0625	10
187.053	18
188.0501	194
189.0588	106
190.0657	236
191.0723	28
201.0614	10
202.0624	13
203.0607	15
205.0758	36
214.0642	11
224.0625	23
225.0592	18
226.0745	18
238.0673	27
239.0625	10
249.0583	13
251.0715	14
262.0671	11
264.0719	14
265.0802	13
