Mass spectrum: Rifaximin; LC-ESI-QTOF; MS2; 130 V
Name: Rifaximin
Class: Pharmaceutical
Formula: C43H51N3O11
Exact mass: 785.3524
SMILES: CC1C=CC=C(C(=O)NC2=C(C3=C(C4=C(C(=C3O)C)OC(C4=O)(OC=CC(C(C(C(C(C(C1O)C)O)C)OC(=O)C)C)OC)C)C5=C2N6C=CC(=CC6=N5)C)O)C
InChI: InChI=1S/C43H51N3O11/c1-19-14-16-46-28(18-19)44-32-29-30-37(50)25(7)40-31(29)41(52)43(9,57-40)55-17-15-27(54-10)22(4)39(56-26(8)47)24(6)36(49)23(5)35(48)20(2)12-11-13-21(3)42(53)45-33(34(32)46)38(30)51/h11-18,20,22-24,27,35-36,39,48-51H,1-10H3,(H,45,53)
Instrument: TripleTOF 6600 SCIEX
Instrument type: LC-ESI-QTOF
Ms type: MS2
Ion mode: POSITIVE
Collision energy: 130
Fragmentation mode: CID
Ionization: ESI
Column name: Zorbax Eclipse Plus C18 2.1 mm x 150 mm, 3.5 um, Agilent
Retention time: 11.765 min
Precursor m/z: 786.3597
Precursor type: [M+H]+
m/z	relative intensity
39.0226	56
41.0375	113
43.017	271
43.0534	37
53.0374	37
55.0532	221
57.0327	44
59.0488	44
65.0372	208
67.0531	505
69.0325	94
69.0688	107
77.0374	404
79.053	410
80.0593	44
81.0687	208
83.0479	63
91.053	999
92.0484	69
93.0687	385
95.048	284
95.0846	714
97.0635	101
103.0528	113
104.0619	31
105.0412	37
105.0683	727
107.0481	75
107.0841	373
108.0553	132
109.0633	271
109.0995	82
111.0786	50
115.0529	196
116.0601	63
117.0684	202
118.0774	44
119.0583	37
119.0846	278
120.0919	25
121.0637	132
121.0997	50
122.0711	25
123.0786	246
127.0519	44
128.0618	139
129.0686	164
130.0763	177
131.0847	69
133.0634	94
133.0995	94
135.0796	158
135.1158	31
136.0846	31
141.0691	113
142.0765	107
143.0843	120
144.0932	56
145.0637	50
145.0999	120
147.0779	69
147.1144	31
148.0875	101
149.0971	50
151.073	31
152.0613	25
153.0691	107
154.076	25
155.0843	113
156.0921	69
157.0988	56
158.0705	37
159.08	37
159.1165	37
160.0868	31
163.1105	208
165.0682	88
167.0841	37
169.0999	31
170.109	25
171.0812	44
173.0942	44
175.1094	31
178.0746	31
179.0845	37
183.08	25
192.0928	56
193.1011	50
195.079	31
205.0738	31
206.0812	56
207.0895	37
208.0948	50
209.0945	31
216.0707	31
218.0824	101
219.0896	259
220.0972	177
221.1073	113
223.0824	50
230.0827	44
231.0937	63
232.0981	101
233.1054	139
234.1022	183
235.0855	82
235.115	44
236.0895	94
237.1011	25
243.0895	101
244.094	63
245.1028	132
246.1027	31
247.0858	196
247.1097	25
248.093	233
249.1011	221
250.1006	31
251.0761	37
255.089	56
256.0965	31
257.0921	50
258.1021	82
259.0844	44
259.1027	37
260.1178	69
261.1026	233
262.0981	183
263.0796	37
263.1117	170
264.0833	101
264.1147	94
265.0904	94
266.0899	50
267.0888	25
270.0981	37
271.0886	75
272.0935	94
272.1159	25
273.0669	31
273.1004	189
274.1005	94
275.0801	82
275.1019	25
276.0881	158
276.1122	94
277.0964	278
278.0972	69
278.1278	56
279.1022	69
285.1015	37
286.0978	82
287.0823	63
288.0847	50
288.1128	113
289.0947	208
290.0938	278
291.074	31
291.1041	303
292.0744	31
292.108	290
293.1186	37
299.0806	44
300.0904	56
301.0977	189
302.0723	25
302.0939	120
303.0772	44
303.0996	25
303.1125	37
304.0823	63
304.1091	75
305.0933	82
306.0824	31
306.1234	196
307.1076	75
308.1163	37
312.0913	31
315.0979	132
316.0664	31
316.1085	164
317.0915	303
318.091	101
319.1055	183
320.1042	63
322.1289	44
326.0887	50
327.1094	50
329.0941	126
329.1118	37
330.0936	69
330.1211	44
331.111	69
332.1035	341
333.0877	31
334.1179	196
335.1053	37
335.1374	31
337.1182	25
338.1284	25
341.1141	37
342.0877	31
343.1027	37
343.1278	31
344.1035	208
345.0858	221
345.1173	56
346.0938	265
346.1224	25
347.1009	265
348.102	69
348.1457	82
350.1343	25
353.0745	25
355.1149	63
356.0987	31
358.108	101
359.1033	37
360.0976	398
360.1495	25
361.1043	227
362.1128	373
363.1352	44
364.1131	31
366.1243	50
367.1267	56
368.1388	25
370.0855	25
370.1181	31
371.0987	63
372.0983	82
373.1037	44
374.122	56
377.1283	31
377.1566	63
380.1048	31
380.1382	31
385.1061	50
387.1247	44
388.1404	25
392.1435	31
396.0976	25
396.1342	44
396.1714	25
398.1158	126
399.1321	37
400.1267	82
406.1573	25
407.1322	37
409.1391	25
410.1194	44
410.1509	50
412.1334	88
418.1248	25
419.1246	37
422.1146	44
422.1507	63
424.1296	56
432.1293	82
433.1437	69
435.1217	101
436.1288	120
437.1401	50
438.1443	120
446.145	56
448.1336	94
448.1656	69
450.1442	164
452.1641	69
464.1614	75
466.1796	25
476.1614	25
