Mass spectrum: Flurtamone; LC-ESI-QTOF; MS2; 130 V
Name: Flurtamone
Class: Herbicide
Formula: C18H14F3NO2
Exact mass: 333.0977
SMILES: CNC1=C(C(=O)C(O1)C2=CC=CC=C2)C3=CC(=CC=C3)C(F)(F)F
InChI: InChI=1S/C18H14F3NO2/c1-22-17-14(12-8-5-9-13(10-12)18(19,20)21)15(23)16(24-17)11-6-3-2-4-7-11/h2-10,16,22H,1H3
Instrument: TripleTOF 6600 SCIEX
Instrument type: LC-ESI-QTOF
Ms type: MS2
Ion mode: POSITIVE
Collision energy: 130
Fragmentation mode: CID
Ionization: ESI
Column name: Zorbax Eclipse Plus C18 2.1 mm x 150 mm, 3.5 um, Agilent
Retention time: 11.864 min
Precursor m/z: 334.105
Precursor type: [M+H]+
m/z	relative intensity
39.0227	16
42.0336	16
49.007	40
50.0151	214
51.0228	401
57.0131	18
58.0284	11
61.0069	21
62.0148	33
63.0226	75
65.0383	22
68.9942	15
73.0073	14
74.0151	171
75.022	156
76.0304	83
77.0386	279
78.0459	30
81.0129	20
83.0288	14
85.0069	17
86.0149	47
87.0228	61
89.0384	81
95.0285	11
97.0068	11
98.0152	167
99.0085	14
99.0225	88
100.0303	27
101.0384	23
102.0463	122
105.0134	13
107.0289	25
109.0072	10
110.0147	36
111.0228	30
113.0381	31
115.0542	35
122.0149	35
123.023	32
124.0301	16
125.0382	87
126.0465	215
127.0537	55
128.0617	47
131.0292	13
133.0443	12
137.0386	34
138.046	16
139.054	63
144.037	13
149.0385	122
150.0468	999
151.0542	609
152.0622	174
155.0289	13
157.0437	13
161.0385	38
162.0465	30
163.0546	55
168.0368	27
169.0444	24
170.0528	20
174.0467	153
175.0543	180
176.0627	727
177.0697	21
179.03	43
179.0591	16
180.0373	30
181.0446	59
185.0394	33
186.0463	27
187.0545	53
194.0532	36
199.0356	39
203.03	27
204.038	49
205.0455	196
206.0526	18
207.061	17
223.0357	51
224.0449	16
225.0516	28
