Mass spectrum: Haloxyfop; LC-ESI-QTOF; MS2; 80 V
Name: Haloxyfop
Class: Herbicide
Formula: C15H11ClF3NO4
Exact mass: 361.0329
SMILES: CC(C(=O)O)OC1=CC=C(C=C1)OC2=C(C=C(C=N2)C(F)(F)F)Cl
InChI: InChI=1S/C15H11ClF3NO4/c1-8(14(21)22)23-10-2-4-11(5-3-10)24-13-12(16)6-9(7-20-13)15(17,18)19/h2-8H,1H3,(H,21,22)
Instrument: TripleTOF 5600 SCIEX
Instrument type: LC-ESI-QTOF
Ms type: MS2
Ion mode: POSITIVE
Collision energy: 80
Fragmentation mode: CID
Ionization: ESI
Column name: Zorbax Eclipse Plus C18 2.1 mm x 150 mm, 3.5 um, Agilent
Retention time: 12.921 min
Precursor m/z: 362.0401
Precursor type: [M+H]+
m/z	relative intensity
65.0424	849
75.0274	749
81.0359	299
91.056	749
92.028	299
140.0489	499
158.0422	549
159.9771	599
168.0455	199
179.9818	849
188.0316	249
189.0372	249
190.0474	499
198.0583	199
208.0369	249
209.0446	549
216.0291	299
232.0194	299
260.0081	249
269.9939	499
272.01	299
288.0046	999
