Mass spectrum: 3-Acetamidophenol; LC-ESI-QTOF; MS2; 10 V
Name: 3-Acetamidophenol
Class: Pharmaceutical
Formula: C8H9NO2
Exact mass: 151.0633
SMILES: CC(=O)Nc1cccc(O)c1
InChI: InChI=1S/C8H9NO2/c1-6(10)9-7-3-2-4-8(11)5-7/h2-5,11H,1H3,(H,9,10)
Instrument: TripleTOF 5600 SCIEX
Instrument type: LC-ESI-QTOF
Ms type: MS2
Ion mode: POSITIVE
Collision energy: 10
Fragmentation mode: CID
Ionization: ESI
Column name: Zorbax Eclipse Plus C18 2.1 mm x 150 mm, 3.5 um, Agilent
Retention time: 5.683 min
Precursor m/z: 152.0706
Precursor type: [M+H]+
m/z	relative intensity
110.0605	138
152.0713	999
