Mass spectrum: Haloxyfop; LC-ESI-QTOF; MS2; 50 V
Name: Haloxyfop
Class: Herbicide
Formula: C15H11ClF3NO4
Exact mass: 361.0329
SMILES: CC(C(=O)O)OC1=CC=C(C=C1)OC2=C(C=C(C=N2)C(F)(F)F)Cl
InChI: InChI=1S/C15H11ClF3NO4/c1-8(14(21)22)23-10-2-4-11(5-3-10)24-13-12(16)6-9(7-20-13)15(17,18)19/h2-8H,1H3,(H,21,22)
Instrument: TripleTOF 5600 SCIEX
Instrument type: LC-ESI-QTOF
Ms type: MS2
Ion mode: POSITIVE
Collision energy: 50
Fragmentation mode: CID
Ionization: ESI
Column name: Zorbax Eclipse Plus C18 2.1 mm x 150 mm, 3.5 um, Agilent
Retention time: 12.921 min
Precursor m/z: 362.0401
Precursor type: [M+H]+
m/z	relative intensity
65.0421	96
75.0284	32
91.0564	838
92.0265	38
93.036	38
119.051	51
121.0278	64
179.9813	44
197.9942	44
199.037	32
209.0433	134
216.0267	70
219.005	38
226.0477	160
232.014	44
237.0399	108
247.0426	38
248.0215	44
252.0016	51
252.0745	38
254.0467	51
260.0405	32
261.0148	57
272.008	999
288.0024	902
288.0379	102
289.008	51
290.0199	32
