Mass spectrum: 2-Ethyl-6-methylaniline; LC-ESI-QTOF; MS2; 40 V
Name: 2-Ethyl-6-methylaniline
Class: Industrial_process
Formula: C9H13N
Exact mass: 135.1048
SMILES: CCC1=CC=CC(=C1N)C
InChI: InChI=1S/C9H13N/c1-3-8-6-4-5-7(2)9(8)10/h4-6H,3,10H2,1-2H3
Instrument: TripleTOF 5600 SCIEX
Instrument type: LC-ESI-QTOF
Ms type: MS2
Ion mode: POSITIVE
Collision energy: 40
Fragmentation mode: CID
Ionization: ESI
Column name: Zorbax Eclipse Plus C18 2.1 mm x 150 mm, 3.5 um, Agilent
Retention time: 7.958 min
Precursor m/z: 136.1121
Precursor type: [M+H]+
m/z	relative intensity
39.0228	59
41.0386	15
50.0156	25
51.023	119
62.0155	17
63.0236	39
65.0389	396
77.039	690
78.0465	200
79.0547	63
80.0496	11
89.0377	31
91.0547	999
93.0581	89
102.0464	41
103.0546	262
104.0625	183
106.0656	177
107.0738	87
108.0804	33
115.0547	256
116.0635	17
117.0701	210
118.0661	9
119.0861	119
120.0823	33
134.0969	31
136.1133	45
