Mass spectrum: Clonazepam; LC-ESI-QTOF; MS2; 60 V
Name: Clonazepam
Class: Pharmaceutical
Formula: C15H10ClN3O3
Exact mass: 315.0411
SMILES: C1C(=O)NC2=C(C=C(C=C2)[N+](=O)[O-])C(=N1)C3=CC=CC=C3Cl
InChI: InChI=1S/C15H10ClN3O3/c16-12-4-2-1-3-10(12)15-11-7-9(19(21)22)5-6-13(11)18-14(20)8-17-15/h1-7H,8H2,(H,18,20)
Instrument: TripleTOF 6600 SCIEX
Instrument type: LC-ESI-QTOF
Ms type: MS2
Ion mode: POSITIVE
Collision energy: 60
Fragmentation mode: CID
Ionization: ESI
Column name: Zorbax Eclipse Plus C18 2.1 mm x 150 mm, 3.5 um, Agilent
Retention time: 9.867 min
Precursor m/z: 316.0484
Precursor type: [M+H]+
m/z	relative intensity
77.0373	21
78.0451	10
102.0342	17
103.0407	34
104.049	74
105.0574	13
116.0471	11
125.0144	14
129.0443	69
130.0521	43
138.0101	18
139.0538	14
140.0495	15
150.0449	13
151.0538	242
152.0611	127
153.0687	74
154.0637	15
163.0524	30
164.0598	34
165.0694	76
166.0649	54
167.0716	102
168.0789	16
177.0566	97
178.0642	241
179.0719	304
180.0801	220
186.0236	53
187.0315	21
189.0558	11
190.0643	355
191.0726	93
192.0728	74
193.086	43
195.0926	17
198.0232	11
199.029	40
201.0326	17
202.0336	23
204.0684	44
205.0755	441
206.0832	348
207.0912	121
213.0322	67
214.0416	999
216.0657	13
224.0258	79
226.0394	14
227.0486	12
228.052	15
229.0509	11
234.0765	17
239.0372	38
240.044	56
241.0523	521
242.0594	11
269.0483	23
270.0538	43
