Mass spectrum: Simvastatin; LC-ESI-QTOF; MS2; 90 V
Name: Simvastatin
Class: Pharmaceutical
Formula: C25H38O5
Exact mass: 418.2719
SMILES: CCC(C)(C)C(=O)O[C@H]1C[C@@H](C)C=C2C=C[C@H](C)[C@H](CC[C@@H]3C[C@@H](O)CC(=O)O3)[C@@H]12
InChI: InChI=1S/C25H38O5/c1-6-25(4,5)24(28)30-21-12-15(2)11-17-8-7-16(3)20(23(17)21)10-9-19-13-18(26)14-22(27)29-19/h7-8,11,15-16,18-21,23,26H,6,9-10,12-14H2,1-5H3/t15-,16-,18+,19+,20-,21-,23-/m0/s1
Instrument: TripleTOF 5600 SCIEX
Instrument type: LC-ESI-QTOF
Ms type: MS2
Ion mode: POSITIVE
Collision energy: 90
Fragmentation mode: CID
Ionization: ESI
Column name: Zorbax Eclipse Plus C18 2.1 mm x 150 mm, 3.5 um, Agilent
Retention time: 15.438 min
Precursor m/z: 419.2792
Precursor type: [M+H]+
m/z	relative intensity
67.0587	76
77.0425	243
79.0569	268
81.0711	115
91.0558	525
93.071	89
103.0552	89
105.0706	525
107.0882	64
115.0542	294
116.061	115
117.0695	204
119.0862	217
127.0545	243
128.0621	999
129.0701	717
130.0764	115
131.0858	333
133.1019	51
141.0694	691
142.0761	486
143.0852	832
144.0932	153
145.1014	166
152.0623	76
153.0686	358
154.0769	153
155.0835	268
156.094	102
157.0997	102
158.1088	128
159.1171	115
165.0699	115
166.078	64
167.0841	102
168.0937	115
169.1014	166
173.1315	51
178.076	89
179.0871	89
181.1009	115
195.1151	76
