Mass spectrum: Ketorolac; LC-ESI-QTOF; MS2; 50 V
Name: Ketorolac
Class: Pharmaceutical
Formula: C15H13NO3
Exact mass: 255.0895
SMILES: C1CN2C(=CC=C2C(=O)C3=CC=CC=C3)C1C(=O)O
InChI: InChI=1S/C15H13NO3/c17-14(10-4-2-1-3-5-10)13-7-6-12-11(15(18)19)8-9-16(12)13/h1-7,11H,8-9H2,(H,18,19)
Instrument: TripleTOF 6600 SCIEX
Instrument type: LC-ESI-QTOF
Ms type: MS2
Ion mode: POSITIVE
Collision energy: 50
Fragmentation mode: CID
Ionization: ESI
Column name: Zorbax Eclipse Plus C18 2.1 mm x 150 mm, 3.5 um, Agilent
Retention time: 9.499 min
Precursor m/z: 256.0968
Precursor type: [M+H]+
m/z	relative intensity
51.0232	31
77.0385	999
104.048	26
105.0334	405
105.0559	67
106.0652	16
132.042	16
178.0487	45
210.0889	41
