Mass spectrum: Losartan carboxylic acid; LC-ESI-QTOF; MS2; 90 V
Name: Losartan carboxylic acid
Class: Pharmaceutical; Transformation_product-Metabolite
Formula: C22H21ClN6O2
Exact mass: 436.1415
SMILES: CCCCc1nc(Cl)c(n1Cc2ccc(cc2)c3ccccc3c4n[nH]nn4)C(O)=O
InChI: InChI=1S/C22H21ClN6O2/c1-2-3-8-18-24-20(23)19(22(30)31)29(18)13-14-9-11-15(12-10-14)16-6-4-5-7-17(16)21-25-27-28-26-21/h4-7,9-12H,2-3,8,13H2,1H3,(H,30,31)(H,25,26,27,28)
Instrument: TripleTOF 5600 SCIEX
Instrument type: LC-ESI-QTOF
Ms type: MS2
Ion mode: POSITIVE
Collision energy: 90
Fragmentation mode: CID
Ionization: ESI
Column name: Zorbax Eclipse Plus C18 2.1 mm x 150 mm, 3.5 um, Agilent
Retention time: 10.786 min
Precursor m/z: 437.1487
Precursor type: [M+H]+
m/z	relative intensity
77.0418	104
80.0515	19
102.0333	10
113.0398	26
114.0458	18
115.0546	51
116.0496	11
125.0382	11
126.0475	12
127.0548	114
128.0606	37
129.042	12
138.0472	41
139.0546	65
140.0498	153
141.0581	16
150.0477	40
151.0551	370
152.0625	999
153.07	336
154.0635	40
157.0523	10
162.0455	18
163.0552	342
164.0549	243
165.0645	229
166.0653	57
167.0735	34
168.0675	28
176.0626	144
177.068	223
178.0751	621
179.073	260
180.0813	239
181.0747	13
185.049	21
188.0496	40
189.0585	92
190.0656	771
191.0657	132
192.069	232
204.0665	9
205.0767	736
206.0842	120
