Mass spectrum: Dimethenamid-ESA; LC-ESI-QTOF; MS2; 50 V
Name: Dimethenamid-ESA
Class: Transformation_product; Herbicide; Metabolite
Formula: C12H19NO5S2
Exact mass: 321.0705
SMILES: CC1=CSC(=C1N(C(C)COC)C(=O)CS(=O)(=O)O)C
InChI: InChI=1S/C12H19NO5S2/c1-8-6-19-10(3)12(8)13(9(2)5-18-4)11(14)7-20(15,16)17/h6,9H,5,7H2,1-4H3,(H,15,16,17)
Instrument: TripleTOF 6600 SCIEX
Instrument type: LC-ESI-QTOF
Ms type: MS2
Ion mode: POSITIVE
Collision energy: 50
Fragmentation mode: CID
Ionization: ESI
Column name: Zorbax Eclipse Plus C18 2.1 mm x 150 mm, 3.5 um, Agilent
Retention time: 7.036 min
Precursor m/z: 322.0778
Precursor type: [M+H]+
m/z	relative intensity
39.0238	10
41.0389	37
42.0347	18
43.018	26
45.034	49
58.9958	22
65.0386	14
67.0549	16
73.0648	70
77.0388	25
79.0539	28
80.0489	12
82.0653	45
83.0497	10
85.0104	12
91.0543	40
93.0706	28
94.0652	60
95.0735	64
97.011	52
99.0268	28
105.0582	18
105.0698	16
106.0648	16
107.0741	10
108.0811	40
111.0266	390
112.0219	20
112.0343	87
113.0369	76
114.037	17
115.0546	17
117.0695	33
118.0646	53
119.0728	124
120.0807	57
122.0961	22
123.0267	16
124.0212	14
124.0329	25
125.0293	45
125.0417	242
126.0375	452
127.0202	37
127.0458	79
128.0522	84
132.08	45
133.089	105
134.0162	10
134.0965	400
135.0266	106
135.1041	60
136.1106	14
137.0292	41
138.0372	310
139.0448	26
140.0539	43
149.0412	93
150.0407	180
151.0452	149
152.0192	269
152.0529	999
153.0598	37
154.0318	10
154.0662	16
162.0905	20
164.053	20
166.0328	74
166.0683	885
167.039	22
167.076	124
168.0474	63
168.0842	257
169.0545	16
176.1078	66
194.0634	121
208.0784	18
210.094	91
