Mass spectrum: Acetanilide; LC-ESI-QTOF; MS2; 70 V
Name: Acetanilide
Class: Pharmaceutical
Formula: C8H9NO
Exact mass: 135.0684
InChI: InChI=1S/C8H9NO/c1-7(10)9-8-5-3-2-4-6-8/h2-6H,1H3,(H,9,10)
Instrument: TripleTOF 5600 SCIEX
Instrument type: LC-ESI-QTOF
Ms type: CID
Ion mode: POSITIVE
Collision energy: 70
Ionization: ESI
Column name: Zorbax Eclipse Plus C18 2.1 mm x 150 mm, 3.5 um, Agilent
Retention time: 6.742 min
Precursor m/z: 136.0757
Precursor type: [M+H]+
m/z	relative intensity
43.0273	999
65.0435	273
66.0523	225
74.0194	80
77.0412	982
92.051	96
93.0593	161
