Mass spectrum: Dexpanthenol; LC-ESI-QTOF; MS2; 30 V
Name: Dexpanthenol
Formula: C9H19NO4
Exact mass: 205.1314
SMILES: CC(C)(CO)C(C(=O)NCCCO)O
InChI: InChI=1S/C9H19NO4/c1-9(2,6-12)7(13)8(14)10-4-3-5-11/h7,11-13H,3-6H2,1-2H3,(H,10,14)
Instrument: TripleTOF 6600 SCIEX
Instrument type: LC-ESI-QTOF
Ms type: MS2
Ion mode: NEGATIVE
Collision energy: 30
Fragmentation mode: CID
Ionization: ESI
Column name: Zorbax Eclipse Plus C18 2.1 mm x 150 mm, 3.5 um, Agilent
Retention time: 4.791 min
Precursor m/z: 204.1241
Precursor type: [M-H]-
m/z	relative intensity
41.9988	14
43.0196	81
44.0138	157
55.019	85
71.05	999
72.0447	713
74.0606	705
99.0453	232
102.0559	684
126.0928	83
130.0527	56
204.1258	54
