Mass spectrum: Tetraoctylphosphonium; LC-ESI-QTOF; MS2; 110 V
Name: Tetraoctylphosphonium
Formula: [C32H68P]+
Exact mass: 483.5053
SMILES: CCCCCCCC[P+](CCCCCCCC)(CCCCCCCC)CCCCCCCC
InChI: InChI=1S/C32H68P/c1-5-9-13-17-21-25-29-33(30-26-22-18-14-10-6-2,31-27-23-19-15-11-7-3)32-28-24-20-16-12-8-4/h5-32H2,1-4H3/q+1
Instrument: TripleTOF 5600 SCIEX
Instrument type: LC-ESI-QTOF
Ms type: MS2
Ion mode: POSITIVE
Collision energy: 110
Fragmentation mode: CID
Ionization: ESI
Column name: Zorbax Eclipse Plus C18 2.1 mm x 150 mm, 3.5 um, Agilent
Retention time: 16.405 min
Precursor m/z: 483.5053
Precursor type: [M]+
m/z	relative intensity
39.0236	78
41.0392	236
43.0549	127
43.9814	73
44.9891	104
45.997	182
47.0046	66
48.0121	98
55.0543	216
56.9889	160
57.0695	80
59.0043	205
61.0202	526
62.028	735
69.0693	129
73.0202	113
74.0275	80
75.0353	597
76.043	999
87.0348	53
88.0422	115
89.05	323
90.0575	330
101.0501	156
102.0574	122
103.066	283
115.0653	209
116.0735	60
117.0811	263
129.082	167
131.0972	305
143.0977	100
145.1132	280
157.1146	91
159.1293	194
171.1314	107
173.1464	194
185.1476	98
187.1611	269
199.1604	98
201.177	196
213.1772	89
215.1934	198
227.1979	60
229.2084	243
241.2082	91
243.223	147
255.2264	71
257.24	100
271.2545	69
285.2715	120
299.2829	60
327.315	60
