Mass spectrum: Rifaximin; LC-ESI-QTOF; MS2; 80 V
Name: Rifaximin
Class: Pharmaceutical
Formula: C43H51N3O11
Exact mass: 785.3524
SMILES: CC1C=CC=C(C(=O)NC2=C(C3=C(C4=C(C(=C3O)C)OC(C4=O)(OC=CC(C(C(C(C(C(C1O)C)O)C)OC(=O)C)C)OC)C)C5=C2N6C=CC(=CC6=N5)C)O)C
InChI: InChI=1S/C43H51N3O11/c1-19-14-16-46-28(18-19)44-32-29-30-37(50)25(7)40-31(29)41(52)43(9,57-40)55-17-15-27(54-10)22(4)39(56-26(8)47)24(6)36(49)23(5)35(48)20(2)12-11-13-21(3)42(53)45-33(34(32)46)38(30)51/h11-18,20,22-24,27,35-36,39,48-51H,1-10H3,(H,45,53)
Instrument: TripleTOF 6600 SCIEX
Instrument type: LC-ESI-QTOF
Ms type: MS2
Ion mode: NEGATIVE
Collision energy: 80
Fragmentation mode: CID
Ionization: ESI
Column name: Zorbax Eclipse Plus C18 2.1 mm x 150 mm, 3.5 um, Agilent
Retention time: 11.765 min
Precursor m/z: 784.3451
Precursor type: [M-H]-
m/z	relative intensity
123.0789	19
276.0851	17
277.081	41
290.088	11
291.0961	18
304.1037	18
305.0784	29
306.0826	51
307.0934	21
308.1002	34
317.0794	12
319.1014	13
330.0839	34
332.0994	86
333.0794	60
333.1063	68
334.079	33
334.1135	16
343.0883	13
344.0732	26
345.0821	32
346.0871	18
347.0992	482
358.0781	18
358.1118	12
359.0867	269
360.0939	999
361.101	245
362.1093	147
371.0955	18
372.0927	10
373.1008	28
374.1065	20
386.0715	60
387.0808	36
388.0874	72
402.1027	22
410.1476	11
439.1575	15
441.1252	13
454.133	144
464.1547	10
468.1808	10
482.1646	52
484.1799	13
510.1574	10
512.1709	20
