Mass spectrum: Hydroxychloroquine; LC-ESI-QTOF; MS2; 100 V
Name: Hydroxychloroquine
Class: Pharmaceutical
Formula: C18H26ClN3O
Exact mass: 335.1764
SMILES: CCN(CCCC(C)NC1=C2C=CC(=CC2=NC=C1)Cl)CCO
InChI: InChI=1S/C18H26ClN3O/c1-3-22(11-12-23)10-4-5-14(2)21-17-8-9-20-18-13-15(19)6-7-16(17)18/h6-9,13-14,23H,3-5,10-12H2,1-2H3,(H,20,21)
Instrument: TripleTOF 5600 SCIEX
Instrument type: LC-ESI-QTOF
Ms type: MS2
Ion mode: POSITIVE
Collision energy: 100
Fragmentation mode: CID
Ionization: ESI
Column name: Zorbax Eclipse Plus C18 2.1 mm x 150 mm, 3.5 um, Agilent
Retention time: 4.747 min
Precursor m/z: 336.1837
Precursor type: [M+H]+
m/z	relative intensity
39.023	166
44.0481	166
45.0342	166
75.0181	166
89.0388	666
90.0465	499
99.0223	166
101.0381	333
102.0449	166
102.0932	333
104.0502	333
110.995	333
111.0068	166
116.0464	999
117.0557	832
127.0397	333
128.0473	499
129.0597	832
136.0069	666
143.0558	499
143.0706	499
144.0636	333
155.0618	333
156.0638	166
162.0048	166
163.0218	499
168.0723	499
178.0339	166
190.0337	333
