Mass spectrum: 3-Desmethyl-trimethoprim; LC-ESI-QTOF; MS2; 50 V
Name: 3-Desmethyl-trimethoprim
Class: Pharmaceutical; Transformation_product; Transformation_product-Metabolite
Formula: C13H16N4O3
Exact mass: 276.1222
SMILES: OC1=CC(CC2=CN=C(N=C2N)N)=CC(OC)=C1OC
InChI: InChI=1S/C13H16N4O3/c1-19-10-5-7(4-9(18)11(10)20-2)3-8-6-16-13(15)17-12(8)14/h4-6,18H,3H2,1-2H3,(H4,14,15,16,17)
Instrument: TripleTOF 5600 SCIEX
Instrument type: LC-ESI-QTOF
Ms type: MS2
Ion mode: POSITIVE
Collision energy: 50
Fragmentation mode: CID
Ionization: ESI
Column name: Zorbax Eclipse Plus C18 2.1 mm x 150 mm, 3.5 um, Agilent
Retention time: 5.021 min
Precursor m/z: 277.1295
Precursor type: [M+H]+
m/z	relative intensity
68.0431	11
81.0492	227
104.0525	10
106.0411	23
109.0526	11
110.0597	101
111.0678	32
119.0613	12
121.0774	13
123.0674	964
124.0751	58
128.0505	23
129.0574	14
131.0588	23
132.0487	10
133.0726	10
135.0687	14
143.0611	10
144.0505	11
144.0667	12
145.076	24
146.0725	53
147.0673	55
148.0748	137
149.0253	11
149.0811	58
151.0393	45
156.0471	39
158.0639	17
159.0619	17
160.079	14
161.0818	53
162.0895	13
163.0981	23
170.0723	43
171.0786	14
172.0415	12
172.0758	11
173.082	93
174.0622	64
175.0629	16
175.0965	37
177.0698	12
185.0835	23
186.0651	14
187.0982	363
188.1058	57
189.0755	48
191.0922	45
197.0825	17
198.0666	27
199.096	10
200.0769	14
201.0775	26
202.0575	11
203.0924	45
214.0621	12
215.0929	82
216.1001	81
217.1056	41
219.0874	465
227.0963	12
229.0729	15
230.0825	10
231.0876	142
232.0951	30
233.103	114
243.0854	41
244.0736	29
245.1016	59
247.0814	29
259.0822	129
261.0982	999
