Mass spectrum: Verapamil; LC-ESI-QTOF; MS2; 150 V
Name: Verapamil
Class: Pharmaceutical
Formula: C27H38N2O4
Exact mass: 454.2832
SMILES: CC(C)C(CCCN(C)CCc1ccc(c(c1)OC)OC)(C#N)c2ccc(c(c2)OC)OC
InChI: InChI=1S/C27H38N2O4/c1-20(2)27(19-28,22-10-12-24(31-5)26(18-22)33-7)14-8-15-29(3)16-13-21-9-11-23(30-4)25(17-21)32-6/h9-12,17-18,20H,8,13-16H2,1-7H3
Instrument: TripleTOF 5600 SCIEX
Instrument type: LC-ESI-QTOF
Ms type: MS2
Ion mode: POSITIVE
Collision energy: 150
Fragmentation mode: CID
Ionization: ESI
Column name: Zorbax Eclipse Plus C18 2.1 mm x 150 mm, 3.5 um, Agilent
Retention time: 8.542 min
Precursor m/z: 455.2904
Precursor type: [M+H]+
m/z	relative intensity
44.0569	17
55.0221	10
58.0704	19
65.0435	223
66.0502	13
76.0337	22
77.0426	999
78.0491	117
79.0571	144
81.0362	16
84.0823	16
89.0407	137
90.0479	47
91.0567	683
93.0713	13
94.0424	26
102.0472	36
103.0552	169
104.0625	11
105.0337	57
105.0704	11
107.0496	118
115.0544	52
116.0559	14
117.0598	16
119.0493	71
121.0649	30
127.0531	12
128.0616	17
130.0635	10
131.0497	21
133.0281	23
135.0442	43
