Mass spectrum: Cyprodinil; LC-ESI-QTOF; MS2; 60 V
Name: Cyprodinil
Class: Fungicide
Formula: C14H15N3
Exact mass: 225.1266
SMILES: CC1=CC(=NC(=N1)NC2=CC=CC=C2)C3CC3
InChI: InChI=1S/C14H15N3/c1-10-9-13(11-7-8-11)17-14(15-10)16-12-5-3-2-4-6-12/h2-6,9,11H,7-8H2,1H3,(H,15,16,17)
Instrument: TripleTOF 6600 SCIEX
Instrument type: LC-ESI-QTOF
Ms type: MS2
Ion mode: POSITIVE
Collision energy: 60
Fragmentation mode: CID
Ionization: ESI
Column name: Zorbax Eclipse Plus C18 2.1 mm x 150 mm, 3.5 um, Agilent
Retention time: 10.83 min
Precursor m/z: 226.1339
Precursor type: [M+H]+
m/z	relative intensity
37.007	14
38.0155	11
39.0228	94
41.0386	52
42.0337	104
44.0492	14
50.0148	51
51.0228	205
53.0381	44
54.0335	15
63.0224	49
64.0304	23
65.0383	497
66.0462	228
67.0295	54
67.0409	93
67.053	14
68.0489	57
75.022	10
77.0384	931
78.0333	68
78.045	15
79.0538	156
80.0489	98
81.0566	20
81.0695	29
82.0638	16
89.0378	95
90.0333	16
90.0456	21
91.0528	462
92.0489	238
93.0571	999
94.0639	47
102.0335	23
103.0404	17
104.0485	62
105.0438	30
106.0644	95
107.0595	14
107.0715	23
108.069	36
108.0787	39
115.0533	53
116.0353	18
116.0483	47
117.0557	69
118.0522	213
119.059	50
127.0532	16
128.0489	21
128.0606	12
129.0445	11
129.0564	10
130.0389	14
130.0641	17
131.0594	168
132.0678	36
133.0751	16
139.0531	32
140.0479	50
141.0567	11
142.0575	15
143.0596	29
152.0541	17
153.0556	9
154.0644	17
155.0583	16
156.0692	24
165.068	12
166.0641	74
167.0716	73
168.0682	32
169.0759	37
179.0636	13
180.0783	20
181.0751	57
182.0699	23
182.0823	16
183.0788	15
184.0866	10
190.0649	13
192.0662	61
193.0749	85
194.0824	12
205.0748	24
206.0827	46
207.0908	48
208.0858	19
210.1021	37
226.1315	13
