Mass spectrum: Tiamulin; LC-ESI-QTOF; MS2; 150 V
Name: Tiamulin
Class: Antimicrobial; Pharmaceutical
Formula: C28H47NO4S
Exact mass: 493.3226
SMILES: CCN(CC)CCSCC(=O)OC1CC(C(C(C23CCC(C1(C2C(=O)CC3)C)C)C)O)(C)C=C
InChI: InChI=1S/C28H47NO4S/c1-8-26(6)17-22(33-23(31)18-34-16-15-29(9-2)10-3)27(7)19(4)11-13-28(20(5)25(26)32)14-12-21(30)24(27)28/h8,19-20,22,24-25,32H,1,9-18H2,2-7H3
Instrument: TripleTOF 6600 SCIEX
Instrument type: LC-ESI-QTOF
Ms type: MS2
Ion mode: POSITIVE
Collision energy: 150
Fragmentation mode: CID
Ionization: ESI
Column name: Zorbax Eclipse Plus C18 2.1 mm x 150 mm, 3.5 um, Agilent
Retention time: 8.661 min
Precursor m/z: 494.3299
Precursor type: [M+H]+
m/z	relative intensity
37.0069	40
38.0147	41
39.0227	324
41.0383	279
43.0176	104
43.0542	13
44.0491	19
44.9791	748
45.0329	21
46.9944	75
50.0147	27
51.0224	159
53.0382	84
55.0171	25
55.0539	106
60.0016	11
61.01	21
62.9892	30
63.0218	18
65.0381	317
66.0459	21
67.0533	123
73.0098	119
74.0957	12
77.0379	999
78.0458	74
79.0536	369
81.0689	52
89.0377	39
91.0531	898
92.062	10
93.0689	42
95.0485	18
95.0846	10
102.0448	39
103.0529	152
104.0597	45
105.0436	23
105.0685	183
107.0476	14
115.0533	604
116.0603	67
117.0684	129
119.0834	28
126.0446	13
127.0534	147
128.0615	483
129.0683	147
130.0763	22
131.047	13
131.084	16
133.0657	13
141.0683	237
142.0762	39
143.0858	16
145.0637	14
151.0514	19
152.06	136
153.0688	99
154.0762	19
155.0547	10
155.0623	11
155.0847	30
165.0682	129
166.0771	22
167.0829	24
178.0751	24
179.0821	15
