Mass spectrum: Dacarbazine; LC-ESI-QTOF; MS2; 20 V
Name: Dacarbazine
Class: Pharmaceutical
Formula: C6H10N6O
Exact mass: 182.0916
SMILES: CN(C)NN=C1C(=NC=N1)C(=O)N
InChI: InChI=1S/C6H10N6O/c1-12(2)11-10-6-4(5(7)13)8-3-9-6/h3,11H,1-2H3,(H2,7,13)
Instrument: TripleTOF 5600 SCIEX
Instrument type: LC-ESI-QTOF
Ms type: MS2
Ion mode: POSITIVE
Collision energy: 20
Fragmentation mode: CID
Ionization: ESI
Column name: Zorbax Eclipse Plus C18 2.1 mm x 150 mm, 3.5 um, Agilent
Retention time: 4.473 min
Precursor m/z: 183.0989
Precursor type: [M+H]+
m/z	relative intensity
55.0335	18
56.0562	11
65.0174	19
67.032	17
68.0401	32
69.0483	55
81.0474	52
83.0628	46
93.0092	10
95.0252	118
95.0605	57
121.0143	59
123.0435	999
138.0412	166
166.0727	823
183.0996	10
