Mass spectrum: Myclobutanil; LC-ESI-QTOF; MS2; 80 V
Name: Myclobutanil
Class: Fungicide
Formula: C15H17ClN4
Exact mass: 288.1142
SMILES: CCCCC(Cn1cncn1)(C#N)c2ccc(Cl)cc2
InChI: InChI=1S/C15H17ClN4/c1-2-3-8-15(9-17,10-20-12-18-11-19-20)13-4-6-14(16)7-5-13/h4-7,11-12H,2-3,8,10H2,1H3
Instrument: TripleTOF 6600 SCIEX
Instrument type: LC-ESI-QTOF
Ms type: MS2
Ion mode: POSITIVE
Collision energy: 80
Fragmentation mode: CID
Ionization: ESI
Column name: Zorbax Eclipse Plus C18 2.1 mm x 150 mm, 3.5 um, Agilent
Retention time: 12.025 min
Precursor m/z: 289.1215
Precursor type: [M+H]+
m/z	relative intensity
39.023	37
41.0391	15
42.022	11
43.0295	209
48.9841	11
51.0228	18
55.0551	10
61.0076	11
62.0149	31
63.0232	185
64.0311	10
65.0385	41
70.0405	999
72.9842	119
74.0155	11
74.9992	37
75.023	78
76.0311	11
77.0383	51
82.0396	41
89.039	796
90.0468	251
96.9841	15
98.9997	390
101.0394	80
102.0465	80
103.0547	21
114.0336	10
115.0543	311
116.0622	107
122.9999	49
125.0155	531
127.0524	13
128.0501	15
128.0623	36
129.0447	36
129.0689	10
130.0653	26
141.0712	11
149.0157	16
152.0624	22
168.0799	11
