Mass spectrum: N-acetyl-sitagliptin; LC-ESI-QTOF; MS2; 150 V
Name: N-acetyl-sitagliptin
Class: Metabolite; Pharmaceutical
Formula: C18H17F6N5O2
Exact mass: 449.1286
SMILES: CC(=O)NC(CC1=CC(=C(C=C1F)F)F)CC(=O)N2CCN3C(=NN=C3C(F)(F)F)C2
InChI: InChI=1S/C18H17F6N5O2/c1-9(30)25-11(4-10-5-13(20)14(21)7-12(10)19)6-16(31)28-2-3-29-15(8-28)26-27-17(29)18(22,23)24/h5,7,11H,2-4,6,8H2,1H3,(H,25,30)
Instrument: TripleTOF 5600 SCIEX
Instrument type: LC-ESI-QTOF
Ms type: MS2
Ion mode: NEGATIVE
Collision energy: 150
Fragmentation mode: CID
Ionization: ESI
Column name: Zorbax Eclipse Plus C18 2.1 mm x 150 mm, 3.5 um, Agilent
Retention time: 8.852 min
Precursor m/z: 448.1214
Precursor type: [M-H]-
m/z	relative intensity
40.0202	49
41.0069	99
41.0171	299
42.0006	499
52.0205	899
58.0316	99
64.0076	199
68.9968	999
85.0072	299
105.0136	99
109.0098	349
110.015	199
111.0102	149
111.0223	249
112.0188	149
121.0133	199
125.0202	99
129.0129	49
131.0302	349
131.0429	49
132.0262	99
133.0028	149
149.0211	349
151.0363	199
152.0348	149
161.006	149
