Mass spectrum: o-Aminoazotoluene; LC-ESI-QTOF; MS2; 70 V
Name: o-Aminoazotoluene
Formula: C14H15N3
Exact mass: 225.1266
SMILES: CC1=CC=CC=C1N=NC2=CC(=C(C=C2)N)C
InChI: InChI=1S/C14H15N3/c1-10-5-3-4-6-14(10)17-16-12-7-8-13(15)11(2)9-12/h3-9H,15H2,1-2H3
Instrument: TripleTOF X500R SCIEX
Instrument type: LC-ESI-QTOF
Ms type: MS2
Ion mode: POSITIVE
Collision energy: 70
Fragmentation mode: CID
Ionization: ESI
Column name: Zorbax Eclipse Plus C18 2.1 mm x 150 mm, 3.5 um, Agilent
Retention time: 13.733 min
Precursor m/z: 226.1339
Precursor type: [M+H]+
m/z	relative intensity
37.0073	18
38.0154	27
39.0229	291
40.0304	11
41.0386	68
42.034	14
50.0152	31
51.0231	157
53.0386	15
62.0158	37
63.0229	159
64.0309	79
65.0385	624
66.0463	14
67.0542	22
75.0237	20
77.0389	391
78.034	37
79.0544	75
80.0499	28
89.0384	999
90.0466	100
91.0542	202
92.0499	31
93.057	73
94.0652	98
102.0347	11
104.0497	31
105.0448	41
106.0651	349
107.0728	69
115.0543	21
119.0607	37
121.0759	36
139.0549	23
140.0515	18
152.0606	13
163.0552	15
164.0595	13
165.0701	30
166.0639	40
167.0716	15
180.0794	15
191.0651	12
192.0693	25
