Mass spectrum: 2,2,4-Trimethyl-1,2-dihydroquinoline; LC-ESI-QTOF; MS2; 150 V
Name: 2,2,4-Trimethyl-1,2-dihydroquinoline
Class: Industrial_process
Formula: C12H15N
Exact mass: 173.1204
SMILES: CC1=CC(NC2=CC=CC=C12)(C)C
InChI: InChI=1S/C12H15N/c1-9-8-12(2,3)13-11-7-5-4-6-10(9)11/h4-8,13H,1-3H3
Instrument: TripleTOF 6600 SCIEX
Instrument type: LC-ESI-QTOF
Ms type: MS2
Ion mode: POSITIVE
Collision energy: 150
Fragmentation mode: CID
Ionization: ESI
Column name: Zorbax Eclipse Plus C18 2.1 mm x 150 mm, 3.5 um, Agilent
Retention time: 12.497 min
Precursor m/z: 174.1277
Precursor type: [M+H]+
m/z	relative intensity
35.9989	134
37.0068	665
38.0032	32
38.0144	349
39.0224	269
42.0332	16
49.0067	371
50.0144	999
51.0222	178
52.0174	24
59.9983	42
61.0063	397
62.014	331
63.022	122
73.006	104
74.014	211
75.0215	20
85.006	52
86.0134	24
89.0366	10
