Mass spectrum: Fludarabine; LC-ESI-QTOF; MS2; 70 V
Name: Fludarabine
Class: Pharmaceutical
Formula: C10H12FN5O4
Exact mass: 285.0873
SMILES: C1=NC2=C(N1C3C(C(C(O3)CO)O)O)N=C(N=C2N)F
InChI: InChI=1S/C10H12FN5O4/c11-10-14-7(12)4-8(15-10)16(2-13-4)9-6(19)5(18)3(1-17)20-9/h2-3,5-6,9,17-19H,1H2,(H2,12,14,15)
Instrument: TripleTOF 5600 SCIEX
Instrument type: LC-ESI-QTOF
Ms type: MS2
Ion mode: POSITIVE
Collision energy: 70
Fragmentation mode: CID
Ionization: ESI
Column name: Zorbax Eclipse Plus C18 2.1 mm x 150 mm, 3.5 um, Agilent
Retention time: 4.674 min
Precursor m/z: 286.0946
Precursor type: [M+H]+
m/z	relative intensity
55.0289	12
55.0374	19
57.0425	19
65.0224	12
69.0407	9
71.0192	32
73.0365	9
80.0293	176
85.0339	12
92.0282	39
93.0367	12
107.0382	298
134.048	999
154.054	216
166.0507	14
