Mass spectrum: Spinosad A; LC-ESI-QTOF; MS2; 110 V
Name: Spinosad A
Class: Insecticide
Formula: C41H65NO10
Exact mass: 731.4608
SMILES: CCC1CCCC(C(C(=O)C2=CC3C4CC(CC4C=CC3C2CC(=O)O1)OC5C(C(C(C(O5)C)OC)OC)OC)C)OC6CCC(C(O6)C)N(C)C
InChI: InChI=1S/C41H65NO10/c1-10-26-12-11-13-34(52-36-17-16-33(42(5)6)23(3)48-36)22(2)37(44)32-20-30-28(31(32)21-35(43)50-26)15-14-25-18-27(19-29(25)30)51-41-40(47-9)39(46-8)38(45-7)24(4)49-41/h14-15,20,22-31,33-34,36,38-41H,10-13,16-19,21H2,1-9H3
Instrument: TripleTOF 6600 SCIEX
Instrument type: LC-ESI-QTOF
Ms type: MS2
Ion mode: POSITIVE
Collision energy: 110
Fragmentation mode: CID
Ionization: ESI
Column name: Zorbax Eclipse Plus C18 2.1 mm x 150 mm, 3.5 um, Agilent
Retention time: 10.391 min
Precursor m/z: 732.4681
Precursor type: [M+H]+
m/z	relative intensity
39.0222	34
41.0379	91
42.0331	14
43.0172	64
44.0487	26
45.0329	37
46.0645	20
47.0486	20
53.0377	15
55.0171	16
55.0533	75
56.0486	41
57.0324	33
59.0481	69
65.0373	16
67.0534	85
69.0324	15
69.0689	131
70.0643	53
71.0482	97
72.0433	53
72.0799	51
73.0635	13
74.035	30
75.043	74
77.0377	43
79.0531	74
81.0324	20
81.0692	35
82.0405	25
83.048	14
83.0843	25
84.0796	26
85.0637	32
85.0872	49
86.0954	20
89.0581	24
91.0533	28
93.069	10
95.0846	24
97.0639	243
98.0349	17
98.0959	999
99.0432	100
99.079	55
99.1017	12
101.0588	125
105.07	14
112.1105	12
113.0577	13
115.0534	37
115.074	21
117.0692	18
124.1111	34
125.0581	38
127.0534	19
128.061	54
129.0687	76
141.0685	111
142.0771	15
142.1218	309
143.084	12
145.0848	12
152.0617	29
153.069	113
154.0774	90
155.0844	185
156.0908	12
157.1003	18
165.0687	31
166.0771	12
167.0849	27
169.1006	49
171.0794	14
178.0768	17
179.0843	21
181.0638	16
181.1005	11
183.0796	20
193.1005	10
197.0949	31
