Mass spectrum: Atenolol acid; LC-ESI-QTOF; MS2; 60 V
Name: Atenolol acid
Class: Pharmaceutical
Formula: C14H21NO4
Exact mass: 267.1471
SMILES: CC(C)NCC(COC1=CC=C(C=C1)CC(=O)O)O
InChI: InChI=1S/C14H21NO4/c1-10(2)15-8-12(16)9-19-13-5-3-11(4-6-13)7-14(17)18/h3-6,10,12,15-16H,7-9H2,1-2H3,(H,17,18)
Instrument: TripleTOF 5600 SCIEX
Instrument type: LC-ESI-QTOF
Ms type: MS2
Ion mode: POSITIVE
Collision energy: 60
Fragmentation mode: CID
Ionization: ESI
Column name: Zorbax Eclipse Plus C18 2.1 mm x 150 mm, 3.5 um, Agilent
Retention time: 4.893 min
Precursor m/z: 268.1543
Precursor type: [M+H]+
m/z	relative intensity
39.0232	40
41.0393	92
43.0544	84
44.0494	20
51.0227	44
55.0191	20
56.0495	485
57.0343	20
58.0653	76
63.0232	40
65.0391	108
67.055	44
72.0813	64
74.0602	96
77.0389	999
79.0545	878
81.0697	64
84.0811	24
89.0383	678
91.0543	982
94.0418	20
95.049	100
100.1133	24
103.0547	24
105.0342	24
105.0717	44
107.0487	349
109.0652	56
115.0546	830
116.0631	52
117.0317	20
117.0694	316
119.0503	84
123.043	44
127.0545	112
131.049	24
133.0638	24
135.0457	44
137.0597	36
144.0568	104
145.0643	625
163.05	56
