Mass spectrum: 6-Methylthioinosin; LC-ESI-QTOF; MS2; 110 V
Name: 6-Methylthioinosin
Class: Pharmaceutical
Formula: C11H14N4O4S
Exact mass: 298.0736
SMILES: CSc1ncnc2n(cnc12)C3OC(CO)C(O)C3O
InChI: InChI=1S/C11H14N4O4S/c1-20-10-6-9(12-3-13-10)15(4-14-6)11-8(18)7(17)5(2-16)19-11/h3-5,7-8,11,16-18H,2H2,1H3
Instrument: TripleTOF 5600 SCIEX
Instrument type: LC-ESI-QTOF
Ms type: MS2
Ion mode: POSITIVE
Collision energy: 110
Fragmentation mode: CID
Ionization: ESI
Column name: Zorbax Eclipse Plus C18 2.1 mm x 150 mm, 3.5 um, Agilent
Retention time: 5.666 min
Precursor m/z: 299.0809
Precursor type: [M+H]+
m/z	relative intensity
40.0272	82
43.0272	68
54.0254	82
54.0333	68
57.0383	68
65.0169	999
66.0237	95
67.0316	191
69.0356	68
69.9767	136
70.0428	191
70.9849	944
71.0153	136
71.9919	82
77.0158	123
81.0342	218
82.9837	533
92.0248	711
94.0415	68
97.994	574
99.0009	82
107.0465	54
119.0342	424
125.0037	834
126.0104	95
152.0143	136
