Mass spectrum: 4-Acetamidoantipyrine; LC-ESI-QTOF; MS2; 80 V
Name: 4-Acetamidoantipyrine
Class: Pharmaceutical; Metabolite; Transformation_product
Formula: C13H15N3O2
Exact mass: 245.1164
SMILES: CN1N(C(=O)C(=C1C)NC(C)=O)c2ccccc2
InChI: InChI=1S/C13H15N3O2/c1-9-12(14-10(2)17)13(18)16(15(9)3)11-7-5-4-6-8-11/h4-8H,1-3H3,(H,14,17)
Instrument: TripleTOF 5600 SCIEX
Instrument type: LC-ESI-QTOF
Ms type: MS2
Ion mode: POSITIVE
Collision energy: 80
Fragmentation mode: CID
Ionization: ESI
Column name: Zorbax Eclipse Plus C18 2.1 mm x 150 mm, 3.5 um, Agilent
Retention time: 5.586 min
Precursor m/z: 246.1237
Precursor type: [M+H]+
m/z	relative intensity
42.0427	104
43.0272	130
53.0194	16
54.0395	22
56.0559	730
58.0704	10
65.0429	24
75.0268	12
77.0421	999
77.0769	10
81.0467	87
83.0631	929
89.04	28
90.0465	12
91.0562	22
92.0515	13
93.058	25
94.065	41
101.0393	12
103.0543	12
104.05	56
115.0532	13
116.0501	14
117.0568	18
119.0583	10
128.0482	10
143.0627	22
144.0801	10
