Mass spectrum: Methyl 1,2,2,6,6-pentamethyl-4-piperidyl sebacate; LC-ESI-QTOF; MS2; 40 V
Name: Methyl 1,2,2,6,6-pentamethyl-4-piperidyl sebacate
Class: Industrial_process
Formula: C21H39NO4
Exact mass: 369.2879
SMILES: CC1(CC(CC(N1C)(C)C)OC(=O)CCCCCCCCC(=O)OC)C
InChI: InChI=1S/C21H39NO4/c1-20(2)15-17(16-21(3,4)22(20)5)26-19(24)14-12-10-8-7-9-11-13-18(23)25-6/h17H,7-16H2,1-6H3
Instrument: TripleTOF 5600 SCIEX
Instrument type: LC-ESI-QTOF
Ms type: MS2
Ion mode: POSITIVE
Collision energy: 40
Fragmentation mode: CID
Ionization: ESI
Column name: Zorbax Eclipse Plus C18 2.1 mm x 150 mm, 3.5 um, Agilent
Retention time: 8.341 min
Precursor m/z: 370.2952
Precursor type: [M+H]+
m/z	relative intensity
67.0612	24
69.0768	12
70.0715	16
72.0876	999
79.0592	30
81.0751	196
93.0732	12
95.0886	44
98.0992	89
121.1028	25
123.1184	230
139.1134	23
154.1603	41
199.1343	43
370.295	387
