Mass spectrum: Pantoprazole sulfide; LC-ESI-QTOF; MS2; 130 V
Name: Pantoprazole sulfide
Class: Pharmaceutical; Metabolite; Transformation_product-Metabolite
Formula: C16H15F2N3O3S
Exact mass: 367.0802
SMILES: COC1=C(C(=NC=C1)CSC2=NC3=C(N2)C=CC(=C3)OC(F)F)OC
InChI: InChI=1S/C16H15F2N3O3S/c1-22-13-5-6-19-12(14(13)23-2)8-25-16-20-10-4-3-9(24-15(17)18)7-11(10)21-16/h3-7,15H,8H2,1-2H3,(H,20,21)
Instrument: TripleTOF 5600 SCIEX
Instrument type: LC-ESI-QTOF
Ms type: MS2
Ion mode: POSITIVE
Collision energy: 130
Fragmentation mode: CID
Ionization: ESI
Column name: Zorbax Eclipse Plus C18 2.1 mm x 150 mm, 3.5 um, Agilent
Retention time: 7.575 min
Precursor m/z: 368.0875
Precursor type: [M+H]+
m/z	relative intensity
37.0145	93
42.0426	249
50.036	85
51.0295	999
52.0353	117
53.0437	54
65.0427	983
66.0142	54
67.0218	39
67.0445	39
68.0186	54
78.0388	132
79.043	156
80.0523	156
81.0343	62
90.0342	54
92.0506	327
93.0597	46
94.0298	78
94.0663	46
96.0051	78
96.0439	39
107.0368	39
108.0434	70
110.005	156
117.0451	39
136.04	101
