Mass spectrum: 3,3`-Dinitrobisphenol A; LC-ESI-QTOF; MS2; 90 V
Name: 3,3`-Dinitrobisphenol A
Class: Transformation_product
Formula: C15H14N2O6
Exact mass: 318.0852
SMILES: CC(C1=CC=C(O)C([N+]([O-])=O)=C1)(C2=CC([N+]([O-])=O)=C(O)C=C2)C
InChI: InChI=1S/C15H14N2O6/c1-15(2,9-3-5-13(18)11(7-9)16(20)21)10-4-6-14(19)12(8-10)17(22)23/h3-8,18-19H,1-2H3
Instrument: TripleTOF 5600 SCIEX
Instrument type: LC-ESI-QTOF
Ms type: MS2
Ion mode: NEGATIVE
Collision energy: 90
Fragmentation mode: CID
Ionization: ESI
Column name: Zorbax Eclipse Plus C18 2.1 mm x 150 mm, 3.5 um, Agilent
Retention time: 13.85 min
Precursor m/z: 317.0779
Precursor type: [M-H]-
m/z	relative intensity
42.0007	115
45.001	96
45.9966	531
65.0048	70
108.0224	102
113.0385	121
125.0397	121
126.0467	51
132.0237	51
137.0408	243
138.0478	813
139.0551	121
143.0504	179
151.0557	864
152.0615	217
153.0348	89
153.0653	51
154.0428	371
164.0534	96
166.0433	160
167.0512	730
168.0572	147
179.0506	281
180.056	134
182.0375	352
192.0443	76
195.046	333
196.0534	204
209.0496	249
210.0537	70
212.0374	999
213.0391	70
226.0522	307
