Mass spectrum: Azo Rubin S; LC-ESI-QTOF; MS2; 50 V
Name: Azo Rubin S
Formula: C20H14N2O7S2
Exact mass: 458.0242
SMILES: C1=CC=C2C(=C1)C(=CC=C2S(=O)(=O)O)N=NC3=C(C4=CC=CC=C4C(=C3)S(=O)(=O)O)O
InChI: InChI=1S/C20H14N2O7S2/c23-20-15-8-4-3-7-14(15)19(31(27,28)29)11-17(20)22-21-16-9-10-18(30(24,25)26)13-6-2-1-5-12(13)16/h1-11,23H,(H,24,25,26)(H,27,28,29)
Instrument: TripleTOF 6600 SCIEX
Instrument type: LC-ESI-QTOF
Ms type: MS2
Ion mode: POSITIVE
Collision energy: 50
Fragmentation mode: CID
Ionization: ESI
Column name: Zorbax Eclipse Plus C18 2.1 mm x 150 mm, 3.5 um, Agilent
Retention time: 7.286 min
Precursor m/z: 459.0315
Precursor type: [M+H]+
m/z	relative intensity
80.0125	29
103.0529	21
105.0327	11
128.0488	18
130.0648	172
142.0648	33
143.0721	31
154.0288	11
158.0603	478
159.0684	19
172.0392	26
174.0551	26
223.03	999
238.0158	26
267.0943	13
268.0979	14
295.0883	10
296.0945	16
297.1028	14
360.0582	103
361.0647	33
362.0695	12
377.0593	26
441.0202	41
442.0284	99
