Mass spectrum: 3-Dimethylaminophenol; LC-ESI-QTOF; MS2; 100 V
Name: 3-Dimethylaminophenol
Formula: C8H11NO
Exact mass: 137.0841
SMILES: CN(C)C1=CC(=CC=C1)O
InChI: InChI=1S/C8H11NO/c1-9(2)7-4-3-5-8(10)6-7/h3-6,10H,1-2H3
Instrument: TripleTOF 6600 SCIEX
Instrument type: LC-ESI-QTOF
Ms type: MS2
Ion mode: POSITIVE
Collision energy: 100
Fragmentation mode: CID
Ionization: ESI
Column name: Zorbax Eclipse Plus C18 2.1 mm x 150 mm, 3.5 um, Agilent
Retention time: 4.073 min
Precursor m/z: 138.0914
Precursor type: [M+H]+
m/z	relative intensity
35.9987	150
37.0066	880
38.0032	23
38.0143	694
39.0223	999
40.0174	19
44.0484	39
49.0062	71
50.0141	255
51.0219	125
52.0171	21
53.0013	84
61.0058	58
62.0141	118
63.0216	61
65.0377	43
66.0092	11
73.0059	39
74.0138	102
