Mass spectrum: Isoxaben; LC-ESI-QTOF; MS2; 130 V
Name: Isoxaben
Class: Herbicide
Formula: C18H24N2O4
Exact mass: 332.1736
SMILES: CCC(C)(CC)C1=NOC(=C1)NC(=O)C2=C(C=CC=C2OC)OC
InChI: InChI=1S/C18H24N2O4/c1-6-18(3,7-2)14-11-15(24-20-14)19-17(21)16-12(22-4)9-8-10-13(16)23-5/h8-11H,6-7H2,1-5H3,(H,19,21)
Instrument: TripleTOF 6600 SCIEX
Instrument type: LC-ESI-QTOF
Ms type: MS2
Ion mode: POSITIVE
Collision energy: 130
Fragmentation mode: CID
Ionization: ESI
Column name: Zorbax Eclipse Plus C18 2.1 mm x 150 mm, 3.5 um, Agilent
Retention time: 12.747 min
Precursor m/z: 333.1809
Precursor type: [M+H]+
m/z	relative intensity
37.0067	56
38.002	10
38.0149	63
39.023	108
41.0384	27
49.0066	61
50.0149	501
51.0227	999
53.002	243
53.0383	18
55.0177	604
59.9979	25
61.0066	85
62.0146	151
63.0221	583
64.0306	121
65.0385	44
66.0455	22
68.9963	41
73.007	25
74.0146	187
75.0221	168
77.0373	61
79.017	295
91.0169	20
92.025	44
107.0118	659
119.0117	18
