Mass spectrum: Cefoperazone; LC-ESI-QTOF; MS2; 80 V
Name: Cefoperazone
Class: Pharmaceutical
Formula: C25H27N9O8S2
Exact mass: 645.1424
InChI: InChI=1S/C25H27N9O8S2/c1-3-32-8-9-33(21(39)20(32)38)24(42)27-15(12-4-6-14(35)7-5-12)18(36)26-16-19(37)34-17(23(40)41)13(10-43-22(16)34)11-44-25-28-29-30-31(25)2/h4-7,15-16,22,35H,3,8-11H2,1-2H3,(H,26,36)(H,27,42)(H,40,41)
Instrument: TripleTOF 6600 SCIEX
Instrument type: LC-ESI-QTOF
Ms type: CID
Ion mode: POSITIVE
Collision energy: 80
Ionization: ESI
Column name: Zorbax Eclipse Plus C18 2.1 mm x 150 mm, 3.5 um, Agilent
Retention time: 6.855 min
Precursor m/z: 646.1497
Precursor type: [M+H]+
m/z	relative intensity
115.0495	304
121.0264	260
143.0815	999
148.0389	825
