Mass spectrum: Tadalafil; LC-ESI-QTOF; MS2; 90 V
Name: Tadalafil
Class: Pharmaceutical; Personal_care_product
Formula: C22H19N3O4
Exact mass: 389.1376
SMILES: CN1CC(=O)N2C(C1=O)CC3=C(C2C4=CC5=C(C=C4)OCO5)NC6=CC=CC=C36
InChI: InChI=1S/C22H19N3O4/c1-24-10-19(26)25-16(22(24)27)9-14-13-4-2-3-5-15(13)23-20(14)21(25)12-6-7-17-18(8-12)29-11-28-17/h2-8,16,21,23H,9-11H2,1H3
Instrument: TripleTOF 5600 SCIEX
Instrument type: LC-ESI-QTOF
Ms type: MS2
Ion mode: POSITIVE
Collision energy: 90
Fragmentation mode: CID
Ionization: ESI
Column name: Zorbax Eclipse Plus C18 2.1 mm x 150 mm, 3.5 um, Agilent
Retention time: 9.801 min
Precursor m/z: 390.1448
Precursor type: [M+H]+
m/z	relative intensity
51.023	14
77.0387	80
79.0537	16
89.0382	11
103.0561	11
105.033	18
114.0455	11
115.0545	164
128.0512	18
130.066	28
135.0454	44
139.0567	13
140.0489	24
141.057	16
142.0651	29
151.0553	41
154.0656	11
163.055	18
164.0595	14
165.0695	20
166.0623	11
167.0709	41
168.0685	59
169.0754	162
170.0614	13
175.0513	13
176.0618	95
177.0712	39
178.0704	33
180.0788	16
187.0529	13
188.0621	18
189.0694	67
190.0678	35
191.0738	82
192.0814	33
202.0658	46
203.0741	233
204.0813	999
205.0862	65
206.0979	13
214.0662	48
215.0727	28
216.0829	46
217.0865	22
232.0756	42
233.089	16
