Mass spectrum: Tris(1,3-dichloro-2-propyl) phosphate; LC-ESI-QTOF; MS2; 40 V
Name: Tris(1,3-dichloro-2-propyl) phosphate
Class: Industrial_process
Formula: C9H15Cl6O4P
Exact mass: 427.8839
SMILES: C(C(CCl)OP(=O)(OC(CCl)CCl)OC(CCl)CCl)Cl
InChI: InChI=1S/C9H15Cl6O4P/c10-1-7(2-11)17-20(16,18-8(3-12)4-13)19-9(5-14)6-15/h7-9H,1-6H2
Instrument: TripleTOF 5600 SCIEX
Instrument type: LC-ESI-QTOF
Ms type: MS2
Ion mode: POSITIVE
Collision energy: 40
Fragmentation mode: CID
Ionization: ESI
Column name: Zorbax Eclipse Plus C18 2.1 mm x 150 mm, 3.5 um, Agilent
Retention time: 13.309 min
Precursor m/z: 430.8892
Precursor type: [M+H]+
m/z	relative intensity
39.0216	3
48.9826	3
62.9616	9
74.9983	74
76.9952	19
80.9723	49
98.6863	10
98.9836	999
100.9872	5
110.9748	11
112.9726	5
136.9994	8
172.9764	4
208.9545	60
210.951	27
318.9272	8
320.9242	12
