Mass spectrum: 2-Methyl-4`-(methylthio)-2-morpholinopropiophenone; LC-ESI-QTOF; MS2; 150 V
Name: 2-Methyl-4`-(methylthio)-2-morpholinopropiophenone
Class: Industrial_process
Formula: C15H21NO2S
Exact mass: 279.1293
SMILES: CC(C)(C(=O)C1=CC=C(C=C1)SC)N2CCOCC2
InChI: InChI=1S/C15H21NO2S/c1-15(2,16-8-10-18-11-9-16)14(17)12-4-6-13(19-3)7-5-12/h4-7H,8-11H2,1-3H3
Instrument: TripleTOF 6600 SCIEX
Instrument type: LC-ESI-QTOF
Ms type: MS2
Ion mode: POSITIVE
Collision energy: 150
Fragmentation mode: CID
Ionization: ESI
Column name: Zorbax Eclipse Plus C18 2.1 mm x 150 mm, 3.5 um, Agilent
Retention time: 7.548 min
Precursor m/z: 280.1366
Precursor type: [M+H]+
m/z	relative intensity
37.0074	128
38.015	98
39.0232	464
41.0258	29
41.0385	44
42.0337	59
44.979	89
49.0071	128
50.0152	598
51.0232	999
52.0303	49
56.049	24
61.0066	103
62.0146	163
63.0229	440
65.0386	440
66.0457	24
67.9717	24
68.9789	306
73.0061	29
74.0147	133
75.0224	118
76.0304	54
77.038	390
78.0454	59
81.987	44
86.0142	24
89.0382	212
91.0536	217
92.9793	39
102.0453	54
115.054	232
121.0098	79
134.0168	24
