Mass spectrum: Fenoprofen; LC-ESI-QTOF; MS2; 90 V
Name: Fenoprofen
Class: Pharmaceutical
Formula: C15H14O3
Exact mass: 242.0943
SMILES: CC(C1=CC(=CC=C1)OC2=CC=CC=C2)C(=O)O
InChI: InChI=1S/C15H14O3/c1-11(15(16)17)12-6-5-9-14(10-12)18-13-7-3-2-4-8-13/h2-11H,1H3,(H,16,17)
Instrument: TripleTOF 5600 SCIEX
Instrument type: LC-ESI-QTOF
Ms type: MS2
Ion mode: NEGATIVE
Collision energy: 90
Fragmentation mode: CID
Ionization: ESI
Column name: Zorbax Eclipse Plus C18 2.1 mm x 150 mm, 3.5 um, Agilent
Retention time: 11.788 min
Precursor m/z: 241.087
Precursor type: [M-H]-
m/z	relative intensity
65.039	106
93.0343	999
