Mass spectrum: Disperse Orange 61; LC-ESI-QTOF; MS2; 40 V
Name: Disperse Orange 61
Formula: C17H15Br2N5O2
Exact mass: 478.9592
SMILES: CCN(CCC#N)C1=CC=C(C=C1)N=NC2=C(C=C(C=C2Br)[N+](=O)[O-])Br
InChI: InChI=1S/C17H15Br2N5O2/c1-2-23(9-3-8-20)13-6-4-12(5-7-13)21-22-17-15(18)10-14(24(25)26)11-16(17)19/h4-7,10-11H,2-3,9H2,1H3
Instrument: TripleTOF X500R SCIEX
Instrument type: LC-ESI-QTOF
Ms type: MS2
Ion mode: POSITIVE
Collision energy: 40
Fragmentation mode: CID
Ionization: ESI
Column name: Zorbax Eclipse Plus C18 2.1 mm x 150 mm, 3.5 um, Agilent
Retention time: 15.39 min
Precursor m/z: 479.9665
Precursor type: [M+H]+
m/z	relative intensity
105.0568	23
118.0667	19
119.0622	10
120.0811	85
133.0888	77
134.0959	11
145.0762	54
147.0918	33
148.0861	22
153.929	11
173.0819	14
173.1078	22
187.1103	17
231.8541	11
257.9969	14
277.8469	76
286.0223	24
305.8518	42
315.0374	10
361.03	151
364.9263	17
392.9459	85
401.0472	17
410.9084	176
425.9338	30
433.9759	24
438.8875	20
438.9408	999
439.0323	14
439.946	48
440.0036	10
450.9254	16
479.9671	333
