Mass spectrum: Nitrendipine; LC-ESI-QTOF; MS2; 20 V
Name: Nitrendipine
Class: Pharmaceutical
Formula: C18H20N2O6
Exact mass: 360.1321
SMILES: CCOC(=O)C1=C(NC(=C(C1C2=CC(=CC=C2)[N+](=O)[O-])C(=O)OC)C)C
InChI: InChI=1S/C18H20N2O6/c1-5-26-18(22)15-11(3)19-10(2)14(17(21)25-4)16(15)12-7-6-8-13(9-12)20(23)24/h6-9,16,19H,5H2,1-4H3
Instrument: TripleTOF 5600 SCIEX
Instrument type: LC-ESI-QTOF
Ms type: MS2
Ion mode: POSITIVE
Collision energy: 20
Fragmentation mode: CID
Ionization: ESI
Column name: Zorbax Eclipse Plus C18 2.1 mm x 150 mm, 3.5 um, Agilent
Retention time: 12.373 min
Precursor m/z: 361.1394
Precursor type: [M+H]+
m/z	relative intensity
269.1021	14
283.0694	22
298.0923	13
301.0802	25
315.0957	999
329.112	795
361.1382	22
