Mass spectrum: Pendimethalin; LC-ESI-QTOF; MS2; 30 V
Name: Pendimethalin
Class: Herbicide
Formula: C13H19N3O4
Exact mass: 281.1376
SMILES: CCC(CC)Nc1c(cc(c(c1[N+](=O)[O-])C)C)[N+](=O)[O-]
InChI: InChI=1S/C13H19N3O4/c1-5-10(6-2)14-12-11(15(17)18)7-8(3)9(4)13(12)16(19)20/h7,10,14H,5-6H2,1-4H3
Instrument: TripleTOF 6600 SCIEX
Instrument type: LC-ESI-QTOF
Ms type: MS2
Ion mode: POSITIVE
Collision energy: 30
Fragmentation mode: CID
Ionization: ESI
Column name: Zorbax Eclipse Plus C18 2.1 mm x 150 mm, 3.5 um, Agilent
Retention time: 16.198 min
Precursor m/z: 282.1448
Precursor type: [M+H]+
m/z	relative intensity
39.0236	10
41.0392	42
43.0184	10
43.0547	121
53.0388	41
54.0347	10
65.0393	23
66.0341	32
66.0473	11
67.0423	17
68.0498	16
71.0859	89
77.0394	10
78.0344	75
79.029	11
80.0499	92
81.0575	12
91.0422	228
92.0498	75
93.0457	19
93.0569	26
94.029	10
94.0429	21
96.044	15
103.0296	21
103.0417	35
104.037	16
104.0501	14
105.0448	49
106.0299	13
106.0655	22
107.0239	11
107.0608	33
108.0444	53
117.0457	51
118.0531	383
119.0379	14
119.0606	205
120.0201	17
120.0445	44
120.0667	15
121.0041	17
121.0393	39
122.0475	26
124.039	12
126.0554	47
129.0449	18
130.0401	15
130.0524	70
131.0245	13
131.0486	35
131.0603	54
132.0552	21
133.0401	16
134.0612	40
135.0555	58
136.0629	42
145.0398	26
146.0479	21
147.0553	239
148.0633	324
149.0587	205
160.051	50
164.0585	88
166.0694	41
176.0452	30
177.0537	236
178.0614	231
194.0566	999
195.0643	370
212.0668	860
