Mass spectrum: Linezolid; LC-ESI-QTOF; MS2; 100 V
Name: Linezolid
Class: Pharmaceutical
Formula: C16H20FN3O4
Exact mass: 337.1438
SMILES: CC(=O)NCC1CN(C(=O)O1)C2=CC(=C(C=C2)N3CCOCC3)F
InChI: InChI=1S/C16H20FN3O4/c1-11(21)18-9-13-10-20(16(22)24-13)12-2-3-15(14(17)8-12)19-4-6-23-7-5-19/h2-3,8,13H,4-7,9-10H2,1H3,(H,18,21)
Instrument: TripleTOF 5600 SCIEX
Instrument type: LC-ESI-QTOF
Ms type: MS2
Ion mode: POSITIVE
Collision energy: 100
Fragmentation mode: CID
Ionization: ESI
Column name: Zorbax Eclipse Plus C18 2.1 mm x 150 mm, 3.5 um, Agilent
Retention time: 6.936 min
Precursor m/z: 338.1511
Precursor type: [M+H]+
m/z	relative intensity
43.0185	39
45.0354	26
51.0233	45
56.0501	215
57.0139	32
62.0163	32
63.0235	104
65.0387	45
74.0149	97
75.0234	313
76.0318	52
77.0394	300
78.0346	78
81.0137	65
82.0228	97
83.0301	280
84.0375	52
88.0321	26
89.039	352
90.0402	143
91.0562	91
94.023	39
95.0294	339
96.0261	32
96.0372	97
97.0445	45
98.04	71
99.0244	65
100.0187	45
101.0394	293
102.0358	97
103.0544	58
104.0496	111
105.049	32
107.0297	679
108.0376	555
109.0452	646
110.0425	97
111.0477	222
114.0367	32
115.0409	78
115.0534	261
116.0501	137
117.0564	189
118.0673	78
120.0376	117
121.0328	39
121.0467	52
122.0403	359
123.047	163
124.0551	137
125.0405	32
125.055	45
126.0345	58
127.0429	52
128.0492	169
129.0493	117
130.0666	143
131.0624	52
133.0455	137
134.0422	137
135.0483	561
136.0559	300
137.0541	111
139.0685	39
140.0522	65
141.0568	78
142.0599	71
143.0721	45
145.0464	32
146.0413	150
147.0459	130
148.0566	999
149.0503	52
150.0564	39
150.0683	58
151.066	65
154.0424	26
154.0713	32
155.0587	58
160.0565	78
161.0673	39
162.0722	39
163.0635	39
168.0665	32
169.0741	52
173.0532	65
174.0593	58
187.063	52
