Mass spectrum: Alpha-hydroxy-metoprolol; LC-ESI-QTOF; MS2; 50 V
Name: Alpha-hydroxy-metoprolol
Class: Pharmaceutical; Metabolite
Formula: C15H25NO4
Exact mass: 283.1784
SMILES: COCC(O)c1ccc(OCC(O)CNC(C)C)cc1
InChI: InChI=1S/C15H25NO4/c1-11(2)16-8-13(17)9-20-14-6-4-12(5-7-14)15(18)10-19-3/h4-7,11,13,15-18H,8-10H2,1-3H3
Instrument: TripleTOF 5600 SCIEX
Instrument type: LC-ESI-QTOF
Ms type: MS2
Ion mode: POSITIVE
Collision energy: 50
Fragmentation mode: CID
Ionization: ESI
Column name: Zorbax Eclipse Plus C18 2.1 mm x 150 mm, 3.5 um, Agilent
Retention time: 5.057 min
Precursor m/z: 284.1856
Precursor type: [M+H]+
m/z	relative intensity
43.0274	18
44.0601	16
45.0434	100
55.0252	16
56.0564	541
58.0713	84
65.0422	54
70.0691	82
72.0843	188
74.0636	456
75.0469	44
77.0417	404
78.0494	36
79.0569	282
84.0839	36
89.0406	14
90.0458	21
91.0558	999
93.0705	56
94.042	10
95.0489	21
98.0973	75
100.113	42
103.0544	474
105.0367	46
105.07	569
106.0409	273
107.049	140
115.0538	133
116.063	21
116.1076	79
117.0694	108
118.0401	135
119.0485	225
119.0846	22
120.0576	28
121.0641	73
127.0537	90
128.0623	188
129.0687	142
131.0481	69
131.085	12
132.0556	14
133.0641	204
134.0717	159
135.0799	14
144.0581	20
145.064	88
146.0768	13
147.0448	106
147.0811	32
148.0526	31
149.0595	45
150.0671	10
151.072	16
155.0605	13
157.0648	37
162.0715	12
163.0743	66
