Mass spectrum: Benzoylecgonine; LC-ESI-QTOF; MS2; 30 V
Name: Benzoylecgonine
Class: Pharmaceutical; Metabolite; Transformation_product
Formula: C16H19NO4
Exact mass: 289.1314
SMILES: CN1C2CCC1[C@H]([C@H](C2)OC(=O)c3ccccc3)C(O)=O
InChI: InChI=1S/C16H19NO4/c1-17-11-7-8-12(17)14(15(18)19)13(9-11)21-16(20)10-5-3-2-4-6-10/h2-6,11-14H,7-9H2,1H3,(H,18,19)/t11?,12?,13-,14+/m0/s1
Instrument: TripleTOF 5600 SCIEX
Instrument type: LC-ESI-QTOF
Ms type: MS2
Ion mode: POSITIVE
Collision energy: 30
Fragmentation mode: CID
Ionization: ESI
Column name: Zorbax Eclipse Plus C18 2.1 mm x 150 mm, 3.5 um, Agilent
Retention time: 5.641 min
Precursor m/z: 290.1387
Precursor type: [M+H]+
m/z	relative intensity
77.041	24
82.0676	68
91.0554	19
93.0717	18
100.0763	12
105.0344	207
119.0492	44
122.0959	24
124.1127	29
150.0911	80
168.1022	999
272.1273	35
290.1383	228
