Mass spectrum: N-desmethyl-diphenhydramine; LC-ESI-QTOF; MS2; 150 V
Name: N-desmethyl-diphenhydramine
Class: Pharmaceutical; Metabolite
Formula: C16H19NO
Exact mass: 241.1467
SMILES: CNCCOC(c1ccccc1)c2ccccc2
InChI: InChI=1S/C16H19NO/c1-17-12-13-18-16(14-8-4-2-5-9-14)15-10-6-3-7-11-15/h2-11,16-17H,12-13H2,1H3
Instrument: TripleTOF 5600 SCIEX
Instrument type: LC-ESI-QTOF
Ms type: MS2
Ion mode: POSITIVE
Collision energy: 150
Fragmentation mode: CID
Ionization: ESI
Column name: Zorbax Eclipse Plus C18 2.1 mm x 150 mm, 3.5 um, Agilent
Retention time: 7.557 min
Precursor m/z: 242.1539
Precursor type: [M+H]+
m/z	relative intensity
65.0429	152
73.0112	174
74.0188	999
75.0246	240
76.0322	92
77.0433	114
78.0489	32
84.0039	103
85.0098	529
86.0172	715
87.0245	414
88.0313	43
89.0399	360
97.0086	109
98.0159	545
99.0243	81
102.0469	43
109.0092	180
110.0154	256
111.0235	114
113.0399	131
115.0547	141
122.0134	103
123.0223	21
126.0437	38
134.0145	49
137.0374	103
138.0495	32
139.0555	76
150.0473	120
161.0378	229
162.0464	316
163.0537	562
164.0585	38
