Mass spectrum: Estrone; LC-ESI-QTOF; MS2; 60 V
Name: Estrone
Class: Pharmaceutical
Formula: C18H22O2
Exact mass: 270.162
SMILES: CC12CCC3C(C1CCC2=O)CCC4=C3C=CC(=C4)O
InChI: InChI=1S/C18H22O2/c1-18-9-8-14-13-5-3-12(19)10-11(13)2-4-15(14)16(18)6-7-17(18)20/h3,5,10,14-16,19H,2,4,6-9H2,1H3
Instrument: TripleTOF 5600 SCIEX
Instrument type: LC-ESI-QTOF
Ms type: MS2
Ion mode: POSITIVE
Collision energy: 60
Fragmentation mode: CID
Ionization: ESI
Column name: Zorbax Eclipse Plus C18 2.1 mm x 150 mm, 3.5 um, Agilent
Retention time: 11.224 min
Precursor m/z: 271.1693
Precursor type: [M+H]+
m/z	relative intensity
39.0227	12
41.0387	17
43.018	49
51.0227	17
53.0386	12
55.0177	30
55.0543	15
65.0384	50
67.0542	68
71.0492	20
77.0386	393
79.0542	324
81.07	82
89.0382	19
91.0541	451
93.0697	39
94.0409	26
95.0852	15
102.0463	11
103.0541	275
105.0696	705
107.0491	261
115.054	843
116.0619	303
117.0695	74
118.0404	12
119.0852	13
121.0642	34
126.0466	12
127.0541	383
128.0619	527
129.0696	254
130.0778	12
131.0494	305
131.0816	77
132.057	67
133.0646	613
139.0541	23
141.07	470
142.0776	22
143.0489	19
143.0854	16
144.0566	999
145.0644	134
147.0811	22
151.0554	20
152.0623	160
153.0699	192
154.0778	57
155.0853	70
157.0646	734
158.0724	44
159.0806	218
164.0623	16
165.0702	320
166.0777	49
167.0853	67
168.0566	20
169.0671	83
170.0725	50
171.0807	68
172.0871	12
176.0622	16
177.0696	28
178.0783	137
179.0856	135
181.0651	335
182.0726	682
183.0802	121
185.0959	18
191.0863	18
194.0726	39
195.0803	73
196.0884	28
197.0961	59
198.104	13
209.0969	22
