Mass spectrum: Carebastine; LC-ESI-QTOF; MS2; 100 V
Name: Carebastine
Class: Pharmaceutical
Formula: C32H37NO4
Exact mass: 499.2723
SMILES: CC(C)(C1=CC=C(C=C1)C(=O)CCCN2CCC(CC2)OC(C3=CC=CC=C3)C4=CC=CC=C4)C(=O)O
InChI: InChI=1S/C32H37NO4/c1-32(2,31(35)36)27-17-15-24(16-18-27)29(34)14-9-21-33-22-19-28(20-23-33)37-30(25-10-5-3-6-11-25)26-12-7-4-8-13-26/h3-8,10-13,15-18,28,30H,9,14,19-23H2,1-2H3,(H,35,36)
Instrument: TripleTOF 6600 SCIEX
Instrument type: LC-ESI-QTOF
Ms type: MS2
Ion mode: POSITIVE
Collision energy: 100
Fragmentation mode: CID
Ionization: ESI
Column name: Zorbax Eclipse Plus C18 2.1 mm x 150 mm, 3.5 um, Agilent
Retention time: 10.045 min
Precursor m/z: 500.2796
Precursor type: [M+H]+
m/z	relative intensity
65.0381	18
77.0383	30
79.0536	15
89.0376	12
90.0458	26
91.054	202
102.0457	10
103.0539	47
107.0487	21
115.0544	293
116.0613	19
117.0698	283
118.0776	370
119.0853	13
121.0278	43
127.0543	9
128.0617	58
131.0488	62
132.093	22
139.054	12
141.0693	43
145.0649	16
146.0725	132
148.0518	10
151.0545	70
152.0624	825
164.0619	30
165.0702	999
166.078	143
167.0855	81
173.096	25
191.0711	159
