Mass spectrum: Florasulam; LC-ESI-QTOF; MS2; 130 V
Name: Florasulam
Class: Herbicide
Formula: C12H8F3N5O3S
Exact mass: 359.03
SMILES: COC1=NC=C(C2=NC(=NN21)S(=O)(=O)NC3=C(C=CC=C3F)F)F
InChI: InChI=1S/C12H8F3N5O3S/c1-23-12-16-5-8(15)10-17-11(18-20(10)12)24(21,22)19-9-6(13)3-2-4-7(9)14/h2-5,19H,1H3
Instrument: TripleTOF 6600 SCIEX
Instrument type: LC-ESI-QTOF
Ms type: MS2
Ion mode: POSITIVE
Collision energy: 130
Fragmentation mode: CID
Ionization: ESI
Column name: Zorbax Eclipse Plus C18 2.1 mm x 150 mm, 3.5 um, Agilent
Retention time: 9.723 min
Precursor m/z: 360.0373
Precursor type: [M+H]+
m/z	relative intensity
30.9965	36
37.005	18
38.013	24
46.0058	13
50.0129	26
51.0021	57
51.02	45
52.0155	82
53.0104	13
56.0035	41
57.0107	75
58.0065	14
59.0137	9
59.996	44
61.0045	209
62.0125	400
63.0084	19
63.0199	472
64.0159	11
65.0228	24
70.0067	100
75.0013	160
76.0147	50
77.0095	29
81.0107	999
82.018	296
83.0143	9
83.0263	13
84.0087	13
87.0071	16
88.0147	103
89.0231	63
99.0023	11
101.0164	187
102.0254	31
108.0215	34
109.0287	83
129.0366	32
