Mass spectrum: Aminophenazone; LC-ESI-QTOF; MS2; 120 V
Name: Aminophenazone
Class: Pharmaceutical
Formula: C13H17N3O
Exact mass: 231.1372
SMILES: CC1=C(C(=O)N(N1C)C2=CC=CC=C2)N(C)C
InChI: InChI=1S/C13H17N3O/c1-10-12(14(2)3)13(17)16(15(10)4)11-8-6-5-7-9-11/h5-9H,1-4H3
Instrument: TripleTOF 5600 SCIEX
Instrument type: LC-ESI-QTOF
Ms type: MS2
Ion mode: POSITIVE
Collision energy: 120
Fragmentation mode: CID
Ionization: ESI
Column name: Zorbax Eclipse Plus C18 2.1 mm x 150 mm, 3.5 um, Agilent
Retention time: 4.71 min
Precursor m/z: 232.1444
Precursor type: [M+H]+
m/z	relative intensity
42.0471	394
43.056	33
54.0428	101
55.0479	33
56.0586	999
58.0729	190
68.0548	40
70.0708	54
74.0227	27
77.0435	169
81.051	115
82.0592	33
83.0653	88
89.0402	47
97.0794	149
