Mass spectrum: Tenamfetamine; LC-ESI-QTOF; MS2; 50 V
Name: Tenamfetamine
Class: Pharmaceutical
Formula: C10H13NO2
Exact mass: 179.0946
SMILES: CC(CC1=CC2=C(C=C1)OCO2)N
InChI: InChI=1S/C10H13NO2/c1-7(11)4-8-2-3-9-10(5-8)13-6-12-9/h2-3,5,7H,4,6,11H2,1H3
Instrument: TripleTOF 6600 SCIEX
Instrument type: LC-ESI-QTOF
Ms type: MS2
Ion mode: POSITIVE
Collision energy: 50
Fragmentation mode: CID
Ionization: ESI
Column name: Zorbax Eclipse Plus C18 2.1 mm x 150 mm, 3.5 um, Agilent
Retention time: 5.295 min
Precursor m/z: 180.1019
Precursor type: [M+H]+
m/z	relative intensity
39.0222	21
50.0148	23
51.0224	170
55.018	15
65.0377	75
77.0379	999
78.0421	25
79.0532	309
89.0379	24
91.0546	23
93.0325	9
103.0527	213
105.0359	48
105.0686	101
115.0515	10
121.0278	43
135.0426	80
147.0425	54
