Mass spectrum: Mitomycin A; LC-ESI-QTOF; MS2; 60 V
Name: Mitomycin A
Class: Pharmaceutical
Formula: C16H19N3O6
Exact mass: 349.1274
SMILES: COC1=C(C)C(=O)C2=C([C@H](COC(N)=O)[C@]3(OC)[C@@H]4N[C@@H]4CN23)C1=O
InChI: InChI=1S/C16H19N3O6/c1-6-11(20)10-9(12(21)13(6)23-2)7(5-25-15(17)22)16(24-3)14-8(18-14)4-19(10)16/h7-8,14,18H,4-5H2,1-3H3,(H2,17,22)/t7-,8+,14+,16-/m0/s1
Instrument: TripleTOF 5600 SCIEX
Instrument type: LC-ESI-QTOF
Ms type: MS2
Ion mode: POSITIVE
Collision energy: 60
Fragmentation mode: CID
Ionization: ESI
Column name: Zorbax Eclipse Plus C18 2.1 mm x 150 mm, 3.5 um, Agilent
Retention time: 7.046 min
Precursor m/z: 350.1347
Precursor type: [M+H]+
m/z	relative intensity
77.0412	25
78.0352	10
79.0564	12
89.0393	23
91.0548	33
92.0544	14
102.0456	12
103.0535	37
104.0482	71
105.0571	18
115.0537	92
116.0499	42
117.0562	82
118.0496	12
118.0638	90
119.0614	14
119.0724	18
127.0522	18
128.048	23
128.0584	14
129.0556	27
129.0653	27
130.0637	176
131.0372	10
131.0614	155
132.0435	46
132.067	105
133.0529	18
133.0749	14
134.0576	14
140.0492	21
141.0549	16
142.0639	71
143.0589	29
143.07	77
144.0448	16
144.0796	100
145.0408	23
145.0739	42
146.0582	58
147.0678	23
147.0919	12
153.0583	12
154.0651	56
155.0582	103
156.0686	296
156.0893	21
157.0518	29
157.0752	532
158.0588	44
158.0824	88
159.0549	172
160.0397	18
160.073	23
161.0832	18
162.0527	21
167.0635	14
168.0671	73
169.0744	252
170.0589	27
170.0834	109
171.0619	82
171.0908	105
172.0735	63
173.0704	31
174.0543	58
174.0908	12
175.0642	39
176.0698	23
178.0483	12
181.0733	54
182.083	86
183.061	10
183.0894	54
184.0623	128
184.1022	14
185.0449	14
185.0696	187
186.0526	44
186.0764	63
187.0625	35
188.0346	16
188.069	50
189.0396	10
189.0759	54
190.0543	10
190.0911	18
192.0637	16
196.0627	16
197.0692	71
198.0494	18
198.0776	113
199.0854	523
199.1297	14
200.0694	48
200.092	25
201.0723	35
201.0992	14
202.0479	37
202.0828	16
203.0547	16
203.0881	16
204.0619	21
209.0671	12
210.0768	18
211.0556	16
211.0854	63
212.0539	12
212.0954	23
213.065	250
214.0485	42
214.0729	252
215.0792	67
216.0654	10
216.0871	33
217.0695	10
225.0685	21
226.0715	31
227.0805	999
228.0882	143
229.0572	18
229.0955	42
230.0454	12
240.0802	12
241.062	12
242.0682	21
243.0777	21
255.0743	12
259.0744	21
