Mass spectrum: Hydrocortisone; LC-ESI-QTOF; MS2; 120 V
Name: Hydrocortisone
Class: Pharmaceutical
Formula: C21H30O5
Exact mass: 362.2093
SMILES: C[C@]12CCC(=O)C=C1CC[C@H]3[C@@H]4CC[C@](O)(C(=O)CO)[C@@]4(C)C[C@H](O)[C@H]23
InChI: InChI=1S/C21H30O5/c1-19-7-5-13(23)9-12(19)3-4-14-15-6-8-21(26,17(25)11-22)20(15,2)10-16(24)18(14)19/h9,14-16,18,22,24,26H,3-8,10-11H2,1-2H3/t14-,15-,16-,18+,19-,20-,21-/m0/s1
Instrument: TripleTOF 5600 SCIEX
Instrument type: LC-ESI-QTOF
Ms type: MS2
Ion mode: POSITIVE
Collision energy: 120
Fragmentation mode: CID
Ionization: ESI
Column name: Zorbax Eclipse Plus C18 2.1 mm x 150 mm, 3.5 um, Agilent
Retention time: 8.323 min
Precursor m/z: 363.2166
Precursor type: [M+H]+
m/z	relative intensity
43.0251	69
53.0445	41
55.0605	49
65.0419	275
67.0572	41
74.021	16
75.0266	20
77.041	999
78.0488	82
79.0556	267
81.0379	24
81.0713	28
89.0402	74
89.0544	20
91.0555	826
93.0703	32
94.0403	16
97.0646	53
102.0462	102
103.0539	176
104.062	28
105.069	135
107.0486	45
109.0642	16
115.0541	945
116.0608	57
117.0697	69
121.0634	32
126.0476	37
127.0543	205
128.0613	731
129.0685	189
131.0482	37
131.0857	20
133.0637	24
139.0542	32
141.0685	254
141.0876	20
142.077	24
144.0548	16
147.0812	28
151.0535	78
152.0603	337
153.0696	156
154.0807	20
163.053	28
164.0593	49
165.0683	345
167.085	28
176.0596	32
178.0758	139
179.0835	24
189.0698	98
191.0836	37
202.0739	53
203.0835	24
215.0844	20
