Mass spectrum: Inabenfide; LC-ESI-QTOF; MS2; 70 V
Name: Inabenfide
Formula: C19H15ClN2O2
Exact mass: 338.0822
SMILES: C1=CC=C(C=C1)C(C2=C(C=CC(=C2)Cl)NC(=O)C3=CC=NC=C3)O
InChI: InChI=1S/C19H15ClN2O2/c20-15-6-7-17(22-19(24)14-8-10-21-11-9-14)16(12-15)18(23)13-4-2-1-3-5-13/h1-12,18,23H,(H,22,24)
Instrument: TripleTOF 6600 SCIEX
Instrument type: LC-ESI-QTOF
Ms type: MS2
Ion mode: POSITIVE
Collision energy: 70
Fragmentation mode: CID
Ionization: ESI
Column name: Zorbax Eclipse Plus C18 2.1 mm x 150 mm, 3.5 um, Agilent
Retention time: 10.231 min
Precursor m/z: 339.0895
Precursor type: [M+H]+
m/z	relative intensity
49.0062	12
50.0147	63
51.022	60
52.0186	10
52.0299	169
53.038	74
77.038	16
78.0327	38
79.0409	999
80.0485	668
105.0437	29
108.0421	12
115.0533	27
127.053	32
128.0611	16
130.0635	10
139.0526	23
140.061	14
141.0693	27
150.0451	12
151.0535	85
152.0603	107
153.0558	36
154.064	89
162.0091	25
163.0524	27
164.0606	47
165.0688	231
166.0647	43
167.0722	142
168.0794	164
169.0873	76
174.0095	10
177.0563	45
178.0646	144
179.0716	308
180.0677	52
181.0752	111
186.0202	9
188.0248	45
189.0662	31
190.0649	32
191.072	14
199.0302	29
200.0248	16
201.0699	16
202.0765	34
203.072	42
204.0816	16
206.059	160
207.0666	71
208.0613	10
213.0701	23
214.0406	113
214.0725	25
215.0365	257
215.083	67
216.0435	16
216.0805	62
217.0864	34
224.025	10
226.0759	12
227.0723	29
228.0809	51
229.0887	45
230.0966	65
238.0627	12
239.0714	14
240.08	80
241.0894	102
242.0943	85
243.0305	16
243.1037	149
244.0394	45
250.0423	16
251.0516	14
251.0712	12
252.0561	18
255.0918	116
256.0987	111
257.1068	89
258.1148	16
264.0564	34
265.0677	10
266.0838	21
267.0917	36
268.0969	27
269.0821	10
275.0486	23
276.0513	18
277.0506	10
277.0658	25
278.0714	36
279.0817	14
284.0937	32
289.0529	21
290.0587	18
291.0678	107
