Mass spectrum: Fluquinconazole; LC-ESI-QTOF; MS2; 80 V
Name: Fluquinconazole
Class: Fungicide
Formula: C16H8Cl2FN5O
Exact mass: 375.009
SMILES: C1=CC2=C(C=C1F)C(=O)N(C(=N2)N3C=NC=N3)C4=C(C=C(C=C4)Cl)Cl
InChI: InChI=1S/C16H8Cl2FN5O/c17-9-1-4-14(12(18)5-9)24-15(25)11-6-10(19)2-3-13(11)22-16(24)23-8-20-7-21-23/h1-8H
Instrument: TripleTOF 6600 SCIEX
Instrument type: LC-ESI-QTOF
Ms type: MS2
Ion mode: POSITIVE
Collision energy: 80
Fragmentation mode: CID
Ionization: ESI
Column name: Zorbax Eclipse Plus C18 2.1 mm x 150 mm, 3.5 um, Agilent
Retention time: 12.549 min
Precursor m/z: 376.0163
Precursor type: [M+H]+
m/z	relative intensity
57.0132	73
72.9828	36
74.0139	18
81.0127	77
82.0081	146
88.0163	12
96.9826	23
97.9774	10
100.0166	13
108.0238	999
108.9823	45
123.9939	213
128.988	13
132.959	11
144.96	10
163.9998	11
170.9626	29
181.0307	12
182.0394	59
183.0347	13
207.0352	10
208.0413	14
209.0495	135
216.0016	13
224.0617	19
237.0439	13
244.0206	44
251.978	10
272.0156	22
