Mass spectrum: Chloroquine; LC-ESI-QTOF; MS2; 110 V
Name: Chloroquine
Class: Pharmaceutical
Formula: C18H26ClN3
Exact mass: 319.1815
SMILES: CCN(CC)CCCC(C)NC1=C2C=CC(=CC2=NC=C1)Cl
InChI: InChI=1S/C18H26ClN3/c1-4-22(5-2)12-6-7-14(3)21-17-10-11-20-18-13-15(19)8-9-16(17)18/h8-11,13-14H,4-7,12H2,1-3H3,(H,20,21)
Instrument: TripleTOF 6600 SCIEX
Instrument type: LC-ESI-QTOF
Ms type: MS2
Ion mode: POSITIVE
Collision energy: 110
Fragmentation mode: CID
Ionization: ESI
Column name: Zorbax Eclipse Plus C18 2.1 mm x 150 mm, 3.5 um, Agilent
Retention time: 4.84 min
Precursor m/z: 320.1888
Precursor type: [M+H]+
m/z	relative intensity
30.0336	39
37.0071	72
38.0153	33
39.0229	295
41.0385	178
44.0496	27
51.0225	72
56.0489	33
58.0649	66
62.015	33
63.0227	128
70.0646	78
74.015	306
75.0225	747
76.018	27
76.031	44
77.0381	239
78.0453	27
84.9831	27
88.0297	22
89.0385	999
90.033	39
90.046	318
91.0413	27
98.0148	150
98.096	44
99.0095	22
99.0219	323
100.0179	128
100.0295	55
101.0384	407
102.0337	94
102.046	262
103.0407	50
104.0506	44
110.9991	273
112.0085	33
114.0455	39
115.0415	27
115.0533	83
116.0492	373
117.0442	61
117.0567	513
118.0523	89
124.0061	27
126.0337	61
127.041	251
128.0486	837
129.0434	106
129.0571	318
130.0395	39
134.9984	27
136.0066	195
138.0097	27
139.0045	44
140.0496	78
141.0564	39
142.0522	139
143.0599	362
144.0679	111
151.0178	78
154.0383	44
155.0598	217
156.0673	55
162.0097	94
163.0177	234
166.0527	27
167.0608	61
168.0675	128
169.0751	27
179.0357	22
189.0212	27
190.0271	39
203.0361	44
