Mass spectrum: Tridemorph; LC-ESI-QTOF; MS2; 40 V
Name: Tridemorph
Class: Fungicide
Formula: C19H39NO
Exact mass: 297.3032
SMILES: CCCCCCCCCCCCCN1CC(OC(C1)C)C
InChI: InChI=1S/C19H39NO/c1-4-5-6-7-8-9-10-11-12-13-14-15-20-16-18(2)21-19(3)17-20/h18-19H,4-17H2,1-3H3
Instrument: TripleTOF 5600 SCIEX
Instrument type: LC-ESI-QTOF
Ms type: MS2
Ion mode: POSITIVE
Collision energy: 40
Fragmentation mode: CID
Ionization: ESI
Column name: Zorbax Eclipse Plus C18 2.1 mm x 150 mm, 3.5 um, Agilent
Retention time: 10.439 min
Precursor m/z: 298.3104
Precursor type: [M+H]+
m/z	relative intensity
41.0383	33
43.0541	96
56.0495	15
57.0696	205
58.065	24
59.0487	30
70.0649	51
71.0854	129
72.0802	51
85.101	51
98.0958	304
102.0934	24
112.1117	27
116.1062	159
130.122	422
240.2683	45
280.2944	18
280.3142	27
298.3097	999
