Mass spectrum: 17alpha-Methyltestosterone; LC-ESI-QTOF; MS2; 30 V
Name: 17alpha-Methyltestosterone
Class: Pharmaceutical
Formula: C20H30O2
Exact mass: 302.2246
SMILES: C[C@]1(O)CC[C@H]2[C@@H]3CCC4=CC(=O)CC[C@]4(C)[C@H]3CC[C@]12C
InChI: InChI=1S/C20H30O2/c1-18-9-6-14(21)12-13(18)4-5-15-16(18)7-10-19(2)17(15)8-11-20(19,3)22/h12,15-17,22H,4-11H2,1-3H3/t15-,16+,17+,18+,19+,20+/m1/s1
Instrument: TripleTOF 5600 SCIEX
Instrument type: LC-ESI-QTOF
Ms type: MS2
Ion mode: POSITIVE
Collision energy: 30
Fragmentation mode: CID
Ionization: ESI
Column name: Zorbax Eclipse Plus C18 2.1 mm x 150 mm, 3.5 um, Agilent
Retention time: 11.57 min
Precursor m/z: 303.2319
Precursor type: [M+H]+
m/z	relative intensity
67.0593	12
77.0405	20
79.0573	52
81.0724	62
83.0506	48
91.0544	25
93.0711	58
95.0862	110
97.0668	999
105.0701	36
107.0851	91
109.0658	975
119.0848	74
121.0641	40
121.1017	105
123.0803	107
123.116	9
131.0847	26
133.1012	82
135.1162	61
137.0955	11
143.085	15
145.1011	56
147.1159	59
149.0956	24
149.1316	59
157.1013	46
159.1158	104
161.0958	15
161.1318	73
163.1117	34
163.1475	29
169.1009	15
171.1163	57
173.1325	50
175.1099	20
175.1481	62
177.1265	53
177.1636	94
183.1167	18
185.1322	57
187.1474	49
189.1267	26
189.1637	189
197.133	28
199.1487	35
201.1629	63
203.1792	53
211.1478	106
215.1441	24
215.1783	48
225.1629	51
227.1794	241
229.1582	54
239.1811	21
245.1902	130
267.2105	333
285.2211	401
303.2326	853
