Mass spectrum: Bis(2,4,4-trimethylpentyl)phosphinic acid; LC-ESI-QTOF; MS2; 40 V
Name: Bis(2,4,4-trimethylpentyl)phosphinic acid
Class: Industrial_process
Formula: C16H35O2P
Exact mass: 290.2375
SMILES: CC(CC(C)(C)C)CP(=O)(CC(C)CC(C)(C)C)O
InChI: InChI=1S/C16H35O2P/c1-13(9-15(3,4)5)11-19(17,18)12-14(2)10-16(6,7)8/h13-14H,9-12H2,1-8H3,(H,17,18)
Instrument: TripleTOF 6600 SCIEX
Instrument type: LC-ESI-QTOF
Ms type: MS2
Ion mode: POSITIVE
Collision energy: 40
Fragmentation mode: CID
Ionization: ESI
Column name: Zorbax Eclipse Plus C18 2.1 mm x 150 mm, 3.5 um, Agilent
Retention time: 14.45 min
Precursor m/z: 291.2448
Precursor type: [M+H]+
m/z	relative intensity
41.0381	13
55.0538	11
57.0697	170
62.9987	11
69.0694	52
71.085	15
80.0012	12
87.0351	14
94.0172	25
97.1005	12
105.0459	61
111.1163	21
121.0406	30
123.0562	10
135.0562	20
161.1088	41
163.088	19
177.1034	23
179.1192	71
193.1348	15
203.1555	28
217.1718	123
219.1515	21
221.1666	25
231.1882	12
235.1826	300
257.2029	15
273.235	57
275.214	19
291.2458	999
