Mass spectrum: Prednisone; LC-ESI-QTOF; MS2; 110 V
Name: Prednisone
Class: Pharmaceutical
Formula: C21H26O5
Exact mass: 358.178
SMILES: C[C@]12CC(=O)[C@H]3[C@@H](CCC4=CC(=O)C=C[C@]34C)[C@@H]1CC[C@]2(O)C(=O)CO
InChI: InChI=1S/C21H26O5/c1-19-7-5-13(23)9-12(19)3-4-14-15-6-8-21(26,17(25)11-22)20(15,2)10-16(24)18(14)19/h5,7,9,14-15,18,22,26H,3-4,6,8,10-11H2,1-2H3/t14-,15-,18+,19-,20-,21-/m0/s1
Instrument: TripleTOF 5600 SCIEX
Instrument type: LC-ESI-QTOF
Ms type: MS2
Ion mode: POSITIVE
Collision energy: 110
Fragmentation mode: CID
Ionization: ESI
Column name: Zorbax Eclipse Plus C18 2.1 mm x 150 mm, 3.5 um, Agilent
Retention time: 8.469 min
Precursor m/z: 359.1853
Precursor type: [M+H]+
m/z	relative intensity
43.0243	52
51.0283	70
53.0443	21
55.0214	17
55.0583	14
65.0428	200
67.0573	66
77.0411	759
78.0475	73
79.056	119
81.0714	35
89.0398	66
91.0557	661
93.0713	28
94.042	14
95.0496	21
95.0848	35
101.0412	21
102.0469	66
103.0543	232
104.0624	38
105.0703	66
107.0486	56
115.0544	999
116.0626	84
117.069	87
119.0868	28
121.0646	52
126.045	31
127.0541	306
128.0618	590
128.0835	28
129.0697	165
130.0768	17
131.0492	284
132.0577	109
139.0535	126
140.0609	31
141.0694	189
142.0771	24
144.0578	73
145.0646	59
147.077	14
150.0459	35
151.054	168
152.0622	661
153.07	189
155.0544	17
155.0874	24
157.0656	91
158.0744	24
163.0545	63
164.0617	66
165.0697	696
166.0781	49
167.0851	35
168.0547	42
169.0641	31
176.0625	175
177.0697	98
178.0778	485
179.0861	66
181.0646	221
182.0702	24
188.061	38
189.0705	464
190.0781	98
191.085	66
194.0718	70
195.085	28
200.061	56
201.0686	84
202.0777	386
203.0858	77
205.0663	59
206.0746	21
207.0799	52
213.0696	49
214.0786	28
215.0847	158
218.0723	56
219.0817	17
221.1009	17
226.0773	77
227.0844	17
228.0926	45
231.0828	59
239.0854	31
