Mass spectrum: N-[4-(1H-benzimidazol-2-yl)phenyl]-N,N-dimethylamine; LC-ESI-QTOF; MS2; 120 V
Name: N-[4-(1H-benzimidazol-2-yl)phenyl]-N,N-dimethylamine
Class: Pharmaceutical
Formula: C15H15N3
Exact mass: 237.1266
SMILES: CN(C)C1=CC=C(C=C1)C2=NC3=CC=CC=C3N2
InChI: InChI=1S/C15H15N3/c1-18(2)12-9-7-11(8-10-12)15-16-13-5-3-4-6-14(13)17-15/h3-10H,1-2H3,(H,16,17)
Instrument: TripleTOF 5600 SCIEX
Instrument type: LC-ESI-QTOF
Ms type: MS2
Ion mode: POSITIVE
Collision energy: 120
Fragmentation mode: CID
Ionization: ESI
Column name: Zorbax Eclipse Plus C18 2.1 mm x 150 mm, 3.5 um, Agilent
Retention time: 6.517 min
Precursor m/z: 238.1339
Precursor type: [M+H]+
m/z	relative intensity
52.0259	99
52.0339	59
64.0368	255
65.0457	999
66.044	18
73.0105	12
74.0213	159
75.0278	215
76.0224	184
77.0438	324
78.0422	34
86.0208	49
87.0263	90
88.0211	31
88.0332	78
89.0425	615
90.0393	84
91.0454	137
92.0533	115
98.0178	24
99.0248	21
100.0217	18
101.0401	37
102.0353	190
103.0426	37
104.0527	28
111.0226	21
112.0187	18
113.0406	259
114.0364	81
114.0489	21
115.0544	127
116.0498	43
118.052	46
125.0365	15
126.0425	46
127.0516	34
128.0499	24
129.0443	21
130.0426	15
137.0392	165
138.0464	159
139.055	474
140.0511	359
141.0513	15
142.0516	28
143.0587	62
152.047	15
153.0487	15
163.0431	49
164.0503	643
165.0495	196
166.0648	127
167.0703	40
189.0472	21
190.0517	34
191.0594	206
192.0684	265
193.0658	18
193.0812	12
