Mass spectrum: Boscalid; LC-ESI-QTOF; MS2; 90 V
Name: Boscalid
Class: Fungicide
Formula: C18H12Cl2N2O
Exact mass: 342.0327
SMILES: C1=CC=C(C(=C1)C2=CC=C(C=C2)Cl)NC(=O)C3=C(N=CC=C3)Cl
InChI: InChI=1S/C18H12Cl2N2O/c19-13-9-7-12(8-10-13)14-4-1-2-6-16(14)22-18(23)15-5-3-11-21-17(15)20/h1-11H,(H,22,23)
Instrument: TripleTOF 6600 SCIEX
Instrument type: LC-ESI-QTOF
Ms type: MS2
Ion mode: POSITIVE
Collision energy: 90
Fragmentation mode: CID
Ionization: ESI
Column name: Zorbax Eclipse Plus C18 2.1 mm x 150 mm, 3.5 um, Agilent
Retention time: 12.31 min
Precursor m/z: 343.04
Precursor type: [M+H]+
m/z	relative intensity
49.0075	32
50.0151	193
51.0227	424
52.018	26
61.9785	75
63.0226	26
74.0141	26
75.0095	166
76.0181	999
77.0262	26
77.0397	21
78.0333	596
84.9843	145
89.038	26
111.9937	397
113.0016	42
113.0386	69
114.0346	37
114.0464	42
115.0523	26
126.0458	48
139.0538	69
140.0493	107
141.0435	32
142.0531	26
149.0382	53
150.045	166
151.052	220
152.0611	209
163.0549	64
164.0568	80
165.0684	75
166.0644	102
167.0759	42
174.0443	53
175.0532	96
176.0587	128
177.0569	247
178.062	32
187.0541	91
188.0484	26
188.0603	112
189.0551	64
189.069	263
190.0644	241
191.0741	42
198.0441	75
199.0372	26
199.0529	145
200.0605	284
201.059	204
202.0639	171
203.0725	134
204.0557	37
204.0794	37
212.0507	21
213.0563	64
214.0641	682
215.0718	349
216.0765	327
217.0824	69
223.041	26
224.0488	42
225.0572	300
226.0643	177
227.0568	32
227.072	230
228.0775	91
239.0634	26
240.0673	198
241.0753	623
242.0829	837
243.0925	118
244.0737	32
245.0717	26
251.0589	48
252.068	123
253.0746	187
254.0821	21
269.07	80
270.0787	107
271.0846	48
