Mass spectrum: 2-Aminobenzimidazole; LC-ESI-QTOF; MS2; 80 V
Name: 2-Aminobenzimidazole
Class: Transformation_product; Fungicide; Transformation_product-Metabolite
Formula: C7H7N3
Exact mass: 133.064
SMILES: C1=CC=C2C(=C1)NC(=N2)N
InChI: InChI=1S/C7H7N3/c8-7-9-5-3-1-2-4-6(5)10-7/h1-4H,(H3,8,9,10)
Instrument: TripleTOF 6600 SCIEX
Instrument type: LC-ESI-QTOF
Ms type: MS2
Ion mode: NEGATIVE
Collision energy: 80
Fragmentation mode: CID
Ionization: ESI
Column name: Zorbax Eclipse Plus C18 2.1 mm x 150 mm, 3.5 um, Agilent
Retention time: 4.787 min
Precursor m/z: 132.0567
Precursor type: [M-H]-
m/z	relative intensity
40.0071	399
41.0149	999
