Mass spectrum: Edetol; LC-ESI-QTOF; MS2; 50 V
Name: Edetol
Formula: C14H32N2O4
Exact mass: 292.2362
SMILES: CC(CN(CCN(CC(C)O)CC(C)O)CC(C)O)O
InChI: InChI=1S/C14H32N2O4/c1-11(17)7-15(8-12(2)18)5-6-16(9-13(3)19)10-14(4)20/h11-14,17-20H,5-10H2,1-4H3
Instrument: TripleTOF 6600 SCIEX
Instrument type: LC-ESI-QTOF
Ms type: MS2
Ion mode: POSITIVE
Collision energy: 50
Fragmentation mode: CID
Ionization: ESI
Column name: Zorbax Eclipse Plus C18 2.1 mm x 150 mm, 3.5 um, Agilent
Retention time: 2.645 min
Precursor m/z: 293.2435
Precursor type: [M+H]+
m/z	relative intensity
31.0178	14
39.0224	43
41.0383	202
42.0334	64
43.0537	14
44.0491	28
45.033	31
55.0533	45
56.049	124
58.0645	31
59.0484	282
67.0532	72
70.0648	67
72.0799	60
79.0538	18
80.0494	11
81.0688	26
82.0644	73
84.0801	999
86.0961	28
96.0807	35
97.0866	14
98.0952	146
100.0742	111
102.0902	320
112.1108	77
116.104	19
124.1099	32
127.0971	35
142.1209	443
160.1324	439
