Mass spectrum: Omeprazole sulfide 5-carboxylic acid; LC-ESI-QTOF; MS2; 110 V
Name: Omeprazole sulfide 5-carboxylic acid
Class: Metabolite; Pharmaceutical
Formula: C17H17N3O4S
Exact mass: 359.094
SMILES: CC1=C(C(=CN=C1CSC2=NC3=C(N2)C=C(C=C3)OC)C(=O)O)OC
InChI: InChI=1S/C17H17N3O4S/c1-9-14(18-7-11(16(21)22)15(9)24-3)8-25-17-19-12-5-4-10(23-2)6-13(12)20-17/h4-7H,8H2,1-3H3,(H,19,20)(H,21,22)
Instrument: TripleTOF 5600 SCIEX
Instrument type: LC-ESI-QTOF
Ms type: MS2
Ion mode: POSITIVE
Collision energy: 110
Fragmentation mode: CID
Ionization: ESI
Column name: Zorbax Eclipse Plus C18 2.1 mm x 150 mm, 3.5 um, Agilent
Retention time: 5.75 min
Precursor m/z: 360.1013
Precursor type: [M+H]+
m/z	relative intensity
42.0471	38
43.0315	50
50.0232	15
51.0315	59
52.0261	17
52.0392	71
53.0106	19
53.0472	81
63.0281	27
63.037	10
64.0386	13
65.0456	132
66.043	99
67.0469	20
67.0584	13
68.058	10
68.9841	26
69.992	10
71.9946	10
77.0436	210
78.0393	160
79.0241	20
79.047	420
80.0188	40
80.0539	181
82.9993	38
85.0136	20
89.0411	20
90.0375	27
91.0458	38
92.0531	111
93.0481	230
94.0313	10
94.0685	31
94.9991	12
96.004	29
97.0132	118
104.0513	33
105.0466	95
106.0325	12
106.0622	999
107.0745	130
108.0476	19
108.0831	27
109.0173	10
110.0076	90
117.0475	10
118.0305	17
118.06	13
119.0627	22
120.0469	12
122.0081	27
122.0598	17
123.0169	26
124.0233	22
133.0413	20
134.0085	34
134.0491	197
136.0218	24
136.0767	17
137.0179	338
140.053	13
152.0182	41
155.0567	10
165.0113	80
166.0343	10
167.0615	12
177.996	15
180.0146	12
193.0652	17
194.0733	20
196.0861	10
