Mass spectrum: Ioxitalamic acid; LC-ESI-QTOF; MS2; 40 V
Name: Ioxitalamic acid
Class: Pharmaceutical
Formula: C12H11I3N2O5
Exact mass: 643.7802
SMILES: CC(=O)NC1=C(C(=C(C(=C1I)C(=O)O)I)C(=O)NCCO)I
InChI: InChI=1S/C12H11I3N2O5/c1-4(19)17-10-8(14)5(11(20)16-2-3-18)7(13)6(9(10)15)12(21)22/h18H,2-3H2,1H3,(H,16,20)(H,17,19)(H,21,22)
Instrument: TripleTOF 5600 SCIEX
Instrument type: LC-ESI-QTOF
Ms type: MS2
Ion mode: POSITIVE
Collision energy: 40
Fragmentation mode: CID
Ionization: ESI
Column name: Zorbax Eclipse Plus C18 2.1 mm x 150 mm, 3.5 um, Agilent
Retention time: 3.818 min
Precursor m/z: 644.7875
Precursor type: [M+H]+
m/z	relative intensity
301.933	999
390.9847	57
428.8385	883
455.8237	680
456.8319	101
516.8734	57
583.7344	304
644.7878	72
