Mass spectrum: Omeprazole sulfide 5-carboxylic acid; LC-ESI-QTOF; MS2; 80 V
Name: Omeprazole sulfide 5-carboxylic acid
Class: Metabolite; Pharmaceutical
Formula: C17H17N3O4S
Exact mass: 359.094
SMILES: CC1=C(C(=CN=C1CSC2=NC3=C(N2)C=C(C=C3)OC)C(=O)O)OC
InChI: InChI=1S/C17H17N3O4S/c1-9-14(18-7-11(16(21)22)15(9)24-3)8-25-17-19-12-5-4-10(23-2)6-13(12)20-17/h4-7H,8H2,1-3H3,(H,19,20)(H,21,22)
Instrument: TripleTOF 5600 SCIEX
Instrument type: LC-ESI-QTOF
Ms type: MS2
Ion mode: POSITIVE
Collision energy: 80
Fragmentation mode: CID
Ionization: ESI
Column name: Zorbax Eclipse Plus C18 2.1 mm x 150 mm, 3.5 um, Agilent
Retention time: 5.75 min
Precursor m/z: 360.1013
Precursor type: [M+H]+
m/z	relative intensity
42.0455	22
43.029	57
51.0311	19
52.0403	12
53.047	32
63.0288	10
65.0456	68
66.0512	28
67.0601	34
77.0434	73
78.0389	51
79.0236	16
79.0489	220
80.0546	175
82.9981	21
85.0151	39
90.0387	15
91.0449	20
92.0534	128
93.0489	81
94.0337	10
94.0685	47
96.0097	12
97.0137	159
104.0526	24
105.0474	33
106.0296	10
106.0622	999
107.0759	428
108.0471	65
108.0827	45
109.0127	37
110.0091	77
110.993	21
112.0235	43
118.0307	27
118.0609	19
119.0385	12
119.0634	18
120.0471	47
122.0065	20
122.0619	110
123.0153	30
124.0237	100
132.0473	12
133.0424	14
134.0074	37
134.0491	772
136.0231	133
136.0777	33
137.0179	441
138.0261	15
147.0557	49
148.0403	22
149.0719	149
150.0573	27
152.0174	173
152.0706	32
153.0262	20
162.0802	14
165.0129	409
166.0201	16
167.0609	15
169.0759	12
177.9965	39
180.0111	125
180.0347	16
194.0702	38
195.0785	25
196.0623	10
208.0859	15
222.0656	25
223.0732	28
224.0819	20
238.0513	10
251.0643	10
