Mass spectrum: Acetylsulfamethoxazole; LC-ESI-QTOF; MS2; 80 V
Name: Acetylsulfamethoxazole
Class: Metabolite; Pharmaceutical
Formula: C12H13N3O4S
Exact mass: 295.0627
SMILES: CC1=CC(=NO1)NS(=O)(=O)C2=CC=C(C=C2)NC(=O)C
InChI: InChI=1S/C12H13N3O4S/c1-8-7-12(14-19-8)15-20(17,18)11-5-3-10(4-6-11)13-9(2)16/h3-7H,1-2H3,(H,13,16)(H,14,15)
Instrument: TripleTOF 5600 SCIEX
Instrument type: LC-ESI-QTOF
Ms type: MS2
Ion mode: POSITIVE
Collision energy: 80
Fragmentation mode: CID
Ionization: ESI
Column name: Zorbax Eclipse Plus C18 2.1 mm x 150 mm, 3.5 um, Agilent
Retention time: 7.411 min
Precursor m/z: 296.07
Precursor type: [M+H]+
m/z	relative intensity
43.0298	69
53.0473	42
65.0458	999
66.0389	19
66.0509	61
77.0433	273
78.0392	57
79.0588	73
80.0536	366
89.0419	23
90.0377	15
91.0448	15
92.0521	173
93.0367	23
93.0602	189
94.0671	38
99.0604	23
104.0515	23
105.0492	19
106.0681	19
107.0647	27
108.0456	231
119.0636	34
129.0446	15
131.0629	19
146.0729	38
