Mass spectrum: Methabenzthiazuron; LC-ESI-QTOF; MS2; 130 V
Name: Methabenzthiazuron
Class: Herbicide
Formula: C10H11N3OS
Exact mass: 221.0623
SMILES: CNC(=O)N(C)c1sc2ccccc2n1
InChI: InChI=1S/C10H11N3OS/c1-11-9(14)13(2)10-12-7-5-3-4-6-8(7)15-10/h3-6H,1-2H3,(H,11,14)
Instrument: TripleTOF 5600 SCIEX
Instrument type: LC-ESI-QTOF
Ms type: MS2
Ion mode: POSITIVE
Collision energy: 130
Fragmentation mode: CID
Ionization: ESI
Column name: Zorbax Eclipse Plus C18 2.1 mm x 150 mm, 3.5 um, Agilent
Retention time: 9.783 min
Precursor m/z: 222.0696
Precursor type: [M+H]+
m/z	relative intensity
51.0284	92
52.0355	23
57.992	12
58.0349	70
67.9751	66
68.9838	999
69.9909	146
70.0324	12
78.0354	11
80.9815	17
81.9898	36
92.9799	50
94.9959	282
96.0045	40
122.0053	12
