Mass spectrum: N,O-didesmethyl-venlafaxine; LC-ESI-QTOF; MS2; 110 V
Name: N,O-didesmethyl-venlafaxine
Class: Pharmaceutical; Metabolite; Transformation_product-Metabolite
Formula: C15H23NO2
Exact mass: 249.1729
SMILES: CNCC(c1ccc(cc1)O)C2(CCCCC2)O
InChI: InChI=1S/C15H23NO2/c1-16-11-14(12-5-7-13(17)8-6-12)15(18)9-3-2-4-10-15/h5-8,14,16-18H,2-4,9-11H2,1H3
Instrument: TripleTOF 5600 SCIEX
Instrument type: LC-ESI-QTOF
Ms type: MS2
Ion mode: POSITIVE
Collision energy: 110
Fragmentation mode: CID
Ionization: ESI
Column name: Zorbax Eclipse Plus C18 2.1 mm x 150 mm, 3.5 um, Agilent
Retention time: 5.659 min
Precursor m/z: 250.1802
Precursor type: [M+H]+
m/z	relative intensity
42.0441	38
44.0587	651
53.044	30
55.0236	45
65.0421	154
66.0499	17
74.0179	11
75.0267	14
77.0415	999
78.048	27
79.056	106
81.0347	13
81.0725	30
89.0406	89
91.0554	103
94.0423	16
102.0483	14
103.0541	32
107.0487	103
115.0542	123
119.0486	19
127.0545	13
128.0613	19
