Mass spectrum: Sulfisoxazole; LC-ESI-QTOF; MS2; 10 V
Name: Sulfisoxazole
Class: Antimicrobial; Metabolite; Pharmaceutical
Formula: C11H13N3O3S
Exact mass: 267.0678
SMILES: CC1=C(ON=C1C)NS(=O)(=O)C2=CC=C(C=C2)N
InChI: InChI=1S/C11H13N3O3S/c1-7-8(2)13-17-11(7)14-18(15,16)10-5-3-9(12)4-6-10/h3-6,14H,12H2,1-2H3
Instrument: TripleTOF 5600 SCIEX
Instrument type: LC-ESI-QTOF
Ms type: MS2
Ion mode: POSITIVE
Collision energy: 10
Fragmentation mode: CID
Ionization: ESI
Column name: Zorbax Eclipse Plus C18 2.1 mm x 150 mm, 3.5 um, Agilent
Retention time: 7.557 min
Precursor m/z: 268.075
Precursor type: [M+H]+
m/z	relative intensity
113.0726	43
156.0121	123
268.0745	999
