Mass spectrum: 2-(1,3-Dioxan-2-yl)ethyltriphenylphosphonium; LC-ESI-QTOF; MS2; 120 V
Name: 2-(1,3-Dioxan-2-yl)ethyltriphenylphosphonium
Formula: [C24H26O2P]+
Exact mass: 377.1665
SMILES: C1COC(OC1)CC[P+](C2=CC=CC=C2)(C3=CC=CC=C3)C4=CC=CC=C4
InChI: InChI=1S/C24H26O2P/c1-4-11-21(12-5-1)27(22-13-6-2-7-14-22,23-15-8-3-9-16-23)20-17-24-25-18-10-19-26-24/h1-9,11-16,24H,10,17-20H2/q+1
Instrument: TripleTOF 5600 SCIEX
Instrument type: LC-ESI-QTOF
Ms type: MS2
Ion mode: POSITIVE
Collision energy: 120
Fragmentation mode: CID
Ionization: ESI
Column name: Zorbax Eclipse Plus C18 2.1 mm x 150 mm, 3.5 um, Agilent
Retention time: 7.976 min
Precursor m/z: 377.1665
Precursor type: [M]+
m/z	relative intensity
107.0033	517
115.0534	224
133.0197	77
139.0536	180
151.0536	94
152.0621	837
157.0197	394
181.0209	122
183.036	999
257.0515	67
