Mass spectrum: Praziquantel; LC-ESI-QTOF; MS2; 110 V
Name: Praziquantel
Class: Pharmaceutical
Formula: C19H24N2O2
Exact mass: 312.1838
SMILES: O=C1CN(CC2N1CCc3ccccc23)C(=O)C4CCCCC4
InChI: InChI=1S/C19H24N2O2/c22-18-13-20(19(23)15-7-2-1-3-8-15)12-17-16-9-5-4-6-14(16)10-11-21(17)18/h4-6,9,15,17H,1-3,7-8,10-13H2
Instrument: TripleTOF 5600 SCIEX
Instrument type: LC-ESI-QTOF
Ms type: MS2
Ion mode: POSITIVE
Collision energy: 110
Fragmentation mode: CID
Ionization: ESI
Column name: Zorbax Eclipse Plus C18 2.1 mm x 150 mm, 3.5 um, Agilent
Retention time: 10.768 min
Precursor m/z: 313.1911
Precursor type: [M+H]+
m/z	relative intensity
51.0274	41
55.0602	999
65.0434	83
77.0405	374
79.0572	104
83.0876	135
89.0408	228
90.0482	228
91.0543	249
91.0658	41
102.045	62
103.0538	280
105.0709	156
115.054	561
116.0615	52
117.0566	707
127.0542	145
128.0615	426
130.0654	457
132.0813	135
144.0856	93
