Mass spectrum: Citalopram-N-oxide; LC-ESI-QTOF; MS2; 120 V
Name: Citalopram-N-oxide
Class: Metabolite; Pharmaceutical; Transformation_product
Formula: C20H21FN2O2
Exact mass: 340.1587
SMILES: C[N+](C)(CCCC1(C2=C(CO1)C=C(C=C2)C#N)C3=CC=C(C=C3)F)[O-]
InChI: InChI=1S/C20H21FN2O2/c1-23(2,24)11-3-10-20(17-5-7-18(21)8-6-17)19-9-4-15(13-22)12-16(19)14-25-20/h4-9,12H,3,10-11,14H2,1-2H3
Instrument: TripleTOF 5600 SCIEX
Instrument type: LC-ESI-QTOF
Ms type: MS2
Ion mode: POSITIVE
Collision energy: 120
Fragmentation mode: CID
Ionization: ESI
Column name: Zorbax Eclipse Plus C18 2.1 mm x 150 mm, 3.5 um, Agilent
Retention time: 7.958 min
Precursor m/z: 341.166
Precursor type: [M+H]+
m/z	relative intensity
42.0419	43
43.0521	15
44.0578	25
51.0283	43
57.0194	368
58.0707	269
59.0338	76
60.0503	43
63.0649	10
65.0429	58
73.0096	12
74.019	162
75.0265	307
76.0359	20
77.0414	137
78.0494	17
81.0186	38
83.0325	999
83.066	10
86.0173	33
87.025	116
88.0195	33
88.0318	12
89.0409	490
89.0703	15
90.0347	58
94.0237	22
95.0317	76
95.0482	15
96.0383	25
97.0086	10
98.0164	101
99.0246	101
100.0304	17
101.0403	45
102.0467	35
105.0128	22
107.0293	88
109.046	432
110.0146	15
111.0224	33
112.0185	10
113.0392	320
114.0352	96
115.0544	88
116.0498	58
118.0218	12
120.0369	63
122.0147	66
123.0224	83
124.0309	22
125.04	55
126.0466	66
127.0545	53
128.0627	66
131.0294	48
133.0457	157
134.0153	10
137.0397	81
138.0345	15
138.0479	15
139.0543	66
140.0502	297
141.0136	10
142.0204	12
143.0311	17
144.0389	55
145.0497	22
146.0161	25
146.051	27
147.0226	25
148.0309	38
149.0385	124
150.0475	157
151.0523	53
152.0634	27
153.0565	12
155.0297	25
157.0447	91
158.0415	45
161.0389	142
162.0469	127
163.0537	249
164.0495	106
166.0197	15
167.0323	53
168.0368	287
169.0456	127
170.0533	96
172.0325	22
173.0414	91
174.0464	246
174.0747	10
175.0491	109
176.0571	50
177.0589	43
179.0295	48
180.0373	76
181.0457	427
182.0416	129
183.0605	40
185.0401	50
186.0459	68
187.0536	251
188.0501	274
188.0846	10
189.0612	58
190.0655	58
191.0338	15
192.0371	193
193.0438	111
194.0536	216
195.049	58
196.0384	12
196.0706	10
197.0399	94
198.0472	394
199.0528	355
200.0614	216
201.0591	76
202.0676	15
204.0398	30
205.0452	244
206.042	208
207.0561	124
208.0564	233
210.0446	25
211.0533	104
212.051	218
213.0687	183
214.0661	66
216.0383	104
217.0471	223
218.0532	876
219.0517	221
220.0677	76
221.0627	30
223.0434	63
224.0498	132
225.0579	406
226.064	43
227.0755	43
229.0466	25
230.0412	73
231.0611	185
232.0587	86
233.0772	27
236.0478	15
237.0577	22
238.0639	152
240.0818	27
241.0393	10
242.0544	20
243.0491	236
244.0576	205
245.0645	442
256.0555	58
258.0724	55
