Mass spectrum: Oxymetazoline; LC-ESI-QTOF; MS2; 110 V
Name: Oxymetazoline
Class: Pharmaceutical
Formula: C16H24N2O
Exact mass: 260.1889
SMILES: Cc1cc(c(c(c1CC2=NCCN2)C)O)C(C)(C)C
InChI: InChI=1S/C16H24N2O/c1-10-8-13(16(3,4)5)15(19)11(2)12(10)9-14-17-6-7-18-14/h8,19H,6-7,9H2,1-5H3,(H,17,18)
Instrument: TripleTOF 5600 SCIEX
Instrument type: LC-ESI-QTOF
Ms type: MS2
Ion mode: POSITIVE
Collision energy: 110
Fragmentation mode: CID
Ionization: ESI
Column name: Zorbax Eclipse Plus C18 2.1 mm x 150 mm, 3.5 um, Agilent
Retention time: 7.429 min
Precursor m/z: 261.1961
Precursor type: [M+H]+
m/z	relative intensity
43.0247	23
44.0574	28
54.0394	14
55.0491	11
63.0407	11
65.0435	365
71.0634	11
74.0193	14
75.0249	28
76.0345	27
77.0421	999
78.049	105
79.057	143
84.0721	11
89.0406	127
90.0464	11
91.0561	809
91.0925	11
101.0387	22
102.0466	156
103.0543	205
104.0605	11
105.0693	97
107.0493	14
115.0548	734
116.0606	51
117.0555	23
117.0702	127
118.0625	11
118.0788	11
121.0642	14
126.0463	46
127.0539	207
128.0623	416
128.0975	9
129.0702	30
130.0644	39
131.0491	59
133.0978	12
139.0538	17
140.0548	12
141.0693	94
142.0678	17
144.0817	14
145.0619	28
152.0625	15
159.0793	12
167.0751	14
