Mass spectrum: 6-Methylthioinosin; LC-ESI-QTOF; MS2; 60 V
Name: 6-Methylthioinosin
Class: Pharmaceutical
Formula: C11H14N4O4S
Exact mass: 298.0736
SMILES: CSc1ncnc2n(cnc12)C3OC(CO)C(O)C3O
InChI: InChI=1S/C11H14N4O4S/c1-20-10-6-9(12-3-13-10)15(4-14-6)11-8(18)7(17)5(2-16)19-11/h3-5,7-8,11,16-18H,2H2,1H3
Instrument: TripleTOF 5600 SCIEX
Instrument type: LC-ESI-QTOF
Ms type: MS2
Ion mode: POSITIVE
Collision energy: 60
Fragmentation mode: CID
Ionization: ESI
Column name: Zorbax Eclipse Plus C18 2.1 mm x 150 mm, 3.5 um, Agilent
Retention time: 5.666 min
Precursor m/z: 299.0809
Precursor type: [M+H]+
m/z	relative intensity
55.0224	12
57.0382	18
65.0176	11
67.0323	16
69.0371	12
70.9843	13
71.0163	15
71.9943	11
92.024	66
94.0409	20
97.993	16
99.0004	39
106.0388	102
107.0465	10
113.016	11
119.0348	548
121.05	55
125.0037	109
126.0115	285
133.05	82
134.0575	215
140.027	28
152.0149	515
167.0385	999
