Mass spectrum: Methiocarb; LC-ESI-QTOF; MS2; 120 V
Name: Methiocarb
Class: Acaricide; Insecticide
Formula: C11H15NO2S
Exact mass: 225.0823
SMILES: Cc1cc(cc(c1SC)C)OC(=O)NC
InChI: InChI=1S/C11H15NO2S/c1-7-5-9(14-11(13)12-3)6-8(2)10(7)15-4/h5-6H,1-4H3,(H,12,13)
Instrument: TripleTOF 6600 SCIEX
Instrument type: LC-ESI-QTOF
Ms type: MS2
Ion mode: POSITIVE
Collision energy: 120
Fragmentation mode: CID
Ionization: ESI
Column name: Zorbax Eclipse Plus C18 2.1 mm x 150 mm, 3.5 um, Agilent
Retention time: 11.34614 min
Precursor m/z: 226.0896
Precursor type: [M+H]+
m/z	relative intensity
35.9982	31
37.0053	171
37.9999	26
38.013	130
39.0211	442
41.0365	41
43.9692	20
44.9771	140
49.005	104
50.0128	608
51.0206	999
52.0282	36
53.0353	36
55.0173	26
58.992	26
61.0055	52
62.0122	88
63.0207	130
65.0359	166
68.9766	88
74.0114	52
75.0198	36
77.0355	333
78.0427	52
89.0366	72
91.0521	93
92.9743	31
