Mass spectrum: 2-N-methyl-lamotrigine; LC-ESI-QTOF; MS2; 110 V
Name: 2-N-methyl-lamotrigine
Class: Metabolite; Pharmaceutical
Formula: C10H9Cl2N5
Exact mass: 269.0235
SMILES: CN1N=C(C2=CC=CC(Cl)=C2Cl)C(N)=NC1=N
InChI: InChI=1S/C10H9Cl2N5/c1-17-10(14)15-9(13)8(16-17)5-3-2-4-6(11)7(5)12/h2-4H,1H3,(H3,13,14,15)
Instrument: TripleTOF 5600 SCIEX
Instrument type: LC-ESI-QTOF
Ms type: MS2
Ion mode: POSITIVE
Collision energy: 110
Fragmentation mode: CID
Ionization: ESI
Column name: Zorbax Eclipse Plus C18 2.1 mm x 150 mm, 3.5 um, Agilent
Retention time: 6.444 min
Precursor m/z: 270.0308
Precursor type: [M+H]+
m/z	relative intensity
57.0492	999
60.9882	26
61.0235	26
61.9839	32
68.026	32
72.9857	416
73.0109	165
74.0171	651
75.0127	32
75.0243	181
76.019	42
76.034	21
77.0421	48
82.9458	26
84.9852	26
85.0079	32
86.0162	85
87.0242	224
88.0187	144
88.0309	154
89.0273	21
89.0385	32
96.9834	149
99.01	427
100.0177	448
102.0321	26
106.9444	26
108.9832	112
111.0008	42
114.032	138
121.9908	58
122.9996	347
123.9921	42
135.9951	21
