Mass spectrum: Naringenin; LC-ESI-QTOF; MS2; 50 V
Name: Naringenin
Class: Pharmaceutical
Formula: C15H12O5
Exact mass: 272.0685
SMILES: Oc1ccc(cc1)C2CC(=O)c3c(O)cc(O)cc3O2
InChI: InChI=1S/C15H12O5/c16-9-3-1-8(2-4-9)13-7-12(19)15-11(18)5-10(17)6-14(15)20-13/h1-6,13,16-18H,7H2
Instrument: TripleTOF 5600 SCIEX
Instrument type: LC-ESI-QTOF
Ms type: MS2
Ion mode: POSITIVE
Collision energy: 50
Fragmentation mode: CID
Ionization: ESI
Column name: Zorbax Eclipse Plus C18 2.1 mm x 150 mm, 3.5 um, Agilent
Retention time: 9.18 min
Precursor m/z: 273.0757
Precursor type: [M+H]+
m/z	relative intensity
65.0434	64
67.0208	64
68.9995	112
69.0363	74
77.0397	42
79.0219	13
91.0547	438
95.0476	45
97.0273	34
107.0482	32
111.0059	21
119.0473	357
123.0447	29
147.0427	96
152.061	16
153.0169	999
