Mass spectrum: 4-Carboxy-9-acridanone; LC-ESI-QTOF; MS2; 140 V
Name: 4-Carboxy-9-acridanone
Class: Pharmaceutical; Antimicrobial
Formula: C14H9NO3
Exact mass: 239.0582
SMILES: c1ccc2c(c1)c(=O)c3cccc(c3[nH]2)C(=O)O
InChI: InChI=1S/C14H9NO3/c16-13-8-4-1-2-7-11(8)15-12-9(13)5-3-6-10(12)14(17)18/h1-7H,(H,15,16)(H,17,18)
Instrument: TripleTOF 5600 SCIEX
Instrument type: LC-ESI-QTOF
Ms type: MS2
Ion mode: POSITIVE
Collision energy: 140
Fragmentation mode: CID
Ionization: ESI
Column name: Zorbax Eclipse Plus C18 2.1 mm x 150 mm, 3.5 um, Agilent
Retention time: 8.816 min
Precursor m/z: 240.0655
Precursor type: [M+H]+
m/z	relative intensity
51.0274	86
60.0032	115
62.0505	159
63.0567	86
73.0092	130
74.017	767
75.0242	188
85.0083	448
86.0164	999
87.0126	72
87.0241	405
88.0198	144
89.0391	144
97.0072	72
98.0149	448
99.0146	72
109.0055	72
110.0121	86
113.0356	72
114.0342	86
122.0153	101
