Mass spectrum: Thymidine; LC-ESI-QTOF; MS2; 140 V
Name: Thymidine
Class: Metabolite
Formula: C10H14N2O5
Exact mass: 242.0903
SMILES: OCC1OC(N2C=C(C)C(NC2=O)=O)CC1O
InChI: InChI=1S/C10H14N2O5/c1-5-3-12(10(16)11-9(5)15)8-2-6(14)7(4-13)17-8/h3,6-8,13-14H,2,4H2,1H3,(H,11,15,16)
Instrument: TripleTOF 5600 SCIEX
Instrument type: LC-ESI-QTOF
Ms type: MS2
Ion mode: POSITIVE
Collision energy: 140
Fragmentation mode: CID
Ionization: ESI
Column name: Zorbax Eclipse Plus C18 2.1 mm x 150 mm, 3.5 um, Agilent
Retention time: 4.533 min
Precursor m/z: 243.0976
Precursor type: [M+H]+
m/z	relative intensity
39.0227	999
41.039	315
43.0185	473
44.0129	893
45.0331	578
