Mass spectrum: Hydroxytorasemide; LC-ESI-QTOF; MS2; 10 V
Name: Hydroxytorasemide
Class: Pharmaceutical; Transformation_product
Formula: C16H20N4O4S
Exact mass: 364.1205
SMILES: CC(C)NC(=O)NS(=O)(=O)c1cnccc1Nc2cccc(c2)CO
InChI: InChI=1S/C16H20N4O4S/c1-11(2)18-16(22)20-25(23,24)15-9-17-7-6-14(15)19-13-5-3-4-12(8-13)10-21/h3-9,11,21H,10H2,1-2H3,(H,17,19)(H2,18,20,22)
Instrument: TripleTOF 5600 SCIEX
Instrument type: LC-ESI-QTOF
Ms type: MS2
Ion mode: POSITIVE
Collision energy: 10
Fragmentation mode: CID
Ionization: ESI
Column name: Zorbax Eclipse Plus C18 2.1 mm x 150 mm, 3.5 um, Agilent
Retention time: 5.824 min
Precursor m/z: 365.1278
Precursor type: [M+H]+
m/z	relative intensity
280.0744	447
306.0545	141
365.1296	999
