Mass spectrum: Testosterone; LC-ESI-QTOF; MS2; 100 V
Name: Testosterone
Class: Pharmaceutical
Formula: C19H28O2
Exact mass: 288.2089
SMILES: C[C@]12CC[C@H]3[C@@H](CCC4=CC(=O)CC[C@]34C)[C@@H]1CC[C@@H]2O
InChI: InChI=1S/C19H28O2/c1-18-9-7-13(20)11-12(18)3-4-14-15-5-6-17(21)19(15,2)10-8-16(14)18/h11,14-17,21H,3-10H2,1-2H3/t14-,15-,16-,17-,18-,19-/m0/s1
Instrument: TripleTOF 5600 SCIEX
Instrument type: LC-ESI-QTOF
Ms type: MS2
Ion mode: POSITIVE
Collision energy: 100
Fragmentation mode: CID
Ionization: ESI
Column name: Zorbax Eclipse Plus C18 2.1 mm x 150 mm, 3.5 um, Agilent
Retention time: 10.968 min
Precursor m/z: 289.2162
Precursor type: [M+H]+
m/z	relative intensity
43.0266	114
43.0528	20
53.0449	98
55.0234	77
55.0448	28
57.041	24
65.0434	221
66.0519	32
67.0599	77
69.076	32
77.0436	999
78.0562	28
79.0585	528
81.036	16
81.0738	118
82.0448	32
83.0517	36
89.0419	24
91.0579	380
91.0966	20
93.0727	28
94.0441	40
95.0857	16
97.0685	225
103.0574	53
105.0731	57
107.0531	49
109.0672	73
109.0899	20
115.0567	159
127.0551	24
128.0642	110
129.0722	28
141.071	36
152.0649	16
165.0767	20
