Mass spectrum: (1-(3,4-Dimethoxybenzoyl)-undecyl)-trimethyl-ammonium; LC-ESI-QTOF; MS2; 140 V
Name: (1-(3,4-Dimethoxybenzoyl)-undecyl)-trimethyl-ammonium
Formula: [C23H40NO3]+
Exact mass: 378.3003
SMILES: CCCCCCCCCCC(C(=O)c1ccc(c(c1)OC)OC)[N+](C)(C)C
InChI: InChI=1S/C23H40NO3/c1-7-8-9-10-11-12-13-14-15-20(24(2,3)4)23(25)19-16-17-21(26-5)22(18-19)27-6/h16-18,20H,7-15H2,1-6H3/q+1
Instrument: TripleTOF 5600 SCIEX
Instrument type: LC-ESI-QTOF
Ms type: MS2
Ion mode: POSITIVE
Collision energy: 140
Fragmentation mode: CID
Ionization: ESI
Column name: Zorbax Eclipse Plus C18 2.1 mm x 150 mm, 3.5 um, Agilent
Retention time: 10.896 min
Precursor m/z: 378.3003
Precursor type: [M]+
m/z	relative intensity
44.058	249
45.0647	55
55.0229	103
58.0702	184
60.086	149
64.0343	184
65.043	486
66.0504	389
76.0341	61
77.0415	999
78.0481	68
79.0204	142
79.0563	61
89.0396	77
92.0262	220
94.0401	51
105.0336	103
107.0124	197
107.0483	103
121.0281	230
