Mass spectrum: Ecgonine ethyl ester; LC-ESI-QTOF; MS2; 60 V
Name: Ecgonine ethyl ester
Formula: C11H19NO3
Exact mass: 213.1365
SMILES: CCOC(=O)C1C2CCC(N2C)CC1O
InChI: InChI=1S/C11H19NO3/c1-3-15-11(14)10-8-5-4-7(12(8)2)6-9(10)13/h7-10,13H,3-6H2,1-2H3
Instrument: TripleTOF 6600 SCIEX
Instrument type: LC-ESI-QTOF
Ms type: MS2
Ion mode: POSITIVE
Collision energy: 60
Fragmentation mode: CID
Ionization: ESI
Column name: Zorbax Eclipse Plus C18 2.1 mm x 150 mm, 3.5 um, Agilent
Retention time: 2.108 min
Precursor m/z: 214.1438
Precursor type: [M+H]+
m/z	relative intensity
37.0076	20
39.0242	61
41.0262	20
41.0395	112
42.035	132
43.0177	20
44.0507	30
51.0248	20
53.0401	20
55.0197	30
55.0552	81
56.0506	61
57.0583	40
58.0317	20
65.0391	183
67.0432	285
67.0547	122
68.0506	305
69.0348	40
70.0665	30
71.0136	30
77.0395	61
78.0335	10
79.0551	40
80.0495	50
81.057	40
81.0701	20
82.0664	999
83.0496	40
83.073	91
84.0816	40
91.0554	214
93.0355	30
93.058	20
94.066	265
95.078	10
96.0811	71
105.048	40
106.0668	20
108.0824	20
122.0967	30
140.0713	20
