Mass spectrum: Lamotrigine; LC-ESI-QTOF; MS2; 130 V
Name: Lamotrigine
Class: Pharmaceutical
Formula: C9H7Cl2N5
Exact mass: 255.0079
SMILES: Nc1nnc(c(N)n1)c2cccc(Cl)c2Cl
InChI: InChI=1S/C9H7Cl2N5/c10-5-3-1-2-4(6(5)11)7-8(12)14-9(13)16-15-7/h1-3H,(H4,12,13,14,16)
Instrument: TripleTOF 5600 SCIEX
Instrument type: LC-ESI-QTOF
Ms type: MS2
Ion mode: POSITIVE
Collision energy: 130
Fragmentation mode: CID
Ionization: ESI
Column name: Zorbax Eclipse Plus C18 2.1 mm x 150 mm, 3.5 um, Agilent
Retention time: 6.024 min
Precursor m/z: 256.0151
Precursor type: [M+H]+
m/z	relative intensity
42.0308	59
43.0382	726
58.0476	23
61.9821	15
68.0276	23
72.0043	23
72.9878	102
73.0112	201
74.0185	999
75.0127	47
75.0251	106
76.0204	23
82.9465	15
83.9774	43
84.9856	35
85.0113	27
86.0177	71
87.0246	35
88.0212	19
89.0448	15
95.978	19
96.9846	23
98.0159	27
99.0116	300
100.0182	82
106.9465	19
108.9848	23
123.0106	31
