Mass spectrum: 2-(3-Hydroxyquinolin-2-yl)indene-1,3-dione; LC-ESI-QTOF; MS2; 50 V
Name: 2-(3-Hydroxyquinolin-2-yl)indene-1,3-dione
Class: Industrial_process; Personal_care_product; Pigment
Formula: C18H11NO3
Exact mass: 289.0739
SMILES: C1=CC=C2C(=C1)C=C(C(=N2)C3C(=O)C4=CC=CC=C4C3=O)O
InChI: InChI=1S/C18H11NO3/c20-14-9-10-5-1-4-8-13(10)19-16(14)15-17(21)11-6-2-3-7-12(11)18(15)22/h1-9,15,20H
Instrument: TripleTOF 6600 SCIEX
Instrument type: LC-ESI-QTOF
Ms type: MS2
Ion mode: POSITIVE
Collision energy: 50
Fragmentation mode: CID
Ionization: ESI
Column name: Zorbax Eclipse Plus C18 2.1 mm x 150 mm, 3.5 um, Agilent
Retention time: 14.718 min
Precursor m/z: 290.0812
Precursor type: [M+H]+
m/z	relative intensity
77.0381	74
89.0382	33
91.0546	14
105.0334	83
115.0537	45
116.0492	66
117.0562	27
128.0493	24
129.0566	16
130.0641	29
158.0581	27
165.0699	29
177.0581	12
178.0779	22
179.0859	14
188.0612	14
189.0691	292
190.0657	101
191.0862	10
204.0802	118
205.0878	37
206.0943	47
214.0631	89
215.0721	149
216.0805	999
217.0653	18
217.0886	178
218.0932	18
232.0744	43
233.0833	76
234.093	54
243.0667	24
244.0744	108
245.0819	33
246.0897	49
260.072	24
261.077	45
262.0871	24
272.0692	199
290.0807	93
