Mass spectrum: Flecainide meta-O-dealkylated; LC-ESI-QTOF; MS2; 40 V
Name: Flecainide meta-O-dealkylated
Class: Pharmaceutical; Transformation_product
Formula: C15H19F3N2O3
Exact mass: 332.1348
SMILES: C1CCNC(C1)CNC(=O)C2=C(C=CC(=C2)O)OCC(F)(F)F
InChI: InChI=1S/C15H19F3N2O3/c16-15(17,18)9-23-13-5-4-11(21)7-12(13)14(22)20-8-10-3-1-2-6-19-10/h4-5,7,10,19,21H,1-3,6,8-9H2,(H,20,22)
Instrument: TripleTOF 5600 SCIEX
Instrument type: LC-ESI-QTOF
Ms type: MS2
Ion mode: POSITIVE
Collision energy: 40
Fragmentation mode: CID
Ionization: ESI
Column name: Zorbax Eclipse Plus C18 2.1 mm x 150 mm, 3.5 um, Agilent
Retention time: 5.586 min
Precursor m/z: 333.1421
Precursor type: [M+H]+
m/z	relative intensity
79.0571	25
81.073	79
82.0678	35
84.0834	22
97.0891	10
98.097	172
127.0173	44
136.0135	92
143.0278	19
155.0118	94
171.0223	71
199.0162	66
205.0433	15
216.0974	51
219.0215	999
232.0913	23
233.0998	115
236.0482	11
316.1088	540
333.1351	26
