Mass spectrum: Aspartame; LC-ESI-QTOF; MS2; 70 V
Name: Aspartame
Class: Food_additive
Formula: C14H18N2O5
Exact mass: 294.1216
SMILES: COC(=O)C(Cc1ccccc1)NC(=O)C(N)CC(O)=O
InChI: InChI=1S/C14H18N2O5/c1-21-14(20)11(7-9-5-3-2-4-6-9)16-13(19)10(15)8-12(17)18/h2-6,10-11H,7-8,15H2,1H3,(H,16,19)(H,17,18)
Instrument: TripleTOF 5600 SCIEX
Instrument type: LC-ESI-QTOF
Ms type: MS2
Ion mode: POSITIVE
Collision energy: 70
Fragmentation mode: CID
Ionization: ESI
Column name: Zorbax Eclipse Plus C18 2.1 mm x 150 mm, 3.5 um, Agilent
Retention time: 5.761 min
Precursor m/z: 295.1288
Precursor type: [M+H]+
m/z	relative intensity
43.0267	73
46.0346	11
51.028	13
65.0426	43
70.0321	89
77.0421	427
88.041	67
91.0565	464
93.0709	110
102.047	20
103.0555	999
105.034	29
115.054	16
117.0688	11
118.0648	27
119.0738	20
120.0814	842
121.0641	90
127.0536	33
128.0553	54
130.0653	81
144.0806	15
154.0644	16
