Mass spectrum: Solvent Yellow 124; LC-ESI-QTOF; MS2; 40 V
Name: Solvent Yellow 124
Formula: C22H31N3O2
Exact mass: 369.2416
SMILES: CCN(CCOC(C)OCC(C)C)C1=CC=C(C=C1)N=NC2=CC=CC=C2
InChI: InChI=1S/C22H31N3O2/c1-5-25(15-16-26-19(4)27-17-18(2)3)22-13-11-21(12-14-22)24-23-20-9-7-6-8-10-20/h6-14,18-19H,5,15-17H2,1-4H3
Instrument: TripleTOF X500R SCIEX
Instrument type: LC-ESI-QTOF
Ms type: MS2
Ion mode: POSITIVE
Collision energy: 40
Fragmentation mode: CID
Ionization: ESI
Column name: Zorbax Eclipse Plus C18 2.1 mm x 150 mm, 3.5 um, Agilent
Retention time: 18.347 min
Precursor m/z: 370.2489
Precursor type: [M+H]+
m/z	relative intensity
57.0696	36
77.0388	242
105.0456	45
106.0655	23
117.058	12
119.0665	19
120.0828	18
132.081	250
134.0968	190
136.0761	15
145.0759	22
146.0912	25
147.1044	262
160.0996	32
177.1007	16
178.1105	11
182.0963	14
195.1032	12
210.1029	331
224.1206	18
225.1238	18
238.1318	9
239.1423	123
241.1217	12
252.1497	563
270.1603	999
296.1763	40
370.2488	470
