Mass spectrum: 6alpha-Methylprednisolone; LC-ESI-QTOF; MS2; 40 V
Name: 6alpha-Methylprednisolone
Class: Pharmaceutical
Formula: C22H30O5
Exact mass: 374.2093
SMILES: C[C@H]1C[C@H]2[C@@H]3CC[C@](O)(C(=O)CO)[C@@]3(C)C[C@H](O)[C@@H]2[C@@]4(C)C=CC(=O)C=C14
InChI: InChI=1S/C22H30O5/c1-12-8-14-15-5-7-22(27,18(26)11-23)21(15,3)10-17(25)19(14)20(2)6-4-13(24)9-16(12)20/h4,6,9,12,14-15,17,19,23,25,27H,5,7-8,10-11H2,1-3H3/t12-,14-,15-,17-,19+,20-,21-,22-/m0/s1
Instrument: TripleTOF 5600 SCIEX
Instrument type: LC-ESI-QTOF
Ms type: MS2
Ion mode: POSITIVE
Collision energy: 40
Fragmentation mode: CID
Ionization: ESI
Column name: Zorbax Eclipse Plus C18 2.1 mm x 150 mm, 3.5 um, Agilent
Retention time: 9.016 min
Precursor m/z: 375.2166
Precursor type: [M+H]+
m/z	relative intensity
67.0576	34
77.0408	55
79.0563	55
91.0545	216
93.0706	97
95.0863	41
97.0685	34
105.069	230
107.048	27
107.0852	76
109.1015	41
111.0811	34
115.0537	83
117.0689	69
119.0837	83
121.0643	412
121.1031	34
123.0774	34
128.0606	62
129.0685	41
131.0845	139
133.0662	34
133.1008	160
135.0795	698
137.0575	62
141.0707	62
142.0757	62
143.0846	104
144.0578	34
145.0639	132
145.101	97
146.0703	97
147.0789	160
147.1173	41
149.0948	69
155.0859	41
157.0645	34
157.1023	76
158.071	90
159.0803	272
159.1157	55
160.0926	41
161.0955	971
165.069	48
165.0874	34
167.0849	34
169.1006	41
170.0783	34
171.0801	111
172.0866	118
173.0934	209
175.1104	55
177.0889	48
178.0765	34
179.0854	41
181.0625	48
181.0974	27
183.0819	41
183.115	27
185.0946	999
187.1117	502
189.0901	69
191.0823	48
193.0976	76
195.0803	111
195.1154	48
196.0874	174
197.0923	90
198.1049	34
199.1115	146
201.1244	69
204.0913	34
205.112	83
207.1146	55
208.0872	83
209.0949	356
209.1343	48
210.1016	125
210.1168	27
211.1105	670
213.1269	188
218.1084	34
219.0818	62
219.1209	34
220.1225	62
221.0949	62
222.1028	202
223.1113	293
224.1195	104
225.1266	160
227.1383	55
231.1418	90
233.0964	55
234.1026	34
235.1089	167
235.1452	48
236.1197	132
237.1266	349
238.1342	118
239.1397	160
240.1492	62
241.1619	41
245.0968	41
246.099	41
247.1125	55
248.1217	62
249.1271	139
250.1305	48
251.1162	27
251.1409	419
253.1574	656
255.1709	62
259.1106	69
261.1254	139
262.1311	69
263.1409	111
263.1779	76
264.1082	41
264.1544	34
265.1574	433
267.1362	69
269.1497	48
273.1219	69
274.1337	69
275.1418	48
277.157	146
279.1426	118
279.1738	314
280.1819	321
281.1907	90
288.1499	104
291.1703	104
293.1536	48
293.1876	167
297.1495	104
299.1964	41
303.1726	244
306.1577	27
309.185	69
311.1951	48
321.183	223
327.195	34
339.1921	216
357.2039	216
