Mass spectrum: Sotalol; LC-ESI-QTOF; MS2; 40 V
Name: Sotalol
Class: Pharmaceutical
Formula: C12H20N2O3S
Exact mass: 272.1195
SMILES: CC(C)NCC(C1=CC=C(C=C1)NS(=O)(=O)C)O
InChI: InChI=1S/C12H20N2O3S/c1-9(2)13-8-12(15)10-4-6-11(7-5-10)14-18(3,16)17/h4-7,9,12-15H,8H2,1-3H3
Instrument: TripleTOF 5600 SCIEX
Instrument type: LC-ESI-QTOF
Ms type: MS2
Ion mode: NEGATIVE
Collision energy: 40
Fragmentation mode: CID
Ionization: ESI
Column name: Zorbax Eclipse Plus C18 2.1 mm x 150 mm, 3.5 um, Agilent
Retention time: 4.583 min
Precursor m/z: 271.1122
Precursor type: [M-H]-
m/z	relative intensity
63.9624	239
76.9683	239
78.9851	479
119.0372	199
120.0466	199
131.0632	239
174.1177	999
175.1247	479
198.0287	239
210.0462	599
253.1014	359
271.1121	599
