Mass spectrum: Norgestrel; LC-ESI-QTOF; MS2; 70 V
Name: Norgestrel
Class: Pharmaceutical
Formula: C21H28O2
Exact mass: 312.2089
SMILES: CCC12CCC3C(C1CCC2(C#C)O)CCC4=CC(=O)CCC34
InChI: InChI=1S/C21H28O2/c1-3-20-11-9-17-16-8-6-15(22)13-14(16)5-7-18(17)19(20)10-12-21(20,23)4-2/h2,13,16-19,23H,3,5-12H2,1H3
Instrument: TripleTOF 5600 SCIEX
Instrument type: LC-ESI-QTOF
Ms type: MS2
Ion mode: POSITIVE
Collision energy: 70
Fragmentation mode: CID
Ionization: ESI
Column name: Zorbax Eclipse Plus C18 2.1 mm x 150 mm, 3.5 um, Agilent
Retention time: 12.063 min
Precursor m/z: 313.2162
Precursor type: [M+H]+
m/z	relative intensity
43.0303	13
55.0258	22
65.0462	105
69.0736	11
77.0449	572
78.0531	14
79.0599	503
81.0387	17
81.0753	235
83.0547	207
91.0592	999
93.0742	137
94.0474	19
95.0532	19
95.0903	35
97.0686	10
102.0504	16
103.0573	113
104.0659	22
105.0731	281
107.0528	140
107.0898	37
109.0686	236
115.0572	414
116.0649	103
117.0732	211
119.0883	68
121.0678	17
123.0823	11
126.0492	11
127.0557	97
128.0646	520
129.0723	260
130.0794	47
131.052	19
131.0874	84
133.0678	26
133.1034	19
135.0818	28
141.0723	235
142.0787	97
143.087	68
144.0598	14
144.0932	11
145.0672	13
145.1012	23
147.0829	14
151.0529	16
152.0625	68
153.0716	103
154.0807	41
155.0879	78
156.0963	14
157.1035	29
159.0834	11
161.0974	13
165.0719	130
166.0806	25
167.0864	45
168.0909	11
169.1007	25
178.0792	69
179.0867	39
181.1005	14
183.1179	16
189.0738	22
190.0761	10
191.0855	22
192.0969	13
193.1055	11
203.0883	11
205.1054	19
