Mass spectrum: Triphenylphosphine sulfide; LC-ESI-QTOF; MS2; 40 V
Name: Triphenylphosphine sulfide
Class: Industrial_process
Formula: C18H15PS
Exact mass: 294.0632
SMILES: S=[P](c1ccccc1)(c2ccccc2)c3ccccc3
InChI: InChI=1S/C18H15PS/c20-19(16-10-4-1-5-11-16,17-12-6-2-7-13-17)18-14-8-3-9-15-18/h1-15H
Instrument: TripleTOF 5600 SCIEX
Instrument type: LC-ESI-QTOF
Ms type: MS2
Ion mode: POSITIVE
Collision energy: 40
Fragmentation mode: CID
Ionization: ESI
Column name: Zorbax Eclipse Plus C18 2.1 mm x 150 mm, 3.5 um, Agilent
Retention time: 14.508 min
Precursor m/z: 295.0705
Precursor type: [M+H]+
m/z	relative intensity
62.9491	50
77.0415	33
107.0049	29
108.0122	55
138.9771	999
152.062	19
183.0358	288
185.051	43
217.0236	722
261.0829	17
262.0904	13
295.0705	386
