Mass spectrum: Tramadol-N-oxide; LC-ESI-QTOF; MS2; 130 V
Name: Tramadol-N-oxide
Class: Pharmaceutical; Transformation_product-Metabolite
Formula: C16H25NO3
Exact mass: 279.1834
SMILES: [O-][N+](C)(C)C[C@H]2CCCC[C@]2(O)c1cc(OC)ccc1
InChI: InChI=1S/C16H25NO3/c1-17(2,19)12-14-7-4-5-10-16(14,18)13-8-6-9-15(11-13)20-3/h6,8-9,11,14,18H,4-5,7,10,12H2,1-3H3/t14-,16+/m1/s1
Instrument: TripleTOF 5600 SCIEX
Instrument type: LC-ESI-QTOF
Ms type: MS2
Ion mode: POSITIVE
Collision energy: 130
Fragmentation mode: CID
Ionization: ESI
Column name: Zorbax Eclipse Plus C18 2.1 mm x 150 mm, 3.5 um, Agilent
Retention time: 6.334 min
Precursor m/z: 280.1907
Precursor type: [M+H]+
m/z	relative intensity
42.0448	277
43.0268	53
43.0496	49
44.0582	81
55.059	49
56.0533	31
58.0702	487
60.0066	34
60.0498	65
64.0348	443
65.0437	618
66.0503	71
68.0561	21
74.0188	103
75.0263	90
76.0318	159
77.0414	999
78.0496	483
79.057	24
89.0407	371
91.0553	318
92.0274	265
94.0432	28
94.0701	21
101.0398	34
102.047	234
103.0549	62
115.0541	846
126.047	81
127.0536	124
128.0615	224
152.0629	34
