Mass spectrum: Tris(1,3-dichloro-2-propyl) phosphate; LC-ESI-QTOF; MS2; 120 V
Name: Tris(1,3-dichloro-2-propyl) phosphate
Class: Industrial_process
Formula: C9H15Cl6O4P
Exact mass: 427.8839
SMILES: C(C(CCl)OP(=O)(OC(CCl)CCl)OC(CCl)CCl)Cl
InChI: InChI=1S/C9H15Cl6O4P/c10-1-7(2-11)17-20(16,18-8(3-12)4-13)19-9(5-14)6-15/h7-9H,1-6H2
Instrument: TripleTOF 6600 SCIEX
Instrument type: LC-ESI-QTOF
Ms type: MS2
Ion mode: POSITIVE
Collision energy: 120
Fragmentation mode: CID
Ionization: ESI
Column name: Zorbax Eclipse Plus C18 2.1 mm x 150 mm, 3.5 um, Agilent
Retention time: 13.309 min
Precursor m/z: 428.8912
Precursor type: [M+H]+
m/z	relative intensity
39.0224	35
46.9677	35
48.9834	163
62.9622	227
74.9985	105
80.973	999
98.9839	186
