Mass spectrum: Candesartan; LC-ESI-QTOF; MS2; 50 V
Name: Candesartan
Class: Pharmaceutical
Formula: C24H20N6O3
Exact mass: 440.1597
SMILES: CCOc1nc2cccc(C(O)=O)c2n1Cc3ccc(cc3)c4ccccc4c5n[nH]nn5
InChI: InChI=1S/C24H20N6O3/c1-2-33-24-25-20-9-5-8-19(23(31)32)21(20)30(24)14-15-10-12-16(13-11-15)17-6-3-4-7-18(17)22-26-28-29-27-22/h3-13H,2,14H2,1H3,(H,31,32)(H,26,27,28,29)
Instrument: TripleTOF 5600 SCIEX
Instrument type: LC-ESI-QTOF
Ms type: MS2
Ion mode: POSITIVE
Collision energy: 50
Fragmentation mode: CID
Ionization: ESI
Column name: Zorbax Eclipse Plus C18 2.1 mm x 150 mm, 3.5 um, Agilent
Retention time: 10.001 min
Precursor m/z: 441.167
Precursor type: [M+H]+
m/z	relative intensity
80.0512	10
115.0535	14
140.0488	36
141.0696	11
145.0396	11
147.0547	9
151.0528	26
152.0613	119
153.0696	229
161.0339	159
163.053	44
164.0612	18
165.0694	527
166.0716	54
167.083	111
173.0341	57
176.0608	13
177.0589	99
178.0768	453
179.0733	139
180.0803	622
181.0766	15
189.065	151
190.0646	711
191.0722	274
192.0789	999
193.0875	298
194.0954	343
203.0702	17
204.0788	10
205.075	233
206.0834	474
207.0912	860
208.1109	86
217.0872	52
218.095	97
219.0908	128
220.0993	88
232.0976	11
233.0706	13
233.1067	65
234.0809	9
234.1139	152
235.0979	18
235.1215	154
263.1281	16
267.1048	13
279.0904	15
280.0869	12
281.1088	18
282.0892	34
282.113	13
293.0931	14
294.1026	23
295.0845	12
296.1158	20
297.098	17
306.1008	13
307.0908	32
308.1182	108
309.1019	210
310.1081	51
320.1052	11
321.0938	41
322.0977	67
324.112	94
334.0949	37
335.0828	27
335.1032	14
336.0895	15
336.148	11
337.0974	109
338.1026	48
348.0992	37
349.0944	229
