Mass spectrum: Estrone 3-methyl ether; LC-ESI-QTOF; MS2; 20 V
Name: Estrone 3-methyl ether
Class: Pharmaceutical
Formula: C19H24O2
Exact mass: 284.1776
SMILES: C[C@]12CC[C@@H]3c4ccc(cc4CC[C@H]3[C@@H]1CCC2=O)OC
InChI: InChI=1S/C19H24O2/c1-19-10-9-15-14-6-4-13(21-2)11-12(14)3-5-16(15)17(19)7-8-18(19)20/h4,6,11,15-17H,3,5,7-10H2,1-2H3/t15-,16-,17+,19+/m1/s1
Instrument: TripleTOF 5600 SCIEX
Instrument type: LC-ESI-QTOF
Ms type: MS2
Ion mode: POSITIVE
Collision energy: 20
Fragmentation mode: CID
Ionization: ESI
Column name: Zorbax Eclipse Plus C18 2.1 mm x 150 mm, 3.5 um, Agilent
Retention time: 10.549 min
Precursor m/z: 285.1849
Precursor type: [M+H]+
m/z	relative intensity
81.0724	12
107.0862	18
121.0634	18
147.0802	290
159.0812	25
161.0952	12
171.08	251
173.0959	141
185.0951	22
187.1092	11
197.096	30
199.1105	18
211.1117	107
215.1433	36
225.1259	30
227.1425	54
239.1439	18
241.1584	396
267.1745	999
285.185	610
