Mass spectrum: Benzotriazole; LC-ESI-QTOF; MS2; 60 V
Name: Benzotriazole
Class: Industrial_process; Industrial_process; Industrial_process; Antimicrobial; Personal_care_product
Formula: C6H5N3
Exact mass: 119.0483
SMILES: C1=CC2=NNN=C2C=C1
InChI: InChI=1S/C6H5N3/c1-2-4-6-5(3-1)7-9-8-6/h1-4H,(H,7,8,9)
Instrument: TripleTOF 6600 SCIEX
Instrument type: LC-ESI-QTOF
Ms type: MS2
Ion mode: POSITIVE
Collision energy: 60
Fragmentation mode: CID
Ionization: ESI
Column name: Zorbax Eclipse Plus C18 2.1 mm x 150 mm, 3.5 um, Agilent
Retention time: 5.876 min
Precursor m/z: 120.0556
Precursor type: [M+H]+
m/z	relative intensity
35.9999	68
37.0074	348
38.0031	15
38.0152	293
39.0231	999
40.0183	34
42.0351	13
43.0291	34
49.0075	29
50.015	126
51.0112	15
51.0227	76
52.0181	74
61.0067	23
62.0149	58
63.0229	116
64.0173	21
64.0285	15
65.0261	18
65.038	87
74.0144	21
75.0101	10
76.0184	26
