Mass spectrum: Ranitidine-S-oxide; LC-ESI-QTOF; MS2; 100 V
Name: Ranitidine-S-oxide
Class: Pharmaceutical; Transformation_product; Transformation_product-Metabolite
Formula: C13H22N4O4S
Exact mass: 330.1362
SMILES: CNC(=C[N+](=O)[O-])NCCS(=O)Cc1ccc(o1)CN(C)C
InChI: InChI=1S/C13H22N4O4S/c1-14-13(9-17(18)19)15-6-7-22(20)10-12-5-4-11(21-12)8-16(2)3/h4-5,9,14-15H,6-8,10H2,1-3H3
Instrument: TripleTOF 5600 SCIEX
Instrument type: LC-ESI-QTOF
Ms type: MS2
Ion mode: POSITIVE
Collision energy: 100
Fragmentation mode: CID
Ionization: ESI
Column name: Zorbax Eclipse Plus C18 2.1 mm x 150 mm, 3.5 um, Agilent
Retention time: 2.941 min
Precursor m/z: 331.1435
Precursor type: [M+H]+
m/z	relative intensity
58.0697	346
65.043	387
66.0506	428
67.0556	81
80.0515	203
81.0592	183
82.0665	101
94.0425	999
94.0665	550
94.085	81
95.0504	81
95.0744	183
97.0772	570
108.0802	122
110.0954	81
