Mass spectrum: Metrafenone; LC-ESI-QTOF; MS2; 110 V
Name: Metrafenone
Class: Fungicide
Formula: C19H21BrO5
Exact mass: 408.0572
SMILES: CC1=CC(=C(C(=C1C(=O)C2=C(C=CC(=C2C)Br)OC)OC)OC)OC
InChI: InChI=1S/C19H21BrO5/c1-10-9-14(23-4)18(24-5)19(25-6)15(10)17(21)16-11(2)12(20)7-8-13(16)22-3/h7-9H,1-6H3
Instrument: TripleTOF 6600 SCIEX
Instrument type: LC-ESI-QTOF
Ms type: MS2
Ion mode: POSITIVE
Collision energy: 110
Fragmentation mode: CID
Ionization: ESI
Column name: Zorbax Eclipse Plus C18 2.1 mm x 150 mm, 3.5 um, Agilent
Retention time: 15.123 min
Precursor m/z: 409.0645
Precursor type: [M+H]+
m/z	relative intensity
39.0267	55
41.0421	27
50.0191	50
51.0271	265
52.0345	62
53.0434	16
61.0102	18
62.0192	29
63.0262	95
64.0344	26
65.0419	163
66.0505	53
67.0212	28
67.0573	41
74.0181	21
75.0265	66
76.0345	96
77.0424	999
78.0131	11
78.0493	46
79.0568	82
80.0297	85
89.0423	755
90.05	247
91.0577	392
93.0004	36
93.0352	15
94.0447	72
95.0522	32
105.0366	204
106.0441	20
107.052	45
108.0235	64
109.0679	10
119.0511	16
121.0314	23
122.0393	45
123.0473	71
133.0315	12
134.0375	13
135.0459	33
142.9515	14
150.0329	24
151.043	25
152.0625	13
154.9514	332
155.9586	18
165.0568	21
168.9657	22
182.9485	287
183.9512	33
