Mass spectrum: O-Desmethyl amisulpride; LC-ESI-QTOF; MS2; 100 V
Name: O-Desmethyl amisulpride
Class: Pharmaceutical; Transformation_product; Transformation_product-Metabolite
Formula: C16H25N3O4S
Exact mass: 355.1566
SMILES: CCN1CCCC1CNC(=O)c2cc(c(cc2O)N)S(=O)(=O)CC
InChI: InChI=1S/C16H25N3O4S/c1-3-19-7-5-6-11(19)10-18-16(21)12-8-15(24(22,23)4-2)13(17)9-14(12)20/h8-9,11,20H,3-7,10,17H2,1-2H3,(H,18,21)
Instrument: TripleTOF 5600 SCIEX
Instrument type: LC-ESI-QTOF
Ms type: MS2
Ion mode: POSITIVE
Collision energy: 100
Fragmentation mode: CID
Ionization: ESI
Column name: Zorbax Eclipse Plus C18 2.1 mm x 150 mm, 3.5 um, Agilent
Retention time: 5.619 min
Precursor m/z: 356.1639
Precursor type: [M+H]+
m/z	relative intensity
42.0424	99
44.0569	13
51.03	41
52.0368	213
53.0087	20
53.0444	13
54.0383	27
55.0597	141
56.0557	399
56.9826	20
57.9968	18
58.0703	144
58.9999	72
64.0501	11
65.0298	41
65.0415	37
66.0153	32
66.0373	23
67.0222	25
67.0455	30
67.058	85
68.017	418
68.0521	34
68.9819	65
68.9964	32
69.0611	11
69.99	11
70.0326	16
70.0684	97
70.9981	116
71.9943	11
76.0208	23
77.0284	39
78.0367	90
78.0519	11
79.0203	20
79.0441	176
80.0152	20
80.0285	25
80.0517	102
80.9815	11
81.9904	11
82.0672	125
82.9965	11
83.993	20
84.0834	999
84.9762	195
86.992	46
88.0191	23
89.0281	492
91.0191	16
93.0235	27
94.0298	466
94.0668	16
96.0832	20
97.0894	16
98.0064	23
98.0965	92
98.9912	83
99.9857	315
105.0213	67
106.0289	23
107.0369	717
107.9908	257
108.0207	169
110.0954	32
112.1126	545
126.0011	113
126.9852	20
133.017	37
134.0243	23
135.009	34
135.0311	169
135.9853	32
136.0405	16
153.9959	44
163.9807	11
181.9931	32
