Mass spectrum: Oxymetazoline; LC-ESI-QTOF; MS2; 140 V
Name: Oxymetazoline
Class: Pharmaceutical
Formula: C16H24N2O
Exact mass: 260.1889
SMILES: Cc1cc(c(c(c1CC2=NCCN2)C)O)C(C)(C)C
InChI: InChI=1S/C16H24N2O/c1-10-8-13(16(3,4)5)15(19)11(2)12(10)9-14-17-6-7-18-14/h8,19H,6-7,9H2,1-5H3,(H,17,18)
Instrument: TripleTOF 5600 SCIEX
Instrument type: LC-ESI-QTOF
Ms type: MS2
Ion mode: POSITIVE
Collision energy: 140
Fragmentation mode: CID
Ionization: ESI
Column name: Zorbax Eclipse Plus C18 2.1 mm x 150 mm, 3.5 um, Agilent
Retention time: 7.429 min
Precursor m/z: 261.1961
Precursor type: [M+H]+
m/z	relative intensity
42.0465	26
53.0448	17
54.0386	23
63.0519	14
65.0439	512
74.0184	120
74.0383	14
75.0256	91
76.0341	79
77.0418	999
78.0491	159
79.0556	35
86.0174	20
87.0254	26
88.0333	14
89.0404	297
91.0558	483
101.038	35
102.0464	209
103.0548	76
105.0756	11
114.047	29
115.0545	615
115.0936	11
116.0605	23
117.0694	20
126.046	79
127.054	141
128.0613	156
130.0668	14
131.049	14
139.0537	23
141.0674	17
