Mass spectrum: Fluoxastrobin; LC-ESI-QTOF; MS2; 140 V
Name: Fluoxastrobin
Class: Fungicide
Formula: C21H16ClFN4O5
Exact mass: 458.0793
SMILES: CON=C(C1=CC=CC=C1OC2=C(C(=NC=N2)OC3=CC=CC=C3Cl)F)C4=NOCCO4
InChI: InChI=1S/C21H16ClFN4O5/c1-28-26-18(21-27-30-11-10-29-21)13-6-2-4-8-15(13)31-19-17(23)20(25-12-24-19)32-16-9-5-3-7-14(16)22/h2-9,12H,10-11H2,1H3
Instrument: TripleTOF 6600 SCIEX
Instrument type: LC-ESI-QTOF
Ms type: MS2
Ion mode: POSITIVE
Collision energy: 140
Fragmentation mode: CID
Ionization: ESI
Column name: Zorbax Eclipse Plus C18 2.1 mm x 150 mm, 3.5 um, Agilent
Retention time: 13.269 min
Precursor m/z: 459.0866
Precursor type: [M+H]+
m/z	relative intensity
37.0071	24
38.0154	15
39.0229	40
43.018	37
49.007	14
50.0147	149
51.0231	294
52.018	23
57.0133	28
59.9989	12
61.0074	46
62.0142	70
63.0221	230
64.0178	32
64.0299	65
65.0384	46
69.0101	15
69.9919	17
70.0092	20
72.9843	34
73.007	54
74.0148	574
75.0226	999
76.0174	115
76.0299	155
77.0381	108
78.0331	23
80.0045	12
81.0123	37
82.0084	15
84.9841	85
85.0065	12
86.014	17
87.011	40
88.0184	23
88.0306	12
89.0264	12
89.0377	20
90.0328	51
90.9751	10
91.0403	43
92.0245	32
94.0212	38
95.0285	76
98.0143	15
99.0094	48
99.0199	20
100.0167	65
101.0227	12
102.0324	168
105.0132	38
106.0207	51
107.0274	73
109.0317	14
110.9971	115
113.0244	15
114.0336	46
121.0299	17
123.0214	35
124.017	15
129.045	10
130.04	73
132.0239	88
133.0312	37
137.0259	10
139.0038	17
139.0282	14
140.9896	17
144.0385	17
149.0373	31
150.0439	49
151.0526	21
168.036	23
169.0422	32
175.0422	38
176.051	17
177.0596	10
181.0406	14
195.0436	28
196.0478	15
221.0493	14
