Mass spectrum: Hydroxychloroquine; LC-ESI-QTOF; MS2; 80 V
Name: Hydroxychloroquine
Class: Pharmaceutical
Formula: C18H26ClN3O
Exact mass: 335.1764
SMILES: CCN(CCCC(C)NC1=C2C=CC(=CC2=NC=C1)Cl)CCO
InChI: InChI=1S/C18H26ClN3O/c1-3-22(11-12-23)10-4-5-14(2)21-17-8-9-20-18-13-15(19)6-7-16(17)18/h6-9,13-14,23H,3-5,10-12H2,1-2H3,(H,20,21)
Instrument: TripleTOF 5600 SCIEX
Instrument type: LC-ESI-QTOF
Ms type: MS2
Ion mode: POSITIVE
Collision energy: 80
Fragmentation mode: CID
Ionization: ESI
Column name: Zorbax Eclipse Plus C18 2.1 mm x 150 mm, 3.5 um, Agilent
Retention time: 4.747 min
Precursor m/z: 336.1837
Precursor type: [M+H]+
m/z	relative intensity
39.0232	105
41.0377	157
44.0496	52
45.0314	52
56.0487	52
58.0646	262
69.0696	105
72.0799	52
89.0355	52
90.0469	105
98.0989	105
99.0184	52
101.0367	105
102.0468	52
102.0911	210
104.0488	52
110.9994	52
115.0548	52
116.0506	262
117.0556	262
117.0609	52
127.0388	52
128.0489	262
129.0415	52
129.0585	368
138.0128	105
143.0597	262
144.0685	999
151.0183	157
155.0617	525
156.0567	52
156.0727	525
162.0094	368
163.0172	262
163.0298	105
164.0172	52
164.0302	52
169.0774	262
177.041	105
178.0343	105
179.0216	52
179.0394	788
190.0236	157
190.043	52
191.0333	262
203.0291	52
203.039	52
205.0473	210
