Mass spectrum: Quinoline; LC-ESI-QTOF; MS2; 10 V
Name: Quinoline
Formula: C9H7N
Exact mass: 129.0578
SMILES: C1=CC=C2C(=C1)C=CC=N2
InChI: InChI=1S/C9H7N/c1-2-6-9-8(4-1)5-3-7-10-9/h1-7H
Instrument: TripleTOF X500R SCIEX
Instrument type: LC-ESI-QTOF
Ms type: CID
Ion mode: POSITIVE
Collision energy: 10
Ionization: ESI
Column name: Zorbax Eclipse Plus C18 2.1 mm x 150 mm, 3.5 um, Agilent
Retention time: 4.58 min
Precursor m/z: 130.0651
Precursor type: [M+H]+
m/z	relative intensity
103.0548	38
128.0497	19
130.0684	999
131.067	16
