Mass spectrum: Dexamethasone; LC-ESI-QTOF; MS2; 110 V
Name: Dexamethasone
Class: Pharmaceutical
Formula: C22H29FO5
Exact mass: 392.1999
SMILES: C[C@@H]1C[C@H]2[C@@H]3CCC4=CC(=O)C=C[C@@]4([C@]3([C@H](C[C@@]2([C@]1(C(=O)CO)O)C)O)F)C
InChI: InChI=1S/C22H29FO5/c1-12-8-16-15-5-4-13-9-14(25)6-7-19(13,2)21(15,23)17(26)10-20(16,3)22(12,28)18(27)11-24/h6-7,9,12,15-17,24,26,28H,4-5,8,10-11H2,1-3H3/t12-,15+,16+,17+,19+,20+,21+,22+/m1/s1
Instrument: TripleTOF 5600 SCIEX
Instrument type: LC-ESI-QTOF
Ms type: MS2
Ion mode: POSITIVE
Collision energy: 110
Fragmentation mode: CID
Ionization: ESI
Column name: Zorbax Eclipse Plus C18 2.1 mm x 150 mm, 3.5 um, Agilent
Retention time: 9.089 min
Precursor m/z: 393.2072
Precursor type: [M+H]+
m/z	relative intensity
43.0276	45
43.0368	17
51.0303	82
65.0459	196
67.0614	54
77.0442	999
78.051	91
79.0597	162
81.0372	17
81.0736	22
83.0301	11
89.0433	42
91.0578	984
92.0647	14
93.0733	45
94.0438	14
95.0878	11
101.0389	14
102.0489	71
103.0567	248
104.0642	39
105.0721	134
107.0525	77
109.0482	19
115.0565	987
116.0652	94
117.0713	111
119.0874	54
121.0673	268
125.0454	14
126.0455	45
127.0557	331
128.0636	770
129.0713	171
131.0506	236
131.0852	17
132.0589	94
133.0447	19
139.053	88
140.0651	14
141.071	296
142.0764	45
143.0858	14
144.0585	54
145.065	39
146.0526	25
147.0851	17
150.0453	22
151.0545	134
152.0626	525
153.0705	228
154.0802	25
155.0511	42
155.0863	34
157.0648	74
158.0727	19
159.0583	11
163.0542	57
164.0623	79
165.0708	730
166.0776	54
167.0839	54
168.0569	37
169.0648	34
171.0788	28
176.0617	168
177.069	114
177.0838	22
178.0771	633
179.0852	191
181.064	191
182.0745	22
187.0616	19
188.0627	37
189.0693	636
190.0767	154
191.0844	159
192.0936	37
193.1058	17
194.0705	62
195.0809	54
200.0607	45
201.0679	77
202.0768	559
203.0855	156
204.09	22
205.0656	108
205.0984	22
206.0687	14
207.0727	19
207.0844	42
208.0816	14
209.0959	19
213.0691	77
214.0795	45
215.0853	305
216.0952	31
217.1023	17
218.0718	77
219.0799	62
220.0837	19
221.0997	14
225.0727	14
226.0748	145
227.0827	71
228.0918	94
229.0692	11
229.0989	51
231.0822	117
232.0886	28
233.0995	22
239.0858	79
241.0978	25
242.0728	19
243.072	11
245.0974	28
