Mass spectrum: Nicosulfuron; LC-ESI-QTOF; MS2; 90 V
Name: Nicosulfuron
Class: Herbicide
Formula: C15H18N6O6S
Exact mass: 410.1009
SMILES: CN(C)C(=O)C1=C(N=CC=C1)S(=O)(=O)NC(=O)NC2=NC(=CC(=N2)OC)OC
InChI: InChI=1S/C15H18N6O6S/c1-21(2)13(22)9-6-5-7-16-12(9)28(24,25)20-15(23)19-14-17-10(26-3)8-11(18-14)27-4/h5-8H,1-4H3,(H2,17,18,19,20,23)
Instrument: TripleTOF 6600 SCIEX
Instrument type: LC-ESI-QTOF
Ms type: MS2
Ion mode: POSITIVE
Collision energy: 90
Fragmentation mode: CID
Ionization: ESI
Column name: Zorbax Eclipse Plus C18 2.1 mm x 150 mm, 3.5 um, Agilent
Retention time: 8.499 min
Precursor m/z: 411.1081
Precursor type: [M+H]+
m/z	relative intensity
50.0135	20
51.0205	180
54.0308	11
55.026	11
56.0105	40
57.0425	20
64.0158	15
65.0107	36
65.0357	17
68.0106	30
68.9942	44
69.0046	34
70.0256	12
71.0569	25
78.0312	999
81.0409	21
82.0255	53
83.0211	582
91.0262	39
92.0472	12
93.0056	202
94.0138	17
95.023	10
100.0363	27
106.0264	105
109.0366	26
111.0396	10
138.0264	19
139.0482	133
140.0432	20
166.0213	17
182.057	12
