Mass spectrum: Tolfenamic acid; LC-ESI-QTOF; MS2; 130 V
Name: Tolfenamic acid
Class: Pharmaceutical
Formula: C14H12ClNO2
Exact mass: 261.0557
SMILES: Cc1cc(Nc2ccccc2C(O)=O)ccc1Cl
InChI: InChI=1S/C14H12ClNO2/c1-9-8-10(6-7-12(9)15)16-13-5-3-2-4-11(13)14(17)18/h2-8,16H,1H3,(H,17,18)
Instrument: TripleTOF 5600 SCIEX
Instrument type: LC-ESI-QTOF
Ms type: MS2
Ion mode: POSITIVE
Collision energy: 130
Fragmentation mode: CID
Ionization: ESI
Column name: Zorbax Eclipse Plus C18 2.1 mm x 150 mm, 3.5 um, Agilent
Retention time: 14.052 min
Precursor m/z: 262.0629
Precursor type: [M+H]+
m/z	relative intensity
52.0354	36
60.0025	36
63.0606	29
65.0433	131
72.987	58
73.0095	80
74.0186	743
75.0252	619
76.0213	58
76.0332	204
77.041	714
77.0645	51
78.0488	80
85.0089	102
86.0163	313
87.0243	393
88.0232	116
89.0401	452
90.039	51
98.0149	328
99.0231	255
100.0292	65
101.0383	233
102.046	211
110.013	65
111.0222	87
112.0199	58
113.0375	466
113.0655	36
114.0327	58
115.054	87
122.0133	80
125.0394	167
126.045	503
126.0691	36
127.0532	138
128.05	80
137.0365	182
138.0331	43
139.0518	116
140.0472	138
149.0375	116
150.0449	999
151.0539	845
152.0462	94
152.0606	342
153.055	51
163.0495	29
164.0463	65
175.0416	36
176.0472	123
177.0555	204
178.0629	189
