Mass spectrum: 5-Aminofluorescein; LC-ESI-QTOF; MS2; 120 V
Name: 5-Aminofluorescein
Class: Pharmaceutical
Formula: C20H13NO5
Exact mass: 347.0794
SMILES: Nc1ccc2c(c1)C(=O)OC23c4ccc(O)cc4Oc5cc(O)ccc35
InChI: InChI=1S/C20H13NO5/c21-10-1-4-14-13(7-10)19(24)26-20(14)15-5-2-11(22)8-17(15)25-18-9-12(23)3-6-16(18)20/h1-9,22-23H,21H2
Instrument: TripleTOF 5600 SCIEX
Instrument type: LC-ESI-QTOF
Ms type: MS2
Ion mode: POSITIVE
Collision energy: 120
Fragmentation mode: CID
Ionization: ESI
Column name: Zorbax Eclipse Plus C18 2.1 mm x 150 mm, 3.5 um, Agilent
Retention time: 8.159 min
Precursor m/z: 348.0866
Precursor type: [M+H]+
m/z	relative intensity
65.0412	35
75.0262	35
77.0412	71
87.0246	19
89.0382	47
91.0566	47
98.0159	15
99.0239	15
101.038	27
102.0469	43
103.0547	15
113.0374	27
115.0542	102
122.0154	19
125.0391	35
126.0457	59
127.0518	82
128.0607	39
137.04	27
138.0458	15
139.0541	90
140.0501	23
149.0398	71
150.0453	272
151.0541	264
152.0615	229
154.0666	15
161.0346	23
162.0454	27
163.0539	383
164.0636	122
165.0689	130
174.0451	181
175.0566	153
176.0617	319
177.0648	75
178.0743	23
185.0377	31
186.0459	43
187.0542	386
188.0608	153
189.0698	623
190.0649	122
191.0745	27
198.0471	114
199.054	232
200.0615	999
201.0685	371
202.0765	236
203.07	35
204.08	19
205.0632	27
210.0505	27
211.0544	134
212.0596	55
213.0531	23
213.0698	98
214.0648	142
215.0708	55
216.079	75
217.0867	35
224.0538	19
225.0578	67
226.0627	31
227.0718	98
228.0788	23
229.0642	51
230.076	19
245.0611	39
