Mass spectrum: Flusilazole; LC-ESI-QTOF; MS2; 50 V
Name: Flusilazole
Class: Fungicide
Formula: C16H15F2N3Si
Exact mass: 315.1003
SMILES: C[Si](CN1C=NC=N1)(C2=CC=C(C=C2)F)C3=CC=C(C=C3)F
InChI: InChI=1S/C16H15F2N3Si/c1-22(12-21-11-19-10-20-21,15-6-2-13(17)3-7-15)16-8-4-14(18)5-9-16/h2-11H,12H2,1H3
Instrument: TripleTOF 6600 SCIEX
Instrument type: LC-ESI-QTOF
Ms type: MS2
Ion mode: POSITIVE
Collision energy: 50
Fragmentation mode: CID
Ionization: ESI
Column name: Zorbax Eclipse Plus C18 2.1 mm x 150 mm, 3.5 um, Agilent
Retention time: 12.729 min
Precursor m/z: 316.1076
Precursor type: [M+H]+
m/z	relative intensity
46.9743	30
63.0055	14
65.0379	13
77.0379	71
79.0533	13
80.9959	52
91.0534	98
103.0534	25
105.069	49
109.0441	97
115.0535	43
123.0053	70
125.0211	153
127.0529	12
139.0529	20
141.0687	15
143.0113	26
149.0209	59
151.0398	126
152.0612	133
153.0695	12
157.0274	191
159.0595	12
163.0535	18
164.0614	91
165.0695	999
166.0766	17
169.0463	11
170.0519	33
171.0428	16
178.0767	44
179.0845	17
181.0277	14
183.06	137
184.0666	20
185.0751	80
199.0366	42
217.0271	49
219.0433	303
227.0683	18
231.0432	15
