Mass spectrum: Ampicillin; LC-ESI-QTOF; MS2; 120 V
Name: Ampicillin
Class: Pharmaceutical
Formula: C16H19N3O4S
Exact mass: 349.1096
SMILES: CC1(C)S[C@@H]2[C@H](NC(=O)[C@H](N)c3ccccc3)C(=O)N2[C@H]1C(O)=O
InChI: InChI=1S/C16H19N3O4S/c1-16(2)11(15(22)23)19-13(21)10(14(19)24-16)18-12(20)9(17)8-6-4-3-5-7-8/h3-7,9-11,14H,17H2,1-2H3,(H,18,20)(H,22,23)/t9-,10-,11+,14-/m1/s1
Instrument: TripleTOF 5600 SCIEX
Instrument type: LC-ESI-QTOF
Ms type: MS2
Ion mode: POSITIVE
Collision energy: 120
Fragmentation mode: CID
Ionization: ESI
Column name: Zorbax Eclipse Plus C18 2.1 mm x 150 mm, 3.5 um, Agilent
Retention time: 5.367 min
Precursor m/z: 350.1169
Precursor type: [M+H]+
m/z	relative intensity
51.0283	131
53.045	48
59.0	69
63.038	34
65.0423	367
70.0679	55
77.0413	999
78.0501	34
79.0566	735
86.0079	90
87.0271	34
89.0412	430
90.0473	346
91.0552	797
102.0446	34
103.0543	104
106.0651	464
117.0566	256
118.0642	34
121.0097	187
128.0493	27
130.0653	34
