Mass spectrum: Trifloxystrobin acid; LC-ESI-QTOF; MS2; 20 V
Name: Trifloxystrobin acid
Class: Metabolite; Fungicide; Transformation_product
Formula: C19H17F3N2O4
Exact mass: 394.114
SMILES: FC(F)(F)c1cccc(c1)C(\C)=N\OCc2ccccc2C(=N\O)\C(=O)OC
InChI: InChI=1S/C19H17F3N2O4/c1-12(13-7-5-8-15(10-13)19(20,21)22)24-28-11-14-6-3-4-9-16(14)17(23-26)18(25)27-2/h3-10,26H,11H2,1-2H3/b23-17-,24-12+
Instrument: TripleTOF 5600 SCIEX
Instrument type: LC-ESI-QTOF
Ms type: MS2
Ion mode: POSITIVE
Collision energy: 20
Fragmentation mode: CID
Ionization: ESI
Column name: Zorbax Eclipse Plus C18 2.1 mm x 150 mm, 3.5 um, Agilent
Retention time: 13.286 min
Precursor m/z: 395.1213
Precursor type: [M+H]+
m/z	relative intensity
116.0513	69
134.0607	19
145.026	14
148.0763	404
186.0524	999
192.0657	72
204.0618	22
351.1286	30
395.1203	238
