Mass spectrum: Mitomycin C; LC-ESI-QTOF; MS2; 70 V
Name: Mitomycin C
Class: Pharmaceutical
Formula: C15H18N4O5
Exact mass: 334.1277
SMILES: CO[C@@]12[C@H](COC(N)=O)C3=C(N1C[C@@H]4N[C@H]24)C(=O)C(=C(N)C3=O)C
InChI: InChI=1S/C15H18N4O5/c1-5-9(16)12(21)8-6(4-24-14(17)22)15(23-2)13-7(18-13)3-19(15)10(8)11(5)20/h6-7,13,18H,3-4,16H2,1-2H3,(H2,17,22)/t6-,7+,13+,15-/m1/s1
Instrument: TripleTOF 5600 SCIEX
Instrument type: LC-ESI-QTOF
Ms type: MS2
Ion mode: POSITIVE
Collision energy: 70
Fragmentation mode: CID
Ionization: ESI
Column name: Zorbax Eclipse Plus C18 2.1 mm x 150 mm, 3.5 um, Agilent
Retention time: 5.588 min
Precursor m/z: 335.135
Precursor type: [M+H]+
m/z	relative intensity
65.0453	55
77.039	193
79.0555	77
89.0391	71
91.0559	77
92.0502	71
102.0394	55
103.0505	55
104.0475	369
105.0538	77
106.0616	82
115.0516	292
116.0465	137
117.053	187
118.0467	110
118.0595	154
127.0492	60
128.0436	77
129.0485	82
130.0581	215
131.0544	999
132.0398	66
132.0618	424
133.0687	132
134.0541	99
140.0409	71
141.0487	82
142.0563	115
143.0564	198
144.0623	121
145.0677	121
155.0514	193
156.0587	237
157.066	325
158.0628	99
159.0453	187
159.0792	82
161.0594	66
168.054	242
169.0629	430
170.0565	204
170.0702	137
171.0411	66
171.0758	110
172.0499	93
173.0561	77
174.0399	60
175.0721	55
184.0686	82
185.0546	171
187.0689	55
189.0495	49
197.0519	198
199.0544	60
201.0466	60
212.0742	99
213.063	154
214.0692	55
215.0765	88
