Mass spectrum: Carbofuran; LC-ESI-QTOF; MS2; 90 V
Name: Carbofuran
Class: Insecticide; Transformation_product
Formula: C12H15NO3
Exact mass: 221.1052
SMILES: CNC(=O)Oc1cccc2CC(C)(C)Oc12
InChI: InChI=1S/C12H15NO3/c1-12(2)7-8-5-4-6-9(10(8)16-12)15-11(14)13-3/h4-6H,7H2,1-3H3,(H,13,14)
Instrument: TripleTOF 5600 SCIEX
Instrument type: LC-ESI-QTOF
Ms type: MS2
Ion mode: POSITIVE
Collision energy: 90
Fragmentation mode: CID
Ionization: ESI
Column name: Zorbax Eclipse Plus C18 2.1 mm x 150 mm, 3.5 um, Agilent
Retention time: 9.746 min
Precursor m/z: 222.1125
Precursor type: [M+H]+
m/z	relative intensity
55.0225	21
55.0601	56
58.0345	314
64.0354	18
65.0432	444
67.0582	32
74.0192	18
75.0265	27
77.0414	999
78.0487	94
78.0641	13
79.0556	21
81.0372	18
89.0404	62
91.0555	243
95.0494	16
102.0478	35
103.0543	143
105.0329	32
107.0525	16
115.0542	51
123.0429	21
127.0593	16
128.063	16
131.0493	24
