Mass spectrum: Acetylcholine; LC-ESI-QTOF; MS2; 40 V
Name: Acetylcholine
Class: Pharmaceutical
Formula: [C7H16NO2]+
Exact mass: 146.1176
SMILES: CC(=O)OCC[N+](C)(C)C
InChI: InChI=1S/C7H16NO2/c1-7(9)10-6-5-8(2,3)4/h5-6H2,1-4H3/q+1
Instrument: TripleTOF 5600 SCIEX
Instrument type: LC-ESI-QTOF
Ms type: MS2
Ion mode: POSITIVE
Collision energy: 40
Fragmentation mode: CID
Ionization: ESI
Column name: Zorbax Eclipse Plus C18 2.1 mm x 150 mm, 3.5 um, Agilent
Retention time: 2.065 min
Precursor m/z: 146.1176
Precursor type: [M]+
m/z	relative intensity
43.0267	534
87.0454	999
