Mass spectrum: Testosterone; LC-ESI-QTOF; MS2; 40 V
Name: Testosterone
Class: Pharmaceutical
Formula: C19H28O2
Exact mass: 288.2089
SMILES: C[C@]12CC[C@H]3[C@@H](CCC4=CC(=O)CC[C@]34C)[C@@H]1CC[C@@H]2O
InChI: InChI=1S/C19H28O2/c1-18-9-7-13(20)11-12(18)3-4-14-15-5-6-17(21)19(15,2)10-8-16(14)18/h11,14-17,21H,3-10H2,1-2H3/t14-,15-,16-,17-,18-,19-/m0/s1
Instrument: TripleTOF 5600 SCIEX
Instrument type: LC-ESI-QTOF
Ms type: MS2
Ion mode: POSITIVE
Collision energy: 40
Fragmentation mode: CID
Ionization: ESI
Column name: Zorbax Eclipse Plus C18 2.1 mm x 150 mm, 3.5 um, Agilent
Retention time: 10.968 min
Precursor m/z: 289.2162
Precursor type: [M+H]+
m/z	relative intensity
67.0596	27
69.0743	13
77.043	34
79.0593	131
81.0746	109
83.0536	37
91.0585	54
93.0733	68
95.089	47
97.0691	952
105.0726	67
107.087	38
109.0684	999
117.0719	11
119.0882	46
121.0671	11
121.1047	19
123.0837	126
129.0734	14
131.0876	24
133.1052	36
135.12	10
143.0878	18
145.1041	32
147.1206	33
157.1048	20
159.1202	38
161.136	12
163.116	10
171.1206	18
173.1377	13
175.1518	13
183.1194	15
187.1508	15
197.1378	17
199.1501	12
213.169	14
253.2005	20
289.2252	11
