Mass spectrum: 2,6-Dimethylquinoline; LC-ESI-QTOF; MS2; 130 V
Name: 2,6-Dimethylquinoline
Formula: C11H11N
Exact mass: 157.0891
SMILES: CC1=CC2=C(C=C1)N=C(C=C2)C
InChI: InChI=1S/C11H11N/c1-8-3-6-11-10(7-8)5-4-9(2)12-11/h3-7H,1-2H3
Instrument: TripleTOF 6600 SCIEX
Instrument type: LC-ESI-QTOF
Ms type: MS2
Ion mode: POSITIVE
Collision energy: 130
Fragmentation mode: CID
Ionization: ESI
Column name: Zorbax Eclipse Plus C18 2.1 mm x 150 mm, 3.5 um, Agilent
Retention time: 5.162 min
Precursor m/z: 158.0964
Precursor type: [M+H]+
m/z	relative intensity
35.9992	134
37.0071	712
38.0026	32
38.0146	360
39.0228	346
49.0072	351
50.0147	999
51.0221	226
52.0178	37
59.9985	69
61.0067	582
62.0146	652
63.0228	217
73.0063	180
74.0143	448
75.0095	27
75.0215	37
77.012	18
84.0003	23
85.0063	101
86.0142	78
87.021	18
