Mass spectrum: Opipramol; LC-ESI-QTOF; MS2; 80 V
Name: Opipramol
Class: Pharmaceutical
Formula: C23H29N3O
Exact mass: 363.2311
SMILES: OCCN1CCN(CCCN2c3ccccc3C=Cc4ccccc24)CC1
InChI: InChI=1S/C23H29N3O/c27-19-18-25-16-14-24(15-17-25)12-5-13-26-22-8-3-1-6-20(22)10-11-21-7-2-4-9-23(21)26/h1-4,6-11,27H,5,12-19H2
Instrument: TripleTOF 5600 SCIEX
Instrument type: LC-ESI-QTOF
Ms type: MS2
Ion mode: POSITIVE
Collision energy: 80
Fragmentation mode: CID
Ionization: ESI
Column name: Zorbax Eclipse Plus C18 2.1 mm x 150 mm, 3.5 um, Agilent
Retention time: 7.242 min
Precursor m/z: 364.2383
Precursor type: [M+H]+
m/z	relative intensity
42.0418	104
45.0406	73
56.0539	102
58.0695	47
67.0463	10
68.0537	26
70.0691	545
72.0492	23
72.0844	26
75.0243	13
77.0415	45
82.0675	41
83.0621	112
84.0822	26
86.0613	15
97.0765	256
98.0842	532
100.0762	597
100.1084	13
101.0383	62
103.053	10
111.0907	17
112.0991	41
115.0544	15
128.049	217
128.0944	34
129.0444	15
143.1175	93
151.0526	45
152.0611	58
163.0523	10
164.06	26
165.0689	49
166.0663	26
167.0726	45
171.1479	15
176.0611	76
177.0695	102
178.0766	999
179.0841	128
180.0799	54
189.0641	10
190.064	32
191.0716	102
192.0786	71
193.0885	58
203.0726	36
204.0804	862
205.0877	154
206.0955	169
217.0893	21
218.0956	30
