Mass spectrum: Tetracycline; LC-ESI-QTOF; MS2; 60 V
Name: Tetracycline
Class: Pharmaceutical
Formula: C22H24N2O8
Exact mass: 444.1533
SMILES: CC1(C2CC3C(C(=O)C(=C(C3(C(=O)C2=C(C4=C1C=CC=C4O)O)O)O)C(=O)N)N(C)C)O
InChI: InChI=1S/C22H24N2O8/c1-21(31)8-5-4-6-11(25)12(8)16(26)13-9(21)7-10-15(24(2)3)17(27)14(20(23)30)19(29)22(10,32)18(13)28/h4-6,9-10,15,25-26,29,31-32H,7H2,1-3H3,(H2,23,30)
Instrument: TripleTOF 5600 SCIEX
Instrument type: LC-ESI-QTOF
Ms type: MS2
Ion mode: POSITIVE
Collision energy: 60
Fragmentation mode: CID
Ionization: ESI
Column name: Zorbax Eclipse Plus C18 2.1 mm x 150 mm, 3.5 um, Agilent
Retention time: 5.46 min
Precursor m/z: 445.1605
Precursor type: [M+H]+
m/z	relative intensity
46.0652	28
58.0627	28
68.0494	28
70.0636	85
84.044	28
86.0602	57
98.0596	685
115.0553	28
121.0324	28
126.0543	28
137.0202	28
154.0496	228
165.074	57
167.0817	28
168.0577	28
177.0698	28
192.052	28
194.0423	28
195.0858	256
198.0609	85
201.0242	85
211.0756	28
213.0932	142
220.0476	28
221.0595	28
223.0723	371
223.088	85
224.0511	114
226.0641	999
227.0681	28
233.0621	85
235.0742	85
235.0913	28
236.0479	142
238.0607	57
239.0688	228
241.0882	799
242.0557	256
243.0631	57
247.0652	28
247.0907	28
249.0582	28
250.0543	28
251.0544	28
251.0717	256
252.0447	884
254.0551	171
254.0685	142
257.0908	85
263.0703	171
263.0847	28
267.0478	28
267.0632	627
269.0805	656
275.0656	28
278.0628	399
281.098	28
281.1169	28
291.0711	371
293.0735	142
293.0882	28
294.0611	28
296.1246	28
296.1355	57
303.0567	28
304.045	114
306.0595	114
321.0667	142
334.0486	542
337.0767	142
349.0689	57
