Mass spectrum: Iminostilbene; LC-ESI-QTOF; MS2; 150 V
Name: Iminostilbene
Class: Pharmaceutical
Formula: C14H11N
Exact mass: 193.0891
SMILES: C1=CC=C2C(=C1)C=CC3=CC=CC=C3N2
InChI: InChI=1S/C14H11N/c1-3-7-13-11(5-1)9-10-12-6-2-4-8-14(12)15-13/h1-10,15H
Instrument: TripleTOF 6600 SCIEX
Instrument type: LC-ESI-QTOF
Ms type: MS2
Ion mode: POSITIVE
Collision energy: 150
Fragmentation mode: CID
Ionization: ESI
Column name: Zorbax Eclipse Plus C18 2.1 mm x 150 mm, 3.5 um, Agilent
Retention time: 13.175 min
Precursor m/z: 194.0964
Precursor type: [M+H]+
m/z	relative intensity
35.9962	126
37.0042	483
38.0013	27
38.0117	273
39.0195	273
49.0029	378
50.0108	999
51.0183	275
52.0136	20
59.9939	119
61.0019	844
62.0095	780
63.0173	365
64.012	16
73.0006	298
74.0084	724
75.0033	29
75.0156	68
76.0111	11
83.9915	104
84.9993	403
86.0071	302
87.0147	62
89.0296	22
96.9983	137
98.006	241
99.0011	19
107.9891	25
108.9969	163
110.0049	83
111.0119	13
119.9881	19
120.996	23
122.0028	36
131.987	17
134.0028	10
