Mass spectrum: Estrone; LC-ESI-QTOF; MS2; 50 V
Name: Estrone
Class: Pharmaceutical
Formula: C18H22O2
Exact mass: 270.162
SMILES: CC12CCC3C(C1CCC2=O)CCC4=C3C=CC(=C4)O
InChI: InChI=1S/C18H22O2/c1-18-9-8-14-13-5-3-12(19)10-11(13)2-4-15(14)16(18)6-7-17(18)20/h3,5,10,14-16,19H,2,4,6-9H2,1H3
Instrument: TripleTOF 5600 SCIEX
Instrument type: LC-ESI-QTOF
Ms type: MS2
Ion mode: POSITIVE
Collision energy: 50
Fragmentation mode: CID
Ionization: ESI
Column name: Zorbax Eclipse Plus C18 2.1 mm x 150 mm, 3.5 um, Agilent
Retention time: 11.224 min
Precursor m/z: 271.1693
Precursor type: [M+H]+
m/z	relative intensity
43.0179	31
55.0181	18
65.0384	18
67.0543	57
71.0491	22
77.0386	143
79.0544	184
81.0699	92
91.0541	265
93.0696	51
95.0856	18
103.0543	97
105.0696	604
107.0491	165
107.0849	18
115.0542	296
116.062	120
117.0698	64
119.0858	12
121.0651	36
127.0542	167
128.0621	237
129.07	167
130.0782	12
131.0498	93
131.0829	124
132.0567	44
133.0645	962
141.0697	544
143.0848	17
144.0565	745
145.0647	193
147.0808	41
152.062	48
153.0698	94
154.0776	36
155.0851	66
157.0646	999
158.0728	35
159.0802	616
165.0701	180
166.078	16
167.0856	71
169.0697	70
169.1002	11
170.0727	46
171.0806	97
172.0881	30
173.0962	15
177.0691	14
178.0776	83
179.0857	174
181.0651	175
181.1002	10
182.0727	173
183.0803	197
184.0883	23
185.0967	59
191.0867	11
193.1016	19
194.0727	23
195.0805	56
196.0883	59
197.0962	131
198.1042	96
209.096	44
210.1041	11
211.112	40
213.1282	13
223.1127	14
