Mass spectrum: Edetol; LC-ESI-QTOF; MS2; 90 V
Name: Edetol
Formula: C14H32N2O4
Exact mass: 292.2362
SMILES: CC(CN(CCN(CC(C)O)CC(C)O)CC(C)O)O
InChI: InChI=1S/C14H32N2O4/c1-11(17)7-15(8-12(2)18)5-6-16(9-13(3)19)10-14(4)20/h11-14,17-20H,5-10H2,1-4H3
Instrument: TripleTOF 6600 SCIEX
Instrument type: LC-ESI-QTOF
Ms type: MS2
Ion mode: POSITIVE
Collision energy: 90
Fragmentation mode: CID
Ionization: ESI
Column name: Zorbax Eclipse Plus C18 2.1 mm x 150 mm, 3.5 um, Agilent
Retention time: 2.645 min
Precursor m/z: 293.2435
Precursor type: [M+H]+
m/z	relative intensity
31.0176	251
37.0065	52
38.0151	52
39.0226	790
41.0383	999
42.0335	416
43.0169	104
44.0488	121
45.0325	95
54.0345	86
56.0489	373
58.0649	52
59.0488	304
68.049	69
69.0555	43
70.0636	138
82.0647	34
84.0808	60
94.0626	34
