Mass spectrum: Trinexapac-ethyl; LC-ESI-QTOF; MS2; 50 V
Name: Trinexapac-ethyl
Class: Pesticide
Formula: C13H16O5
Exact mass: 252.0998
SMILES: CCOC(=O)C1CC(=O)C(=C(C2CC2)O)C(=O)C1
InChI: InChI=1S/C13H16O5/c1-2-18-13(17)8-5-9(14)11(10(15)6-8)12(16)7-3-4-7/h7-8,16H,2-6H2,1H3
Instrument: TripleTOF 6600 SCIEX
Instrument type: LC-ESI-QTOF
Ms type: MS2
Ion mode: NEGATIVE
Collision energy: 50
Fragmentation mode: CID
Ionization: ESI
Column name: Zorbax Eclipse Plus C18 2.1 mm x 150 mm, 3.5 um, Agilent
Retention time: 11.11 min
Precursor m/z: 251.0925
Precursor type: [M-H]-
m/z	relative intensity
41.0007	142
43.0171	95
44.9996	47
51.0235	95
65.0371	190
67.0157	190
81.0329	95
83.0458	237
91.0176	380
92.0245	47
93.0333	95
95.0094	237
105.0357	47
107.0495	95
108.02	237
109.0277	999
121.0295	47
122.0366	142
131.0501	95
135.0052	95
137.0199	95
137.0591	95
149.0225	142
159.043	285
163.0364	142
177.0519	380
