Mass spectrum: Mirtazapine; LC-ESI-QTOF; MS2; 110 V
Name: Mirtazapine
Class: Pharmaceutical
Formula: C17H19N3
Exact mass: 265.1579
SMILES: CN1CCN2C(C1)C3=CC=CC=C3CC4=C2N=CC=C4
InChI: InChI=1S/C17H19N3/c1-19-9-10-20-16(12-19)15-7-3-2-5-13(15)11-14-6-4-8-18-17(14)20/h2-8,16H,9-12H2,1H3
Instrument: TripleTOF 5600 SCIEX
Instrument type: LC-ESI-QTOF
Ms type: MS2
Ion mode: POSITIVE
Collision energy: 110
Fragmentation mode: CID
Ionization: ESI
Column name: Zorbax Eclipse Plus C18 2.1 mm x 150 mm, 3.5 um, Agilent
Retention time: 5.459 min
Precursor m/z: 266.1652
Precursor type: [M+H]+
m/z	relative intensity
42.0414	17
42.0473	35
44.0595	14
56.0586	29
58.0715	35
64.0382	32
65.0453	320
66.0424	32
72.0867	23
74.0208	65
75.0281	125
76.0359	71
77.0435	358
78.0373	65
78.0482	50
79.0464	23
80.0537	17
86.0193	26
87.0253	68
88.0335	53
89.0415	367
90.0358	17
90.0485	35
91.0567	107
92.0506	53
98.017	50
99.0234	77
100.0305	29
101.0394	83
102.0484	122
103.0555	71
104.0515	23
111.024	14
112.0339	14
113.0397	188
114.0467	116
115.0548	385
116.0514	50
117.0582	29
118.0548	17
122.0158	11
123.0264	14
125.04	98
126.0469	233
127.0544	152
128.0595	89
129.0608	11
130.0673	71
131.0619	38
137.0411	56
138.0463	140
139.0548	999
140.0506	505
141.0624	35
149.0356	29
149.0459	17
150.0469	382
151.0536	433
152.0622	466
153.0586	62
154.0615	20
155.0603	23
162.0498	38
163.0538	239
164.0504	343
165.0586	158
166.0651	448
167.0723	176
168.0692	29
174.0439	20
175.0482	26
176.0534	53
177.054	83
178.064	59
179.0667	47
180.0786	29
187.0581	14
188.0525	41
189.0596	50
190.0634	116
191.0595	164
192.0674	451
193.0768	119
194.084	20
205.076	50
217.0722	23
218.0794	14
