Mass spectrum: Prednisone; LC-ESI-QTOF; MS2; 140 V
Name: Prednisone
Class: Pharmaceutical
Formula: C21H26O5
Exact mass: 358.178
SMILES: C[C@]12CC(=O)[C@H]3[C@@H](CCC4=CC(=O)C=C[C@]34C)[C@@H]1CC[C@]2(O)C(=O)CO
InChI: InChI=1S/C21H26O5/c1-19-7-5-13(23)9-12(19)3-4-14-15-6-8-21(26,17(25)11-22)20(15,2)10-16(24)18(14)19/h5,7,9,14-15,18,22,26H,3-4,6,8,10-11H2,1-2H3/t14-,15-,18+,19-,20-,21-/m0/s1
Instrument: TripleTOF 5600 SCIEX
Instrument type: LC-ESI-QTOF
Ms type: MS2
Ion mode: POSITIVE
Collision energy: 140
Fragmentation mode: CID
Ionization: ESI
Column name: Zorbax Eclipse Plus C18 2.1 mm x 150 mm, 3.5 um, Agilent
Retention time: 8.469 min
Precursor m/z: 359.1853
Precursor type: [M+H]+
m/z	relative intensity
43.024	35
51.0287	171
53.0439	15
55.057	15
65.0422	258
67.0562	27
74.0179	19
75.0249	35
76.0332	35
77.0408	748
78.0474	103
79.0561	71
89.0395	171
91.0546	382
101.0378	23
102.0457	199
103.0534	175
104.0598	27
105.0688	15
107.0474	27
113.0373	27
114.0446	19
115.0535	999
116.0614	39
117.0703	15
125.0399	19
126.0443	115
127.0532	226
128.0609	417
129.0691	23
131.0485	123
131.0668	15
139.0527	214
140.0589	15
141.0688	71
144.053	19
150.0467	135
151.0526	310
152.0607	589
153.0681	63
162.0466	27
163.0528	210
164.0614	147
165.0685	425
175.0497	27
176.0609	290
177.0686	71
178.0752	183
181.0592	23
187.0539	99
188.0605	71
189.069	378
190.0798	15
191.0811	15
200.0598	127
201.0681	83
202.0771	195
203.0821	19
211.0541	23
213.0692	95
214.0714	19
215.0842	51
225.0653	15
226.0747	51
