Mass spectrum: 6-Bromo-2-benzothiazolinone; LC-ESI-QTOF; MS2; 40 V
Name: 6-Bromo-2-benzothiazolinone
Class: Industrial_process; Pharmaceutical
Formula: C7H4BrNOS
Exact mass: 228.9197
SMILES: C1=CC2=C(C=C1Br)SC(=O)N2
InChI: InChI=1S/C7H4BrNOS/c8-4-1-2-5-6(3-4)11-7(10)9-5/h1-3H,(H,9,10)
Instrument: TripleTOF 5600 SCIEX
Instrument type: LC-ESI-QTOF
Ms type: MS2
Ion mode: POSITIVE
Collision energy: 40
Fragmentation mode: CID
Ionization: ESI
Column name: Zorbax Eclipse Plus C18 2.1 mm x 150 mm, 3.5 um, Agilent
Retention time: 10.02 min
Precursor m/z: 229.927
Precursor type: [M+H]+
m/z	relative intensity
69.9921	29
79.0466	19
94.9969	34
96.0054	494
122.0081	68
123.0154	999
151.0095	773
157.9609	156
201.9318	176
229.9276	612
