Mass spectrum: 3,5-Diiodothyronine; LC-ESI-QTOF; MS2; 150 V
Name: 3,5-Diiodothyronine
Class: Pharmaceutical
Formula: C15H13I2NO4
Exact mass: 524.8934
SMILES: NC(Cc1cc(I)c(Oc2ccc(O)cc2)c(I)c1)C(O)=O
InChI: InChI=1S/C15H13I2NO4/c16-11-5-8(7-13(18)15(20)21)6-12(17)14(11)22-10-3-1-9(19)2-4-10/h1-6,13,19H,7,18H2,(H,20,21)
Instrument: TripleTOF 5600 SCIEX
Instrument type: LC-ESI-QTOF
Ms type: MS2
Ion mode: POSITIVE
Collision energy: 150
Fragmentation mode: CID
Ionization: ESI
Column name: Zorbax Eclipse Plus C18 2.1 mm x 150 mm, 3.5 um, Agilent
Retention time: 7.539 min
Precursor m/z: 525.9007
Precursor type: [M+H]+
m/z	relative intensity
53.0441	15
64.0342	21
65.0424	164
66.0499	15
74.018	51
75.0255	51
76.0335	64
77.0411	394
78.0355	15
78.0485	149
79.0456	30
80.0514	15
81.035	51
87.0243	27
88.0343	24
89.0405	479
90.0121	15
90.0481	85
91.0186	12
91.0564	58
92.0275	12
94.0433	21
101.0402	54
101.0586	18
102.0467	329
103.0542	27
103.0663	12
104.05	223
105.0334	36
105.0576	15
107.049	21
113.0374	27
114.047	21
115.0544	999
117.0558	36
119.0123	12
125.0369	24
126.0465	158
127.0549	449
127.0879	12
128.0625	464
131.0498	21
137.0374	15
138.0464	30
139.0542	394
140.0627	45
141.0702	268
149.0379	12
150.0463	134
151.054	372
152.0623	824
153.0696	54
154.0638	30
155.0489	103
156.0556	18
163.0549	91
164.0582	36
165.0689	27
166.0654	21
167.0728	76
168.0577	97
169.0654	79
170.06	12
179.0497	36
179.0632	21
181.066	48
184.0508	24
196.0736	24
197.0594	161
207.0666	15
223.0612	27
