Mass spectrum: 2,6-Dichlorobenzamide; LC-ESI-QTOF; MS2; 70 V
Name: 2,6-Dichlorobenzamide
Class: Herbicide; Transformation_product
Formula: C7H5Cl2NO
Exact mass: 188.9748
SMILES: C1=CC(=C(C(=C1)Cl)C(=O)N)Cl
InChI: InChI=1S/C7H5Cl2NO/c8-4-2-1-3-5(9)6(4)7(10)11/h1-3H,(H2,10,11)
Instrument: TripleTOF 6600 SCIEX
Instrument type: LC-ESI-QTOF
Ms type: MS2
Ion mode: POSITIVE
Collision energy: 70
Fragmentation mode: CID
Ionization: ESI
Column name: Zorbax Eclipse Plus C18 2.1 mm x 150 mm, 3.5 um, Agilent
Retention time: 6.197 min
Precursor m/z: 189.9821
Precursor type: [M+H]+
m/z	relative intensity
44.013	100
62.0145	30
63.0221	54
73.0071	54
74.0144	999
75.0216	185
84.9828	54
99.0098	77
100.0167	77
108.9826	185
109.9871	54
