Mass spectrum: Celiprolol; LC-ESI-QTOF; MS2; 130 V
Name: Celiprolol
Class: Pharmaceutical
Formula: C20H33N3O4
Exact mass: 379.2471
SMILES: CCN(CC)C(=O)NC1=CC(=C(C=C1)OCC(CNC(C)(C)C)O)C(=O)C
InChI: InChI=1S/C20H33N3O4/c1-7-23(8-2)19(26)22-15-9-10-18(17(11-15)14(3)24)27-13-16(25)12-21-20(4,5)6/h9-11,16,21,25H,7-8,12-13H2,1-6H3,(H,22,26)
Instrument: TripleTOF 5600 SCIEX
Instrument type: LC-ESI-QTOF
Ms type: MS2
Ion mode: POSITIVE
Collision energy: 130
Fragmentation mode: CID
Ionization: ESI
Column name: Zorbax Eclipse Plus C18 2.1 mm x 150 mm, 3.5 um, Agilent
Retention time: 6.532 min
Precursor m/z: 380.2544
Precursor type: [M+H]+
m/z	relative intensity
43.0259	142
44.0215	664
44.0596	71
52.0264	43
56.0554	999
57.0754	373
58.0701	60
65.0417	247
72.048	170
74.0639	356
74.0999	137
75.026	43
77.0417	966
78.0376	126
78.0526	32
80.0152	109
81.0378	32
89.0405	142
90.0349	32
91.0571	65
92.0509	65
102.036	43
102.0488	43
103.0534	76
104.0508	115
105.0331	27
106.0281	54
115.0545	137
117.0579	54
128.0473	27
130.0655	32
132.0454	54
