Mass spectrum: Tetracycline; LC-ESI-QTOF; MS2; 80 V
Name: Tetracycline
Class: Pharmaceutical
Formula: C22H24N2O8
Exact mass: 444.1533
SMILES: CC1(C2CC3C(C(=O)C(=C(C3(C(=O)C2=C(C4=C1C=CC=C4O)O)O)O)C(=O)N)N(C)C)O
InChI: InChI=1S/C22H24N2O8/c1-21(31)8-5-4-6-11(25)12(8)16(26)13-9(21)7-10-15(24(2)3)17(27)14(20(23)30)19(29)22(10,32)18(13)28/h4-6,9-10,15,25-26,29,31-32H,7H2,1-3H3,(H2,23,30)
Instrument: TripleTOF 5600 SCIEX
Instrument type: LC-ESI-QTOF
Ms type: MS2
Ion mode: POSITIVE
Collision energy: 80
Fragmentation mode: CID
Ionization: ESI
Column name: Zorbax Eclipse Plus C18 2.1 mm x 150 mm, 3.5 um, Agilent
Retention time: 5.46 min
Precursor m/z: 445.1605
Precursor type: [M+H]+
m/z	relative intensity
41.0395	16
42.0345	16
58.0653	16
68.9946	16
70.0643	49
86.0577	16
98.0606	147
115.0523	16
127.0535	16
139.0555	16
140.0654	16
141.07	16
144.0562	16
145.0679	16
151.0537	49
152.0632	114
153.0616	16
153.0703	16
165.0595	32
165.072	98
166.0757	16
167.0864	32
168.0581	229
169.0651	16
170.0681	16
176.0614	114
177.0695	49
178.079	81
179.087	65
180.0561	65
181.0647	131
187.0652	16
189.0573	32
189.0758	32
192.0563	16
193.0591	16
194.0708	81
195.0796	163
196.0527	212
196.0742	16
197.0624	114
198.0655	163
204.0517	16
205.0678	65
207.0928	32
208.0538	81
210.0705	49
211.0757	65
211.0899	16
219.0735	16
220.0486	49
223.0751	114
224.0327	16
224.0491	98
226.0606	999
232.0557	49
233.0593	49
236.0473	81
238.062	32
239.0688	32
241.0855	81
242.057	114
248.0396	16
250.0574	32
252.0422	343
254.0542	131
267.0611	16
275.0569	16
275.0752	32
278.0614	81
294.0454	32
306.0466	32
334.0507	32
