Mass spectrum: 3,3-Diphenylacrylonitrile; LC-ESI-QTOF; MS2; 70 V
Name: 3,3-Diphenylacrylonitrile
Formula: C15H11N
Exact mass: 205.0891
SMILES: C1=CC=C(C=C1)C(=CC#N)C2=CC=CC=C2
InChI: InChI=1S/C15H11N/c16-12-11-15(13-7-3-1-4-8-13)14-9-5-2-6-10-14/h1-11H
Instrument: TripleTOF 6600 SCIEX
Instrument type: LC-ESI-QTOF
Ms type: MS2
Ion mode: POSITIVE
Collision energy: 70
Fragmentation mode: CID
Ionization: ESI
Column name: Zorbax Eclipse Plus C18 2.1 mm x 150 mm, 3.5 um, Agilent
Retention time: 13.746 min
Precursor m/z: 206.0964
Precursor type: [M+H]+
m/z	relative intensity
50.0138	80
51.0218	589
74.014	142
75.0213	406
76.0174	20
77.0371	999
89.0359	20
99.0111	11
101.0368	62
102.0327	26
102.0453	17
103.0567	11
104.0481	32
105.0446	17
115.0541	38
125.0388	11
126.0452	32
127.0412	17
127.0532	14
128.0602	29
129.0432	23
139.0524	41
140.05	11
150.044	50
151.0533	225
152.0607	174
163.0519	83
164.0522	14
164.0641	14
165.0692	20
174.0425	17
175.0537	23
176.0606	332
177.0678	68
178.0768	32
187.051	17
190.0582	17
203.073	29
204.0777	20
