Mass spectrum: Pyroxsulam; LC-ESI-QTOF; MS2; 90 V
Name: Pyroxsulam
Class: Herbicide
Formula: C14H13F3N6O5S
Exact mass: 434.062
SMILES: COC1=CC(=NC2=NC(=NN12)NS(=O)(=O)C3=C(C=CN=C3OC)C(F)(F)F)OC
InChI: InChI=1S/C14H13F3N6O5S/c1-26-8-6-9(27-2)23-13(19-8)20-12(21-23)22-29(24,25)10-7(14(15,16)17)4-5-18-11(10)28-3/h4-6H,1-3H3,(H,21,22)
Instrument: TripleTOF 6600 SCIEX
Instrument type: LC-ESI-QTOF
Ms type: MS2
Ion mode: NEGATIVE
Collision energy: 90
Fragmentation mode: CID
Ionization: ESI
Column name: Zorbax Eclipse Plus C18 2.1 mm x 150 mm, 3.5 um, Agilent
Retention time: 9.651 min
Precursor m/z: 433.0547
Precursor type: [M-H]-
m/z	relative intensity
40.0045	26
41.9969	42
64.0059	73
65.0134	152
66.008	999
68.9954	152
88.0167	136
89.0025	63
90.0062	47
92.0132	26
93.0086	110
106.0093	52
106.0274	42
107.012	78
108.0256	89
109.0213	57
114.009	26
116.0145	105
123.0178	57
126.013	26
128.0351	73
135.0035	26
136.0192	63
146.0213	157
147.0173	126
149.0105	57
153.0158	31
156.0263	31
158.0219	36
159.019	57
161.0249	26
162.0409	52
163.025	21
165.0296	26
171.0377	21
172.0247	89
173.0178	89
184.016	57
185.0173	47
201.0159	36
201.0241	26
211.0237	115
225.0256	73
227.0086	63
227.0209	89
251.023	89
291.0189	21
