Mass spectrum: 9-Methylxanthine; LC-ESI-QTOF; MS2; 20 V
Name: 9-Methylxanthine
Class: Metabolite; Pharmaceutical
Formula: C6H6N4O2
Exact mass: 166.0491
SMILES: CN1C=NC2=C1NC(=O)NC2=O
InChI: InChI=1S/C6H6N4O2/c1-10-2-7-3-4(10)8-6(12)9-5(3)11/h2H,1H3,(H2,8,9,11,12)
Instrument: TripleTOF 5600 SCIEX
Instrument type: LC-ESI-QTOF
Ms type: MS2
Ion mode: POSITIVE
Collision energy: 20
Fragmentation mode: CID
Ionization: ESI
Column name: Zorbax Eclipse Plus C18 2.1 mm x 150 mm, 3.5 um, Agilent
Retention time: 2.378 min
Precursor m/z: 167.0564
Precursor type: [M+H]+
m/z	relative intensity
97.0384	41
124.0501	457
125.9811	41
150.0302	957
167.0563	999
