Mass spectrum: Celiprolol; LC-ESI-QTOF; MS2; 40 V
Name: Celiprolol
Class: Pharmaceutical
Formula: C20H33N3O4
Exact mass: 379.2471
SMILES: CCN(CC)C(=O)NC1=CC(=C(C=C1)OCC(CNC(C)(C)C)O)C(=O)C
InChI: InChI=1S/C20H33N3O4/c1-7-23(8-2)19(26)22-15-9-10-18(17(11-15)14(3)24)27-13-16(25)12-21-20(4,5)6/h9-11,16,21,25H,7-8,12-13H2,1-6H3,(H,22,26)
Instrument: TripleTOF 5600 SCIEX
Instrument type: LC-ESI-QTOF
Ms type: MS2
Ion mode: POSITIVE
Collision energy: 40
Fragmentation mode: CID
Ionization: ESI
Column name: Zorbax Eclipse Plus C18 2.1 mm x 150 mm, 3.5 um, Agilent
Retention time: 6.532 min
Precursor m/z: 380.2544
Precursor type: [M+H]+
m/z	relative intensity
43.0264	23
44.0214	12
56.0566	486
57.0753	58
72.0485	158
72.0843	17
74.0646	852
74.1	127
100.077	384
130.1233	63
132.044	19
146.0612	19
148.0398	179
148.0767	12
150.0547	18
158.0598	17
160.0742	9
170.0611	13
172.0391	21
174.0555	33
176.0709	114
178.0497	49
186.0547	132
189.0652	18
190.051	20
198.0548	16
204.0666	468
209.1283	18
215.0841	13
216.0666	551
233.093	686
247.1444	33
251.1218	999
262.1549	19
263.1393	88
264.1721	16
277.1557	189
282.182	54
289.156	207
306.1827	618
307.1664	678
324.1926	530
