Mass spectrum: O-desmethyl-naproxen; LC-ESI-QTOF; MS2; 50 V
Name: O-desmethyl-naproxen
Class: Metabolite; Pharmaceutical; Transformation_product
Formula: C13H12O3
Exact mass: 216.0786
SMILES: CC(C1=CC2=C(C=C1)C=C(C=C2)O)C(=O)O
InChI: InChI=1S/C13H12O3/c1-8(13(15)16)9-2-3-11-7-12(14)5-4-10(11)6-9/h2-8,14H,1H3,(H,15,16)
Instrument: TripleTOF 5600 SCIEX
Instrument type: LC-ESI-QTOF
Ms type: MS2
Ion mode: POSITIVE
Collision energy: 50
Fragmentation mode: CID
Ionization: ESI
Column name: Zorbax Eclipse Plus C18 2.1 mm x 150 mm, 3.5 um, Agilent
Retention time: 8.5 min
Precursor m/z: 217.0859
Precursor type: [M+H]+
m/z	relative intensity
77.0416	43
91.0564	68
115.055	404
116.0625	77
126.0476	34
127.0561	327
128.0625	999
131.0495	34
141.0691	111
143.0881	94
144.0586	232
151.0521	137
152.0622	852
153.07	241
155.062	77
170.072	51
171.0754	86
181.0752	34
