Mass spectrum: 1,2-Benzisothiazol-3(2H)-one; LC-ESI-QTOF; MS2; 100 V
Name: 1,2-Benzisothiazol-3(2H)-one
Class: Antimicrobial; Biocide; Fungicide
Formula: C7H5NOS
Exact mass: 151.0092
SMILES: C1=CC=C2C(=C1)C(=O)NS2
InChI: InChI=1S/C7H5NOS/c9-7-5-3-1-2-4-6(5)10-8-7/h1-4H,(H,8,9)
Instrument: TripleTOF 6600 SCIEX
Instrument type: LC-ESI-QTOF
Ms type: MS2
Ion mode: POSITIVE
Collision energy: 100
Fragmentation mode: CID
Ionization: ESI
Column name: Zorbax Eclipse Plus C18 2.1 mm x 150 mm, 3.5 um, Agilent
Retention time: 6.233 min
Precursor m/z: 152.0165
Precursor type: [M+H]+
m/z	relative intensity
35.999	161
37.0069	666
38.0016	47
38.0143	256
39.0229	361
43.9704	57
44.0125	66
44.9796	171
49.0071	323
50.0145	999
51.0224	627
61.0068	275
62.0145	371
63.0226	171
64.0184	152
67.9708	190
68.9782	675
73.0071	38
74.0129	104
80.979	47
92.9775	57
