Mass spectrum: Propranolol; LC-ESI-QTOF; MS2; 150 V
Name: Propranolol
Class: Pharmaceutical
Formula: C16H21NO2
Exact mass: 259.1572
SMILES: CC(C)NCC(O)COc1cccc2ccccc12
InChI: InChI=1S/C16H21NO2/c1-12(2)17-10-14(18)11-19-16-9-5-7-13-6-3-4-8-15(13)16/h3-9,12,14,17-18H,10-11H2,1-2H3
Instrument: TripleTOF 5600 SCIEX
Instrument type: LC-ESI-QTOF
Ms type: MS2
Ion mode: POSITIVE
Collision energy: 150
Fragmentation mode: CID
Ionization: ESI
Column name: Zorbax Eclipse Plus C18 2.1 mm x 150 mm, 3.5 um, Agilent
Retention time: 7.356 min
Precursor m/z: 260.1645
Precursor type: [M+H]+
m/z	relative intensity
44.0583	124
56.055	43
58.0706	68
60.0043	37
65.0425	56
73.0113	106
74.0182	999
75.0261	543
76.0339	199
77.0414	330
78.0493	81
85.0101	81
86.0179	231
87.0257	112
89.0404	174
98.0158	162
99.0253	37
100.0324	31
101.0387	31
102.0464	143
113.0384	37
115.0536	93
126.0462	137
127.0553	68
150.0458	49
151.0518	31
