Mass spectrum: Dronabinol; LC-ESI-QTOF; MS2; 100 V
Name: Dronabinol
Class: Pharmaceutical
Formula: C21H30O2
Exact mass: 314.2246
SMILES: CCCCCC1=CC(=C2C3C=C(CCC3C(OC2=C1)(C)C)C)O
InChI: InChI=1S/C21H30O2/c1-5-6-7-8-15-12-18(22)20-16-11-14(2)9-10-17(16)21(3,4)23-19(20)13-15/h11-13,16-17,22H,5-10H2,1-4H3
Instrument: TripleTOF 6600 SCIEX
Instrument type: LC-ESI-QTOF
Ms type: MS2
Ion mode: POSITIVE
Collision energy: 100
Fragmentation mode: CID
Ionization: ESI
Column name: Zorbax Eclipse Plus C18 2.1 mm x 150 mm, 3.5 um, Agilent
Retention time: 17.589 min
Precursor m/z: 315.2319
Precursor type: [M+H]+
m/z	relative intensity
35.9995	16
37.0068	95
38.003	16
38.0144	78
39.0224	697
41.0382	629
43.0168	32
43.0544	40
50.0138	46
51.0219	238
53.0381	65
55.0168	51
55.0542	40
63.0221	29
65.0376	325
66.0452	21
67.0532	114
68.9962	19
69.0325	13
77.0376	999
78.0448	70
79.053	350
81.0697	29
89.0379	54
91.0531	521
93.068	13
95.0466	21
102.0454	32
103.0524	114
105.0433	13
105.0684	67
107.047	133
108.0532	13
115.0524	323
116.0609	27
117.0686	27
123.0443	24
126.0489	16
127.0527	57
128.0607	154
129.0683	32
131.0483	59
139.0528	21
141.0672	46
144.0559	24
145.0621	10
147.0405	29
152.0593	46
153.0663	35
157.06	16
160.057	13
165.0669	24
173.0571	27
178.072	10
181.0645	19
