Mass spectrum: Sulfadoxine; LC-ESI-QTOF; MS2; 70 V
Name: Sulfadoxine
Class: Pharmaceutical
Formula: C12H14N4O4S
Exact mass: 310.0736
SMILES: COc1ncnc(N[S](=O)(=O)c2ccc(N)cc2)c1OC
InChI: InChI=1S/C12H14N4O4S/c1-19-10-11(14-7-15-12(10)20-2)16-21(17,18)9-5-3-8(13)4-6-9/h3-7H,13H2,1-2H3,(H,14,15,16)
Instrument: TripleTOF 5600 SCIEX
Instrument type: LC-ESI-QTOF
Ms type: CID
Ion mode: POSITIVE
Collision energy: 70
Ionization: ESI
Column name: Zorbax Eclipse Plus C18 2.1 mm x 150 mm, 3.5 um, Agilent
Retention time: 7.083 min
Precursor m/z: 311.0809
Precursor type: [M+H]+
m/z	relative intensity
39.0303	32
53.0427	28
65.0426	999
66.0359	20
67.0333	20
67.0393	16
68.0166	193
68.0418	16
79.0435	16
80.0518	468
82.0304	32
85.0399	28
92.0506	670
93.0579	65
95.0243	32
95.0495	65
96.0096	61
96.0554	28
105.049	32
108.045	596
110.0229	78
111.0442	28
112.05	222
113.0335	106
122.035	28
123.0466	32
124.0234	37
124.0497	32
126.0283	32
132.0543	86
133.0659	20
138.0292	57
140.0446	123
141.0539	65
154.0614	123
160.0494	16
