Mass spectrum: Hexazinone; LC-ESI-QTOF; MS2; 90 V
Name: Hexazinone
Class: Herbicide
Formula: C12H20N4O2
Exact mass: 252.1586
SMILES: CN1C(=NC(=O)N(C1=O)C2CCCCC2)N(C)C
InChI: InChI=1S/C12H20N4O2/c1-14(2)10-13-11(17)16(12(18)15(10)3)9-7-5-4-6-8-9/h9H,4-8H2,1-3H3
Instrument: TripleTOF 6600 SCIEX
Instrument type: LC-ESI-QTOF
Ms type: MS2
Ion mode: POSITIVE
Collision energy: 90
Fragmentation mode: CID
Ionization: ESI
Column name: Zorbax Eclipse Plus C18 2.1 mm x 150 mm, 3.5 um, Agilent
Retention time: 8.427 min
Precursor m/z: 253.1659
Precursor type: [M+H]+
m/z	relative intensity
30.033	19
37.0068	20
38.0145	21
39.0227	148
41.038	52
42.0333	243
44.049	150
55.0289	404
55.0523	47
56.0128	17
56.0367	295
57.0444	12
58.0279	31
58.0645	105
60.986	11
69.0076	69
69.0439	999
69.9914	105
70.0517	246
71.0596	791
72.0439	17
83.0229	103
85.0752	181
