Mass spectrum: Bicalutamide; LC-ESI-QTOF; MS2; 40 V
Name: Bicalutamide
Class: Pharmaceutical
Formula: C18H14F4N2O4S
Exact mass: 430.061
SMILES: CC(O)(C[S](=O)(=O)c1ccc(F)cc1)C(=O)Nc2ccc(C#N)c(c2)C(F)(F)F
InChI: InChI=1S/C18H14F4N2O4S/c1-17(26,10-29(27,28)14-6-3-12(19)4-7-14)16(25)24-13-5-2-11(9-23)15(8-13)18(20,21)22/h2-8,26H,10H2,1H3,(H,24,25)
Instrument: TripleTOF 5600 SCIEX
Instrument type: LC-ESI-QTOF
Ms type: MS2
Ion mode: NEGATIVE
Collision energy: 40
Fragmentation mode: CID
Ionization: ESI
Column name: Zorbax Eclipse Plus C18 2.1 mm x 150 mm, 3.5 um, Agilent
Retention time: 11.644 min
Precursor m/z: 429.0538
Precursor type: [M-H]-
m/z	relative intensity
63.9633	51
78.986	52
158.9917	138
173.0071	365
184.0369	743
185.0324	806
185.0506	73
227.0428	68
243.0124	67
255.0374	999
411.0429	73
