Mass spectrum: Diaveridine; LC-ESI-QTOF; MS2; 70 V
Name: Diaveridine
Class: Pharmaceutical
Formula: C13H16N4O2
Exact mass: 260.1273
SMILES: COC1=C(C=C(C=C1)CC2=CN=C(N=C2N)N)OC
InChI: InChI=1S/C13H16N4O2/c1-18-10-4-3-8(6-11(10)19-2)5-9-7-16-13(15)17-12(9)14/h3-4,6-7H,5H2,1-2H3,(H4,14,15,16,17)
Instrument: TripleTOF 5600 SCIEX
Instrument type: LC-ESI-QTOF
Ms type: MS2
Ion mode: POSITIVE
Collision energy: 70
Fragmentation mode: CID
Ionization: ESI
Column name: Zorbax Eclipse Plus C18 2.1 mm x 150 mm, 3.5 um, Agilent
Retention time: 4.966 min
Precursor m/z: 261.1346
Precursor type: [M+H]+
m/z	relative intensity
41.0398	15
43.0385	43
52.0273	39
53.0208	11
54.0437	192
55.0522	14
68.0429	111
69.0497	12
75.0294	15
77.0441	326
78.0533	22
79.0341	54
79.0597	90
80.0473	15
81.0501	999
82.0552	17
83.0527	74
89.0421	101
90.0503	27
91.0443	12
91.0584	73
92.0503	12
93.0511	14
94.0436	11
95.0522	31
96.0596	35
97.069	14
101.0419	71
102.0483	33
103.057	237
104.053	58
105.0372	95
106.0427	151
106.0674	23
107.0521	310
108.0603	19
109.0529	95
110.0607	149
111.0692	23
113.04	28
114.0379	27
115.0554	41
116.0513	152
117.0555	55
118.0381	11
118.0655	81
119.0502	11
119.0647	15
120.0505	19
123.0685	458
124.0763	54
126.04	9
127.0427	14
128.0512	269
129.0471	36
129.0656	11
130.0476	11
130.0673	156
131.0521	305
132.0473	38
133.0287	89
133.0527	19
133.0747	36
134.0627	19
135.0457	98
140.0511	127
141.0489	28
142.0544	36
143.06	81
144.0506	70
145.0766	119
146.025	15
146.0613	70
147.0686	28
148.0421	12
148.0754	31
150.0538	14
151.0753	15
153.0468	49
154.0486	14
155.0609	101
156.0459	146
157.0308	14
157.0543	25
158.0649	86
159.0468	19
159.0689	35
160.0757	25
161.0828	63
168.0545	27
170.0718	129
171.0554	71
172.0775	108
173.0755	78
174.0587	11
175.0939	22
176.0688	15
182.0708	35
183.0543	33
184.0391	12
184.0713	12
185.0801	79
186.0716	14
186.091	19
187.098	144
197.0778	9
198.0636	22
199.0789	22
199.1015	17
200.0794	15
201.0605	11
203.0953	14
213.0765	27
214.0858	20
215.0922	46
243.0885	36
245.1008	35
