Mass spectrum: Meptazinol; LC-ESI-QTOF; MS2; 140 V
Name: Meptazinol
Class: Pharmaceutical
Formula: C15H23NO
Exact mass: 233.178
SMILES: CCC1(CCCCN(C1)C)C2=CC(=CC=C2)O
InChI: InChI=1S/C15H23NO/c1-3-15(9-4-5-10-16(2)12-15)13-7-6-8-14(17)11-13/h6-8,11,17H,3-5,9-10,12H2,1-2H3
Instrument: TripleTOF 5600 SCIEX
Instrument type: LC-ESI-QTOF
Ms type: MS2
Ion mode: POSITIVE
Collision energy: 140
Fragmentation mode: CID
Ionization: ESI
Column name: Zorbax Eclipse Plus C18 2.1 mm x 150 mm, 3.5 um, Agilent
Retention time: 5.641 min
Precursor m/z: 234.1852
Precursor type: [M+H]+
m/z	relative intensity
35.9992	20
37.0071	98
38.015	78
39.0229	234
41.0386	41
42.0338	83
44.0494	296
49.0072	114
50.0151	624
51.023	999
53.0391	41
54.0337	46
55.0187	31
61.0064	83
62.0147	197
63.0228	208
65.0382	93
74.0152	124
75.0234	52
76.0315	26
77.0386	369
78.0456	20
86.0161	20
89.0389	72
91.0539	26
102.0479	26
115.0547	62
