Mass spectrum: Methyltriphenylphosphonium; LC-ESI-QTOF; MS2; 120 V
Name: Methyltriphenylphosphonium
Class: Pharmaceutical
Formula: [C19H18P]+
Exact mass: 277.1141
SMILES: C[P+](c1ccccc1)(c2ccccc2)c3ccccc3
InChI: InChI=1S/C19H18P/c1-20(17-11-5-2-6-12-17,18-13-7-3-8-14-18)19-15-9-4-10-16-19/h2-16H,1H3/q+1
Instrument: TripleTOF 5600 SCIEX
Instrument type: LC-ESI-QTOF
Ms type: MS2
Ion mode: POSITIVE
Collision energy: 120
Fragmentation mode: CID
Ionization: ESI
Column name: Zorbax Eclipse Plus C18 2.1 mm x 150 mm, 3.5 um, Agilent
Retention time: 7.192 min
Precursor m/z: 277.1141
Precursor type: [M]+
m/z	relative intensity
51.0288	95
56.9942	101
65.0435	133
74.0175	67
76.0332	75
77.0412	161
79.9827	197
80.9907	317
87.0239	62
89.0395	351
102.0467	171
107.005	999
113.0385	124
115.0539	417
126.0467	363
131.0042	135
133.0206	77
139.0548	338
150.046	282
151.0548	662
152.0621	929
155.004	75
156.013	141
157.0204	523
180.0134	103
181.0203	549
183.0345	107
