Mass spectrum: Estrone 3-methyl ether; LC-ESI-QTOF; MS2; 120 V
Name: Estrone 3-methyl ether
Class: Pharmaceutical
Formula: C19H24O2
Exact mass: 284.1776
SMILES: C[C@]12CC[C@@H]3c4ccc(cc4CC[C@H]3[C@@H]1CCC2=O)OC
InChI: InChI=1S/C19H24O2/c1-19-10-9-15-14-6-4-13(21-2)11-12(14)3-5-16(15)17(19)7-8-18(19)20/h4,6,11,15-17H,3,5,7-10H2,1-2H3/t15-,16-,17+,19+/m1/s1
Instrument: TripleTOF 5600 SCIEX
Instrument type: LC-ESI-QTOF
Ms type: MS2
Ion mode: POSITIVE
Collision energy: 120
Fragmentation mode: CID
Ionization: ESI
Column name: Zorbax Eclipse Plus C18 2.1 mm x 150 mm, 3.5 um, Agilent
Retention time: 10.549 min
Precursor m/z: 285.1849
Precursor type: [M+H]+
m/z	relative intensity
51.0275	86
63.0398	39
65.0415	180
76.0337	70
77.041	503
77.0626	39
78.0488	275
89.0403	306
91.0569	220
102.047	346
103.0541	173
113.0407	39
115.0539	999
126.0455	78
127.0539	212
128.0618	479
129.0653	47
131.051	39
139.0535	110
150.0452	47
151.0527	149
152.0606	283
153.0698	47
163.053	78
164.0611	62
165.0694	125
176.0619	62
178.0799	39
