Mass spectrum: 2-[(4-hydroxy-9,10-dioxoanthracen-1-yl)amino]-5-methylbenzenesulfonic acid; LC-ESI-QTOF; MS2; 40 V
Name: 2-[(4-hydroxy-9,10-dioxoanthracen-1-yl)amino]-5-methylbenzenesulfonic acid
Formula: C21H15NO6S
Exact mass: 409.062
SMILES: CC1=CC(=C(C=C1)NC2=C3C(=C(C=C2)O)C(=O)C4=CC=CC=C4C3=O)S(=O)(=O)O
InChI: InChI=1S/C21H15NO6S/c1-11-6-7-14(17(10-11)29(26,27)28)22-15-8-9-16(23)19-18(15)20(24)12-4-2-3-5-13(12)21(19)25/h2-10,22-23H,1H3,(H,26,27,28)
Instrument: TripleTOF X500R SCIEX
Instrument type: LC-ESI-QTOF
Ms type: MS2
Ion mode: NEGATIVE
Collision energy: 40
Fragmentation mode: CID
Ionization: ESI
Column name: Zorbax Eclipse Plus C18 2.1 mm x 150 mm, 3.5 um, Agilent
Retention time: 11.683 min
Precursor m/z: 408.0547
Precursor type: [M-H]-
m/z	relative intensity
79.9579	29
184.0083	31
185.0166	184
211.0423	37
300.104	87
309.0779	21
310.0885	316
326.0825	22
327.0896	138
328.0989	999
344.0934	20
364.0658	20
408.0551	444
