Mass spectrum: Isocaffeine; LC-ESI-QTOF; MS2; 50 V
Name: Isocaffeine
Class: Natural_product
Formula: C8H10N4O2
Exact mass: 194.0804
SMILES: CN1C=NC2=C1N(C(=O)N(C2=O)C)C
InChI: InChI=1S/C8H10N4O2/c1-10-4-9-5-6(10)11(2)8(14)12(3)7(5)13/h4H,1-3H3
Instrument: TripleTOF 5600 SCIEX
Instrument type: LC-ESI-QTOF
Ms type: MS2
Ion mode: POSITIVE
Collision energy: 50
Fragmentation mode: CID
Ionization: ESI
Column name: Zorbax Eclipse Plus C18 2.1 mm x 150 mm, 3.5 um, Agilent
Retention time: 4.729 min
Precursor m/z: 195.0877
Precursor type: [M+H]+
m/z	relative intensity
42.0337	761
69.0444	704
81.0441	85
82.0156	76
83.0597	47
95.0474	47
97.0392	142
108.0544	66
109.0394	47
110.0726	66
111.0536	85
123.0427	999
138.0681	152
