Mass spectrum: Ethisterone; LC-ESI-QTOF; MS2; 130 V
Name: Ethisterone
Class: Pharmaceutical; Metabolite
Formula: C21H28O2
Exact mass: 312.2089
SMILES: C[C@]12CCC(=O)C=C1CC[C@@H]3[C@@H]2CC[C@@]4(C)[C@H]3CC[C@@]4(O)C#C
InChI: InChI=1S/C21H28O2/c1-4-21(23)12-9-18-16-6-5-14-13-15(22)7-10-19(14,2)17(16)8-11-20(18,21)3/h1,13,16-18,23H,5-12H2,2-3H3/t16-,17+,18+,19+,20+,21+/m1/s1
Instrument: TripleTOF 5600 SCIEX
Instrument type: LC-ESI-QTOF
Ms type: MS2
Ion mode: POSITIVE
Collision energy: 130
Fragmentation mode: CID
Ionization: ESI
Column name: Zorbax Eclipse Plus C18 2.1 mm x 150 mm, 3.5 um, Agilent
Retention time: 11.662 min
Precursor m/z: 313.2162
Precursor type: [M+H]+
m/z	relative intensity
43.0269	84
51.0289	273
53.0432	73
55.0231	131
65.0429	410
66.0494	26
67.0573	47
69.0733	26
74.02	36
77.0419	999
77.0706	36
78.0497	57
79.0562	226
81.0358	26
81.0731	42
89.0416	89
91.0559	252
91.075	36
97.066	42
102.0466	89
103.0542	31
107.0471	36
115.0542	399
115.0866	21
126.0459	31
127.0538	94
127.0693	21
128.0617	220
129.0753	26
139.0558	26
141.072	42
151.0558	52
152.0612	57
153.0699	42
163.0548	57
164.0647	31
165.0692	47
189.0673	31
