Mass spectrum: Bexarotene; LC-ESI-QTOF; MS2; 120 V
Name: Bexarotene
Class: Pharmaceutical
Formula: C24H28O2
Exact mass: 348.2089
SMILES: Cc1cc2c(cc1C(=C)c3ccc(cc3)C(O)=O)C(C)(C)CCC2(C)C
InChI: InChI=1S/C24H28O2/c1-15-13-20-21(24(5,6)12-11-23(20,3)4)14-19(15)16(2)17-7-9-18(10-8-17)22(25)26/h7-10,13-14H,2,11-12H2,1,3-6H3,(H,25,26)
Instrument: TripleTOF 5600 SCIEX
Instrument type: LC-ESI-QTOF
Ms type: MS2
Ion mode: POSITIVE
Collision energy: 120
Fragmentation mode: CID
Ionization: ESI
Column name: Zorbax Eclipse Plus C18 2.1 mm x 150 mm, 3.5 um, Agilent
Retention time: 17.591 min
Precursor m/z: 349.2162
Precursor type: [M+H]+
m/z	relative intensity
77.0413	466
115.0536	666
127.0527	466
128.0612	932
141.0696	333
151.0529	333
152.0632	999
153.0687	399
165.0689	532
189.0674	865
202.0764	666
215.0863	666
228.0963	266
