Mass spectrum: Sethoxydim; LC-ESI-QTOF; MS2; 90 V
Name: Sethoxydim
Class: Herbicide
Formula: C17H29NO3S
Exact mass: 327.1868
InChI: InChI=1S/C17H29NO3S/c1-5-8-14(18-21-6-2)17-15(19)10-13(11-16(17)20)9-12(4)22-7-3/h12-13,18H,5-11H2,1-4H3
Instrument: TripleTOF 5600 SCIEX
Instrument type: LC-ESI-QTOF
Ms type: CID
Ion mode: POSITIVE
Collision energy: 90
Ionization: ESI
Column name: Zorbax Eclipse Plus C18 2.1 mm x 150 mm, 3.5 um, Agilent
Retention time: 16.132 min
Precursor m/z: 328.1941
Precursor type: [M+H]+
m/z	relative intensity
65.0422	315
77.04	999
79.0575	473
91.0552	420
105.0694	315
107.0485	630
115.0529	473
