Mass spectrum: Daidzein; LC-ESI-QTOF; MS2; 30 V
Name: Daidzein
Class: Pharmaceutical; Natural_product
Formula: C15H10O4
Exact mass: 254.0579
SMILES: Oc1ccc(cc1)C2=COc3cc(O)ccc3C2=O
InChI: InChI=1S/C15H10O4/c16-10-3-1-9(2-4-10)13-8-19-14-7-11(17)5-6-12(14)15(13)18/h1-8,16-17H
Instrument: TripleTOF 5600 SCIEX
Instrument type: LC-ESI-QTOF
Ms type: MS2
Ion mode: POSITIVE
Collision energy: 30
Fragmentation mode: CID
Ionization: ESI
Column name: Zorbax Eclipse Plus C18 2.1 mm x 150 mm, 3.5 um, Agilent
Retention time: 7.744 min
Precursor m/z: 255.0652
Precursor type: [M+H]+
m/z	relative intensity
91.054	15
119.049	10
137.024	87
145.029	16
153.0701	22
157.0655	16
171.0809	15
181.0659	60
199.076	194
209.06	15
227.0715	106
237.0552	44
255.0657	999
