Mass spectrum: Bexarotene; LC-ESI-QTOF; MS2; 60 V
Name: Bexarotene
Class: Pharmaceutical
Formula: C24H28O2
Exact mass: 348.2089
SMILES: Cc1cc2c(cc1C(=C)c3ccc(cc3)C(O)=O)C(C)(C)CCC2(C)C
InChI: InChI=1S/C24H28O2/c1-15-13-20-21(24(5,6)12-11-23(20,3)4)14-19(15)16(2)17-7-9-18(10-8-17)22(25)26/h7-10,13-14H,2,11-12H2,1,3-6H3,(H,25,26)
Instrument: TripleTOF 5600 SCIEX
Instrument type: LC-ESI-QTOF
Ms type: MS2
Ion mode: POSITIVE
Collision energy: 60
Fragmentation mode: CID
Ionization: ESI
Column name: Zorbax Eclipse Plus C18 2.1 mm x 150 mm, 3.5 um, Agilent
Retention time: 17.591 min
Precursor m/z: 349.2162
Precursor type: [M+H]+
m/z	relative intensity
77.042	499
91.055	249
102.0486	249
103.0552	874
128.0621	686
129.0332	312
129.0695	686
141.0693	561
142.0798	437
147.0426	749
153.0665	249
155.0843	374
157.1039	499
167.0856	249
178.0759	312
183.1118	249
190.0846	312
191.0877	999
192.0933	624
197.1307	561
203.0875	249
205.1005	374
251.1052	312
