Mass spectrum: Naringenin; LC-ESI-QTOF; MS2; 40 V
Name: Naringenin
Class: Pharmaceutical
Formula: C15H12O5
Exact mass: 272.0685
SMILES: Oc1ccc(cc1)C2CC(=O)c3c(O)cc(O)cc3O2
InChI: InChI=1S/C15H12O5/c16-9-3-1-8(2-4-9)13-7-12(19)15-11(18)5-10(17)6-14(15)20-13/h1-6,13,16-18H,7H2
Instrument: TripleTOF 5600 SCIEX
Instrument type: LC-ESI-QTOF
Ms type: MS2
Ion mode: POSITIVE
Collision energy: 40
Fragmentation mode: CID
Ionization: ESI
Column name: Zorbax Eclipse Plus C18 2.1 mm x 150 mm, 3.5 um, Agilent
Retention time: 9.18 min
Precursor m/z: 273.0757
Precursor type: [M+H]+
m/z	relative intensity
65.0415	25
67.0234	23
68.9997	29
69.0371	23
77.0424	17
91.0561	153
95.0509	14
97.029	25
107.0487	29
111.0066	17
119.0489	213
123.044	42
147.0431	304
153.0179	999
153.0499	12
255.0655	14
273.0744	170
