Mass spectrum: 1-Benzothiazol-2-yl-ethylamine; LC-ESI-QTOF; MS2; 110 V
Name: 1-Benzothiazol-2-yl-ethylamine
Formula: C9H10N2S
Exact mass: 178.0565
SMILES: CC(C1=NC2=CC=CC=C2S1)N
InChI: InChI=1S/C9H10N2S/c1-6(10)9-11-7-4-2-3-5-8(7)12-9/h2-6H,10H2,1H3
Instrument: TripleTOF 6600 SCIEX
Instrument type: LC-ESI-QTOF
Ms type: MS2
Ion mode: POSITIVE
Collision energy: 110
Fragmentation mode: CID
Ionization: ESI
Column name: Zorbax Eclipse Plus C18 2.1 mm x 150 mm, 3.5 um, Agilent
Retention time: 5.162 min
Precursor m/z: 179.0638
Precursor type: [M+H]+
m/z	relative intensity
35.9991	71
37.0067	404
38.0029	25
38.0146	297
39.0225	993
42.0332	66
43.9705	35
44.0487	133
44.979	158
49.0067	51
50.0146	204
51.0224	97
61.0065	46
62.0146	66
63.0218	102
65.0373	46
67.9711	122
68.9787	999
74.0138	56
80.9778	25
81.986	35
92.9775	56
