Mass spectrum: Metoclopramide; LC-ESI-QTOF; MS2; 110 V
Name: Metoclopramide
Class: Pharmaceutical
Formula: C14H22ClN3O2
Exact mass: 299.1401
SMILES: CCN(CC)CCNC(=O)C1=CC(=C(C=C1OC)N)Cl
InChI: InChI=1S/C14H22ClN3O2/c1-4-18(5-2)7-6-17-14(19)10-8-11(15)12(16)9-13(10)20-3/h8-9H,4-7,16H2,1-3H3,(H,17,19)
Instrument: TripleTOF 5600 SCIEX
Instrument type: LC-ESI-QTOF
Ms type: MS2
Ion mode: POSITIVE
Collision energy: 110
Fragmentation mode: CID
Ionization: ESI
Column name: Zorbax Eclipse Plus C18 2.1 mm x 150 mm, 3.5 um, Agilent
Retention time: 5.459 min
Precursor m/z: 300.1473
Precursor type: [M+H]+
m/z	relative intensity
52.0288	54
65.0459	14
72.9898	57
78.0397	999
90.0384	38
91.0454	11
92.0529	11
93.0608	18
99.0025	26
105.0479	21
113.0054	214
139.0071	11
140.9983	23
