Mass spectrum: Acetylsulfamethoxazole; LC-ESI-QTOF; MS2; 70 V
Name: Acetylsulfamethoxazole
Class: Metabolite; Pharmaceutical
Formula: C12H13N3O4S
Exact mass: 295.0627
SMILES: CC1=CC(=NO1)NS(=O)(=O)C2=CC=C(C=C2)NC(=O)C
InChI: InChI=1S/C12H13N3O4S/c1-8-7-12(14-19-8)15-20(17,18)11-5-3-10(4-6-11)13-9(2)16/h3-7H,1-2H3,(H,13,16)(H,14,15)
Instrument: TripleTOF 5600 SCIEX
Instrument type: LC-ESI-QTOF
Ms type: MS2
Ion mode: POSITIVE
Collision energy: 70
Fragmentation mode: CID
Ionization: ESI
Column name: Zorbax Eclipse Plus C18 2.1 mm x 150 mm, 3.5 um, Agilent
Retention time: 7.411 min
Precursor m/z: 296.07
Precursor type: [M+H]+
m/z	relative intensity
43.0291	60
53.0471	22
65.0461	999
66.0514	46
77.0432	184
78.0389	44
79.0596	74
80.0543	300
89.0414	13
90.0395	11
91.0459	16
92.053	262
93.0392	52
93.0596	226
94.0668	60
99.0563	16
104.0517	27
105.0463	16
106.0673	52
107.0639	33
108.0458	320
118.0528	11
119.0616	41
131.0593	33
132.067	16
134.0616	38
146.0727	71
147.0813	19
