Mass spectrum: Oxytetracycline; LC-ESI-QTOF; MS2; 40 V
Name: Oxytetracycline
Class: Pharmaceutical
Formula: C22H24N2O9
Exact mass: 460.1482
SMILES: CC1(C2C(C3C(C(=O)C(=C(C3(C(=O)C2=C(C4=C1C=CC=C4O)O)O)O)C(=O)N)N(C)C)O)O
InChI: InChI=1S/C22H24N2O9/c1-21(32)7-5-4-6-8(25)9(7)15(26)10-12(21)17(28)13-14(24(2)3)16(27)11(20(23)31)19(30)22(13,33)18(10)29/h4-6,12-14,17,25-26,28,30,32-33H,1-3H3,(H2,23,31)
Instrument: TripleTOF 5600 SCIEX
Instrument type: LC-ESI-QTOF
Ms type: MS2
Ion mode: POSITIVE
Collision energy: 40
Fragmentation mode: CID
Ionization: ESI
Column name: Zorbax Eclipse Plus C18 2.1 mm x 150 mm, 3.5 um, Agilent
Retention time: 5.586 min
Precursor m/z: 461.1555
Precursor type: [M+H]+
m/z	relative intensity
58.0672	10
98.0593	51
126.0545	17
145.0611	19
152.0667	10
153.0208	16
154.0489	87
173.0583	14
187.071	16
198.0731	23
201.0535	265
208.0602	35
211.074	26
213.0533	80
223.0743	14
226.0705	101
239.0339	16
239.0694	53
240.0375	12
251.0713	14
252.0474	10
253.0503	10
255.066	12
257.0455	10
257.0793	14
258.0498	10
263.0691	17
267.0631	57
268.0334	80
270.0494	10
273.075	23
279.0627	42
281.0413	17
281.0802	12
283.06	226
285.0736	26
291.0667	26
295.0625	17
297.0814	19
297.1033	10
307.059	51
309.0758	16
312.1225	37
317.044	12
319.0616	17
320.0283	10
321.0308	10
322.047	41
325.0706	12
335.0561	83
337.0708	249
347.0535	16
350.0405	183
353.0629	19
363.05	60
365.0666	190
376.0816	14
380.1114	23
381.0608	212
390.1002	10
398.0814	17
408.1079	114
426.1183	999
443.1449	96
444.1295	156
461.1574	41
