Mass spectrum: Quinoxyfen; LC-ESI-QTOF; MS2; 80 V
Name: Quinoxyfen
Class: Fungicide
Formula: C15H8Cl2FNO
Exact mass: 306.9967
SMILES: C1=CC(=CC=C1OC2=C3C(=CC(=CC3=NC=C2)Cl)Cl)F
InChI: InChI=1S/C15H8Cl2FNO/c16-9-7-12(17)15-13(8-9)19-6-5-14(15)20-11-3-1-10(18)2-4-11/h1-8H
Instrument: TripleTOF 6600 SCIEX
Instrument type: LC-ESI-QTOF
Ms type: MS2
Ion mode: POSITIVE
Collision energy: 80
Fragmentation mode: CID
Ionization: ESI
Column name: Zorbax Eclipse Plus C18 2.1 mm x 150 mm, 3.5 um, Agilent
Retention time: 15.195 min
Precursor m/z: 308.004
Precursor type: [M+H]+
m/z	relative intensity
51.022	11
62.0142	19
63.0219	25
69.0118	26
72.9829	42
73.0054	31
74.0141	419
75.0219	613
76.0172	15
83.0276	10
87.0217	22
88.0295	44
89.037	61
95.0278	115
96.983	20
98.0138	59
99.0214	308
100.0173	86
108.9827	49
110.9987	16
111.9933	36
114.0323	103
115.0403	215
116.0488	23
122.9987	415
123.0298	11
124.0069	53
126.0327	160
127.0403	300
133.9904	20
134.9981	178
144.0449	14
144.9591	28
150.0093	232
151.0169	179
154.0384	70
156.9592	16
157.0446	10
157.9679	26
161.0015	34
162.0095	999
163.0047	58
163.0533	46
164.0487	16
169.9671	72
171.9705	12
172.964	15
178.0059	19
179.0129	63
181.0431	109
182.0504	66
183.0583	63
184.9769	67
188.0497	40
189.0554	26
190.0651	53
195.971	17
196.979	31
207.0479	12
208.0552	183
209.0626	69
213.9813	67
217.0183	12
237.0563	54
243.0232	15
