Mass spectrum: 4-Methoxycinnamaldehyde; LC-ESI-QTOF; MS2; 40 V
Name: 4-Methoxycinnamaldehyde
Formula: C10H10O2
Exact mass: 162.0681
SMILES: COC1=CC=C(C=C1)C=CC=O
InChI: InChI=1S/C10H10O2/c1-12-10-6-4-9(5-7-10)3-2-8-11/h2-8H,1H3
Instrument: TripleTOF 6600 SCIEX
Instrument type: LC-ESI-QTOF
Ms type: MS2
Ion mode: POSITIVE
Collision energy: 40
Fragmentation mode: CID
Ionization: ESI
Column name: Zorbax Eclipse Plus C18 2.1 mm x 150 mm, 3.5 um, Agilent
Retention time: 9.471 min
Precursor m/z: 163.0754
Precursor type: [M+H]+
m/z	relative intensity
51.0238	30
55.0183	85
65.0396	63
76.0325	16
77.0393	433
78.0455	71
79.0559	121
80.058	13
89.0421	38
90.0465	46
91.055	999
92.0269	19
92.0601	165
94.0435	27
95.0496	13
102.0479	480
103.0548	240
104.0611	52
105.0383	60
105.0714	27
106.0429	16
115.0557	74
116.0618	13
118.0426	16
119.0508	115
120.0567	88
121.065	19
130.0426	71
131.0504	52
132.0567	19
133.0674	27
134.0715	13
145.0666	41
146.0766	16
147.0471	30
