Mass spectrum: 4-Hydroxybenzoic acid; LC-ESI-QTOF; MS2; 130 V
Name: 4-Hydroxybenzoic acid
Class: Industrial_process; Personal_care_product; Food_additive
Formula: C7H6O3
Exact mass: 138.0317
SMILES: OC(=O)c1ccc(O)cc1
InChI: InChI=1S/C7H6O3/c8-6-3-1-5(2-4-6)7(9)10/h1-4,8H,(H,9,10)
Instrument: TripleTOF 5600 SCIEX
Instrument type: LC-ESI-QTOF
Ms type: MS2
Ion mode: NEGATIVE
Collision energy: 130
Fragmentation mode: CID
Ionization: ESI
Column name: Zorbax Eclipse Plus C18 2.1 mm x 150 mm, 3.5 um, Agilent
Retention time: 5.62 min
Precursor m/z: 137.0244
Precursor type: [M-H]-
m/z	relative intensity
41.0071	999
41.0229	166
41.0305	166
48.0022	333
