Mass spectrum: Spinosad A; LC-ESI-QTOF; MS2; 70 V
Name: Spinosad A
Class: Insecticide
Formula: C41H65NO10
Exact mass: 731.4608
SMILES: CCC1CCCC(C(C(=O)C2=CC3C4CC(CC4C=CC3C2CC(=O)O1)OC5C(C(C(C(O5)C)OC)OC)OC)C)OC6CCC(C(O6)C)N(C)C
InChI: InChI=1S/C41H65NO10/c1-10-26-12-11-13-34(52-36-17-16-33(42(5)6)23(3)48-36)22(2)37(44)32-20-30-28(31(32)21-35(43)50-26)15-14-25-18-27(19-29(25)30)51-41-40(47-9)39(46-8)38(45-7)24(4)49-41/h14-15,20,22-31,33-34,36,38-41H,10-13,16-19,21H2,1-9H3
Instrument: TripleTOF 6600 SCIEX
Instrument type: LC-ESI-QTOF
Ms type: MS2
Ion mode: POSITIVE
Collision energy: 70
Fragmentation mode: CID
Ionization: ESI
Column name: Zorbax Eclipse Plus C18 2.1 mm x 150 mm, 3.5 um, Agilent
Retention time: 10.391 min
Precursor m/z: 732.4681
Precursor type: [M+H]+
m/z	relative intensity
59.0479	13
67.053	13
69.0689	40
71.0482	19
72.0433	18
72.0797	10
75.043	53
79.053	15
83.0842	14
85.0633	12
89.0586	13
95.0845	11
97.0639	165
98.0957	404
99.0432	80
99.079	67
101.0586	67
113.0586	18
115.074	15
124.1108	19
125.0584	51
129.0895	25
142.1222	999
145.0845	33
153.0685	10
155.0845	34
157.0847	36
160.132	27
169.1003	20
183.0792	10
189.111	13
197.0947	28
199.0745	17
201.0897	17
215.1058	11
225.0911	19
