Mass spectrum: threo-Dihydrobupropion; LC-ESI-QTOF; MS2; 60 V
Name: threo-Dihydrobupropion
Class: Pharmaceutical; Metabolite
Formula: C13H20ClNO
Exact mass: 241.1233
SMILES: CC(C(c1cccc(c1)Cl)O)NC(C)(C)C
InChI: InChI=1S/C13H20ClNO/c1-9(15-13(2,3)4)12(16)10-6-5-7-11(14)8-10/h5-9,12,15-16H,1-4H3
Instrument: TripleTOF 5600 SCIEX
Instrument type: LC-ESI-QTOF
Ms type: MS2
Ion mode: POSITIVE
Collision energy: 60
Fragmentation mode: CID
Ionization: ESI
Column name: Zorbax Eclipse Plus C18 2.1 mm x 150 mm, 3.5 um, Agilent
Retention time: 6.626 min
Precursor m/z: 242.1306
Precursor type: [M+H]+
m/z	relative intensity
42.0427	11
56.0532	16
57.0753	61
65.0436	19
89.0403	63
90.0488	10
91.0559	71
115.0553	999
115.0891	12
116.0628	641
117.0572	94
118.0655	69
125.0152	59
132.0806	59
133.0889	24
138.0097	31
149.0154	22
151.0305	11
152.0252	36
153.0345	31
