Mass spectrum: Citalopram; LC-ESI-QTOF; MS2; 60 V
Name: Citalopram
Class: Pharmaceutical
Formula: C20H21FN2O
Exact mass: 324.1638
SMILES: CN(C)CCCC1(OCc2cc(ccc12)C#N)c3ccc(F)cc3
InChI: InChI=1S/C20H21FN2O/c1-23(2)11-3-10-20(17-5-7-18(21)8-6-17)19-9-4-15(13-22)12-16(19)14-24-20/h4-9,12H,3,10-11,14H2,1-2H3
Instrument: TripleTOF 5600 SCIEX
Instrument type: LC-ESI-QTOF
Ms type: MS2
Ion mode: POSITIVE
Collision energy: 60
Fragmentation mode: CID
Ionization: ESI
Column name: Zorbax Eclipse Plus C18 2.1 mm x 150 mm, 3.5 um, Agilent
Retention time: 7.757 min
Precursor m/z: 325.1711
Precursor type: [M+H]+
m/z	relative intensity
58.0708	39
83.0323	138
89.0406	67
101.0397	12
103.0545	13
109.046	999
115.0543	19
116.05	159
121.0449	10
123.0233	10
127.0547	25
128.061	19
129.0699	19
133.0451	19
139.0544	34
140.0498	119
146.0533	11
154.0649	10
166.0652	71
183.0604	23
189.0697	11
190.0653	58
194.0521	12
195.0589	25
200.0528	22
201.0631	11
202.0733	27
203.0728	12
207.0603	74
208.0565	121
209.068	11
213.0695	15
214.0659	62
215.0851	55
218.0587	24
219.0598	51
220.0666	136
221.0639	199
222.0707	32
226.0656	48
227.073	219
228.0792	13
232.0564	30
233.0741	85
234.072	183
235.0797	39
237.0586	13
240.0804	102
241.0885	34
244.0685	23
245.0633	102
246.0719	370
247.0783	145
258.071	12
259.0791	19
260.0879	35
261.0943	24
