Mass spectrum: 2-Hydroxyibuprofen; LC-ESI-QTOF; MS2; 40 V
Name: 2-Hydroxyibuprofen
Class: Metabolite; Pharmaceutical
Formula: C13H18O3
Exact mass: 222.1256
SMILES: CC(C1=CC=C(C=C1)CC(C)(C)O)C(=O)O
InChI: InChI=1S/C13H18O3/c1-9(12(14)15)11-6-4-10(5-7-11)8-13(2,3)16/h4-7,9,16H,8H2,1-3H3,(H,14,15)
Instrument: TripleTOF 5600 SCIEX
Instrument type: LC-ESI-QTOF
Ms type: MS2
Ion mode: POSITIVE
Collision energy: 40
Fragmentation mode: CID
Ionization: ESI
Column name: Zorbax Eclipse Plus C18 2.1 mm x 150 mm, 3.5 um, Agilent
Retention time: 8.21 min
Precursor m/z: 240.1591
Precursor type: [M+NH4]+
m/z	relative intensity
77.0422	93
91.0552	463
107.0498	999
115.0547	209
117.071	908
119.086	232
129.0718	112
131.0837	187
159.1163	560
163.0723	722
205.1207	155
