Mass spectrum: Flubendazole; LC-ESI-QTOF; MS2; 70 V
Name: Flubendazole
Class: Pharmaceutical
Formula: C16H12FN3O3
Exact mass: 313.0863
SMILES: COC(=O)Nc1[nH]c2cc(ccc2n1)C(=O)c3ccc(F)cc3
InChI: InChI=1S/C16H12FN3O3/c1-23-16(22)20-15-18-12-7-4-10(8-13(12)19-15)14(21)9-2-5-11(17)6-3-9/h2-8H,1H3,(H2,18,19,20,22)
Instrument: TripleTOF 5600 SCIEX
Instrument type: LC-ESI-QTOF
Ms type: MS2
Ion mode: POSITIVE
Collision energy: 70
Fragmentation mode: CID
Ionization: ESI
Column name: Zorbax Eclipse Plus C18 2.1 mm x 150 mm, 3.5 um, Agilent
Retention time: 9.113 min
Precursor m/z: 314.0935
Precursor type: [M+H]+
m/z	relative intensity
73.0102	10
74.0182	81
75.0265	224
77.029	24
95.0311	999
103.0308	19
104.0377	72
105.0446	46
123.026	399
130.04	54
131.0478	74
132.0554	34
157.046	13
158.0384	30
159.0428	106
160.0496	10
184.0554	44
199.0665	14
