Mass spectrum: Tenamfetamine; LC-ESI-QTOF; MS2; 100 V
Name: Tenamfetamine
Class: Pharmaceutical
Formula: C10H13NO2
Exact mass: 179.0946
SMILES: CC(CC1=CC2=C(C=C1)OCO2)N
InChI: InChI=1S/C10H13NO2/c1-7(11)4-8-2-3-9-10(5-8)13-6-12-9/h2-3,5,7H,4,6,11H2,1H3
Instrument: TripleTOF 6600 SCIEX
Instrument type: LC-ESI-QTOF
Ms type: MS2
Ion mode: POSITIVE
Collision energy: 100
Fragmentation mode: CID
Ionization: ESI
Column name: Zorbax Eclipse Plus C18 2.1 mm x 150 mm, 3.5 um, Agilent
Retention time: 5.295 min
Precursor m/z: 180.1019
Precursor type: [M+H]+
m/z	relative intensity
35.9992	24
37.0072	141
38.0027	17
38.0145	93
39.0227	272
49.0069	151
50.0146	861
51.0225	999
52.0255	37
59.9991	24
60.9856	20
61.0068	110
62.0144	120
63.0223	210
65.0375	31
73.0072	20
74.0148	82
75.023	37
77.0381	196
89.0386	65
