Mass spectrum: 3,7-Dimethylxanthine; LC-ESI-QTOF; MS2; 30 V
Name: 3,7-Dimethylxanthine
Class: Pharmaceutical; Natural_product
Formula: C7H8N4O2
Exact mass: 180.0647
SMILES: Cn1cnc2N(C)C(=O)NC(=O)c12
InChI: InChI=1S/C7H8N4O2/c1-10-3-8-5-4(10)6(12)9-7(13)11(5)2/h3H,1-2H3,(H,9,12,13)
Instrument: TripleTOF 5600 SCIEX
Instrument type: LC-ESI-QTOF
Ms type: MS2
Ion mode: POSITIVE
Collision energy: 30
Fragmentation mode: CID
Ionization: ESI
Column name: Zorbax Eclipse Plus C18 2.1 mm x 150 mm, 3.5 um, Agilent
Retention time: 5.242 min
Precursor m/z: 181.072
Precursor type: [M+H]+
m/z	relative intensity
67.0323	243
69.0472	170
83.063	158
108.0553	341
109.0395	48
110.0705	523
113.0341	85
122.0592	134
123.0433	97
135.0668	231
137.0819	219
138.0648	999
163.0621	280
181.0721	755
