Mass spectrum: Nifedipine; LC-ESI-QTOF; MS2; 40 V
Name: Nifedipine
Class: Pharmaceutical
Formula: C17H18N2O6
Exact mass: 346.1165
SMILES: CC1=C(C(C(=C(N1)C)C(=O)OC)C2=CC=CC=C2[N+](=O)[O-])C(=O)OC
InChI: InChI=1S/C17H18N2O6/c1-9-13(16(20)24-3)15(14(10(2)18-9)17(21)25-4)11-7-5-6-8-12(11)19(22)23/h5-8,15,18H,1-4H3
Instrument: TripleTOF 5600 SCIEX
Instrument type: LC-ESI-QTOF
Ms type: MS2
Ion mode: POSITIVE
Collision energy: 40
Fragmentation mode: CID
Ionization: ESI
Column name: Zorbax Eclipse Plus C18 2.1 mm x 150 mm, 3.5 um, Agilent
Retention time: 10.896 min
Precursor m/z: 347.1238
Precursor type: [M+H]+
m/z	relative intensity
115.0565	65
122.0259	75
127.0561	45
128.0537	29
129.0704	21
130.0662	18
132.0455	12
140.0513	30
141.0717	37
142.0667	78
143.0726	15
144.0462	24
151.0545	29
152.0502	25
153.0587	29
154.066	105
155.068	23
156.0819	39
166.0655	79
167.0723	136
168.0795	157
169.0766	60
170.0608	155
178.0654	33
179.0611	73
180.0684	113
181.0761	154
182.0842	153
183.0913	196
184.0522	10
184.075	31
185.0711	13
186.0555	19
192.068	31
193.0765	245
194.0834	829
195.0912	783
196.0991	296
197.0741	34
197.1053	17
198.0922	13
208.0741	29
209.0706	128
210.0893	79
211.0857	341
212.0942	65
213.0667	43
214.049	97
218.0808	15
221.0703	126
222.078	169
223.0862	634
224.0868	36
226.0853	262
227.0826	17
228.0887	44
236.07	26
238.0703	23
239.0813	499
240.0979	19
241.0966	36
252.0638	21
253.0971	716
254.1039	999
256.0857	17
268.0963	53
270.0757	155
284.0914	87
