Mass spectrum: Ibuprofen carboxy acid; LC-ESI-QTOF; MS2; 100 V
Name: Ibuprofen carboxy acid
Class: Pharmaceutical; Transformation_product
Formula: C13H16O4
Exact mass: 236.1049
SMILES: O=C(O)C(c1ccc(cc1)CC(C(=O)O)C)C
InChI: InChI=1S/C13H16O4/c1-8(12(14)15)7-10-3-5-11(6-4-10)9(2)13(16)17/h3-6,8-9H,7H2,1-2H3,(H,14,15)(H,16,17)
Instrument: TripleTOF 5600 SCIEX
Instrument type: LC-ESI-QTOF
Ms type: MS2
Ion mode: NEGATIVE
Collision energy: 100
Fragmentation mode: CID
Ionization: ESI
Column name: Zorbax Eclipse Plus C18 2.1 mm x 150 mm, 3.5 um, Agilent
Retention time: 8.483 min
Precursor m/z: 235.0976
Precursor type: [M-H]-
m/z	relative intensity
55.0215	999
73.0298	235
