Mass spectrum: 11alpha-Hydroxyprogesterone; LC-ESI-QTOF; MS2; 100 V
Name: 11alpha-Hydroxyprogesterone
Class: Pharmaceutical; Metabolite
Formula: C21H30O3
Exact mass: 330.2195
SMILES: CC(=O)C1CC[C@H]2[C@@H]3CCC4=CC(=O)CC[C@]4(C)[C@H]3[C@H](O)C[C@]12C
InChI: InChI=1S/C21H30O3/c1-12(22)16-6-7-17-15-5-4-13-10-14(23)8-9-20(13,2)19(15)18(24)11-21(16,17)3/h10,15-19,24H,4-9,11H2,1-3H3/t15-,16?,17-,18+,19+,20-,21+/m0/s1
Instrument: TripleTOF 5600 SCIEX
Instrument type: LC-ESI-QTOF
Ms type: MS2
Ion mode: POSITIVE
Collision energy: 100
Fragmentation mode: CID
Ionization: ESI
Column name: Zorbax Eclipse Plus C18 2.1 mm x 150 mm, 3.5 um, Agilent
Retention time: 10.293 min
Precursor m/z: 331.2268
Precursor type: [M+H]+
m/z	relative intensity
43.027	435
43.053	31
53.0428	15
55.0238	47
55.0592	95
65.042	227
66.0524	23
67.057	119
69.0359	19
71.0511	27
77.0416	999
78.0499	39
79.0566	375
81.0733	59
83.0514	67
89.0401	23
91.0557	795
91.0957	15
93.0713	67
94.0419	43
95.0501	15
95.0883	31
97.0653	79
102.047	35
103.0536	139
104.0617	23
105.0691	247
107.0494	47
109.0661	27
115.0541	499
116.0634	59
117.0687	83
119.0844	51
121.0641	79
123.0777	31
127.0542	159
128.0617	447
129.0699	151
131.0462	43
131.0874	23
141.0686	235
142.0787	35
142.0917	19
143.0831	15
147.0796	35
151.0533	23
152.062	115
153.0696	99
154.077	31
155.0842	35
164.061	15
165.069	119
166.0799	23
167.0847	19
178.0796	67
179.0871	23
189.0691	27
191.0823	19
