Mass spectrum: Disperse orange 3; LC-ESI-QTOF; MS2; 80 V
Name: Disperse orange 3
Formula: C12H10N4O2
Exact mass: 242.0804
SMILES: C1=CC(=CC=C1N)N=NC2=CC=C(C=C2)[N+](=O)[O-]
InChI: InChI=1S/C12H10N4O2/c13-9-1-3-10(4-2-9)14-15-11-5-7-12(8-6-11)16(17)18/h1-8H,13H2
Instrument: TripleTOF 6600 SCIEX
Instrument type: LC-ESI-QTOF
Ms type: MS2
Ion mode: POSITIVE
Collision energy: 80
Fragmentation mode: CID
Ionization: ESI
Column name: Zorbax Eclipse Plus C18 2.1 mm x 150 mm, 3.5 um, Agilent
Retention time: 12.729 min
Precursor m/z: 243.0877
Precursor type: [M+H]+
m/z	relative intensity
37.0067	20
38.0141	22
39.0219	62
49.0063	56
50.0143	996
51.0211	49
52.0296	69
61.006	15
62.0131	48
63.0216	260
64.0291	16
65.0369	177
66.045	156
73.0058	56
74.0134	691
75.0214	999
76.0293	587
77.0375	19
78.0323	96
79.0399	79
80.048	56
92.048	87
93.0555	144
105.0424	176
107.0598	11
115.0535	19
139.0521	17
