Mass spectrum: Acebutolol; LC-ESI-QTOF; MS2; 140 V
Name: Acebutolol
Class: Pharmaceutical
Formula: C18H28N2O4
Exact mass: 336.2049
SMILES: CCCC(=O)Nc1ccc(OCC(O)CNC(C)C)c(c1)C(C)=O
InChI: InChI=1S/C18H28N2O4/c1-5-6-18(23)20-14-7-8-17(16(9-14)13(4)21)24-11-15(22)10-19-12(2)3/h7-9,12,15,19,22H,5-6,10-11H2,1-4H3,(H,20,23)
Instrument: TripleTOF 5600 SCIEX
Instrument type: LC-ESI-QTOF
Ms type: MS2
Ion mode: POSITIVE
Collision energy: 140
Fragmentation mode: CID
Ionization: ESI
Column name: Zorbax Eclipse Plus C18 2.1 mm x 150 mm, 3.5 um, Agilent
Retention time: 5.965 min
Precursor m/z: 337.2122
Precursor type: [M+H]+
m/z	relative intensity
42.0434	94
43.0243	115
43.0492	42
44.0585	94
51.0289	283
56.0552	999
58.0705	273
65.0432	525
66.05	63
67.0475	52
72.0848	199
74.064	73
77.0418	736
79.0568	63
80.052	325
80.0687	52
89.0396	84
89.0452	84
91.0576	105
92.0496	52
93.0588	168
103.054	52
104.0503	94
115.0553	105
