Mass spectrum: Isorhamnetin; LC-ESI-QTOF; MS2; 50 V
Name: Isorhamnetin
Class: Pharmaceutical; Metabolite
Formula: C16H12O7
Exact mass: 316.0583
SMILES: COc1cc(ccc1O)C2=C(O)C(=O)c3c(O)cc(O)cc3O2
InChI: InChI=1S/C16H12O7/c1-22-11-4-7(2-3-9(11)18)16-15(21)14(20)13-10(19)5-8(17)6-12(13)23-16/h2-6,17-19,21H,1H3
Instrument: TripleTOF 5600 SCIEX
Instrument type: LC-ESI-QTOF
Ms type: MS2
Ion mode: NEGATIVE
Collision energy: 50
Fragmentation mode: CID
Ionization: ESI
Column name: Zorbax Eclipse Plus C18 2.1 mm x 150 mm, 3.5 um, Agilent
Retention time: 9.418 min
Precursor m/z: 315.051
Precursor type: [M-H]-
m/z	relative intensity
65.0029	306
83.0135	453
94.0057	73
95.0132	55
107.0144	723
108.0221	674
120.0224	208
135.0099	159
136.0179	288
148.0182	698
151.0055	999
152.0132	98
155.0509	55
159.0451	49
163.0058	563
164.0129	539
171.0468	110
174.0344	91
175.0442	61
183.0467	214
187.0417	110
189.0209	116
198.0322	67
199.0413	251
201.0205	91
211.0444	140
215.0369	263
226.0302	67
227.0369	533
229.0164	55
243.0307	471
255.0314	741
271.027	992
283.0278	435
299.0228	140
300.0281	576
