Mass spectrum: Disperse brown 1; LC-ESI-QTOF; MS2; 150 V
Name: Disperse brown 1
Formula: C16H15Cl3N4O4
Exact mass: 432.0159
SMILES: C1=CC(=C(C=C1N(CCO)CCO)Cl)N=NC2=C(C=C(C=C2Cl)[N+](=O)[O-])Cl
InChI: InChI=1S/C16H15Cl3N4O4/c17-12-7-10(22(3-5-24)4-6-25)1-2-15(12)20-21-16-13(18)8-11(23(26)27)9-14(16)19/h1-2,7-9,24-25H,3-6H2
Instrument: TripleTOF 6600 SCIEX
Instrument type: LC-ESI-QTOF
Ms type: MS2
Ion mode: POSITIVE
Collision energy: 150
Fragmentation mode: CID
Ionization: ESI
Column name: Zorbax Eclipse Plus C18 2.1 mm x 150 mm, 3.5 um, Agilent
Retention time: 12.39 min
Precursor m/z: 433.0232
Precursor type: [M+H]+
m/z	relative intensity
48.9866	70
51.0233	87
62.0147	70
63.022	315
65.0384	87
72.9846	227
73.0066	87
74.0153	999
75.023	368
76.0181	490
77.0385	175
78.0343	157
83.9762	175
89.0384	87
90.0337	70
96.9834	70
104.0508	87
107.9769	490
108.9831	297
123.0238	87
150.0466	87
164.049	87
