Mass spectrum: Bezafibrate; LC-ESI-QTOF; MS2; 110 V
Name: Bezafibrate
Class: Pharmaceutical
Formula: C19H20ClNO4
Exact mass: 361.1081
SMILES: CC(C)(Oc1ccc(CCNC(=O)c2ccc(Cl)cc2)cc1)C(O)=O
InChI: InChI=1S/C19H20ClNO4/c1-19(2,18(23)24)25-16-9-3-13(4-10-16)11-12-21-17(22)14-5-7-15(20)8-6-14/h3-10H,11-12H2,1-2H3,(H,21,22)(H,23,24)
Instrument: TripleTOF 5600 SCIEX
Instrument type: LC-ESI-QTOF
Ms type: MS2
Ion mode: POSITIVE
Collision energy: 110
Fragmentation mode: CID
Ionization: ESI
Column name: Zorbax Eclipse Plus C18 2.1 mm x 150 mm, 3.5 um, Agilent
Retention time: 11.033 min
Precursor m/z: 362.1154
Precursor type: [M+H]+
m/z	relative intensity
59.0551	15
65.042	66
73.0092	16
74.0184	223
75.0267	710
76.032	11
77.0421	999
77.0743	17
78.0494	20
84.9853	78
91.056	310
93.0717	33
94.0414	23
102.0468	32
103.0549	161
110.9999	722
119.0489	20
120.0566	13
121.0651	30
138.9999	83
