Mass spectrum: Epirubicin; LC-ESI-QTOF; MS2; 50 V
Name: Epirubicin
Class: Pharmaceutical
Formula: C27H29NO11
Exact mass: 543.1741
SMILES: CC1C(C(CC(O1)OC2CC(CC3=C(C4=C(C(=C23)O)C(=O)C5=C(C4=O)C=CC=C5OC)O)(C(=O)CO)O)N)O
InChI: InChI=1S/C27H29NO11/c1-10-22(31)13(28)6-17(38-10)39-15-8-27(36,16(30)9-29)7-12-19(15)26(35)21-20(24(12)33)23(32)11-4-3-5-14(37-2)18(11)25(21)34/h3-5,10,13,15,17,22,29,31,33,35-36H,6-9,28H2,1-2H3
Instrument: TripleTOF 5600 SCIEX
Instrument type: LC-ESI-QTOF
Ms type: MS2
Ion mode: POSITIVE
Collision energy: 50
Fragmentation mode: CID
Ionization: ESI
Column name: Zorbax Eclipse Plus C18 2.1 mm x 150 mm, 3.5 um, Agilent
Retention time: 7.492 min
Precursor m/z: 544.1813
Precursor type: [M+H]+
m/z	relative intensity
44.0573	10
60.0475	15
68.0554	13
69.0358	28
71.0513	13
72.0467	75
86.0613	245
95.0494	26
112.0749	70
113.0585	99
121.0629	13
130.0854	88
135.0413	28
145.0263	10
148.0949	18
217.0572	20
234.0695	15
247.0711	13
259.079	13
275.0693	13
277.0879	15
287.0713	33
290.0544	15
293.082	36
302.0496	10
303.0667	31
305.085	41
306.0525	234
307.0581	15
308.073	13
309.0743	23
315.0656	65
318.0549	20
320.0658	20
321.0758	999
323.0943	20
332.0731	23
333.0757	213
336.064	10
337.0736	18
343.0683	20
346.0495	832
351.0864	15
361.0705	834
364.0562	15
379.0798	75
