Mass spectrum: Dextrorphan; LC-ESI-QTOF; MS2; 70 V
Name: Dextrorphan
Class: Pharmaceutical; Metabolite
Formula: C17H23NO
Exact mass: 257.178
SMILES: CN1CC[C@@]23CCCC[C@@H]2[C@@H]1CC4=C3C=C(C=C4)O
InChI: InChI=1S/C17H23NO/c1-18-9-8-17-7-3-2-4-14(17)16(18)10-12-5-6-13(19)11-15(12)17/h5-6,11,14,16,19H,2-4,7-10H2,1H3/t14-,16+,17+/m1/s1
Instrument: TripleTOF 5600 SCIEX
Instrument type: LC-ESI-QTOF
Ms type: MS2
Ion mode: POSITIVE
Collision energy: 70
Fragmentation mode: CID
Ionization: ESI
Column name: Zorbax Eclipse Plus C18 2.1 mm x 150 mm, 3.5 um, Agilent
Retention time: 5.969 min
Precursor m/z: 258.1852
Precursor type: [M+H]+
m/z	relative intensity
44.0578	28
65.0428	10
77.0424	169
79.0575	71
89.0402	12
91.0563	82
102.047	18
103.0556	103
105.0713	153
107.0505	78
115.0551	213
116.0626	44
117.0708	33
121.0659	13
126.0471	20
127.0556	468
128.0636	931
129.0712	286
131.0502	178
133.0652	81
139.0548	27
141.0706	60
144.0575	84
145.0658	42
151.0549	9
152.0625	60
153.0705	28
155.0611	21
157.0663	999
158.0731	13
159.0817	18
165.0707	65
166.0786	16
169.0675	19
170.0729	11
