Mass spectrum: Desmethylranitidine; LC-ESI-QTOF; MS2; 100 V
Name: Desmethylranitidine
Class: Pharmaceutical; Transformation_product
Formula: C12H20N4O3S
Exact mass: 300.1256
SMILES: CNCC1=CC=C(O1)CSCCNC(=C[N+](=O)[O-])NC
InChI: InChI=1S/C12H20N4O3S/c1-13-7-10-3-4-11(19-10)9-20-6-5-15-12(14-2)8-16(17)18/h3-4,8,13-15H,5-7,9H2,1-2H3
Instrument: TripleTOF 5600 SCIEX
Instrument type: LC-ESI-QTOF
Ms type: MS2
Ion mode: POSITIVE
Collision energy: 100
Fragmentation mode: CID
Ionization: ESI
Column name: Zorbax Eclipse Plus C18 2.1 mm x 150 mm, 3.5 um, Agilent
Retention time: 4.769 min
Precursor m/z: 301.1329
Precursor type: [M+H]+
m/z	relative intensity
42.0461	148
44.0613	51
51.029	155
52.0325	29
53.0442	384
54.0422	51
55.0238	37
55.0476	96
56.0537	229
57.0493	59
58.9996	66
60.0086	29
65.0424	133
66.0487	37
67.056	74
68.0525	155
68.9822	44
69.0468	51
70.069	37
73.0131	37
77.0425	680
78.0351	59
78.048	66
79.0584	96
80.0503	259
81.0365	999
82.0559	118
83.0606	44
85.0438	37
88.0219	51
89.0398	44
91.0555	125
92.0494	59
93.0572	103
94.0415	66
94.0661	81
96.069	103
97.0114	96
97.0216	37
97.0759	444
102.0372	495
104.0495	162
105.0386	81
105.0679	37
106.0641	29
107.0487	118
117.0572	66
118.0646	74
119.0593	88
120.0698	29
123.026	37
125.0068	59
129.0467	66
132.0434	170
133.0506	51
147.0515	29
