Mass spectrum: Clenbuterol; LC-ESI-QTOF; MS2; 70 V
Name: Clenbuterol
Class: Pharmaceutical
Formula: C12H18Cl2N2O
Exact mass: 276.0796
SMILES: CC(C)(C)NCC(c1cc(c(c(c1)Cl)N)Cl)O
InChI: InChI=1S/C12H18Cl2N2O/c1-12(2,3)16-6-10(17)7-4-8(13)11(15)9(14)5-7/h4-5,10,16-17H,6,15H2,1-3H3
Instrument: TripleTOF 5600 SCIEX
Instrument type: LC-ESI-QTOF
Ms type: MS2
Ion mode: POSITIVE
Collision energy: 70
Fragmentation mode: CID
Ionization: ESI
Column name: Zorbax Eclipse Plus C18 2.1 mm x 150 mm, 3.5 um, Agilent
Retention time: 6.115 min
Precursor m/z: 277.0869
Precursor type: [M+H]+
m/z	relative intensity
57.0749	67
77.0414	145
78.036	20
78.0488	33
79.0436	20
79.0564	15
80.0518	36
89.0406	49
90.0351	24
92.0512	15
93.0583	10
102.0345	10
104.05	444
105.0575	208
106.0655	200
111	16
113.0156	36
115.042	24
116.0495	111
117.0574	75
122.9993	16
124.0067	14
126.0095	14
127.0181	33
131.0606	420
132.0686	954
133.0766	177
138.0109	16
139.0185	12
140.0268	999
141.0343	45
151.0184	161
152.0259	33
153.0214	61
160.98	40
167.0378	201
168.0446	165
173.987	51
