Mass spectrum: 5-Aminofluorescein; LC-ESI-QTOF; MS2; 90 V
Name: 5-Aminofluorescein
Class: Pharmaceutical
Formula: C20H13NO5
Exact mass: 347.0794
SMILES: Nc1ccc2c(c1)C(=O)OC23c4ccc(O)cc4Oc5cc(O)ccc35
InChI: InChI=1S/C20H13NO5/c21-10-1-4-14-13(7-10)19(24)26-20(14)15-5-2-11(22)8-17(15)25-18-9-12(23)3-6-16(18)20/h1-9,22-23H,21H2
Instrument: TripleTOF 5600 SCIEX
Instrument type: LC-ESI-QTOF
Ms type: MS2
Ion mode: POSITIVE
Collision energy: 90
Fragmentation mode: CID
Ionization: ESI
Column name: Zorbax Eclipse Plus C18 2.1 mm x 150 mm, 3.5 um, Agilent
Retention time: 8.159 min
Precursor m/z: 348.0866
Precursor type: [M+H]+
m/z	relative intensity
65.042	99
69.0029	27
77.0422	55
91.0556	35
92.0523	15
101.0382	19
102.0454	23
103.0568	23
113.0374	23
115.0533	99
116.0607	31
126.046	43
127.0549	175
128.0634	63
131.0502	19
137.0212	15
139.0537	67
149.0405	31
150.046	39
151.0544	135
151.0869	15
152.0616	187
153.0702	19
154.0644	59
155.0498	83
163.0543	87
164.0601	75
165.0712	211
166.0698	31
174.0457	39
175.0537	87
176.062	295
177.0688	119
178.0762	103
178.096	27
180.0799	43
181.0636	39
187.0543	131
188.0617	119
189.0701	855
190.0697	203
191.0748	143
198.0438	19
199.0522	43
200.0622	715
201.0688	383
201.1051	19
202.0775	999
203.074	163
204.0575	15
204.0794	163
205.065	115
211.055	71
212.0606	27
213.0695	243
214.0655	111
215.0757	107
216.0815	167
217.0645	51
217.0897	247
218.0742	103
218.0951	31
219.0783	27
220.0509	19
220.076	19
221.0587	59
225.0603	23
226.0665	51
227.0725	123
228.0833	215
229.0655	287
230.0677	91
230.1006	23
231.08	39
232.072	23
233.0887	31
235.0821	15
237.0525	19
238.0653	19
241.0615	23
242.0714	47
243.0661	19
244.0764	147
245.062	111
245.0871	19
246.0908	75
247.074	23
255.0667	19
256.0742	55
257.0557	31
257.0838	59
258.0673	211
259.0744	39
260.0676	27
269.0575	31
272.0729	79
273.0778	127
274.0689	63
274.0928	15
275.0688	15
283.0635	27
285.0524	43
287.0671	35
300.0623	27
302.0806	23
