Mass spectrum: 3,3-Diphenylacrylonitrile; LC-ESI-QTOF; MS2; 150 V
Name: 3,3-Diphenylacrylonitrile
Formula: C15H11N
Exact mass: 205.0891
SMILES: C1=CC=C(C=C1)C(=CC#N)C2=CC=CC=C2
InChI: InChI=1S/C15H11N/c16-12-11-15(13-7-3-1-4-8-13)14-9-5-2-6-10-14/h1-11H
Instrument: TripleTOF 6600 SCIEX
Instrument type: LC-ESI-QTOF
Ms type: MS2
Ion mode: POSITIVE
Collision energy: 150
Fragmentation mode: CID
Ionization: ESI
Column name: Zorbax Eclipse Plus C18 2.1 mm x 150 mm, 3.5 um, Agilent
Retention time: 13.746 min
Precursor m/z: 206.0964
Precursor type: [M+H]+
m/z	relative intensity
37.0059	97
39.0217	35
49.006	300
50.0143	999
51.0215	265
61.0064	203
62.0139	97
73.0059	300
74.0137	556
75.0223	44
85.0053	167
86.0132	88
97.0067	53
98.0138	106
109.0066	79
122.012	44
