Mass spectrum: 3-(Diethylcarbamoyl)benzoic acid; LC-ESI-QTOF; MS2; 140 V
Name: 3-(Diethylcarbamoyl)benzoic acid
Formula: C12H15NO3
Exact mass: 221.1052
SMILES: CCN(CC)C(=O)C1=CC(=CC=C1)C(=O)O
InChI: InChI=1S/C12H15NO3/c1-3-13(4-2)11(14)9-6-5-7-10(8-9)12(15)16/h5-8H,3-4H2,1-2H3,(H,15,16)
Instrument: TripleTOF 5600 SCIEX
Instrument type: LC-ESI-QTOF
Ms type: MS2
Ion mode: POSITIVE
Collision energy: 140
Fragmentation mode: CID
Ionization: ESI
Column name: Zorbax Eclipse Plus C18 2.1 mm x 150 mm, 3.5 um, Agilent
Retention time: 7.356 min
Precursor m/z: 222.1125
Precursor type: [M+H]+
m/z	relative intensity
37.0074	193
38.0148	193
39.0222	322
44.0125	225
49.0067	161
50.0149	676
51.0225	354
73.0069	225
74.0151	999
75.0227	225
