Mass spectrum: Oxfendazole; LC-ESI-QTOF; MS2; 100 V
Name: Oxfendazole
Class: Pharmaceutical
Formula: C15H13N3O3S
Exact mass: 315.0678
SMILES: COC(=O)Nc1[nH]c2cc(ccc2n1)[S](=O)c3ccccc3
InChI: InChI=1S/C15H13N3O3S/c1-21-15(19)18-14-16-12-8-7-11(9-13(12)17-14)22(20)10-5-3-2-4-6-10/h2-9H,1H3,(H2,16,17,18,19)
Instrument: TripleTOF 5600 SCIEX
Instrument type: LC-ESI-QTOF
Ms type: MS2
Ion mode: POSITIVE
Collision energy: 100
Fragmentation mode: CID
Ionization: ESI
Column name: Zorbax Eclipse Plus C18 2.1 mm x 150 mm, 3.5 um, Agilent
Retention time: 6.579 min
Precursor m/z: 316.075
Precursor type: [M+H]+
m/z	relative intensity
51.0286	44
52.0357	29
53.0341	19
63.0386	9
65.0409	17
68.9825	14
69.0121	32
75.012	22
76.0202	257
77.0287	999
77.0598	29
77.0791	12
78.0349	109
89.0271	19
90.0336	24
91.0422	27
92.0372	27
94.9977	14
102.0374	12
103.029	42
103.0406	17
104.0371	826
105.0449	124
113.0371	12
115.0519	9
116.0362	34
118.0497	12
119.06	19
119.076	12
122.0043	14
127.0539	37
130.0394	67
131.0469	284
139.0528	24
140.0495	42
146.036	12
152.0506	19
153.0541	17
159.0422	152
169.0097	12
170.0158	19
171.0248	52
183.0151	17
196.0204	67
210.0291	17
