Mass spectrum: Picolinafen; LC-ESI-QTOF; MS2; 70 V
Name: Picolinafen
Class: Herbicide
Formula: C19H12F4N2O2
Exact mass: 376.0835
SMILES: C1=CC(=CC(=C1)OC2=CC=CC(=N2)C(=O)NC3=CC=C(C=C3)F)C(F)(F)F
InChI: InChI=1S/C19H12F4N2O2/c20-13-7-9-14(10-8-13)24-18(26)16-5-2-6-17(25-16)27-15-4-1-3-12(11-15)19(21,22)23/h1-11H,(H,24,26)
Instrument: TripleTOF 6600 SCIEX
Instrument type: LC-ESI-QTOF
Ms type: MS2
Ion mode: POSITIVE
Collision energy: 70
Fragmentation mode: CID
Ionization: ESI
Column name: Zorbax Eclipse Plus C18 2.1 mm x 150 mm, 3.5 um, Agilent
Retention time: 15.501 min
Precursor m/z: 377.0908
Precursor type: [M+H]+
m/z	relative intensity
37.0067	17
38.014	14
39.0219	151
74.0136	15
75.0212	43
95.0273	112
123.0318	29
125.0168	46
133.0421	20
140.0457	11
141.054	19
145.0243	999
163.0327	25
170.037	25
173.0307	33
182.032	16
183.0384	47
190.0447	96
210.0501	47
218.0389	11
238.045	109
