Mass spectrum: Methyltriphenylphosphonium; LC-ESI-QTOF; MS2; 90 V
Name: Methyltriphenylphosphonium
Class: Pharmaceutical; Industrial_process
Formula: [C19H18P]+
Exact mass: 277.1141
SMILES: C[P+](c1ccccc1)(c2ccccc2)c3ccccc3
InChI: InChI=1S/C19H18P/c1-20(17-11-5-2-6-12-17,18-13-7-3-8-14-18)19-15-9-4-10-16-19/h2-16H,1H3/q+1
Instrument: TripleTOF 5600 SCIEX
Instrument type: LC-ESI-QTOF
Ms type: MS2
Ion mode: POSITIVE
Collision energy: 90
Fragmentation mode: CID
Ionization: ESI
Column name: Zorbax Eclipse Plus C18 2.1 mm x 150 mm, 3.5 um, Agilent
Retention time: 7.192 min
Precursor m/z: 277.1141
Precursor type: [M]+
m/z	relative intensity
77.0404	50
107.0047	445
115.0543	252
133.0201	87
139.0542	204
151.0537	107
152.0622	956
157.0199	480
181.0205	144
183.0356	999
