Mass spectrum: Triphenyl phosphate; LC-ESI-QTOF; MS2; 40 V
Name: Triphenyl phosphate
Class: Industrial_process
Formula: C18H15O4P
Exact mass: 326.0708
SMILES: C1=CC=C(C=C1)OP(=O)(OC2=CC=CC=C2)OC3=CC=CC=C3
InChI: InChI=1S/C18H15O4P/c19-23(20-16-10-4-1-5-11-16,21-17-12-6-2-7-13-17)22-18-14-8-3-9-15-18/h1-15H
Instrument: TripleTOF 5600 SCIEX
Instrument type: LC-ESI-QTOF
Ms type: MS2
Ion mode: POSITIVE
Collision energy: 40
Fragmentation mode: CID
Ionization: ESI
Column name: Zorbax Eclipse Plus C18 2.1 mm x 150 mm, 3.5 um, Agilent
Retention time: 14.07 min
Precursor m/z: 327.0781
Precursor type: [M+H]+
m/z	relative intensity
51.0231	55
77.0387	637
93.0329	14
95.0488	38
98.9832	11
127.0548	27
138.9942	30
141.0674	18
150.0487	13
151.0542	181
152.062	999
153.0701	545
157.0044	22
168.0568	407
169.0654	23
170.0723	15
171.0793	55
175.0142	66
187.0302	66
202.0778	57
215.026	907
216.0357	11
226.0796	47
227.0862	63
228.0931	359
229.1014	110
233.0365	371
244.0853	21
251.0469	549
291.0581	44
309.0667	24
326.051	20
327.0777	957
