Mass spectrum: Hydrocodone; LC-ESI-QTOF; MS2; 130 V
Name: Hydrocodone
Class: Pharmaceutical
Formula: C18H21NO3
Exact mass: 299.1521
SMILES: CN1CCC23C4C1CC5=C2C(=C(C=C5)OC)OC3C(=O)CC4
InChI: InChI=1S/C18H21NO3/c1-19-8-7-18-11-4-5-13(20)17(18)22-16-14(21-2)6-3-10(15(16)18)9-12(11)19/h3,6,11-12,17H,4-5,7-9H2,1-2H3
Instrument: TripleTOF 6600 SCIEX
Instrument type: LC-ESI-QTOF
Ms type: MS2
Ion mode: POSITIVE
Collision energy: 130
Fragmentation mode: CID
Ionization: ESI
Column name: Zorbax Eclipse Plus C18 2.1 mm x 150 mm, 3.5 um, Agilent
Retention time: 5.331 min
Precursor m/z: 300.1594
Precursor type: [M+H]+
m/z	relative intensity
37.0063	19
38.0145	19
39.0224	102
42.0331	14
44.0485	24
49.0074	21
50.0144	175
51.022	358
52.0301	33
59.9985	35
61.0059	135
62.0141	276
63.0218	450
65.0372	160
73.0055	68
74.0136	487
75.0216	480
76.029	318
77.0376	842
78.0441	230
83.9972	14
85.0053	45
86.0137	170
87.0214	230
88.0293	277
89.0372	466
91.0536	79
98.0135	94
99.0211	59
100.0279	31
101.0379	165
102.045	524
103.052	10
105.042	10
109.0056	12
110.0131	10
111.0222	10
113.037	513
114.0447	181
115.0532	999
122.0121	10
125.0375	42
126.0452	634
127.0525	511
128.06	286
129.0421	40
137.0377	21
138.0428	17
139.0518	402
140.0542	14
141.0679	59
149.0403	19
150.0446	334
151.0524	444
152.0601	480
155.0578	65
162.0479	35
163.052	128
164.0593	33
165.0679	35
176.0641	12
179.0589	14
