Mass spectrum: 2,6-Dimethylpyridine; LC-ESI-QTOF; MS2; 20 V
Name: 2,6-Dimethylpyridine
Formula: C7H9N
Exact mass: 107.0735
SMILES: CC1=NC(=CC=C1)C
InChI: InChI=1S/C7H9N/c1-6-4-3-5-7(2)8-6/h3-5H,1-2H3
Instrument: TripleTOF 6600 SCIEX
Instrument type: LC-ESI-QTOF
Ms type: MS2
Ion mode: POSITIVE
Collision energy: 20
Fragmentation mode: CID
Ionization: ESI
Column name: Zorbax Eclipse Plus C18 2.1 mm x 150 mm, 3.5 um, Agilent
Retention time: 2.395 min
Precursor m/z: 108.0808
Precursor type: [M+H]+
m/z	relative intensity
67.0534	25
92.0484	26
108.0802	999
