Mass spectrum: Etoricoxib; LC-ESI-QTOF; MS2; 130 V
Name: Etoricoxib
Class: Pharmaceutical
Formula: C18H15ClN2O2S
Exact mass: 358.0543
SMILES: CC1=NC=C(C=C1)C2=NC=C(C=C2C3=CC=C(C=C3)S(=O)(=O)C)Cl
InChI: InChI=1S/C18H15ClN2O2S/c1-12-3-4-14(10-20-12)18-17(9-15(19)11-21-18)13-5-7-16(8-6-13)24(2,22)23/h3-11H,1-2H3
Instrument: TripleTOF 5600 SCIEX
Instrument type: LC-ESI-QTOF
Ms type: MS2
Ion mode: POSITIVE
Collision energy: 130
Fragmentation mode: CID
Ionization: ESI
Column name: Zorbax Eclipse Plus C18 2.1 mm x 150 mm, 3.5 um, Agilent
Retention time: 6.991 min
Precursor m/z: 359.0616
Precursor type: [M+H]+
m/z	relative intensity
73.0108	10
74.0203	48
75.0277	47
76.0353	31
77.0425	51
86.018	16
87.0249	31
89.0414	30
98.0176	72
99.0242	83
100.0175	12
100.0301	26
101.0413	22
102.0488	25
110.0168	17
111.0242	23
112.0268	10
113.0398	46
114.0372	16
115.0541	34
122.0162	44
123.0235	96
124.0187	23
124.0302	37
125.0391	75
126.0468	119
127.0428	43
128.0527	13
137.0392	56
138.045	52
139.0544	192
140.0502	141
141.0575	16
147.0198	23
148.0284	37
149.0394	296
150.0467	499
151.0508	267
152.0563	183
153.0583	52
161.0385	61
162.0466	92
163.0543	429
164.0504	236
165.0587	81
166.0651	147
167.0682	29
173.0381	98
174.0465	604
175.0498	589
176.0555	423
177.0565	207
178.0542	56
179.0635	17
185.0386	22
186.0455	66
187.0536	646
188.057	512
189.0676	458
190.0653	239
191.064	60
192.0672	48
193.0762	17
198.0467	30
199.0416	223
200.0505	278
201.0572	787
202.065	215
203.0648	78
204.0645	14
212.049	160
213.0213	24
213.0557	166
214.0653	999
215.0709	324
216.0767	204
217.0821	24
223.0335	14
224.0308	18
225.0586	47
226.0539	89
227.0624	155
228.0672	70
229.079	29
236.0278	23
238.047	13
239.0601	75
240.068	162
241.0751	265
242.0842	131
243.0879	12
250.0383	47
263.0352	23
275.0343	35
276.0456	40
