Mass spectrum: 4-Acetamidoantipyrine; LC-ESI-QTOF; MS2; 140 V
Name: 4-Acetamidoantipyrine
Class: Pharmaceutical; Metabolite; Transformation_product; Transformation_product-Metabolite
Formula: C13H15N3O2
Exact mass: 245.1164
SMILES: CN1N(C(=O)C(=C1C)NC(C)=O)c2ccccc2
InChI: InChI=1S/C13H15N3O2/c1-9-12(14-10(2)17)13(18)16(15(9)3)11-7-5-4-6-8-11/h4-8H,1-3H3,(H,14,17)
Instrument: TripleTOF 5600 SCIEX
Instrument type: LC-ESI-QTOF
Ms type: MS2
Ion mode: POSITIVE
Collision energy: 140
Fragmentation mode: CID
Ionization: ESI
Column name: Zorbax Eclipse Plus C18 2.1 mm x 150 mm, 3.5 um, Agilent
Retention time: 5.586 min
Precursor m/z: 246.1237
Precursor type: [M+H]+
m/z	relative intensity
41.0352	81
42.0424	454
43.0262	681
43.0513	90
53.0194	172
54.0411	54
56.0547	999
65.0429	63
74.0187	99
75.0263	90
77.0409	236
83.063	81
