Mass spectrum: 4-Aminoazobenzene; LC-ESI-QTOF; MS2; 60 V
Name: 4-Aminoazobenzene
Formula: C12H11N3
Exact mass: 197.0953
SMILES: C1=CC=C(C=C1)N=NC2=CC=C(C=C2)N
InChI: InChI=1S/C12H11N3/c13-10-6-8-12(9-7-10)15-14-11-4-2-1-3-5-11/h1-9H,13H2
Instrument: TripleTOF 6600 SCIEX
Instrument type: LC-ESI-QTOF
Ms type: MS2
Ion mode: POSITIVE
Collision energy: 60
Fragmentation mode: CID
Ionization: ESI
Column name: Zorbax Eclipse Plus C18 2.1 mm x 150 mm, 3.5 um, Agilent
Retention time: 12.247 min
Precursor m/z: 198.1026
Precursor type: [M+H]+
m/z	relative intensity
39.0226	23
49.0065	11
50.0152	284
51.0232	997
52.0306	35
65.0383	78
66.0459	137
74.0146	17
75.0218	14
76.0305	369
77.0385	999
78.0334	58
79.0413	65
80.0489	12
92.0484	58
93.0565	202
95.0485	59
105.0441	296
106.0524	14
152.0609	14
