Mass spectrum: Primidone; LC-ESI-QTOF; MS2; 50 V
Name: Primidone
Class: Pharmaceutical
Formula: C12H14N2O2
Exact mass: 218.1055
SMILES: CCC1(C(=O)NCNC1=O)c2ccccc2
InChI: InChI=1S/C12H14N2O2/c1-2-12(9-6-4-3-5-7-9)10(15)13-8-14-11(12)16/h3-7H,2,8H2,1H3,(H,13,15)(H,14,16)
Instrument: TripleTOF 5600 SCIEX
Instrument type: LC-ESI-QTOF
Ms type: MS2
Ion mode: POSITIVE
Collision energy: 50
Fragmentation mode: CID
Ionization: ESI
Column name: Zorbax Eclipse Plus C18 2.1 mm x 150 mm, 3.5 um, Agilent
Retention time: 6.353 min
Precursor m/z: 219.1128
Precursor type: [M+H]+
m/z	relative intensity
44.0204	11
65.0429	50
77.0418	15
79.0563	25
89.04	17
90.0523	11
91.056	999
104.0483	28
106.0646	54
115.0533	193
116.061	13
117.0691	133
119.0886	15
128.0487	19
128.0608	11
133.0514	50
134.0957	25
146.0603	21
