Mass spectrum: Metaflumizone; LC-ESI-QTOF; MS2; 120 V
Name: Metaflumizone
Class: Insecticide; Pharmaceutical
Formula: C24H16F6N4O2
Exact mass: 506.1177
SMILES: C1=CC(=CC(=C1)C(F)(F)F)C(=NNC(=O)NC2=CC=C(C=C2)OC(F)(F)F)CC3=CC=C(C=C3)C#N
InChI: InChI=1S/C24H16F6N4O2/c25-23(26,27)18-3-1-2-17(13-18)21(12-15-4-6-16(14-31)7-5-15)33-34-22(35)32-19-8-10-20(11-9-19)36-24(28,29)30/h1-11,13H,12H2,(H2,32,34,35)
Instrument: TripleTOF 6600 SCIEX
Instrument type: LC-ESI-QTOF
Ms type: MS2
Ion mode: POSITIVE
Collision energy: 120
Fragmentation mode: CID
Ionization: ESI
Column name: Zorbax Eclipse Plus C18 2.1 mm x 150 mm, 3.5 um, Agilent
Retention time: 15.496 min
Precursor m/z: 507.125
Precursor type: [M+H]+
m/z	relative intensity
39.0227	40
59.9994	11
61.0071	35
62.0148	66
63.0227	261
64.0182	31
65.0381	146
66.0339	11
66.0466	46
68.9941	63
74.0148	35
75.0226	128
77.0396	12
80.0494	83
81.0565	14
83.0297	24
87.022	12
88.018	18
88.0301	57
89.0386	999
90.0333	77
90.0459	27
92.0254	12
92.0494	50
93.0571	237
95.0286	77
98.0155	12
99.0224	22
108.0445	48
109.0465	24
113.0249	11
113.039	12
114.034	144
115.0411	109
116.0492	217
123.0226	11
123.0329	16
124.0175	29
125.0183	14
127.0391	18
129.0428	11
137.0378	9
139.0539	12
140.0487	40
142.0527	24
144.0241	12
145.0257	90
147.019	11
149.0378	24
150.0463	18
151.0358	59
153.0564	14
162.0458	20
163.054	181
164.052	111
165.0698	24
167.0278	33
168.0354	18
169.0443	14
172.0354	27
173.0386	53
174.0406	51
175.0532	42
176.032	9
176.0475	11
176.0623	53
177.056	37
181.0441	20
182.0512	20
183.0591	48
186.0309	11
187.0368	16
188.05	115
189.0571	133
190.065	993
191.0715	50
192.0362	57
192.0675	14
193.0446	103
194.0483	38
195.0477	14
198.0318	12
199.0413	96
200.0489	141
201.0561	79
202.0637	24
203.072	61
204.0571	14
207.0504	14
208.0558	46
211.0366	16
212.043	59
213.0465	25
214.0526	14
215.0594	55
216.069	87
217.0765	50
218.0408	44
218.0837	51
219.0476	163
220.0556	64
221.0619	31
222.0463	20
225.0492	18
226.0527	33
227.0611	24
228.0544	29
232.0536	40
233.0561	24
237.0364	20
238.0455	29
239.0548	137
240.0591	20
244.0413	9
245.0503	31
246.0587	59
247.0661	66
250.0462	29
252.0644	18
253.0585	22
258.0508	25
265.0567	25
267.0749	11
270.051	12
286.0732	18
