Mass spectrum: Ofloxacin; LC-ESI-QTOF; MS2; 70 V
Name: Ofloxacin
Class: Antimicrobial; Pharmaceutical
Formula: C18H20FN3O4
Exact mass: 361.1438
SMILES: CC1COC2=C3N1C=C(C(=O)C3=CC(=C2N4CCN(CC4)C)F)C(=O)O
InChI: InChI=1S/C18H20FN3O4/c1-10-9-26-17-14-11(16(23)12(18(24)25)8-22(10)14)7-13(19)15(17)21-5-3-20(2)4-6-21/h7-8,10H,3-6,9H2,1-2H3,(H,24,25)
Instrument: TripleTOF 5600 SCIEX
Instrument type: LC-ESI-QTOF
Ms type: MS2
Ion mode: POSITIVE
Collision energy: 70
Fragmentation mode: CID
Ionization: ESI
Column name: Zorbax Eclipse Plus C18 2.1 mm x 150 mm, 3.5 um, Agilent
Retention time: 5.185 min
Precursor m/z: 362.1511
Precursor type: [M+H]+
m/z	relative intensity
42.0432	52
56.0613	41
58.0712	104
70.072	156
72.0861	188
74.0183	26
75.027	47
78.0391	26
82.0711	57
83.0334	31
89.0381	41
90.0363	26
91.0553	20
95.0314	99
96.0249	26
96.0334	31
97.0811	26
100.0195	26
101.0384	47
102.0355	146
103.046	26
104.0139	26
104.0502	88
107.0309	41
109.0458	52
110.0416	26
115.0475	20
115.0596	47
116.0504	135
117.0484	36
117.061	31
118.0662	41
120.0253	36
121.0335	62
122.0411	638
123.0462	104
124.023	36
124.0554	31
127.031	26
128.0501	94
129.0463	88
129.064	26
130.0303	135
130.0636	62
132.0438	109
133.0448	99
134.0405	104
135.0253	26
135.0471	94
136.0605	36
137.0257	31
137.0497	57
138.037	67
140.0501	57
141.0521	67
142.0527	31
142.0676	47
143.0246	41
143.0621	94
144.0468	47
144.0795	20
145.0414	104
145.0782	26
146.0571	120
147.0375	214
148.0198	57
148.0552	188
149.0548	120
150.0354	601
151.0422	439
152.0451	99
153.0499	57
154.0492	26
154.066	41
155.0187	20
155.0612	99
156.0454	41
156.0662	88
157.0393	151
157.0695	36
158.0248	193
158.0528	36
159.0499	88
160.0549	261
161.0514	135
162.0348	78
162.0622	109
163.0388	104
163.0645	57
164.0501	146
165.045	329
166.0284	36
166.0579	67
167.0699	36
168.0792	36
169.0471	20
169.0748	88
170.052	31
170.0645	31
170.0828	31
171.0555	334
171.0793	36
172.0528	88
172.0729	31
173.0613	73
174.0362	31
174.0575	88
175.0305	94
175.0439	26
175.0699	47
176.0161	73
176.0451	109
176.0758	26
177.0252	36
177.0517	104
178.0284	334
178.0578	36
178.0708	20
179.038	700
179.0622	73
180.045	125
180.0722	31
182.0648	47
183.0574	67
184.0576	120
185.0353	83
185.074	73
186.0593	36
186.0801	26
187.0322	78
187.0631	36
188.051	303
188.0785	20
189.0461	141
189.0654	36
190.0317	67
190.0546	88
191.0346	41
191.0628	73
192.0092	26
192.0454	292
193.0394	345
194.0488	690
195.0571	83
195.0798	20
195.0932	36
196.0604	41
197.0736	104
197.0991	36
198.0279	31
198.064	67
199.0304	20
199.0514	109
199.0742	36
200.0445	26
200.058	67
201.0406	36
201.0616	73
201.0817	31
202.0111	20
202.0625	73
202.0821	20
203.0319	151
203.061	360
204.0444	240
204.0708	31
205.0402	999
205.0746	109
206.0511	67
207.0526	99
208.0818	31
209.0739	41
209.1035	26
210.0702	88
210.1	26
211.027	26
211.0449	41
211.0853	151
212.0878	41
213.0454	31
213.0678	31
214.0632	26
214.0782	57
215.0614	73
216.0393	36
216.064	88
217.036	52
217.0477	41
217.0759	78
218.0212	20
218.0407	83
218.0587	57
218.0835	52
219.0564	523
220.0702	47
221.0706	345
223.0761	36
223.0994	26
224.0824	109
225.0891	83
226.058	31
226.0834	73
228.0651	47
228.0973	31
229.0757	36
230.0709	120
231.0201	141
231.0563	162
231.0776	57
233.0327	26
233.0715	36
238.0511	26
238.0614	26
238.098	141
238.1307	26
240.0454	26
240.0729	36
241.052	20
244.0302	41
244.0555	41
245.0376	83
245.0736	41
247.0889	20
252.0808	62
252.1213	26
253.1209	151
254.0583	41
258.0698	57
261.1046	125
266.0929	36
267.0804	31
268.0971	67
272.0449	94
272.1184	26
273.0598	31
280.0632	20
286.0561	141
301.0922	57
