Mass spectrum: 3-Hydroxycarbamazepine; LC-ESI-QTOF; MS2; 90 V
Name: 3-Hydroxycarbamazepine
Class: Pharmaceutical
Formula: C15H12N2O2
Exact mass: 252.0899
SMILES: NC(=O)N1c2ccccc2C=Cc3ccc(O)cc13
InChI: InChI=1S/C15H12N2O2/c16-15(19)17-13-4-2-1-3-10(13)5-6-11-7-8-12(18)9-14(11)17/h1-9,18H,(H2,16,19)
Instrument: TripleTOF 5600 SCIEX
Instrument type: LC-ESI-QTOF
Ms type: MS2
Ion mode: NEGATIVE
Collision energy: 90
Fragmentation mode: CID
Ionization: ESI
Column name: Zorbax Eclipse Plus C18 2.1 mm x 150 mm, 3.5 um, Agilent
Retention time: 7.917 min
Precursor m/z: 251.0826
Precursor type: [M-H]-
m/z	relative intensity
40.0221	99
40.0337	199
41.0066	599
41.0147	299
41.0228	99
41.0304	99
41.0403	99
42.001	499
50.0061	199
63.0129	99
65.9988	399
66.0087	199
73.0097	199
90.0361	699
113.0375	99
114.0371	399
115.0497	299
116.0511	699
118.0325	99
129.0551	499
130.0653	499
131.0344	199
138.0318	299
139.0567	299
140.0537	199
142.0263	399
142.0381	199
153.0654	199
164.0515	999
165.0533	99
166.0351	199
166.0676	499
177.058	199
178.0632	199
181.0516	199
205.056	399
206.0614	199
