Mass spectrum: Tributyltetradecylphosphonium; LC-ESI-QTOF; MS2; 80 V
Name: Tributyltetradecylphosphonium
Formula: [C26H56P]+
Exact mass: 399.4114
SMILES: CCCCCCCCCCCCCC[P+](CCCC)(CCCC)CCCC
InChI: InChI=1S/C26H56P/c1-5-9-13-14-15-16-17-18-19-20-21-22-26-27(23-10-6-2,24-11-7-3)25-12-8-4/h5-26H2,1-4H3/q+1
Instrument: TripleTOF 5600 SCIEX
Instrument type: LC-ESI-QTOF
Ms type: MS2
Ion mode: POSITIVE
Collision energy: 80
Fragmentation mode: CID
Ionization: ESI
Column name: Zorbax Eclipse Plus C18 2.1 mm x 150 mm, 3.5 um, Agilent
Retention time: 14.891 min
Precursor m/z: 399.4114
Precursor type: [M]+
m/z	relative intensity
59.0041	63
61.02	194
62.0278	258
75.0351	238
76.0428	999
89.0494	122
90.0577	296
103.0654	115
104.0729	56
117.0812	159
131.0976	315
145.1132	187
159.1288	118
173.1456	410
187.1607	226
201.1764	114
215.1927	264
229.2082	522
243.2233	92
257.2397	82
271.2555	106
285.2695	90
299.2855	67
313.3032	65
327.3178	51
