Mass spectrum: Mebendazole; LC-ESI-QTOF; MS2; 100 V
Name: Mebendazole
Class: Pharmaceutical
Formula: C16H13N3O3
Exact mass: 295.0957
SMILES: COC(=O)Nc1[nH]c2cc(ccc2n1)C(=O)c3ccccc3
InChI: InChI=1S/C16H13N3O3/c1-22-16(21)19-15-17-12-8-7-11(9-13(12)18-15)14(20)10-5-3-2-4-6-10/h2-9H,1H3,(H2,17,18,19,21)
Instrument: TripleTOF 5600 SCIEX
Instrument type: LC-ESI-QTOF
Ms type: MS2
Ion mode: POSITIVE
Collision energy: 100
Fragmentation mode: CID
Ionization: ESI
Column name: Zorbax Eclipse Plus C18 2.1 mm x 150 mm, 3.5 um, Agilent
Retention time: 8.672 min
Precursor m/z: 296.103
Precursor type: [M+H]+
m/z	relative intensity
69.0129	11
75.0139	10
76.0217	120
77.0413	999
78.0368	87
90.0361	17
103.0292	56
104.0378	141
105.0449	136
113.0393	14
115.0544	18
127.0559	20
128.0608	11
130.0403	41
131.0475	32
139.0544	45
140.0482	31
164.0466	11
