Mass spectrum: 5-(3,4,5-Trimethoxybenzoyl)-2,4-pyrimidinediamine; LC-ESI-QTOF; MS2; 40 V
Name: 5-(3,4,5-Trimethoxybenzoyl)-2,4-pyrimidinediamine
Class: Pharmaceutical; Transformation_product
Formula: C14H16N4O4
Exact mass: 304.1172
SMILES: COc1cc(cc(c1OC)OC)C(=O)c2cnc(nc2N)N
InChI: InChI=1S/C14H16N4O4/c1-20-9-4-7(5-10(21-2)12(9)22-3)11(19)8-6-17-14(16)18-13(8)15/h4-6H,1-3H3,(H4,15,16,17,18)
Instrument: TripleTOF 5600 SCIEX
Instrument type: LC-ESI-QTOF
Ms type: MS2
Ion mode: POSITIVE
Collision energy: 40
Fragmentation mode: CID
Ionization: ESI
Column name: Zorbax Eclipse Plus C18 2.1 mm x 150 mm, 3.5 um, Agilent
Retention time: 5.86 min
Precursor m/z: 305.1244
Precursor type: [M+H]+
m/z	relative intensity
68.0179	140
70.0327	31
77.0403	11
81.0366	10
94.0444	15
95.0246	521
105.0336	16
106.0421	13
107.0588	34
109.05	11
110.0576	126
111.0657	42
120.0202	19
121.0329	13
131.0604	11
137.0447	999
139.072	15
141.0478	10
146.0227	23
146.0648	12
147.065	15
148.0754	18
149.0214	20
151.0381	23
152.0455	16
159.0578	13
161.0241	11
161.082	19
163.0503	197
165.017	46
170.0686	10
171.055	19
172.0626	26
173.0739	56
174.0846	10
175.0573	17
176.07	40
177.0736	34
179.0343	19
184.0462	13
185.0444	11
185.0804	74
187.054	54
187.0971	69
188.0442	42
189.0774	15
195.0633	50
198.0657	11
199.0712	34
199.097	38
200.0674	64
201.0754	354
202.0617	11
202.0846	12
203.05	12
203.0925	10
204.0622	12
205.0673	33
213.0769	74
214.0824	78
215.0915	404
216.0252	20
216.0707	15
216.0987	73
217.0698	67
218.0761	15
219.0851	31
225.0748	20
226.0774	10
227.0893	32
228.0611	15
229.0696	156
230.0746	24
231.0402	23
231.0856	17
232.0588	16
233.0555	27
241.0717	13
242.0805	20
243.0867	249
244.0946	928
245.0657	45
246.0741	154
247.0822	125
253.0696	15
254.0778	13
257.0657	37
258.0499	16
258.0695	15
259.08	168
260.088	99
261.098	149
269.0704	19
271.0823	409
272.0891	91
273.0598	53
273.0968	20
275.0758	915
287.0757	12
289.0928	658
290.0989	68
305.1239	943
