Mass spectrum: 7-Amino-4-methylcoumarin; LC-ESI-QTOF; MS2; 30 V
Name: 7-Amino-4-methylcoumarin
Formula: C10H9NO2
Exact mass: 175.0633
SMILES: CC1=CC(=O)OC2=C1C=CC(=C2)N
InChI: InChI=1S/C10H9NO2/c1-6-4-10(12)13-9-5-7(11)2-3-8(6)9/h2-5H,11H2,1H3
Instrument: TripleTOF X500R SCIEX
Instrument type: LC-ESI-QTOF
Ms type: MS2
Ion mode: POSITIVE
Collision energy: 30
Fragmentation mode: CID
Ionization: ESI
Column name: Zorbax Eclipse Plus C18 2.1 mm x 150 mm, 3.5 um, Agilent
Retention time: 7.107 min
Precursor m/z: 176.0706
Precursor type: [M+H]+
m/z	relative intensity
42.0336	13
67.0182	39
68.0134	86
77.0385	75
79.0545	25
81.0693	10
89.0392	14
91.0548	75
92.0508	17
93.0584	52
93.0691	44
94.0651	42
102.0475	17
103.0547	651
104.05	48
105.0688	140
106.0651	43
107.0495	10
109.0648	64
110.0603	30
115.0548	267
117.0577	336
118.0654	86
119.0731	47
120.0811	999
121.0647	11
130.0657	153
131.0495	74
131.0733	96
132.0808	71
133.0526	178
134.0591	30
146.0596	18
147.0677	18
148.0758	107
159.0429	27
176.0711	654
