Mass spectrum: Noramidopyrine; LC-ESI-QTOF; MS2; 110 V
Name: Noramidopyrine
Class: Pharmaceutical; Transformation_product-Metabolite
Formula: C12H15N3O
Exact mass: 217.1215
SMILES: CC1=C(C(=O)N(N1C)C2=CC=CC=C2)NC
InChI: InChI=1S/C12H15N3O/c1-9-11(13-2)12(16)15(14(9)3)10-7-5-4-6-8-10/h4-8,13H,1-3H3
Instrument: TripleTOF 6600 SCIEX
Instrument type: LC-ESI-QTOF
Ms type: MS2
Ion mode: POSITIVE
Collision energy: 110
Fragmentation mode: CID
Ionization: ESI
Column name: Zorbax Eclipse Plus C18 2.1 mm x 150 mm, 3.5 um, Agilent
Retention time: 4.819 min
Precursor m/z: 218.1288
Precursor type: [M+H]+
m/z	relative intensity
35.9999	18
37.0072	55
38.0156	50
39.023	165
40.018	55
41.026	359
42.0339	492
43.0416	23
44.0501	23
49.007	82
50.015	455
51.023	644
52.0186	46
53.0131	36
54.0337	46
56.0495	999
62.0154	32
63.0226	59
65.0381	64
74.0144	50
77.0378	64
83.0603	41
89.0382	36
