Mass spectrum: 4`-Aminoacetanilide; LC-ESI-QTOF; MS2; 70 V
Name: 4`-Aminoacetanilide
Formula: C8H10N2O
Exact mass: 150.0793
SMILES: CC(=O)NC1=CC=C(C=C1)N
InChI: InChI=1S/C8H10N2O/c1-6(11)10-8-4-2-7(9)3-5-8/h2-5H,9H2,1H3,(H,10,11)
Instrument: TripleTOF X500R SCIEX
Instrument type: LC-ESI-QTOF
Ms type: MS2
Ion mode: POSITIVE
Collision energy: 70
Fragmentation mode: CID
Ionization: ESI
Column name: Zorbax Eclipse Plus C18 2.1 mm x 150 mm, 3.5 um, Agilent
Retention time: 2.212 min
Precursor m/z: 151.0866
Precursor type: [M+H]+
m/z	relative intensity
37.0069	119
38.0151	137
39.0229	999
43.0179	504
53.0373	64
54.0341	45
63.0223	36
65.0394	384
66.0469	100
67.0413	64
80.0496	238
92.0499	73
93.0584	64
107.0614	73
108.0691	54
