Mass spectrum: Carbadox; LC-ESI-QTOF; MS2; 40 V
Name: Carbadox
Class: Antimicrobial; Pharmaceutical
Formula: C11H10N4O4
Exact mass: 262.0702
SMILES: COC(=O)N=NC=C1C=[N+]([O-])c2ccccc2N1O
InChI: InChI=1S/C11H10N4O4/c1-19-11(16)13-12-6-8-7-14(17)9-4-2-3-5-10(9)15(8)18/h2-7,18H,1H3
Instrument: TripleTOF 5600 SCIEX
Instrument type: LC-ESI-QTOF
Ms type: MS2
Ion mode: POSITIVE
Collision energy: 40
Fragmentation mode: CID
Ionization: ESI
Column name: Zorbax Eclipse Plus C18 2.1 mm x 150 mm, 3.5 um, Agilent
Retention time: 5.823 min
Precursor m/z: 263.0775
Precursor type: [M+H]+
m/z	relative intensity
51.0286	16
65.0422	56
75.0264	24
76.0196	10
76.0328	26
77.0413	248
78.0363	76
90.036	764
91.0433	50
92.0503	26
101.0402	12
102.0344	235
103.0423	425
104.0495	242
105.0448	28
115.0422	12
116.036	97
117.0468	32
118.053	22
128.0484	29
129.0452	999
130.0523	482
131.0602	173
142.052	52
143.0488	177
144.0677	32
145.0395	278
145.0754	18
146.048	21
147.0547	18
155.048	61
156.056	18
157.0607	10
159.055	92
170.0591	22
171.0429	284
171.0647	10
172.0507	62
173.0695	32
175.0481	17
183.0646	12
185.0812	18
186.0649	10
187.0637	12
188.0451	52
197.0453	157
229.0721	58
231.0513	16
