Mass spectrum: Quinmerac; LC-ESI-QTOF; MS2; 90 V
Name: Quinmerac
Class: Herbicide
Formula: C11H8ClNO2
Exact mass: 221.0244
SMILES: Cc1cc2ccc(c(c2nc1)C(=O)O)Cl
InChI: InChI=1S/C11H8ClNO2/c1-6-4-7-2-3-8(12)9(11(14)15)10(7)13-5-6/h2-5H,1H3,(H,14,15)
Instrument: TripleTOF 6600 SCIEX
Instrument type: LC-ESI-QTOF
Ms type: MS2
Ion mode: POSITIVE
Collision energy: 90
Fragmentation mode: CID
Ionization: ESI
Column name: Zorbax Eclipse Plus C18 2.1 mm x 150 mm, 3.5 um, Agilent
Retention time: 7.013 min
Precursor m/z: 222.0316
Precursor type: [M+H]+
m/z	relative intensity
37.0072	32
38.0149	25
39.0235	83
46.9684	20
48.9838	35
50.0155	40
51.0226	45
52.0185	12
60.0	27
61.007	197
62.0152	386
63.0231	556
64.018	68
64.0309	22
65.039	60
72.9838	128
73.0076	32
74.0149	166
75.0232	63
76.0197	12
76.031	22
77.0388	12
85.0069	63
86.0148	189
87.0229	412
88.0308	574
89.0382	98
90.0336	50
96.9842	53
98.0155	55
98.9998	32
99.0108	32
99.0223	25
100.0181	37
102.0467	20
107.9767	12
111.0114	10
112.0176	12
113.0386	999
114.0344	121
114.0458	336
115.0408	12
115.0541	30
122.9993	45
138.034	17
140.05	419
141.0573	10
149.0158	32
