Mass spectrum: Prometon; LC-ESI-QTOF; MS2; 90 V
Name: Prometon
Class: Herbicide
Formula: C10H19N5O
Exact mass: 225.159
SMILES: COc1nc(NC(C)C)nc(NC(C)C)n1
InChI: InChI=1S/C10H19N5O/c1-6(2)11-8-13-9(12-7(3)4)15-10(14-8)16-5/h6-7H,1-5H3,(H2,11,12,13,14,15)
Instrument: TripleTOF 5600 SCIEX
Instrument type: LC-ESI-QTOF
Ms type: MS2
Ion mode: POSITIVE
Collision energy: 90
Fragmentation mode: CID
Ionization: ESI
Column name: Zorbax Eclipse Plus C18 2.1 mm x 150 mm, 3.5 um, Agilent
Retention time: 7.392 min
Precursor m/z: 226.1662
Precursor type: [M+H]+
m/z	relative intensity
41.0236	29
43.0392	516
44.021	33
57.0513	310
58.0347	160
58.0612	11
68.0296	999
68.0592	15
68.0686	15
69.0128	694
69.0498	15
69.0631	11
75.0569	11
82.0427	35
83.0262	43
86.0364	29
100.0509	21
