Mass spectrum: 6alpha-Methylprednisolone; LC-ESI-QTOF; MS2; 140 V
Name: 6alpha-Methylprednisolone
Class: Pharmaceutical
Formula: C22H30O5
Exact mass: 374.2093
SMILES: C[C@H]1C[C@H]2[C@@H]3CC[C@](O)(C(=O)CO)[C@@]3(C)C[C@H](O)[C@@H]2[C@@]4(C)C=CC(=O)C=C14
InChI: InChI=1S/C22H30O5/c1-12-8-14-15-5-7-22(27,18(26)11-23)21(15,3)10-17(25)19(14)20(2)6-4-13(24)9-16(12)20/h4,6,9,12,14-15,17,19,23,25,27H,5,7-8,10-11H2,1-3H3/t12-,14-,15-,17-,19+,20-,21-,22-/m0/s1
Instrument: TripleTOF 5600 SCIEX
Instrument type: LC-ESI-QTOF
Ms type: MS2
Ion mode: POSITIVE
Collision energy: 140
Fragmentation mode: CID
Ionization: ESI
Column name: Zorbax Eclipse Plus C18 2.1 mm x 150 mm, 3.5 um, Agilent
Retention time: 9.016 min
Precursor m/z: 375.2166
Precursor type: [M+H]+
m/z	relative intensity
65.0424	407
75.0267	71
77.0409	805
77.0647	61
78.0492	81
79.0558	91
89.0393	163
91.056	774
102.0452	112
102.0533	40
103.0562	50
115.0538	999
126.0454	91
127.0539	326
127.0869	71
128.0623	570
129.0692	61
131.049	71
139.0533	193
141.0723	112
150.0454	142
151.0544	285
152.0607	621
153.0701	91
157.065	40
163.0531	173
164.0622	183
165.0694	560
176.0611	285
176.0805	50
177.0702	61
178.0758	152
187.0509	50
188.0613	50
189.0688	316
200.0624	132
201.0698	122
202.0779	254
203.0803	50
213.0676	101
218.072	61
