Mass spectrum: 1,2-Benzisothiazol-3(2H)-one; LC-ESI-QTOF; MS2; 140 V
Name: 1,2-Benzisothiazol-3(2H)-one
Class: Antimicrobial
Formula: C7H5NOS
Exact mass: 151.0092
SMILES: C1=CC=C2C(=C1)C(=O)NS2
InChI: InChI=1S/C7H5NOS/c9-7-5-3-1-2-4-6(5)10-8-7/h1-4H,(H,8,9)
Instrument: TripleTOF 6600 SCIEX
Instrument type: LC-ESI-QTOF
Ms type: MS2
Ion mode: POSITIVE
Collision energy: 140
Fragmentation mode: CID
Ionization: ESI
Column name: Zorbax Eclipse Plus C18 2.1 mm x 150 mm, 3.5 um, Agilent
Retention time: 6.233 min
Precursor m/z: 152.0165
Precursor type: [M+H]+
m/z	relative intensity
35.9989	555
37.007	999
38.0021	222
38.0151	244
43.9713	199
44.9789	266
45.9745	133
49.0066	599
50.0147	910
59.9993	155
61.0071	377
62.0148	155
67.9704	244
68.9788	310
74.0141	88
