Mass spectrum: 4-Carboxy-9-acridanone; LC-ESI-QTOF; MS2; 100 V
Name: 4-Carboxy-9-acridanone
Class: Pharmaceutical; Antimicrobial
Formula: C14H9NO3
Exact mass: 239.0582
SMILES: c1ccc2c(c1)c(=O)c3cccc(c3[nH]2)C(=O)O
InChI: InChI=1S/C14H9NO3/c16-13-8-4-1-2-7-11(8)15-12-9(13)5-3-6-10(12)14(17)18/h1-7H,(H,15,16)(H,17,18)
Instrument: TripleTOF 5600 SCIEX
Instrument type: LC-ESI-QTOF
Ms type: MS2
Ion mode: POSITIVE
Collision energy: 100
Fragmentation mode: CID
Ionization: ESI
Column name: Zorbax Eclipse Plus C18 2.1 mm x 150 mm, 3.5 um, Agilent
Retention time: 8.816 min
Precursor m/z: 240.0655
Precursor type: [M+H]+
m/z	relative intensity
51.0283	43
65.043	142
74.0175	148
75.0255	55
76.032	235
85.0087	31
86.0158	179
87.0236	583
88.0177	167
88.0342	43
89.0391	713
90.0348	117
98.0157	99
110.0126	43
111.0176	49
112.0247	55
113.038	999
114.0331	241
115.0533	167
116.0491	24
126.0439	43
137.0375	229
138.0443	124
139.052	322
140.0484	335
164.0516	117
