Mass spectrum: Mitomycin C; LC-ESI-QTOF; MS2; 60 V
Name: Mitomycin C
Class: Pharmaceutical
Formula: C15H18N4O5
Exact mass: 334.1277
SMILES: CO[C@@]12[C@H](COC(N)=O)C3=C(N1C[C@@H]4N[C@H]24)C(=O)C(=C(N)C3=O)C
InChI: InChI=1S/C15H18N4O5/c1-5-9(16)12(21)8-6(4-24-14(17)22)15(23-2)13-7(18-13)3-19(15)10(8)11(5)20/h6-7,13,18H,3-4,16H2,1-2H3,(H2,17,22)/t6-,7+,13+,15-/m1/s1
Instrument: TripleTOF 5600 SCIEX
Instrument type: LC-ESI-QTOF
Ms type: MS2
Ion mode: POSITIVE
Collision energy: 60
Fragmentation mode: CID
Ionization: ESI
Column name: Zorbax Eclipse Plus C18 2.1 mm x 150 mm, 3.5 um, Agilent
Retention time: 5.588 min
Precursor m/z: 335.135
Precursor type: [M+H]+
m/z	relative intensity
77.0429	108
78.0342	64
91.0544	51
103.054	57
104.0464	281
105.0532	70
106.0621	89
115.0492	275
116.0468	102
117.0536	140
118.0591	115
120.0418	57
128.043	89
129.0503	70
130.0593	121
131.0543	999
132.0416	102
132.0615	717
133.0684	281
134.0517	102
140.0412	51
141.0489	51
142.0569	179
143.0532	166
144.0605	96
144.071	64
145.068	96
146.0517	57
154.0569	76
155.0503	102
156.0593	307
157.0667	416
158.0648	70
159.0447	435
159.0799	128
160.0604	96
161.0606	140
168.0559	217
169.0643	614
170.0555	134
170.07	217
171.0777	461
172.0504	102
173.0586	128
174.0659	89
175.0512	96
175.0724	76
176.056	64
184.0701	70
185.0556	179
186.0625	115
187.0344	51
187.0705	198
188.0494	108
189.0508	57
196.0703	83
197.054	345
198.0608	198
199.0619	262
200.0428	121
201.0467	70
202.0537	140
212.0759	147
213.0619	243
213.0865	76
214.0695	76
214.0902	108
215.0774	441
219.0691	64
225.0605	83
227.0778	57
228.0731	76
229.0811	51
230.0884	70
240.0717	140
241.079	96
242.088	288
