Mass spectrum: Disperse Yellow 3; LC-ESI-QTOF; MS2; 120 V
Name: Disperse Yellow 3
Formula: C15H15N3O2
Exact mass: 269.1164
SMILES: CC1=CC(=C(C=C1)O)N=NC2=CC=C(C=C2)NC(=O)C
InChI: InChI=1S/C15H15N3O2/c1-10-3-8-15(20)14(9-10)18-17-13-6-4-12(5-7-13)16-11(2)19/h3-9,20H,1-2H3,(H,16,19)
Instrument: TripleTOF 6600 SCIEX
Instrument type: LC-ESI-QTOF
Ms type: MS2
Ion mode: POSITIVE
Collision energy: 120
Fragmentation mode: CID
Ionization: ESI
Column name: Zorbax Eclipse Plus C18 2.1 mm x 150 mm, 3.5 um, Agilent
Retention time: 12.171 min
Precursor m/z: 270.1237
Precursor type: [M+H]+
m/z	relative intensity
37.0067	43
38.0143	31
39.0221	164
42.0331	18
43.017	93
50.0138	24
51.0224	77
52.0177	18
53.0378	510
54.0326	65
61.007	18
62.0145	52
63.0217	140
64.0184	18
65.0367	18
67.0394	15
78.0324	18
80.0485	999
81.0556	28
90.0333	18
107.0599	71
108.0668	18
