Mass spectrum: Dimethenamid-ESA; LC-ESI-QTOF; MS2; 130 V
Name: Dimethenamid-ESA
Class: Transformation_product; Herbicide; Metabolite
Formula: C12H19NO5S2
Exact mass: 321.0705
SMILES: CC1=CSC(=C1N(C(C)COC)C(=O)CS(=O)(=O)O)C
InChI: InChI=1S/C12H19NO5S2/c1-8-6-19-10(3)12(8)13(9(2)5-18-4)11(14)7-20(15,16)17/h6,9H,5,7H2,1-4H3,(H,15,16,17)
Instrument: TripleTOF 6600 SCIEX
Instrument type: LC-ESI-QTOF
Ms type: MS2
Ion mode: POSITIVE
Collision energy: 130
Fragmentation mode: CID
Ionization: ESI
Column name: Zorbax Eclipse Plus C18 2.1 mm x 150 mm, 3.5 um, Agilent
Retention time: 7.036 min
Precursor m/z: 322.0778
Precursor type: [M+H]+
m/z	relative intensity
37.0073	216
38.0161	216
39.0232	999
41.0391	351
42.034	161
43.0179	351
44.9795	971
45.0336	188
50.0158	323
51.0231	809
52.0181	108
53.0386	513
57.9872	216
58.9951	458
59.9908	216
63.023	297
64.0318	134
65.0387	999
66.0468	323
67.0419	216
67.0547	297
68.9795	377
69.9879	134
70.9969	432
77.0395	864
78.0339	432
78.0472	242
79.0544	134
80.0492	594
85.0093	134
89.0385	297
90.047	242
91.0429	108
91.0549	567
92.0502	216
93.0569	323
94.0655	539
94.9934	161
97.0103	620
104.0493	432
106.0642	216
109.0112	242
111.0258	269
117.0576	458
118.0647	297
123.0167	161
136.0208	351
150.0386	134
