Mass spectrum: Ofloxacin; LC-ESI-QTOF; MS2; 60 V
Name: Ofloxacin
Class: Antimicrobial; Pharmaceutical
Formula: C18H20FN3O4
Exact mass: 361.1438
SMILES: CC1COC2=C3N1C=C(C(=O)C3=CC(=C2N4CCN(CC4)C)F)C(=O)O
InChI: InChI=1S/C18H20FN3O4/c1-10-9-26-17-14-11(16(23)12(18(24)25)8-22(10)14)7-13(19)15(17)21-5-3-20(2)4-6-21/h7-8,10H,3-6,9H2,1-2H3,(H,24,25)
Instrument: TripleTOF 5600 SCIEX
Instrument type: LC-ESI-QTOF
Ms type: MS2
Ion mode: POSITIVE
Collision energy: 60
Fragmentation mode: CID
Ionization: ESI
Column name: Zorbax Eclipse Plus C18 2.1 mm x 150 mm, 3.5 um, Agilent
Retention time: 5.185 min
Precursor m/z: 362.1511
Precursor type: [M+H]+
m/z	relative intensity
42.0467	31
56.0588	26
58.0739	116
70.0713	175
72.086	196
82.0698	58
95.0318	31
97.0793	26
102.0349	53
104.0506	37
115.0554	47
116.0506	58
117.0617	31
118.0665	21
122.0395	356
123.0463	53
128.0509	42
129.045	31
130.0304	63
130.0674	21
132.0435	37
133.0443	26
134.0415	53
135.0475	37
136.0589	31
137.0518	42
138.0337	53
140.049	53
142.062	26
143.0622	31
144.0452	26
144.0731	31
145.0374	31
145.0515	21
146.0578	58
147.0389	53
147.0538	31
148.0174	31
148.0547	106
149.0557	37
149.0661	21
150.0351	366
151.0436	196
152.0462	58
154.0624	37
155.0621	58
156.0444	53
156.0722	31
157.0396	63
157.0792	37
158.0242	170
158.0603	37
159.0541	26
160.0568	154
161.0528	42
162.0342	74
162.0617	47
163.0398	69
164.0507	116
165.0442	180
166.0282	26
169.0427	21
169.0784	31
170.0601	53
171.0562	233
172.059	79
173.0375	21
173.0663	37
174.0346	31
174.064	47
175.0353	69
175.0657	47
176.0142	31
176.0463	85
176.0721	21
176.081	21
177.0463	37
177.0564	74
178.029	478
178.0615	47
179.038	706
179.0621	53
180.0433	132
183.0567	74
184.0623	63
184.0882	26
185.0337	58
185.0728	58
186.0792	31
187.068	53
187.0903	21
188.0501	297
189.0481	69
190.0553	138
191.0371	74
191.0625	58
192.0437	308
193.0409	456
193.078	31
194.0504	595
195.0564	79
195.0872	37
196.0912	37
197.0764	69
197.0963	31
198.0636	47
198.077	37
199.0486	228
199.0782	95
200.0446	26
200.0618	122
201.0659	143
202.0579	69
203.0295	148
203.0604	324
204.0441	324
204.0862	31
205.0151	31
205.0416	999
205.0735	191
206.053	132
206.0752	26
207.0575	74
207.0746	31
208.079	21
209.0727	31
209.1012	31
210.0743	90
210.1037	26
211.0843	143
212.079	21
212.0867	26
213.056	31
214.0589	26
214.0744	26
215.0557	58
216.0667	47
217.0395	132
217.0751	37
218.0223	37
218.0543	170
218.0845	31
219.0563	866
219.089	31
220.0709	122
221.0721	988
222.0685	21
223.0766	31
224.0807	116
225.0534	26
225.0738	31
225.0911	116
226.0609	74
226.096	95
227.0254	21
227.0715	69
228.065	37
229.0747	53
230.071	58
231.018	185
231.0553	170
231.0807	63
232.067	74
232.0964	21
233.0338	26
233.0705	132
234.0836	79
236.083	21
238.059	26
238.0766	26
238.0967	127
238.1322	31
239.1054	31
240.0789	69
240.1082	37
241.0958	63
243.0843	37
243.1164	26
244.0536	58
245.0351	53
245.0749	90
246.0648	47
247.0872	138
252.0772	63
252.1163	42
253.0862	63
253.1196	398
254.0605	58
254.0973	31
255.0745	69
255.0977	21
258.0669	106
258.142	31
259.0479	63
259.0677	26
259.0882	42
261.1027	892
266.0949	31
267.0759	42
267.0995	47
268.0684	58
268.1077	233
272.0417	47
272.0517	47
273.0713	37
273.0996	47
275.1075	26
281.0863	53
286.0621	228
286.1032	31
287.0697	47
287.0846	26
296.0924	21
296.1141	26
296.1381	37
300.0784	26
301.086	180
301.1267	53
344.1346	79
