Mass spectrum: Verapamil; LC-ESI-QTOF; MS2; 50 V
Name: Verapamil
Class: Pharmaceutical
Formula: C27H38N2O4
Exact mass: 454.2832
SMILES: CC(C)C(CCCN(C)CCc1ccc(c(c1)OC)OC)(C#N)c2ccc(c(c2)OC)OC
InChI: InChI=1S/C27H38N2O4/c1-20(2)27(19-28,22-10-12-24(31-5)26(18-22)33-7)14-8-15-29(3)16-13-21-9-11-23(30-4)25(17-21)32-6/h9-12,17-18,20H,8,13-16H2,1-7H3
Instrument: TripleTOF 5600 SCIEX
Instrument type: LC-ESI-QTOF
Ms type: MS2
Ion mode: POSITIVE
Collision energy: 50
Fragmentation mode: CID
Ionization: ESI
Column name: Zorbax Eclipse Plus C18 2.1 mm x 150 mm, 3.5 um, Agilent
Retention time: 8.542 min
Precursor m/z: 455.2904
Precursor type: [M+H]+
m/z	relative intensity
58.0702	17
77.0417	14
79.0568	29
91.0558	17
96.0822	12
103.0547	33
105.0705	121
107.0493	18
118.0408	21
119.0492	12
120.0568	20
121.0647	28
122.0962	21
133.0648	111
134.0723	77
135.044	36
135.0793	46
137.0592	11
138.0665	12
139.0749	11
149.0586	12
150.0675	661
151.0749	75
165.0907	999
177.0904	64
191.1063	11
202.0854	11
217.109	11
218.1163	37
243.137	17
245.1391	15
260.164	144
261.1591	103
303.206	156
