Mass spectrum: Hydroxytorasemide; LC-ESI-QTOF; MS2; 100 V
Name: Hydroxytorasemide
Class: Pharmaceutical; Transformation_product; Transformation_product-Metabolite
Formula: C16H20N4O4S
Exact mass: 364.1205
SMILES: CC(C)NC(=O)NS(=O)(=O)c1cnccc1Nc2cccc(c2)CO
InChI: InChI=1S/C16H20N4O4S/c1-11(2)18-16(22)20-25(23,24)15-9-17-7-6-14(15)19-13-5-3-4-12(8-13)10-21/h3-9,11,21H,10H2,1-2H3,(H,17,19)(H2,18,20,22)
Instrument: TripleTOF 5600 SCIEX
Instrument type: LC-ESI-QTOF
Ms type: MS2
Ion mode: POSITIVE
Collision energy: 100
Fragmentation mode: CID
Ionization: ESI
Column name: Zorbax Eclipse Plus C18 2.1 mm x 150 mm, 3.5 um, Agilent
Retention time: 5.824 min
Precursor m/z: 365.1278
Precursor type: [M+H]+
m/z	relative intensity
51.0292	17
65.0435	26
67.0434	10
74.0192	11
75.0257	43
76.0317	11
77.0418	158
78.0373	11
79.0431	14
81.0464	18
88.031	33
89.0401	214
90.0466	36
98.0082	10
101.0384	95
102.0326	12
102.0454	23
103.0535	28
104.0443	19
113.0391	69
114.0456	197
115.0539	999
116.0486	115
117.0568	104
118.0561	13
125.0375	18
126.0452	61
127.0541	194
128.0496	242
129.0484	65
130.0653	28
137.0158	12
139.0429	16
140.0492	403
141.0567	205
142.0601	130
143.0612	11
152.0491	54
153.0565	94
154.0643	157
155.0605	106
156.0678	30
166.0542	29
167.0594	111
168.068	468
169.0752	334
179.0604	119
180.0674	63
181.0762	632
182.0836	221
183.0548	10
184.0644	12
187.0324	45
197.0704	58
199.0862	30
