Mass spectrum: Guaifenesin; LC-ESI-QTOF; MS2; 40 V
Name: Guaifenesin
Formula: C10H14O4
Exact mass: 198.0892
SMILES: COC1=CC=CC=C1OCC(CO)O
InChI: InChI=1S/C10H14O4/c1-13-9-4-2-3-5-10(9)14-7-8(12)6-11/h2-5,8,11-12H,6-7H2,1H3
Instrument: TripleTOF X500R SCIEX
Instrument type: LC-ESI-QTOF
Ms type: MS2
Ion mode: POSITIVE
Collision energy: 40
Fragmentation mode: CID
Ionization: ESI
Column name: Zorbax Eclipse Plus C18 2.1 mm x 150 mm, 3.5 um, Agilent
Retention time: 6.298 min
Precursor m/z: 199.0965
Precursor type: [M+H]+
m/z	relative intensity
39.0236	54
41.0378	54
45.0336	54
51.0237	134
55.0534	54
57.0329	161
65.0387	269
72.987	161
77.0387	837
79.0544	188
91.0557	161
92.0265	80
93.0335	323
93.0687	27
95.05	216
100.0783	188
103.0532	242
105.0706	134
107.0494	27
110.0368	729
116.9762	80
119.0516	27
120.0551	80
121.0295	999
121.0622	161
122.0361	890
125.0632	80
131.0379	27
132.0318	54
135.0819	80
