Mass spectrum: Trifloxystrobin; LC-ESI-QTOF; MS2; 140 V
Name: Trifloxystrobin
Class: Fungicide
Formula: C20H19F3N2O4
Exact mass: 408.1297
SMILES: CC(=NOCC1=CC=CC=C1C(=NOC)C(=O)OC)C2=CC(=CC=C2)C(F)(F)F
InChI: InChI=1S/C20H19F3N2O4/c1-13(14-8-6-9-16(11-14)20(21,22)23)24-29-12-15-7-4-5-10-17(15)18(25-28-3)19(26)27-2/h4-11H,12H2,1-3H3
Instrument: TripleTOF 5600 SCIEX
Instrument type: LC-ESI-QTOF
Ms type: MS2
Ion mode: POSITIVE
Collision energy: 140
Fragmentation mode: CID
Ionization: ESI
Column name: Zorbax Eclipse Plus C18 2.1 mm x 150 mm, 3.5 um, Agilent
Retention time: 15.037 min
Precursor m/z: 409.137
Precursor type: [M+H]+
m/z	relative intensity
51.0334	62
57.0234	25
59.0216	11
65.0465	95
69.0014	98
73.0132	24
74.0216	373
75.0278	914
76.0358	12
77.0442	250
78.052	32
81.0182	28
88.0327	24
89.0429	999
90.0495	156
91.058	137
95.0328	463
99.0072	86
102.0466	15
103.0565	123
104.0537	21
105.0154	12
114.0353	27
115.0417	14
116.0516	246
117.0591	75
118.0672	67
119.0119	40
123.0383	17
125.0213	162
128.0513	10
130.067	146
131.0742	21
145.0278	153
