Mass spectrum: Trichlorfon; LC-ESI-QTOF; MS2; 50 V
Name: Trichlorfon
Class: Insecticide
Formula: C4H8Cl3O4P
Exact mass: 255.9226
SMILES: COP(=O)(C(C(Cl)(Cl)Cl)O)OC
InChI: InChI=1S/C4H8Cl3O4P/c1-10-12(9,11-2)3(8)4(5,6)7/h3,8H,1-2H3
Instrument: TripleTOF 6600 SCIEX
Instrument type: LC-ESI-QTOF
Ms type: MS2
Ion mode: POSITIVE
Collision energy: 50
Fragmentation mode: CID
Ionization: ESI
Column name: Zorbax Eclipse Plus C18 2.1 mm x 150 mm, 3.5 um, Agilent
Retention time: 6.251 min
Precursor m/z: 256.9299
Precursor type: [M+H]+
m/z	relative intensity
46.9671	264
48.9828	39
62.998	107
78.9934	999
82.9437	548
92.9721	48
93.0088	107
96.9593	29
109.0036	891
110.9388	29
112.9535	19
127.014	73
