Mass spectrum: Abacavir; LC-ESI-QTOF; MS2; 140 V
Name: Abacavir
Class: Pharmaceutical
Formula: C14H18N6O
Exact mass: 286.1542
SMILES: Nc1nc(NC2CC2)c3ncn([C@@H]4C[C@H](CO)C=C4)c3n1
InChI: InChI=1S/C14H18N6O/c15-14-18-12(17-9-2-3-9)11-13(19-14)20(7-16-11)10-4-1-8(5-10)6-21/h1,4,7-10,21H,2-3,5-6H2,(H3,15,17,18,19)/t8-,10+/m1/s1
Instrument: TripleTOF 5600 SCIEX
Instrument type: LC-ESI-QTOF
Ms type: MS2
Ion mode: POSITIVE
Collision energy: 140
Fragmentation mode: CID
Ionization: ESI
Column name: Zorbax Eclipse Plus C18 2.1 mm x 150 mm, 3.5 um, Agilent
Retention time: 5.094 min
Precursor m/z: 287.1615
Precursor type: [M+H]+
m/z	relative intensity
38.0123	19
40.0268	50
42.0424	37
43.0367	48
52.0234	33
53.0191	207
53.0442	37
54.0259	61
55.0351	81
65.0178	183
65.043	95
66.0261	79
67.034	28
67.0583	227
68.0293	128
68.0528	15
74.019	11
76.022	11
77.0421	999
78.0375	13
79.0576	103
80.0276	19
80.0383	11
81.0351	11
92.026	30
94.04	22
