Mass spectrum: Codeinone; LC-ESI-QTOF; MS2; 100 V
Name: Codeinone
Class: Pharmaceutical
Formula: C18H19NO3
Exact mass: 297.1365
SMILES: CN1CCC23C4C1CC5=C2C(=C(C=C5)OC)OC3C(=O)C=C4
InChI: InChI=1S/C18H19NO3/c1-19-8-7-18-11-4-5-13(20)17(18)22-16-14(21-2)6-3-10(15(16)18)9-12(11)19/h3-6,11-12,17H,7-9H2,1-2H3
Instrument: TripleTOF 5600 SCIEX
Instrument type: LC-ESI-QTOF
Ms type: MS2
Ion mode: POSITIVE
Collision energy: 100
Fragmentation mode: CID
Ionization: ESI
Column name: Zorbax Eclipse Plus C18 2.1 mm x 150 mm, 3.5 um, Agilent
Retention time: 5.057 min
Precursor m/z: 298.1438
Precursor type: [M+H]+
m/z	relative intensity
44.0603	13
65.0463	22
74.0207	15
75.0271	24
76.036	15
77.044	141
78.0524	27
87.0278	25
88.0355	34
89.0422	110
91.0581	31
101.0406	36
102.0475	89
103.0543	15
113.0395	115
114.0477	120
115.0551	351
125.0409	22
126.0476	122
127.0556	231
128.0628	139
137.0387	12
138.0488	27
139.0554	999
140.0601	86
141.0703	67
142.0394	13
149.0398	10
150.048	125
151.0549	319
152.0628	581
153.0715	56
154.0663	12
155.0515	37
163.0559	113
164.0635	72
165.0698	100
166.0678	13
168.0607	29
176.0629	74
177.0717	18
178.0757	39
180.0797	13
181.0647	18
183.0437	10
187.0556	25
189.0701	27
