Mass spectrum: Neburon; LC-ESI-QTOF; MS2; 140 V
Name: Neburon
Class: Herbicide
Formula: C12H16Cl2N2O
Exact mass: 274.064
SMILES: CCCCN(C)C(=O)Nc1ccc(Cl)c(Cl)c1
InChI: InChI=1S/C12H16Cl2N2O/c1-3-4-7-16(2)12(17)15-9-5-6-10(13)11(14)8-9/h5-6,8H,3-4,7H2,1-2H3,(H,15,17)
Instrument: TripleTOF 5600 SCIEX
Instrument type: LC-ESI-QTOF
Ms type: MS2
Ion mode: POSITIVE
Collision energy: 140
Fragmentation mode: CID
Ionization: ESI
Column name: Zorbax Eclipse Plus C18 2.1 mm x 150 mm, 3.5 um, Agilent
Retention time: 13.559 min
Precursor m/z: 275.0712
Precursor type: [M+H]+
m/z	relative intensity
58.0316	108
65.0411	127
72.9862	435
73.0113	326
74.0179	999
75.0251	145
82.947	181
83.9787	145
98.999	90
106.953	90
