Mass spectrum: Telmisartan; LC-ESI-QTOF; MS2; 120 V
Name: Telmisartan
Class: Pharmaceutical; Personal_care_product
Formula: C33H30N4O2
Exact mass: 514.2369
SMILES: CCCc1nc2c(C)cc(cc2n1Cc3ccc(cc3)c4ccccc4C(O)=O)c5nc6ccccc6n5C
InChI: InChI=1S/C33H30N4O2/c1-4-9-30-35-31-21(2)18-24(32-34-27-12-7-8-13-28(27)36(32)3)19-29(31)37(30)20-22-14-16-23(17-15-22)25-10-5-6-11-26(25)33(38)39/h5-8,10-19H,4,9,20H2,1-3H3,(H,38,39)
Instrument: TripleTOF 5600 SCIEX
Instrument type: LC-ESI-QTOF
Ms type: MS2
Ion mode: POSITIVE
Collision energy: 120
Fragmentation mode: CID
Ionization: ESI
Column name: Zorbax Eclipse Plus C18 2.1 mm x 150 mm, 3.5 um, Agilent
Retention time: 8.861 min
Precursor m/z: 515.2442
Precursor type: [M+H]+
m/z	relative intensity
65.0448	166
77.0412	432
92.0521	133
115.0526	266
128.0635	166
131.0621	166
139.0544	233
143.0587	166
152.0622	532
153.0709	299
156.0631	133
164.0634	166
165.0697	999
168.0544	133
193.0737	266
205.0773	233
206.0827	333
207.086	266
218.0693	166
219.0902	166
220.088	366
231.0768	299
232.0832	233
233.0947	366
234.1043	266
244.0855	199
245.083	266
246.0979	566
258.0861	133
259.0968	666
260.1061	566
261.1123	765
273.115	532
275.1297	399
