Mass spectrum: 1-Oxo-ibuprofen; LC-ESI-QTOF; MS2; 90 V
Name: 1-Oxo-ibuprofen
Class: Pharmaceutical; Transformation_product
Formula: C13H16O3
Exact mass: 220.1099
SMILES: CC(C)C(=O)C1=CC=C(C=C1)C(C)C(=O)O
InChI: InChI=1S/C13H16O3/c1-8(2)12(14)11-6-4-10(5-7-11)9(3)13(15)16/h4-9H,1-3H3,(H,15,16)
Instrument: TripleTOF 5600 SCIEX
Instrument type: LC-ESI-QTOF
Ms type: MS2
Ion mode: POSITIVE
Collision energy: 90
Fragmentation mode: CID
Ionization: ESI
Column name: Zorbax Eclipse Plus C18 2.1 mm x 150 mm, 3.5 um, Agilent
Retention time: 10.239 min
Precursor m/z: 221.1172
Precursor type: [M+H]+
m/z	relative intensity
43.0258	317
55.06	45
57.0754	30
65.0426	385
77.0413	999
78.0486	128
79.0562	151
89.04	83
91.0558	582
102.0475	83
103.0541	151
105.0686	52
115.0539	522
116.0605	37
117.069	52
127.0565	90
128.0621	181
141.0715	52
