Mass spectrum: 4,4`-Thiodianiline; LC-ESI-QTOF; MS2; 120 V
Name: 4,4`-Thiodianiline
Formula: C12H12N2S
Exact mass: 216.0721
SMILES: C1=CC(=CC=C1N)SC2=CC=C(C=C2)N
InChI: InChI=1S/C12H12N2S/c13-9-1-5-11(6-2-9)15-12-7-3-10(14)4-8-12/h1-8H,13-14H2
Instrument: TripleTOF 6600 SCIEX
Instrument type: LC-ESI-QTOF
Ms type: MS2
Ion mode: POSITIVE
Collision energy: 120
Fragmentation mode: CID
Ionization: ESI
Column name: Zorbax Eclipse Plus C18 2.1 mm x 150 mm, 3.5 um, Agilent
Retention time: 6.429 min
Precursor m/z: 217.0794
Precursor type: [M+H]+
m/z	relative intensity
37.0066	203
38.0143	122
39.0227	326
44.9788	101
49.0061	142
50.0144	999
51.0217	224
53.0375	407
61.0069	163
62.0141	387
63.0226	468
65.037	81
68.9785	448
74.0131	550
75.0216	142
76.0293	101
80.0489	142
86.0142	183
87.0217	142
89.0371	122
98.0124	101
123.0106	81
127.0511	101
