Mass spectrum: Pentoxifylline; LC-ESI-QTOF; MS2; 80 V
Name: Pentoxifylline
Class: Pharmaceutical
Formula: C13H18N4O3
Exact mass: 278.1379
SMILES: Cn1cnc2N(C)C(=O)N(CCCCC(C)=O)C(=O)c12
InChI: InChI=1S/C13H18N4O3/c1-9(18)6-4-5-7-17-12(19)10-11(14-8-15(10)2)16(3)13(17)20/h8H,4-7H2,1-3H3
Instrument: TripleTOF 5600 SCIEX
Instrument type: LC-ESI-QTOF
Ms type: MS2
Ion mode: POSITIVE
Collision energy: 80
Fragmentation mode: CID
Ionization: ESI
Column name: Zorbax Eclipse Plus C18 2.1 mm x 150 mm, 3.5 um, Agilent
Retention time: 6.772 min
Precursor m/z: 279.1452
Precursor type: [M+H]+
m/z	relative intensity
42.0429	999
43.0273	761
53.0193	149
54.0266	40
54.041	74
56.0551	217
66.0277	27
67.0335	903
68.0415	387
69.0489	394
70.0355	54
77.0442	33
79.0339	27
81.0462	122
82.0555	101
83.063	400
85.0407	47
94.0421	74
95.0498	67
96.0571	33
108.0563	81
109.0407	88
110.0709	169
113.0349	40
122.0596	224
123.0428	468
138.0676	88
163.0615	33
