Mass spectrum: Dimethomorph; LC-ESI-QTOF; MS2; 130 V
Name: Dimethomorph
Class: Fungicide
Formula: C21H22ClNO4
Exact mass: 387.1237
SMILES: COc1ccc(cc1OC)/C(=C\C(=O)N2CCOCC2)/c3ccc(cc3)Cl
InChI: InChI=1S/C21H22ClNO4/c1-25-19-8-5-16(13-20(19)26-2)18(15-3-6-17(22)7-4-15)14-21(24)23-9-11-27-12-10-23/h3-8,13-14H,9-12H2,1-2H3/b18-14-
Instrument: TripleTOF 5600 SCIEX
Instrument type: LC-ESI-QTOF
Ms type: MS2
Ion mode: POSITIVE
Collision energy: 130
Fragmentation mode: CID
Ionization: ESI
Column name: Zorbax Eclipse Plus C18 2.1 mm x 150 mm, 3.5 um, Agilent
Retention time: 11.552 min
Precursor m/z: 388.131
Precursor type: [M+H]+
m/z	relative intensity
42.0433	26
64.0366	11
65.0424	50
66.0499	22
70.0309	12
72.9871	10
74.0178	82
75.0256	110
76.0327	23
77.0414	81
78.0477	11
79.0212	10
86.0168	13
87.0248	17
89.0411	66
90.0487	10
92.0271	20
98.0154	32
98.999	21
99.0234	29
100.0304	9
101.0388	9
102.0466	61
107.0124	17
110.9998	63
113.0391	24
114.0466	26
115.0544	106
121.0281	30
125.0152	9
125.0384	38
126.0463	193
127.0532	18
128.0621	18
137.0383	39
138.0462	51
139.0537	136
149.0144	48
149.0388	23
150.0463	227
151.0539	448
152.0621	570
160.0064	23
161.0383	13
162.0472	78
163.0544	999
164.0619	276
165.0698	396
173.0144	33
174.0459	18
175.0534	38
176.0614	207
177.0689	25
178.0778	31
186.0248	10
199.0311	29
