Mass spectrum: 4,4`-Thiodianiline; LC-ESI-QTOF; MS2; 40 V
Name: 4,4`-Thiodianiline
Formula: C12H12N2S
Exact mass: 216.0721
SMILES: C1=CC(=CC=C1N)SC2=CC=C(C=C2)N
InChI: InChI=1S/C12H12N2S/c13-9-1-5-11(6-2-9)15-12-7-3-10(14)4-8-12/h1-8H,13-14H2
Instrument: TripleTOF 6600 SCIEX
Instrument type: LC-ESI-QTOF
Ms type: MS2
Ion mode: POSITIVE
Collision energy: 40
Fragmentation mode: CID
Ionization: ESI
Column name: Zorbax Eclipse Plus C18 2.1 mm x 150 mm, 3.5 um, Agilent
Retention time: 6.429 min
Precursor m/z: 217.0794
Precursor type: [M+H]+
m/z	relative intensity
66.045	12
76.0306	16
80.0485	319
93.0564	100
97.0101	24
115.0524	14
123.0122	21
124.0203	999
125.0249	12
128.0602	16
129.0664	10
139.0533	226
152.0597	16
155.0669	10
156.0787	35
157.0816	16
166.0616	37
167.0714	159
171.0246	66
172.0331	47
173.0372	11
183.0249	155
183.0893	18
184.032	162
184.0967	85
185.1012	109
198.0327	35
199.0435	427
200.0518	151
211.0311	11
215.0616	27
216.0689	102
217.0787	105
