Mass spectrum: Guaifenesin; LC-ESI-QTOF; MS2; 20 V
Name: Guaifenesin
Formula: C10H14O4
Exact mass: 198.0892
SMILES: COC1=CC=CC=C1OCC(CO)O
InChI: InChI=1S/C10H14O4/c1-13-9-4-2-3-5-10(9)14-7-8(12)6-11/h2-5,8,11-12H,6-7H2,1H3
Instrument: TripleTOF X500R SCIEX
Instrument type: LC-ESI-QTOF
Ms type: MS2
Ion mode: POSITIVE
Collision energy: 20
Fragmentation mode: CID
Ionization: ESI
Column name: Zorbax Eclipse Plus C18 2.1 mm x 150 mm, 3.5 um, Agilent
Retention time: 6.298 min
Precursor m/z: 199.0965
Precursor type: [M+H]+
m/z	relative intensity
45.0328	31
55.0183	15
57.0341	222
65.0382	23
74.0964	39
75.0435	47
77.0393	39
91.0555	63
93.0342	309
93.0708	63
95.0492	301
103.0543	111
105.0688	150
107.049	63
108.0589	15
110.0366	293
116.9767	364
119.0515	31
121.0268	79
121.0431	7
121.0657	364
122.0358	420
123.0448	380
125.06	999
131.0495	47
132.0562	118
135.0535	23
135.0803	237
136.0541	47
137.06	229
145.0674	47
148.0517	142
151.0755	594
158.0026	134
163.076	499
199.0993	15
