Mass spectrum: N-[2-[(2-Bromo-4,6-dinitrophenyl)azo]-5-(diethylamino)phenyl]acetamide; LC-ESI-QTOF; MS2; 30 V
Name: N-[2-[(2-Bromo-4,6-dinitrophenyl)azo]-5-(diethylamino)phenyl]acetamide
Formula: C18H19BrN6O5
Exact mass: 478.06
SMILES: CCN(CC)C1=CC(=C(C=C1)N=NC2=C(C=C(C=C2Br)[N+](=O)[O-])[N+](=O)[O-])NC(=O)C
InChI: InChI=1S/C18H19BrN6O5/c1-4-23(5-2)12-6-7-15(16(9-12)20-11(3)26)21-22-18-14(19)8-13(24(27)28)10-17(18)25(29)30/h6-10H,4-5H2,1-3H3,(H,20,26)
Instrument: TripleTOF X500R SCIEX
Instrument type: LC-ESI-QTOF
Ms type: MS2
Ion mode: POSITIVE
Collision energy: 30
Fragmentation mode: CID
Ionization: ESI
Column name: Zorbax Eclipse Plus C18 2.1 mm x 150 mm, 3.5 um, Agilent
Retention time: 16.579 min
Precursor m/z: 479.0673
Precursor type: [M+H]+
m/z	relative intensity
121.0768	12
149.1078	12
162.1033	45
163.0874	40
163.1247	13
177.1031	161
178.1104	72
191.118	999
204.1135	17
205.1085	34
205.1316	11
206.1414	870
272.9262	17
345.0481	10
375.0454	34
391.0563	33
409.0264	117
420.0534	47
437.0571	820
450.0297	107
451.0379	38
479.0678	934
