Mass spectrum: C-desmethyl-metoprolol; LC-ESI-QTOF; MS2; 130 V
Name: C-desmethyl-metoprolol
Formula: C14H23NO3
Exact mass: 253.1678
SMILES: CCNCC(COC1=CC=C(C=C1)CCOC)O
InChI: InChI=1S/C14H23NO3/c1-3-15-10-13(16)11-18-14-6-4-12(5-7-14)8-9-17-2/h4-7,13,15-16H,3,8-11H2,1-2H3
Instrument: TripleTOF 5600 SCIEX
Instrument type: LC-ESI-QTOF
Ms type: MS2
Ion mode: POSITIVE
Collision energy: 130
Fragmentation mode: CID
Ionization: ESI
Column name: Zorbax Eclipse Plus C18 2.1 mm x 150 mm, 3.5 um, Agilent
Retention time: 5.422 min
Precursor m/z: 254.1751
Precursor type: [M+H]+
m/z	relative intensity
38.0147	44
39.0231	159
41.0394	44
44.0498	61
45.0332	61
49.0082	53
50.0154	415
51.0233	999
58.0649	185
61.0073	35
62.0147	70
63.0237	159
65.0388	212
74.0154	88
75.0234	53
76.0307	53
77.0385	503
89.0377	123
91.0549	150
102.0451	44
