Mass spectrum: Dibutyl phosphate; LC-ESI-QTOF; MS2; 60 V
Name: Dibutyl phosphate
Class: Industrial_process
Formula: C8H19O4P
Exact mass: 210.1021
SMILES: CCCCOP(=O)(O)OCCCC
InChI: InChI=1S/C8H19O4P/c1-3-5-7-11-13(9,10)12-8-6-4-2/h3-8H2,1-2H3,(H,9,10)
Instrument: TripleTOF 5600 SCIEX
Instrument type: LC-ESI-QTOF
Ms type: MS2
Ion mode: POSITIVE
Collision energy: 60
Fragmentation mode: CID
Ionization: ESI
Column name: Zorbax Eclipse Plus C18 2.1 mm x 150 mm, 3.5 um, Agilent
Retention time: 8.013 min
Precursor m/z: 211.1094
Precursor type: [M+H]+
m/z	relative intensity
41.0369	15
62.9626	121
80.9732	999
98.9838	646
