Mass spectrum: Omethoate; LC-ESI-QTOF; MS2; 140 V
Name: Omethoate
Class: Insecticide; Transformation_product
Formula: C5H12NO4PS
Exact mass: 213.0225
InChI: InChI=1S/C5H12NO4PS/c1-6-5(7)4-12-11(8,9-2)10-3/h4H2,1-3H3,(H,6,7)
Instrument: TripleTOF 6600 SCIEX
Instrument type: LC-ESI-QTOF
Ms type: CID
Ion mode: POSITIVE
Collision energy: 140
Ionization: ESI
Column name: Zorbax Eclipse Plus C18 2.1 mm x 150 mm, 3.5 um, Agilent
Retention time: 4.837 min
Precursor m/z: 214.0298
Precursor type: [M+H]+
m/z	relative intensity
43.9705	208
44.9779	999
46.9672	749
