Mass spectrum: Clonidine; LC-ESI-QTOF; MS2; 50 V
Name: Clonidine
Class: Pharmaceutical
Formula: C9H9Cl2N3
Exact mass: 229.0174
SMILES: C1CN=C(N1)NC2=C(C=CC=C2Cl)Cl
InChI: InChI=1S/C9H9Cl2N3/c10-6-2-1-3-7(11)8(6)14-9-12-4-5-13-9/h1-3H,4-5H2,(H2,12,13,14)
Instrument: TripleTOF 6600 SCIEX
Instrument type: LC-ESI-QTOF
Ms type: MS2
Ion mode: POSITIVE
Collision energy: 50
Fragmentation mode: CID
Ionization: ESI
Column name: Zorbax Eclipse Plus C18 2.1 mm x 150 mm, 3.5 um, Agilent
Retention time: 5.408 min
Precursor m/z: 230.0246
Precursor type: [M+H]+
m/z	relative intensity
42.0341	121
44.049	999
59.0592	51
69.0443	32
72.983	64
74.0141	76
75.0216	32
82.9434	25
90.0334	64
96.9823	38
98.9984	96
100.0168	121
104.0485	51
108.9827	416
115.029	38
116.0474	38
117.0428	32
118.0511	70
123.9937	537
125.0022	134
126.0104	32
131.0594	147
132.0672	102
132.96	563
133.0611	44
135.9952	134
138.0096	64
139.007	44
144.9594	307
151.0172	153
152.0122	166
153.0218	51
158.0696	83
158.9732	32
159.0785	70
159.971	640
160.0862	89
160.978	96
163.9991	243
165.021	38
167.039	44
171.9706	192
172.9666	204
184.9644	115
185.9871	96
186.9806	198
194.0472	121
212.9977	160
230.0252	83
