Mass spectrum: Dehydroepiandrosterone; LC-ESI-QTOF; MS2; 50 V
Name: Dehydroepiandrosterone
Class: Pharmaceutical
Formula: C19H28O2
Exact mass: 288.2089
SMILES: C[C@]12CC[C@H]3[C@@H](CC=C4C[C@@H](O)CC[C@]34C)[C@@H]1CCC2=O
InChI: InChI=1S/C19H28O2/c1-18-9-7-13(20)11-12(18)3-4-14-15-5-6-17(21)19(15,2)10-8-16(14)18/h3,13-16,20H,4-11H2,1-2H3/t13-,14-,15-,16-,18-,19-/m0/s1
Instrument: TripleTOF 5600 SCIEX
Instrument type: LC-ESI-QTOF
Ms type: MS2
Ion mode: POSITIVE
Collision energy: 50
Fragmentation mode: CID
Ionization: ESI
Column name: Zorbax Eclipse Plus C18 2.1 mm x 150 mm, 3.5 um, Agilent
Retention time: 11.589 min
Precursor m/z: 289.2162
Precursor type: [M+H]+
m/z	relative intensity
67.0571	139
77.0435	185
79.0573	278
81.0715	464
91.0546	999
93.0697	325
95.0848	185
105.0695	696
107.0865	185
117.07	348
119.085	418
127.0534	92
128.062	441
129.0698	627
130.0762	139
131.085	464
133.099	232
135.1207	139
141.0682	302
142.0774	487
143.0851	348
145.1001	511
147.1147	162
153.0666	139
154.076	116
155.0849	325
156.0926	185
157.1014	580
159.1159	278
167.0815	185
169.1007	394
171.1166	325
173.1322	116
182.1089	162
183.1174	162
184.1204	116
185.1291	116
197.1292	162
