Mass spectrum: 2-N-methyl-lamotrigine; LC-ESI-QTOF; MS2; 100 V
Name: 2-N-methyl-lamotrigine
Class: Metabolite; Pharmaceutical
Formula: C10H9Cl2N5
Exact mass: 269.0235
SMILES: CN1N=C(C2=CC=CC(Cl)=C2Cl)C(N)=NC1=N
InChI: InChI=1S/C10H9Cl2N5/c1-17-10(14)15-9(13)8(16-17)5-3-2-4-6(11)7(5)12/h2-4H,1H3,(H3,13,14,15)
Instrument: TripleTOF 5600 SCIEX
Instrument type: LC-ESI-QTOF
Ms type: MS2
Ion mode: POSITIVE
Collision energy: 100
Fragmentation mode: CID
Ionization: ESI
Column name: Zorbax Eclipse Plus C18 2.1 mm x 150 mm, 3.5 um, Agilent
Retention time: 6.444 min
Precursor m/z: 270.0308
Precursor type: [M+H]+
m/z	relative intensity
43.0366	198
57.0502	999
68.0274	21
72.9868	263
73.0095	73
74.018	501
75.0117	25
75.026	125
76.0204	25
77.0423	47
83.9778	17
84.9863	25
86.0155	38
87.0245	121
88.0195	99
88.0331	86
89.0401	38
96.9852	134
99.01	302
100.0185	518
102.0336	34
106.944	17
108.9836	160
110.9986	43
114.0347	168
115.0403	25
121.993	60
122.9993	419
123.9963	43
135.9946	47
137.0004	17
149.0019	34
156.963	34
