Mass spectrum: N-[2-[(2-Bromo-4,6-dinitrophenyl)azo]-5-(diethylamino)phenyl]acetamide; LC-ESI-QTOF; MS2; 40 V
Name: N-[2-[(2-Bromo-4,6-dinitrophenyl)azo]-5-(diethylamino)phenyl]acetamide
Formula: [C18H19BrN6O5]-
Exact mass: 478.06
SMILES: CCN(CC)C1=CC(=C(C=C1)N=NC2=C(C=C(C=C2Br)[N+](=O)[O-])[N+](=O)[O-])NC(=O)C
InChI: InChI=1S/C18H19BrN6O5/c1-4-23(5-2)12-6-7-15(16(9-12)20-11(3)26)21-22-18-14(19)8-13(24(27)28)10-17(18)25(29)30/h6-10H,4-5H2,1-3H3,(H,20,26)
Instrument: TripleTOF 6600 SCIEX
Instrument type: LC-ESI-QTOF
Ms type: MS2
Ion mode: NEGATIVE
Collision energy: 40
Fragmentation mode: CID
Ionization: ESI
Column name: Zorbax Eclipse Plus C18 2.1 mm x 150 mm, 3.5 um, Agilent
Retention time: 16.579 min
Precursor m/z: 478.0614
Precursor type: [M]-
m/z	relative intensity
45.9971	10
78.9182	999
117.0438	12
120.0095	14
132.0691	36
146.9363	10
163.1229	10
175.0845	15
185.9337	14
186.9261	487
199.9328	93
203.0936	11
205.1356	51
214.9219	149
215.9289	211
224.0586	10
224.1274	53
229.9317	378
230.9425	32
238.0623	38
242.938	19
244.918	231
252.0794	28
254.0547	150
269.0754	19
270.0793	11
281.1169	49
282.0626	25
282.1311	13
296.0634	14
296.1393	10
297.0797	17
298.1173	28
309.0637	15
311.1156	18
317.991	14
326.1202	37
326.1848	10
327.0851	10
333.9801	140
339.1018	18
348.9957	14
349.0083	13
359.0444	11
360.0214	40
361.9906	60
362.0481	16
368.1424	23
369.088	17
377.0119	26
378.0473	267
404.0002	462
406.0491	888
419.0143	34
434.0023	16
448.0598	437
449.017	322
