Mass spectrum: Dextrorphan; LC-ESI-QTOF; MS2; 150 V
Name: Dextrorphan
Class: Pharmaceutical; Metabolite
Formula: C17H23NO
Exact mass: 257.178
SMILES: CN1CC[C@@]23CCCC[C@@H]2[C@@H]1CC4=C3C=C(C=C4)O
InChI: InChI=1S/C17H23NO/c1-18-9-8-17-7-3-2-4-14(17)16(18)10-12-5-6-13(19)11-15(12)17/h5-6,11,14,16,19H,2-4,7-10H2,1H3/t14-,16+,17+/m1/s1
Instrument: TripleTOF 5600 SCIEX
Instrument type: LC-ESI-QTOF
Ms type: MS2
Ion mode: POSITIVE
Collision energy: 150
Fragmentation mode: CID
Ionization: ESI
Column name: Zorbax Eclipse Plus C18 2.1 mm x 150 mm, 3.5 um, Agilent
Retention time: 5.969 min
Precursor m/z: 258.1852
Precursor type: [M+H]+
m/z	relative intensity
44.0651	74
65.0425	175
73.0113	47
74.0189	542
75.0269	334
76.0344	318
77.0419	999
78.0495	180
85.0116	53
86.0172	185
87.0251	132
88.0353	37
89.0417	435
91.0562	47
98.0166	154
99.0239	31
100.0325	26
101.0412	85
102.0474	382
103.0553	31
113.0385	69
114.0488	31
115.0549	281
125.0399	31
126.0466	228
127.0551	180
128.0644	138
137.0373	31
139.0556	116
150.0469	79
151.0545	69
152.061	42
163.0545	58
