Mass spectrum: Prallethrin; LC-ESI-QTOF; MS2; 20 V
Name: Prallethrin
Class: Insecticide
Formula: C19H24O3
Exact mass: 300.1725
SMILES: CC1=C(C(=O)CC1OC(=O)C2C(C2(C)C)C=C(C)C)CC#C
InChI: InChI=1S/C19H24O3/c1-7-8-13-12(4)16(10-15(13)20)22-18(21)17-14(9-11(2)3)19(17,5)6/h1,9,14,16-17H,8,10H2,2-6H3
Instrument: TripleTOF 6600 SCIEX
Instrument type: LC-ESI-QTOF
Ms type: MS2
Ion mode: POSITIVE
Collision energy: 20
Fragmentation mode: CID
Ionization: ESI
Column name: Zorbax Eclipse Plus C18 2.1 mm x 150 mm, 3.5 um, Agilent
Retention time: 14.861 min
Precursor m/z: 301.1798
Precursor type: [M+H]+
m/z	relative intensity
55.0183	35
69.0703	52
77.0387	24
79.0546	69
81.0703	46
83.0857	20
91.0547	11
95.0858	16
101.0603	13
103.0543	41
105.0704	713
107.0861	12
109.0648	23
109.102	16
113.0599	36
115.0539	29
121.101	70
123.1174	902
133.0652	999
135.0806	16
139.1121	17
149.0963	61
151.1124	367
157.1013	12
167.1063	35
169.1225	251
199.112	40
213.129	14
213.1646	12
255.1764	30
283.1688	17
301.1797	28
