Mass spectrum: Metalaxyl; LC-ESI-QTOF; MS2; 30 V
Name: Metalaxyl
Class: Fungicide
Formula: C15H21NO4
Exact mass: 279.1471
SMILES: CC1=C(C(=CC=C1)C)N(C(C)C(=O)OC)C(=O)COC
InChI: InChI=1S/C15H21NO4/c1-10-7-6-8-11(2)14(10)16(13(17)9-19-4)12(3)15(18)20-5/h6-8,12H,9H2,1-5H3
Instrument: TripleTOF 6600 SCIEX
Instrument type: LC-ESI-QTOF
Ms type: MS2
Ion mode: POSITIVE
Collision energy: 30
Fragmentation mode: CID
Ionization: ESI
Column name: Zorbax Eclipse Plus C18 2.1 mm x 150 mm, 3.5 um, Agilent
Retention time: 10.17 min
Precursor m/z: 280.1543
Precursor type: [M+H]+
m/z	relative intensity
45.0337	123
132.0804	15
133.0885	33
134.0963	58
145.0881	27
146.0963	50
148.1121	166
160.1122	999
162.1278	138
165.1142	28
192.1388	905
220.1334	232
