Mass spectrum: Abacavir; LC-ESI-QTOF; MS2; 80 V
Name: Abacavir
Class: Pharmaceutical
Formula: C14H18N6O
Exact mass: 286.1542
SMILES: Nc1nc(NC2CC2)c3ncn([C@@H]4C[C@H](CO)C=C4)c3n1
InChI: InChI=1S/C14H18N6O/c15-14-18-12(17-9-2-3-9)11-13(19-14)20(7-16-11)10-4-1-8(5-10)6-21/h1,4,7-10,21H,2-3,5-6H2,(H3,15,17,18,19)/t8-,10+/m1/s1
Instrument: TripleTOF 5600 SCIEX
Instrument type: LC-ESI-QTOF
Ms type: MS2
Ion mode: POSITIVE
Collision energy: 80
Fragmentation mode: CID
Ionization: ESI
Column name: Zorbax Eclipse Plus C18 2.1 mm x 150 mm, 3.5 um, Agilent
Retention time: 5.094 min
Precursor m/z: 287.1615
Precursor type: [M+H]+
m/z	relative intensity
43.0407	25
53.0201	21
54.0273	15
55.035	70
56.0544	10
58.0693	35
65.018	32
65.0426	29
66.0239	18
66.0374	11
67.0581	154
68.0273	30
68.0532	23
77.0424	999
78.0362	35
79.0572	364
80.0268	126
80.0502	11
81.0349	28
81.0454	15
82.042	78
92.0257	139
93.0337	13
93.0461	23
94.0412	43
95.0611	37
105.0437	38
106.0265	11
106.0399	23
107.0358	443
108.0434	279
109.051	225
119.0351	53
120.0548	31
121.0507	17
123.0538	18
130.0402	10
132.0543	20
133.038	94
134.0465	448
147.0672	10
148.0617	15
149.0726	13
150.0644	94
174.079	13
175.0721	71
