Mass spectrum: Prochloraz; LC-ESI-QTOF; MS2; 140 V
Name: Prochloraz
Class: Fungicide
Formula: C15H16Cl3N3O2
Exact mass: 375.0308
SMILES: CCCN(CCOc1c(cc(cc1Cl)Cl)Cl)C(=O)n2ccnc2
InChI: InChI=1S/C15H16Cl3N3O2/c1-2-4-20(15(22)21-5-3-19-10-21)6-7-23-14-12(17)8-11(16)9-13(14)18/h3,5,8-10H,2,4,6-7H2,1H3
Instrument: TripleTOF 6600 SCIEX
Instrument type: LC-ESI-QTOF
Ms type: MS2
Ion mode: POSITIVE
Collision energy: 140
Fragmentation mode: CID
Ionization: ESI
Column name: Zorbax Eclipse Plus C18 2.1 mm x 150 mm, 3.5 um, Agilent
Retention time: 11.258 min
Precursor m/z: 376.0381
Precursor type: [M+H]+
m/z	relative intensity
37.0079	127
38.0153	145
39.0229	508
41.0389	363
42.0337	199
46.9679	127
56.0492	108
61.0077	108
62.0152	272
63.0232	363
70.0654	72
71.9754	290
72.9838	472
73.0074	363
74.0147	544
82.9447	744
89.0393	236
95.9752	90
96.9837	326
98.9991	72
106.945	563
107.9755	999
108.9852	199
