Mass spectrum: Fenpropimorph; LC-ESI-QTOF; MS2; 70 V
Name: Fenpropimorph
Class: Pharmaceutical; Fungicide
Formula: C20H33NO
Exact mass: 303.2562
SMILES: CC(CN1C[C@H](C)O[C@H](C)C1)Cc2ccc(cc2)C(C)(C)C
InChI: InChI=1S/C20H33NO/c1-15(12-21-13-16(2)22-17(3)14-21)11-18-7-9-19(10-8-18)20(4,5)6/h7-10,15-17H,11-14H2,1-6H3/t15?,16-,17+
Instrument: TripleTOF 5600 SCIEX
Instrument type: LC-ESI-QTOF
Ms type: MS2
Ion mode: POSITIVE
Collision energy: 70
Fragmentation mode: CID
Ionization: ESI
Column name: Zorbax Eclipse Plus C18 2.1 mm x 150 mm, 3.5 um, Agilent
Retention time: 9.527 min
Precursor m/z: 304.2635
Precursor type: [M+H]+
m/z	relative intensity
55.0598	10
57.0752	37
65.0425	16
70.068	16
77.0414	62
78.0482	12
79.0568	55
91.0562	352
98.0966	28
103.0542	47
104.0623	94
105.0702	218
107.0848	26
115.0545	247
116.0617	31
117.0698	999
119.0855	240
129.0684	12
131.0854	117
132.0932	509
145.1002	10
147.1161	51
