Mass spectrum: (Methoxymethyl)triphenylphosphonium; LC-ESI-QTOF; MS2; 150 V
Name: (Methoxymethyl)triphenylphosphonium
Class: Industrial_process
Formula: [C20H20OP]+
Exact mass: 307.1246
SMILES: COC[P+](C1=CC=CC=C1)(C2=CC=CC=C2)C3=CC=CC=C3
InChI: InChI=1S/C20H20OP/c1-21-17-22(18-11-5-2-6-12-18,19-13-7-3-8-14-19)20-15-9-4-10-16-20/h2-16H,17H2,1H3/q+1
Instrument: TripleTOF 5600 SCIEX
Instrument type: LC-ESI-QTOF
Ms type: MS2
Ion mode: POSITIVE
Collision energy: 150
Fragmentation mode: CID
Ionization: ESI
Column name: Zorbax Eclipse Plus C18 2.1 mm x 150 mm, 3.5 um, Agilent
Retention time: 7.502 min
Precursor m/z: 307.1246
Precursor type: [M]+
m/z	relative intensity
39.0232	133
45.0339	630
50.0154	117
51.023	170
56.989	192
62.0153	138
63.0227	406
65.0384	144
67.9813	48
74.0145	192
75.0234	74
76.0301	144
77.0374	138
78.9721	133
79.9802	368
80.988	592
86.0139	128
87.0212	176
89.0365	427
91.9794	112
98.0132	154
102.0447	160
103.9786	170
104.9869	90
107.0031	999
113.0372	138
115.0527	224
125.0395	69
126.0454	368
131.0044	149
139.0538	176
150.0461	528
151.0539	566
152.0614	347
155.0052	144
156.0128	138
157.0216	186
179.005	149
180.013	197
181.0204	416
