Mass spectrum: Promethazine; LC-ESI-QTOF; MS2; 40 V
Name: Promethazine
Class: Pharmaceutical
Formula: C17H20N2S
Exact mass: 284.1347
SMILES: CC(CN1c2ccccc2Sc3c1cccc3)N(C)C
InChI: InChI=1S/C17H20N2S/c1-13(18(2)3)12-19-14-8-4-6-10-16(14)20-17-11-7-5-9-15(17)19/h4-11,13H,12H2,1-3H3
Instrument: TripleTOF 5600 SCIEX
Instrument type: LC-ESI-QTOF
Ms type: MS2
Ion mode: POSITIVE
Collision energy: 40
Fragmentation mode: CID
Ionization: ESI
Column name: Zorbax Eclipse Plus C18 2.1 mm x 150 mm, 3.5 um, Agilent
Retention time: 7.995 min
Precursor m/z: 285.142
Precursor type: [M+H]+
m/z	relative intensity
56.057	53
58.071	12
70.0699	11
71.0795	218
84.0845	33
86.1019	753
105.0724	18
109.0127	10
128.0535	12
154.0685	81
162.0397	40
166.0692	19
171.0299	30
193.0923	12
197.033	35
198.042	999
206.1003	32
207.1072	22
223.0493	11
224.0578	48
225.0653	49
240.0899	87
285.1483	11
