Mass spectrum: 2-(Ethylthio)benzothiazole; LC-ESI-QTOF; MS2; 50 V
Name: 2-(Ethylthio)benzothiazole
Class: Pharmaceutical
Formula: C9H9NS2
Exact mass: 195.0176
SMILES: CCSc1sc2ccccc2n1
InChI: InChI=1S/C9H9NS2/c1-2-11-9-10-7-5-3-4-6-8(7)12-9/h3-6H,2H2,1H3
Instrument: TripleTOF 5600 SCIEX
Instrument type: LC-ESI-QTOF
Ms type: MS2
Ion mode: POSITIVE
Collision energy: 50
Fragmentation mode: CID
Ionization: ESI
Column name: Zorbax Eclipse Plus C18 2.1 mm x 150 mm, 3.5 um, Agilent
Retention time: 13.742 min
Precursor m/z: 196.0249
Precursor type: [M+H]+
m/z	relative intensity
65.043	271
66.0512	27
68.9826	23
77.0416	239
80.0517	119
90.0348	35
91.0424	47
91.0529	23
92.0504	139
96.0025	31
108.0031	107
109.011	391
110.0192	115
123.0139	63
124.0216	267
134.0082	71
135.0142	999
136.0213	423
140.9827	23
166.9853	75
167.9928	207
