Mass spectrum: N-Desmethyltramadol; LC-ESI-QTOF; MS2; 100 V
Name: N-Desmethyltramadol
Class: Transformation_product; Metabolite
Formula: C15H23NO2
Exact mass: 249.1729
SMILES: CNCC1CCCCC1(C2=CC(=CC=C2)OC)O
InChI: InChI=1S/C15H23NO2/c1-16-11-13-6-3-4-9-15(13,17)12-7-5-8-14(10-12)18-2/h5,7-8,10,13,16-17H,3-4,6,9,11H2,1-2H3
Instrument: TripleTOF 6600 SCIEX
Instrument type: LC-ESI-QTOF
Ms type: MS2
Ion mode: POSITIVE
Collision energy: 100
Fragmentation mode: CID
Ionization: ESI
Column name: Zorbax Eclipse Plus C18 2.1 mm x 150 mm, 3.5 um, Agilent
Retention time: 6.246 min
Precursor m/z: 250.1802
Precursor type: [M+H]+
m/z	relative intensity
30.0337	10
39.0227	28
42.034	115
43.0414	24
44.0499	999
50.015	35
51.0228	57
52.0307	14
62.015	11
63.0227	61
64.0306	13
65.0381	35
77.0383	52
78.046	34
89.0379	20
91.0548	32
102.0456	13
115.0532	49
127.0536	11
128.0603	18
