Mass spectrum: 4-Acetamidoantipyrine; LC-ESI-QTOF; MS2; 30 V
Name: 4-Acetamidoantipyrine
Class: Pharmaceutical; Metabolite; Transformation_product
Formula: C13H15N3O2
Exact mass: 245.1164
SMILES: CN1N(C(=O)C(=C1C)NC(C)=O)c2ccccc2
InChI: InChI=1S/C13H15N3O2/c1-9-12(14-10(2)17)13(18)16(15(9)3)11-7-5-4-6-8-11/h4-8H,1-3H3,(H,14,17)
Instrument: TripleTOF 5600 SCIEX
Instrument type: LC-ESI-QTOF
Ms type: MS2
Ion mode: POSITIVE
Collision energy: 30
Fragmentation mode: CID
Ionization: ESI
Column name: Zorbax Eclipse Plus C18 2.1 mm x 150 mm, 3.5 um, Agilent
Retention time: 5.586 min
Precursor m/z: 246.1237
Precursor type: [M+H]+
m/z	relative intensity
43.026	12
56.0563	253
77.0421	73
83.0642	999
85.0784	47
94.067	109
104.0512	941
111.0559	33
118.0656	13
119.0607	17
128.0502	12
130.0651	15
131.0615	22
132.0449	16
144.0799	27
145.0777	90
146.0601	52
158.0571	28
159.0922	326
171.055	30
172.0635	78
173.0713	98
185.0708	51
185.0998	11
186.0787	42
187.0871	142
189.0896	36
200.0833	21
200.1181	20
204.1137	396
213.0896	87
226.0967	45
228.1139	840
246.1245	12
