Mass spectrum: Ethisterone; LC-ESI-QTOF; MS2; 150 V
Name: Ethisterone
Class: Pharmaceutical; Metabolite
Formula: C21H28O2
Exact mass: 312.2089
SMILES: C[C@]12CCC(=O)C=C1CC[C@@H]3[C@@H]2CC[C@@]4(C)[C@H]3CC[C@@]4(O)C#C
InChI: InChI=1S/C21H28O2/c1-4-21(23)12-9-18-16-6-5-14-13-15(22)7-10-19(14,2)17(16)8-11-20(18,21)3/h1,13,16-18,23H,5-12H2,2-3H3/t16-,17+,18+,19+,20+,21+/m1/s1
Instrument: TripleTOF 5600 SCIEX
Instrument type: LC-ESI-QTOF
Ms type: MS2
Ion mode: POSITIVE
Collision energy: 150
Fragmentation mode: CID
Ionization: ESI
Column name: Zorbax Eclipse Plus C18 2.1 mm x 150 mm, 3.5 um, Agilent
Retention time: 11.662 min
Precursor m/z: 313.2162
Precursor type: [M+H]+
m/z	relative intensity
43.024	68
43.0337	34
51.0289	594
53.042	51
55.0217	34
55.0585	51
65.0426	404
67.0573	43
74.0176	60
75.0247	51
76.0329	43
77.0412	999
77.0677	34
78.0498	68
79.0563	189
89.0392	137
91.0544	249
97.0647	34
102.0468	137
115.0545	335
126.0455	94
127.0522	86
128.0601	129
139.0536	51
151.0546	60
152.0625	77
163.0544	60
