Mass spectrum: Morantel; LC-ESI-QTOF; MS2; 40 V
Name: Morantel
Class: Pharmaceutical
Formula: C12H16N2S
Exact mass: 220.1034
SMILES: CN1CCCN=C1/C=C/c2sccc2C
InChI: InChI=1S/C12H16N2S/c1-10-6-9-15-11(10)4-5-12-13-7-3-8-14(12)2/h4-6,9H,3,7-8H2,1-2H3/b5-4+
Instrument: TripleTOF 5600 SCIEX
Instrument type: LC-ESI-QTOF
Ms type: MS2
Ion mode: POSITIVE
Collision energy: 40
Fragmentation mode: CID
Ionization: ESI
Column name: Zorbax Eclipse Plus C18 2.1 mm x 150 mm, 3.5 um, Agilent
Retention time: 6.042 min
Precursor m/z: 221.1107
Precursor type: [M+H]+
m/z	relative intensity
44.0574	56
57.0757	24
67.0581	45
69.0478	72
69.0722	20
70.0686	46
72.0839	48
77.0406	77
79.0565	154
81.0713	47
83.0875	13
91.0557	87
93.0712	26
97.0108	36
103.0534	18
105.0687	45
106.066	78
107.085	26
109.101	35
111.0265	523
111.0907	42
116.0506	15
117.0577	119
118.0644	21
119.0838	31
121.0104	14
121.0666	44
122.0193	40
123.0268	999
123.0926	11
124.0348	13
130.0643	15
131.0722	39
133.0098	28
133.1015	16
134.0163	23
135.0263	28
135.0811	26
136.0985	52
137.0421	37
137.0952	10
138.0371	46
145.0773	10
148.0234	15
148.1112	10
149.0291	255
150.0375	805
153.0603	10
159.0917	23
162.0381	15
163.0461	18
164.053	805
166.0681	16
173.1076	183
177.0484	25
187.1225	105
188.1301	109
189.1371	19
191.0636	39
192.0701	21
193.0788	25
205.0795	105
206.0865	31
221.1108	967
