Mass spectrum: Triphenyl(2-pyridylmethyl)phosphonium; LC-ESI-QTOF; MS2; 30 V
Name: Triphenyl(2-pyridylmethyl)phosphonium
Formula: [C24H21NP]+
Exact mass: 354.1406
SMILES: c1ccc(cc1)[P+](Cc2ccccn2)(c3ccccc3)c4ccccc4
InChI: InChI=1S/C24H21NP/c1-4-13-22(14-5-1)26(23-15-6-2-7-16-23,24-17-8-3-9-18-24)20-21-12-10-11-19-25-21/h1-19H,20H2/q+1
Instrument: TripleTOF 5600 SCIEX
Instrument type: LC-ESI-QTOF
Ms type: MS2
Ion mode: POSITIVE
Collision energy: 30
Fragmentation mode: CID
Ionization: ESI
Column name: Zorbax Eclipse Plus C18 2.1 mm x 150 mm, 3.5 um, Agilent
Retention time: 8.341 min
Precursor m/z: 354.1406
Precursor type: [M]+
m/z	relative intensity
108.0123	69
168.0809	55
183.0355	82
184.0435	57
185.0515	55
261.0828	171
262.0905	999
