Mass spectrum: Mefloquine; LC-ESI-QTOF; MS2; 110 V
Name: Mefloquine
Class: Pharmaceutical
Formula: C17H16F6N2O
Exact mass: 378.1167
SMILES: C1CCNC(C1)C(C2=CC(=NC3=C2C=CC=C3C(F)(F)F)C(F)(F)F)O
InChI: InChI=1S/C17H16F6N2O/c18-16(19,20)11-5-3-4-9-10(15(26)12-6-1-2-7-24-12)8-13(17(21,22)23)25-14(9)11/h3-5,8,12,15,24,26H,1-2,6-7H2
Instrument: TripleTOF 5600 SCIEX
Instrument type: LC-ESI-QTOF
Ms type: MS2
Ion mode: POSITIVE
Collision energy: 110
Fragmentation mode: CID
Ionization: ESI
Column name: Zorbax Eclipse Plus C18 2.1 mm x 150 mm, 3.5 um, Agilent
Retention time: 8.432 min
Precursor m/z: 379.124
Precursor type: [M+H]+
m/z	relative intensity
42.0494	25
44.0638	15
51.0137	12
54.0412	34
54.0493	18
56.0583	173
65.0461	37
67.0483	211
68.0556	275
69.0003	246
70.0691	88
74.0219	47
75.0088	88
75.0271	82
76.0341	12
77.0436	63
80.0516	142
81.017	41
81.0588	31
82.0692	581
83.0334	37
84.084	196
85.0101	18
86.0207	25
87.0252	56
88.0202	15
88.0323	37
93.0187	37
94.024	25
95.0108	12
95.0316	22
96.0826	37
97.0075	15
98.017	94
99.0089	82
99.025	189
100.0221	34
101.0226	22
101.0423	34
102.0392	15
102.0498	12
105.0138	25
106.0232	50
107.0297	53
110.0168	34
111.023	66
112.017	34
112.0312	15
113.039	164
114.034	60
114.0474	50
115.055	50
117.0139	41
118.0236	34
119.013	31
119.029	31
121.0069	22
122.0149	63
123.0234	186
124.0193	256
125.0212	44
125.0394	227
126.0431	199
127.0517	154
128.0522	50
128.0649	15
129.0151	12
130.0088	18
131.0297	158
132.0364	173
133.0454	233
134.0431	18
135.0228	12
136.0212	37
137.0196	18
137.0386	107
138.0458	312
139.0504	312
140.0498	575
141.0133	113
142.0039	15
142.0266	15
143.0302	252
144.0253	164
145.0324	120
146.0426	37
147.0169	116
148.0197	268
149.0262	404
150.0188	31
150.0401	306
151.0494	505
152.0495	670
153.0565	224
154.0426	22
154.0643	60
155.029	85
156.0317	158
157.0428	192
158.0401	534
159.0466	18
161.0204	199
162.0292	316
163.0388	366
164.0497	853
165.0203	18
165.0582	499
166.0229	15
166.0438	15
166.0648	230
167.0194	414
167.0616	31
167.0757	25
168.0287	569
169.0403	423
170.0403	233
170.0665	12
171.0074	15
171.0499	79
172.029	56
173.0182	63
174.0246	249
175.037	379
176.0349	613
177.0557	300
178.0359	12
178.0628	151
179.0285	28
179.0614	284
180.0228	104
180.0418	15
180.0648	56
181.0323	395
182.0392	844
183.0461	237
184.0561	214
185.0198	50
185.0505	18
185.0624	12
186.0265	312
187.0329	414
188.0368	588
189.0391	486
190.0608	252
191.0063	37
191.0323	15
191.0636	88
192.015	22
192.0274	41
192.0684	123
193.0272	271
193.0756	53
194.0241	999
195.0468	354
196.0439	227
197.0233	15
197.048	72
198.0216	47
198.0442	15
198.0648	12
199.0352	164
199.0638	18
200.0324	474
201.04	256
202.0474	455
203.0668	148
204.0152	37
204.0741	79
205.0302	72
205.0773	79
206.0376	303
207.0355	218
207.0691	12
208.0345	101
208.0505	192
209.0489	186
210.0148	12
210.0601	63
211.0163	126
212.0338	98
213.0385	464
214.0421	300
215.0508	189
216.033	28
216.0533	34
216.0686	15
217.0287	50
217.0729	25
218.0216	214
218.087	18
219.0417	85
219.089	37
220.0362	243
221.0513	98
222.0579	82
223.0464	12
223.0667	53
224.0293	126
225.0421	91
226.0464	278
227.0442	142
228.0488	69
228.0662	18
229.0459	18
229.0652	53
229.0805	18
230.032	25
230.0552	15
231.0299	104
232.0413	129
233.0442	91
233.06	47
234.0519	113
235.0491	25
235.0658	34
236.0598	31
237.0381	53
238.0293	268
239.0439	56
240.054	34
241.0591	72
242.0667	22
243.0326	25
243.0779	12
244.0223	12
244.04	75
245.0321	12
245.0483	37
246.0546	53
247.0534	34
247.0718	18
248.0714	18
249.0639	47
250.0409	31
251.0409	53
252.0386	44
252.0593	18
253.0404	12
253.0604	15
254.0458	15
254.0636	28
255.0089	12
255.0756	15
257.0426	31
258.0374	22
258.0561	18
259.0487	28
260.0552	18
261.0588	18
263.0238	15
264.0351	12
264.0533	28
267.0769	25
268.0797	18
269.0929	34
270.0359	12
271.0478	41
278.0731	15
