Mass spectrum: Metoclopramide; LC-ESI-QTOF; MS2; 100 V
Name: Metoclopramide
Class: Pharmaceutical
Formula: C14H22ClN3O2
Exact mass: 299.1401
InChI: InChI=1S/C14H22ClN3O2/c1-4-18(5-2)7-6-17-14(19)10-8-11(15)12(16)9-13(10)20-3/h8-9H,4-7,16H2,1-3H3,(H,17,19)
Instrument: TripleTOF 5600 SCIEX
Instrument type: LC-ESI-QTOF
Ms type: CID
Ion mode: POSITIVE
Collision energy: 100
Ionization: ESI
Column name: Zorbax Eclipse Plus C18 2.1 mm x 150 mm, 3.5 um, Agilent
Retention time: 5.459 min
Precursor m/z: 300.1473
Precursor type: [M+H]+
m/z	relative intensity
52.0285	31
65.0454	20
66.0528	11
72.99	61
78.0396	999
90.038	84
91.0454	18
92.0526	16
93.061	31
99.0036	44
105.0481	45
113.0057	477
114.014	12
126.0095	10
127.0187	12
139.0067	14
140.0141	19
140.9991	91
168.0098	25
