Mass spectrum: Bosentan; LC-ESI-QTOF; MS2; 90 V
Name: Bosentan
Class: Pharmaceutical
Formula: C27H29N5O6S
Exact mass: 551.1839
SMILES: CC(C)(C)C1=CC=C(C=C1)S(=O)(=O)NC2=C(C(=NC(=N2)C3=NC=CC=N3)OCCO)OC4=CC=CC=C4OC
InChI: InChI=1S/C27H29N5O6S/c1-27(2,3)18-10-12-19(13-11-18)39(34,35)32-23-22(38-21-9-6-5-8-20(21)36-4)26(37-17-16-33)31-25(30-23)24-28-14-7-15-29-24/h5-15,33H,16-17H2,1-4H3,(H,30,31,32)
Instrument: TripleTOF 5600 SCIEX
Instrument type: LC-ESI-QTOF
Ms type: MS2
Ion mode: POSITIVE
Collision energy: 90
Fragmentation mode: CID
Ionization: ESI
Column name: Zorbax Eclipse Plus C18 2.1 mm x 150 mm, 3.5 um, Agilent
Retention time: 12.118 min
Precursor m/z: 552.1911
Precursor type: [M+H]+
m/z	relative intensity
52.0266	14
65.0449	30
69.0522	11
77.043	127
78.0504	44
79.0334	161
79.0584	21
80.0415	361
81.0468	12
89.0411	11
90.0501	11
91.0563	89
92.0524	15
93.0367	59
95.0512	39
97.042	86
102.0353	18
103.053	14
104.0508	62
105.0343	11
105.068	98
106.0415	999
107.0245	24
107.0496	63
108.0576	67
109.0301	29
109.0529	20
115.0539	18
116.0507	34
117.0672	27
118.0517	25
118.0741	11
119.0605	85
120.0457	396
121.0287	29
122.0594	104
123.0665	77
124.0508	32
130.0369	12
131.0601	60
132.0451	41
132.0687	55
133.0525	62
134.0386	11
134.0593	56
135.0556	96
143.0612	22
144.0444	58
145.046	10
146.0482	19
147.061	392
148.0398	10
148.0716	17
149.0467	85
149.0676	15
157.0461	19
158.06	15
159.055	13
159.0785	10
161.0712	12
162.0548	13
163.0532	12
171.0554	24
172.0418	12
174.0787	34
175.0592	138
176.058	16
197.0813	42
202.0717	61
203.0776	11
207.0661	19
209.0817	16
220.0739	11
221.0846	12
223.059	11
224.0913	48
225.0756	16
237.0733	13
248.0941	15
249.0764	10
250.0702	12
252.0885	26
263.0565	69
264.0859	30
276.0897	23
279.0741	19
280.0824	385
292.0777	12
