Mass spectrum: Doxorubicin; LC-ESI-QTOF; MS2; 60 V
Name: Doxorubicin
Class: Pharmaceutical
Formula: C27H29NO11
Exact mass: 543.1741
SMILES: C[C@H]1[C@H]([C@H](C[C@@H](O1)O[C@H]2C[C@@](Cc3c2c(c4c(c3O)C(=O)c5cccc(c5C4=O)OC)O)(C(=O)CO)O)N)O
InChI: InChI=1S/C27H29NO11/c1-10-22(31)13(28)6-17(38-10)39-15-8-27(36,16(30)9-29)7-12-19(15)26(35)21-20(24(12)33)23(32)11-4-3-5-14(37-2)18(11)25(21)34/h3-5,10,13,15,17,22,29,31,33,35-36H,6-9,28H2,1-2H3/t10-,13-,15-,17-,22+,27-/m0/s1
Instrument: TripleTOF 5600 SCIEX
Instrument type: LC-ESI-QTOF
Ms type: MS2
Ion mode: POSITIVE
Collision energy: 60
Fragmentation mode: CID
Ionization: ESI
Column name: Zorbax Eclipse Plus C18 2.1 mm x 150 mm, 3.5 um, Agilent
Retention time: 7.064 min
Precursor m/z: 544.1813
Precursor type: [M+H]+
m/z	relative intensity
69.0383	30
71.0519	19
72.048	42
86.0606	168
86.0779	19
112.0785	22
113.0601	34
121.0634	22
130.0847	68
135.0443	53
145.0275	19
217.0526	19
234.0693	22
247.0742	22
259.0734	26
275.0709	42
277.0849	26
287.0706	84
290.0562	53
293.0762	22
302.0608	15
303.0654	45
305.0831	53
306.0502	348
308.07	15
315.0618	45
317.043	22
318.051	15
320.074	42
321.074	470
323.0856	19
332.0654	22
333.0752	126
343.062	42
346.0457	999
361.0695	233
364.0572	38
