Mass spectrum: Antipyrine; LC-ESI-QTOF; MS2; 60 V
Name: Antipyrine
Class: Pharmaceutical
Formula: C11H12N2O
Exact mass: 188.095
SMILES: CN1N(C(=O)C=C1C)c2ccccc2
InChI: InChI=1S/C11H12N2O/c1-9-8-11(14)13(12(9)2)10-6-4-3-5-7-10/h3-8H,1-2H3
Instrument: TripleTOF 5600 SCIEX
Instrument type: LC-ESI-QTOF
Ms type: MS2
Ion mode: POSITIVE
Collision energy: 60
Fragmentation mode: CID
Ionization: ESI
Column name: Zorbax Eclipse Plus C18 2.1 mm x 150 mm, 3.5 um, Agilent
Retention time: 6.261 min
Precursor m/z: 189.1022
Precursor type: [M+H]+
m/z	relative intensity
42.0427	30
54.0385	14
56.055	430
58.0699	37
65.042	124
77.0417	999
78.0482	62
79.0553	52
80.0515	13
81.0478	21
82.0322	13
89.0386	58
90.0463	40
91.0553	127
92.05	24
93.0575	17
95.0608	21
101.0398	20
102.0445	42
103.0537	52
104.049	143
105.0515	16
106.0636	75
115.0535	118
116.0513	14
117.0564	58
118.0649	40
128.0497	37
129.057	14
130.0639	96
131.0591	119
132.0683	20
143.0694	10
144.0792	10
145.0742	39
