Mass spectrum: Acridone; LC-ESI-QTOF; MS2; 100 V
Name: Acridone
Class: Metabolite; Pharmaceutical; Transformation_product
Formula: C13H9NO
Exact mass: 195.0684
SMILES: O=C1c2ccccc2Nc3ccccc13
InChI: InChI=1S/C13H9NO/c15-13-9-5-1-3-7-11(9)14-12-8-4-2-6-10(12)13/h1-8H,(H,14,15)
Instrument: TripleTOF 5600 SCIEX
Instrument type: LC-ESI-QTOF
Ms type: MS2
Ion mode: POSITIVE
Collision energy: 100
Fragmentation mode: CID
Ionization: ESI
Column name: Zorbax Eclipse Plus C18 2.1 mm x 150 mm, 3.5 um, Agilent
Retention time: 8.5 min
Precursor m/z: 196.0757
Precursor type: [M+H]+
m/z	relative intensity
51.0288	284
52.0219	55
52.0357	14
60.0048	34
63.0606	11
64.0343	63
65.0423	191
73.0102	55
74.0183	400
75.013	11
75.0258	232
76.02	34
76.0335	84
77.0421	104
78.0378	14
78.0478	17
85.0081	75
86.0172	241
87.0246	444
88.0207	72
88.0315	182
89.0407	903
90.0353	20
90.0465	29
91.055	26
97.0077	14
98.0156	124
99.0237	92
100.0323	26
101.0399	20
102.048	26
109.0075	14
110.0144	46
111.0229	37
112.0194	17
112.0309	14
113.0393	943
114.0355	159
115.0544	275
116.0485	37
122.0162	17
123.0084	17
126.0458	49
127.0432	11
128.0495	11
137.0393	136
138.0461	174
139.0548	999
140.05	592
164.0487	119
165.0575	34
166.0652	72
