Mass spectrum: Temazepam; LC-ESI-QTOF; MS2; 110 V
Name: Temazepam
Class: Pharmaceutical
Formula: C16H13ClN2O2
Exact mass: 300.0666
SMILES: CN1C2=C(C=C(C=C2)Cl)C(=NC(C1=O)O)C3=CC=CC=C3
InChI: InChI=1S/C16H13ClN2O2/c1-19-13-8-7-11(17)9-12(13)14(18-15(20)16(19)21)10-5-3-2-4-6-10/h2-9,15,20H,1H3
Instrument: TripleTOF 6600 SCIEX
Instrument type: LC-ESI-QTOF
Ms type: MS2
Ion mode: POSITIVE
Collision energy: 110
Fragmentation mode: CID
Ionization: ESI
Column name: Zorbax Eclipse Plus C18 2.1 mm x 150 mm, 3.5 um, Agilent
Retention time: 10.497 min
Precursor m/z: 301.0738
Precursor type: [M+H]+
m/z	relative intensity
37.0059	18
38.0138	19
39.0212	86
46.9659	9
48.9819	29
50.0138	88
51.0214	292
59.9972	18
61.0052	69
62.0133	138
63.0213	357
64.0164	10
64.0284	24
65.0369	106
66.0445	33
72.982	204
73.0056	37
74.0135	254
75.0082	11
75.0208	261
76.0173	17
76.0286	39
77.0369	402
78.0437	16
84.9822	30
85.006	14
86.0128	23
87.0212	48
88.0156	26
88.0284	42
89.0368	573
90.0326	17
90.0441	73
91.0518	28
92.0478	14
96.9821	31
98.013	74
99.0074	245
100.0163	237
101.0366	22
102.0321	16
102.0442	34
104.0473	49
106.063	21
108.9821	12
110.0128	11
110.9972	21
111.0218	13
113.0365	65
114.0338	46
115.0516	188
116.0471	33
117.0549	12
122.013	29
122.9974	33
123.0201	70
123.9922	47
124.0279	36
125.0081	14
125.0364	103
126.0452	103
127.0176	19
127.0495	61
128.0515	28
129.0433	11
137.0375	31
138.0446	32
139.0524	315
140.0474	152
148.0285	17
149.0367	247
150.0445	999
151.0519	485
152.0592	184
153.0544	33
161.0333	12
162.0452	44
163.0525	411
164.0595	312
165.0675	345
166.0634	150
167.0706	32
168.0712	11
174.0356	20
175.04	213
176.0475	270
177.0558	534
178.0641	79
179.0653	39
180.0805	17
188.0475	16
189.0553	18
190.0654	85
191.0654	62
192.0681	108
193.0741	30
200.0319	10
202.0508	68
203.0584	37
204.0547	46
211.0164	22
