Mass spectrum: Oseltamivir; LC-ESI-QTOF; MS2; 30 V
Name: Oseltamivir
Class: Pharmaceutical
Formula: C16H28N2O4
Exact mass: 312.2049
SMILES: CCC(CC)O[C@@H]1C=C(C[C@@H]([C@H]1/N=C(\C)/O)N)C(=O)OCC
InChI: InChI=1S/C16H28N2O4/c1-5-12(6-2)22-14-9-11(16(20)21-7-3)8-13(17)15(14)18-10(4)19/h9,12-15H,5-8,17H2,1-4H3,(H,18,19)/t13-,14+,15+/m0/s1
Instrument: TripleTOF 5600 SCIEX
Instrument type: LC-ESI-QTOF
Ms type: MS2
Ion mode: POSITIVE
Collision energy: 30
Fragmentation mode: CID
Ionization: ESI
Column name: Zorbax Eclipse Plus C18 2.1 mm x 150 mm, 3.5 um, Agilent
Retention time: 6.973 min
Precursor m/z: 313.2122
Precursor type: [M+H]+
m/z	relative intensity
92.0506	19
93.0349	18
93.0578	13
94.0669	140
95.0501	13
109.0764	32
111.044	21
119.0601	11
120.045	371
122.0967	24
136.0761	102
137.0716	160
138.0552	88
139.0383	10
139.075	23
140.0708	18
151.0871	11
161.0713	23
162.0549	76
166.0871	999
167.07	22
179.0816	40
180.0657	37
183.1125	19
208.0979	138
225.1249	24
226.108	50
