Mass spectrum: 2,6-Dimethylquinoline; LC-ESI-QTOF; MS2; 40 V
Name: 2,6-Dimethylquinoline
Formula: C11H11N
Exact mass: 157.0891
SMILES: CC1=CC2=C(C=C1)N=C(C=C2)C
InChI: InChI=1S/C11H11N/c1-8-3-6-11-10(7-8)5-4-9(2)12-11/h3-7H,1-2H3
Instrument: TripleTOF 6600 SCIEX
Instrument type: LC-ESI-QTOF
Ms type: MS2
Ion mode: POSITIVE
Collision energy: 40
Fragmentation mode: CID
Ionization: ESI
Column name: Zorbax Eclipse Plus C18 2.1 mm x 150 mm, 3.5 um, Agilent
Retention time: 5.162 min
Precursor m/z: 158.0964
Precursor type: [M+H]+
m/z	relative intensity
39.0225	15
65.0376	47
89.0378	22
91.0537	559
102.0453	22
115.0537	999
116.0597	153
117.0564	21
128.0509	34
129.0681	17
130.0639	14
131.0716	17
140.0479	31
141.0562	17
142.0641	289
143.0722	394
156.0797	254
157.0877	522
158.0956	641
