Mass spectrum: Triphenylphosphine oxide; LC-ESI-QTOF; MS2; 40 V
Name: Triphenylphosphine oxide
Class: Industrial_process
Formula: C18H15OP
Exact mass: 278.0861
SMILES: O=[P](c1ccccc1)(c2ccccc2)c3ccccc3
InChI: InChI=1S/C18H15OP/c19-20(16-10-4-1-5-11-16,17-12-6-2-7-13-17)18-14-8-3-9-15-18/h1-15H
Instrument: TripleTOF 5600 SCIEX
Instrument type: LC-ESI-QTOF
Ms type: MS2
Ion mode: POSITIVE
Collision energy: 40
Fragmentation mode: CID
Ionization: ESI
Column name: Zorbax Eclipse Plus C18 2.1 mm x 150 mm, 3.5 um, Agilent
Retention time: 10.458 min
Precursor m/z: 279.0933
Precursor type: [M+H]+
m/z	relative intensity
77.0419	62
95.0053	21
122.9993	19
128.0626	19
129.0702	18
133.0193	10
154.077	22
171.0365	49
173.0519	156
183.0359	34
201.0462	999
279.0942	144
