Mass spectrum: Tetrahydroharman-3-carboxylic acid; LC-ESI-QTOF; MS2; 30 V
Name: Tetrahydroharman-3-carboxylic acid
Formula: C13H14N2O2
Exact mass: 230.1055
SMILES: CC1C2=C(CC(N1)C(=O)O)C3=CC=CC=C3N2
InChI: InChI=1S/C13H14N2O2/c1-7-12-9(6-11(14-7)13(16)17)8-4-2-3-5-10(8)15-12/h2-5,7,11,14-15H,6H2,1H3,(H,16,17)
Instrument: TripleTOF 6600 SCIEX
Instrument type: LC-ESI-QTOF
Ms type: MS2
Ion mode: POSITIVE
Collision energy: 30
Fragmentation mode: CID
Ionization: ESI
Column name: Zorbax Eclipse Plus C18 2.1 mm x 150 mm, 3.5 um, Agilent
Retention time: 5.62 min
Precursor m/z: 231.1128
Precursor type: [M+H]+
m/z	relative intensity
74.0231	49
117.0556	11
117.0682	10
118.0645	45
130.0645	153
142.0649	10
143.0724	239
144.0797	70
146.0595	126
154.0646	105
156.0802	52
157.0875	64
158.096	999
167.0715	20
168.0802	272
169.0868	17
170.0946	16
188.0697	42
196.0748	20
214.0852	20
