Mass spectrum: Nitrazepam; LC-ESI-QTOF; MS2; 70 V
Name: Nitrazepam
Class: Pharmaceutical
Formula: C15H11N3O3
Exact mass: 281.08
SMILES: C1C(=O)NC2=C(C=C(C=C2)[N+](=O)[O-])C(=N1)C3=CC=CC=C3
InChI: InChI=1S/C15H11N3O3/c19-14-9-16-15(10-4-2-1-3-5-10)12-8-11(18(20)21)6-7-13(12)17-14/h1-8H,9H2,(H,17,19)
Instrument: TripleTOF 6600 SCIEX
Instrument type: LC-ESI-QTOF
Ms type: MS2
Ion mode: POSITIVE
Collision energy: 70
Fragmentation mode: CID
Ionization: ESI
Column name: Zorbax Eclipse Plus C18 2.1 mm x 150 mm, 3.5 um, Agilent
Retention time: 9.435 min
Precursor m/z: 282.0873
Precursor type: [M+H]+
m/z	relative intensity
51.0226	33
65.038	26
75.0222	16
76.03	47
77.0375	280
78.0339	21
78.0457	30
89.0377	38
90.0446	10
91.053	72
102.0325	56
103.0411	101
104.048	188
113.0389	15
115.0536	62
116.049	35
117.0559	27
125.0388	10
126.0459	24
127.0532	111
128.061	67
129.0439	136
130.0401	30
130.0515	31
139.0528	75
140.0488	106
141.0669	19
150.0445	43
151.0534	341
152.0608	999
153.0683	413
154.0629	88
155.0601	28
163.0529	247
164.0595	175
165.0679	219
166.064	72
167.0709	120
168.0779	27
176.0503	12
177.056	68
178.0639	228
179.072	343
180.0797	931
181.0772	16
188.0454	10
189.0556	57
190.064	696
191.0722	162
192.0689	113
193.0842	45
194.0808	10
205.0752	446
206.082	310
207.0913	185
