Mass spectrum: Xanthosine; LC-ESI-QTOF; MS2; 30 V
Name: Xanthosine
Class: Natural_product
Formula: C10H12N4O6
Exact mass: 284.0757
InChI: InChI=1S/C10H12N4O6/c15-1-3-5(16)6(17)9(20-3)14-2-11-4-7(14)12-10(19)13-8(4)18/h2-3,5-6,9,15-17H,1H2,(H2,12,13,18,19)
Instrument: TripleTOF 5600 SCIEX
Instrument type: LC-ESI-QTOF
Ms type: CID
Ion mode: POSITIVE
Collision energy: 30
Ionization: ESI
Column name: Zorbax Eclipse Plus C18 2.1 mm x 150 mm, 3.5 um, Agilent
Retention time: 4.346 min
Precursor m/z: 285.083
Precursor type: [M+H]+
m/z	relative intensity
55.0275	31
57.0418	34
57.0507	11
69.041	37
71.0178	17
73.0335	49
85.0328	66
87.051	11
97.0312	28
103.0428	20
110.0377	28
115.0403	75
133.0514	80
136.0146	167
153.0409	999
