Mass spectrum: Progesterone; LC-ESI-QTOF; MS2; 40 V
Name: Progesterone
Class: Pharmaceutical
Formula: C21H30O2
Exact mass: 314.2246
SMILES: CC(=O)[C@H]1CC[C@H]2[C@@H]3CCC4=CC(=O)CC[C@]4(C)[C@H]3CC[C@]12C
InChI: InChI=1S/C21H30O2/c1-13(22)17-6-7-18-16-5-4-14-12-15(23)8-10-20(14,2)19(16)9-11-21(17,18)3/h12,16-19H,4-11H2,1-3H3/t16-,17+,18-,19-,20-,21+/m0/s1
Instrument: TripleTOF 5600 SCIEX
Instrument type: LC-ESI-QTOF
Ms type: MS2
Ion mode: POSITIVE
Collision energy: 40
Fragmentation mode: CID
Ionization: ESI
Column name: Zorbax Eclipse Plus C18 2.1 mm x 150 mm, 3.5 um, Agilent
Retention time: 13.796 min
Precursor m/z: 315.2319
Precursor type: [M+H]+
m/z	relative intensity
43.0264	21
67.0571	15
69.0741	15
77.0417	22
79.0571	97
81.072	91
83.0509	36
85.0657	11
91.0557	39
93.071	34
95.086	47
97.067	790
105.0696	39
107.0854	30
109.066	999
117.0689	11
119.0848	43
121.0658	10
121.101	22
123.0803	107
131.0849	36
133.1003	34
135.1159	14
143.0861	17
145.1006	48
147.1157	31
149.0942	13
157.1008	20
159.1163	34
161.1306	17
163.1104	17
171.1149	23
173.1314	26
177.1263	15
183.1159	12
185.1315	12
187.1454	14
197.1298	10
199.1457	11
239.1783	13
