Mass spectrum: Myclobutanil; LC-ESI-QTOF; MS2; 30 V
Name: Myclobutanil
Class: Fungicide
Formula: C15H17ClN4
Exact mass: 288.1142
SMILES: CCCCC(Cn1cncn1)(C#N)c2ccc(Cl)cc2
InChI: InChI=1S/C15H17ClN4/c1-2-3-8-15(9-17,10-20-12-18-11-19-20)13-4-6-14(16)7-5-13/h4-7,11-12H,2-3,8,10H2,1H3
Instrument: TripleTOF 6600 SCIEX
Instrument type: LC-ESI-QTOF
Ms type: MS2
Ion mode: POSITIVE
Collision energy: 30
Fragmentation mode: CID
Ionization: ESI
Column name: Zorbax Eclipse Plus C18 2.1 mm x 150 mm, 3.5 um, Agilent
Retention time: 12.025 min
Precursor m/z: 289.1215
Precursor type: [M+H]+
m/z	relative intensity
70.0407	999
125.0158	398
151.0311	110
164.0261	34
168.0932	11
178.0417	26
193.0777	14
203.0621	15
220.0888	29
289.1215	21
