Mass spectrum: Acebutolol; LC-ESI-QTOF; MS2; 120 V
Name: Acebutolol
Class: Pharmaceutical
Formula: C18H28N2O4
Exact mass: 336.2049
SMILES: CCCC(=O)Nc1ccc(OCC(O)CNC(C)C)c(c1)C(C)=O
InChI: InChI=1S/C18H28N2O4/c1-5-6-18(23)20-14-7-8-17(16(9-14)13(4)21)24-11-15(22)10-19-12(2)3/h7-9,12,15,19,22H,5-6,10-11H2,1-4H3,(H,20,23)
Instrument: TripleTOF 5600 SCIEX
Instrument type: LC-ESI-QTOF
Ms type: MS2
Ion mode: POSITIVE
Collision energy: 120
Fragmentation mode: CID
Ionization: ESI
Column name: Zorbax Eclipse Plus C18 2.1 mm x 150 mm, 3.5 um, Agilent
Retention time: 5.965 min
Precursor m/z: 337.2122
Precursor type: [M+H]+
m/z	relative intensity
43.0248	70
44.0573	77
51.0289	85
53.0438	49
56.0558	999
58.0707	247
65.0437	495
66.0497	35
67.049	49
72.0839	184
74.0644	155
77.0418	694
77.0702	35
78.0484	49
79.0577	70
80.0527	240
89.0411	106
90.0482	42
91.0553	85
92.0516	70
93.0354	49
93.0582	191
94.0678	28
103.0553	63
104.0517	113
106.0653	70
108.0466	63
109.0534	63
115.0546	92
117.0569	85
118.0654	35
130.067	63
