Mass spectrum: 1-Methyl-2-pyrrolidinone; LC-ESI-QTOF; MS2; 40 V
Name: 1-Methyl-2-pyrrolidinone
Formula: C5H9NO
Exact mass: 99.0684
SMILES: CN1CCCC1=O
InChI: InChI=1S/C5H9NO/c1-6-4-2-3-5(6)7/h2-4H2,1H3
Instrument: TripleTOF 6600 SCIEX
Instrument type: LC-ESI-QTOF
Ms type: MS2
Ion mode: POSITIVE
Collision energy: 40
Fragmentation mode: CID
Ionization: ESI
Column name: Zorbax Eclipse Plus C18 2.1 mm x 150 mm, 3.5 um, Agilent
Retention time: 4.39 min
Precursor m/z: 100.0786
Precursor type: [M+H]+
m/z	relative intensity
39.0243	135
41.0404	126
42.0352	35
44.0513	41
56.0514	32
58.0309	999
69.0351	100
70.0674	39
82.0681	40
98.0627	31
100.0786	458
