Mass spectrum: Dextrorphan; LC-ESI-QTOF; MS2; 40 V
Name: Dextrorphan
Class: Pharmaceutical; Metabolite
Formula: C17H23NO
Exact mass: 257.178
SMILES: CN1CC[C@@]23CCCC[C@@H]2[C@@H]1CC4=C3C=C(C=C4)O
InChI: InChI=1S/C17H23NO/c1-18-9-8-17-7-3-2-4-14(17)16(18)10-12-5-6-13(19)11-15(12)17/h5-6,11,14,16,19H,2-4,7-10H2,1H3/t14-,16+,17+/m1/s1
Instrument: TripleTOF 5600 SCIEX
Instrument type: LC-ESI-QTOF
Ms type: MS2
Ion mode: POSITIVE
Collision energy: 40
Fragmentation mode: CID
Ionization: ESI
Column name: Zorbax Eclipse Plus C18 2.1 mm x 150 mm, 3.5 um, Agilent
Retention time: 5.969 min
Precursor m/z: 258.1852
Precursor type: [M+H]+
m/z	relative intensity
44.0586	27
69.0746	15
81.0732	15
95.087	13
105.0705	37
107.0501	69
115.0544	13
117.0708	14
121.0652	26
127.0546	29
128.0627	28
129.0704	46
131.0499	26
131.0856	14
133.0661	615
141.0706	15
144.0581	15
145.0662	252
147.0806	18
157.0663	999
159.0815	199
171.1178	52
181.1014	23
185.0966	50
199.113	817
201.1282	398
227.1441	13
258.1864	502
