Mass spectrum: 2,4-Diaminoanisole; LC-ESI-QTOF; MS2; 40 V
Name: 2,4-Diaminoanisole
Formula: C7H10N2O
Exact mass: 138.0793
SMILES: COC1=C(C=C(C=C1)N)N
InChI: InChI=1S/C7H10N2O/c1-10-7-3-2-5(8)4-6(7)9/h2-4H,8-9H2,1H3
Instrument: TripleTOF 6600 SCIEX
Instrument type: LC-ESI-QTOF
Ms type: MS2
Ion mode: POSITIVE
Collision energy: 40
Fragmentation mode: CID
Ionization: ESI
Column name: Zorbax Eclipse Plus C18 2.1 mm x 150 mm, 3.5 um, Agilent
Retention time: 2.235 min
Precursor m/z: 139.0866
Precursor type: [M+H]+
m/z	relative intensity
39.0236	76
51.0234	146
52.0307	328
53.0386	41
63.0229	83
65.0391	153
68.0502	34
77.0391	181
78.0332	300
79.0424	426
80.0492	936
81.057	237
90.0346	55
91.0418	62
92.0483	34
93.0563	69
95.0616	999
96.0449	34
96.0688	69
107.038	69
107.0608	216
108.0678	908
123.0566	516
124.0617	482
