Mass spectrum: threo-Dihydrobupropion; LC-ESI-QTOF; MS2; 70 V
Name: threo-Dihydrobupropion
Class: Pharmaceutical; Metabolite
Formula: C13H20ClNO
Exact mass: 241.1233
InChI: InChI=1S/C13H20ClNO/c1-9(15-13(2,3)4)12(16)10-6-5-7-11(14)8-10/h5-9,12,15-16H,1-4H3
Instrument: TripleTOF 5600 SCIEX
Instrument type: LC-ESI-QTOF
Ms type: CID
Ion mode: POSITIVE
Collision energy: 70
Ionization: ESI
Column name: Zorbax Eclipse Plus C18 2.1 mm x 150 mm, 3.5 um, Agilent
Retention time: 6.626 min
Precursor m/z: 242.1306
Precursor type: [M+H]+
m/z	relative intensity
57.0753	61
65.0429	41
77.0408	15
89.0397	154
90.049	28
91.0556	105
98.9997	16
110.9976	14
114.0464	14
115.0549	999
116.0618	328
117.0573	133
118.0647	52
125.015	66
132.0798	30
138.0101	38
149.0151	18
152.025	24
