Mass spectrum: Basic yellow 28; LC-ESI-QTOF; MS2; 90 V
Name: Basic yellow 28
Class: Pigment
Formula: [C20H24N3O]+
Exact mass: 322.1914
SMILES: CC1(C2=CC=CC=C2[N+](=C1C=NN(C)C3=CC=C(C=C3)OC)C)C
InChI: InChI=1S/C20H24N3O/c1-20(2)17-8-6-7-9-18(17)22(3)19(20)14-21-23(4)15-10-12-16(24-5)13-11-15/h6-14H,1-5H3/q+1
Instrument: TripleTOF 6600 SCIEX
Instrument type: LC-ESI-QTOF
Ms type: MS2
Ion mode: POSITIVE
Collision energy: 90
Fragmentation mode: CID
Ionization: ESI
Column name: Zorbax Eclipse Plus C18 2.1 mm x 150 mm, 3.5 um, Agilent
Retention time: 9.082 min
Precursor m/z: 322.1914
Precursor type: [M]+
m/z	relative intensity
51.0235	104
63.0232	86
64.0311	68
65.0389	195
66.0466	379
67.0419	208
77.0385	317
78.0456	203
91.0532	96
92.0251	112
92.0476	103
93.056	163
103.0533	84
108.056	59
115.0535	177
120.0435	52
128.049	155
129.0566	86
130.0644	157
142.065	77
143.0726	217
144.0809	999
145.088	71
155.0602	57
158.0967	114
169.0757	68
