Mass spectrum: Irbesartan; LC-ESI-QTOF; MS2; 120 V
Name: Irbesartan
Class: Pharmaceutical
Formula: C25H28N6O
Exact mass: 428.2325
SMILES: CCCCC1=NC2(CCCC2)C(=O)N1Cc3ccc(cc3)c4ccccc4c5n[nH]nn5
InChI: InChI=1S/C25H28N6O/c1-2-3-10-22-26-25(15-6-7-16-25)24(32)31(22)17-18-11-13-19(14-12-18)20-8-4-5-9-21(20)23-27-29-30-28-23/h4-5,8-9,11-14H,2-3,6-7,10,15-17H2,1H3,(H,27,28,29,30)
Instrument: TripleTOF 5600 SCIEX
Instrument type: LC-ESI-QTOF
Ms type: MS2
Ion mode: POSITIVE
Collision energy: 120
Fragmentation mode: CID
Ionization: ESI
Column name: Zorbax Eclipse Plus C18 2.1 mm x 150 mm, 3.5 um, Agilent
Retention time: 9.345 min
Precursor m/z: 429.2397
Precursor type: [M+H]+
m/z	relative intensity
65.0428	12
67.0582	34
74.0181	15
75.0255	33
77.0418	156
78.0358	15
80.052	21
84.0831	44
87.0249	20
89.0401	51
99.023	14
101.0398	39
102.04	43
113.0387	77
114.0343	23
114.046	23
115.055	126
116.0498	15
125.0386	60
126.0461	83
127.0542	152
128.0526	96
129.0465	11
137.0386	62
138.0462	64
139.0544	196
140.0497	221
141.0571	13
149.0387	28
150.047	329
151.0548	931
152.0623	999
153.0585	117
154.0648	23
161.0383	19
162.046	64
163.0544	410
164.0548	498
165.07	435
166.0648	58
167.0723	14
176.0548	82
177.0581	307
178.0657	464
179.0724	109
180.0805	39
188.0502	116
189.0573	66
190.0656	334
191.0622	108
192.0676	36
203.061	21
204.0657	18
205.0766	431
