Mass spectrum: 1,2-Benzisothiazol-3(2H)-one; LC-ESI-QTOF; MS2; 60 V
Name: 1,2-Benzisothiazol-3(2H)-one
Class: Antimicrobial
Formula: C7H5NOS
Exact mass: 151.0092
SMILES: C1=CC=C2C(=C1)C(=O)NS2
InChI: InChI=1S/C7H5NOS/c9-7-5-3-1-2-4-6(5)10-8-7/h1-4H,(H,8,9)
Instrument: TripleTOF 6600 SCIEX
Instrument type: LC-ESI-QTOF
Ms type: MS2
Ion mode: POSITIVE
Collision energy: 60
Fragmentation mode: CID
Ionization: ESI
Column name: Zorbax Eclipse Plus C18 2.1 mm x 150 mm, 3.5 um, Agilent
Retention time: 6.233 min
Precursor m/z: 152.0165
Precursor type: [M+H]+
m/z	relative intensity
35.9996	32
37.0068	141
38.0151	92
39.0224	453
44.9787	81
49.0078	21
50.0144	240
51.0224	999
53.038	180
57.9857	32
61.0067	43
62.0149	169
63.0222	780
64.0175	464
65.0383	256
68.9786	507
76.0298	43
77.0378	911
80.0489	185
80.9786	43
81.986	76
90.0331	322
92.9785	141
93.9742	27
105.0437	43
106.9939	43
108.0021	76
109.0092	43
132.9972	54
134.005	43
