Mass spectrum: Tri-tert-butylphosphine; LC-ESI-QTOF; MS2; 30 V
Name: Tri-tert-butylphosphine
Class: Industrial_process
Formula: C12H27P
Exact mass: 202.185
SMILES: CC(C)(C)P(C(C)(C)C)C(C)(C)C
InChI: InChI=1S/C12H27P/c1-10(2,3)13(11(4,5)6)12(7,8)9/h1-9H3
Instrument: TripleTOF 5600 SCIEX
Instrument type: LC-ESI-QTOF
Ms type: MS2
Ion mode: POSITIVE
Collision energy: 30
Fragmentation mode: CID
Ionization: ESI
Column name: Zorbax Eclipse Plus C18 2.1 mm x 150 mm, 3.5 um, Agilent
Retention time: 5.221 min
Precursor m/z: 203.1923
Precursor type: [M+H]+
m/z	relative intensity
57.0701	999
91.0657	562
147.1296	326
