Mass spectrum: N,N`-bis(2-ethoxyethoxycarbonyl)-4-methyl-1,3-phenylenediamine; LC-ESI-QTOF; MS2; 20 V
Name: N,N`-bis(2-ethoxyethoxycarbonyl)-4-methyl-1,3-phenylenediamine
Formula: C17H26N2O6
Exact mass: 354.1791
SMILES: CCOCCOC(=O)NC1=CC(=C(C=C1)C)NC(=O)OCCOCC
InChI: InChI=1S/C17H26N2O6/c1-4-22-8-10-24-16(20)18-14-7-6-13(3)15(12-14)19-17(21)25-11-9-23-5-2/h6-7,12H,4-5,8-11H2,1-3H3,(H,18,20)(H,19,21)
Instrument: TripleTOF 5600 SCIEX
Instrument type: LC-ESI-QTOF
Ms type: MS2
Ion mode: POSITIVE
Collision energy: 20
Fragmentation mode: CID
Ionization: ESI
Column name: Zorbax Eclipse Plus C18 2.1 mm x 150 mm, 3.5 um, Agilent
Retention time: 9.91 min
Precursor m/z: 355.1864
Precursor type: [M+H]+
m/z	relative intensity
45.0451	25
73.0712	215
91.0795	408
149.0718	19
175.052	12
193.0609	98
193.0959	10
219.0761	960
237.0868	85
263.0998	13
265.1173	999
283.1296	63
309.1436	704
355.1857	203
