Mass spectrum: Amitriptyline; LC-ESI-QTOF; MS2; 100 V
Name: Amitriptyline
Class: Pharmaceutical
Formula: C20H23N
Exact mass: 277.183
SMILES: CN(C)CCC=C1C2=CC=CC=C2CCC3=CC=CC=C31
InChI: InChI=1S/C20H23N/c1-21(2)15-7-12-20-18-10-5-3-8-16(18)13-14-17-9-4-6-11-19(17)20/h3-6,8-12H,7,13-15H2,1-2H3
Instrument: TripleTOF 6600 SCIEX
Instrument type: LC-ESI-QTOF
Ms type: MS2
Ion mode: POSITIVE
Collision energy: 100
Fragmentation mode: CID
Ionization: ESI
Column name: Zorbax Eclipse Plus C18 2.1 mm x 150 mm, 3.5 um, Agilent
Retention time: 8.708 min
Precursor m/z: 278.1903
Precursor type: [M+H]+
m/z	relative intensity
37.0075	19
38.0153	16
39.0232	106
41.0386	16
42.034	25
49.0071	17
50.015	99
51.0232	275
58.0648	18
61.0066	17
62.0148	38
63.023	127
65.0388	380
74.0153	33
75.0228	43
76.0303	34
77.0388	409
78.0463	58
79.0542	23
86.0143	11
87.0229	19
89.0385	166
91.0542	325
98.0151	14
101.0382	23
102.0462	132
103.0545	18
113.0385	27
114.046	10
115.0543	582
125.0382	17
126.0462	118
127.054	144
128.062	293
139.0543	167
141.069	13
149.0389	24
150.0465	191
151.0543	343
152.0623	478
153.0701	15
155.0598	18
162.0464	32
163.0547	330
164.0619	146
165.0696	299
174.046	42
175.0539	73
176.0623	431
177.0703	79
178.0777	122
179.0593	16
186.0475	14
187.0543	232
188.0625	216
189.0702	999
190.0786	31
191.0848	18
198.0471	14
199.0541	50
200.0624	818
201.0704	594
202.0783	978
203.0862	14
211.0548	10
212.0624	14
213.0701	293
214.0774	53
215.0859	385
226.0776	10
