Mass spectrum: Fluoxastrobin; LC-ESI-QTOF; MS2; 70 V
Name: Fluoxastrobin
Class: Fungicide
Formula: C21H16ClFN4O5
Exact mass: 458.0793
SMILES: CON=C(C1=CC=CC=C1OC2=C(C(=NC=N2)OC3=CC=CC=C3Cl)F)C4=NOCCO4
InChI: InChI=1S/C21H16ClFN4O5/c1-28-26-18(21-27-30-11-10-29-21)13-6-2-4-8-15(13)31-19-17(23)20(25-12-24-19)32-16-9-5-3-7-14(16)22/h2-9,12H,10-11H2,1H3
Instrument: TripleTOF 6600 SCIEX
Instrument type: LC-ESI-QTOF
Ms type: MS2
Ion mode: POSITIVE
Collision energy: 70
Fragmentation mode: CID
Ionization: ESI
Column name: Zorbax Eclipse Plus C18 2.1 mm x 150 mm, 3.5 um, Agilent
Retention time: 13.269 min
Precursor m/z: 459.0866
Precursor type: [M+H]+
m/z	relative intensity
43.0178	27
45.0333	12
51.0231	20
63.0227	17
64.0299	10
65.0378	52
69.9922	14
74.0146	37
75.0221	147
76.0294	28
77.0378	108
78.0333	24
90.0324	111
91.0412	26
92.0248	28
92.048	14
93.0327	37
95.0279	61
98.9996	32
102.0327	282
103.0414	19
104.0363	26
104.0483	16
105.0326	86
106.0264	24
107.0287	43
110.999	432
112.0065	11
114.0319	17
115.0402	34
116.036	32
117.0431	25
118.0283	14
118.0513	18
119.0358	38
120.0437	46
121.0312	30
122.0386	80
123.0331	36
127.027	10
128.0018	19
128.0361	15
129.0101	19
129.0437	190
130.0382	345
132.0232	47
133.0316	156
134.0391	46
135.0363	17
138.0097	183
139.0031	216
140.0361	23
140.9892	32
142.038	17
143.0051	10
144.0304	51
145.0374	84
146.0239	56
147.0348	43
147.9937	13
148.0411	26
149.0261	54
149.0479	10
150.0337	351
151.005	19
154.0386	44
154.9873	11
155.036	10
157.0365	14
158.0265	11
159.032	56
160.043	121
161.0287	67
162.0375	31
163.0035	17
166.0048	10
168.0002	110
168.0289	10
169.0362	65
170.0323	28
170.0497	11
173.0391	16
174.044	24
175.0286	69
176.0447	26
177.0229	14
177.0547	23
178.0297	133
178.9996	18
182.0342	17
183.9953	10
185.0369	10
186.0423	15
187.0289	15
188.0368	999
189.0443	29
190.038	15
191.0215	17
196.0514	29
197.0652	28
199.0353	12
201.0425	16
202.0441	32
203.0577	21
204.0631	17
205.0431	28
208.0572	12
213.0424	10
214.0413	21
215.0599	10
221.045	19
222.0584	10
223.0652	33
224.0494	16
225.0558	28
228.052	14
230.0356	70
230.0682	20
231.0553	15
232.0626	15
239.0341	13
241.0487	19
248.0612	17
250.0519	24
251.0617	79
252.066	12
258.0647	10
261.0692	17
263.0643	21
270.0668	15
278.0697	24
279.0583	59
280.0604	13
286.0623	13
298.0601	10
304.0485	15
306.0672	93
318.063	21
331.066	20
340.0262	13
