Mass spectrum: Bis(2-isopropylphenyl) phenyl phosphate; LC-ESI-QTOF; MS2; 50 V
Name: Bis(2-isopropylphenyl) phenyl phosphate
Formula: C24H27O4P
Exact mass: 410.1647
SMILES: CC(C)C1=CC=CC=C1OP(=O)(OC2=CC=CC=C2)OC3=CC=CC=C3C(C)C
InChI: InChI=1S/C24H27O4P/c1-18(2)21-14-8-10-16-23(21)27-29(25,26-20-12-6-5-7-13-20)28-24-17-11-9-15-22(24)19(3)4/h5-19H,1-4H3
Instrument: TripleTOF 6600 SCIEX
Instrument type: LC-ESI-QTOF
Ms type: MS2
Ion mode: POSITIVE
Collision energy: 50
Fragmentation mode: CID
Ionization: ESI
Column name: Zorbax Eclipse Plus C18 2.1 mm x 150 mm, 3.5 um, Agilent
Retention time: 17.429 min
Precursor m/z: 411.172
Precursor type: [M+H]+
m/z	relative intensity
65.0383	11
77.0386	121
91.0543	203
151.054	22
152.0624	251
153.0701	283
168.0565	48
171.0801	24
175.0148	17
215.0262	481
227.0857	16
228.0939	120
229.1019	68
233.0367	199
251.0478	315
291.0576	14
327.0794	999
