Mass spectrum: Mandipropamid; LC-ESI-QTOF; MS2; 120 V
Name: Mandipropamid
Class: Fungicide
Formula: C23H22ClNO4
Exact mass: 411.1237
SMILES: COC1=C(C=CC(=C1)CCNC(=O)C(C2=CC=C(C=C2)Cl)OCC#C)OCC#C
InChI: InChI=1S/C23H22ClNO4/c1-4-14-28-20-11-6-17(16-21(20)27-3)12-13-25-23(26)22(29-15-5-2)18-7-9-19(24)10-8-18/h1-2,6-11,16,22H,12-15H2,3H3,(H,25,26)
Instrument: TripleTOF 6600 SCIEX
Instrument type: LC-ESI-QTOF
Ms type: MS2
Ion mode: POSITIVE
Collision energy: 120
Fragmentation mode: CID
Ionization: ESI
Column name: Zorbax Eclipse Plus C18 2.1 mm x 150 mm, 3.5 um, Agilent
Retention time: 12.239 min
Precursor m/z: 412.131
Precursor type: [M+H]+
m/z	relative intensity
39.0236	89
48.983	18
50.0151	32
51.0226	89
61.0068	46
62.0149	65
63.0225	276
65.038	295
66.0454	42
67.0534	23
72.9834	145
74.015	37
74.9985	28
75.0227	46
76.0309	23
77.0383	820
78.0456	103
79.0536	70
80.0489	28
89.038	999
90.0458	323
91.0533	529
92.0482	42
93.0574	42
94.0413	32
94.0647	42
98.9987	393
101.0382	18
102.0456	117
103.0535	150
104.0487	46
105.0311	28
105.0426	32
105.0689	18
106.0651	28
107.0478	93
113.0361	18
114.0455	28
115.0531	393
116.0506	46
117.0568	290
118.0641	60
119.0482	28
125.0144	422
126.0463	37
127.0534	93
128.0609	178
130.0638	37
131.0482	23
132.0439	23
133.0304	18
133.0524	28
134.0645	23
139.052	51
140.0588	32
146.0574	23
151.0537	79
152.0618	211
153.0687	60
163.0532	70
164.0615	84
165.069	365
166.0761	28
176.0607	173
177.0695	60
178.0768	173
181.065	42
188.0607	18
189.0691	164
190.0699	51
191.0814	56
200.0598	37
201.0674	46
202.0764	107
203.0764	18
204.0822	18
213.0708	37
215.0839	51
216.0814	37
233.0804	28
