Mass spectrum: Verapamil; LC-ESI-QTOF; MS2; 100 V
Name: Verapamil
Class: Pharmaceutical
Formula: C27H38N2O4
Exact mass: 454.2832
SMILES: CC(C)C(CCCN(C)CCc1ccc(c(c1)OC)OC)(C#N)c2ccc(c(c2)OC)OC
InChI: InChI=1S/C27H38N2O4/c1-20(2)27(19-28,22-10-12-24(31-5)26(18-22)33-7)14-8-15-29(3)16-13-21-9-11-23(30-4)25(17-21)32-6/h9-12,17-18,20H,8,13-16H2,1-7H3
Instrument: TripleTOF 5600 SCIEX
Instrument type: LC-ESI-QTOF
Ms type: MS2
Ion mode: POSITIVE
Collision energy: 100
Fragmentation mode: CID
Ionization: ESI
Column name: Zorbax Eclipse Plus C18 2.1 mm x 150 mm, 3.5 um, Agilent
Retention time: 8.542 min
Precursor m/z: 455.2904
Precursor type: [M+H]+
m/z	relative intensity
42.0435	12
44.0571	14
55.0215	10
58.0705	57
65.0428	76
67.0573	14
76.0349	11
77.0422	999
78.0492	128
79.0575	538
80.0523	11
81.0364	11
84.0825	45
89.0408	72
90.048	140
91.0564	884
92.0283	15
92.0632	47
93.0711	85
94.0431	40
95.0509	33
102.0467	87
103.055	506
104.062	128
105.0341	15
105.07	160
106.0419	15
107.0498	638
108.057	31
109.0292	15
109.0647	32
115.0539	55
116.0624	11
117.0702	13
118.0416	139
119.0495	419
120.0565	121
121.0647	365
122.0366	22
122.0715	40
123.0439	29
124.052	21
128.0577	20
129.0714	13
131.0486	143
132.0438	20
133.0279	67
133.064	66
134.0727	252
135.0441	619
135.0782	16
136.0513	17
137.0597	32
138.0666	15
144.0587	12
144.0802	29
145.0637	24
146.0611	43
146.0732	20
149.0594	107
150.0671	224
151.0746	38
159.0718	22
160.0747	19
161.0599	13
165.0902	31
172.0751	35
174.0911	11
176.0704	12
