Mass spectrum: 2-(2-Hydroxyphenyl)-1H-benzimidazole; LC-ESI-QTOF; MS2; 110 V
Name: 2-(2-Hydroxyphenyl)-1H-benzimidazole
Class: Industrial_process; Pharmaceutical
Formula: C13H10N2O
Exact mass: 210.0793
SMILES: C1=CC=C2C(=C1)NC(=C3C=CC=CC3=O)N2
InChI: InChI=1S/C13H10N2O/c16-12-8-4-1-5-9(12)13-14-10-6-2-3-7-11(10)15-13/h1-8,14-15H
Instrument: TripleTOF 5600 SCIEX
Instrument type: LC-ESI-QTOF
Ms type: MS2
Ion mode: POSITIVE
Collision energy: 110
Fragmentation mode: CID
Ionization: ESI
Column name: Zorbax Eclipse Plus C18 2.1 mm x 150 mm, 3.5 um, Agilent
Retention time: 6.225 min
Precursor m/z: 211.0866
Precursor type: [M+H]+
m/z	relative intensity
52.0299	88
64.0345	177
65.0462	999
73.0125	41
74.0199	431
75.0149	54
75.0282	362
76.0247	266
77.043	431
85.011	41
86.0196	171
87.0276	136
88.0256	68
89.043	136
90.0361	75
91.0454	123
92.0553	54
98.0176	47
99.0212	47
101.0418	75
102.0382	164
103.045	47
104.0498	47
111.0244	61
112.0201	41
113.0423	61
114.0357	54
115.0503	34
125.0395	54
126.0458	61
127.0536	27
128.0522	68
129.0424	27
137.04	61
138.0389	34
152.0546	34
179.0595	47
