Mass spectrum: Ranitidine; LC-ESI-QTOF; MS2; 140 V
Name: Ranitidine
Class: Pharmaceutical
Formula: C13H22N4O3S
Exact mass: 314.1413
SMILES: CNC(=C[N+](=O)[O-])NCCSCC1=CC=C(O1)CN(C)C
InChI: InChI=1S/C13H22N4O3S/c1-14-13(9-17(18)19)15-6-7-21-10-12-5-4-11(20-12)8-16(2)3/h4-5,9,14-15H,6-8,10H2,1-3H3
Instrument: TripleTOF 5600 SCIEX
Instrument type: LC-ESI-QTOF
Ms type: MS2
Ion mode: POSITIVE
Collision energy: 140
Fragmentation mode: CID
Ionization: ESI
Column name: Zorbax Eclipse Plus C18 2.1 mm x 150 mm, 3.5 um, Agilent
Retention time: 4.832 min
Precursor m/z: 315.1485
Precursor type: [M+H]+
m/z	relative intensity
39.0291	176
45.0006	73
51.0288	734
52.0357	73
53.0436	837
54.0414	323
55.0479	146
56.0552	499
57.0512	293
57.9933	88
58.0693	58
58.9996	426
59.9983	58
65.0422	528
66.0501	161
67.045	117
68.0522	205
68.9832	88
69.0504	88
70.0686	58
70.997	132
74.0089	58
77.041	999
78.0361	146
79.0501	117
80.0516	176
81.0366	249
81.0471	279
82.0546	235
88.0255	73
89.0417	117
91.056	73
92.0512	88
93.0599	132
94.0456	73
94.0666	146
96.0682	102
97.0103	132
97.0761	102
102.0377	73
104.0492	132
107.0508	73
