Mass spectrum: Florfenicol; LC-ESI-QTOF; MS2; 60 V
Name: Florfenicol
Class: Pharmaceutical
Formula: C12H14Cl2FNO4S
Exact mass: 357.0005
SMILES: C[S](=O)(=O)c1ccc(cc1)[C@@H](O)[C@@H](CF)NC(=O)C(Cl)Cl
InChI: InChI=1S/C12H14Cl2FNO4S/c1-21(19,20)8-4-2-7(3-5-8)10(17)9(6-15)16-12(18)11(13)14/h2-5,9-11,17H,6H2,1H3,(H,16,18)/t9-,10-/m1/s1
Instrument: TripleTOF 5600 SCIEX
Instrument type: LC-ESI-QTOF
Ms type: MS2
Ion mode: POSITIVE
Collision energy: 60
Fragmentation mode: CID
Ionization: ESI
Column name: Zorbax Eclipse Plus C18 2.1 mm x 150 mm, 3.5 um, Agilent
Retention time: 7.507 min
Precursor m/z: 358.0077
Precursor type: [M+H]+
m/z	relative intensity
77.041	49
82.9465	229
103.0533	509
103.0696	49
104.0608	59
115.053	289
127.053	349
128.0604	339
130.0646	999
131.0486	469
131.0716	259
132.0569	419
132.0739	39
133.0465	39
134.0537	59
140.0479	39
142.0646	239
152.0464	139
163.03	139
170.058	409
171.0685	39
206.037	139
