Mass spectrum: p-Phenetidine; LC-ESI-QTOF; MS2; 90 V
Name: p-Phenetidine
Formula: C8H11NO
Exact mass: 137.0841
SMILES: CCOC1=CC=C(C=C1)N
InChI: InChI=1S/C8H11NO/c1-2-10-8-5-3-7(9)4-6-8/h3-6H,2,9H2,1H3
Instrument: TripleTOF 6600 SCIEX
Instrument type: LC-ESI-QTOF
Ms type: MS2
Ion mode: POSITIVE
Collision energy: 90
Fragmentation mode: CID
Ionization: ESI
Column name: Zorbax Eclipse Plus C18 2.1 mm x 150 mm, 3.5 um, Agilent
Retention time: 4.84 min
Precursor m/z: 138.0914
Precursor type: [M+H]+
m/z	relative intensity
36.0005	142
37.0082	801
38.0046	40
38.0163	666
39.0242	999
49.0072	101
50.0161	421
51.0238	156
52.02	33
53.0394	101
54.035	27
60.0009	33
61.0083	468
62.0165	740
63.0239	706
65.0398	33
73.0071	27
74.0158	122
80.0509	101
