Mass spectrum: Michler`s ketone; LC-ESI-QTOF; MS2; 40 V
Name: Michler`s ketone
Formula: C17H20N2O
Exact mass: 268.1576
SMILES: CN(C)C1=CC=C(C=C1)C(=O)C2=CC=C(C=C2)N(C)C
InChI: InChI=1S/C17H20N2O/c1-18(2)15-9-5-13(6-10-15)17(20)14-7-11-16(12-8-14)19(3)4/h5-12H,1-4H3
Instrument: TripleTOF X500R SCIEX
Instrument type: LC-ESI-QTOF
Ms type: MS2
Ion mode: POSITIVE
Collision energy: 40
Fragmentation mode: CID
Ionization: ESI
Column name: Zorbax Eclipse Plus C18 2.1 mm x 150 mm, 3.5 um, Agilent
Retention time: 12.383 min
Precursor m/z: 269.1649
Precursor type: [M+H]+
m/z	relative intensity
42.0338	30
79.0542	24
91.0542	29
92.0563	11
93.0701	13
103.0544	16
104.0494	15
105.0575	49
118.065	18
120.0808	138
134.06	95
148.075	999
209.0849	13
210.091	170
224.1069	97
237.1382	119
238.1134	14
239.1168	18
253.133	199
254.1414	55
269.1659	10
