Mass spectrum: Ranitidine-N-oxide; LC-ESI-QTOF; MS2; 20 V
Name: Ranitidine-N-oxide
Class: Pharmaceutical; Transformation_product; Transformation_product-Metabolite
Formula: C13H22N4O4S
Exact mass: 330.1362
SMILES: CNC(/NCCSCc1oc(C[N+](C)(C)[O-])cc1)=C\[N+]([O-])=O
InChI: InChI=1S/C13H22N4O4S/c1-14-13(8-16(18)19)15-6-7-22-10-12-5-4-11(21-12)9-17(2,3)20/h4-5,8,14-15H,6-7,9-10H2,1-3H3/b13-8+
Instrument: TripleTOF 5600 SCIEX
Instrument type: LC-ESI-QTOF
Ms type: MS2
Ion mode: POSITIVE
Collision energy: 20
Fragmentation mode: CID
Ionization: ESI
Column name: Zorbax Eclipse Plus C18 2.1 mm x 150 mm, 3.5 um, Agilent
Retention time: 4.879 min
Precursor m/z: 331.1435
Precursor type: [M+H]+
m/z	relative intensity
88.0222	19
98.084	73
102.0358	13
124.0752	224
125.005	58
130.0548	79
131.0624	13
144.0756	168
153.0356	30
164.0943	10
165.1001	24
170.0618	47
176.0484	999
181.078	13
191.1166	44
193.0532	12
224.0969	307
225.1036	20
270.0901	908
331.1432	291
