Mass spectrum: 4,4`-Methylenebis(2-chloroaniline); LC-ESI-QTOF; MS2; 70 V
Name: 4,4`-Methylenebis(2-chloroaniline)
Formula: C13H12Cl2N2
Exact mass: 266.0378
SMILES: C1=CC(=C(C=C1CC2=CC(=C(C=C2)N)Cl)Cl)N
InChI: InChI=1S/C13H12Cl2N2/c14-10-6-8(1-3-12(10)16)5-9-2-4-13(17)11(15)7-9/h1-4,6-7H,5,16-17H2
Instrument: TripleTOF 6600 SCIEX
Instrument type: LC-ESI-QTOF
Ms type: MS2
Ion mode: POSITIVE
Collision energy: 70
Fragmentation mode: CID
Ionization: ESI
Column name: Zorbax Eclipse Plus C18 2.1 mm x 150 mm, 3.5 um, Agilent
Retention time: 11.747 min
Precursor m/z: 267.045
Precursor type: [M+H]+
m/z	relative intensity
50.0162	13
51.0233	158
52.0188	15
63.0237	13
65.0384	17
75.0232	22
77.0388	840
78.0342	66
78.0459	51
80.0503	15
89.0382	21
90.0355	11
91.0531	26
92.0512	11
101.0379	21
102.0459	21
103.0528	11
104.049	601
105.0567	87
113.0154	51
113.0375	13
114.0092	15
114.0454	19
115.0538	412
116.0626	24
117.059	24
123.0011	9
125.0382	36
126.0445	72
127.0183	15
127.0538	166
128.0475	15
128.062	74
129.05	26
130.0671	68
139.0545	210
140.0256	630
140.0527	160
141.0681	156
142.0618	17
143.0732	55
149.039	22
150.0465	341
151.0541	993
152.0619	785
153.0613	227
154.0655	168
155.0593	87
162.044	15
163.0546	40
164.0479	13
166.065	441
167.0733	999
168.0811	317
169.0769	26
176.0497	22
177.0583	280
178.0641	490
179.0645	183
180.0567	11
180.0815	234
181.0758	15
192.0646	32
193.0776	112
194.0824	162
195.092	441
197.015	19
204.0596	15
