Mass spectrum: 3,7-Dimethylxanthine; LC-ESI-QTOF; MS2; 140 V
Name: 3,7-Dimethylxanthine
Class: Pharmaceutical; Natural_product
Formula: C7H8N4O2
Exact mass: 180.0647
SMILES: Cn1cnc2N(C)C(=O)NC(=O)c12
InChI: InChI=1S/C7H8N4O2/c1-10-3-8-5-4(10)6(12)9-7(13)11(5)2/h3H,1-2H3,(H,9,12,13)
Instrument: TripleTOF 5600 SCIEX
Instrument type: LC-ESI-QTOF
Ms type: CID
Ion mode: NEGATIVE
Collision energy: 140
Ionization: ESI
Column name: Zorbax Eclipse Plus C18 2.1 mm x 150 mm, 3.5 um, Agilent
Retention time: 5.242 min
Precursor m/z: 179.0574
Precursor type: [M-H]-
m/z	relative intensity
38.0065	68
42	103
44.9998	999
45.0109	103
65.9996	241
