Mass spectrum: Lamotrigine; LC-ESI-QTOF; MS2; 70 V
Name: Lamotrigine
Class: Pharmaceutical
Formula: C9H7Cl2N5
Exact mass: 255.0079
SMILES: Nc1nnc(c(N)n1)c2cccc(Cl)c2Cl
InChI: InChI=1S/C9H7Cl2N5/c10-5-3-1-2-4(6(5)11)7-8(12)14-9(13)16-15-7/h1-3H,(H4,12,13,14,16)
Instrument: TripleTOF 5600 SCIEX
Instrument type: LC-ESI-QTOF
Ms type: MS2
Ion mode: POSITIVE
Collision energy: 70
Fragmentation mode: CID
Ionization: ESI
Column name: Zorbax Eclipse Plus C18 2.1 mm x 150 mm, 3.5 um, Agilent
Retention time: 6.024 min
Precursor m/z: 256.0151
Precursor type: [M+H]+
m/z	relative intensity
43.0375	635
44.0458	50
58.0445	101
68.0278	25
72.9868	145
73.0085	25
74.0181	316
75.0258	47
75.0423	12
77.0415	22
82.9459	18
84.9856	18
87.023	28
88.0211	25
88.0323	28
89.0403	237
90.0362	56
96.9843	94
97.9819	12
98.0161	18
98.9994	31
99.0108	37
100.0186	278
102.0336	31
104.0505	34
106.9455	72
108.9845	999
109.9918	31
111	53
112.009	15
114.034	104
115.0286	31
115.0403	37
116.0364	18
116.0489	60
117.0453	31
121.9922	44
123.0003	281
123.9955	230
124.0181	56
124.0348	15
125.0025	91
129.0452	12
130.0459	15
131.0602	50
132.9606	278
135.9946	129
138.0103	129
144.9604	297
145.97	15
147.9956	47
149.0023	18
150.0081	28
151.0186	88
152.0141	145
156.9604	316
158.9756	63
159.9717	25
159.9933	28
163.0027	15
164.001	66
165.0218	53
166.0292	18
170.9638	142
171.9721	41
172.9667	31
183.9727	37
194.9637	94
