Mass spectrum: 3-Amino-5-methylisoxazole; LC-ESI-QTOF; MS2; 80 V
Name: 3-Amino-5-methylisoxazole
Formula: C4H6N2O
Exact mass: 98.048
SMILES: CC1=CC(=NO1)N
InChI: InChI=1S/C4H6N2O/c1-3-2-4(5)6-7-3/h2H,1H3,(H2,5,6)
Instrument: TripleTOF 6600 SCIEX
Instrument type: LC-ESI-QTOF
Ms type: MS2
Ion mode: POSITIVE
Collision energy: 80
Fragmentation mode: CID
Ionization: ESI
Column name: Zorbax Eclipse Plus C18 2.1 mm x 150 mm, 3.5 um, Agilent
Retention time: 4.412 min
Precursor m/z: 99.0553
Precursor type: [M+H]+
m/z	relative intensity
37.0063	64
38.0022	64
38.0139	43
39.022	43
40.0173	122
41.0247	43
42.02	179
42.0326	50
43.0169	194
43.0281	999
44.0119	64
52.0172	35
