Mass spectrum: 2,6-Dichlorodiphenylamine; LC-ESI-QTOF; MS2; 80 V
Name: 2,6-Dichlorodiphenylamine
Class: Pharmaceutical
Formula: C12H9Cl2N
Exact mass: 237.0112
SMILES: C1=CC=C(C=C1)NC2=C(C=CC=C2Cl)Cl
InChI: InChI=1S/C12H9Cl2N/c13-10-7-4-8-11(14)12(10)15-9-5-2-1-3-6-9/h1-8,15H
Instrument: TripleTOF 5600 SCIEX
Instrument type: LC-ESI-QTOF
Ms type: MS2
Ion mode: POSITIVE
Collision energy: 80
Fragmentation mode: CID
Ionization: ESI
Column name: Zorbax Eclipse Plus C18 2.1 mm x 150 mm, 3.5 um, Agilent
Retention time: 14.125 min
Precursor m/z: 238.0185
Precursor type: [M+H]+
m/z	relative intensity
64.0333	70
66.0535	823
72.9889	683
77.0438	438
82.9516	210
89.0426	157
90.0361	999
91.0429	87
92.0516	315
93.0612	876
96.9873	105
97.9919	175
99.0006	350
106.9455	122
113.0394	192
115.0542	192
125.0025	245
126.0125	105
132.9609	262
139.0541	963
140.0516	560
160.9771	262
164.0474	105
166.0661	630
167.0735	525
