Mass spectrum: Fluorescein; LC-ESI-QTOF; MS2; 80 V
Name: Fluorescein
Class: Industrial_process; Pharmaceutical
Formula: C20H12O5
Exact mass: 332.0685
SMILES: C1=CC=C2C(=C1)C(=O)OC23C4=C(C=C(C=C4)O)OC5=C3C=CC(=C5)O
InChI: InChI=1S/C20H12O5/c21-11-5-7-15-17(9-11)24-18-10-12(22)6-8-16(18)20(15)14-4-2-1-3-13(14)19(23)25-20/h1-10,21-22H
Instrument: TripleTOF 5600 SCIEX
Instrument type: LC-ESI-QTOF
Ms type: MS2
Ion mode: POSITIVE
Collision energy: 80
Fragmentation mode: CID
Ionization: ESI
Column name: Zorbax Eclipse Plus C18 2.1 mm x 150 mm, 3.5 um, Agilent
Retention time: 9.527 min
Precursor m/z: 333.0757
Precursor type: [M+H]+
m/z	relative intensity
68.9969	14
77.0385	23
102.045	10
115.0539	40
127.0545	32
128.0614	33
131.0503	10
139.054	48
151.054	38
152.0608	52
155.0486	25
163.053	23
164.0616	17
165.0693	59
175.054	10
176.0625	93
177.0683	22
178.0772	52
184.0568	17
187.0533	37
188.0607	30
189.0702	342
190.0785	26
200.0621	94
201.0694	223
202.078	999
203.0857	98
205.0636	62
211.0538	18
212.0646	16
213.0703	275
214.0784	34
215.0852	129
218.0717	30
224.0618	16
229.064	129
230.0752	38
231.0796	145
234.0641	11
241.0638	11
242.0723	80
243.0782	28
245.0592	24
247.0711	9
253.068	10
257.0612	16
258.0677	186
259.0756	93
260.081	12
269.0608	20
271.0761	36
285.0531	9
287.0709	95
