Mass spectrum: Haloxyfop-2-ethoxyethyl; LC-ESI-QTOF; MS2; 40 V
Name: Haloxyfop-2-ethoxyethyl
Class: Herbicide
Formula: C19H19ClF3NO5
Exact mass: 433.0904
SMILES: CCOCCOC(=O)C(C)Oc1ccc(Oc2ncc(cc2Cl)C(F)(F)F)cc1
InChI: InChI=1S/C19H19ClF3NO5/c1-3-26-8-9-27-18(25)12(2)28-14-4-6-15(7-5-14)29-17-16(20)10-13(11-24-17)19(21,22)23/h4-7,10-12H,3,8-9H2,1-2H3
Instrument: TripleTOF 5600 SCIEX
Instrument type: LC-ESI-QTOF
Ms type: MS2
Ion mode: POSITIVE
Collision energy: 40
Fragmentation mode: CID
Ionization: ESI
Column name: Zorbax Eclipse Plus C18 2.1 mm x 150 mm, 3.5 um, Agilent
Retention time: 15.493 min
Precursor m/z: 434.0977
Precursor type: [M+H]+
m/z	relative intensity
45.0397	29
73.0672	45
91.0548	311
100.0514	29
119.0478	32
232.0101	16
260.0416	39
270.0282	29
272.0055	216
288.002	26
288.0378	298
290.02	13
298.0174	26
316.0337	999
344.0284	68
388.0626	36
434.0923	36
