Mass spectrum: Metalaxyl; LC-ESI-QTOF; MS2; 150 V
Name: Metalaxyl
Class: Fungicide
Formula: C15H21NO4
Exact mass: 279.1471
SMILES: CC1=C(C(=CC=C1)C)N(C(C)C(=O)OC)C(=O)COC
InChI: InChI=1S/C15H21NO4/c1-10-7-6-8-11(2)14(10)16(13(17)9-19-4)12(3)15(18)20-5/h6-8,12H,9H2,1-5H3
Instrument: TripleTOF 6600 SCIEX
Instrument type: LC-ESI-QTOF
Ms type: MS2
Ion mode: POSITIVE
Collision energy: 150
Fragmentation mode: CID
Ionization: ESI
Column name: Zorbax Eclipse Plus C18 2.1 mm x 150 mm, 3.5 um, Agilent
Retention time: 10.17 min
Precursor m/z: 280.1543
Precursor type: [M+H]+
m/z	relative intensity
37.0072	70
38.0153	88
39.023	185
45.0336	61
49.0071	123
50.0149	610
51.0228	999
61.0067	114
62.0146	159
63.0226	300
64.0304	44
65.0389	185
74.0148	106
75.0225	79
77.0381	495
78.0465	44
89.0381	574
90.0454	79
91.0533	79
102.0465	44
115.0543	97
117.0593	61
