Mass spectrum: 1,5-Naphthalenediamine; LC-ESI-QTOF; MS2; 80 V
Name: 1,5-Naphthalenediamine
Formula: C10H10N2
Exact mass: 158.0844
SMILES: C1=CC2=C(C=CC=C2N)C(=C1)N
InChI: InChI=1S/C10H10N2/c11-9-5-1-3-7-8(9)4-2-6-10(7)12/h1-6H,11-12H2
Instrument: TripleTOF X500R SCIEX
Instrument type: LC-ESI-QTOF
Ms type: MS2
Ion mode: POSITIVE
Collision energy: 80
Fragmentation mode: CID
Ionization: ESI
Column name: Zorbax Eclipse Plus C18 2.1 mm x 150 mm, 3.5 um, Agilent
Retention time: 2.752 min
Precursor m/z: 159.0917
Precursor type: [M+H]+
m/z	relative intensity
39.0231	454
51.023	181
65.0371	181
77.0381	363
87.0251	90
88.032	90
89.0374	635
102.0363	181
102.0423	90
103.0578	90
113.038	90
115.0546	999
