Mass spectrum: Norethynodrel; LC-ESI-QTOF; MS2; 150 V
Name: Norethynodrel
Class: Pharmaceutical
Formula: C20H26O2
Exact mass: 298.1933
SMILES: C[C@]12CC[C@H]3[C@@H](CCC4=C3CCC(=O)C4)[C@@H]1CC[C@@]2(O)C#C
InChI: InChI=1S/C20H26O2/c1-3-20(22)11-9-18-17-6-4-13-12-14(21)5-7-15(13)16(17)8-10-19(18,20)2/h1,16-18,22H,4-12H2,2H3/t16-,17-,18+,19+,20+/m1/s1
Instrument: TripleTOF 5600 SCIEX
Instrument type: LC-ESI-QTOF
Ms type: MS2
Ion mode: POSITIVE
Collision energy: 150
Fragmentation mode: CID
Ionization: ESI
Column name: Zorbax Eclipse Plus C18 2.1 mm x 150 mm, 3.5 um, Agilent
Retention time: 11.133 min
Precursor m/z: 299.2006
Precursor type: [M+H]+
m/z	relative intensity
53.0084	53
53.0433	65
55.0586	49
65.0425	555
66.0491	37
67.0581	24
74.0182	127
75.0265	69
76.0337	94
77.0414	999
77.0785	20
78.0483	86
79.058	94
83.0506	32
86.0181	20
87.0242	24
89.0405	242
91.0559	263
91.0744	28
94.0441	24
101.0406	20
102.046	106
103.0558	28
115.0544	374
126.0454	65
127.0526	119
128.0616	152
139.0552	41
150.0452	37
151.0538	53
152.0603	61
163.0543	53
165.0699	28
176.0649	16
187.0553	28
189.0675	16
