Mass spectrum: Formononetin; LC-ESI-QTOF; MS2; 130 V
Name: Formononetin
Class: Metabolite; Metabolite; Pharmaceutical
Formula: C16H12O4
Exact mass: 268.0736
SMILES: COc1ccc(cc1)C2=COc3cc(O)ccc3C2=O
InChI: InChI=1S/C16H12O4/c1-19-12-5-2-10(3-6-12)14-9-20-15-8-11(17)4-7-13(15)16(14)18/h2-9,17H,1H3
Instrument: TripleTOF 5600 SCIEX
Instrument type: LC-ESI-QTOF
Ms type: MS2
Ion mode: POSITIVE
Collision energy: 130
Fragmentation mode: CID
Ionization: ESI
Column name: Zorbax Eclipse Plus C18 2.1 mm x 150 mm, 3.5 um, Agilent
Retention time: 10.093 min
Precursor m/z: 269.0808
Precursor type: [M+H]+
m/z	relative intensity
53.0082	10
53.0428	10
60.0061	39
62.058	13
64.0364	63
65.0427	194
69.0003	50
73.0108	21
74.0186	293
75.0266	170
75.05	15
76.0341	82
77.042	170
78.051	26
81.0362	15
85.0096	21
86.0185	50
87.0255	82
88.0339	29
89.0412	999
89.0829	15
90.0485	13
91.0562	23
92.0297	13
98.0159	98
99.0236	50
101.0413	18
102.0467	66
102.0701	13
110.0146	18
113.0399	103
114.0474	29
115.0544	370
122.0179	18
125.0366	13
126.0459	111
127.0541	29
128.0631	18
137.0401	18
138.0444	21
139.0546	303
149.0381	31
150.0464	189
151.0549	90
152.0618	42
