Mass spectrum: Reserpine; LC-ESI-QTOF; MS2; 140 V
Name: Reserpine
Class: Natural_product; Pharmaceutical
Formula: C33H40N2O9
Exact mass: 608.2734
SMILES: COC1C(CC2CN3CCC4=C(C3CC2C1C(=O)OC)NC5=C4C=CC(=C5)OC)OC(=O)C6=CC(=C(C(=C6)OC)OC)OC
InChI: InChI=1S/C33H40N2O9/c1-38-19-7-8-20-21-9-10-35-16-18-13-27(44-32(36)17-11-25(39-2)30(41-4)26(12-17)40-3)31(42-5)28(33(37)43-6)22(18)15-24(35)29(21)34-23(20)14-19/h7-8,11-12,14,18,22,24,27-28,31,34H,9-10,13,15-16H2,1-6H3
Instrument: TripleTOF 5600 SCIEX
Instrument type: LC-ESI-QTOF
Ms type: MS2
Ion mode: POSITIVE
Collision energy: 140
Fragmentation mode: CID
Ionization: ESI
Column name: Zorbax Eclipse Plus C18 2.1 mm x 150 mm, 3.5 um, Agilent
Retention time: 8.6 min
Precursor m/z: 609.2807
Precursor type: [M+H]+
m/z	relative intensity
65.0451	34
66.0531	25
67.0611	19
77.0448	166
78.0513	39
79.022	10
79.0584	36
80.0548	11
81.0386	108
89.0427	48
90.0501	41
91.0582	110
92.0288	25
93.038	11
93.0619	17
94.0086	18
94.0447	25
94.0692	11
95.0528	27
96.0605	22
102.0491	15
103.057	133
104.053	73
105.0364	14
105.0612	33
106.0681	11
107.0151	73
107.0524	11
108.0227	14
108.0586	15
109.0317	82
114.0484	11
115.0564	252
116.0589	74
117.0596	202
118.0673	64
120.0829	11
121.0299	120
121.0659	16
122.0379	41
124.0545	16
127.0565	27
128.0568	88
129.0647	36
130.0667	999
131.0742	673
132.0468	51
132.0815	17
137.0242	84
139.0534	20
140.0509	20
141.0581	34
142.0656	118
143.0735	253
144.0602	10
144.0809	82
145.0532	37
145.0911	14
146.0599	54
147.0728	13
151.0403	127
152.0528	69
153.0679	25
154.066	105
155.0725	56
156.078	56
157.0878	17
158.0601	107
159.0682	178
160.0757	25
165.0687	35
166.0645	36
167.0726	120
168.0809	70
169.0534	16
169.0806	15
170.0585	74
170.084	13
171.0678	13
172.0745	39
173.0828	27
174.0918	34
176.0629	15
177.0664	13
178.0669	37
179.0724	27
180.0799	105
181.0886	36
182.0595	23
182.0934	14
183.0666	22
183.0953	11
184.0717	39
189.0682	19
190.0655	27
191.0736	65
192.0798	86
193.0865	64
194.095	39
195.065	10
195.0893	13
196.0735	25
198.0866	12
199.0832	14
202.0749	20
203.0723	38
204.0803	126
205.0849	56
206.0901	52
207.09	68
208.0824	48
210.089	22
215.0754	19
216.0791	41
217.0874	110
218.0953	75
219.0724	11
219.0947	31
220.0733	39
220.1025	19
221.0705	32
221.1044	19
222.0857	30
223.0861	13
227.0711	10
228.0784	28
229.0874	20
230.0942	59
231.0982	25
232.0778	19
232.108	17
233.0866	19
234.0864	28
235.085	21
236.0964	30
237.0984	10
241.0864	20
242.0975	11
245.0828	13
246.0887	34
247.0952	18
248.1034	10
249.0982	13
257.087	10
258.0901	11
260.1044	10
