Mass spectrum: Dronabinol; LC-ESI-QTOF; MS2; 20 V
Name: Dronabinol
Class: Pharmaceutical
Formula: C21H30O2
Exact mass: 314.2246
SMILES: CCCCCC1=CC(=C2C3C=C(CCC3C(OC2=C1)(C)C)C)O
InChI: InChI=1S/C21H30O2/c1-5-6-7-8-15-12-18(22)20-16-11-14(2)9-10-17(16)21(3,4)23-19(20)13-15/h11-13,16-17,22H,5-10H2,1-4H3
Instrument: TripleTOF 6600 SCIEX
Instrument type: LC-ESI-QTOF
Ms type: MS2
Ion mode: POSITIVE
Collision energy: 20
Fragmentation mode: CID
Ionization: ESI
Column name: Zorbax Eclipse Plus C18 2.1 mm x 150 mm, 3.5 um, Agilent
Retention time: 17.589 min
Precursor m/z: 315.2319
Precursor type: [M+H]+
m/z	relative intensity
81.0689	27
93.0688	10
135.1157	25
181.1217	14
193.1213	67
207.1366	11
221.152	24
231.1364	10
233.153	24
235.1687	20
259.1681	65
315.2321	999
