Mass spectrum: 9-Methylguanine; LC-ESI-QTOF; MS2; 40 V
Name: 9-Methylguanine
Class: Natural_product
Formula: C6H7N5O
Exact mass: 165.0651
InChI: InChI=1S/C6H7N5O/c1-11-2-8-3-4(11)9-6(7)10-5(3)12/h2H,1H3,(H3,7,9,10,12)
Instrument: TripleTOF 5600 SCIEX
Instrument type: LC-ESI-QTOF
Ms type: CID
Ion mode: POSITIVE
Collision energy: 40
Ionization: ESI
Column name: Zorbax Eclipse Plus C18 2.1 mm x 150 mm, 3.5 um, Agilent
Retention time: 2.43 min
Precursor m/z: 166.0723
Precursor type: [M+H]+
m/z	relative intensity
42.0329	123
55.028	49
80.0229	86
96.0569	98
121.0518	98
123.0652	123
124.0515	653
148.0671	86
149.0459	999
166.0746	296
