Mass spectrum: Nevirapine; LC-ESI-QTOF; MS2; 120 V
Name: Nevirapine
Class: Pharmaceutical
Formula: C15H14N4O
Exact mass: 266.1168
SMILES: Cc1ccnc2N(C3CC3)c4ncccc4C(=O)Nc12
InChI: InChI=1S/C15H14N4O/c1-9-6-8-17-14-12(9)18-15(20)11-3-2-7-16-13(11)19(14)10-4-5-10/h2-3,6-8,10H,4-5H2,1H3,(H,18,20)
Instrument: TripleTOF 5600 SCIEX
Instrument type: LC-ESI-QTOF
Ms type: MS2
Ion mode: POSITIVE
Collision energy: 120
Fragmentation mode: CID
Ionization: ESI
Column name: Zorbax Eclipse Plus C18 2.1 mm x 150 mm, 3.5 um, Agilent
Retention time: 7.301 min
Precursor m/z: 267.124
Precursor type: [M+H]+
m/z	relative intensity
41.0368	64
51.0288	999
52.0303	326
53.044	296
54.0389	19
64.0313	69
65.0295	138
65.0418	108
66.0379	163
67.0457	138
74.0172	212
75.0142	173
75.0251	370
76.0207	840
77.0275	93
77.0401	237
78.0359	717
79.0441	143
80.0507	222
81.049	19
87.0224	54
88.0197	64
88.0298	39
88.041	19
89.0397	326
89.0705	19
90.0355	178
91.043	39
91.0531	29
92.0372	148
92.0541	19
93.0461	108
98.0149	39
99.0107	24
99.0233	34
100.0202	98
101.0256	34
101.0392	79
102.033	153
103.0283	227
104.035	39
104.0498	74
105.0444	153
113.0378	34
114.0342	247
115.0419	98
116.0371	19
116.0505	98
117.0459	113
118.051	54
120.0579	24
125.0378	24
126.0345	64
127.045	24
128.0484	49
129.0428	93
130.04	34
131.0611	29
138.036	29
139.0426	44
140.0495	49
141.0485	54
142.0529	103
143.0629	19
144.0589	24
151.0423	19
153.0466	44
154.0501	24
155.0594	89
156.0589	29
165.0421	24
166.0497	39
167.0556	24
168.0555	29
170.0684	34
180.0559	29
