Mass spectrum: Acridone; LC-ESI-QTOF; MS2; 70 V
Name: Acridone
Class: Metabolite; Pharmaceutical; Transformation_product; Transformation_product-Metabolite
Formula: C13H9NO
Exact mass: 195.0684
SMILES: O=C1c2ccccc2Nc3ccccc13
InChI: InChI=1S/C13H9NO/c15-13-9-5-1-3-7-11(9)14-12-8-4-2-6-10(12)13/h1-8H,(H,14,15)
Instrument: TripleTOF 5600 SCIEX
Instrument type: LC-ESI-QTOF
Ms type: MS2
Ion mode: NEGATIVE
Collision energy: 70
Fragmentation mode: CID
Ionization: ESI
Column name: Zorbax Eclipse Plus C18 2.1 mm x 150 mm, 3.5 um, Agilent
Retention time: 8.5 min
Precursor m/z: 194.0611
Precursor type: [M-H]-
m/z	relative intensity
41.006	86
41.9998	103
50.004	68
63.0112	68
65.0031	241
65.9983	999
74.0046	51
88.0191	241
89.0249	103
90.0349	120
114.0316	68
115.0418	86
116.0481	137
138.0335	103
139.0414	120
140.0493	292
144.0418	258
163.0409	86
164.0485	895
165.058	172
166.0669	103
168.0454	206
192.0431	533
193.0519	120
194.0595	275
