Mass spectrum: 2-Benzylimidazole; LC-ESI-QTOF; MS2; 90 V
Name: 2-Benzylimidazole
Class: Pharmaceutical
Formula: C10H12N2
Exact mass: 160.1
SMILES: C1CN=C(N1)CC2=CC=CC=C2
InChI: InChI=1S/C10H12N2/c1-2-4-9(5-3-1)8-10-11-6-7-12-10/h1-5H,6-8H2,(H,11,12)
Instrument: TripleTOF 5600 SCIEX
Instrument type: LC-ESI-QTOF
Ms type: MS2
Ion mode: POSITIVE
Collision energy: 90
Fragmentation mode: CID
Ionization: ESI
Column name: Zorbax Eclipse Plus C18 2.1 mm x 150 mm, 3.5 um, Agilent
Retention time: 4.619 min
Precursor m/z: 161.1073
Precursor type: [M+H]+
m/z	relative intensity
37.0068	178
38.0147	178
39.023	673
41.0383	52
42.0342	52
49.0072	63
50.0151	241
51.0232	220
54.0338	73
61.0073	136
62.0157	199
63.0232	231
65.0385	999
74.0166	52
77.0382	63
89.0385	84
91.0542	273
