Mass spectrum: Benzyl-dimethyl-decylammonium; LC-ESI-QTOF; MS2; 130 V
Name: Benzyl-dimethyl-decylammonium
Class: Antimicrobial; Pharmaceutical
Formula: [C19H34N]+
Exact mass: 276.2686
SMILES: CCCCCCCCCC[N+](C)(C)Cc1ccccc1
InChI: InChI=1S/C19H34N/c1-4-5-6-7-8-9-10-14-17-20(2,3)18-19-15-12-11-13-16-19/h11-13,15-16H,4-10,14,17-18H2,1-3H3/q+1
Instrument: TripleTOF 5600 SCIEX
Instrument type: LC-ESI-QTOF
Ms type: MS2
Ion mode: POSITIVE
Collision energy: 130
Fragmentation mode: CID
Ionization: ESI
Column name: Zorbax Eclipse Plus C18 2.1 mm x 150 mm, 3.5 um, Agilent
Retention time: 10.366 min
Precursor m/z: 276.2686
Precursor type: [M]+
m/z	relative intensity
42.0417	58
58.0704	210
65.0432	999
91.0556	602
