Mass spectrum: Methotrexate; LC-ESI-QTOF; MS2; 120 V
Name: Methotrexate
Class: Pharmaceutical
Formula: C20H22N8O5
Exact mass: 454.1713
InChI: InChI=1S/C20H22N8O5/c1-28(9-11-8-23-17-15(24-11)16(21)26-20(22)27-17)12-4-2-10(3-5-12)18(31)25-13(19(32)33)6-7-14(29)30/h2-5,8,13H,6-7,9H2,1H3,(H,25,31)(H,29,30)(H,32,33)(H4,21,22,23,26,27)
Instrument: TripleTOF 5600 SCIEX
Instrument type: LC-ESI-QTOF
Ms type: CID
Ion mode: POSITIVE
Collision energy: 120
Ionization: ESI
Column name: Zorbax Eclipse Plus C18 2.1 mm x 150 mm, 3.5 um, Agilent
Retention time: 4.911 min
Precursor m/z: 455.1786
Precursor type: [M+H]+
m/z	relative intensity
43.0446	113
65.0441	90
77.0417	363
79.0343	249
79.06	113
80.0336	340
106.0409	999
107.0467	181
121.0512	181
132.0396	90
133.0502	658
134.0602	113
159.0558	204
175.0748	204
