Mass spectrum: Codeinone; LC-ESI-QTOF; MS2; 110 V
Name: Codeinone
Class: Pharmaceutical
Formula: C18H19NO3
Exact mass: 297.1365
SMILES: CN1CCC23C4C1CC5=C2C(=C(C=C5)OC)OC3C(=O)C=C4
InChI: InChI=1S/C18H19NO3/c1-19-8-7-18-11-4-5-13(20)17(18)22-16-14(21-2)6-3-10(15(16)18)9-12(11)19/h3-6,11-12,17H,7-9H2,1-2H3
Instrument: TripleTOF 5600 SCIEX
Instrument type: LC-ESI-QTOF
Ms type: MS2
Ion mode: POSITIVE
Collision energy: 110
Fragmentation mode: CID
Ionization: ESI
Column name: Zorbax Eclipse Plus C18 2.1 mm x 150 mm, 3.5 um, Agilent
Retention time: 5.057 min
Precursor m/z: 298.1438
Precursor type: [M+H]+
m/z	relative intensity
44.0633	11
65.0458	29
74.0214	29
75.0275	32
76.0361	23
77.0431	145
78.0496	23
86.0203	15
87.0271	40
88.0334	39
89.0416	132
91.0575	22
98.017	9
101.0414	33
102.0488	70
103.0547	14
113.0396	156
114.0475	87
115.0555	294
125.0423	26
126.0469	156
127.055	146
128.0637	78
137.0428	15
138.0464	43
139.0549	999
140.0614	26
141.0703	43
150.0481	146
151.0543	194
152.0625	395
153.068	23
155.0525	14
163.0546	91
164.0615	36
165.0703	52
168.0549	12
176.0619	56
178.0786	15
187.0533	11
188.0621	9
189.0687	14
