Mass spectrum: 2-Hydroxyatrazine; LC-ESI-QTOF; MS2; 140 V
Name: 2-Hydroxyatrazine
Class: Transformation_product; Herbicide; Metabolite
Formula: C8H15N5O
Exact mass: 197.1277
SMILES: CCNC1=NC(=O)NC(=N1)NC(C)C
InChI: InChI=1S/C8H15N5O/c1-4-9-6-11-7(10-5(2)3)13-8(14)12-6/h5H,4H2,1-3H3,(H3,9,10,11,12,13,14)
Instrument: TripleTOF 6600 SCIEX
Instrument type: LC-ESI-QTOF
Ms type: MS2
Ion mode: NEGATIVE
Collision energy: 140
Fragmentation mode: CID
Ionization: ESI
Column name: Zorbax Eclipse Plus C18 2.1 mm x 150 mm, 3.5 um, Agilent
Retention time: 5.304 min
Precursor m/z: 196.1204
Precursor type: [M-H]-
m/z	relative intensity
40.0067	266
41.0146	466
41.9982	999
66.0084	66
