Mass spectrum: Demeclocycline; LC-ESI-QTOF; MS2; 40 V
Name: Demeclocycline
Class: Antimicrobial; Pharmaceutical
Formula: C21H21ClN2O8
Exact mass: 464.0986
SMILES: CN(C)C1C2CC3C(C4=C(C=CC(=C4C(=C3C(=O)C2(C(=C(C1=O)C(=O)N)O)O)O)O)Cl)O
InChI: InChI=1S/C21H21ClN2O8/c1-24(2)14-7-5-6-10(16(27)12-9(25)4-3-8(22)11(12)15(6)26)18(29)21(7,32)19(30)13(17(14)28)20(23)31/h3-4,6-7,14-15,25-27,30,32H,5H2,1-2H3,(H2,23,31)
Instrument: TripleTOF 5600 SCIEX
Instrument type: LC-ESI-QTOF
Ms type: MS2
Ion mode: POSITIVE
Collision energy: 40
Fragmentation mode: CID
Ionization: ESI
Column name: Zorbax Eclipse Plus C18 2.1 mm x 150 mm, 3.5 um, Agilent
Retention time: 5.787 min
Precursor m/z: 465.1059
Precursor type: [M+H]+
m/z	relative intensity
98.0636	134
114.0561	19
126.0568	94
139.0275	23
154.0501	623
226.0591	19
231.0212	19
233.0253	19
247.0061	27
259.0108	138
261.0281	386
271.0063	31
273.0283	59
277.0249	82
285.0368	47
287.0093	173
289.023	999
297.0259	19
299.0097	59
301.025	71
311.0072	47
313.0259	86
316.0664	51
317.0206	130
329.0242	55
334.0783	39
339.0065	169
341.0217	367
356.0661	35
357.0079	55
366.9751	23
366.9949	118
369.0137	161
384.0624	51
385.0085	161
402.0764	35
412.0603	63
430.0672	983
448.078	284
