Mass spectrum: Octhilinone; LC-ESI-QTOF; MS2; 110 V
Name: Octhilinone
Class: Fungicide; Antimicrobial
Formula: C11H19NOS
Exact mass: 213.1187
SMILES: CCCCCCCCN1C(=O)C=CS1
InChI: InChI=1S/C11H19NOS/c1-2-3-4-5-6-7-9-12-11(13)8-10-14-12/h8,10H,2-7,9H2,1H3
Instrument: TripleTOF 6600 SCIEX
Instrument type: LC-ESI-QTOF
Ms type: MS2
Ion mode: POSITIVE
Collision energy: 110
Fragmentation mode: CID
Ionization: ESI
Column name: Zorbax Eclipse Plus C18 2.1 mm x 150 mm, 3.5 um, Agilent
Retention time: 11.855 min
Precursor m/z: 214.126
Precursor type: [M+H]+
m/z	relative intensity
31.9725	21
35.9996	86
37.0075	304
38.0033	112
38.0155	269
39.0234	929
40.0183	30
41.0393	182
44.0139	256
44.9795	130
45.975	43
46.9828	34
47.9909	52
52.0072	30
52.0185	17
53.0026	112
53.0134	30
55.9715	26
56.9797	999
57.9874	321
58.9957	112
82.9822	30
83.9913	43
84.9743	30
