Mass spectrum: Tetracycline; LC-ESI-QTOF; MS2; 150 V
Name: Tetracycline
Class: Pharmaceutical
Formula: C22H24N2O8
Exact mass: 444.1533
SMILES: CC1(C2CC3C(C(=O)C(=C(C3(C(=O)C2=C(C4=C1C=CC=C4O)O)O)O)C(=O)N)N(C)C)O
InChI: InChI=1S/C22H24N2O8/c1-21(31)8-5-4-6-11(25)12(8)16(26)13-9(21)7-10-15(24(2)3)17(27)14(20(23)30)19(29)22(10,32)18(13)28/h4-6,9-10,15,25-26,29,31-32H,7H2,1-3H3,(H2,23,30)
Instrument: TripleTOF 5600 SCIEX
Instrument type: LC-ESI-QTOF
Ms type: MS2
Ion mode: POSITIVE
Collision energy: 150
Fragmentation mode: CID
Ionization: ESI
Column name: Zorbax Eclipse Plus C18 2.1 mm x 150 mm, 3.5 um, Agilent
Retention time: 5.46 min
Precursor m/z: 445.1605
Precursor type: [M+H]+
m/z	relative intensity
44.0507	38
68.9955	38
77.0362	76
89.0379	38
91.0528	38
102.0478	38
113.0398	76
114.0452	38
115.0529	345
126.0431	115
126.0537	38
127.0524	76
137.0383	38
138.0421	38
139.0544	922
140.0621	153
144.0621	38
150.0447	345
151.0529	461
152.062	999
153.0768	38
162.0436	76
163.0546	268
164.0638	38
165.0686	192
168.055	153
169.0587	38
175.0529	115
176.0603	192
179.0615	38
187.0623	76
188.0631	38
