Mass spectrum: Dimethenamid-ESA; LC-ESI-QTOF; MS2; 80 V
Name: Dimethenamid-ESA
Class: Transformation_product; Herbicide; Metabolite
Formula: C12H19NO5S2
Exact mass: 321.0705
SMILES: CC1=CSC(=C1N(C(C)COC)C(=O)CS(=O)(=O)O)C
InChI: InChI=1S/C12H19NO5S2/c1-8-6-19-10(3)12(8)13(9(2)5-18-4)11(14)7-20(15,16)17/h6,9H,5,7H2,1-4H3,(H,15,16,17)
Instrument: TripleTOF 6600 SCIEX
Instrument type: LC-ESI-QTOF
Ms type: MS2
Ion mode: POSITIVE
Collision energy: 80
Fragmentation mode: CID
Ionization: ESI
Column name: Zorbax Eclipse Plus C18 2.1 mm x 150 mm, 3.5 um, Agilent
Retention time: 7.036 min
Precursor m/z: 322.0778
Precursor type: [M+H]+
m/z	relative intensity
39.0231	199
41.0394	199
42.0341	111
43.0182	135
44.9795	191
45.034	191
51.0238	71
53.0388	127
55.0552	79
57.9875	47
58.9947	207
59.9905	79
65.0387	447
66.0467	71
67.0425	47
67.054	279
68.0504	47
68.98	47
70.9953	159
73.0096	31
77.0386	487
78.034	39
78.0464	167
79.0541	239
80.0499	479
81.0568	39
81.0687	47
82.0651	111
82.9953	55
84.0024	47
85.0112	87
90.046	47
91.0417	95
91.054	495
92.0501	167
92.0621	39
93.0572	367
94.0653	695
95.0734	143
96.0018	39
97.0108	783
98.0179	47
99.0258	135
103.0547	39
104.0489	239
105.058	303
105.0695	71
106.0656	271
107.0727	111
107.0846	31
108.0803	215
109.0109	175
110.0184	103
111.0261	791
112.0214	159
113.031	47
115.0546	151
116.0614	39
117.0573	319
118.0653	831
119.0372	103
119.0726	647
120.0815	135
121.0103	39
122.007	39
123.0137	103
123.0269	79
124.0215	351
125.0299	55
125.0415	207
126.0365	999
131.0737	39
132.0814	279
133.0897	103
134.0179	127
134.0965	223
135.0247	199
136.0213	351
137.0299	383
138.0374	367
140.0516	31
148.0208	71
149.0306	47
149.0426	63
150.0373	583
151.0135	39
151.0445	239
152.0164	719
152.0522	455
164.0531	55
166.0308	167
166.0684	87
