Mass spectrum: Pyrimethanil; LC-ESI-QTOF; MS2; 30 V
Name: Pyrimethanil
Class: Fungicide
Formula: C12H13N3
Exact mass: 199.1109
SMILES: CC1=CC(=NC(=N1)NC2=CC=CC=C2)C
InChI: InChI=1S/C12H13N3/c1-9-8-10(2)14-12(13-9)15-11-6-4-3-5-7-11/h3-8H,1-2H3,(H,13,14,15)
Instrument: TripleTOF 6600 SCIEX
Instrument type: LC-ESI-QTOF
Ms type: MS2
Ion mode: POSITIVE
Collision energy: 30
Fragmentation mode: CID
Ionization: ESI
Column name: Zorbax Eclipse Plus C18 2.1 mm x 150 mm, 3.5 um, Agilent
Retention time: 9.225 min
Precursor m/z: 200.1182
Precursor type: [M+H]+
m/z	relative intensity
42.034	13
80.0491	22
82.065	75
107.0603	147
119.0596	10
142.064	10
143.0604	25
159.0905	11
168.0674	30
182.0827	39
183.0912	118
200.1185	999
