Mass spectrum: Iobitridol; LC-ESI-QTOF; MS2; 80 V
Name: Iobitridol
Class: Pharmaceutical
Formula: C20H28I3N3O9
Exact mass: 834.896
SMILES: CN(CC(O)CO)C(=O)c1c(I)c(NC(=O)C(CO)CO)c(I)c(c1I)C(=O)N(C)CC(O)CO
InChI: InChI=1S/C20H28I3N3O9/c1-25(3-10(31)7-29)19(34)12-14(21)13(20(35)26(2)4-11(32)8-30)16(23)17(15(12)22)24-18(33)9(5-27)6-28/h9-11,27-32H,3-8H2,1-2H3,(H,24,33)
Instrument: TripleTOF 5600 SCIEX
Instrument type: LC-ESI-QTOF
Ms type: MS2
Ion mode: POSITIVE
Collision energy: 80
Fragmentation mode: CID
Ionization: ESI
Column name: Zorbax Eclipse Plus C18 2.1 mm x 150 mm, 3.5 um, Agilent
Retention time: 4.58 min
Precursor m/z: 835.9032
Precursor type: [M+H]+
m/z	relative intensity
170.0226	107
199.0609	76
218.0475	122
273.0922	76
285.9396	61
296.9285	230
313.9304	107
321.1081	76
325.9322	76
326.9446	138
339.9071	169
343.9416	184
345.9635	61
369.9199	153
383.7991	92
385.8215	230
387.9281	153
400.9992	230
413.8036	61
423.8331	184
426.9799	76
431.0176	107
439.7889	999
451.8315	122
456.9831	61
467.8316	92
470.8432	92
481.8345	76
497.8276	584
515.8496	199
554.8942	537
584.8893	107
584.9183	61
602.9122	184
628.7913	107
