Mass spectrum: Phenothiazine; LC-ESI-QTOF; MS2; 90 V
Name: Phenothiazine
Class: Pharmaceutical
Formula: C12H9NS
Exact mass: 199.0456
SMILES: C1=CC=C2C(=C1)NC3=CC=CC=C3S2
InChI: InChI=1S/C12H9NS/c1-3-7-11-9(5-1)13-10-6-2-4-8-12(10)14-11/h1-8,13H
Instrument: TripleTOF 6600 SCIEX
Instrument type: LC-ESI-QTOF
Ms type: MS2
Ion mode: POSITIVE
Collision energy: 90
Fragmentation mode: CID
Ionization: ESI
Column name: Zorbax Eclipse Plus C18 2.1 mm x 150 mm, 3.5 um, Agilent
Retention time: 13.113 min
Precursor m/z: 200.0529
Precursor type: [M+H]+
m/z	relative intensity
37.006	19
38.0143	22
39.0219	91
44.9781	71
49.0064	37
50.0143	207
51.0218	403
52.0167	9
52.0283	22
53.037	14
57.9857	12
59.9988	12
61.006	76
62.0137	150
63.0216	482
64.0169	19
64.0253	27
65.0373	86
67.9703	12
68.9779	368
69.9844	42
70.9919	12
74.0137	113
75.0211	187
76.0281	76
77.0372	368
78.0325	14
78.0432	24
81.9857	61
85.0052	22
86.013	76
87.0209	205
88.0168	44
88.0283	81
89.037	454
90.0332	22
90.042	39
91.0524	22
92.9777	32
94.9928	61
98.013	46
99.0204	29
100.0274	22
101.0367	84
102.0442	66
103.0409	12
108.0014	22
110.0139	14
111.0206	19
112.0164	12
113.0367	516
114.0362	136
115.0522	178
116.0476	37
117.0548	19
125.0361	27
126.0444	205
127.0522	227
128.0483	148
129.0421	51
137.0362	59
138.0437	84
139.0522	999
140.048	699
141.0506	29
145.0084	19
152.0469	27
153.0552	64
154.0626	51
155.0586	24
164.0474	71
165.0533	37
166.0627	180
167.0709	34
169.0101	22
170.0156	14
171.0227	14
196.0197	24
197.0272	19
