Mass spectrum: Food Yellow 3 free acid; LC-ESI-QTOF; MS2; 30 V
Name: Food Yellow 3 free acid
Formula: C16H12N2O7S2
Exact mass: 408.0086
SMILES: C1=CC(=CC=C1N=NC2=C(C=CC3=C2C=CC(=C3)S(=O)(=O)O)O)S(=O)(=O)O
InChI: InChI=1S/C16H12N2O7S2/c19-15-8-1-10-9-13(27(23,24)25)6-7-14(10)16(15)18-17-11-2-4-12(5-3-11)26(20,21)22/h1-9,19H,(H,20,21,22)(H,23,24,25)
Instrument: TripleTOF 6600 SCIEX
Instrument type: LC-ESI-QTOF
Ms type: MS2
Ion mode: NEGATIVE
Collision energy: 30
Fragmentation mode: CID
Ionization: ESI
Column name: Zorbax Eclipse Plus C18 2.1 mm x 150 mm, 3.5 um, Agilent
Retention time: 5.59 min
Precursor m/z: 202.9969
Precursor type: [M-2H]2-
m/z	relative intensity
63.9619	6
79.7102	0
79.9571	160
80.9647	6
88.0177	0
89.0267	4
90.0341	10
92.0257	0
93.0335	2
101.039	0
106.704	2
107.0371	395
108.0393	0
113.0385	1
113.6789	0
114.0344	110
114.6823	0
115.042	70
116.047	0
117.0209	21
129.0335	2
130.0415	12
131.0376	0
132.9978	0
141.5836	0
142.0294	209
143.0368	30
143.9877	11
144.0444	1
145.0282	0
155.4971	0
155.9881	149
156.9952	3
157.5414	0
158.0364	102
159.0312	9
162.0017	0
169.9902	1
170.0255	0
170.4612	3
170.4827	0
170.999	833
171.6512	0
172.0011	1
172.0392	17
179.9875	6
180.4137	2
180.9835	560
181.9867	1
187.9827	0
192.9955	4
194.0036	12
204.9937	0
205.3423	4
205.9911	999
206.6973	0
206.7814	0
206.8033	0
206.999	392
208.0004	1
208.8461	0
220.9917	0
221.9975	3
232.0501	0
233.0619	0
234.9932	1
236.0016	7
296.0161	0
297.025	0
