Mass spectrum: (S)-N-methyl-pregabalin; LC-ESI-QTOF; MS2; 110 V
Name: (S)-N-methyl-pregabalin
Formula: C9H19NO2
Exact mass: 173.1416
SMILES: CC(C)CC(CC(=O)O)CNC
InChI: InChI=1S/C9H19NO2/c1-7(2)4-8(6-10-3)5-9(11)12/h7-8,10H,4-6H2,1-3H3,(H,11,12)
Instrument: TripleTOF 5600 SCIEX
Instrument type: LC-ESI-QTOF
Ms type: MS2
Ion mode: POSITIVE
Collision energy: 110
Fragmentation mode: CID
Ionization: ESI
Column name: Zorbax Eclipse Plus C18 2.1 mm x 150 mm, 3.5 um, Agilent
Retention time: 4.84 min
Precursor m/z: 174.1489
Precursor type: [M+H]+
m/z	relative intensity
35.9997	86
37.0078	346
38.0153	286
39.0233	999
41.039	386
42.0347	46
43.0181	173
43.0552	86
44.0495	439
44.9981	33
45.0338	66
50.0163	39
51.0233	39
53.0384	59
54.0344	66
55.0184	33
55.0545	66
