Mass spectrum: 2-N-methyl-lamotrigine; LC-ESI-QTOF; MS2; 130 V
Name: 2-N-methyl-lamotrigine
Class: Metabolite; Pharmaceutical
Formula: C10H9Cl2N5
Exact mass: 269.0235
SMILES: CN1N=C(C2=CC=CC(Cl)=C2Cl)C(N)=NC1=N
InChI: InChI=1S/C10H9Cl2N5/c1-17-10(14)15-9(13)8(16-17)5-3-2-4-6(11)7(5)12/h2-4H,1H3,(H3,13,14,15)
Instrument: TripleTOF 5600 SCIEX
Instrument type: LC-ESI-QTOF
Ms type: MS2
Ion mode: POSITIVE
Collision energy: 130
Fragmentation mode: CID
Ionization: ESI
Column name: Zorbax Eclipse Plus C18 2.1 mm x 150 mm, 3.5 um, Agilent
Retention time: 6.444 min
Precursor m/z: 270.0308
Precursor type: [M+H]+
m/z	relative intensity
51.0285	29
57.0497	834
62.035	59
72.9866	387
73.0088	126
74.0171	999
74.0537	52
75.0115	52
75.0246	208
76.0192	74
76.0332	44
77.0388	29
83.977	44
84.9857	37
85.0096	96
86.017	223
87.0229	216
88.0182	96
88.0306	134
89.024	37
96.9842	126
99.0105	551
100.0182	223
114.0319	29
123.0011	89
