Mass spectrum: Mefloquine; LC-ESI-QTOF; MS2; 100 V
Name: Mefloquine
Class: Pharmaceutical
Formula: C17H16F6N2O
Exact mass: 378.1167
SMILES: C1CCNC(C1)C(C2=CC(=NC3=C2C=CC=C3C(F)(F)F)C(F)(F)F)O
InChI: InChI=1S/C17H16F6N2O/c18-16(19,20)11-5-3-4-9-10(15(26)12-6-1-2-7-24-12)8-13(17(21,22)23)25-14(9)11/h3-5,8,12,15,24,26H,1-2,6-7H2
Instrument: TripleTOF 5600 SCIEX
Instrument type: LC-ESI-QTOF
Ms type: MS2
Ion mode: POSITIVE
Collision energy: 100
Fragmentation mode: CID
Ionization: ESI
Column name: Zorbax Eclipse Plus C18 2.1 mm x 150 mm, 3.5 um, Agilent
Retention time: 8.432 min
Precursor m/z: 379.124
Precursor type: [M+H]+
m/z	relative intensity
54.0418	41
56.0592	115
65.0462	31
67.0474	105
68.056	208
69.0017	134
70.0707	93
74.0198	14
75.0107	28
75.0291	22
77.0461	39
80.0552	78
81.0615	16
82.0697	498
83.0349	16
83.0757	10
84.0851	136
86.0185	10
87.0246	12
88.0333	16
93.0155	12
96.0835	35
98.0164	35
99.0104	35
99.0243	53
100.0244	20
101.0394	12
105.0156	12
106.0204	18
107.0297	16
110.0178	14
111.0245	20
112.0237	12
113.0416	55
114.0334	28
114.048	12
115.0543	14
117.0144	22
118.0238	12
119.0087	14
119.0317	18
122.0159	20
123.0204	105
124.0192	105
125.0222	33
125.0388	88
126.0346	41
126.0485	47
127.0546	80
128.0537	39
129.0528	12
131.0308	47
132.0374	78
133.045	182
134.04	14
136.0157	12
137.0379	41
138.0471	117
139.0512	144
140.0499	345
141.015	22
141.054	12
141.0674	10
143.0305	117
144.028	95
145.0317	80
146.0415	37
147.0181	57
148.0178	88
149.0189	150
149.0395	82
150.0394	198
151.0377	66
151.0539	219
152.031	20
152.0507	440
153.0598	179
154.0393	10
154.0644	57
155.0291	47
156.0342	62
157.0296	18
157.0471	88
158.0408	308
159.0462	24
161.0188	105
162.0289	144
163.0386	229
164.0501	444
165.0569	428
166.0206	14
166.0646	241
167.0197	182
167.0675	66
168.0255	316
168.0765	10
169.0422	382
170.0418	182
171.0476	55
172.0188	10
172.0369	22
173.0206	22
174.0113	24
174.0277	111
175.0361	239
176.0373	490
177.0546	246
178.0609	138
179.0373	22
179.0622	219
180.0262	43
180.0691	62
181.0321	252
181.0789	18
182.0389	587
183.0473	281
184.0578	190
185.0203	35
186.0264	119
187.0356	270
188.0354	442
189.0396	525
190.0587	208
191.0155	14
191.058	33
191.0734	31
192.0288	45
192.0695	91
193.0283	119
193.076	59
194.0232	999
194.1054	10
195.0458	322
196.0463	316
197.0151	14
197.054	70
198.0211	10
198.055	14
199.0347	78
200.0317	316
201.0388	210
202.0483	510
203.0212	16
203.0586	167
204.0175	24
204.0769	53
205.0276	57
205.0735	31
205.0852	14
206.0391	179
206.0836	12
207.0341	194
208.0426	380
209.051	186
210.061	53
211.0188	76
212.0099	12
212.0339	70
212.0507	18
213.0087	14
213.038	384
214.0381	407
215.0506	270
216.0585	113
217.0272	26
217.0553	16
217.0732	18
218.0228	190
218.0844	16
219.0401	91
219.0993	22
220.0366	275
221.0397	68
221.0555	45
222.0521	109
223.0695	80
224.0314	72
225.0374	84
226.0462	339
227.0446	126
228.0508	111
229.0583	136
230.024	12
230.0652	47
231.0283	136
232.0408	132
233.0498	148
234.0549	208
235.0603	62
236.0552	53
237.0324	28
238.0288	419
239.0504	64
240.0446	35
240.0638	10
241.0603	78
242.0716	22
243.0172	10
243.0749	62
244.037	140
245.0425	55
246.0501	84
247.0446	28
247.0672	35
248.0645	24
249.0561	26
249.0702	28
249.0856	18
250.0465	16
251.041	68
252.0429	173
253.0581	47
254.0652	37
255.0598	10
255.0747	28
256.0204	12
257.0375	37
258.0402	70
259.0545	43
261.0605	16
262.0238	26
264.0443	59
265.0424	12
265.0608	22
266.0574	10
267.0729	22
268.0889	12
269.0912	26
270.0357	55
271.0392	24
272.0603	35
273.0654	39
277.0499	14
278.0569	12
282.0509	10
283.0445	39
285.0596	22
296.0434	10
297.0499	14
298.0568	14
