Mass spectrum: Ofloxacin; LC-ESI-QTOF; MS2; 80 V
Name: Ofloxacin
Class: Antimicrobial; Pharmaceutical
Formula: C18H20FN3O4
Exact mass: 361.1438
SMILES: CC1COC2=C3N1C=C(C(=O)C3=CC(=C2N4CCN(CC4)C)F)C(=O)O
InChI: InChI=1S/C18H20FN3O4/c1-10-9-26-17-14-11(16(23)12(18(24)25)8-22(10)14)7-13(19)15(17)21-5-3-20(2)4-6-21/h7-8,10H,3-6,9H2,1-2H3,(H,24,25)
Instrument: TripleTOF 5600 SCIEX
Instrument type: LC-ESI-QTOF
Ms type: MS2
Ion mode: POSITIVE
Collision energy: 80
Fragmentation mode: CID
Ionization: ESI
Column name: Zorbax Eclipse Plus C18 2.1 mm x 150 mm, 3.5 um, Agilent
Retention time: 5.185 min
Precursor m/z: 362.1511
Precursor type: [M+H]+
m/z	relative intensity
42.0458	140
56.0594	61
58.0728	157
70.0692	122
72.0851	122
74.0198	52
75.027	122
76.0248	61
77.0435	78
78.0406	52
82.0694	113
83.0339	43
89.04	78
90.0341	70
93.0143	43
94.0248	70
95.0321	254
96.0319	122
97.0453	35
100.0219	70
101.0402	87
102.0354	271
103.0427	105
104.0115	35
104.051	236
107.0301	148
108.0252	61
108.0385	61
109.0386	78
109.048	35
110.0397	113
114.0331	70
115.0526	131
116.0502	262
117.0464	61
117.0572	87
118.0279	43
118.0589	61
120.0272	148
121.0363	175
122.0407	999
123.0466	236
124.0212	52
125.0343	52
127.0304	43
127.0506	43
128.0513	157
129.0474	192
130.0295	140
130.0466	43
130.0654	70
131.062	61
132.0277	35
132.0448	96
133.0442	192
134.0411	236
135.0261	87
135.0488	192
136.0195	70
136.0533	87
137.0273	43
137.0528	61
138.035	113
140.0493	157
141.0492	131
142.0545	78
142.0666	70
143.0228	43
143.0399	43
143.0606	122
144.0461	52
144.0743	52
145.0416	140
146.052	166
147.0388	359
147.0603	43
148.0227	157
148.0423	70
148.055	236
149.0505	166
150.0349	613
151.0427	481
152.0385	184
153.0501	61
154.0634	96
155.0597	201
156.046	61
156.07	105
157.0376	254
157.0766	61
158.0253	184
158.0524	96
159.0518	131
160.0536	324
161.0286	43
161.0405	52
161.052	157
162.0385	122
162.0608	96
163.033	148
163.0489	70
163.0681	52
164.0488	157
165.0454	403
166.0306	78
166.0529	70
167.0626	87
168.0679	43
169.0772	87
170.0572	78
170.0747	43
171.0573	262
172.0428	43
172.0551	113
173.0529	78
174.0372	70
174.0577	35
174.0661	43
175.0375	175
175.0662	78
176.0192	78
176.0469	210
176.078	43
177.0417	122
177.0622	43
178.0278	184
178.052	78
179.0358	718
179.0631	70
180.046	131
181.0686	52
182.0636	35
182.0778	61
183.054	140
183.0874	43
184.0689	43
185.0359	148
185.0664	78
186.0563	61
187.0369	70
187.0639	105
188.0482	280
189.046	254
190.0271	61
190.0528	96
191.0537	43
191.0682	70
192.046	201
193.0393	245
194.0485	490
195.06	87
196.094	35
197.0574	43
199.0548	78
200.0562	105
201.0617	87
202.0531	70
203.0225	105
203.0387	78
203.0619	254
204.0429	210
205.0391	604
205.0804	61
206.0612	43
207.0525	35
209.0697	43
210.0647	131
211.0458	35
211.0871	61
212.0605	35
213.0625	43
214.0685	61
215.0601	87
216.0578	96
217.0402	87
218.0277	43
218.0556	61
219.0555	227
221.0738	52
223.082	61
224.0811	157
225.0846	78
227.0664	43
231.0213	52
231.0575	131
238.092	61
243.0809	70
252.115	61
253.1182	70
272.0485	61
