Mass spectrum: o-Aminoazotoluene; LC-ESI-QTOF; MS2; 50 V
Name: o-Aminoazotoluene
Formula: C14H15N3
Exact mass: 225.1266
SMILES: CC1=CC=CC=C1N=NC2=CC(=C(C=C2)N)C
InChI: InChI=1S/C14H15N3/c1-10-5-3-4-6-14(10)17-16-12-7-8-13(15)11(2)9-12/h3-9H,15H2,1-2H3
Instrument: TripleTOF X500R SCIEX
Instrument type: LC-ESI-QTOF
Ms type: MS2
Ion mode: POSITIVE
Collision energy: 50
Fragmentation mode: CID
Ionization: ESI
Column name: Zorbax Eclipse Plus C18 2.1 mm x 150 mm, 3.5 um, Agilent
Retention time: 13.733 min
Precursor m/z: 226.1339
Precursor type: [M+H]+
m/z	relative intensity
39.0232	88
41.0388	31
51.0231	30
63.023	52
64.031	26
65.0384	624
66.0455	14
67.0539	17
77.0386	287
78.0343	25
79.0544	136
80.0496	19
89.0387	873
90.0464	301
91.0541	999
92.0493	40
93.0576	82
94.0653	290
104.0495	67
105.0446	57
106.0649	960
107.0728	790
115.0537	16
118.0529	29
119.0607	66
120.0807	26
121.0757	395
139.0541	15
140.0505	13
163.053	13
164.061	13
165.0698	63
166.0656	37
167.0729	83
168.0701	20
178.0785	12
180.0807	36
181.0761	19
182.094	16
183.0921	12
191.0724	20
192.0697	41
193.0772	43
194.0847	35
195.0903	11
196.0867	12
207.0902	24
209.1051	19
210.1017	15
224.1184	11
