Mass spectrum: 1-Hexyl-3-methylimidazolium; LC-ESI-QTOF; MS2; 30 V
Name: 1-Hexyl-3-methylimidazolium
Formula: C10H19N2
Exact mass: 167.1543
SMILES: CCCCCCN1C=C[N+](=C1)C
InChI: InChI=1S/C10H19N2/c1-3-4-5-6-7-12-9-8-11(2)10-12/h8-10H,3-7H2,1-2H3/q+1
Instrument: TripleTOF 5600 SCIEX
Instrument type: LC-ESI-QTOF
Ms type: MS2
Ion mode: POSITIVE
Collision energy: 30
Fragmentation mode: CID
Ionization: ESI
Column name: Zorbax Eclipse Plus C18 2.1 mm x 150 mm, 3.5 um, Agilent
Retention time: 5.732 min
Precursor m/z: 167.1543
Precursor type: [M]+
m/z	relative intensity
43.0547	53
83.0595	999
167.1543	170
