Mass spectrum: Diaveridine; LC-ESI-QTOF; MS2; 50 V
Name: Diaveridine
Class: Pharmaceutical
Formula: C13H16N4O2
Exact mass: 260.1273
SMILES: COC1=C(C=C(C=C1)CC2=CN=C(N=C2N)N)OC
InChI: InChI=1S/C13H16N4O2/c1-18-10-4-3-8(6-11(10)19-2)5-9-7-16-13(15)17-12(9)14/h3-4,6-7H,5H2,1-2H3,(H4,14,15,16,17)
Instrument: TripleTOF 5600 SCIEX
Instrument type: LC-ESI-QTOF
Ms type: MS2
Ion mode: POSITIVE
Collision energy: 50
Fragmentation mode: CID
Ionization: ESI
Column name: Zorbax Eclipse Plus C18 2.1 mm x 150 mm, 3.5 um, Agilent
Retention time: 4.966 min
Precursor m/z: 261.1346
Precursor type: [M+H]+
m/z	relative intensity
43.0431	10
54.0425	29
68.0436	15
77.0437	24
79.0351	12
79.0603	10
81.0501	386
83.052	9
103.0577	19
106.0424	44
107.052	150
109.0533	11
110.0616	132
111.0687	40
116.0541	11
123.0686	762
124.0755	16
128.0506	27
130.0668	32
131.0521	49
135.0455	66
140.051	18
145.0779	21
146.0601	13
148.0751	14
151.0771	22
155.0618	18
156.0464	26
158.0604	74
159.0658	14
161.0818	24
170.0701	29
171.0708	21
172.0827	57
173.0748	67
175.0946	26
182.0708	27
183.056	28
184.0426	9
185.0823	23
186.0574	17
187.0973	178
188.1042	18
198.0683	16
199.0753	13
199.0991	19
200.082	63
200.1069	12
201.066	10
203.0926	76
215.092	121
216.1007	33
217.1089	132
226.0616	13
228.0751	17
229.1086	18
243.0882	172
245.1026	999
