Mass spectrum: Diatrizoic acid; LC-ESI-QTOF; MS2; 120 V
Name: Diatrizoic acid
Class: Pharmaceutical
Formula: C11H9I3N2O4
Exact mass: 613.7697
SMILES: CC(=O)NC1=C(C(=C(C(=C1I)C(=O)O)I)NC(=O)C)I
InChI: InChI=1S/C11H9I3N2O4/c1-3(17)15-9-6(12)5(11(19)20)7(13)10(8(9)14)16-4(2)18/h1-2H3,(H,15,17)(H,16,18)(H,19,20)
Instrument: TripleTOF 5600 SCIEX
Instrument type: LC-ESI-QTOF
Ms type: MS2
Ion mode: POSITIVE
Collision energy: 120
Fragmentation mode: CID
Ionization: ESI
Column name: Zorbax Eclipse Plus C18 2.1 mm x 150 mm, 3.5 um, Agilent
Retention time: 4.549 min
Precursor m/z: 614.7769
Precursor type: [M+H]+
m/z	relative intensity
77.0313	96
78.0387	161
79.0436	161
90.0348	112
91.0418	161
92.0507	128
105.0221	80
105.0441	145
106.0268	161
106.0511	64
107.0376	209
117.0456	112
118.0523	370
119.0629	80
120.044	306
120.07	96
134.0313	80
145.0393	177
146.0235	128
146.0462	418
147.0311	112
147.0561	112
148.0395	999
148.0613	257
159.0533	177
160.0352	112
161.0699	96
165.0423	225
174.0426	96
187.0508	290
189.062	112
192.0498	241
203.9305	177
205.0582	290
219.0374	80
231.9293	145
233.056	306
