Mass spectrum: L-Isoleucine; LC-ESI-QTOF; MS2; 40 V
Name: L-Isoleucine
Class: Food_additive; Personal_care_product
Formula: C6H13NO2
Exact mass: 131.0946
SMILES: CCC(C(C(O)=O)N)C
InChI: InChI=1S/C6H13NO2/c1-3-4(2)5(7)6(8)9/h4-5H,3,7H2,1-2H3,(H,8,9)
Instrument: TripleTOF 5600 SCIEX
Instrument type: LC-ESI-QTOF
Ms type: MS2
Ion mode: POSITIVE
Collision energy: 40
Fragmentation mode: CID
Ionization: ESI
Column name: Zorbax Eclipse Plus C18 2.1 mm x 150 mm, 3.5 um, Agilent
Retention time: 2.357 min
Precursor m/z: 132.1019
Precursor type: [M+H]+
m/z	relative intensity
36.0014	12
37.0073	43
38.0155	40
39.0234	358
41.0393	640
42.0345	105
43.0183	17
43.0425	10
43.0551	23
44.0502	999
45.0341	140
53.0392	12
55.0194	10
55.0548	92
56.0502	537
57.0579	541
58.0656	118
59.0501	25
67.0543	40
69.035	30
69.0703	737
70.0657	66
71.0731	30
73.0653	34
86.0971	487
87.0449	10
