Mass spectrum: Nitrendipine; LC-ESI-QTOF; MS2; 110 V
Name: Nitrendipine
Class: Pharmaceutical
Formula: C18H20N2O6
Exact mass: 360.1321
SMILES: CCOC(=O)C1=C(NC(=C(C1C2=CC(=CC=C2)[N+](=O)[O-])C(=O)OC)C)C
InChI: InChI=1S/C18H20N2O6/c1-5-26-18(22)15-11(3)19-10(2)14(17(21)25-4)16(15)12-7-6-8-13(9-12)20(23)24/h6-9,16,19H,5H2,1-4H3
Instrument: TripleTOF 5600 SCIEX
Instrument type: LC-ESI-QTOF
Ms type: MS2
Ion mode: POSITIVE
Collision energy: 110
Fragmentation mode: CID
Ionization: ESI
Column name: Zorbax Eclipse Plus C18 2.1 mm x 150 mm, 3.5 um, Agilent
Retention time: 12.373 min
Precursor m/z: 361.1394
Precursor type: [M+H]+
m/z	relative intensity
42.0444	25
65.0441	21
67.0247	389
74.0196	21
75.0271	46
76.0363	63
77.0426	287
78.0501	63
79.0577	38
80.0533	16
88.0345	29
89.0412	122
91.0563	55
92.0257	21
93.0587	29
94.0692	21
101.0403	59
102.0464	118
103.0545	25
104.0501	67
105.0553	21
106.0659	71
113.0385	88
114.04	21
114.0483	38
115.055	622
116.0505	25
117.0669	21
122.0605	16
125.0386	42
126.0475	198
127.0547	385
128.0626	330
129.0703	25
130.066	42
137.0415	38
138.0491	71
139.0551	749
140.0521	389
141.0687	126
142.0607	33
144.0781	33
150.0472	122
151.0545	364
152.062	999
153.0663	203
154.0647	228
155.0747	21
162.0489	21
163.0549	88
164.0493	126
165.0609	114
166.0643	203
167.0722	325
168.0786	93
177.0567	50
178.0633	190
179.0704	55
180.0809	287
181.0921	71
182.0957	25
190.0635	29
194.0632	16
208.0803	16
209.0789	25
