Mass spectrum: Dimethenamid-ESA; LC-ESI-QTOF; MS2; 150 V
Name: Dimethenamid-ESA
Class: Transformation_product; Herbicide; Metabolite
Formula: C12H19NO5S2
Exact mass: 321.0705
SMILES: CC1=CSC(=C1N(C(C)COC)C(=O)CS(=O)(=O)O)C
InChI: InChI=1S/C12H19NO5S2/c1-8-6-19-10(3)12(8)13(9(2)5-18-4)11(14)7-20(15,16)17/h6,9H,5,7H2,1-4H3,(H,15,16,17)
Instrument: TripleTOF 6600 SCIEX
Instrument type: LC-ESI-QTOF
Ms type: MS2
Ion mode: POSITIVE
Collision energy: 150
Fragmentation mode: CID
Ionization: ESI
Column name: Zorbax Eclipse Plus C18 2.1 mm x 150 mm, 3.5 um, Agilent
Retention time: 7.036 min
Precursor m/z: 322.0778
Precursor type: [M+H]+
m/z	relative intensity
37.0083	305
38.0153	222
39.0231	999
41.0399	138
43.0188	194
44.9797	999
45.0346	166
50.0156	499
51.0234	971
53.039	444
54.0347	138
56.9803	166
57.9879	360
58.9951	610
59.9902	249
62.015	166
63.023	333
65.0391	832
66.0473	138
67.0437	166
68.9806	388
70.9952	249
77.0389	527
78.0345	305
78.0473	111
80.0499	444
89.039	249
91.0543	360
92.0501	138
93.0573	138
94.0659	194
94.9951	138
97.0109	249
104.0503	249
136.0237	138
