Mass spectrum: Butylphosphonic acid; LC-ESI-QTOF; MS2; 140 V
Name: Butylphosphonic acid
Formula: C4H11O3P
Exact mass: 138.0446
SMILES: CCCCP(=O)(O)O
InChI: InChI=1S/C4H11O3P/c1-2-3-4-8(5,6)7/h2-4H2,1H3,(H2,5,6,7)
Instrument: TripleTOF 5600 SCIEX
Instrument type: LC-ESI-QTOF
Ms type: MS2
Ion mode: POSITIVE
Collision energy: 140
Fragmentation mode: CID
Ionization: ESI
Column name: Zorbax Eclipse Plus C18 2.1 mm x 150 mm, 3.5 um, Agilent
Retention time: 4.77 min
Precursor m/z: 139.0519
Precursor type: [M+H]+
m/z	relative intensity
37.0052	35
38.0018	35
38.0156	35
46.9681	999
47.9755	71
58.98	35
