Mass spectrum: Iopromide; LC-ESI-QTOF; MS2; 60 V
Name: Iopromide
Class: Pharmaceutical
Formula: C18H24I3N3O8
Exact mass: 790.8698
SMILES: COCC(=O)Nc1c(I)c(C(=O)NCC(O)CO)c(I)c(c1I)C(=O)N(C)CC(O)CO
InChI: InChI=1S/C18H24I3N3O8/c1-24(4-9(28)6-26)18(31)12-13(19)11(17(30)22-3-8(27)5-25)14(20)16(15(12)21)23-10(29)7-32-2/h8-9,25-28H,3-7H2,1-2H3,(H,22,30)(H,23,29)
Instrument: TripleTOF 5600 SCIEX
Instrument type: LC-ESI-QTOF
Ms type: MS2
Ion mode: POSITIVE
Collision energy: 60
Fragmentation mode: CID
Ionization: ESI
Column name: Zorbax Eclipse Plus C18 2.1 mm x 150 mm, 3.5 um, Agilent
Retention time: 4.895 min
Precursor m/z: 791.877
Precursor type: [M+H]+
m/z	relative intensity
200.0561	11
204.0283	20
231.0764	11
232.0799	11
259.0701	57
277.0786	23
283.9196	37
287.9504	28
291.0979	77
297.9294	14
298.9058	34
298.9693	46
299.9146	999
311.9166	43
312.9474	77
313.9305	77
314.9378	54
315.9442	43
316.9411	40
325.9317	14
326.9014	190
326.9595	14
327.9098	17
327.9541	11
328.9412	46
329.9335	31
330.9301	17
330.9552	51
340.9396	20
340.9792	20
342.9567	25
343.9387	14
353.9248	17
354.9563	54
356.9351	17
357.9204	358
368.9701	28
370.9556	34
372.967	346
382.8287	17
385.974	14
386.9833	228
388.9606	46
398.8334	14
399.9572	75
400.9638	23
400.9986	75
404.9945	77
410.8251	49
413.8099	170
413.8447	28
413.9709	277
414.8563	57
414.9819	37
419.0111	66
422.8126	14
423.7953	372
424.8376	14
425.8104	233
426.8219	20
430.9678	34
436.8333	25
438.8244	31
440.8375	103
441.8432	51
444.9882	155
445.9972	23
453.8071	28
456.8545	86
467.8469	25
468.8394	17
469.8387	20
485.8303	167
496.8578	46
498.8595	37
510.864	40
512.8814	14
513.8876	20
526.8703	14
527.8678	482
531.9021	72
540.8714	57
541.8835	204
545.9093	31
554.8923	54
558.8861	744
571.937	11
572.8994	392
595.7203	20
595.7475	46
645.9515	72
773.8521	11
