Mass spectrum: Erlotinib; LC-ESI-QTOF; MS2; 50 V
Name: Erlotinib
Class: Pharmaceutical
Formula: C22H23N3O4
Exact mass: 393.1689
SMILES: COCCOC1=C(C=C2C(=C1)C(=NC=N2)NC3=CC=CC(=C3)C#C)OCCOC
InChI: InChI=1S/C22H23N3O4/c1-4-16-6-5-7-17(12-16)25-22-18-13-20(28-10-8-26-2)21(29-11-9-27-3)14-19(18)23-15-24-22/h1,5-7,12-15H,8-11H2,2-3H3,(H,23,24,25)
Instrument: TripleTOF 5600 SCIEX
Instrument type: LC-ESI-QTOF
Ms type: MS2
Ion mode: POSITIVE
Collision energy: 50
Fragmentation mode: CID
Ionization: ESI
Column name: Zorbax Eclipse Plus C18 2.1 mm x 150 mm, 3.5 um, Agilent
Retention time: 7.429 min
Precursor m/z: 394.1761
Precursor type: [M+H]+
m/z	relative intensity
59.0493	10
118.0651	16
136.0399	13
143.0604	12
151.0508	10
161.0347	29
195.092	11
205.0765	13
206.0605	33
207.0792	21
220.0871	22
222.1026	19
231.0791	26
232.0878	18
235.0757	10
237.0669	23
238.0739	11
248.0826	40
250.0978	106
251.0814	25
260.0816	43
261.0656	21
276.0772	244
277.0845	48
278.0926	999
290.0936	22
292.1091	25
304.1088	116
336.1349	53
