Mass spectrum: Nicosulfuron; LC-ESI-QTOF; MS2; 140 V
Name: Nicosulfuron
Class: Herbicide
Formula: C15H18N6O6S
Exact mass: 410.1009
SMILES: CN(C)C(=O)C1=C(N=CC=C1)S(=O)(=O)NC(=O)NC2=NC(=CC(=N2)OC)OC
InChI: InChI=1S/C15H18N6O6S/c1-21(2)13(22)9-6-5-7-16-12(9)28(24,25)20-15(23)19-14-17-10(26-3)8-11(18-14)27-4/h5-8H,1-4H3,(H2,17,18,19,20,23)
Instrument: TripleTOF 6600 SCIEX
Instrument type: LC-ESI-QTOF
Ms type: MS2
Ion mode: POSITIVE
Collision energy: 140
Fragmentation mode: CID
Ionization: ESI
Column name: Zorbax Eclipse Plus C18 2.1 mm x 150 mm, 3.5 um, Agilent
Retention time: 8.499 min
Precursor m/z: 411.1081
Precursor type: [M+H]+
m/z	relative intensity
37.0057	18
38.0005	36
38.0133	10
39.0204	60
40.0155	33
40.9995	18
41.024	52
43.0273	54
49.0047	44
50.0127	321
51.0206	999
52.016	33
52.9998	18
55.0273	26
56.0107	91
57.0423	26
64.0155	70
65.0105	190
65.0351	15
66.0204	20
67.0018	39
67.0262	15
68.0107	65
68.9941	73
69.0055	209
70.0264	20
78.0314	622
79.0263	13
80.0475	15
82.0258	15
83.0213	274
91.0265	39
92.0458	13
93.0056	237
94.0128	13
