Mass spectrum: Dehydroaripiprazole; LC-ESI-QTOF; MS2; 150 V
Name: Dehydroaripiprazole
Class: Metabolite; Pharmaceutical; Transformation_product-Metabolite
Formula: C23H25Cl2N3O2
Exact mass: 445.1324
SMILES: C1CN(CCN1CCCCOC2=CC3=C(C=C2)C=CC(=O)N3)C4=C(C(=CC=C4)Cl)Cl
InChI: InChI=1S/C23H25Cl2N3O2/c24-19-4-3-5-21(23(19)25)28-13-11-27(12-14-28)10-1-2-15-30-18-8-6-17-7-9-22(29)26-20(17)16-18/h3-9,16H,1-2,10-15H2,(H,26,29)
Instrument: TripleTOF 5600 SCIEX
Instrument type: LC-ESI-QTOF
Ms type: MS2
Ion mode: POSITIVE
Collision energy: 150
Fragmentation mode: CID
Ionization: ESI
Column name: Zorbax Eclipse Plus C18 2.1 mm x 150 mm, 3.5 um, Agilent
Retention time: 7.84 min
Precursor m/z: 446.1397
Precursor type: [M+H]+
m/z	relative intensity
39.0226	43
42.0336	108
55.0544	54
56.0485	173
62.0152	76
63.0223	195
65.0384	86
72.9824	54
74.0152	325
75.0226	206
77.0389	108
84.0808	86
89.0384	999
90.0459	217
91.055	130
101.0385	54
102.0344	65
108.9838	445
110.9994	119
116.0508	130
117.0564	542
118.0646	65
122.9982	54
125.0146	43
144.9606	293
152.0244	86
171.9711	97
172.9686	86
