Mass spectrum: Cyproconazole; LC-ESI-QTOF; MS2; 80 V
Name: Cyproconazole
Class: Fungicide
Formula: C15H18ClN3O
Exact mass: 291.1138
SMILES: CC(C1CC1)C(CN2C=NC=N2)(C3=CC=C(C=C3)Cl)O
InChI: InChI=1S/C15H18ClN3O/c1-11(12-2-3-12)15(20,8-19-10-17-9-18-19)13-4-6-14(16)7-5-13/h4-7,9-12,20H,2-3,8H2,1H3
Instrument: TripleTOF 6600 SCIEX
Instrument type: LC-ESI-QTOF
Ms type: MS2
Ion mode: POSITIVE
Collision energy: 80
Fragmentation mode: CID
Ionization: ESI
Column name: Zorbax Eclipse Plus C18 2.1 mm x 150 mm, 3.5 um, Agilent
Retention time: 11.30515 min
Precursor m/z: 292.1211
Precursor type: [M+H]+
m/z	relative intensity
39.0194	23
41.0348	10
43.0253	120
62.0091	18
63.017	101
65.0323	20
70.0339	999
72.977	66
74.0082	11
74.9926	15
75.016	59
77.0317	11
89.0306	462
90.0382	177
98.9905	246
110.9893	45
115.0431	13
125.0038	400
128.0503	11
138.9929	11
