Mass spectrum: Fingolimod; LC-ESI-QTOF; MS2; 60 V
Name: Fingolimod
Class: Pharmaceutical
Formula: C19H33NO2
Exact mass: 307.2511
SMILES: CCCCCCCCC1=CC=C(C=C1)CCC(CO)(CO)N
InChI: InChI=1S/C19H33NO2/c1-2-3-4-5-6-7-8-17-9-11-18(12-10-17)13-14-19(20,15-21)16-22/h9-12,21-22H,2-8,13-16,20H2,1H3
Instrument: TripleTOF 6600 SCIEX
Instrument type: LC-ESI-QTOF
Ms type: MS2
Ion mode: POSITIVE
Collision energy: 60
Fragmentation mode: CID
Ionization: ESI
Column name: Zorbax Eclipse Plus C18 2.1 mm x 150 mm, 3.5 um, Agilent
Retention time: 10.17 min
Precursor m/z: 308.2584
Precursor type: [M+H]+
m/z	relative intensity
39.0222	68
41.0377	193
43.0536	249
51.0216	21
55.0529	47
57.0686	249
65.0377	73
69.0684	17
71.0849	21
77.0373	133
79.0526	180
91.0527	999
103.0529	146
104.0602	17
105.0681	925
115.0531	198
116.0595	51
117.0677	150
119.0838	64
126.0446	17
127.0532	90
128.0599	615
129.0675	185
130.0796	38
131.0833	107
141.0682	271
142.0753	198
143.0835	90
145.0978	34
155.0581	38
155.0827	47
156.0921	77
157.0992	43
