Mass spectrum: Diazinon; LC-ESI-QTOF; MS2; 60 V
Name: Diazinon
Class: Insecticide
Formula: C12H21N2O3PS
Exact mass: 304.1011
SMILES: CCO[P](=S)(OCC)Oc1cc(C)nc(n1)C(C)C
InChI: InChI=1S/C12H21N2O3PS/c1-6-15-18(19,16-7-2)17-11-8-10(5)13-12(14-11)9(3)4/h8-9H,6-7H2,1-5H3
Instrument: TripleTOF 5600 SCIEX
Instrument type: LC-ESI-QTOF
Ms type: MS2
Ion mode: POSITIVE
Collision energy: 60
Fragmentation mode: CID
Ionization: ESI
Column name: Zorbax Eclipse Plus C18 2.1 mm x 150 mm, 3.5 um, Agilent
Retention time: 14.526 min
Precursor m/z: 305.1083
Precursor type: [M+H]+
m/z	relative intensity
42.0432	56
58.9998	29
59.9953	12
64.9831	54
67.0458	56
70.0694	143
78.9433	92
80.9765	98
82.9966	26
84.0474	255
90.9956	35
93.0457	14
96.9527	999
100.0229	528
109.0042	12
124.9809	12
135.0903	10
137.0701	10
153.0479	16
153.102	122
154.0543	26
169.079	227
