Mass spectrum: Fluometuron; LC-ESI-QTOF; MS2; 70 V
Name: Fluometuron
Class: Herbicide
Formula: C10H11F3N2O
Exact mass: 232.0823
SMILES: CN(C)C(=O)Nc1cccc(c1)C(F)(F)F
InChI: InChI=1S/C10H11F3N2O/c1-15(2)9(16)14-8-5-3-4-7(6-8)10(11,12)13/h3-6H,1-2H3,(H,14,16)
Instrument: TripleTOF 5600 SCIEX
Instrument type: LC-ESI-QTOF
Ms type: MS2
Ion mode: POSITIVE
Collision energy: 70
Fragmentation mode: CID
Ionization: ESI
Column name: Zorbax Eclipse Plus C18 2.1 mm x 150 mm, 3.5 um, Agilent
Retention time: 9.983 min
Precursor m/z: 233.0896
Precursor type: [M+H]+
m/z	relative intensity
72.0473	999
75.0246	67
75.0329	84
95.0302	135
125.0184	67
145.0251	118
