Mass spectrum: Tetraethylammonium; LC-ESI-QTOF; MS2; 70 V
Name: Tetraethylammonium
Class: Industrial_process
Formula: [C8H20N]+
Exact mass: 130.159
SMILES: CC[N+](CC)(CC)CC
InChI: InChI=1S/C8H20N/c1-5-9(6-2,7-3)8-4/h5-8H2,1-4H3/q+1
Instrument: TripleTOF 5600 SCIEX
Instrument type: LC-ESI-QTOF
Ms type: MS2
Ion mode: POSITIVE
Collision energy: 70
Fragmentation mode: CID
Ionization: ESI
Column name: Zorbax Eclipse Plus C18 2.1 mm x 150 mm, 3.5 um, Agilent
Retention time: 2.284 min
Precursor m/z: 130.159
Precursor type: [M]+
m/z	relative intensity
44.0571	194
58.0695	999
86.0976	852
