Mass spectrum: Pantoprazole sulfide; LC-ESI-QTOF; MS2; 110 V
Name: Pantoprazole sulfide
Class: Pharmaceutical; Metabolite; Transformation_product-Metabolite
Formula: C16H15F2N3O3S
Exact mass: 367.0802
SMILES: COC1=C(C(=NC=C1)CSC2=NC3=C(N2)C=CC(=C3)OC(F)F)OC
InChI: InChI=1S/C16H15F2N3O3S/c1-22-13-5-6-19-12(14(13)23-2)8-25-16-20-10-4-3-9(24-15(17)18)7-11(10)21-16/h3-7,15H,8H2,1-2H3,(H,20,21)
Instrument: TripleTOF 5600 SCIEX
Instrument type: LC-ESI-QTOF
Ms type: MS2
Ion mode: NEGATIVE
Collision energy: 110
Fragmentation mode: CID
Ionization: ESI
Column name: Zorbax Eclipse Plus C18 2.1 mm x 150 mm, 3.5 um, Agilent
Retention time: 7.575 min
Precursor m/z: 366.0729
Precursor type: [M-H]-
m/z	relative intensity
50.0033	57
52.018	85
57.9758	999
65.9987	856
74.004	85
75.0134	57
77.0144	342
81.9766	57
86.0022	57
88.0237	85
89.0134	171
91.9715	114
92.0139	171
102.0227	228
113.015	171
115.0295	142
119.0255	713
141.0092	57
145.9939	228
161.0125	85
162.9986	171
