Mass spectrum: Disperse orange 3; LC-ESI-QTOF; MS2; 40 V
Name: Disperse orange 3
Formula: C12H10N4O2
Exact mass: 242.0804
SMILES: C1=CC(=CC=C1N)N=NC2=CC=C(C=C2)[N+](=O)[O-]
InChI: InChI=1S/C12H10N4O2/c13-9-1-3-10(4-2-9)14-15-11-5-7-12(8-6-11)16(17)18/h1-8H,13H2
Instrument: TripleTOF 6600 SCIEX
Instrument type: LC-ESI-QTOF
Ms type: MS2
Ion mode: NEGATIVE
Collision energy: 40
Fragmentation mode: CID
Ionization: ESI
Column name: Zorbax Eclipse Plus C18 2.1 mm x 150 mm, 3.5 um, Agilent
Retention time: 12.729 min
Precursor m/z: 241.0731
Precursor type: [M-H]-
m/z	relative intensity
45.993	379
78.0337	63
91.0428	101
92.0258	202
122.025	999
195.0823	164
