Mass spectrum: Etoricoxib; LC-ESI-QTOF; MS2; 90 V
Name: Etoricoxib
Class: Pharmaceutical
Formula: C18H15ClN2O2S
Exact mass: 358.0543
SMILES: CC1=NC=C(C=C1)C2=NC=C(C=C2C3=CC=C(C=C3)S(=O)(=O)C)Cl
InChI: InChI=1S/C18H15ClN2O2S/c1-12-3-4-14(10-20-12)18-17(9-15(19)11-21-18)13-5-7-16(8-6-13)24(2,22)23/h3-11H,1-2H3
Instrument: TripleTOF 5600 SCIEX
Instrument type: LC-ESI-QTOF
Ms type: MS2
Ion mode: POSITIVE
Collision energy: 90
Fragmentation mode: CID
Ionization: ESI
Column name: Zorbax Eclipse Plus C18 2.1 mm x 150 mm, 3.5 um, Agilent
Retention time: 6.991 min
Precursor m/z: 359.0616
Precursor type: [M+H]+
m/z	relative intensity
93.0606	12
125.0377	10
126.0453	20
139.0518	30
140.0505	31
149.0388	38
150.0462	60
151.0518	103
152.059	105
153.0577	50
162.047	12
163.0538	78
164.0555	72
165.0623	35
166.0642	101
167.0729	64
168.0664	12
173.0392	10
174.0457	87
175.0536	251
176.0595	352
177.0567	181
178.0583	55
179.0663	22
186.0161	14
187.0182	24
187.0533	36
188.0269	17
188.0581	113
189.0689	376
190.066	187
191.0717	85
192.0662	36
193.076	87
194.0819	44
199.0434	46
200.0501	220
201.0561	499
202.0646	606
203.0723	574
204.079	90
205.0752	17
212.0285	15
213.0219	103
214.0647	350
215.072	279
216.0795	999
217.0862	371
218.0839	95
224.0223	26
225.0347	71
226.0556	131
227.0619	302
228.0671	350
229.0746	535
230.0821	22
236.0251	97
237.0328	195
238.0414	244
239.034	30
240.0592	67
241.0759	235
242.0836	727
243.0911	885
244.0987	211
249.0371	20
250.0413	347
251.0489	281
252.0491	164
253.0536	40
262.0397	58
263.0367	590
264.0436	67
275.0361	21
276.0442	264
277.0516	419
278.0588	199
279.0674	144
