Mass spectrum: O-Desmethyl amisulpride; LC-ESI-QTOF; MS2; 50 V
Name: O-Desmethyl amisulpride
Class: Pharmaceutical; Transformation_product; Transformation_product-Metabolite
Formula: C16H25N3O4S
Exact mass: 355.1566
SMILES: CCN1CCCC1CNC(=O)c2cc(c(cc2O)N)S(=O)(=O)CC
InChI: InChI=1S/C16H25N3O4S/c1-3-19-7-5-6-11(19)10-18-16(21)12-8-15(24(22,23)4-2)13(17)9-14(12)20/h8-9,11,20H,3-7,10,17H2,1-2H3,(H,18,21)
Instrument: TripleTOF 5600 SCIEX
Instrument type: LC-ESI-QTOF
Ms type: MS2
Ion mode: POSITIVE
Collision energy: 50
Fragmentation mode: CID
Ionization: ESI
Column name: Zorbax Eclipse Plus C18 2.1 mm x 150 mm, 3.5 um, Agilent
Retention time: 5.619 min
Precursor m/z: 356.1639
Precursor type: [M+H]+
m/z	relative intensity
56.0547	16
58.0708	53
84.0838	202
98.0974	20
107.0361	10
110.0968	15
112.1133	999
126.0013	18
129.1391	70
135.0315	53
153.9963	52
181.9916	552
200.0017	144
228.0336	614
