Mass spectrum: Sulfadimethoxine; LC-ESI-QTOF; MS2; 90 V
Name: Sulfadimethoxine
Class: Pharmaceutical
Formula: C12H14N4O4S
Exact mass: 310.0736
SMILES: COC1=NC(=NC(=C1)NS(=O)(=O)C2=CC=C(C=C2)N)OC
InChI: InChI=1S/C12H14N4O4S/c1-19-11-7-10(14-12(15-11)20-2)16-21(17,18)9-5-3-8(13)4-6-9/h3-7H,13H2,1-2H3,(H,14,15,16)
Instrument: TripleTOF 5600 SCIEX
Instrument type: LC-ESI-QTOF
Ms type: MS2
Ion mode: POSITIVE
Collision energy: 90
Fragmentation mode: CID
Ionization: ESI
Column name: Zorbax Eclipse Plus C18 2.1 mm x 150 mm, 3.5 um, Agilent
Retention time: 8.09 min
Precursor m/z: 311.0809
Precursor type: [M+H]+
m/z	relative intensity
37.0073	23
38.0155	13
39.0232	124
42.0337	20
43.0294	10
53.0388	90
54.0345	21
56.0503	10
57.0443	25
58.0291	20
63.0234	13
65.0389	999
66.0216	16
66.0337	51
66.0463	12
67.0069	11
67.0293	181
68.0138	74
68.0377	11
69.0084	33
69.0452	17
72.0446	12
80.0496	532
81.0451	51
82.0292	139
84.0312	15
90.0344	30
91.042	31
92.0497	269
93.057	31
95.0254	12
98.035	10
99.0562	15
108.0445	242
109.0393	20
110.0343	40
111.0197	40
113.0579	26
117.045	22
118.0534	36
126.0653	12
141.0556	10
144.0554	30
154.0617	22
