Mass spectrum: 4-Carboxy-9-acridanone; LC-ESI-QTOF; MS2; 100 V
Name: 4-Carboxy-9-acridanone
Class: Pharmaceutical; Antimicrobial
Formula: C14H9NO3
Exact mass: 239.0582
SMILES: c1ccc2c(c1)c(=O)c3cccc(c3[nH]2)C(=O)O
InChI: InChI=1S/C14H9NO3/c16-13-8-4-1-2-7-11(8)15-12-9(13)5-3-6-10(12)14(17)18/h1-7H,(H,15,16)(H,17,18)
Instrument: TripleTOF 5600 SCIEX
Instrument type: LC-ESI-QTOF
Ms type: MS2
Ion mode: NEGATIVE
Collision energy: 100
Fragmentation mode: CID
Ionization: ESI
Column name: Zorbax Eclipse Plus C18 2.1 mm x 150 mm, 3.5 um, Agilent
Retention time: 8.816 min
Precursor m/z: 238.051
Precursor type: [M-H]-
m/z	relative intensity
40.02	90
41.0053	90
41.9997	181
50.0047	90
63.0141	90
65.0051	272
65.9994	999
73.0113	181
74.0027	181
88.0197	363
89.0262	90
90.0333	90
114.037	90
116.0506	90
138.0366	363
140.0504	363
144.0475	90
162.036	363
163.0558	272
164.0512	726
165.0592	181
192.0452	454
