Mass spectrum: Fenoxycarb; LC-ESI-QTOF; MS2; 100 V
Name: Fenoxycarb
Class: Insecticide
Formula: C17H19NO4
Exact mass: 301.1314
SMILES: CCOC(=O)NCCOc1ccc(Oc2ccccc2)cc1
InChI: InChI=1S/C17H19NO4/c1-2-20-17(19)18-12-13-21-14-8-10-16(11-9-14)22-15-6-4-3-5-7-15/h3-11H,2,12-13H2,1H3,(H,18,19)
Instrument: TripleTOF 5600 SCIEX
Instrument type: LC-ESI-QTOF
Ms type: MS2
Ion mode: POSITIVE
Collision energy: 100
Fragmentation mode: CID
Ionization: ESI
Column name: Zorbax Eclipse Plus C18 2.1 mm x 150 mm, 3.5 um, Agilent
Retention time: 13.067 min
Precursor m/z: 302.1387
Precursor type: [M+H]+
m/z	relative intensity
42.0442	116
44.0592	435
45.0059	35
65.0434	105
66.0502	36
70.0329	57
75.0257	11
76.0337	11
77.0417	349
78.0487	19
79.0562	10
81.0357	81
88.0409	999
89.0402	123
91.0555	196
94.0425	44
102.0468	41
103.0544	14
107.0493	18
109.0285	14
110.0359	14
113.0385	10
114.0459	10
115.0539	396
126.0459	24
127.0536	71
128.0617	183
129.0701	10
131.0495	10
139.0541	108
141.0683	15
150.0461	19
151.0533	22
152.0616	31
163.0541	17
164.0625	15
165.0702	35
