Mass spectrum: Allethrin; LC-ESI-QTOF; MS2; 10 V
Name: Allethrin
Class: Insecticide
Formula: C19H26O3
Exact mass: 302.1882
SMILES: CC(C)=CC1C(C(=O)OC2CC(=O)C(=C2C)CC=C)C1(C)C
InChI: InChI=1S/C19H26O3/c1-7-8-13-12(4)16(10-15(13)20)22-18(21)17-14(9-11(2)3)19(17,5)6/h7,9,14,16-17H,1,8,10H2,2-6H3
Instrument: TripleTOF 5600 SCIEX
Instrument type: LC-ESI-QTOF
Ms type: MS2
Ion mode: POSITIVE
Collision energy: 10
Fragmentation mode: CID
Ionization: ESI
Column name: Zorbax Eclipse Plus C18 2.1 mm x 150 mm, 3.5 um, Agilent
Retention time: 16.132 min
Precursor m/z: 303.1955
Precursor type: [M+H]+
m/z	relative intensity
79.0568	14
91.0544	19
93.0711	216
95.0865	11
107.0861	88
109.0634	11
121.1007	49
123.117	210
135.0808	999
137.0964	62
139.1104	12
143.0868	14
145.102	17
147.1178	11
149.0951	36
151.1115	478
157.1014	22
159.1155	16
161.1312	16
163.1136	19
167.1068	109
169.1228	372
171.1169	12
173.133	12
185.1325	41
191.1063	20
199.148	59
201.1278	22
203.1433	38
215.1447	11
215.1792	24
239.18	40
241.1953	131
243.138	25
