Mass spectrum: Tributyltetradecylphosphonium; LC-ESI-QTOF; MS2; 110 V
Name: Tributyltetradecylphosphonium
Formula: [C26H56P]+
Exact mass: 399.4114
SMILES: CCCCCCCCCCCCCC[P+](CCCC)(CCCC)CCCC
InChI: InChI=1S/C26H56P/c1-5-9-13-14-15-16-17-18-19-20-21-22-26-27(23-10-6-2,24-11-7-3)25-12-8-4/h5-26H2,1-4H3/q+1
Instrument: TripleTOF 5600 SCIEX
Instrument type: LC-ESI-QTOF
Ms type: MS2
Ion mode: POSITIVE
Collision energy: 110
Fragmentation mode: CID
Ionization: ESI
Column name: Zorbax Eclipse Plus C18 2.1 mm x 150 mm, 3.5 um, Agilent
Retention time: 14.891 min
Precursor m/z: 399.4114
Precursor type: [M]+
m/z	relative intensity
39.0232	63
41.039	118
43.9813	76
44.9893	127
45.997	204
47.0048	90
56.9889	266
59.0047	358
61.0202	981
62.028	541
73.0196	96
75.0355	605
76.0431	999
88.0419	72
89.05	125
90.058	155
101.0494	59
103.0658	85
115.0661	97
117.0812	78
131.0977	156
145.1137	68
173.1453	81
