Mass spectrum: Bosentan; LC-ESI-QTOF; MS2; 130 V
Name: Bosentan
Class: Pharmaceutical
Formula: C27H29N5O6S
Exact mass: 551.1839
SMILES: CC(C)(C)C1=CC=C(C=C1)S(=O)(=O)NC2=C(C(=NC(=N2)C3=NC=CC=N3)OCCO)OC4=CC=CC=C4OC
InChI: InChI=1S/C27H29N5O6S/c1-27(2,3)18-10-12-19(13-11-18)39(34,35)32-23-22(38-21-9-6-5-8-20(21)36-4)26(37-17-16-33)31-25(30-23)24-28-14-7-15-29-24/h5-15,33H,16-17H2,1-4H3,(H,30,31,32)
Instrument: TripleTOF 5600 SCIEX
Instrument type: LC-ESI-QTOF
Ms type: MS2
Ion mode: NEGATIVE
Collision energy: 130
Fragmentation mode: CID
Ionization: ESI
Column name: Zorbax Eclipse Plus C18 2.1 mm x 150 mm, 3.5 um, Agilent
Retention time: 12.118 min
Precursor m/z: 550.1766
Precursor type: [M-H]-
m/z	relative intensity
41.9985	428
63.962	999
66.0093	228
90.0343	114
108.0223	114
117.0353	57
117.074	57
118.0306	256
119.0354	114
132.0344	313
133.0673	57
133.1039	57
134.0268	142
141.0473	85
149.099	85
157.0794	199
158.0403	199
158.0864	85
221.0377	142
