Mass spectrum: Dimethomorph; LC-ESI-QTOF; MS2; 40 V
Name: Dimethomorph
Class: Fungicide
Formula: C21H22ClNO4
Exact mass: 387.1237
SMILES: COC1=C(C=C(C=C1)/C(=C/C(=O)N2CCOCC2)/C3=CC=C(C=C3)Cl)OC
InChI: InChI=1S/C21H22ClNO4/c1-25-19-8-5-16(13-20(19)26-2)18(15-3-6-17(22)7-4-15)14-21(24)23-9-11-27-12-10-23/h3-8,13-14H,9-12H2,1-2H3/b18-14+
Instrument: TripleTOF 5600 SCIEX
Instrument type: LC-ESI-QTOF
Ms type: MS2
Ion mode: POSITIVE
Collision energy: 40
Fragmentation mode: CID
Ionization: ESI
Column name: Zorbax Eclipse Plus C18 2.1 mm x 150 mm, 3.5 um, Agilent
Retention time: 11.552 min
Precursor m/z: 388.131
Precursor type: [M+H]+
m/z	relative intensity
70.0315	44
77.0409	10
110.9995	27
114.0542	53
122.0361	19
125.0147	48
137.0588	54
138.9945	212
152.062	12
165.0547	774
167.0847	18
178.0758	11
195.0795	33
199.0302	19
212.0371	10
215.0249	45
223.0755	50
227.0256	42
228.0328	11
229.0399	18
235.0765	19
238.0985	65
241.0409	11
242.0485	160
243.0204	89
257.0344	32
258.0434	162
266.0915	23
270.0434	35
273.0673	229
286.0387	33
301.0621	999
388.1304	229
