Mass spectrum: 19-Nortestosterone; LC-ESI-QTOF; MS2; 110 V
Name: 19-Nortestosterone
Class: Pharmaceutical
Formula: C18H26O2
Exact mass: 274.1933
SMILES: C[C@]12CC[C@H]3[C@@H](CCC4=CC(=O)CC[C@H]34)[C@@H]1CC[C@@H]2O
InChI: InChI=1S/C18H26O2/c1-18-9-8-14-13-5-3-12(19)10-11(13)2-4-15(14)16(18)6-7-17(18)20/h10,13-17,20H,2-9H2,1H3/t13-,14+,15+,16-,17-,18-/m0/s1
Instrument: TripleTOF 5600 SCIEX
Instrument type: LC-ESI-QTOF
Ms type: MS2
Ion mode: POSITIVE
Collision energy: 110
Fragmentation mode: CID
Ionization: ESI
Column name: Zorbax Eclipse Plus C18 2.1 mm x 150 mm, 3.5 um, Agilent
Retention time: 10.421 min
Precursor m/z: 275.2006
Precursor type: [M+H]+
m/z	relative intensity
43.0259	33
53.0445	62
55.0228	28
55.0586	91
65.0426	342
66.0498	19
67.0583	48
77.0415	999
78.048	72
79.0563	265
81.0726	43
83.0512	91
89.0396	57
91.0556	429
91.0896	28
94.0448	28
102.046	48
103.0561	48
105.0713	24
115.054	294
127.0543	72
128.062	154
141.0704	28
152.0629	43
165.0677	38
