Mass spectrum: Fluazifop; LC-ESI-QTOF; MS2; 90 V
Name: Fluazifop
Class: Herbicide; Transformation_product
Formula: C15H12F3NO4
Exact mass: 327.0718
SMILES: CC(C(=O)O)Oc1ccc(cc1)Oc2ccc(cn2)C(F)(F)F
InChI: InChI=1S/C15H12F3NO4/c1-9(14(20)21)22-11-3-5-12(6-4-11)23-13-7-2-10(8-19-13)15(16,17)18/h2-9H,1H3,(H,20,21)
Instrument: TripleTOF 6600 SCIEX
Instrument type: LC-ESI-QTOF
Ms type: MS2
Ion mode: POSITIVE
Collision energy: 90
Fragmentation mode: CID
Ionization: ESI
Column name: Zorbax Eclipse Plus C18 2.1 mm x 150 mm, 3.5 um, Agilent
Retention time: 11.668 min
Precursor m/z: 328.0791
Precursor type: [M+H]+
m/z	relative intensity
36.0001	15
37.0078	67
38.016	82
39.0237	435
41.0398	33
43.0184	22
49.0081	33
50.0154	169
51.0044	52
51.0236	311
52.0188	33
52.0306	22
53.0386	67
55.0184	41
57.0146	48
61.0085	45
62.0157	127
63.0236	645
64.0312	217
65.0393	999
66.0471	78
68.9951	195
70.0218	146
73.0084	22
74.016	157
75.0047	811
75.023	199
76.0182	142
76.0308	41
77.0273	41
77.0389	559
78.0342	401
79.0427	26
79.056	15
80.0056	18
81.0137	18
81.0335	131
82.0103	15
82.0418	22
83.0307	48
87.0234	63
88.0158	33
88.031	101
89.0391	75
90.047	45
91.0413	37
91.0549	221
92.026	67
92.9931	15
93.0338	60
94.0417	78
96.0245	63
97.0329	112
99.0043	307
99.0224	26
99.9994	41
100.0118	360
101.0188	93
101.038	71
102.0462	146
103.0546	334
104.0139	18
104.0513	63
105.0347	18
105.0457	22
106.0198	33
107.0163	112
107.0294	56
108.0239	22
109.0287	22
110.0363	67
113.0213	26
113.0388	251
114.0337	30
114.0468	274
115.0418	78
115.0549	48
116.0315	37
116.0488	26
117.015	26
117.0569	56
119.0106	161
119.037	63
120.0188	161
120.0442	45
121.0436	48
122.0174	26
123.0232	112
124.0183	67
125.0221	26
126.015	923
127.0232	499
128.0317	18
128.0494	161
129.0577	172
130.0647	150
131.0296	67
131.0493	439
132.0214	18
132.0379	97
133.027	22
133.0452	221
134.0401	56
135.0294	18
135.0464	26
137.0189	56
138.0274	41
139.042	37
139.0556	37
140.0317	45
140.0493	484
141.0267	30
141.0577	356
142.0415	48
142.0643	15
143.0301	142
144.0242	37
144.0385	22
145.0292	33
145.046	18
146.0214	724
147.0296	255
148.0358	60
148.0564	60
149.0402	37
150.0305	48
151.0356	461
152.0315	75
153.0477	30
156.0445	52
157.0257	18
157.0514	71
158.0403	157
158.0616	18
159.0308	30
159.0486	86
160.0356	30
160.0569	33
161.0205	26
162.0278	56
163.0354	75
164.034	105
165.0263	18
165.0405	33
166.0464	37
166.0653	22
168.0252	22
168.0438	97
169.0326	45
169.052	33
170.0403	78
171.0369	26
172.0363	63
176.0295	22
177.0383	82
178.0466	131
179.0524	22
180.0383	41
181.0366	22
182.0324	78
183.0406	22
184.0372	93
185.0448	105
187.0409	22
188.0313	22
188.0496	60
189.0375	63
190.0475	108
191.0428	18
196.0354	26
197.0442	60
198.0523	150
199.0349	30
200.0329	30
206.0426	56
207.0318	30
208.0363	56
209.0438	97
210.0514	22
218.0398	33
225.0394	37
226.0465	56
234.0345	56
234.0448	26
236.0306	82
238.0463	56
254.0422	101
