Mass spectrum: Hydrocortisone; LC-ESI-QTOF; MS2; 90 V
Name: Hydrocortisone
Class: Pharmaceutical
Formula: C21H30O5
Exact mass: 362.2093
SMILES: C[C@]12CCC(=O)C=C1CC[C@H]3[C@@H]4CC[C@](O)(C(=O)CO)[C@@]4(C)C[C@H](O)[C@H]23
InChI: InChI=1S/C21H30O5/c1-19-7-5-13(23)9-12(19)3-4-14-15-6-8-21(26,17(25)11-22)20(15,2)10-16(24)18(14)19/h9,14-16,18,22,24,26H,3-8,10-11H2,1-2H3/t14-,15-,16-,18+,19-,20-,21-/m0/s1
Instrument: TripleTOF 5600 SCIEX
Instrument type: LC-ESI-QTOF
Ms type: MS2
Ion mode: NEGATIVE
Collision energy: 90
Fragmentation mode: CID
Ionization: ESI
Column name: Zorbax Eclipse Plus C18 2.1 mm x 150 mm, 3.5 um, Agilent
Retention time: 8.323 min
Precursor m/z: 407.2075
Precursor type: [M+HCOO]-
m/z	relative intensity
44.9982	999
95.0509	111
97.0657	136
107.0503	204
121.0673	76
123.0446	51
123.0813	111
125.0621	128
145.0665	59
159.0464	59
173.0612	222
174.0718	68
