Mass spectrum: Abacavir; LC-ESI-QTOF; MS2; 50 V
Name: Abacavir
Class: Pharmaceutical
Formula: C14H18N6O
Exact mass: 286.1542
SMILES: Nc1nc(NC2CC2)c3ncn([C@@H]4C[C@H](CO)C=C4)c3n1
InChI: InChI=1S/C14H18N6O/c15-14-18-12(17-9-2-3-9)11-13(19-14)20(7-16-11)10-4-1-8(5-10)6-21/h1,4,7-10,21H,2-3,5-6H2,(H3,15,17,18,19)/t8-,10+/m1/s1
Instrument: TripleTOF 5600 SCIEX
Instrument type: LC-ESI-QTOF
Ms type: MS2
Ion mode: POSITIVE
Collision energy: 50
Fragmentation mode: CID
Ionization: ESI
Column name: Zorbax Eclipse Plus C18 2.1 mm x 150 mm, 3.5 um, Agilent
Retention time: 5.094 min
Precursor m/z: 287.1615
Precursor type: [M+H]+
m/z	relative intensity
58.0705	94
67.0582	63
77.0421	312
79.0577	458
80.0267	16
82.042	21
92.0255	20
94.0409	11
95.0609	17
105.0446	22
106.0397	10
107.0355	107
108.0434	100
109.0513	383
119.0347	64
120.0553	31
121.0497	14
122.0709	44
123.0538	13
132.0549	37
133.0378	25
133.0493	26
134.0465	797
135.0528	14
136.061	36
147.0661	74
148.0612	17
149.0811	137
150.065	999
151.072	29
163.0722	55
164.0928	79
173.068	13
174.0774	575
175.0717	79
176.081	12
191.1035	541
