Mass spectrum: Tramadol-N-oxide; LC-ESI-QTOF; MS2; 120 V
Name: Tramadol-N-oxide
Class: Pharmaceutical; Transformation_product-Metabolite
Formula: C16H25NO3
Exact mass: 279.1834
SMILES: [O-][N+](C)(C)C[C@H]2CCCC[C@]2(O)c1cc(OC)ccc1
InChI: InChI=1S/C16H25NO3/c1-17(2,19)12-14-7-4-5-10-16(14,18)13-8-6-9-15(11-13)20-3/h6,8-9,11,14,18H,4-5,7,10,12H2,1-3H3/t14-,16+/m1/s1
Instrument: TripleTOF 5600 SCIEX
Instrument type: LC-ESI-QTOF
Ms type: MS2
Ion mode: POSITIVE
Collision energy: 120
Fragmentation mode: CID
Ionization: ESI
Column name: Zorbax Eclipse Plus C18 2.1 mm x 150 mm, 3.5 um, Agilent
Retention time: 6.334 min
Precursor m/z: 280.1907
Precursor type: [M+H]+
m/z	relative intensity
42.044	180
43.0262	39
44.0575	54
53.0445	16
55.0592	56
56.0577	47
58.0716	390
60.0042	18
60.0495	42
64.0353	434
65.0433	512
66.0512	61
67.0563	23
68.0527	16
74.0184	54
75.0269	61
76.0331	61
77.0419	999
78.0493	493
79.0569	32
87.025	14
89.0403	256
91.0562	312
92.0275	319
94.0439	39
94.0664	16
102.0472	180
103.0552	58
115.0543	829
116.0633	28
126.0486	51
127.0538	143
128.0615	251
131.0464	16
141.0704	25
152.0626	37
