Mass spectrum: Dimethenamid-ESA; LC-ESI-QTOF; MS2; 40 V
Name: Dimethenamid-ESA
Class: Transformation_product; Herbicide; Metabolite
Formula: C12H19NO5S2
Exact mass: 321.0705
SMILES: CC1=CSC(=C1N(C(C)COC)C(=O)CS(=O)(=O)O)C
InChI: InChI=1S/C12H19NO5S2/c1-8-6-19-10(3)12(8)13(9(2)5-18-4)11(14)7-20(15,16)17/h6,9H,5,7H2,1-4H3,(H,15,16,17)
Instrument: TripleTOF 6600 SCIEX
Instrument type: LC-ESI-QTOF
Ms type: MS2
Ion mode: POSITIVE
Collision energy: 40
Fragmentation mode: CID
Ionization: ESI
Column name: Zorbax Eclipse Plus C18 2.1 mm x 150 mm, 3.5 um, Agilent
Retention time: 7.036 min
Precursor m/z: 322.0778
Precursor type: [M+H]+
m/z	relative intensity
41.0392	14
42.0346	10
45.0336	20
73.0649	56
82.0656	73
91.0546	11
93.0694	11
94.0654	14
95.0734	21
99.026	9
108.0814	16
111.0268	212
112.0341	52
113.0294	15
113.0417	29
114.0376	13
117.0695	15
118.0653	17
119.0731	28
120.0806	17
124.034	14
125.0424	122
126.0374	186
127.0211	29
127.0453	37
128.0527	54
132.0803	15
133.0889	41
134.0962	201
135.0265	39
135.1042	44
136.1141	15
138.0374	151
139.0465	11
140.0527	24
148.1126	10
149.0421	48
150.0492	174
151.0491	84
152.0177	60
152.0528	668
153.0601	24
154.0672	9
162.092	16
164.052	12
164.1063	12
166.0328	19
166.0499	12
166.0684	999
167.0395	20
167.0766	299
168.0501	102
168.0837	518
169.0579	12
176.1072	73
194.0627	115
208.0787	19
209.0876	57
210.0947	582
226.0893	23
290.0516	111
