Mass spectrum: Chloridazon; LC-ESI-QTOF; MS2; 70 V
Name: Chloridazon
Class: Herbicide
Formula: C10H8ClN3O
Exact mass: 221.0356
SMILES: C1=CC=C(C=C1)N2C(=O)C(=C(C=N2)N)Cl
InChI: InChI=1S/C10H8ClN3O/c11-9-8(12)6-13-14(10(9)15)7-4-2-1-3-5-7/h1-6H,12H2
Instrument: TripleTOF 6600 SCIEX
Instrument type: LC-ESI-QTOF
Ms type: MS2
Ion mode: POSITIVE
Collision energy: 70
Fragmentation mode: CID
Ionization: ESI
Column name: Zorbax Eclipse Plus C18 2.1 mm x 150 mm, 3.5 um, Agilent
Retention time: 6.924 min
Precursor m/z: 222.0429
Precursor type: [M+H]+
m/z	relative intensity
37.0073	23
38.015	16
39.0234	200
46.9682	18
48.9838	20
49.0074	39
50.0152	253
51.0233	999
52.0183	78
53.0266	32
54.0343	25
55.0291	64
62.0155	9
63.0233	20
63.9949	39
65.0386	671
66.0215	341
66.0456	53
68.012	13
72.9835	18
73.9792	83
74.0154	13
74.9872	29
75.0231	13
75.9944	29
77.0388	959
87.9944	191
88.0307	16
89.0382	25
90.0463	11
92.0496	76
93.0577	108
100.9898	71
101.9758	11
102.0475	20
103.0544	27
104.0492	48
105.0444	25
113.0382	16
114.033	27
114.0471	9
116.998	29
122.9998	36
130.064	13
131.0606	9
146.0108	20
