Mass spectrum: Cyclopropyldiphenylsulfonium; LC-ESI-QTOF; MS2; 150 V
Name: Cyclopropyldiphenylsulfonium
Formula: [C15H15S]+
Exact mass: 227.0889
SMILES: C1CC1[S+](C2=CC=CC=C2)C3=CC=CC=C3
InChI: InChI=1S/C15H15S/c1-3-7-13(8-4-1)16(15-11-12-15)14-9-5-2-6-10-14/h1-10,15H,11-12H2/q+1
Instrument: TripleTOF 5600 SCIEX
Instrument type: LC-ESI-QTOF
Ms type: MS2
Ion mode: POSITIVE
Collision energy: 150
Fragmentation mode: CID
Ionization: ESI
Column name: Zorbax Eclipse Plus C18 2.1 mm x 150 mm, 3.5 um, Agilent
Retention time: 5.55 min
Precursor m/z: 227.0889
Precursor type: [M]+
m/z	relative intensity
37.0076	98
38.0157	71
39.0232	142
49.0075	231
50.0153	999
51.0231	570
61.0075	107
62.0147	142
63.0227	169
68.9788	214
73.0064	80
74.0141	214
75.0217	62
85.0076	53
86.0138	80
87.0207	53
89.0387	71
98.0133	107
