Mass spectrum: Abacavir carboxylic acid; LC-ESI-QTOF; MS2; 40 V
Name: Abacavir carboxylic acid
Class: Pharmaceutical; Metabolite; Transformation_product
Formula: C14H16N6O2
Exact mass: 300.1335
SMILES: C1CC1NC2=NC(=NC3=C2N=CN3C4CC(C=C4)C(=O)O)N
InChI: InChI=1S/C14H16N6O2/c15-14-18-11(17-8-2-3-8)10-12(19-14)20(6-16-10)9-4-1-7(5-9)13(21)22/h1,4,6-9H,2-3,5H2,(H,21,22)(H3,15,17,18,19)
Instrument: TripleTOF 5600 SCIEX
Instrument type: LC-ESI-QTOF
Ms type: MS2
Ion mode: POSITIVE
Collision energy: 40
Fragmentation mode: CID
Ionization: ESI
Column name: Zorbax Eclipse Plus C18 2.1 mm x 150 mm, 3.5 um, Agilent
Retention time: 5.194 min
Precursor m/z: 301.1408
Precursor type: [M+H]+
m/z	relative intensity
58.0696	59
65.0423	54
67.0581	136
83.0507	54
93.0342	37
107.0351	41
108.0422	38
109.0506	115
111.0435	45
119.034	25
120.0543	20
122.0705	28
132.0548	21
133.0422	22
134.0459	270
136.0614	23
147.066	35
148.0614	10
149.0824	75
150.065	504
151.0707	24
163.0717	45
164.0931	72
173.0722	12
174.0775	333
175.0722	59
191.1044	999
