Mass spectrum: Bicalutamide; LC-ESI-QTOF; MS2; 30 V
Name: Bicalutamide
Class: Pharmaceutical
Formula: C18H14F4N2O4S
Exact mass: 430.061
SMILES: CC(O)(C[S](=O)(=O)c1ccc(F)cc1)C(=O)Nc2ccc(C#N)c(c2)C(F)(F)F
InChI: InChI=1S/C18H14F4N2O4S/c1-17(26,10-29(27,28)14-6-3-12(19)4-7-14)16(25)24-13-5-2-11(9-23)15(8-13)18(20,21)22/h2-8,26H,10H2,1H3,(H,24,25)
Instrument: TripleTOF 5600 SCIEX
Instrument type: LC-ESI-QTOF
Ms type: MS2
Ion mode: NEGATIVE
Collision energy: 30
Fragmentation mode: CID
Ionization: ESI
Column name: Zorbax Eclipse Plus C18 2.1 mm x 150 mm, 3.5 um, Agilent
Retention time: 11.644 min
Precursor m/z: 429.0538
Precursor type: [M-H]-
m/z	relative intensity
158.991	83
173.0067	329
184.0365	481
185.0316	727
243.013	107
255.0376	999
255.0569	279
256.0968	104
411.0421	182
