Mass spectrum: Metaflumizone; LC-ESI-QTOF; MS2; 110 V
Name: Metaflumizone
Class: Insecticide; Pharmaceutical
Formula: C24H16F6N4O2
Exact mass: 506.1177
SMILES: C1=CC(=CC(=C1)C(F)(F)F)C(=NNC(=O)NC2=CC=C(C=C2)OC(F)(F)F)CC3=CC=C(C=C3)C#N
InChI: InChI=1S/C24H16F6N4O2/c25-23(26,27)18-3-1-2-17(13-18)21(12-15-4-6-16(14-31)7-5-15)33-34-22(35)32-19-8-10-20(11-9-19)36-24(28,29)30/h1-11,13H,12H2,(H2,32,34,35)
Instrument: TripleTOF 6600 SCIEX
Instrument type: LC-ESI-QTOF
Ms type: MS2
Ion mode: NEGATIVE
Collision energy: 110
Fragmentation mode: CID
Ionization: ESI
Column name: Zorbax Eclipse Plus C18 2.1 mm x 150 mm, 3.5 um, Agilent
Retention time: 15.496 min
Precursor m/z: 505.1105
Precursor type: [M-H]-
m/z	relative intensity
41.9976	50
64.0171	31
84.9881	76
90.0325	38
97.0069	95
102.0338	108
114.0349	31
115.0298	407
116.0378	25
116.0494	89
117.045	540
126.0353	31
127.0318	25
139.0293	44
141.0453	999
169.0268	31
189.0415	31
198.0347	44
212.0495	25
214.0519	63
215.061	139
218.0392	31
225.0448	267
244.0457	31
245.0511	197
258.0522	69
264.0501	82
265.0564	38
283.0441	38
285.0643	655
