Mass spectrum: Terbutrynesulfoxide; LC-ESI-QTOF; MS2; 40 V
Name: Terbutrynesulfoxide
Class: Transformation_product; Herbicide; Pesticide; Transformation_product-Metabolite
Formula: C10H19N5OS
Exact mass: 257.131
SMILES: CCNC1=NC(=NC(=N1)S(=O)C)NC(C)(C)C
InChI: InChI=1S/C10H19N5OS/c1-6-11-7-12-8(15-10(2,3)4)14-9(13-7)17(5)16/h6H2,1-5H3,(H2,11,12,13,14,15)
Instrument: TripleTOF 5600 SCIEX
Instrument type: LC-ESI-QTOF
Ms type: MS2
Ion mode: POSITIVE
Collision energy: 40
Fragmentation mode: CID
Ionization: ESI
Column name: Zorbax Eclipse Plus C18 2.1 mm x 150 mm, 3.5 um, Agilent
Retention time: 8.816 min
Precursor m/z: 258.1383
Precursor type: [M+H]+
m/z	relative intensity
43.0417	81
44.0584	21
55.0379	49
56.045	18
57.054	19
58.0728	74
59.0564	13
68.032	416
69.0158	362
69.0388	42
70.0463	35
71.0666	274
71.9968	111
82.0453	13
83.0655	112
84.0599	11
84.9906	265
85.0563	31
86.0399	593
86.0632	32
89.0213	64
96.0599	415
97.0443	303
98.0629	50
99.0049	55
110.0502	68
111.0328	44
111.0603	142
112.0652	126
112.078	44
113.0199	191
113.0836	18
114.0156	13
114.0689	523
114.9978	16
117.0508	95
121.0523	27
122.0616	41
124.0643	83
125.0854	17
127.0099	111
127.0523	12
128.0591	32
132.0248	56
138.0791	482
139.0867	538
140.095	45
141.0249	212
142.0451	156
154.0734	19
155.04	502
156.0897	999
157.02	105
159.024	14
160.0569	17
163.0993	12
166.1102	42
168.0359	14
169.0406	13
172.0268	18
180.1249	33
184.066	849
185.0498	196
187.0532	434
195.1489	34
202.0767	283
212.1517	10
240.128	150
243.1154	90
258.1388	127
