Mass spectrum: Ketoconazole; LC-ESI-QTOF; MS2; 40 V
Name: Ketoconazole
Class: Fungicide; Pharmaceutical
Formula: C26H28Cl2N4O4
Exact mass: 530.1488
SMILES: CC(=O)N1CCN(CC1)C2=CC=C(C=C2)OCC3COC(O3)(CN4C=CN=C4)C5=C(C=C(C=C5)Cl)Cl
InChI: InChI=1S/C26H28Cl2N4O4/c1-19(33)31-10-12-32(13-11-31)21-3-5-22(6-4-21)34-15-23-16-35-26(36-23,17-30-9-8-29-18-30)24-7-2-20(27)14-25(24)28/h2-9,14,18,23H,10-13,15-17H2,1H3
Instrument: TripleTOF 5600 SCIEX
Instrument type: LC-ESI-QTOF
Ms type: MS2
Ion mode: POSITIVE
Collision energy: 40
Fragmentation mode: CID
Ionization: ESI
Column name: Zorbax Eclipse Plus C18 2.1 mm x 150 mm, 3.5 um, Agilent
Retention time: 7.94 min
Precursor m/z: 531.156
Precursor type: [M+H]+
m/z	relative intensity
81.0485	16
82.0568	57
112.0768	27
135.0676	24
148.0751	23
167.08	17
174.0907	24
177.1009	38
185.9614	23
216.1016	12
217.1326	37
219.1116	53
220.1193	34
234.1108	11
235.1425	17
238.0014	18
244.0045	62
255.0071	60
267.0069	30
311.0341	11
378.0597	10
420.074	10
421.1007	15
446.0958	18
489.1429	263
531.1539	999
