Mass spectrum: Lamivudine carboxylic acid; LC-ESI-QTOF; MS2; 60 V
Name: Lamivudine carboxylic acid
Class: Pharmaceutical; Metabolite; Transformation_product
Formula: C8H9N3O4S
Exact mass: 243.0314
SMILES: O=C([C@@H]1O[C@H](N2C=CC(N)=NC2=O)CS1)O
InChI: InChI=1S/C8H9N3O4S/c9-4-1-2-11(8(14)10-4)5-3-16-7(15-5)6(12)13/h1-2,5,7H,3H2,(H,12,13)(H2,9,10,14)/t5-,7+/m0/s1
Instrument: TripleTOF 5600 SCIEX
Instrument type: LC-ESI-QTOF
Ms type: MS2
Ion mode: NEGATIVE
Collision energy: 60
Fragmentation mode: CID
Ionization: ESI
Column name: Zorbax Eclipse Plus C18 2.1 mm x 150 mm, 3.5 um, Agilent
Retention time: 2.456 min
Precursor m/z: 242.0241
Precursor type: [M-H]-
m/z	relative intensity
42.0007	111
45.0004	111
60.9774	999
61.9906	111
67.0308	222
72.993	222
76.972	111
78.9649	111
78.9729	111
86.9752	222
86.9834	111
