Mass spectrum: Methotrexate; LC-ESI-QTOF; MS2; 50 V
Name: Methotrexate
Class: Pharmaceutical
Formula: C20H22N8O5
Exact mass: 454.1713
SMILES: CN(CC1=CN=C2C(=N1)C(=NC(=N2)N)N)C3=CC=C(C=C3)C(=O)NC(CCC(=O)O)C(=O)O
InChI: InChI=1S/C20H22N8O5/c1-28(9-11-8-23-17-15(24-11)16(21)26-20(22)27-17)12-4-2-10(3-5-12)18(31)25-13(19(32)33)6-7-14(29)30/h2-5,8,13H,6-7,9H2,1H3,(H,25,31)(H,29,30)(H,32,33)(H4,21,22,23,26,27)
Instrument: TripleTOF 5600 SCIEX
Instrument type: LC-ESI-QTOF
Ms type: MS2
Ion mode: POSITIVE
Collision energy: 50
Fragmentation mode: CID
Ionization: ESI
Column name: Zorbax Eclipse Plus C18 2.1 mm x 150 mm, 3.5 um, Agilent
Retention time: 4.911 min
Precursor m/z: 455.1786
Precursor type: [M+H]+
m/z	relative intensity
106.0656	17
133.0523	62
134.0598	522
135.0616	14
148.0613	17
160.063	22
175.0723	999
176.0799	131
177.0856	59
308.122	222
