Mass spectrum: Tolnaftate; LC-ESI-QTOF; MS2; 100 V
Name: Tolnaftate
Class: Fungicide; Pharmaceutical
Formula: C19H17NOS
Exact mass: 307.1031
SMILES: CC1=CC(=CC=C1)N(C)C(=S)OC2=CC3=CC=CC=C3C=C2
InChI: InChI=1S/C19H17NOS/c1-14-6-5-9-17(12-14)20(2)19(22)21-18-11-10-15-7-3-4-8-16(15)13-18/h3-13H,1-2H3
Instrument: TripleTOF 5600 SCIEX
Instrument type: LC-ESI-QTOF
Ms type: MS2
Ion mode: POSITIVE
Collision energy: 100
Fragmentation mode: CID
Ionization: ESI
Column name: Zorbax Eclipse Plus C18 2.1 mm x 150 mm, 3.5 um, Agilent
Retention time: 15.53 min
Precursor m/z: 308.1104
Precursor type: [M+H]+
m/z	relative intensity
37.0068	16
38.0156	16
39.0226	80
41.0381	28
44.9792	28
51.0228	52
65.0385	986
75.0233	24
77.0382	303
78.0447	20
79.0533	60
89.0381	44
90.0461	16
91.054	999
104.0491	64
105.0579	28
108.0039	20
115.0533	80
117.0569	28
120.0819	28
121.0087	32
126.0431	20
127.0528	40
132.043	40
148.0217	40
149.0274	32
