Mass spectrum: Chlorothiazide; LC-ESI-QTOF; MS2; 130 V
Name: Chlorothiazide
Class: Pharmaceutical; Transformation_product-Metabolite
Formula: C7H6ClN3O4S2
Exact mass: 294.9488
SMILES: N[S](=O)(=O)c1cc2c(NC=N[S]2(=O)=O)cc1Cl
InChI: InChI=1S/C7H6ClN3O4S2/c8-4-1-5-7(2-6(4)16(9,12)13)17(14,15)11-3-10-5/h1-3H,(H,10,11)(H2,9,12,13)
Instrument: TripleTOF 5600 SCIEX
Instrument type: LC-ESI-QTOF
Ms type: MS2
Ion mode: NEGATIVE
Collision energy: 130
Fragmentation mode: CID
Ionization: ESI
Column name: Zorbax Eclipse Plus C18 2.1 mm x 150 mm, 3.5 um, Agilent
Retention time: 5.43 min
Precursor m/z: 293.9415
Precursor type: [M-H]-
m/z	relative intensity
34.9719	999
41.0162	76
50.0051	845
56.9812	76
57.9763	76
60.0019	268
61.9699	153
62.0036	115
63.0099	76
63.9617	268
64.0062	345
65.0135	653
65.9973	38
66.0159	76
73.0065	76
74.0015	230
77.9648	115
86.0026	268
87.0079	345
88.006	153
88.0172	268
89.0106	307
112.0045	230
113.0123	76
114.0199	115
115.0272	192
