Mass spectrum: 17alpha-Hydroxyprogesterone; LC-ESI-QTOF; MS2; 150 V
Name: 17alpha-Hydroxyprogesterone
Class: Pharmaceutical
Formula: C21H30O3
Exact mass: 330.2195
SMILES: CC(=O)[C@@]1(O)CC[C@H]2[C@@H]3CCC4=CC(=O)CC[C@]4(C)[C@H]3CC[C@]12C
InChI: InChI=1S/C21H30O3/c1-13(22)21(24)11-8-18-16-5-4-14-12-15(23)6-9-19(14,2)17(16)7-10-20(18,21)3/h12,16-18,24H,4-11H2,1-3H3/t16-,17+,18+,19+,20+,21+/m1/s1
Instrument: TripleTOF 5600 SCIEX
Instrument type: LC-ESI-QTOF
Ms type: MS2
Ion mode: POSITIVE
Collision energy: 150
Fragmentation mode: CID
Ionization: ESI
Column name: Zorbax Eclipse Plus C18 2.1 mm x 150 mm, 3.5 um, Agilent
Retention time: 11.808 min
Precursor m/z: 331.2268
Precursor type: [M+H]+
m/z	relative intensity
43.0252	405
43.0457	48
53.0437	102
55.021	42
55.0589	48
65.0435	369
66.0532	54
67.0564	36
67.0611	24
77.0414	999
77.07	30
78.0479	78
79.0564	199
81.0698	24
89.0401	115
91.0557	326
94.0418	42
97.0637	48
102.0466	90
103.0562	54
107.0502	36
115.0545	399
126.0481	66
127.0547	115
128.0623	248
129.067	24
139.052	48
141.0693	60
151.054	78
152.0636	108
163.0536	36
164.0601	30
165.0705	54
