Mass spectrum: Sudan I; LC-ESI-QTOF; MS2; 40 V
Name: Sudan I
Formula: C16H12N2O
Exact mass: 248.095
SMILES: C1=CC=C(C=C1)N=NC2=C(C=CC3=CC=CC=C32)O
InChI: InChI=1S/C16H12N2O/c19-15-11-10-12-6-4-5-9-14(12)16(15)18-17-13-7-2-1-3-8-13/h1-11,19H
Instrument: TripleTOF 6600 SCIEX
Instrument type: LC-ESI-QTOF
Ms type: MS2
Ion mode: POSITIVE
Collision energy: 40
Fragmentation mode: CID
Ionization: ESI
Column name: Zorbax Eclipse Plus C18 2.1 mm x 150 mm, 3.5 um, Agilent
Retention time: 15.674 min
Precursor m/z: 249.1023
Precursor type: [M+H]+
m/z	relative intensity
65.0379	14
66.0459	31
77.0377	35
92.0489	32
93.057	999
101.038	72
128.0491	592
129.0437	69
156.044	56
203.0722	10
204.0796	37
219.0894	11
231.0919	300
232.0966	105
247.0876	14
