Mass spectrum: 4-(Dimethylamino)azobenzene; LC-ESI-QTOF; MS2; 80 V
Name: 4-(Dimethylamino)azobenzene
Formula: C14H15N3
Exact mass: 225.1266
SMILES: CN(C)C1=CC=C(C=C1)N=NC2=CC=CC=C2
InChI: InChI=1S/C14H15N3/c1-17(2)14-10-8-13(9-11-14)16-15-12-6-4-3-5-7-12/h3-11H,1-2H3
Instrument: TripleTOF 6600 SCIEX
Instrument type: LC-ESI-QTOF
Ms type: MS2
Ion mode: POSITIVE
Collision energy: 80
Fragmentation mode: CID
Ionization: ESI
Column name: Zorbax Eclipse Plus C18 2.1 mm x 150 mm, 3.5 um, Agilent
Retention time: 15.513 min
Precursor m/z: 226.1339
Precursor type: [M+H]+
m/z	relative intensity
37.0067	17
38.0141	13
39.0223	111
42.0331	38
49.0061	19
50.0145	207
51.0223	991
52.017	16
53.0373	10
63.0215	51
64.0288	32
65.0375	306
66.0327	45
67.0402	47
68.0483	35
74.0136	13
77.0376	999
78.0329	112
79.0524	57
80.0479	32
89.0368	11
90.0322	36
91.0419	123
92.0478	109
93.0439	31
93.0545	33
103.0518	20
104.048	172
105.0545	100
106.063	32
117.045	18
118.0517	120
119.0586	17
120.079	85
131.0582	17
133.0753	21
152.0589	11
