Mass spectrum: Lapatinib; LC-ESI-QTOF; MS2; 150 V
Name: Lapatinib
Class: Pharmaceutical
Formula: C29H26ClFN4O4S
Exact mass: 580.1347
SMILES: CS(=O)(CCNCC1=CC=C(C2=CC3=C(N=CN=C3NC4=CC(Cl)=C(OCC5=CC(F)=CC=C5)C=C4)C=C2)O1)=O
InChI: InChI=1S/C29H26ClFN4O4S/c1-40(36,37)12-11-32-16-23-7-10-27(39-23)20-5-8-26-24(14-20)29(34-18-33-26)35-22-6-9-28(25(30)15-22)38-17-19-3-2-4-21(31)13-19/h2-10,13-15,18,32H,11-12,16-17H2,1H3,(H,33,34,35)
Instrument: TripleTOF 5600 SCIEX
Instrument type: LC-ESI-QTOF
Ms type: MS2
Ion mode: NEGATIVE
Collision energy: 150
Fragmentation mode: CID
Ionization: ESI
Column name: Zorbax Eclipse Plus C18 2.1 mm x 150 mm, 3.5 um, Agilent
Retention time: 8.263 min
Precursor m/z: 579.1275
Precursor type: [M-H]-
m/z	relative intensity
34.9733	111
76.0213	222
165.0468	222
165.995	222
192.0504	333
193.0313	222
193.045	222
220.0559	999
240.0562	111
244.0439	111
257.0656	111
281.0541	111
281.0621	111
