Mass spectrum: 2-Piperidin-3-yl-benzothiazole; LC-ESI-QTOF; MS2; 100 V
Name: 2-Piperidin-3-yl-benzothiazole
Formula: C12H14N2S
Exact mass: 218.0878
SMILES: C1CC(CNC1)C2=NC3=CC=CC=C3S2
InChI: InChI=1S/C12H14N2S/c1-2-6-11-10(5-1)14-12(15-11)9-4-3-7-13-8-9/h1-2,5-6,9,13H,3-4,7-8H2
Instrument: TripleTOF 5600 SCIEX
Instrument type: LC-ESI-QTOF
Ms type: MS2
Ion mode: POSITIVE
Collision energy: 100
Fragmentation mode: CID
Ionization: ESI
Column name: Zorbax Eclipse Plus C18 2.1 mm x 150 mm, 3.5 um, Agilent
Retention time: 5.623 min
Precursor m/z: 219.095
Precursor type: [M+H]+
m/z	relative intensity
37.008	16
38.0162	22
39.023	103
43.9713	11
44.0496	44
44.9793	188
50.0153	39
51.023	103
54.0347	14
57.9869	84
61.0083	14
62.015	30
63.0232	95
64.0313	16
65.039	406
67.9715	47
68.9795	999
70.0657	16
70.9953	11
74.0151	44
75.0228	42
76.019	19
76.0305	19
77.039	249
78.0468	14
80.9807	30
81.9873	384
89.0393	101
90.0483	19
91.0443	14
92.9794	123
94.9959	16
102.0434	28
103.0541	16
104.0492	28
106.9942	44
108.0033	305
109.0115	131
116.0481	25
117.0584	30
121.0109	89
128.0508	14
130.063	16
136.0238	11
148.0212	56
172.0262	11
173.0333	30
