Mass spectrum: O-desmethyl-venlafaxine; LC-ESI-QTOF; MS2; 50 V
Name: O-desmethyl-venlafaxine
Class: Metabolite; Pharmaceutical
Formula: C16H25NO2
Exact mass: 263.1885
SMILES: CN(C)CC(C1=CC=C(C=C1)O)C2(CCCCC2)O
InChI: InChI=1S/C16H25NO2/c1-17(2)12-15(13-6-8-14(18)9-7-13)16(19)10-4-3-5-11-16/h6-9,15,18-19H,3-5,10-12H2,1-2H3
Instrument: TripleTOF 5600 SCIEX
Instrument type: LC-ESI-QTOF
Ms type: MS2
Ion mode: POSITIVE
Collision energy: 50
Fragmentation mode: CID
Ionization: ESI
Column name: Zorbax Eclipse Plus C18 2.1 mm x 150 mm, 3.5 um, Agilent
Retention time: 5.367 min
Precursor m/z: 264.1958
Precursor type: [M+H]+
m/z	relative intensity
42.0471	29
56.0591	12
58.0747	999
77.0439	142
79.0595	116
81.0741	61
91.0571	41
103.057	25
105.072	168
107.0509	667
115.0553	48
117.0732	14
121.0658	36
127.0563	30
131.0492	26
131.0857	21
133.0656	183
141.0715	36
144.0565	48
145.0659	60
147.0826	14
149.0839	21
159.0821	49
