Mass spectrum: 1-Oxo-ibuprofen; LC-ESI-QTOF; MS2; 100 V
Name: 1-Oxo-ibuprofen
Class: Pharmaceutical; Transformation_product
Formula: C13H16O3
Exact mass: 220.1099
SMILES: CC(C)C(=O)C1=CC=C(C=C1)C(C)C(=O)O
InChI: InChI=1S/C13H16O3/c1-8(2)12(14)11-6-4-10(5-7-11)9(3)13(15)16/h4-9H,1-3H3,(H,15,16)
Instrument: TripleTOF 5600 SCIEX
Instrument type: LC-ESI-QTOF
Ms type: MS2
Ion mode: POSITIVE
Collision energy: 100
Fragmentation mode: CID
Ionization: ESI
Column name: Zorbax Eclipse Plus C18 2.1 mm x 150 mm, 3.5 um, Agilent
Retention time: 10.239 min
Precursor m/z: 221.1172
Precursor type: [M+H]+
m/z	relative intensity
43.0259	267
43.0438	62
53.0429	35
55.0601	44
57.0753	35
65.0415	410
67.0597	35
74.0166	44
75.0266	44
76.0328	35
77.0407	999
77.0768	35
78.0496	98
79.058	115
89.0404	142
91.0556	338
102.0453	107
103.055	107
115.0542	481
127.0538	62
128.0616	133
