Mass spectrum: Tributyltetradecylphosphonium; LC-ESI-QTOF; MS2; 70 V
Name: Tributyltetradecylphosphonium
Formula: [C26H56P]+
Exact mass: 399.4114
SMILES: CCCCCCCCCCCCCC[P+](CCCC)(CCCC)CCCC
InChI: InChI=1S/C26H56P/c1-5-9-13-14-15-16-17-18-19-20-21-22-26-27(23-10-6-2,24-11-7-3)25-12-8-4/h5-26H2,1-4H3/q+1
Instrument: TripleTOF 5600 SCIEX
Instrument type: LC-ESI-QTOF
Ms type: MS2
Ion mode: POSITIVE
Collision energy: 70
Fragmentation mode: CID
Ionization: ESI
Column name: Zorbax Eclipse Plus C18 2.1 mm x 150 mm, 3.5 um, Agilent
Retention time: 14.891 min
Precursor m/z: 399.4114
Precursor type: [M]+
m/z	relative intensity
61.0204	125
62.0281	275
75.0354	157
76.0431	999
89.0501	121
90.0581	366
103.0659	82
104.0735	133
117.0819	144
131.0978	345
145.1136	230
159.1297	135
173.1456	545
187.1612	334
201.1774	200
215.1928	447
229.2084	893
243.2237	185
257.2393	186
271.2549	250
285.2717	238
299.2869	201
313.3027	212
327.3178	177
343.3486	122
399.4125	602
