Mass spectrum: 4,4`-Methylenebis(2-chloroaniline); LC-ESI-QTOF; MS2; 60 V
Name: 4,4`-Methylenebis(2-chloroaniline)
Formula: C13H12Cl2N2
Exact mass: 266.0378
SMILES: C1=CC(=C(C=C1CC2=CC(=C(C=C2)N)Cl)Cl)N
InChI: InChI=1S/C13H12Cl2N2/c14-10-6-8(1-3-12(10)16)5-9-2-4-13(17)11(15)7-9/h1-4,6-7H,5,16-17H2
Instrument: TripleTOF 6600 SCIEX
Instrument type: LC-ESI-QTOF
Ms type: MS2
Ion mode: POSITIVE
Collision energy: 60
Fragmentation mode: CID
Ionization: ESI
Column name: Zorbax Eclipse Plus C18 2.1 mm x 150 mm, 3.5 um, Agilent
Retention time: 11.747 min
Precursor m/z: 267.045
Precursor type: [M+H]+
m/z	relative intensity
51.0234	70
75.0223	11
77.0386	534
78.0335	42
78.0464	23
80.0501	11
90.0344	10
104.0493	480
105.0579	66
113.0144	41
115.0538	164
117.0566	16
122.9981	10
126.0451	22
127.0179	20
127.0541	54
128.0633	40
130.0626	46
139.0547	67
140.0257	999
141.0692	149
143.0725	53
150.0441	119
151.0538	701
152.0623	445
153.0641	186
154.0641	147
155.0626	45
163.0546	12
164.0247	28
166.065	145
167.0723	688
168.0809	393
169.0835	25
177.0566	179
178.0655	525
179.0645	206
180.0806	428
181.0754	42
192.0462	10
192.0683	19
193.0758	102
194.0847	153
195.0917	897
197.0154	19
214.0436	31
229.0545	18
