Mass spectrum: Dexamethasone; LC-ESI-QTOF; MS2; 70 V
Name: Dexamethasone
Class: Pharmaceutical
Formula: C22H29FO5
Exact mass: 392.1999
SMILES: C[C@@H]1C[C@H]2[C@@H]3CCC4=CC(=O)C=C[C@@]4([C@]3([C@H](C[C@@]2([C@]1(C(=O)CO)O)C)O)F)C
InChI: InChI=1S/C22H29FO5/c1-12-8-16-15-5-4-13-9-14(25)6-7-19(13,2)21(15,23)17(26)10-20(16,3)22(12,28)18(27)11-24/h6-7,9,12,15-17,24,26,28H,4-5,8,10-11H2,1-3H3/t12-,15+,16+,17+,19+,20+,21+,22+/m1/s1
Instrument: TripleTOF 5600 SCIEX
Instrument type: LC-ESI-QTOF
Ms type: MS2
Ion mode: POSITIVE
Collision energy: 70
Fragmentation mode: CID
Ionization: ESI
Column name: Zorbax Eclipse Plus C18 2.1 mm x 150 mm, 3.5 um, Agilent
Retention time: 9.089 min
Precursor m/z: 393.2072
Precursor type: [M+H]+
m/z	relative intensity
43.0286	54
55.027	18
57.0433	21
65.0447	48
67.0606	108
69.04	33
71.0177	18
71.0557	18
77.0435	412
78.053	24
79.0597	213
81.0382	15
81.0753	69
83.0513	21
91.0583	999
93.0742	222
95.0517	27
95.0896	93
97.0691	27
102.0494	24
103.0572	114
104.0654	33
105.0736	487
107.0508	120
107.089	153
109.0471	15
109.0668	30
109.103	51
111.0816	24
113.0624	12
115.0563	436
116.0647	138
117.0721	252
119.0526	24
119.0877	433
121.0673	740
123.0822	36
125.0433	12
125.0592	21
125.0769	18
127.0557	147
128.0639	655
129.0724	273
130.08	84
131.0504	102
131.0869	108
132.0577	297
133.0653	60
133.1036	54
135.0828	141
139.0563	18
140.0648	24
141.0709	334
142.0796	147
143.0867	201
144.0588	180
144.0919	12
145.0663	291
145.1017	63
146.0502	21
146.0731	90
147.0822	505
149.096	18
151.0519	12
152.0639	135
153.0711	201
154.0786	99
155.0518	39
155.0873	177
156.0579	45
156.0958	30
157.0654	105
157.1013	45
158.0727	285
159.0592	21
159.0819	222
160.0711	12
161.0973	87
163.0788	18
164.0666	18
165.0693	397
166.0781	147
167.0849	165
168.0582	60
168.0923	42
169.0661	111
169.1	45
170.0729	66
171.0811	324
172.0905	45
173.0964	72
175.0797	15
176.0628	33
177.0747	36
178.0779	406
179.0856	586
180.0958	105
181.0659	264
181.1014	69
182.0731	96
183.0803	108
184.091	30
185.0931	84
187.0753	15
189.0697	324
190.0777	165
191.0865	249
192.0565	12
192.0928	186
193.0639	27
193.1012	183
194.0722	177
194.0942	12
194.1113	78
195.0808	364
195.1165	30
196.0882	183
197.0953	129
198.1051	27
199.1125	30
201.0692	24
202.0766	225
203.0855	258
204.0927	162
205.0657	96
205.0991	192
206.0703	45
206.1083	75
207.0784	358
207.1155	39
208.0889	243
209.0694	15
209.0955	297
210.1001	63
211.0733	30
211.1076	51
212.1084	12
215.0851	252
216.0922	117
217.1012	105
218.0718	93
218.1093	39
219.0816	183
219.1173	72
220.0887	84
220.1222	30
221.0967	306
221.1339	24
222.1035	315
223.0641	15
223.1114	69
224.0803	21
224.1171	39
225.0923	18
225.1252	12
226.0811	30
227.0843	84
228.0936	120
229.1011	207
230.1084	75
231.0807	192
231.1165	54
232.0891	141
232.1208	18
233.0969	261
234.1033	99
235.1132	126
236.1149	24
237.099	18
237.1354	42
238.1059	15
239.0855	18
240.0966	15
241.1025	51
242.1101	39
243.1159	99
244.0862	54
244.1227	27
245.0949	153
245.1278	24
246.1018	90
247.0841	15
247.1113	168
248.1184	114
249.0886	15
249.1299	60
252.099	18
253.1067	24
254.1095	15
255.0759	15
256.0871	24
257.0947	12
258.0988	33
258.1131	15
258.1342	15
259.1105	87
260.1175	30
261.1279	72
262.0995	15
262.1385	30
263.1417	42
269.107	12
270.1021	18
271.1117	57
272.1254	18
273.1302	21
285.1274	12
