Mass spectrum: 3-Dimethylaminophenol; LC-ESI-QTOF; MS2; 90 V
Name: 3-Dimethylaminophenol
Formula: C8H11NO
Exact mass: 137.0841
SMILES: CN(C)C1=CC(=CC=C1)O
InChI: InChI=1S/C8H11NO/c1-9(2)7-4-3-5-8(10)6-7/h3-6,10H,1-2H3
Instrument: TripleTOF 6600 SCIEX
Instrument type: LC-ESI-QTOF
Ms type: MS2
Ion mode: POSITIVE
Collision energy: 90
Fragmentation mode: CID
Ionization: ESI
Column name: Zorbax Eclipse Plus C18 2.1 mm x 150 mm, 3.5 um, Agilent
Retention time: 4.073 min
Precursor m/z: 138.0914
Precursor type: [M+H]+
m/z	relative intensity
35.9986	87
37.0065	490
38.0144	444
39.0223	999
40.0167	12
44.0486	28
49.0066	30
50.0142	121
51.0219	106
53.0012	52
53.0372	13
61.006	24
62.0138	47
63.022	43
65.0372	72
66.0095	19
66.0452	14
73.0063	19
74.0141	73
