Mass spectrum: Trimethylphenylammonium; LC-ESI-QTOF; MS2; 70 V
Name: Trimethylphenylammonium
Class: Industrial_process
Formula: [C9H14N]+
Exact mass: 136.1121
SMILES: C[N+](C)(c1ccccc1)C
InChI: InChI=1S/C9H14N/c1-10(2,3)9-7-5-4-6-8-9/h4-8H,1-3H3/q+1
Instrument: TripleTOF 5600 SCIEX
Instrument type: LC-ESI-QTOF
Ms type: MS2
Ion mode: POSITIVE
Collision energy: 70
Fragmentation mode: CID
Ionization: ESI
Column name: Zorbax Eclipse Plus C18 2.1 mm x 150 mm, 3.5 um, Agilent
Retention time: 2.831 min
Precursor m/z: 136.1121
Precursor type: [M]+
m/z	relative intensity
51.0289	470
77.0407	999
104.0501	117
