Mass spectrum: Solvent Yellow 124; LC-ESI-QTOF; MS2; 40 V
Name: Solvent Yellow 124
Formula: C22H31N3O2
Exact mass: 369.2416
SMILES: CCN(CCOC(C)OCC(C)C)C1=CC=C(C=C1)N=NC2=CC=CC=C2
InChI: InChI=1S/C22H31N3O2/c1-5-25(15-16-26-19(4)27-17-18(2)3)22-13-11-21(12-14-22)24-23-20-9-7-6-8-10-20/h6-14,18-19H,5,15-17H2,1-4H3
Instrument: TripleTOF X500R SCIEX
Instrument type: LC-ESI-QTOF
Ms type: MS2
Ion mode: POSITIVE
Collision energy: 40
Fragmentation mode: CID
Ionization: ESI
Column name: Zorbax Eclipse Plus C18 2.1 mm x 150 mm, 3.5 um, Agilent
Retention time: 18.347 min
Precursor m/z: 370.2489
Precursor type: [M+H]+
m/z	relative intensity
57.0701	31
77.039	215
105.0458	30
106.0649	19
120.0807	14
132.0812	231
133.0886	11
134.0968	196
136.0759	10
145.076	26
146.0903	16
147.1041	164
148.0935	12
160.1003	20
177.1035	14
178.1098	32
182.0984	9
210.1028	300
224.1198	24
225.1261	21
239.142	102
241.1208	17
252.1498	174
270.1198	15
270.1604	999
370.2488	33
