Mass spectrum: 2,2`-Dihydroxy-4,4`-dimethoxybenzophenone; LC-ESI-QTOF; MS2; 90 V
Name: 2,2`-Dihydroxy-4,4`-dimethoxybenzophenone
Class: Industrial_process; Personal_care_product
Formula: C15H14O5
Exact mass: 274.0841
SMILES: COc1ccc(c(O)c1)C(=O)c2ccc(OC)cc2O
InChI: InChI=1S/C15H14O5/c1-19-9-3-5-11(13(16)7-9)15(18)12-6-4-10(20-2)8-14(12)17/h3-8,16-17H,1-2H3
Instrument: TripleTOF 5600 SCIEX
Instrument type: LC-ESI-QTOF
Ms type: MS2
Ion mode: POSITIVE
Collision energy: 90
Fragmentation mode: CID
Ionization: ESI
Column name: Zorbax Eclipse Plus C18 2.1 mm x 150 mm, 3.5 um, Agilent
Retention time: 12.683 min
Precursor m/z: 275.0914
Precursor type: [M+H]+
m/z	relative intensity
53.008	103
55.0233	142
65.0426	752
67.057	90
69.0001	531
75.026	51
76.0354	64
77.0422	103
79.0204	129
80.0279	999
89.0397	116
95.0508	480
102.0478	103
107.0129	51
108.0206	895
115.0542	311
126.0462	103
127.0534	64
139.0559	77
