Mass spectrum: 2-Mercaptobenzothiazole; LC-ESI-QTOF; MS2; 50 V
Name: 2-Mercaptobenzothiazole
Class: Fungicide; Transformation_product
Formula: C7H5NS2
Exact mass: 166.9863
SMILES: C1=CC=C2C(=C1)NC(=S)S2
InChI: InChI=1S/C7H5NS2/c9-7-8-5-3-1-2-4-6(5)10-7/h1-4H,(H,8,9)
Instrument: TripleTOF 5600 SCIEX
Instrument type: LC-ESI-QTOF
Ms type: MS2
Ion mode: NEGATIVE
Collision energy: 50
Fragmentation mode: CID
Ionization: ESI
Column name: Zorbax Eclipse Plus C18 2.1 mm x 150 mm, 3.5 um, Agilent
Retention time: 9.12 min
Precursor m/z: 165.9791
Precursor type: [M-H]-
m/z	relative intensity
57.9751	999
134.008	266
