Mass spectrum: Warfarin; LC-ESI-QTOF; MS2; 40 V
Name: Warfarin
Class: Pesticide; Biocide; Rodenticide
Formula: C19H16O4
Exact mass: 308.1049
SMILES: CC(=O)CC(C1=CC=CC=C1)C2=C(C3=CC=CC=C3OC2=O)O
InChI: InChI=1S/C19H16O4/c1-12(20)11-15(13-7-3-2-4-8-13)17-18(21)14-9-5-6-10-16(14)23-19(17)22/h2-10,15,21H,11H2,1H3
Instrument: TripleTOF 6600 SCIEX
Instrument type: LC-ESI-QTOF
Ms type: MS2
Ion mode: NEGATIVE
Collision energy: 40
Fragmentation mode: CID
Ionization: ESI
Column name: Zorbax Eclipse Plus C18 2.1 mm x 150 mm, 3.5 um, Agilent
Retention time: 11.631 min
Precursor m/z: 307.0976
Precursor type: [M-H]-
m/z	relative intensity
41.0024	18
57.0334	121
93.0323	12
117.0339	337
130.0414	35
161.0242	555
195.0822	15
206.0723	46
221.06	10
222.0666	13
223.0757	33
249.0546	11
250.0635	999
261.0916	12
307.0969	154
