Mass spectrum: Pyridoxine; LC-ESI-QTOF; MS2; 80 V
Name: Pyridoxine
Formula: C8H11NO3
Exact mass: 169.0739
SMILES: OC1=C(C)N=CC(CO)=C1CO
InChI: InChI=1S/C8H11NO3/c1-5-8(12)7(4-11)6(3-10)2-9-5/h2,10-12H,3-4H2,1H3
Instrument: TripleTOF 5600 SCIEX
Instrument type: LC-ESI-QTOF
Ms type: MS2
Ion mode: POSITIVE
Collision energy: 80
Fragmentation mode: CID
Ionization: ESI
Column name: Zorbax Eclipse Plus C18 2.1 mm x 150 mm, 3.5 um, Agilent
Retention time: 2.11 min
Precursor m/z: 170.0812
Precursor type: [M+H]+
m/z	relative intensity
37.0074	92
38.0146	104
39.0225	371
41.0384	81
42.0338	162
50.015	302
51.0226	999
53.0384	383
63.0217	81
65.0376	232
67.0416	116
77.0384	708
78.0342	127
79.0529	92
80.0495	894
91.0413	81
92.0491	46
93.0571	69
94.0638	197
106.0653	139
