Mass spectrum: N-ethyl-m-toluamide; LC-ESI-QTOF; MS2; 150 V
Name: N-ethyl-m-toluamide
Class: Pharmaceutical
Formula: C10H13NO
Exact mass: 163.0997
InChI: InChI=1S/C10H13NO/c1-3-11-10(12)9-6-4-5-8(2)7-9/h4-7H,3H2,1-2H3,(H,11,12)
Instrument: TripleTOF 5600 SCIEX
Instrument type: LC-ESI-QTOF
Ms type: CID
Ion mode: POSITIVE
Collision energy: 150
Ionization: ESI
Column name: Zorbax Eclipse Plus C18 2.1 mm x 150 mm, 3.5 um, Agilent
Retention time: 8.341 min
Precursor m/z: 164.107
Precursor type: [M+H]+
m/z	relative intensity
44.0273	999
60.0038	363
73.0088	635
74.0196	817
