Mass spectrum: 4-chloro-2-hydroxy-4-methoxybenzophenone; LC-ESI-QTOF; MS2; 100 V
Name: 4-chloro-2-hydroxy-4-methoxybenzophenone
Formula: C14H11ClO3
Exact mass: 262.0397
SMILES: COC1=CC(=C(C=C1)C(=O)C2=CC=C(C=C2)Cl)O
InChI: InChI=1S/C14H11ClO3/c1-18-11-6-7-12(13(16)8-11)14(17)9-2-4-10(15)5-3-9/h2-8,16H,1H3
Instrument: TripleTOF 5600 SCIEX
Instrument type: LC-ESI-QTOF
Ms type: MS2
Ion mode: POSITIVE
Collision energy: 100
Fragmentation mode: CID
Ionization: ESI
Column name: Zorbax Eclipse Plus C18 2.1 mm x 150 mm, 3.5 um, Agilent
Retention time: 14.544 min
Precursor m/z: 263.0469
Precursor type: [M+H]+
m/z	relative intensity
53.0124	13
65.0456	29
69.0039	59
73.0141	40
74.0212	647
75.0292	999
76.0354	34
79.0237	24
80.0301	40
84.9886	150
86.0221	16
87.0262	26
89.0438	34
95.0543	16
108.0233	29
111.0027	198
113.0408	40
126.0479	13
137.0391	26
139.0097	18
139.0566	75
150.049	16
151.0555	18
152.0676	10
