Mass spectrum: Metamitron; LC-ESI-QTOF; MS2; 40 V
Name: Metamitron
Class: Herbicide
Formula: C10H10N4O
Exact mass: 202.0855
SMILES: CC1=NN=C(c2ccccc2)C(=O)N1N
InChI: InChI=1S/C10H10N4O/c1-7-12-13-9(10(15)14(7)11)8-5-3-2-4-6-8/h2-6H,11H2,1H3
Instrument: TripleTOF 5600 SCIEX
Instrument type: LC-ESI-QTOF
Ms type: MS2
Ion mode: POSITIVE
Collision energy: 40
Fragmentation mode: CID
Ionization: ESI
Column name: Zorbax Eclipse Plus C18 2.1 mm x 150 mm, 3.5 um, Agilent
Retention time: 6.783 min
Precursor m/z: 203.0927
Precursor type: [M+H]+
m/z	relative intensity
42.0439	435
43.0505	25
56.0179	28
57.0498	63
59.0293	21
65.0418	24
72.0582	19
77.0415	635
79.0572	116
80.052	18
83.0254	50
89.0398	93
91.0452	25
92.0504	48
93.0617	12
103.0521	28
104.0494	999
105.0396	12
105.0573	113
106.0639	66
107.0579	15
116.0477	10
117.0444	31
118.052	83
119.0608	19
130.0641	53
134.0699	21
145.039	68
158.0722	37
159.078	59
173.0699	15
174.078	177
175.0971	592
203.0917	328
