Mass spectrum: N-desmethyl-diphenhydramine; LC-ESI-QTOF; MS2; 60 V
Name: N-desmethyl-diphenhydramine
Class: Pharmaceutical; Metabolite
Formula: C16H19NO
Exact mass: 241.1467
SMILES: CNCCOC(c1ccccc1)c2ccccc2
InChI: InChI=1S/C16H19NO/c1-17-12-13-18-16(14-8-4-2-5-9-14)15-10-6-3-7-11-15/h2-11,16-17H,12-13H2,1H3
Instrument: TripleTOF 5600 SCIEX
Instrument type: LC-ESI-QTOF
Ms type: MS2
Ion mode: POSITIVE
Collision energy: 60
Fragmentation mode: CID
Ionization: ESI
Column name: Zorbax Eclipse Plus C18 2.1 mm x 150 mm, 3.5 um, Agilent
Retention time: 7.557 min
Precursor m/z: 242.1539
Precursor type: [M+H]+
m/z	relative intensity
115.0545	69
127.0539	10
128.0617	90
139.0545	17
141.0703	62
150.0456	11
151.0545	84
152.0618	774
163.0535	10
164.0616	52
165.0695	999
166.0776	124
167.0851	51
