Mass spectrum: 3,5-Dichloroaniline; LC-ESI-QTOF; MS2; 40 V
Name: 3,5-Dichloroaniline
Formula: C6H5Cl2N
Exact mass: 160.9799
SMILES: C1=C(C=C(C=C1Cl)Cl)N
InChI: InChI=1S/C6H5Cl2N/c7-4-1-5(8)3-6(9)2-4/h1-3H,9H2
Instrument: TripleTOF X500R SCIEX
Instrument type: LC-ESI-QTOF
Ms type: MS2
Ion mode: POSITIVE
Collision energy: 40
Fragmentation mode: CID
Ionization: ESI
Column name: Zorbax Eclipse Plus C18 2.1 mm x 150 mm, 3.5 um, Agilent
Retention time: 11.205 min
Precursor m/z: 161.9872
Precursor type: [M+H]+
m/z	relative intensity
65.0386	62
74.0151	56
90.034	10
91.0419	29
92.0496	124
99.0003	29
100.0077	140
108.9841	366
109.9925	17
126.0107	12
127.0182	999
144.9611	126
172.967	40
