Mass spectrum: Flufenacet; LC-ESI-QTOF; MS2; 120 V
Name: Flufenacet
Class: Herbicide; Fungicide
Formula: C14H13F4N3O2S
Exact mass: 363.0665
SMILES: CC(C)N(C1=CC=C(C=C1)F)C(=O)COC2=NN=C(S2)C(F)(F)F
InChI: InChI=1S/C14H13F4N3O2S/c1-8(2)21(10-5-3-9(15)4-6-10)11(22)7-23-13-20-19-12(24-13)14(16,17)18/h3-6,8H,7H2,1-2H3
Instrument: TripleTOF 6600 SCIEX
Instrument type: LC-ESI-QTOF
Ms type: MS2
Ion mode: POSITIVE
Collision energy: 120
Fragmentation mode: CID
Ionization: ESI
Column name: Zorbax Eclipse Plus C18 2.1 mm x 150 mm, 3.5 um, Agilent
Retention time: 13.345 min
Precursor m/z: 364.0738
Precursor type: [M+H]+
m/z	relative intensity
39.023	49
41.0385	28
49.007	29
50.0151	174
51.0231	531
57.0135	327
59.0291	30
61.0067	16
62.0152	29
63.0227	82
69.0137	35
70.0209	59
71.0287	14
73.0069	28
74.0153	463
75.0232	999
76.018	34
77.039	865
78.0345	45
81.0133	60
83.0294	449
84.0375	22
85.0322	15
89.0384	30
95.0295	581
96.037	282
97.0448	130
102.034	11
104.0494	38
105.0448	16
107.0292	156
108.0371	25
109.0447	163
111.0481	10
122.04	74
123.0354	132
124.0554	45
135.0471	20
136.0552	24
