Mass spectrum: N,O-didesmethyl-venlafaxine; LC-ESI-QTOF; MS2; 40 V
Name: N,O-didesmethyl-venlafaxine
Class: Pharmaceutical; Metabolite; Transformation_product-Metabolite
Formula: C15H23NO2
Exact mass: 249.1729
SMILES: CNCC(c1ccc(cc1)O)C2(CCCCC2)O
InChI: InChI=1S/C15H23NO2/c1-16-11-14(12-5-7-13(17)8-6-12)15(18)9-3-2-4-10-15/h5-8,14,16-18H,2-4,9-11H2,1H3
Instrument: TripleTOF 5600 SCIEX
Instrument type: LC-ESI-QTOF
Ms type: MS2
Ion mode: POSITIVE
Collision energy: 40
Fragmentation mode: CID
Ionization: ESI
Column name: Zorbax Eclipse Plus C18 2.1 mm x 150 mm, 3.5 um, Agilent
Retention time: 5.659 min
Precursor m/z: 250.1802
Precursor type: [M+H]+
m/z	relative intensity
44.0591	512
55.0592	10
67.0578	12
69.0719	25
77.0415	162
79.0568	134
81.0719	96
91.0553	59
93.0716	10
103.0542	34
105.07	193
107.0503	999
115.0542	53
117.0687	20
119.0505	11
121.0634	47
127.0543	37
131.0498	36
131.0854	27
133.0654	514
135.067	47
141.069	42
144.057	44
145.0653	128
149.0829	12
150.0913	20
159.0809	165
201.1281	83
232.1699	37
250.1823	10
