Mass spectrum: 11alpha-Hydroxyprogesterone; LC-ESI-QTOF; MS2; 40 V
Name: 11alpha-Hydroxyprogesterone
Class: Pharmaceutical; Metabolite
Formula: C21H30O3
Exact mass: 330.2195
SMILES: CC(=O)C1CC[C@H]2[C@@H]3CCC4=CC(=O)CC[C@]4(C)[C@H]3[C@H](O)C[C@]12C
InChI: InChI=1S/C21H30O3/c1-12(22)16-6-7-17-15-5-4-13-10-14(23)8-9-20(13,2)19(15)18(24)11-21(16,17)3/h10,15-19,24H,4-9,11H2,1-3H3/t15-,16?,17-,18+,19+,20-,21+/m0/s1
Instrument: TripleTOF 5600 SCIEX
Instrument type: LC-ESI-QTOF
Ms type: MS2
Ion mode: POSITIVE
Collision energy: 40
Fragmentation mode: CID
Ionization: ESI
Column name: Zorbax Eclipse Plus C18 2.1 mm x 150 mm, 3.5 um, Agilent
Retention time: 10.293 min
Precursor m/z: 331.2268
Precursor type: [M+H]+
m/z	relative intensity
43.0272	344
55.0239	28
55.0583	26
67.0578	136
69.0386	17
69.0727	31
71.0525	104
77.0414	75
79.0561	159
81.0726	205
83.0513	295
83.0872	28
85.0668	257
91.0554	280
91.0815	14
93.0702	338
95.0501	46
95.0865	286
97.0654	689
97.0991	11
103.0546	26
105.0696	463
105.1042	14
107.0486	81
107.085	318
109.0646	419
109.1014	107
111.0807	34
115.0531	31
117.0697	138
119.0853	370
121.0648	999
121.1003	133
123.0804	903
123.1171	37
128.0617	37
129.0689	101
130.0775	11
131.0853	393
133.0636	49
133.101	515
135.0802	176
135.1156	127
137.0949	78
141.0696	31
142.0769	57
142.0983	11
143.0851	266
144.0913	20
145.0663	17
145.1008	515
146.0731	23
147.0798	124
147.1158	321
149.0958	124
149.1314	72
151.1117	14
153.0686	14
154.0808	14
155.0861	110
156.0923	57
157.1008	309
158.108	31
159.0785	83
159.1162	419
159.1389	23
160.1237	14
161.0949	191
161.1307	112
163.1104	298
163.1463	46
167.0852	40
168.093	20
169.1007	185
170.1072	37
171.0783	28
171.1169	359
172.1206	11
173.0966	104
173.1315	388
175.1113	231
175.1478	95
177.1256	112
177.149	20
179.1017	11
180.0932	20
181.0996	69
182.1086	55
183.1171	144
184.1252	20
185.0919	43
185.1315	208
187.111	127
187.1467	104
189.1271	136
189.1631	37
191.0935	11
191.1407	23
192.0916	14
193.1015	31
194.1078	14
195.1162	136
196.125	28
197.0935	28
197.1319	202
198.1397	20
199.1129	46
199.1471	101
201.1259	57
201.1649	43
203.1434	46
205.1553	14
206.1082	31
207.1159	37
208.1237	26
209.133	75
210.1382	28
211.1094	57
211.1458	170
212.1222	14
213.1268	69
213.1628	167
214.1341	14
215.1417	40
215.1811	26
217.1577	20
219.139	11
220.1216	17
221.1298	52
222.1369	20
223.1469	49
224.1139	11
224.156	20
225.1263	20
225.1608	110
227.1424	63
227.177	17
228.1486	23
229.1564	101
231.1764	26
233.1325	28
235.1483	46
237.1642	133
239.1412	92
239.1756	11
241.1603	17
243.173	40
248.1544	17
249.1592	17
251.1788	40
252.1825	28
253.1621	26
253.1929	188
255.1728	147
262.1736	17
265.1562	20
267.1724	26
267.2068	49
269.1901	49
271.2036	130
277.1947	49
280.1822	49
285.1837	11
295.2039	156
298.1942	37
313.2155	115
