Mass spectrum: 4-(4-Chloro-2-methylphenoxy)butanoic acid; LC-ESI-QTOF; MS2; 110 V
Name: 4-(4-Chloro-2-methylphenoxy)butanoic acid
Class: Herbicide
Formula: C11H13ClO3
Exact mass: 228.0553
SMILES: CC1=C(C=CC(=C1)Cl)OCCCC(=O)O
InChI: InChI=1S/C11H13ClO3/c1-8-7-9(12)4-5-10(8)15-6-2-3-11(13)14/h4-5,7H,2-3,6H2,1H3,(H,13,14)
Instrument: TripleTOF 6600 SCIEX
Instrument type: LC-ESI-QTOF
Ms type: MS2
Ion mode: POSITIVE
Collision energy: 110
Fragmentation mode: CID
Ionization: ESI
Column name: Zorbax Eclipse Plus C18 2.1 mm x 150 mm, 3.5 um, Agilent
Retention time: 11.775 min
Precursor m/z: 229.0626
Precursor type: [M+H]+
m/z	relative intensity
36.0017	64
37.0072	257
38.0009	0
38.0146	290
39.0221	999
41.037	128
42.0083	64
43.0171	451
44.9963	290
45.0333	354
46.9695	32
48.9839	64
51.0235	354
52.0298	0
53.0119	32
53.0375	32
59.9984	32
65.0332	32
65.0423	32
72.9824	161
74.0134	64
77.0375	128
78.0435	32
89.037	161
91.0509	0
127.0559	64
