Mass spectrum: 3,3`-Dimethoxybenzidine; LC-ESI-QTOF; MS2; 50 V
Name: 3,3`-Dimethoxybenzidine
Formula: C14H16N2O2
Exact mass: 244.1212
SMILES: COC1=C(C=CC(=C1)C2=CC(=C(C=C2)N)OC)N
InChI: InChI=1S/C14H16N2O2/c1-17-13-7-9(3-5-11(13)15)10-4-6-12(16)14(8-10)18-2/h3-8H,15-16H2,1-2H3
Instrument: TripleTOF 6600 SCIEX
Instrument type: LC-ESI-QTOF
Ms type: MS2
Ion mode: POSITIVE
Collision energy: 50
Fragmentation mode: CID
Ionization: ESI
Column name: Zorbax Eclipse Plus C18 2.1 mm x 150 mm, 3.5 um, Agilent
Retention time: 5.188 min
Precursor m/z: 245.1285
Precursor type: [M+H]+
m/z	relative intensity
115.0539	85
117.0558	12
127.0534	14
130.0644	28
132.0798	12
141.0568	10
142.0649	56
143.0718	167
153.0559	24
154.0643	72
155.0664	10
158.0829	106
159.0866	268
169.0755	138
170.0825	152
171.0898	25
181.0753	23
182.082	21
186.0788	29
187.0856	999
197.0698	17
198.0769	21
202.1037	27
