Mass spectrum: Omeprazole sulfide 5-carboxylic acid; LC-ESI-QTOF; MS2; 50 V
Name: Omeprazole sulfide 5-carboxylic acid
Class: Metabolite; Pharmaceutical
Formula: C17H17N3O4S
Exact mass: 359.094
SMILES: CC1=C(C(=CN=C1CSC2=NC3=C(N2)C=C(C=C3)OC)C(=O)O)OC
InChI: InChI=1S/C17H17N3O4S/c1-9-14(18-7-11(16(21)22)15(9)24-3)8-25-17-19-12-5-4-10(23-2)6-13(12)20-17/h4-7H,8H2,1-3H3,(H,19,20)(H,21,22)
Instrument: TripleTOF 5600 SCIEX
Instrument type: LC-ESI-QTOF
Ms type: MS2
Ion mode: POSITIVE
Collision energy: 50
Fragmentation mode: CID
Ionization: ESI
Column name: Zorbax Eclipse Plus C18 2.1 mm x 150 mm, 3.5 um, Agilent
Retention time: 5.75 min
Precursor m/z: 360.1013
Precursor type: [M+H]+
m/z	relative intensity
79.0467	16
80.0532	26
92.0527	26
94.0694	12
97.0137	23
106.0637	142
107.0758	455
108.0469	13
108.0828	11
112.024	34
120.0468	29
122.0616	218
123.0701	12
124.0229	56
132.0443	10
134.0074	11
134.049	474
135.0691	196
136.0218	90
136.0765	25
137.0174	34
147.0548	11
148.0405	55
149.072	999
150.0556	208
152.0174	142
152.0705	28
153.0239	14
161.0722	18
162.0575	13
162.0799	49
163.0622	17
165.0123	273
166.0281	30
166.0501	14
168.0482	23
177.998	12
180.0132	777
180.0665	37
181.0199	11
181.0421	34
181.0733	13
182.0274	12
210.1023	29
212.038	636
223.0754	11
237.0881	79
238.0973	108
251.0697	11
252.0767	14
252.1126	17
253.0905	12
253.1213	89
265.084	14
266.09	35
268.1084	31
282.1234	13
284.1015	58
294.0875	21
298.1243	10
308.1001	13
312.097	107
326.1139	17
327.1169	18
328.0788	15
