Mass spectrum: Nadolol; LC-ESI-QTOF; MS2; 110 V
Name: Nadolol
Class: Pharmaceutical
Formula: C17H27NO4
Exact mass: 309.194
SMILES: CC(C)(C)NCC(COC1=CC=CC2=C1CC(C(C2)O)O)O
InChI: InChI=1S/C17H27NO4/c1-17(2,3)18-9-12(19)10-22-16-6-4-5-11-7-14(20)15(21)8-13(11)16/h4-6,12,14-15,18-21H,7-10H2,1-3H3
Instrument: TripleTOF 5600 SCIEX
Instrument type: LC-ESI-QTOF
Ms type: MS2
Ion mode: POSITIVE
Collision energy: 110
Fragmentation mode: CID
Ionization: ESI
Column name: Zorbax Eclipse Plus C18 2.1 mm x 150 mm, 3.5 um, Agilent
Retention time: 5.13 min
Precursor m/z: 310.2013
Precursor type: [M+H]+
m/z	relative intensity
50.0197	24
51.0289	73
56.0546	152
57.074	146
58.0699	36
62.019	24
63.0267	79
65.0421	341
74.0624	36
75.0254	42
77.0415	633
77.0697	30
78.0483	164
79.0573	42
89.0402	207
91.056	517
101.0413	36
102.048	152
102.075	24
103.0556	249
104.0645	54
105.0706	30
107.0503	24
113.0436	30
115.0557	999
115.0951	42
116.0619	30
126.0488	97
127.0553	268
127.0776	30
128.0627	395
128.0792	54
131.0495	134
139.0529	67
141.0713	48
151.0551	60
152.0621	121
153.0689	54
