Mass spectrum: Benzotriazole; LC-ESI-QTOF; MS2; 90 V
Name: Benzotriazole
Class: Industrial_process; Industrial_process; Industrial_process; Antimicrobial; Personal_care_product
Formula: C6H5N3
Exact mass: 119.0483
SMILES: C1=CC2=NNN=C2C=C1
InChI: InChI=1S/C6H5N3/c1-2-4-6-5(3-1)7-9-8-6/h1-4H,(H,7,8,9)
Instrument: TripleTOF 6600 SCIEX
Instrument type: LC-ESI-QTOF
Ms type: MS2
Ion mode: POSITIVE
Collision energy: 90
Fragmentation mode: CID
Ionization: ESI
Column name: Zorbax Eclipse Plus C18 2.1 mm x 150 mm, 3.5 um, Agilent
Retention time: 5.876 min
Precursor m/z: 120.0556
Precursor type: [M+H]+
m/z	relative intensity
35.9995	262
37.0073	999
38.0026	72
38.0152	692
39.0229	532
40.0186	29
43.0289	43
49.0074	131
50.0151	291
51.0103	80
51.0219	29
52.0185	167
59.9989	29
61.0069	306
62.0147	284
63.0225	196
74.0156	43
75.0099	43
