Mass spectrum: Daidzein; LC-ESI-QTOF; MS2; 50 V
Name: Daidzein
Class: Pharmaceutical; Natural_product
Formula: C15H10O4
Exact mass: 254.0579
SMILES: Oc1ccc(cc1)C2=COc3cc(O)ccc3C2=O
InChI: InChI=1S/C15H10O4/c16-10-3-1-9(2-4-10)13-8-19-14-7-11(17)5-6-12(14)15(13)18/h1-8,16-17H
Instrument: TripleTOF 5600 SCIEX
Instrument type: LC-ESI-QTOF
Ms type: MS2
Ion mode: NEGATIVE
Collision energy: 50
Fragmentation mode: CID
Ionization: ESI
Column name: Zorbax Eclipse Plus C18 2.1 mm x 150 mm, 3.5 um, Agilent
Retention time: 7.744 min
Precursor m/z: 253.0506
Precursor type: [M-H]-
m/z	relative intensity
41.0076	61
65.0051	70
77.0414	57
89.0411	70
91.0203	729
104.0289	114
117.0355	96
132.0228	833
133.0305	549
135.0099	187
167.0516	126
169.067	98
180.0589	370
195.0461	654
196.0535	208
197.0608	78
208.0541	660
209.0607	126
223.0407	999
224.0473	376
225.0547	88
253.0518	256
