Mass spectrum: Picoxystrobin; LC-ESI-QTOF; MS2; 120 V
Name: Picoxystrobin
Class: Fungicide
Formula: C18H16F3NO4
Exact mass: 367.1031
SMILES: COC=C(C1=CC=CC=C1COC2=CC=CC(=N2)C(F)(F)F)C(=O)OC
InChI: InChI=1S/C18H16F3NO4/c1-24-11-14(17(23)25-2)13-7-4-3-6-12(13)10-26-16-9-5-8-15(22-16)18(19,20)21/h3-9,11H,10H2,1-2H3
Instrument: TripleTOF 6600 SCIEX
Instrument type: LC-ESI-QTOF
Ms type: MS2
Ion mode: POSITIVE
Collision energy: 120
Fragmentation mode: CID
Ionization: ESI
Column name: Zorbax Eclipse Plus C18 2.1 mm x 150 mm, 3.5 um, Agilent
Retention time: 13.935 min
Precursor m/z: 368.1104
Precursor type: [M+H]+
m/z	relative intensity
39.023	26
50.0155	58
51.0231	53
52.0307	15
62.0154	17
63.0231	48
65.0388	66
74.0149	73
75.0227	16
76.031	295
77.0386	314
78.046	17
87.0244	13
89.0386	76
91.0542	119
102.0465	999
103.0545	174
115.0536	192
127.0545	11
128.0623	21
