Mass spectrum: 1-(2,6-Dichlorophenyl)-2-indolinone; LC-ESI-QTOF; MS2; 100 V
Name: 1-(2,6-Dichlorophenyl)-2-indolinone
Class: Pharmaceutical; Transformation_product; Diclofenac-lactam; Transformation_product-Metabolite
Formula: C14H9Cl2NO
Exact mass: 277.0061
SMILES: C1C2=CC=CC=C2N(C1=O)C3=C(C=CC=C3Cl)Cl
InChI: InChI=1S/C14H9Cl2NO/c15-10-5-3-6-11(16)14(10)17-12-7-2-1-4-9(12)8-13(17)18/h1-7H,8H2
Instrument: TripleTOF 5600 SCIEX
Instrument type: LC-ESI-QTOF
Ms type: MS2
Ion mode: POSITIVE
Collision energy: 100
Fragmentation mode: CID
Ionization: ESI
Column name: Zorbax Eclipse Plus C18 2.1 mm x 150 mm, 3.5 um, Agilent
Retention time: 12.191 min
Precursor m/z: 278.0134
Precursor type: [M+H]+
m/z	relative intensity
50.0255	55
62.024	11
63.0306	49
72.9884	15
73.0127	37
74.021	397
75.0286	198
76.0361	42
77.0441	891
78.0372	11
78.0502	51
79.0582	91
83.9827	13
84.9873	15
87.0282	20
89.0422	105
90.0483	20
98.018	55
99.0258	149
100.022	73
101.0418	122
102.0359	22
102.0504	69
103.0551	11
104.0523	26
108.9868	140
109.9972	13
113.042	29
114.0448	17
115.0575	20
123.0232	26
124.0319	31
125.0401	203
126.0478	210
127.0543	160
128.054	98
129.0533	11
137.04	17
139.0524	24
140.0494	44
149.041	116
150.0475	999
151.0554	992
152.0615	663
153.0587	134
163.0568	15
164.0518	22
175.0456	51
176.0494	143
177.0574	630
178.066	715
179.0719	192
180.081	20
206.0562	11
