Mass spectrum: Benzyltriphenylphosphonium; LC-ESI-QTOF; MS2; 130 V
Name: Benzyltriphenylphosphonium
Formula: [C25H22P]+
Exact mass: 353.1454
SMILES: C1=CC=C(C=C1)C[P+](C2=CC=CC=C2)(C3=CC=CC=C3)C4=CC=CC=C4
InChI: InChI=1S/C25H22P/c1-5-13-22(14-6-1)21-26(23-15-7-2-8-16-23,24-17-9-3-10-18-24)25-19-11-4-12-20-25/h1-20H,21H2/q+1
Instrument: TripleTOF 5600 SCIEX
Instrument type: LC-ESI-QTOF
Ms type: MS2
Ion mode: POSITIVE
Collision energy: 130
Fragmentation mode: CID
Ionization: ESI
Column name: Zorbax Eclipse Plus C18 2.1 mm x 150 mm, 3.5 um, Agilent
Retention time: 8.706 min
Precursor m/z: 353.1454
Precursor type: [M]+
m/z	relative intensity
39.0234	165
63.0225	93
65.0383	702
80.9874	139
89.0367	144
91.0526	648
102.045	63
107.0032	805
113.0376	52
115.0529	331
126.0452	164
131.0035	61
133.0187	81
139.0538	279
150.0458	102
151.054	344
152.0619	999
156.0115	64
157.0196	529
181.0199	311
183.0356	176
