Mass spectrum: Amisulpride; LC-ESI-QTOF; MS2; 150 V
Name: Amisulpride
Class: Pharmaceutical
Formula: C17H27N3O4S
Exact mass: 369.1722
SMILES: CCN1CCCC1CNC(=O)c2cc(c(N)cc2OC)[S](=O)(=O)CC
InChI: InChI=1S/C17H27N3O4S/c1-4-20-8-6-7-12(20)11-19-17(21)13-9-16(25(22,23)5-2)14(18)10-15(13)24-3/h9-10,12H,4-8,11,18H2,1-3H3,(H,19,21)
Instrument: TripleTOF 5600 SCIEX
Instrument type: LC-ESI-QTOF
Ms type: MS2
Ion mode: POSITIVE
Collision energy: 150
Fragmentation mode: CID
Ionization: ESI
Column name: Zorbax Eclipse Plus C18 2.1 mm x 150 mm, 3.5 um, Agilent
Retention time: 5.568 min
Precursor m/z: 370.1795
Precursor type: [M+H]+
m/z	relative intensity
40.0276	30
41.0343	93
42.0422	48
44.0228	42
51.0297	631
52.0254	887
53.0076	237
53.0453	120
54.0396	90
55.0233	87
55.0592	24
56.054	75
56.9836	33
57.9912	42
58.0702	45
60.0029	15
62.0428	21
63.0589	18
64.0344	303
65.0425	999
66.0138	15
66.0508	388
67.0079	12
67.0448	54
67.0577	12
67.9773	18
68.0166	361
68.0534	69
68.9828	373
69.9909	159
70.0321	12
70.0688	225
70.9987	15
74.0188	99
75.0131	105
75.0251	54
76.0214	415
77.0054	75
77.0171	12
77.029	66
77.041	84
78.0135	63
78.0368	370
79.0206	75
79.0433	75
79.9755	21
80.0157	129
80.0507	36
80.9815	48
81.0366	15
81.9879	36
82.0665	51
82.9968	21
83.9926	21
84.0839	78
84.9751	21
88.0199	30
89.0272	27
90.0358	81
91.0427	111
92.0513	114
92.9804	105
93.0592	42
93.9899	30
94.0304	144
94.997	30
95.992	18
98.0974	51
104.0133	78
106.0053	48
106.0289	186
106.0612	15
106.9849	39
107.0128	129
107.9904	18
108.973	21
117.9752	30
119.99	39
120.0434	45
122.0108	15
132.0087	69
