Mass spectrum: Clodinafop-Propargyl; LC-ESI-QTOF; MS2; 130 V
Name: Clodinafop-Propargyl
Class: Herbicide
Formula: C17H13ClFNO4
Exact mass: 349.0517
SMILES: CC(C(=O)OCC#C)OC1=CC=C(C=C1)OC2=C(C=C(C=N2)Cl)F
InChI: InChI=1S/C17H13ClFNO4/c1-3-8-22-17(21)11(2)23-13-4-6-14(7-5-13)24-16-15(19)9-12(18)10-20-16/h1,4-7,9-11H,8H2,2H3
Instrument: TripleTOF 6600 SCIEX
Instrument type: LC-ESI-QTOF
Ms type: MS2
Ion mode: POSITIVE
Collision energy: 130
Fragmentation mode: CID
Ionization: ESI
Column name: Zorbax Eclipse Plus C18 2.1 mm x 150 mm, 3.5 um, Agilent
Retention time: 13.951 min
Precursor m/z: 350.059
Precursor type: [M+H]+
m/z	relative intensity
37.0058	307
38.0138	192
39.0219	576
49.0054	153
50.0133	537
51.0217	768
57.0117	307
61.0058	153
62.0135	537
63.0212	730
65.0365	422
69.0117	230
73.0058	192
74.0138	806
75.0086	999
75.0212	653
76.0157	307
77.0362	230
81.0108	192
86.0126	230
91.0517	230
96.024	192
106.0187	307
107.026	192
109.9777	384
131.0281	345
132.0339	153
