Mass spectrum: Florfenicol; LC-ESI-QTOF; MS2; 150 V
Name: Florfenicol
Class: Pharmaceutical
Formula: C12H14Cl2FNO4S
Exact mass: 357.0005
SMILES: C[S](=O)(=O)c1ccc(cc1)[C@@H](O)[C@@H](CF)NC(=O)C(Cl)Cl
InChI: InChI=1S/C12H14Cl2FNO4S/c1-21(19,20)8-4-2-7(3-5-8)10(17)9(6-15)16-12(18)11(13)14/h2-5,9-11,17H,6H2,1H3,(H,16,18)/t9-,10-/m1/s1
Instrument: TripleTOF 5600 SCIEX
Instrument type: LC-ESI-QTOF
Ms type: MS2
Ion mode: POSITIVE
Collision energy: 150
Fragmentation mode: CID
Ionization: ESI
Column name: Zorbax Eclipse Plus C18 2.1 mm x 150 mm, 3.5 um, Agilent
Retention time: 7.507 min
Precursor m/z: 358.0077
Precursor type: [M+H]+
m/z	relative intensity
51.0275	199
77.0407	839
82.9453	999
89.0381	239
103.0542	199
133.0463	159
