Mass spectrum: Ranitidine; LC-ESI-QTOF; MS2; 100 V
Name: Ranitidine
Class: Pharmaceutical
Formula: C13H22N4O3S
Exact mass: 314.1413
SMILES: CNC(=C[N+](=O)[O-])NCCSCC1=CC=C(O1)CN(C)C
InChI: InChI=1S/C13H22N4O3S/c1-14-13(9-17(18)19)15-6-7-21-10-12-5-4-11(20-12)8-16(2)3/h4-5,9,14-15H,6-8,10H2,1-3H3
Instrument: TripleTOF 5600 SCIEX
Instrument type: LC-ESI-QTOF
Ms type: MS2
Ion mode: NEGATIVE
Collision energy: 100
Fragmentation mode: CID
Ionization: ESI
Column name: Zorbax Eclipse Plus C18 2.1 mm x 150 mm, 3.5 um, Agilent
Retention time: 4.832 min
Precursor m/z: 313.134
Precursor type: [M-H]-
m/z	relative intensity
40.0094	249
40.0158	124
41.0059	124
42.002	499
42.011	249
42.0205	124
45.9951	999
55.0319	374
60.0114	749
60.0341	124
85.0075	499
110.9876	624
116.0467	249
124.9933	249
125.0084	124
