Mass spectrum: Aminophenazone; LC-ESI-QTOF; MS2; 40 V
Name: Aminophenazone
Class: Pharmaceutical; Transformation_product-Metabolite
Formula: C13H17N3O
Exact mass: 231.1372
SMILES: CC1=C(C(=O)N(N1C)C2=CC=CC=C2)N(C)C
InChI: InChI=1S/C13H17N3O/c1-10-12(14(2)3)13(17)16(15(10)4)11-8-6-5-7-9-11/h5-9H,1-4H3
Instrument: TripleTOF 5600 SCIEX
Instrument type: LC-ESI-QTOF
Ms type: MS2
Ion mode: POSITIVE
Collision energy: 40
Fragmentation mode: CID
Ionization: ESI
Column name: Zorbax Eclipse Plus C18 2.1 mm x 150 mm, 3.5 um, Agilent
Retention time: 4.71 min
Precursor m/z: 232.1444
Precursor type: [M+H]+
m/z	relative intensity
42.0464	54
44.0589	10
56.0586	459
57.0663	15
58.0741	491
67.0499	10
68.0565	14
70.0714	333
72.0869	224
77.0444	85
79.0601	18
82.0708	46
83.0649	44
84.0494	11
84.0845	58
87.0973	10
91.0571	18
96.0733	14
97.0797	999
98.0874	347
99.0956	32
104.0531	23
106.0684	163
111.0947	289
113.1104	154
117.059	11
118.0668	54
123.0581	28
128.0529	19
130.066	11
132.0456	36
132.0808	18
133.0784	12
146.0623	10
149.1083	15
159.0924	31
177.1044	14
185.0715	14
216.1137	10
