Mass spectrum: Nadolol; LC-ESI-QTOF; MS2; 60 V
Name: Nadolol
Class: Pharmaceutical
Formula: C17H27NO4
Exact mass: 309.194
SMILES: CC(C)(C)NCC(COC1=CC=CC2=C1CC(C(C2)O)O)O
InChI: InChI=1S/C17H27NO4/c1-17(2,3)18-9-12(19)10-22-16-6-4-5-11-7-14(20)15(21)8-13(11)16/h4-6,12,14-15,18-21H,7-10H2,1-3H3
Instrument: TripleTOF 5600 SCIEX
Instrument type: LC-ESI-QTOF
Ms type: MS2
Ion mode: POSITIVE
Collision energy: 60
Fragmentation mode: CID
Ionization: ESI
Column name: Zorbax Eclipse Plus C18 2.1 mm x 150 mm, 3.5 um, Agilent
Retention time: 5.13 min
Precursor m/z: 310.2013
Precursor type: [M+H]+
m/z	relative intensity
56.0551	658
57.0733	207
65.0424	37
74.0626	398
74.084	53
77.0407	138
79.058	42
91.0568	860
91.0791	26
91.0886	21
91.0975	26
103.055	106
104.0632	21
105.0706	228
107.0509	185
115.0553	972
115.0838	21
116.0624	100
116.0769	26
117.0709	499
118.0421	31
119.0863	58
127.055	627
127.086	26
128.0627	999
129.0703	409
130.0811	42
131.0497	265
131.0863	132
132.0572	185
133.0649	164
135.0793	26
140.0629	26
141.0699	180
142.0776	26
143.0515	31
143.0856	249
144.0571	170
145.0651	802
145.0971	58
147.0802	302
152.0626	100
153.0702	403
154.0765	207
155.0655	53
155.0853	297
156.0577	42
157.0645	318
158.071	37
159.08	318
160.0511	47
165.0686	212
168.0568	90
169.0649	69
170.0722	42
171.0797	265
173.0975	31
174.0878	26
181.0645	31
183.0798	324
201.0933	31
