Mass spectrum: Acebutolol; LC-ESI-QTOF; MS2; 90 V
Name: Acebutolol
Class: Pharmaceutical
Formula: C18H28N2O4
Exact mass: 336.2049
SMILES: CCCC(=O)Nc1ccc(OCC(O)CNC(C)C)c(c1)C(C)=O
InChI: InChI=1S/C18H28N2O4/c1-5-6-18(23)20-14-7-8-17(16(9-14)13(4)21)24-11-15(22)10-19-12(2)3/h7-9,12,15,19,22H,5-6,10-11H2,1-4H3,(H,20,23)
Instrument: TripleTOF 5600 SCIEX
Instrument type: LC-ESI-QTOF
Ms type: MS2
Ion mode: POSITIVE
Collision energy: 90
Fragmentation mode: CID
Ionization: ESI
Column name: Zorbax Eclipse Plus C18 2.1 mm x 150 mm, 3.5 um, Agilent
Retention time: 5.965 min
Precursor m/z: 337.2122
Precursor type: [M+H]+
m/z	relative intensity
43.0274	66
44.0572	63
56.0561	999
57.0408	27
58.0712	184
65.0425	205
66.0524	12
72.0844	193
74.0632	211
77.0416	345
78.0515	21
79.0584	51
80.0518	84
82.0677	12
90.0484	24
91.0559	78
92.0515	57
92.0624	18
93.0353	139
93.0591	157
94.0673	63
98.0971	21
100.1129	21
103.0551	108
104.0501	42
105.0677	18
106.0657	81
107.0731	12
108.0469	45
108.0784	12
109.0535	63
110.0603	169
115.0545	118
116.1056	36
117.0579	84
118.066	48
118.0823	12
119.074	42
120.0822	66
122.0593	27
127.0541	27
130.065	63
131.0494	12
132.0825	15
133.0545	33
136.0391	21
143.0722	27
146.061	39
