Mass spectrum: 1-Methyl-3-octylimidazolium; LC-ESI-QTOF; MS2; 40 V
Name: 1-Methyl-3-octylimidazolium
Formula: C12H23N2
Exact mass: 195.1856
SMILES: CCCCCCCCN1C=C[N+](=C1)C
InChI: InChI=1S/C12H23N2/c1-3-4-5-6-7-8-9-14-11-10-13(2)12-14/h10-12H,3-9H2,1-2H3/q+1
Instrument: TripleTOF 5600 SCIEX
Instrument type: LC-ESI-QTOF
Ms type: CID
Ion mode: POSITIVE
Collision energy: 40
Ionization: ESI
Column name: Zorbax Eclipse Plus C18 2.1 mm x 150 mm, 3.5 um, Agilent
Retention time: 7.538 min
Precursor m/z: 195.1856
Precursor type: [M]+
m/z	relative intensity
41.0389	50
43.0545	50
83.0591	999
195.1861	260
