Mass spectrum: Haloxyfop-methyl; LC-ESI-QTOF; MS2; 50 V
Name: Haloxyfop-methyl
Class: Herbicide
Formula: C16H13ClF3NO4
Exact mass: 375.0485
SMILES: COC(=O)C(C)Oc1ccc(Oc2ncc(cc2Cl)C(F)(F)F)cc1
InChI: InChI=1S/C16H13ClF3NO4/c1-9(15(22)23-2)24-11-3-5-12(6-4-11)25-14-13(17)7-10(8-21-14)16(18,19)20/h3-9H,1-2H3
Instrument: TripleTOF 5600 SCIEX
Instrument type: LC-ESI-QTOF
Ms type: MS2
Ion mode: POSITIVE
Collision energy: 50
Fragmentation mode: CID
Ionization: ESI
Column name: Zorbax Eclipse Plus C18 2.1 mm x 150 mm, 3.5 um, Agilent
Retention time: 14.891 min
Precursor m/z: 376.0558
Precursor type: [M+H]+
m/z	relative intensity
65.0432	60
65.0554	15
75.0277	26
91.0554	860
91.0862	15
119.0481	60
120.056	18
121.0284	30
179.9817	41
189.0353	18
197.9926	37
203.0145	30
208.0335	18
209.044	71
216.0233	52
224.01	22
226.0464	33
232.0135	78
235.0571	33
237.0399	37
245.0221	22
246.0257	22
247.0441	18
252.0014	63
252.0637	18
260.0029	26
260.0429	33
270.0326	33
272.0072	999
288.0034	236
288.0387	169
316.0336	67
