Mass spectrum: Chloroquine; LC-ESI-QTOF; MS2; 120 V
Name: Chloroquine
Class: Pharmaceutical
Formula: C18H26ClN3
Exact mass: 319.1815
SMILES: CCN(CC)CCCC(C)NC1=C2C=CC(=CC2=NC=C1)Cl
InChI: InChI=1S/C18H26ClN3/c1-4-22(5-2)12-6-7-14(3)21-17-10-11-20-18-13-15(19)8-9-16(17)18/h8-11,13-14H,4-7,12H2,1-3H3,(H,20,21)
Instrument: TripleTOF 6600 SCIEX
Instrument type: LC-ESI-QTOF
Ms type: MS2
Ion mode: POSITIVE
Collision energy: 120
Fragmentation mode: CID
Ionization: ESI
Column name: Zorbax Eclipse Plus C18 2.1 mm x 150 mm, 3.5 um, Agilent
Retention time: 4.84 min
Precursor m/z: 320.1888
Precursor type: [M+H]+
m/z	relative intensity
37.0073	34
38.0149	39
39.0228	270
41.0384	88
50.0144	44
51.0231	93
52.018	29
61.0076	29
62.0145	68
63.0227	226
65.0387	29
70.0645	29
73.0058	34
74.0147	344
75.0225	674
76.0183	39
76.0299	103
77.0382	221
78.0456	44
84.9839	29
88.0315	29
89.0383	999
90.0327	24
90.0465	236
91.0413	19
98.014	196
98.0961	24
99.0224	250
100.0179	98
100.0302	44
101.0378	285
102.0338	49
102.0457	157
104.0497	39
110.9996	113
112.0065	19
113.0388	24
114.0325	19
114.0457	19
115.0413	29
115.0524	59
116.0492	206
117.0441	68
117.0568	152
118.0516	29
126.0328	24
127.0407	177
128.0489	497
129.0442	98
129.0564	206
130.0397	19
136.0073	127
138.0112	24
139.0061	29
140.0493	78
141.0575	34
142.0507	73
143.0596	118
144.068	34
151.0194	24
154.039	24
155.06	103
162.0112	49
163.0172	98
166.0518	19
167.06	49
168.0676	93
189.02	44
