Mass spectrum: Chloroquine; LC-ESI-QTOF; MS2; 70 V
Name: Chloroquine
Class: Pharmaceutical
Formula: C18H26ClN3
Exact mass: 319.1815
SMILES: CCN(CC)CCCC(C)NC1=C2C=CC(=CC2=NC=C1)Cl
InChI: InChI=1S/C18H26ClN3/c1-4-22(5-2)12-6-7-14(3)21-17-10-11-20-18-13-15(19)8-9-16(17)18/h8-11,13-14H,4-7,12H2,1-3H3,(H,20,21)
Instrument: TripleTOF 6600 SCIEX
Instrument type: LC-ESI-QTOF
Ms type: MS2
Ion mode: POSITIVE
Collision energy: 70
Fragmentation mode: CID
Ionization: ESI
Column name: Zorbax Eclipse Plus C18 2.1 mm x 150 mm, 3.5 um, Agilent
Retention time: 4.84 min
Precursor m/z: 320.1888
Precursor type: [M+H]+
m/z	relative intensity
30.0337	14
39.0231	94
41.0384	188
44.0492	22
56.0493	18
58.0651	170
69.0692	62
70.0655	36
72.0799	18
74.0959	34
75.0226	28
77.0386	24
84.0806	10
86.096	566
89.0386	66
90.046	24
98.0961	213
99.0229	14
101.038	14
102.0341	10
102.0466	14
104.048	12
110.999	102
115.0535	12
116.0491	140
117.0568	267
118.0525	20
126.0337	22
127.0408	64
128.049	174
129.0437	22
129.0569	329
134.9987	14
136.0064	38
138.0096	76
139.0042	34
142.0528	18
142.064	16
143.0596	207
144.0677	661
151.0169	120
154.04	20
155.0599	261
156.0674	434
162.0102	182
163.0181	343
164.0259	116
167.0612	10
168.0678	84
169.0753	34
177.0333	80
178.0303	102
179.0368	999
189.0201	10
190.029	114
191.0368	482
203.0366	144
205.0521	196
