Mass spectrum: N-desmethyl-diphenhydramine; LC-ESI-QTOF; MS2; 140 V
Name: N-desmethyl-diphenhydramine
Class: Pharmaceutical; Metabolite; Transformation_product-Metabolite
Formula: C16H19NO
Exact mass: 241.1467
SMILES: CNCCOC(c1ccccc1)c2ccccc2
InChI: InChI=1S/C16H19NO/c1-17-12-13-18-16(14-8-4-2-5-9-14)15-10-6-3-7-11-15/h2-11,16-17H,12-13H2,1H3
Instrument: TripleTOF 5600 SCIEX
Instrument type: LC-ESI-QTOF
Ms type: MS2
Ion mode: POSITIVE
Collision energy: 140
Fragmentation mode: CID
Ionization: ESI
Column name: Zorbax Eclipse Plus C18 2.1 mm x 150 mm, 3.5 um, Agilent
Retention time: 7.557 min
Precursor m/z: 242.1539
Precursor type: [M+H]+
m/z	relative intensity
60.0047	79
65.0426	244
73.0119	116
74.0187	903
75.0262	302
76.0333	239
77.0405	249
78.0483	63
84.0025	42
85.0085	318
86.016	584
87.0249	435
88.0337	58
89.0394	552
97.0071	79
98.0157	568
99.0226	95
100.0306	47
102.0461	95
109.0056	100
110.0142	260
111.0227	106
113.038	201
114.0456	37
115.0537	265
122.0159	106
123.0239	26
126.0448	111
127.0536	37
134.0168	21
137.0394	170
138.0452	58
139.0527	180
149.037	47
150.046	223
151.0561	26
161.0383	255
162.0467	419
163.0538	999
164.0584	85
165.0664	53
