Mass spectrum: Irbesartan; LC-ESI-QTOF; MS2; 70 V
Name: Irbesartan
Class: Pharmaceutical
Formula: C25H28N6O
Exact mass: 428.2325
SMILES: CCCCC1=NC2(CCCC2)C(=O)N1Cc3ccc(cc3)c4ccccc4c5n[nH]nn5
InChI: InChI=1S/C25H28N6O/c1-2-3-10-22-26-25(15-6-7-16-25)24(32)31(22)17-18-11-13-19(14-12-18)20-8-4-5-9-21(20)23-27-29-30-28-23/h4-5,8-9,11-14H,2-3,6-7,10,15-17H2,1H3,(H,27,28,29,30)
Instrument: TripleTOF 5600 SCIEX
Instrument type: LC-ESI-QTOF
Ms type: MS2
Ion mode: POSITIVE
Collision energy: 70
Fragmentation mode: CID
Ionization: ESI
Column name: Zorbax Eclipse Plus C18 2.1 mm x 150 mm, 3.5 um, Agilent
Retention time: 9.345 min
Precursor m/z: 429.2397
Precursor type: [M+H]+
m/z	relative intensity
67.0577	20
77.0418	59
79.0565	13
80.052	31
84.0837	188
115.0539	15
127.0537	26
128.049	13
129.0445	24
139.0535	22
140.0494	57
150.0465	14
151.0545	237
152.0621	349
153.0696	197
154.0651	26
163.0541	88
164.0566	64
165.0698	290
166.0679	53
167.0725	68
168.0684	19
177.0578	70
178.0665	301
179.0731	413
180.0808	777
181.0745	24
189.0569	35
190.0654	532
191.0723	158
192.0717	534
195.1495	10
205.0762	999
206.0844	477
207.0919	356
