Mass spectrum: Flufenacet ESA; LC-ESI-QTOF; MS2; 40 V
Name: Flufenacet ESA
Class: Herbicide; Transformation_product
Formula: C11H14FNO4S
Exact mass: 275.0628
SMILES: CC(C)N(C1=CC=C(C=C1)F)C(=O)CS(=O)(=O)O
InChI: InChI=1S/C11H14FNO4S/c1-8(2)13(11(14)7-18(15,16)17)10-5-3-9(12)4-6-10/h3-6,8H,7H2,1-2H3,(H,15,16,17)
Instrument: TripleTOF 6600 SCIEX
Instrument type: LC-ESI-QTOF
Ms type: MS2
Ion mode: POSITIVE
Collision energy: 40
Fragmentation mode: CID
Ionization: ESI
Column name: Zorbax Eclipse Plus C18 2.1 mm x 150 mm, 3.5 um, Agilent
Retention time: 6.781 min
Precursor m/z: 276.07
Precursor type: [M+H]+
m/z	relative intensity
59.0126	85
65.0378	14
75.0233	10
77.0376	10
92.0489	92
95.0288	67
96.0359	10
97.0443	44
109.0444	90
110.0399	11
111.047	21
112.0558	999
122.0397	12
122.9735	19
123.0349	35
124.0555	274
135.0477	295
136.0562	18
152.0504	42
154.0652	11
216.0135	102
234.024	26
