Mass spectrum: Dicloxacillin; LC-ESI-QTOF; MS2; 70 V
Name: Dicloxacillin
Formula: C19H17Cl2N3O5S
Exact mass: 469.0266
SMILES: CC1=C(C(=NO1)C2=C(C=CC=C2Cl)Cl)C(=O)NC3C4N(C3=O)C(C(S4)(C)C)C(=O)O
InChI: InChI=1S/C19H17Cl2N3O5S/c1-7-10(12(23-29-7)11-8(20)5-4-6-9(11)21)15(25)22-13-16(26)24-14(18(27)28)19(2,3)30-17(13)24/h4-6,13-14,17H,1-3H3,(H,22,25)(H,27,28)
Instrument: TripleTOF 6600 SCIEX
Instrument type: LC-ESI-QTOF
Ms type: MS2
Ion mode: POSITIVE
Collision energy: 70
Fragmentation mode: CID
Ionization: ESI
Column name: Zorbax Eclipse Plus C18 2.1 mm x 150 mm, 3.5 um, Agilent
Retention time: 11.23 min
Precursor m/z: 470.0339
Precursor type: [M+H]+
m/z	relative intensity
43.0138	29
58.9893	16
70.0592	46
87.019	245
108.9739	21
114.0271	999
135.9959	21
142.0182	29
144.947	97
147.9825	25
148.9882	25
156.9472	173
160.0296	59
170.9609	33
171.9565	67
172.9508	63
183.9558	368
185.972	59
195.9544	275
197.9694	283
209.9681	84
211.9484	321
213.9622	131
