Mass spectrum: Diphenhydramine; LC-ESI-QTOF; MS2; 80 V
Name: Diphenhydramine
Class: Pharmaceutical
Formula: C17H21NO
Exact mass: 255.1623
SMILES: CN(C)CCOC(c1ccccc1)c2ccccc2
InChI: InChI=1S/C17H21NO/c1-18(2)13-14-19-17(15-9-5-3-6-10-15)16-11-7-4-8-12-16/h3-12,17H,13-14H2,1-2H3
Instrument: TripleTOF 5600 SCIEX
Instrument type: LC-ESI-QTOF
Ms type: MS2
Ion mode: POSITIVE
Collision energy: 80
Fragmentation mode: CID
Ionization: ESI
Column name: Zorbax Eclipse Plus C18 2.1 mm x 150 mm, 3.5 um, Agilent
Retention time: 7.721 min
Precursor m/z: 256.1696
Precursor type: [M+H]+
m/z	relative intensity
65.0433	17
77.0413	13
78.0492	15
89.0407	28
91.0563	12
102.0471	41
115.0544	230
126.0468	53
127.0543	24
128.0622	148
139.0542	88
141.0702	49
150.0461	54
151.0542	192
152.0618	602
163.0544	93
164.0621	198
165.0692	999
166.0778	32
