Mass spectrum: Tributylhexadecylphosphonium; LC-ESI-QTOF; MS2; 90 V
Name: Tributylhexadecylphosphonium
Class: Pharmaceutical
Formula: [C28H60P]+
Exact mass: 427.4427
SMILES: CCCCCCCCCCCCCCCC[P+](CCCC)(CCCC)CCCC
InChI: InChI=1S/C28H60P/c1-5-9-13-14-15-16-17-18-19-20-21-22-23-24-28-29(25-10-6-2,26-11-7-3)27-12-8-4/h5-28H2,1-4H3/q+1
Instrument: TripleTOF 5600 SCIEX
Instrument type: LC-ESI-QTOF
Ms type: MS2
Ion mode: POSITIVE
Collision energy: 90
Fragmentation mode: CID
Ionization: ESI
Column name: Zorbax Eclipse Plus C18 2.1 mm x 150 mm, 3.5 um, Agilent
Retention time: 16.04 min
Precursor m/z: 427.4427
Precursor type: [M]+
m/z	relative intensity
56.9928	61
59.0084	57
61.0244	224
62.032	275
75.0381	251
76.0466	999
89.0516	110
90.0592	260
103.0669	87
117.0828	130
131.0983	260
145.1132	150
159.1295	86
173.1449	335
187.1607	165
201.1767	86
215.1915	156
229.2069	335
243.2233	52
271.2527	58
285.2682	71
