Mass spectrum: (S)-N-methyl-pregabalin; LC-ESI-QTOF; MS2; 140 V
Name: (S)-N-methyl-pregabalin
Formula: C9H19NO2
Exact mass: 173.1416
SMILES: CC(C)CC(CC(=O)O)CNC
InChI: InChI=1S/C9H19NO2/c1-7(2)4-8(6-10-3)5-9(11)12/h7-8,10H,4-6H2,1-3H3,(H,11,12)
Instrument: TripleTOF 5600 SCIEX
Instrument type: LC-ESI-QTOF
Ms type: MS2
Ion mode: POSITIVE
Collision energy: 140
Fragmentation mode: CID
Ionization: ESI
Column name: Zorbax Eclipse Plus C18 2.1 mm x 150 mm, 3.5 um, Agilent
Retention time: 4.84 min
Precursor m/z: 174.1489
Precursor type: [M+H]+
m/z	relative intensity
35.9999	160
37.0078	585
38.0035	68
38.0155	516
39.0235	999
41.0392	195
42.0343	80
43.0178	126
44.0501	252
44.9979	45
50.0152	57
