Mass spectrum: Benzyl-(1-ethoxycarbonyl-undecyl)-dimethyl-ammonium; LC-ESI-QTOF; MS2; 40 V
Name: Benzyl-(1-ethoxycarbonyl-undecyl)-dimethyl-ammonium
Formula: [C23H40NO2]+
Exact mass: 362.3054
SMILES: CCCCCCCCCCC(C(=O)OCC)[N+](C)(C)Cc1ccccc1
InChI: InChI=1S/C23H40NO2/c1-5-7-8-9-10-11-12-16-19-22(23(25)26-6-2)24(3,4)20-21-17-14-13-15-18-21/h13-15,17-18,22H,5-12,16,19-20H2,1-4H3/q+1
Instrument: TripleTOF 5600 SCIEX
Instrument type: LC-ESI-QTOF
Ms type: MS2
Ion mode: POSITIVE
Collision energy: 40
Fragmentation mode: CID
Ionization: ESI
Column name: Zorbax Eclipse Plus C18 2.1 mm x 150 mm, 3.5 um, Agilent
Retention time: 11.716 min
Precursor m/z: 362.3054
Precursor type: [M]+
m/z	relative intensity
91.0565	999
102.0559	126
130.0872	194
198.2227	386
242.2487	265
270.2439	267
362.3067	203
