Mass spectrum: Tetracycline; LC-ESI-QTOF; MS2; 140 V
Name: Tetracycline
Class: Pharmaceutical
Formula: C22H24N2O8
Exact mass: 444.1533
SMILES: CC1(C2CC3C(C(=O)C(=C(C3(C(=O)C2=C(C4=C1C=CC=C4O)O)O)O)C(=O)N)N(C)C)O
InChI: InChI=1S/C22H24N2O8/c1-21(31)8-5-4-6-11(25)12(8)16(26)13-9(21)7-10-15(24(2)3)17(27)14(20(23)30)19(29)22(10,32)18(13)28/h4-6,9-10,15,25-26,29,31-32H,7H2,1-3H3,(H2,23,30)
Instrument: TripleTOF 5600 SCIEX
Instrument type: LC-ESI-QTOF
Ms type: MS2
Ion mode: POSITIVE
Collision energy: 140
Fragmentation mode: CID
Ionization: ESI
Column name: Zorbax Eclipse Plus C18 2.1 mm x 150 mm, 3.5 um, Agilent
Retention time: 5.46 min
Precursor m/z: 445.1605
Precursor type: [M+H]+
m/z	relative intensity
77.0376	79
89.0368	39
91.0548	39
98.0544	39
102.0447	39
114.0459	39
115.0537	199
126.0451	79
127.0527	119
128.0622	39
138.05	39
139.0539	799
139.0712	39
140.0609	159
141.0711	119
150.0492	319
151.0549	519
152.062	999
162.038	79
163.0567	199
163.0697	39
164.0641	79
165.0681	239
168.0569	79
169.0577	79
176.0611	159
176.0704	39
180.0681	39
181.0671	39
187.0555	79
189.0672	79
189.0781	39
197.0636	39
