Mass spectrum: Morantel; LC-ESI-QTOF; MS2; 60 V
Name: Morantel
Class: Pharmaceutical
Formula: C12H16N2S
Exact mass: 220.1034
SMILES: CN1CCCN=C1/C=C/c2sccc2C
InChI: InChI=1S/C12H16N2S/c1-10-6-9-15-11(10)4-5-12-13-7-3-8-14(12)2/h4-6,9H,3,7-8H2,1-2H3/b5-4+
Instrument: TripleTOF 5600 SCIEX
Instrument type: LC-ESI-QTOF
Ms type: MS2
Ion mode: POSITIVE
Collision energy: 60
Fragmentation mode: CID
Ionization: ESI
Column name: Zorbax Eclipse Plus C18 2.1 mm x 150 mm, 3.5 um, Agilent
Retention time: 6.042 min
Precursor m/z: 221.1107
Precursor type: [M+H]+
m/z	relative intensity
42.0427	31
43.0281	13
44.0577	31
51.029	27
53.0457	13
55.0588	50
57.0744	15
59.0018	17
65.0424	69
66.0497	15
67.0583	79
68.0545	17
69.0475	93
69.0719	11
70.0679	19
70.9975	11
77.0417	618
77.0714	17
78.0487	62
79.0572	853
80.0519	17
81.0705	13
84.0045	34
89.0406	139
90.0481	65
91.0551	203
93.0586	13
93.0706	13
94.0652	25
94.9945	11
96.0024	32
97.0116	164
97.0767	17
103.0539	42
104.0502	71
105.0567	11
105.0691	54
106.0654	143
108.0027	27
109.0125	13
110.0181	44
111.0262	141
115.0537	19
116.0492	81
117.0569	273
118.0639	52
119.0844	19
121.0098	164
121.0731	25
122.018	440
123.0263	999
124.032	9
130.0659	69
131.0736	34
132.0796	15
133.0106	48
133.0744	11
134.0138	104
135.0131	100
135.0922	11
136.0223	25
137.0418	9
138.037	23
145.0757	23
148.021	137
149.029	446
150.0369	195
157.0768	17
159.0915	25
162.0372	23
163.0399	44
164.0521	100
173.1061	40
177.048	48
205.0778	15
