Mass spectrum: Climbazole; LC-ESI-QTOF; MS2; 50 V
Name: Climbazole
Class: Pharmaceutical; Personal_care_product
Formula: C15H17ClN2O2
Exact mass: 292.0979
SMILES: CC(C)(C)C(=O)C(Oc1ccc(Cl)cc1)n2ccnc2
InChI: InChI=1S/C15H17ClN2O2/c1-15(2,3)13(19)14(18-9-8-17-10-18)20-12-6-4-11(16)5-7-12/h4-10,14H,1-3H3
Instrument: TripleTOF 5600 SCIEX
Instrument type: LC-ESI-QTOF
Ms type: MS2
Ion mode: POSITIVE
Collision energy: 50
Fragmentation mode: CID
Ionization: ESI
Column name: Zorbax Eclipse Plus C18 2.1 mm x 150 mm, 3.5 um, Agilent
Retention time: 8.761 min
Precursor m/z: 293.1051
Precursor type: [M+H]+
m/z	relative intensity
55.0604	213
57.0763	651
65.043	38
67.0583	28
69.0487	32
69.074	735
70.0809	273
72.9876	66
73.009	10
74.0172	22
75.0252	138
77.0411	213
78.0511	10
81.0469	96
82.0547	106
91.0554	116
93.0342	96
94.0428	86
99.0007	999
99.0466	14
102.0451	12
107.0468	14
109.039	190
110.9995	779
113.0146	227
119.049	34
120.0564	44
125.0131	14
126.9939	677
127.0285	36
129.0096	305
137.1078	14
139.0049	112
139.0293	10
141.0098	548
147.0789	26
155.0257	146
161.0996	16
175.0764	36
