Mass spectrum: Dinoterb; LC-ESI-QTOF; MS2; 70 V
Name: Dinoterb
Class: Herbicide
Formula: C10H12N2O5
Exact mass: 240.0746
SMILES: CC(C)(C)C1=C(C(=CC(=C1)[N+](=O)[O-])[N+](=O)[O-])O
InChI: InChI=1S/C10H12N2O5/c1-10(2,3)7-4-6(11(14)15)5-8(9(7)13)12(16)17/h4-5,13H,1-3H3
Instrument: TripleTOF 6600 SCIEX
Instrument type: LC-ESI-QTOF
Ms type: MS2
Ion mode: NEGATIVE
Collision energy: 70
Fragmentation mode: CID
Ionization: ESI
Column name: Zorbax Eclipse Plus C18 2.1 mm x 150 mm, 3.5 um, Agilent
Retention time: 13.854 min
Precursor m/z: 239.0673
Precursor type: [M-H]-
m/z	relative intensity
41.001	12
41.9968	13
45.9915	590
68.9954	10
91.0517	13
93.0313	10
101.0365	24
104.0236	31
109.0142	108
110.022	12
117.032	18
123.0288	20
128.0468	29
130.0387	65
131.0341	63
132.0188	29
134.0221	315
135.0433	24
136.0509	12
145.0243	32
146.0343	96
148.0378	999
149.0449	137
150.0527	41
162.0174	106
164.07	12
176.0328	482
207.0376	12
