Mass spectrum: Prednisolone; LC-ESI-QTOF; MS2; 70 V
Name: Prednisolone
Class: Pharmaceutical
Formula: C21H28O5
Exact mass: 360.1937
SMILES: C[C@]12C[C@H](O)[C@H]3[C@@H](CCC4=CC(=O)C=C[C@]34C)[C@@H]1CC[C@]2(O)C(=O)CO
InChI: InChI=1S/C21H28O5/c1-19-7-5-13(23)9-12(19)3-4-14-15-6-8-21(26,17(25)11-22)20(15,2)10-16(24)18(14)19/h5,7,9,14-16,18,22,24,26H,3-4,6,8,10-11H2,1-2H3/t14-,15-,16-,18+,19-,20-,21-/m0/s1
Instrument: TripleTOF 5600 SCIEX
Instrument type: LC-ESI-QTOF
Ms type: MS2
Ion mode: POSITIVE
Collision energy: 70
Fragmentation mode: CID
Ionization: ESI
Column name: Zorbax Eclipse Plus C18 2.1 mm x 150 mm, 3.5 um, Agilent
Retention time: 8.432 min
Precursor m/z: 361.201
Precursor type: [M+H]+
m/z	relative intensity
43.0273	47
51.0285	21
55.0237	21
55.0597	25
65.044	60
67.0582	64
77.0416	527
79.0561	216
81.073	69
91.0563	999
93.0722	125
95.0878	43
102.0467	21
103.0544	155
104.0627	38
105.0708	311
107.0506	112
107.0867	43
115.0548	406
116.0637	86
117.0701	285
119.0858	289
121.0655	921
123.0816	21
126.0465	17
127.0542	198
128.0627	631
129.0705	272
130.0778	103
131.0495	172
131.0852	86
132.0574	328
133.0664	43
133.1005	30
135.0816	82
139.062	25
141.0707	272
142.0769	82
143.0861	142
144.0583	116
145.0654	198
145.101	64
146.0731	60
147.0812	505
151.0543	30
152.0624	177
153.0704	155
154.077	43
155.0859	108
157.065	194
157.1024	43
158.0738	354
159.0811	90
161.0986	38
165.0703	324
166.079	95
167.0868	116
168.057	21
169.0666	125
169.101	38
170.0736	38
171.0816	384
172.0868	30
173.0975	103
177.0719	43
178.0787	255
179.0854	237
180.0932	51
181.0648	216
181.1009	73
182.0727	77
183.0813	69
183.1187	17
184.0899	38
185.0972	30
189.0705	164
190.0793	138
191.0856	138
192.0936	64
193.1026	69
194.0721	138
194.1099	30
195.0809	237
195.1162	34
196.0894	77
197.0982	51
202.0773	108
203.0847	82
204.0945	43
205.0673	30
205.1012	77
206.0735	30
207.0804	237
207.1156	17
208.0887	216
209.097	164
210.1044	47
211.1083	30
215.0877	90
216.0949	51
217.1023	56
218.0747	51
219.0805	69
219.1166	30
220.0919	21
221.0976	121
222.1061	82
223.112	112
226.0759	17
227.0864	25
228.0953	30
229.1021	60
231.0811	77
231.1187	17
232.0891	25
233.0965	51
234.1029	34
235.1128	47
236.1214	43
237.1303	21
241.102	25
242.1073	21
243.1122	30
244.0889	34
245.0949	51
246.1063	21
247.1115	38
249.1291	34
251.1446	69
258.1054	43
259.1114	60
