Mass spectrum: Deethylatrazine; LC-ESI-QTOF; MS2; 80 V
Name: Deethylatrazine
Class: Transformation_product; Herbicide; Metabolite; Transformation_product-Metabolite
Formula: C6H10ClN5
Exact mass: 187.0625
SMILES: CC(C)NC1=NC(=NC(=N1)N)Cl
InChI: InChI=1S/C6H10ClN5/c1-3(2)9-6-11-4(7)10-5(8)12-6/h3H,1-2H3,(H3,8,9,10,11,12)
Instrument: TripleTOF 6600 SCIEX
Instrument type: LC-ESI-QTOF
Ms type: MS2
Ion mode: POSITIVE
Collision energy: 80
Fragmentation mode: CID
Ionization: ESI
Column name: Zorbax Eclipse Plus C18 2.1 mm x 150 mm, 3.5 um, Agilent
Retention time: 6.911 min
Precursor m/z: 188.0698
Precursor type: [M+H]+
m/z	relative intensity
37.0075	26
38.003	18
38.015	29
39.023	87
41.0137	71
41.0386	63
42.021	55
43.0293	999
53.0134	18
61.9792	977
68.0244	495
79.0059	23
86.9733	13
