Mass spectrum: Mirtazapine; LC-ESI-QTOF; MS2; 80 V
Name: Mirtazapine
Class: Pharmaceutical
Formula: C17H19N3
Exact mass: 265.1579
SMILES: CN1CCN2C(C1)C3=CC=CC=C3CC4=C2N=CC=C4
InChI: InChI=1S/C17H19N3/c1-19-9-10-20-16(12-19)15-7-3-2-5-13(15)11-14-6-4-8-18-17(14)20/h2-8,16H,9-12H2,1H3
Instrument: TripleTOF 5600 SCIEX
Instrument type: LC-ESI-QTOF
Ms type: MS2
Ion mode: POSITIVE
Collision energy: 80
Fragmentation mode: CID
Ionization: ESI
Column name: Zorbax Eclipse Plus C18 2.1 mm x 150 mm, 3.5 um, Agilent
Retention time: 5.459 min
Precursor m/z: 266.1652
Precursor type: [M+H]+
m/z	relative intensity
42.0469	35
44.0625	24
56.0572	16
58.0742	35
64.0429	10
65.0453	323
66.0396	12
67.0507	12
70.0717	26
72.0857	95
75.0267	16
76.0345	10
77.0436	159
78.0385	111
79.0482	16
79.0617	18
80.0536	26
89.0418	153
90.0392	87
91.0566	149
92.0519	178
93.0593	20
101.0398	35
102.0475	45
103.0548	82
104.0504	29
105.0718	16
113.0381	35
114.0465	31
115.0548	400
116.0504	101
117.0519	134
118.0534	45
119.0595	16
125.0391	33
126.0475	76
127.0539	155
128.0561	132
129.0574	35
130.066	163
131.0645	53
138.0422	16
139.0552	395
140.0552	294
141.0685	105
142.0649	16
143.0684	35
144.0823	39
149.0425	24
150.0465	157
151.0546	410
152.0616	464
153.0609	217
154.0647	68
155.0622	16
163.0564	47
164.0557	99
165.0644	155
166.0656	721
167.0732	849
168.0763	277
176.045	12
176.0584	24
177.0571	186
178.0639	186
179.0678	261
180.0793	207
181.0786	29
189.0686	24
190.0642	126
191.069	118
192.0684	584
193.0768	947
194.0841	999
195.091	72
202.0635	12
203.0709	12
204.0768	24
205.0753	89
206.0843	37
207.095	35
216.0825	20
217.0766	39
218.0821	134
219.0975	35
