Mass spectrum: Oxycodone; LC-ESI-QTOF; MS2; 50 V
Name: Oxycodone
Class: Pharmaceutical
Formula: C18H21NO4
Exact mass: 315.1471
SMILES: CN1CCC23C4C(=O)CCC2(C1CC5=C3C(=C(C=C5)OC)O4)O
InChI: InChI=1S/C18H21NO4/c1-19-8-7-17-14-10-3-4-12(22-2)15(14)23-16(17)11(20)5-6-18(17,21)13(19)9-10/h3-4,13,16,21H,5-9H2,1-2H3
Instrument: TripleTOF 6600 SCIEX
Instrument type: LC-ESI-QTOF
Ms type: MS2
Ion mode: POSITIVE
Collision energy: 50
Fragmentation mode: CID
Ionization: ESI
Column name: Zorbax Eclipse Plus C18 2.1 mm x 150 mm, 3.5 um, Agilent
Retention time: 5.206 min
Precursor m/z: 316.1543
Precursor type: [M+H]+
m/z	relative intensity
42.0331	19
44.0487	14
58.0643	17
70.0638	37
91.0534	18
94.0635	52
103.0524	19
105.0675	10
108.0796	19
115.054	63
127.0524	10
128.0602	27
129.0674	41
131.0484	51
131.0842	27
132.0557	33
132.0781	43
133.0617	14
133.0853	11
137.058	10
141.0682	72
143.0483	14
144.0553	36
145.0633	18
146.0335	14
152.0603	41
153.0689	146
154.0768	19
155.0481	15
155.0831	40
156.0545	12
157.0649	24
158.0709	20
159.0423	40
159.0786	93
160.0487	59
160.0738	29
161.0589	44
161.0815	22
165.0679	63
166.0741	20
167.0829	52
168.0554	17
168.0784	36
169.0645	58
169.0852	31
170.0719	32
170.0947	32
171.0415	11
171.078	57
172.0516	48
172.0812	30
173.085	20
174.0654	22
174.09	37
175.074	319
177.0667	11
178.0787	24
179.0841	44
180.0793	18
181.0645	176
181.0838	123
182.0715	40
182.0945	42
183.0416	19
183.0763	66
184.0494	47
184.0756	18
184.1089	45
185.058	34
185.0939	22
186.0658	22
187.075	152
188.0707	17
189.0945	12
191.0873	11
193.0628	16
194.0712	15
194.0942	34
195.079	68
195.1034	14
196.0818	54
196.1112	46
197.0597	41
197.0829	97
198.068	67
198.0894	158
199.0735	228
200.0778	32
201.0898	20
202.0855	66
203.092	13
207.0779	27
208.0794	27
208.1096	10
209.0574	14
209.0834	43
210.0696	55
210.088	87
211.0721	61
211.0978	47
212.1055	988
213.089	104
213.1111	241
214.086	25
215.1032	57
220.1091	19
221.0816	64
222.0899	45
223.0757	23
223.0989	30
224.0766	32
224.1059	136
225.0863	136
225.1124	30
226.0858	502
227.0973	94
227.1189	15
228.1018	76
228.1345	41
234.0885	16
235.0733	10
236.0753	11
236.106	18
237.0849	12
237.1122	11
238.0848	24
238.1224	49
239.0971	86
240.1015	366
241.1085	999
242.1174	78
248.1067	27
249.1131	12
250.0868	21
251.0968	11
252.0996	28
254.0795	26
254.1165	134
255.0909	37
255.1245	19
256.1317	234
264.101	42
265.1088	44
266.1159	88
268.0952	57
269.1033	22
270.114	30
270.1453	14
280.1336	15
282.1121	63
283.1207	29
298.1424	98
