Mass spectrum: Naproxen; LC-ESI-QTOF; MS2; 40 V
Name: Naproxen
Class: Pharmaceutical
Formula: C14H14O3
Exact mass: 230.0943
SMILES: COc1ccc2cc(ccc2c1)C(C)C(O)=O
InChI: InChI=1S/C14H14O3/c1-9(14(15)16)10-3-4-12-8-13(17-2)6-5-11(12)7-10/h3-9H,1-2H3,(H,15,16)
Instrument: TripleTOF 5600 SCIEX
Instrument type: LC-ESI-QTOF
Ms type: MS2
Ion mode: POSITIVE
Collision energy: 40
Fragmentation mode: CID
Ionization: ESI
Column name: Zorbax Eclipse Plus C18 2.1 mm x 150 mm, 3.5 um, Agilent
Retention time: 10.907 min
Precursor m/z: 231.1016
Precursor type: [M+H]+
m/z	relative intensity
77.0409	45
115.0534	423
127.0532	67
128.062	130
129.0692	70
140.999	21
141.0692	497
142.0774	215
143.0476	28
144.055	21
151.0542	60
152.0609	289
153.0694	645
154.0765	413
155.0502	60
155.085	187
156.0544	28
158.0725	130
168.0618	17
169.0645	338
170.0725	974
184.0866	17
185.0954	999
