Mass spectrum: 1-(2,6-Dichlorophenyl)-2-indolinone; LC-ESI-QTOF; MS2; 90 V
Name: 1-(2,6-Dichlorophenyl)-2-indolinone
Class: Pharmaceutical; Transformation_product; Diclofenac-lactam; Transformation_product-Metabolite
Formula: C14H9Cl2NO
Exact mass: 277.0061
SMILES: C1C2=CC=CC=C2N(C1=O)C3=C(C=CC=C3Cl)Cl
InChI: InChI=1S/C14H9Cl2NO/c15-10-5-3-6-11(16)14(10)17-12-7-2-1-4-9(12)8-13(17)18/h1-7H,8H2
Instrument: TripleTOF 5600 SCIEX
Instrument type: LC-ESI-QTOF
Ms type: MS2
Ion mode: POSITIVE
Collision energy: 90
Fragmentation mode: CID
Ionization: ESI
Column name: Zorbax Eclipse Plus C18 2.1 mm x 150 mm, 3.5 um, Agilent
Retention time: 12.191 min
Precursor m/z: 278.0134
Precursor type: [M+H]+
m/z	relative intensity
50.0242	43
63.0308	30
72.9918	16
73.0119	21
74.0206	303
75.0283	108
76.0371	23
77.0442	833
78.0414	14
78.0527	16
79.0594	130
84.9882	14
89.0427	85
90.0481	21
98.018	18
99.0223	74
100.0216	108
101.0411	70
102.0491	39
104.0517	32
105.0394	14
108.9869	232
109.9927	16
113.0405	23
115.056	14
124.0335	14
125.0401	145
126.0482	128
127.0553	143
128.0519	90
129.0581	21
139.0579	21
140.0515	49
144.9631	23
149.0396	61
150.0471	653
151.0554	999
152.0622	646
153.0578	163
154.0655	19
163.054	19
164.0507	30
165.0602	10
175.0441	34
176.049	92
177.0582	501
178.0656	931
179.0737	415
180.0815	78
207.0655	19
213.0305	14
214.0409	45
