Mass spectrum: Baclofen; LC-ESI-QTOF; MS2; 40 V
Name: Baclofen
Class: Pharmaceutical
Formula: C10H12ClNO2
Exact mass: 213.0557
SMILES: NCC(CC(O)=O)c1ccc(Cl)cc1
InChI: InChI=1S/C10H12ClNO2/c11-9-3-1-7(2-4-9)8(6-12)5-10(13)14/h1-4,8H,5-6,12H2,(H,13,14)
Instrument: TripleTOF 5600 SCIEX
Instrument type: LC-ESI-QTOF
Ms type: MS2
Ion mode: POSITIVE
Collision energy: 40
Fragmentation mode: CID
Ionization: ESI
Column name: Zorbax Eclipse Plus C18 2.1 mm x 150 mm, 3.5 um, Agilent
Retention time: 5.336 min
Precursor m/z: 214.0629
Precursor type: [M+H]+
m/z	relative intensity
77.0413	312
89.0391	20
91.056	43
101.0386	15
102.0474	23
115.0544	759
116.0624	999
118.0653	59
119.0723	84
125.0151	132
126.0457	11
137.0137	53
143.0523	17
143.0723	79
144.0569	365
149.014	24
151.0308	513
154.042	20
155.025	15
178.0409	16
