Mass spectrum: Syringic acid; LC-ESI-QTOF; MS2; 30 V
Name: Syringic acid
Class: Food_additive
Formula: C9H10O5
Exact mass: 198.0528
SMILES: COC1=CC(=CC(=C1O)OC)C(=O)O
InChI: InChI=1S/C9H10O5/c1-13-6-3-5(9(11)12)4-7(14-2)8(6)10/h3-4,10H,1-2H3,(H,11,12)
Instrument: TripleTOF 5600 SCIEX
Instrument type: LC-ESI-QTOF
Ms type: MS2
Ion mode: POSITIVE
Collision energy: 30
Fragmentation mode: CID
Ionization: ESI
Column name: Zorbax Eclipse Plus C18 2.1 mm x 150 mm, 3.5 um, Agilent
Retention time: 5.696 min
Precursor m/z: 199.0601
Precursor type: [M+H]+
m/z	relative intensity
65.0436	61
77.0443	265
93.039	25
95.0515	193
97.0313	76
107.0167	30
110.0416	30
111.0456	25
116.9767	96
121.0289	56
123.0448	45
125.0238	433
140.0472	999
181.0483	76
