Mass spectrum: Losartan; LC-ESI-QTOF; MS2; 60 V
Name: Losartan
Class: Pharmaceutical
Formula: C22H23ClN6O
Exact mass: 422.1622
SMILES: CCCCc1nc(c(n1Cc2ccc(cc2)c3ccccc3c4n[nH]nn4)CO)Cl
InChI: InChI=1S/C22H23ClN6O/c1-2-3-8-20-24-21(23)19(14-30)29(20)13-15-9-11-16(12-10-15)17-6-4-5-7-18(17)22-25-27-28-26-22/h4-7,9-12,30H,2-3,8,13-14H2,1H3,(H,25,26,27,28)
Instrument: TripleTOF 5600 SCIEX
Instrument type: LC-ESI-QTOF
Ms type: MS2
Ion mode: POSITIVE
Collision energy: 60
Fragmentation mode: CID
Ionization: ESI
Column name: Zorbax Eclipse Plus C18 2.1 mm x 150 mm, 3.5 um, Agilent
Retention time: 9.819 min
Precursor m/z: 423.1695
Precursor type: [M+H]+
m/z	relative intensity
77.0416	57
79.056	19
80.0514	29
108.0812	15
115.0532	11
127.0544	11
129.0206	25
129.0455	26
135.0921	15
139.0545	13
140.0495	50
142.0297	134
151.0549	174
152.0625	243
153.0699	215
154.0661	18
163.0541	71
164.0597	43
165.07	226
166.069	60
167.0725	65
168.0692	17
171.0684	108
177.0584	49
178.0686	258
179.0732	487
180.0812	999
181.0749	23
189.0577	24
190.0658	501
191.0729	107
192.0722	581
205.0767	900
206.0844	672
207.0921	665
214.0648	65
215.0649	12
216.0812	26
231.0918	12
240.0694	11
241.0763	61
242.0849	18
243.0887	13
258.1031	20
281.0948	23
