Mass spectrum: Dimethenamid-OA; LC-ESI-QTOF; MS2; 40 V
Name: Dimethenamid-OA
Class: Transformation_product; Herbicide
Formula: C12H17NO4S
Exact mass: 271.0878
SMILES: Cc1csc(c1N(C(C)COC)C(=O)C(=O)O)C
InChI: InChI=1S/C12H17NO4S/c1-7-6-18-9(3)10(7)13(8(2)5-17-4)11(14)12(15)16/h6,8H,5H2,1-4H3,(H,15,16)
Instrument: TripleTOF 6600 SCIEX
Instrument type: LC-ESI-QTOF
Ms type: MS2
Ion mode: POSITIVE
Collision energy: 40
Fragmentation mode: CID
Ionization: ESI
Column name: Zorbax Eclipse Plus C18 2.1 mm x 150 mm, 3.5 um, Agilent
Retention time: 8.208 min
Precursor m/z: 272.0951
Precursor type: [M+H]+
m/z	relative intensity
41.0391	60
45.0341	103
58.9945	54
59.0496	42
65.0389	36
67.0545	54
70.9945	36
73.0647	152
77.0387	103
79.054	79
80.0513	24
92.0482	42
93.0581	79
94.065	127
95.0728	97
97.0096	60
99.0259	85
104.0493	73
105.0572	152
108.0804	67
111.0263	590
112.0323	85
113.0298	30
113.0423	91
117.0652	36
118.0666	30
120.0451	79
120.0809	85
121.0518	30
123.0141	67
125.0425	85
126.0372	999
127.022	54
129.0368	42
132.0801	73
133.0895	91
134.0953	73
135.103	91
136.0204	73
138.0374	420
139.0097	24
140.0549	30
151.0439	36
151.0552	54
152.0163	79
152.0517	146
153.0256	36
153.0623	54
154.0316	249
166.0671	79
167.0742	48
168.0844	194
194.0617	24
196.0774	24
212.0746	30
240.0687	121
