Mass spectrum: 6alpha-Methylprednisolone; LC-ESI-QTOF; MS2; 20 V
Name: 6alpha-Methylprednisolone
Class: Pharmaceutical
Formula: C22H30O5
Exact mass: 374.2093
SMILES: C[C@H]1C[C@H]2[C@@H]3CC[C@](O)(C(=O)CO)[C@@]3(C)C[C@H](O)[C@@H]2[C@@]4(C)C=CC(=O)C=C14
InChI: InChI=1S/C22H30O5/c1-12-8-14-15-5-7-22(27,18(26)11-23)21(15,3)10-17(25)19(14)20(2)6-4-13(24)9-16(12)20/h4,6,9,12,14-15,17,19,23,25,27H,5,7-8,10-11H2,1-3H3/t12-,14-,15-,17-,19+,20-,21-,22-/m0/s1
Instrument: TripleTOF 5600 SCIEX
Instrument type: LC-ESI-QTOF
Ms type: MS2
Ion mode: POSITIVE
Collision energy: 20
Fragmentation mode: CID
Ionization: ESI
Column name: Zorbax Eclipse Plus C18 2.1 mm x 150 mm, 3.5 um, Agilent
Retention time: 9.016 min
Precursor m/z: 375.2166
Precursor type: [M+H]+
m/z	relative intensity
121.0626	11
135.0799	85
147.0791	13
149.095	12
159.0799	10
161.0953	156
165.0909	21
173.0948	14
175.1106	15
177.0898	10
185.0942	95
187.1112	77
199.1117	11
211.111	36
213.1258	32
225.1271	16
231.1375	21
237.126	36
239.1425	23
249.1257	19
251.1431	61
253.1571	177
255.1735	19
261.1265	11
263.1413	20
265.1587	17
267.1371	18
275.1453	11
277.158	49
279.138	25
279.1735	128
280.1813	41
281.1889	47
288.1532	11
291.1738	37
293.1494	26
293.1896	85
295.1683	14
297.1485	20
297.1819	23
299.1987	11
303.1728	156
309.1829	49
311.203	24
315.1604	23
321.1842	311
327.1956	14
339.1958	425
357.2067	999
375.2166	113
