Mass spectrum: Abacavir carboxylic acid; LC-ESI-QTOF; MS2; 70 V
Name: Abacavir carboxylic acid
Class: Pharmaceutical; Metabolite; Transformation_product
Formula: C14H16N6O2
Exact mass: 300.1335
SMILES: C1CC1NC2=NC(=NC3=C2N=CN3C4CC(C=C4)C(=O)O)N
InChI: InChI=1S/C14H16N6O2/c15-14-18-11(17-8-2-3-8)10-12(19-14)20(6-16-10)9-4-1-7(5-9)13(21)22/h1,4,6-9H,2-3,5H2,(H,21,22)(H3,15,17,18,19)
Instrument: TripleTOF 5600 SCIEX
Instrument type: LC-ESI-QTOF
Ms type: MS2
Ion mode: POSITIVE
Collision energy: 70
Fragmentation mode: CID
Ionization: ESI
Column name: Zorbax Eclipse Plus C18 2.1 mm x 150 mm, 3.5 um, Agilent
Retention time: 5.194 min
Precursor m/z: 301.1408
Precursor type: [M+H]+
m/z	relative intensity
43.0459	17
55.033	42
55.0584	32
56.0546	14
58.0713	72
65.0182	14
65.0424	276
66.0381	11
67.0316	17
67.058	245
68.0534	32
78.0362	31
79.0309	11
80.0261	116
81.033	28
81.0481	17
82.0419	83
83.0518	89
92.0253	128
93.0393	92
94.0405	31
95.0611	43
105.0438	73
106.0395	32
107.0351	495
108.0433	342
109.0507	365
111.0425	9
118.0402	15
119.0344	83
120.0554	59
121.0511	22
122.0709	26
123.0534	32
130.0405	14
132.0416	12
132.0538	46
133.038	141
133.0638	12
134.0459	999
135.0536	29
136.0615	22
147.0658	38
148.0608	25
149.0796	41
150.0642	325
151.0752	14
157.0549	14
162.0756	11
163.0737	12
173.0704	14
174.0766	77
175.0713	126
191.1027	17
