Mass spectrum: Fingolimod; LC-ESI-QTOF; MS2; 150 V
Name: Fingolimod
Class: Pharmaceutical
Formula: C19H33NO2
Exact mass: 307.2511
SMILES: CCCCCCCCC1=CC=C(C=C1)CCC(CO)(CO)N
InChI: InChI=1S/C19H33NO2/c1-2-3-4-5-6-7-8-17-9-11-18(12-10-17)13-14-19(20,15-21)16-22/h9-12,21-22H,2-8,13-16,20H2,1H3
Instrument: TripleTOF 6600 SCIEX
Instrument type: LC-ESI-QTOF
Ms type: MS2
Ion mode: POSITIVE
Collision energy: 150
Fragmentation mode: CID
Ionization: ESI
Column name: Zorbax Eclipse Plus C18 2.1 mm x 150 mm, 3.5 um, Agilent
Retention time: 10.17 min
Precursor m/z: 308.2584
Precursor type: [M+H]+
m/z	relative intensity
37.0069	281
38.0145	256
39.0222	973
41.038	204
49.0071	128
50.0144	640
51.0222	999
52.03	128
61.0068	128
62.0132	307
63.0218	384
65.0369	486
74.0145	153
75.0212	128
77.0368	666
78.0449	128
89.038	230
91.0536	153
102.0453	204
115.0522	358
126.045	179
128.0636	128
