Mass spectrum: Ethyl 4-dimethylaminobenzoate; LC-ESI-QTOF; MS2; 60 V
Name: Ethyl 4-dimethylaminobenzoate
Formula: C11H15NO2
Exact mass: 193.1103
SMILES: O=C(OCC)C1=CC=C(C=C1)N(C)C
InChI: InChI=1S/C11H15NO2/c1-4-14-11(13)9-5-7-10(8-6-9)12(2)3/h5-8H,4H2,1-3H3
Instrument: TripleTOF X500R SCIEX
Instrument type: LC-ESI-QTOF
Ms type: MS2
Ion mode: POSITIVE
Collision energy: 60
Fragmentation mode: CID
Ionization: ESI
Column name: Zorbax Eclipse Plus C18 2.1 mm x 150 mm, 3.5 um, Agilent
Retention time: 11.941 min
Precursor m/z: 194.1176
Precursor type: [M+H]+
m/z	relative intensity
39.0229	66
51.023	39
53.0383	10
65.0386	346
66.0463	10
67.0419	11
77.0384	614
78.0348	46
78.0459	66
79.0542	493
80.0495	27
91.0494	34
93.0335	13
103.0209	10
104.0497	116
105.0572	44
106.0648	710
107.0708	11
120.0811	25
121.0289	46
132.0448	51
134.0595	903
150.0543	999
151.0626	54
