Mass spectrum: Diethylamino hydroxybenzoyl hexyl benzoate; LC-ESI-QTOF; MS2; 150 V
Name: Diethylamino hydroxybenzoyl hexyl benzoate
Formula: C24H31NO4
Exact mass: 397.2253
SMILES: CCCCCCOC(=O)C1=CC=CC=C1C(=O)C2=C(C=C(C=C2)N(CC)CC)O
InChI: InChI=1S/C24H31NO4/c1-4-7-8-11-16-29-24(28)20-13-10-9-12-19(20)23(27)21-15-14-18(17-22(21)26)25(5-2)6-3/h9-10,12-15,17,26H,4-8,11,16H2,1-3H3
Instrument: TripleTOF 6600 SCIEX
Instrument type: LC-ESI-QTOF
Ms type: MS2
Ion mode: POSITIVE
Collision energy: 150
Fragmentation mode: CID
Ionization: ESI
Column name: Zorbax Eclipse Plus C18 2.1 mm x 150 mm, 3.5 um, Agilent
Retention time: 17.769 min
Precursor m/z: 398.2326
Precursor type: [M+H]+
m/z	relative intensity
37.0073	41
38.0151	31
39.0232	303
41.0385	46
50.0153	45
51.0228	117
53.0383	51
61.0067	23
62.0146	58
63.0228	184
65.0385	193
68.0123	19
74.0149	75
75.0224	102
76.0303	61
77.0383	288
78.0465	24
80.0486	77
86.0148	67
87.0226	130
88.0302	51
89.0384	316
91.0534	18
92.0484	10
98.0143	53
99.022	59
101.0377	48
102.0455	91
113.0381	254
114.0455	48
115.0537	252
123.0224	23
125.038	29
126.0454	156
127.0534	167
128.0612	109
137.0382	147
138.0457	138
139.0541	999
140.0507	51
141.0706	10
149.0389	19
150.0462	170
151.0535	112
152.0613	133
153.0575	17
154.0656	16
155.0553	12
163.0528	33
164.055	34
165.0685	22
166.0648	28
168.0564	25
