Mass spectrum: Doxorubicin; LC-ESI-QTOF; MS2; 70 V
Name: Doxorubicin
Class: Pharmaceutical
Formula: C27H29NO11
Exact mass: 543.1741
SMILES: C[C@H]1[C@H]([C@H](C[C@@H](O1)O[C@H]2C[C@@](Cc3c2c(c4c(c3O)C(=O)c5cccc(c5C4=O)OC)O)(C(=O)CO)O)N)O
InChI: InChI=1S/C27H29NO11/c1-10-22(31)13(28)6-17(38-10)39-15-8-27(36,16(30)9-29)7-12-19(15)26(35)21-20(24(12)33)23(32)11-4-3-5-14(37-2)18(11)25(21)34/h3-5,10,13,15,17,22,29,31,33,35-36H,6-9,28H2,1-2H3/t10-,13-,15-,17-,22+,27-/m0/s1
Instrument: TripleTOF 5600 SCIEX
Instrument type: LC-ESI-QTOF
Ms type: MS2
Ion mode: POSITIVE
Collision energy: 70
Fragmentation mode: CID
Ionization: ESI
Column name: Zorbax Eclipse Plus C18 2.1 mm x 150 mm, 3.5 um, Agilent
Retention time: 7.064 min
Precursor m/z: 544.1813
Precursor type: [M+H]+
m/z	relative intensity
58.0709	21
69.0381	32
71.0546	21
72.0463	43
86.0613	167
113.0594	32
121.0653	48
130.085	48
135.0448	64
145.0276	27
217.0473	37
231.077	37
232.0497	21
234.0632	32
247.0736	48
259.0773	59
262.0581	54
273.0535	48
275.0674	48
278.0545	32
287.0683	86
289.0467	48
290.0585	75
303.0665	37
305.0695	27
305.0853	54
306.0513	513
307.0591	32
315.0671	43
318.0483	70
319.0601	32
320.0703	21
321.0741	216
323.0944	32
329.0455	64
333.0735	54
343.0455	32
345.0296	27
345.0623	21
346.046	999
361.0671	64
