Mass spectrum: Terbutylazine-2-hydroxy; LC-ESI-QTOF; MS2; 70 V
Name: Terbutylazine-2-hydroxy
Class: Herbicide; Transformation_product
Formula: C9H17N5O
Exact mass: 211.1433
SMILES: CCNC1=NC(=O)N=C(N1)NC(C)(C)C
InChI: InChI=1S/C9H17N5O/c1-5-10-6-11-7(13-8(15)12-6)14-9(2,3)4/h5H2,1-4H3,(H3,10,11,12,13,14,15)
Instrument: TripleTOF 5600 SCIEX
Instrument type: LC-ESI-QTOF
Ms type: MS2
Ion mode: NEGATIVE
Collision energy: 70
Fragmentation mode: CID
Ionization: ESI
Column name: Zorbax Eclipse Plus C18 2.1 mm x 150 mm, 3.5 um, Agilent
Retention time: 5.981 min
Precursor m/z: 210.136
Precursor type: [M-H]-
m/z	relative intensity
40.0082	86
40.0216	81
41.0173	754
42.0015	468
66.01	147
69.0458	239
81.0455	999
97.0766	219
