Mass spectrum: 2,6-Dimethylpyridine; LC-ESI-QTOF; MS2; 70 V
Name: 2,6-Dimethylpyridine
Formula: C7H9N
Exact mass: 107.0735
SMILES: CC1=NC(=CC=C1)C
InChI: InChI=1S/C7H9N/c1-6-4-3-5-7(2)8-6/h3-5H,1-2H3
Instrument: TripleTOF 6600 SCIEX
Instrument type: LC-ESI-QTOF
Ms type: MS2
Ion mode: POSITIVE
Collision energy: 70
Fragmentation mode: CID
Ionization: ESI
Column name: Zorbax Eclipse Plus C18 2.1 mm x 150 mm, 3.5 um, Agilent
Retention time: 2.395 min
Precursor m/z: 108.0808
Precursor type: [M+H]+
m/z	relative intensity
35.9991	41
37.0065	272
38.0144	355
39.0225	999
41.0376	33
42.0339	148
50.0148	247
51.0223	206
52.0176	66
62.014	49
63.0227	33
65.0385	132
77.0385	49
