Mass spectrum: Thiamine Disulfide; LC-ESI-QTOF; MS2; 80 V
Name: Thiamine Disulfide
Class: Pharmaceutical
Formula: C24H34N8O4S2
Exact mass: 562.2144
SMILES: CC1=NC=C(C(=N1)N)CN(C=O)C(=C(CCO)SSC(=C(C)N(CC2=CN=C(N=C2N)C)C=O)CCO)C
InChI: InChI=1S/C24H34N8O4S2/c1-15(31(13-35)11-19-9-27-17(3)29-23(19)25)21(5-7-33)37-38-22(6-8-34)16(2)32(14-36)12-20-10-28-18(4)30-24(20)26/h9-10,13-14,33-34H,5-8,11-12H2,1-4H3,(H2,25,27,29)(H2,26,28,30)
Instrument: TripleTOF 6600 SCIEX
Instrument type: LC-ESI-QTOF
Ms type: MS2
Ion mode: POSITIVE
Collision energy: 80
Fragmentation mode: CID
Ionization: ESI
Column name: Zorbax Eclipse Plus C18 2.1 mm x 150 mm, 3.5 um, Agilent
Retention time: 4.48 min
Precursor m/z: 563.2217
Precursor type: [M+H]+
m/z	relative intensity
42.0331	19
54.0329	34
55.0409	61
66.0325	31
69.0438	59
81.0438	125
82.0516	170
83.0593	32
85.0638	11
93.0436	32
96.0548	48
107.0593	74
108.0545	22
109.0623	12
110.0706	688
113.0287	12
114.0359	15
115.0192	14
122.0702	153
123.0785	999
124.0862	507
126.0361	24
134.0701	11
137.0813	74
139.0967	24
144.0468	141
145.0761	19
147.0779	11
149.0802	16
154.0418	12
160.0864	16
162.094	28
163.0956	13
173.0938	18
174.1019	20
176.1096	10
186.1014	21
189.1126	22
199.0987	10
204.1123	49
206.0752	12
221.1421	28
223.1005	13
232.0764	11
233.0854	29
253.1127	12
263.0972	34
