Mass spectrum: Oxazepam; LC-ESI-QTOF; MS2; 70 V
Name: Oxazepam
Class: Pharmaceutical
Formula: C15H11ClN2O2
Exact mass: 286.0509
SMILES: C1=CC=C(C=C1)C2=NC(C(=O)NC3=C2C=C(C=C3)Cl)O
InChI: InChI=1S/C15H11ClN2O2/c16-10-6-7-12-11(8-10)13(9-4-2-1-3-5-9)18-15(20)14(19)17-12/h1-8,15,20H,(H,17,19)
Instrument: TripleTOF 6600 SCIEX
Instrument type: LC-ESI-QTOF
Ms type: MS2
Ion mode: POSITIVE
Collision energy: 70
Fragmentation mode: CID
Ionization: ESI
Column name: Zorbax Eclipse Plus C18 2.1 mm x 150 mm, 3.5 um, Agilent
Retention time: 9.314 min
Precursor m/z: 287.0582
Precursor type: [M+H]+
m/z	relative intensity
50.0148	40
51.023	158
63.0229	30
65.0384	16
66.0462	42
72.9838	27
74.0149	26
75.0227	116
77.0387	999
84.9837	11
90.0336	80
91.0414	79
92.0489	19
93.0572	289
98.9998	107
100.0183	323
102.0339	14
104.0496	448
105.0446	27
108.9839	14
110.9993	203
117.0444	32
118.0524	221
123.9948	27
126.0103	37
127.0176	9
135.9947	141
138.0104	40
139.0052	65
150.0466	41
151.0064	25
151.0543	168
152.0134	19
152.0621	134
153.0226	25
153.0575	19
163.0057	184
164.0013	239
166.0645	28
167.0729	34
168.0692	30
176.0497	11
177.0577	88
178.065	126
179.0727	56
180.0823	15
192.0682	13
193.0762	81
194.084	175
195.092	92
204.0659	11
205.0762	168
214.0427	15
229.0531	72
239.037	26
241.0526	48
