Mass spectrum: Metachrome Yellow free acid; LC-ESI-QTOF; MS2; 140 V
Name: Metachrome Yellow free acid
Formula: C13H9N3O5
Exact mass: 287.0542
SMILES: C1=CC(=CC(=C1)[N+](=O)[O-])N=NC2=CC(=C(C=C2)O)C(=O)O
InChI: InChI=1S/C13H9N3O5/c17-12-5-4-9(7-11(12)13(18)19)15-14-8-2-1-3-10(6-8)16(20)21/h1-7,17H,(H,18,19)
Instrument: TripleTOF 6600 SCIEX
Instrument type: LC-ESI-QTOF
Ms type: MS2
Ion mode: POSITIVE
Collision energy: 140
Fragmentation mode: CID
Ionization: ESI
Column name: Zorbax Eclipse Plus C18 2.1 mm x 150 mm, 3.5 um, Agilent
Retention time: 11.919 min
Precursor m/z: 288.0615
Precursor type: [M+H]+
m/z	relative intensity
37.0066	116
38.0143	100
39.0227	90
49.0062	95
50.014	499
51.0103	26
51.0219	164
52.0174	201
53.0012	164
61.0062	249
62.0143	605
63.0219	690
64.0177	26
73.0055	148
74.0139	999
75.0215	239
76.0193	37
85.0035	21
86.0129	58
87.0228	42
88.0158	31
98.0144	37
