Mass spectrum: Diatrizoate; LC-ESI-QTOF; MS2; 140 V
Name: Diatrizoate
Class: Pharmaceutical
Formula: C11H9I3N2O4
Exact mass: 613.7697
SMILES: C/C(=N\c1c(c(c(c(c1I)C(=O)O)I)/N=C(/O)\C)I)/O
InChI: InChI=1S/C11H9I3N2O4/c1-3(17)15-9-6(12)5(11(19)20)7(13)10(8(9)14)16-4(2)18/h1-2H3,(H,15,17)(H,16,18)(H,19,20)
Instrument: TripleTOF 5600 SCIEX
Instrument type: LC-ESI-QTOF
Ms type: MS2
Ion mode: POSITIVE
Collision energy: 140
Fragmentation mode: CID
Ionization: ESI
Column name: Zorbax Eclipse Plus C18 2.1 mm x 150 mm, 3.5 um, Agilent
Retention time: 4.549 min
Precursor m/z: 614.7769
Precursor type: [M+H]+
m/z	relative intensity
78.0358	473
79.0446	315
90.0343	315
91.044	683
92.0512	315
104.0472	262
105.0193	262
105.0486	262
106.0306	262
107.0379	420
117.0451	368
118.0528	525
119.0592	262
120.0459	841
120.0688	262
132.0439	315
134.029	262
145.0398	578
146.0246	578
146.0497	525
147.0355	315
147.0566	315
148.0412	999
148.0636	368
159.0571	210
160.0399	210
165.0393	262
205.063	368
