Mass spectrum: Tetrabromobisphenol A; LC-ESI-QTOF; MS2; 110 V
Name: Tetrabromobisphenol A
Class: Industrial_process
Formula: C15H12Br4O2
Exact mass: 539.7571
SMILES: CC(C)(C1=CC(=C(C(=C1)Br)O)Br)C2=CC(=C(C(=C2)Br)O)Br
InChI: InChI=1S/C15H12Br4O2/c1-15(2,7-3-9(16)13(20)10(17)4-7)8-5-11(18)14(21)12(19)6-8/h3-6,20-21H,1-2H3
Instrument: TripleTOF 5600 SCIEX
Instrument type: LC-ESI-QTOF
Ms type: MS2
Ion mode: NEGATIVE
Collision energy: 110
Fragmentation mode: CID
Ionization: ESI
Column name: Zorbax Eclipse Plus C18 2.1 mm x 150 mm, 3.5 um, Agilent
Retention time: 14.636 min
Precursor m/z: 538.7498
Precursor type: [M-H]-
m/z	relative intensity
78.918	999
