Mass spectrum: Temazepam; LC-ESI-QTOF; MS2; 80 V
Name: Temazepam
Class: Pharmaceutical
Formula: C16H13ClN2O2
Exact mass: 300.0666
SMILES: CN1C2=C(C=C(C=C2)Cl)C(=NC(C1=O)O)C3=CC=CC=C3
InChI: InChI=1S/C16H13ClN2O2/c1-19-13-8-7-11(17)9-12(13)14(18-15(20)16(19)21)10-5-3-2-4-6-10/h2-9,15,20H,1H3
Instrument: TripleTOF 6600 SCIEX
Instrument type: LC-ESI-QTOF
Ms type: MS2
Ion mode: POSITIVE
Collision energy: 80
Fragmentation mode: CID
Ionization: ESI
Column name: Zorbax Eclipse Plus C18 2.1 mm x 150 mm, 3.5 um, Agilent
Retention time: 10.497 min
Precursor m/z: 301.0738
Precursor type: [M+H]+
m/z	relative intensity
39.0221	40
50.0139	22
51.0214	136
61.0059	26
61.9778	10
62.0135	45
63.0212	187
64.0287	13
65.0367	63
66.0455	22
72.9821	121
73.0057	14
74.0133	69
74.9996	13
75.0213	204
77.037	563
84.9822	22
88.0279	22
89.0366	904
90.0445	318
91.0519	60
92.0484	12
96.9826	20
98.9989	333
100.0162	523
101.0366	11
102.0327	30
104.047	123
105.0429	10
106.0624	55
108.9808	22
110.997	173
114.0316	81
115.0466	125
116.0346	10
116.0473	43
117.0554	114
122.9979	204
123.9931	111
125.0125	142
125.0348	33
126.0441	30
127.0172	75
127.0515	35
128.0592	31
132.0683	15
135.9933	175
138.0083	16
139.0036	27
139.0523	93
140.0495	35
142.0515	71
149.0362	77
150.0099	95
150.044	272
151.0037	43
151.0525	826
152.019	21
152.0594	327
153.0609	66
163.0525	101
164.0003	149
164.0599	179
165.0687	999
166.0639	183
167.0715	68
168.0689	24
175.0406	43
176.0481	418
177.0222	88
177.0559	907
178.0634	318
179.0687	152
180.0794	214
185.0138	25
186.0214	10
190.064	104
191.0719	147
192.0784	195
193.0796	262
194.0832	155
199.0304	14
201.0285	27
202.051	100
203.0598	177
204.0649	235
205.0746	410
206.0613	18
211.0193	17
212.0279	25
213.0301	13
214.0391	42
218.0843	38
219.0925	66
227.0397	25
228.0441	196
229.0515	25
239.0371	861
243.0676	10
253.0533	20
255.0688	24
