Mass spectrum: Dexamethasone; LC-ESI-QTOF; MS2; 90 V
Name: Dexamethasone
Class: Pharmaceutical
Formula: C22H29FO5
Exact mass: 392.1999
SMILES: C[C@@H]1C[C@H]2[C@@H]3CCC4=CC(=O)C=C[C@@]4([C@]3([C@H](C[C@@]2([C@]1(C(=O)CO)O)C)O)F)C
InChI: InChI=1S/C22H29FO5/c1-12-8-16-15-5-4-13-9-14(25)6-7-19(13,2)21(15,23)17(26)10-20(16,3)22(12,28)18(27)11-24/h6-7,9,12,15-17,24,26,28H,4-5,8,10-11H2,1-3H3/t12-,15+,16+,17+,19+,20+,21+,22+/m1/s1
Instrument: TripleTOF 5600 SCIEX
Instrument type: LC-ESI-QTOF
Ms type: MS2
Ion mode: POSITIVE
Collision energy: 90
Fragmentation mode: CID
Ionization: ESI
Column name: Zorbax Eclipse Plus C18 2.1 mm x 150 mm, 3.5 um, Agilent
Retention time: 9.089 min
Precursor m/z: 393.2072
Precursor type: [M+H]+
m/z	relative intensity
43.0295	59
65.0461	99
67.0591	75
69.0391	16
69.0762	13
77.044	684
78.0519	24
79.0586	193
81.0747	21
83.0478	10
91.0586	999
92.0669	16
93.0744	96
95.0906	34
102.0494	37
103.058	185
104.066	56
105.035	16
105.073	273
107.0515	96
107.0887	59
109.0482	16
109.1044	13
115.0572	692
116.0639	134
117.0721	193
119.0494	13
119.0882	147
121.0673	416
123.0811	16
125.0619	10
125.0802	10
126.0482	34
127.0561	177
128.0637	773
129.0716	225
130.0781	40
131.0508	193
131.0872	51
132.0581	193
133.0673	21
133.1028	13
135.0824	32
139.0553	48
140.0646	21
141.0711	341
142.078	102
143.086	56
144.0566	128
145.0663	115
145.1033	18
146.0717	40
147.0799	110
151.0559	48
152.0641	257
153.07	214
154.0801	53
155.0496	29
155.0864	88
156.0573	18
156.0935	13
157.0668	102
158.0746	91
159.0575	10
159.0794	51
160.0723	10
161.0907	13
164.0643	24
165.0708	609
166.0779	99
167.0858	77
168.0573	53
168.0932	10
169.0639	83
169.104	13
170.0734	26
171.0796	75
176.0622	67
177.0711	75
178.0784	606
179.0857	392
180.0969	51
181.0647	222
181.0964	34
182.0736	61
183.0801	40
185.0943	10
188.0581	10
189.0698	426
190.0776	201
191.0871	249
192.0557	10
192.0917	72
193.0731	10
193.1019	69
194.0734	128
194.1119	16
195.0787	123
195.1145	18
196.0916	29
197.0924	21
201.0701	42
202.0789	346
203.0846	228
204.0949	53
205.0656	93
205.1006	88
206.0735	45
207.0802	136
207.1182	10
208.0883	83
209.0964	85
211.11	16
214.0817	29
215.0846	303
216.0933	85
217.1015	40
218.0721	99
219.0805	131
219.1175	21
220.083	21
221.097	102
222.1016	26
223.0779	10
223.1123	13
226.0739	67
227.087	67
228.0923	96
229.1028	99
230.1043	10
231.0815	145
231.1082	13
232.0897	67
233.0938	61
234.099	21
234.1108	16
235.1112	13
239.0854	48
240.0966	26
241.0968	21
242.0671	18
242.1081	16
243.0786	10
243.113	10
244.0903	32
245.0976	83
246.1024	32
247.0793	24
247.1145	34
256.0932	24
257.0974	13
258.1008	16
261.0874	13
261.1274	10
