Mass spectrum: N-Desmethyltramadol; LC-ESI-QTOF; MS2; 40 V
Name: N-Desmethyltramadol
Class: Transformation_product; Metabolite
Formula: C15H23NO2
Exact mass: 249.1729
SMILES: CNCC1CCCCC1(C2=CC(=CC=C2)OC)O
InChI: InChI=1S/C15H23NO2/c1-16-11-13-6-3-4-9-15(13,17)12-7-5-8-14(10-12)18-2/h5,7-8,10,13,16-17H,3-4,6,9,11H2,1-2H3
Instrument: TripleTOF 6600 SCIEX
Instrument type: LC-ESI-QTOF
Ms type: MS2
Ion mode: POSITIVE
Collision energy: 40
Fragmentation mode: CID
Ionization: ESI
Column name: Zorbax Eclipse Plus C18 2.1 mm x 150 mm, 3.5 um, Agilent
Retention time: 6.246 min
Precursor m/z: 250.1802
Precursor type: [M+H]+
m/z	relative intensity
42.0339	10
44.0501	999
121.0644	13
