Mass spectrum: N-Desmethyltramadol; LC-ESI-QTOF; MS2; 150 V
Name: N-Desmethyltramadol
Class: Transformation_product; Metabolite
Formula: C15H23NO2
Exact mass: 249.1729
SMILES: CNCC1CCCCC1(C2=CC(=CC=C2)OC)O
InChI: InChI=1S/C15H23NO2/c1-16-11-13-6-3-4-9-15(13,17)12-7-5-8-14(10-12)18-2/h5,7-8,10,13,16-17H,3-4,6,9,11H2,1-2H3
Instrument: TripleTOF 6600 SCIEX
Instrument type: LC-ESI-QTOF
Ms type: MS2
Ion mode: POSITIVE
Collision energy: 150
Fragmentation mode: CID
Ionization: ESI
Column name: Zorbax Eclipse Plus C18 2.1 mm x 150 mm, 3.5 um, Agilent
Retention time: 6.246 min
Precursor m/z: 250.1802
Precursor type: [M+H]+
m/z	relative intensity
30.034	57
35.9993	51
37.0075	228
38.0151	194
39.0235	456
41.026	45
42.0339	479
43.042	102
44.0497	999
49.0071	171
50.015	707
51.0229	559
52.0308	85
54.0348	28
59.9994	45
61.0075	239
62.0152	548
63.023	759
64.0307	34
65.0387	102
74.0152	114
75.0229	62
76.0301	34
77.039	125
78.0462	28
86.0134	28
89.0384	79
91.0532	28
115.0545	39
