Mass spectrum: Torasemide; LC-ESI-QTOF; MS2; 150 V
Name: Torasemide
Class: Pharmaceutical
Formula: C16H20N4O3S
Exact mass: 348.1256
SMILES: CC(C)NC(=O)N[S](=O)(=O)c1cnccc1Nc2cccc(C)c2
InChI: InChI=1S/C16H20N4O3S/c1-11(2)18-16(21)20-24(22,23)15-10-17-8-7-14(15)19-13-6-4-5-12(3)9-13/h4-11H,1-3H3,(H,17,19)(H2,18,20,21)
Instrument: TripleTOF 5600 SCIEX
Instrument type: LC-ESI-QTOF
Ms type: MS2
Ion mode: POSITIVE
Collision energy: 150
Fragmentation mode: CID
Ionization: ESI
Column name: Zorbax Eclipse Plus C18 2.1 mm x 150 mm, 3.5 um, Agilent
Retention time: 7.633 min
Precursor m/z: 349.1329
Precursor type: [M+H]+
m/z	relative intensity
51.0295	173
52.0376	14
64.0351	30
65.0423	60
67.0451	17
74.0181	206
75.0256	325
76.0216	28
76.0323	50
77.0415	560
78.0353	30
78.048	27
79.0445	19
85.0086	31
86.0163	134
87.0245	234
88.0321	469
89.0406	728
90.0358	35
90.0475	156
91.0471	43
98.0148	27
99.0104	14
99.0233	25
100.0193	22
100.0325	14
101.0388	230
102.0343	43
102.0462	134
103.0539	23
104.0489	19
112.0177	14
112.0312	14
113.0386	948
114.0422	657
115.0472	235
116.0491	40
117.0574	114
118.0505	23
125.038	50
126.046	214
127.054	413
128.0525	456
129.0446	54
130.0411	10
138.033	30
139.0415	106
140.0492	999
141.0558	144
142.0507	63
152.0492	88
153.0567	138
154.0444	10
154.0648	188
155.0593	51
165.0427	26
166.051	118
167.0587	85
168.0678	96
179.0594	137
180.0666	67
181.0756	222
