Mass spectrum: Hydrocodone; LC-ESI-QTOF; MS2; 90 V
Name: Hydrocodone
Class: Pharmaceutical
Formula: C18H21NO3
Exact mass: 299.1521
SMILES: CN1CCC23C4C1CC5=C2C(=C(C=C5)OC)OC3C(=O)CC4
InChI: InChI=1S/C18H21NO3/c1-19-8-7-18-11-4-5-13(20)17(18)22-16-14(21-2)6-3-10(15(16)18)9-12(11)19/h3,6,11-12,17H,4-5,7-9H2,1-2H3
Instrument: TripleTOF 6600 SCIEX
Instrument type: LC-ESI-QTOF
Ms type: MS2
Ion mode: POSITIVE
Collision energy: 90
Fragmentation mode: CID
Ionization: ESI
Column name: Zorbax Eclipse Plus C18 2.1 mm x 150 mm, 3.5 um, Agilent
Retention time: 5.331 min
Precursor m/z: 300.1594
Precursor type: [M+H]+
m/z	relative intensity
44.0487	23
51.0221	12
55.0174	17
63.0217	13
65.037	15
74.0135	11
75.0212	21
76.0287	14
77.0373	181
78.0452	58
88.0295	28
89.0372	59
91.0526	42
101.0364	45
102.045	194
103.0529	24
113.0369	77
114.0453	210
115.0533	792
116.0617	26
125.0372	10
126.0451	132
127.0532	626
128.0611	999
129.044	14
129.0682	36
131.0481	13
139.053	159
140.06	34
141.0313	19
141.0685	248
142.0392	30
142.0771	10
143.0473	25
144.0562	17
145.0634	10
150.0443	28
151.0532	139
152.0609	652
153.0691	182
154.0758	17
155.0488	300
156.0557	32
157.0622	12
163.0535	37
164.0606	45
165.0688	128
168.0554	23
169.0272	33
169.0628	45
170.0352	73
171.0803	11
178.0758	11
181.062	46
183.0433	132
184.0503	12
185.0576	25
189.0692	11
