Mass spectrum: Pencycuron; LC-ESI-QTOF; MS2; 90 V
Name: Pencycuron
Class: Fungicide
Formula: C19H21ClN2O
Exact mass: 328.1342
SMILES: C1CCC(C1)N(CC2=CC=C(C=C2)Cl)C(=O)NC3=CC=CC=C3
InChI: InChI=1S/C19H21ClN2O/c20-16-12-10-15(11-13-16)14-22(18-8-4-5-9-18)19(23)21-17-6-2-1-3-7-17/h1-3,6-7,10-13,18H,4-5,8-9,14H2,(H,21,23)
Instrument: TripleTOF 6600 SCIEX
Instrument type: LC-ESI-QTOF
Ms type: MS2
Ion mode: POSITIVE
Collision energy: 90
Fragmentation mode: CID
Ionization: ESI
Column name: Zorbax Eclipse Plus C18 2.1 mm x 150 mm, 3.5 um, Agilent
Retention time: 14.496 min
Precursor m/z: 329.1415
Precursor type: [M+H]+
m/z	relative intensity
39.023	31
51.0227	14
61.0058	26
62.015	47
63.0225	167
64.0301	11
65.0382	43
72.9837	133
74.999	28
77.0382	38
89.0381	999
90.0457	260
96.9831	11
98.9989	499
125.0145	642
