Mass spectrum: Cyclopropyltriphenylphosphonium; LC-ESI-QTOF; MS2; 90 V
Name: Cyclopropyltriphenylphosphonium
Formula: [C21H20P]+
Exact mass: 303.1297
SMILES: C1CC1[P+](C2=CC=CC=C2)(C3=CC=CC=C3)C4=CC=CC=C4
InChI: InChI=1S/C21H20P/c1-4-10-18(11-5-1)22(21-16-17-21,19-12-6-2-7-13-19)20-14-8-3-9-15-20/h1-15,21H,16-17H2/q+1
Instrument: TripleTOF 6600 SCIEX
Instrument type: LC-ESI-QTOF
Ms type: MS2
Ion mode: POSITIVE
Collision energy: 90
Fragmentation mode: CID
Ionization: ESI
Column name: Zorbax Eclipse Plus C18 2.1 mm x 150 mm, 3.5 um, Agilent
Retention time: 7.786 min
Precursor m/z: 303.1297
Precursor type: [M]+
m/z	relative intensity
65.0425	52
89.0408	50
91.0566	118
107.0072	912
115.057	448
133.0224	137
139.0567	156
151.0565	69
152.0649	854
157.0228	384
181.0222	91
183.038	999
