Mass spectrum: Meclofenamic acid; LC-ESI-QTOF; MS2; 50 V
Name: Meclofenamic acid
Class: Pharmaceutical
Formula: C14H11Cl2NO2
Exact mass: 295.0167
SMILES: Cc1ccc(c(c1Cl)Nc2ccccc2C(=O)O)Cl
InChI: InChI=1S/C14H11Cl2NO2/c1-8-6-7-10(15)13(12(8)16)17-11-5-3-2-4-9(11)14(18)19/h2-7,17H,1H3,(H,18,19)
Instrument: TripleTOF 5600 SCIEX
Instrument type: LC-ESI-QTOF
Ms type: MS2
Ion mode: POSITIVE
Collision energy: 50
Fragmentation mode: CID
Ionization: ESI
Column name: Zorbax Eclipse Plus C18 2.1 mm x 150 mm, 3.5 um, Agilent
Retention time: 13.705 min
Precursor m/z: 296.024
Precursor type: [M+H]+
m/z	relative intensity
151.0531	33
152.061	34
153.0632	18
177.055	12
178.064	154
179.0722	150
180.0804	434
206.0582	27
207.0673	99
208.075	347
213.0331	54
214.0414	242
215.0489	92
241.0281	11
242.0359	449
243.0443	999
278.014	18
