Mass spectrum: Valsartan; LC-ESI-QTOF; MS2; 110 V
Name: Valsartan
Class: Pharmaceutical
Formula: C24H29N5O3
Exact mass: 435.227
SMILES: CCCCC(=O)N(Cc1ccc(cc1)c2ccccc2c3n[nH]nn3)[C@@H](C(C)C)C(O)=O
InChI: InChI=1S/C24H29N5O3/c1-4-5-10-21(30)29(22(16(2)3)24(31)32)15-17-11-13-18(14-12-17)19-8-6-7-9-20(19)23-25-27-28-26-23/h6-9,11-14,16,22H,4-5,10,15H2,1-3H3,(H,31,32)(H,25,26,27,28)/t22-/m0/s1
Instrument: TripleTOF 5600 SCIEX
Instrument type: LC-ESI-QTOF
Ms type: MS2
Ion mode: POSITIVE
Collision energy: 110
Fragmentation mode: CID
Ionization: ESI
Column name: Zorbax Eclipse Plus C18 2.1 mm x 150 mm, 3.5 um, Agilent
Retention time: 11.443 min
Precursor m/z: 436.2343
Precursor type: [M+H]+
m/z	relative intensity
75.0248	10
77.0412	90
80.0523	10
89.0393	13
101.0396	18
102.0415	19
113.0377	35
114.0463	18
115.0545	63
125.0385	21
126.0457	41
127.055	130
128.0487	17
128.0612	35
137.0383	22
138.0468	40
139.0539	77
140.0496	143
141.0595	16
150.0464	89
151.0548	525
152.0627	999
153.0692	111
154.065	20
162.0467	33
163.0548	312
164.0537	253
165.0686	228
166.0657	39
168.0678	10
176.0621	199
177.0644	204
178.068	375
179.073	118
180.0808	69
188.0495	61
189.0573	78
190.0656	358
191.0608	51
192.0687	75
205.0764	352
206.0867	12
