Mass spectrum: Candesartan; LC-ESI-QTOF; MS2; 40 V
Name: Candesartan
Class: Pharmaceutical
Formula: C24H20N6O3
Exact mass: 440.1597
SMILES: CCOc1nc2cccc(C(O)=O)c2n1Cc3ccc(cc3)c4ccccc4c5n[nH]nn5
InChI: InChI=1S/C24H20N6O3/c1-2-33-24-25-20-9-5-8-19(23(31)32)21(20)30(24)14-15-10-12-16(13-11-15)17-6-3-4-7-18(17)22-26-28-29-27-22/h3-13H,2,14H2,1H3,(H,31,32)(H,26,27,28,29)
Instrument: TripleTOF 5600 SCIEX
Instrument type: LC-ESI-QTOF
Ms type: MS2
Ion mode: POSITIVE
Collision energy: 40
Fragmentation mode: CID
Ionization: ESI
Column name: Zorbax Eclipse Plus C18 2.1 mm x 150 mm, 3.5 um, Agilent
Retention time: 10.001 min
Precursor m/z: 441.167
Precursor type: [M+H]+
m/z	relative intensity
140.0487	15
152.0609	35
153.0696	60
161.0342	74
163.0537	12
165.0697	189
166.0728	14
167.0841	77
173.0338	28
177.0644	30
178.0767	197
179.08	52
180.0804	335
189.0653	127
190.0645	351
191.0737	119
192.0802	915
193.0881	194
194.0958	385
203.0741	11
205.075	82
206.084	253
207.0917	999
208.111	119
217.0886	31
218.0956	105
219.0919	64
220.0991	107
232.098	11
233.0738	12
233.1059	41
234.1144	147
235.1221	473
263.1288	151
308.1181	40
309.1026	142
310.1088	59
321.0998	21
322.097	26
324.1117	41
334.0984	20
335.0901	12
337.098	101
338.1051	227
339.1203	13
348.0995	18
349.1081	180
