Mass spectrum: Chloroquine; LC-ESI-QTOF; MS2; 80 V
Name: Chloroquine
Class: Pharmaceutical
Formula: C18H26ClN3
Exact mass: 319.1815
SMILES: CCN(CC)CCCC(C)NC1=C2C=CC(=CC2=NC=C1)Cl
InChI: InChI=1S/C18H26ClN3/c1-4-22(5-2)12-6-7-14(3)21-17-10-11-20-18-13-15(19)8-9-16(17)18/h8-11,13-14H,4-7,12H2,1-3H3,(H,20,21)
Instrument: TripleTOF 6600 SCIEX
Instrument type: LC-ESI-QTOF
Ms type: MS2
Ion mode: POSITIVE
Collision energy: 80
Fragmentation mode: CID
Ionization: ESI
Column name: Zorbax Eclipse Plus C18 2.1 mm x 150 mm, 3.5 um, Agilent
Retention time: 4.84 min
Precursor m/z: 320.1888
Precursor type: [M+H]+
m/z	relative intensity
30.0337	27
37.0065	19
39.0229	222
41.0384	370
42.033	23
44.0491	39
56.0499	59
58.0647	234
69.0701	31
70.0656	67
72.0809	19
74.0144	39
75.0222	79
77.0379	51
86.0958	525
89.0385	187
90.046	127
98.0959	250
99.0219	83
100.0179	39
100.0309	15
101.0378	99
102.0336	19
102.0457	75
103.0413	27
104.0494	71
110.9989	322
112.1123	19
115.042	19
115.0534	47
116.0488	366
117.0432	23
117.0566	664
118.0518	55
124.0068	27
126.0335	75
127.0406	250
128.0487	624
129.0567	788
134.9986	47
136.0068	119
138.0098	131
139.0048	47
142.0535	59
143.0598	577
144.0676	999
150.0098	23
151.0177	270
154.0386	39
154.0647	23
155.0602	501
156.0674	624
162.0098	358
163.0175	672
164.0005	23
164.025	95
167.0603	31
168.0677	183
169.0747	51
177.0337	99
178.0295	79
178.0413	35
179.0369	780
189.0201	51
190.0285	202
191.0365	374
203.0362	210
205.0519	147
