Mass spectrum: Lamotrigine; LC-ESI-QTOF; MS2; 40 V
Name: Lamotrigine
Class: Pharmaceutical
Formula: C9H7Cl2N5
Exact mass: 255.0079
SMILES: Nc1nnc(c(N)n1)c2cccc(Cl)c2Cl
InChI: InChI=1S/C9H7Cl2N5/c10-5-3-1-2-4(6(5)11)7-8(12)14-9(13)16-15-7/h1-3H,(H4,12,13,14,16)
Instrument: TripleTOF 5600 SCIEX
Instrument type: LC-ESI-QTOF
Ms type: MS2
Ion mode: POSITIVE
Collision energy: 40
Fragmentation mode: CID
Ionization: ESI
Column name: Zorbax Eclipse Plus C18 2.1 mm x 150 mm, 3.5 um, Agilent
Retention time: 6.024 min
Precursor m/z: 256.0151
Precursor type: [M+H]+
m/z	relative intensity
43.0377	162
44.0447	26
58.045	99
68.0279	17
108.9832	32
115.0279	15
122.9992	74
123.9938	29
131.0597	37
132.9601	31
135.9949	16
138.0094	29
139.0184	15
144.9604	171
146.9769	12
147.9925	11
150.0098	32
151.0173	138
152.0131	123
156.96	197
158.9754	283
159.9708	75
164.0009	20
165.0202	139
166.0285	261
170.9641	40
171.9709	243
172.9663	65
173.9867	77
176.0118	18
178.0169	58
179.0239	41
183.9712	185
184.9739	39
185.9858	59
186.9814	280
193.0375	24
194.0342	14
196.9654	27
210.9814	530
211.9764	127
213.9913	24
220.0374	103
229.0025	72
256.0145	999
