Mass spectrum: Tenamfetamine; LC-ESI-QTOF; MS2; 70 V
Name: Tenamfetamine
Class: Pharmaceutical
Formula: C10H13NO2
Exact mass: 179.0946
SMILES: CC(CC1=CC2=C(C=C1)OCO2)N
InChI: InChI=1S/C10H13NO2/c1-7(11)4-8-2-3-9-10(5-8)13-6-12-9/h2-3,5,7H,4,6,11H2,1H3
Instrument: TripleTOF 6600 SCIEX
Instrument type: LC-ESI-QTOF
Ms type: MS2
Ion mode: POSITIVE
Collision energy: 70
Fragmentation mode: CID
Ionization: ESI
Column name: Zorbax Eclipse Plus C18 2.1 mm x 150 mm, 3.5 um, Agilent
Retention time: 5.295 min
Precursor m/z: 180.1019
Precursor type: [M+H]+
m/z	relative intensity
37.0069	28
38.0146	30
39.0227	144
49.0067	21
50.0148	206
51.0226	768
52.025	27
53.0384	16
60.9857	36
61.0071	13
62.0146	25
63.0216	67
65.0376	102
74.0155	16
77.0378	999
78.043	61
79.0533	67
89.0375	114
91.053	36
102.0442	13
103.0526	49
105.0429	15
121.0271	27
147.0427	16
