Mass spectrum: Mandipropamid; LC-ESI-QTOF; MS2; 140 V
Name: Mandipropamid
Class: Fungicide
Formula: C23H22ClNO4
Exact mass: 411.1237
SMILES: COC1=C(C=CC(=C1)CCNC(=O)C(C2=CC=C(C=C2)Cl)OCC#C)OCC#C
InChI: InChI=1S/C23H22ClNO4/c1-4-14-28-20-11-6-17(16-21(20)27-3)12-13-25-23(26)22(29-15-5-2)18-7-9-19(24)10-8-18/h1-2,6-11,16,22H,12-15H2,3H3,(H,25,26)
Instrument: TripleTOF 6600 SCIEX
Instrument type: LC-ESI-QTOF
Ms type: MS2
Ion mode: POSITIVE
Collision energy: 140
Fragmentation mode: CID
Ionization: ESI
Column name: Zorbax Eclipse Plus C18 2.1 mm x 150 mm, 3.5 um, Agilent
Retention time: 12.239 min
Precursor m/z: 412.131
Precursor type: [M+H]+
m/z	relative intensity
37.007	38
38.0155	25
39.0228	136
48.9835	38
50.0151	71
51.0226	214
55.0168	25
61.0074	58
62.0153	110
63.0223	421
64.0308	45
65.0383	369
66.0459	45
72.9835	285
74.0144	64
74.9997	25
75.0228	64
76.0311	58
77.0382	849
78.0463	84
79.0536	64
89.038	999
90.0461	363
91.0538	402
92.0494	32
93.0569	38
94.0644	32
98.9986	304
102.0453	103
103.0526	97
104.0489	45
105.0437	38
107.0494	64
113.039	25
114.0455	25
115.0532	304
117.057	181
118.0636	45
125.0145	155
126.0455	58
127.0534	51
128.0617	123
139.0539	90
150.0451	64
151.0538	116
152.0614	298
153.0707	32
163.0536	142
164.0612	97
165.0691	220
176.062	136
177.069	51
178.078	64
187.055	58
188.0593	45
189.0698	110
200.0616	51
201.0697	51
202.0757	71
204.0788	32
213.0692	32
