Mass spectrum: Myclobutanil; LC-ESI-QTOF; MS2; 110 V
Name: Myclobutanil
Class: Fungicide
Formula: C15H17ClN4
Exact mass: 288.1142
SMILES: CCCCC(Cn1cncn1)(C#N)c2ccc(Cl)cc2
InChI: InChI=1S/C15H17ClN4/c1-2-3-8-15(9-17,10-20-12-18-11-19-20)13-4-6-14(16)7-5-13/h4-7,11-12H,2-3,8,10H2,1H3
Instrument: TripleTOF 6600 SCIEX
Instrument type: LC-ESI-QTOF
Ms type: MS2
Ion mode: POSITIVE
Collision energy: 110
Fragmentation mode: CID
Ionization: ESI
Column name: Zorbax Eclipse Plus C18 2.1 mm x 150 mm, 3.5 um, Agilent
Retention time: 12.025 min
Precursor m/z: 289.1215
Precursor type: [M+H]+
m/z	relative intensity
37.0076	39
38.015	35
39.0231	156
41.039	26
42.0216	32
43.0295	452
46.9686	42
48.9836	78
49.0073	32
50.0152	100
51.023	143
60.0003	19
61.0075	97
62.0154	260
63.0228	722
64.0309	74
65.0387	81
70.0402	527
72.9842	475
73.0067	16
74.0151	182
74.9993	48
75.0229	299
76.0306	42
77.0387	107
82.0393	29
87.0232	19
88.0199	16
88.0305	26
89.0388	999
90.0463	169
96.9851	29
98.9995	273
101.0376	35
102.0465	123
103.0542	16
114.0351	16
114.047	19
115.054	335
116.0566	26
122.9992	16
125.0151	78
127.0527	42
128.0621	58
129.0421	22
152.0627	13
