Mass spectrum: O-desmethyl-metoprolol; LC-ESI-QTOF; MS2; 130 V
Name: O-desmethyl-metoprolol
Class: Pharmaceutical; Metabolite; Transformation_product
Formula: C14H23NO3
Exact mass: 253.1678
SMILES: CC(C)NCC(O)COc1ccc(CCO)cc1
InChI: InChI=1S/C14H23NO3/c1-11(2)15-9-13(17)10-18-14-5-3-12(4-6-14)7-8-16/h3-6,11,13,15-17H,7-10H2,1-2H3
Instrument: TripleTOF 5600 SCIEX
Instrument type: LC-ESI-QTOF
Ms type: MS2
Ion mode: POSITIVE
Collision energy: 130
Fragmentation mode: CID
Ionization: ESI
Column name: Zorbax Eclipse Plus C18 2.1 mm x 150 mm, 3.5 um, Agilent
Retention time: 5.112 min
Precursor m/z: 254.1751
Precursor type: [M+H]+
m/z	relative intensity
44.0651	41
56.0535	104
58.0706	114
65.0432	499
74.0198	187
75.0267	93
76.0347	72
77.0408	999
78.0471	41
89.0396	280
91.0555	166
102.0464	72
115.0572	124
