Mass spectrum: Verapamil; LC-ESI-QTOF; MS2; 60 V
Name: Verapamil
Class: Pharmaceutical
Formula: C27H38N2O4
Exact mass: 454.2832
SMILES: CC(C)C(CCCN(C)CCc1ccc(c(c1)OC)OC)(C#N)c2ccc(c(c2)OC)OC
InChI: InChI=1S/C27H38N2O4/c1-20(2)27(19-28,22-10-12-24(31-5)26(18-22)33-7)14-8-15-29(3)16-13-21-9-11-23(30-4)25(17-21)32-6/h9-12,17-18,20H,8,13-16H2,1-7H3
Instrument: TripleTOF 5600 SCIEX
Instrument type: LC-ESI-QTOF
Ms type: MS2
Ion mode: POSITIVE
Collision energy: 60
Fragmentation mode: CID
Ionization: ESI
Column name: Zorbax Eclipse Plus C18 2.1 mm x 150 mm, 3.5 um, Agilent
Retention time: 8.542 min
Precursor m/z: 455.2904
Precursor type: [M+H]+
m/z	relative intensity
58.0702	30
77.0419	60
79.0575	98
84.0828	16
90.0481	13
91.0563	60
93.0716	10
96.0821	14
103.0552	109
104.0623	27
105.0711	259
107.0499	67
118.0415	60
119.0493	52
120.0572	57
121.0652	94
122.0725	28
122.0967	16
124.0521	11
131.0492	31
132.0571	10
133.0651	192
134.0729	202
135.0448	166
135.0782	54
136.053	126
137.06	24
138.0675	25
139.0751	12
146.0721	19
149.0598	32
150.0681	999
151.0753	119
152.0832	14
164.0836	10
165.0914	967
176.0709	15
177.0909	73
187.0998	17
191.1059	20
202.0858	27
203.0946	16
217.1098	16
218.1171	42
245.1403	11
260.1642	43
261.1589	18
303.2071	16
