Mass spectrum: Hydroxy-DEET; LC-ESI-QTOF; MS2; 120 V
Name: Hydroxy-DEET
Class: Metabolite
Formula: C12H17NO2
Exact mass: 207.1259
SMILES: CCN(CC)C(=O)C1=CC(=CC=C1)CO
InChI: InChI=1S/C12H17NO2/c1-3-13(4-2)12(15)11-7-5-6-10(8-11)9-14/h5-8,14H,3-4,9H2,1-2H3
Instrument: TripleTOF 5600 SCIEX
Instrument type: LC-ESI-QTOF
Ms type: MS2
Ion mode: POSITIVE
Collision energy: 120
Fragmentation mode: CID
Ionization: ESI
Column name: Zorbax Eclipse Plus C18 2.1 mm x 150 mm, 3.5 um, Agilent
Retention time: 6.973 min
Precursor m/z: 208.1332
Precursor type: [M+H]+
m/z	relative intensity
44.0249	141
49.0153	61
50.0269	352
60.008	56
61.0145	373
62.0228	923
63.0305	999
65.0452	23
74.0199	58
75.0276	23
77.0446	119
85.0125	9
86.02	18
89.0424	145
