Mass spectrum: Cyclopropyldiphenylsulfonium; LC-ESI-QTOF; MS2; 40 V
Name: Cyclopropyldiphenylsulfonium
Formula: [C15H15S]+
Exact mass: 227.0889
SMILES: C1CC1[S+](C2=CC=CC=C2)C3=CC=CC=C3
InChI: InChI=1S/C15H15S/c1-3-7-13(8-4-1)16(15-11-12-15)14-9-5-2-6-10-14/h1-10,15H,11-12H2/q+1
Instrument: TripleTOF 5600 SCIEX
Instrument type: LC-ESI-QTOF
Ms type: MS2
Ion mode: POSITIVE
Collision energy: 40
Fragmentation mode: CID
Ionization: ESI
Column name: Zorbax Eclipse Plus C18 2.1 mm x 150 mm, 3.5 um, Agilent
Retention time: 5.55 min
Precursor m/z: 227.0889
Precursor type: [M]+
m/z	relative intensity
77.0375	132
109.0092	85
115.0524	65
116.0602	65
152.0621	63
153.0688	55
171.0249	75
184.0337	443
185.0412	999
186.0491	433
