Mass spectrum: Penconazol; LC-ESI-QTOF; MS2; 70 V
Name: Penconazol
Class: Fungicide
Formula: C13H15Cl2N3
Exact mass: 283.0643
SMILES: CCCC(CN1C=NC=N1)C2=C(C=C(C=C2)Cl)Cl
InChI: InChI=1S/C13H15Cl2N3/c1-2-3-10(7-18-9-16-8-17-18)12-5-4-11(14)6-13(12)15/h4-6,8-10H,2-3,7H2,1H3
Instrument: TripleTOF 6600 SCIEX
Instrument type: LC-ESI-QTOF
Ms type: MS2
Ion mode: POSITIVE
Collision energy: 70
Fragmentation mode: CID
Ionization: ESI
Column name: Zorbax Eclipse Plus C18 2.1 mm x 150 mm, 3.5 um, Agilent
Retention time: 12.845 min
Precursor m/z: 284.0716
Precursor type: [M+H]+
m/z	relative intensity
43.0295	127
62.0152	30
63.0232	85
70.0407	999
72.9842	208
74.0146	11
75.023	85
76.0309	11
82.9446	15
87.023	10
88.031	44
89.0391	924
96.9842	99
99	317
101.0386	83
102.0467	169
103.0542	22
123.0002	966
124.0078	329
129.045	27
132.9612	194
137.015	13
158.9772	900
