Mass spectrum: 2-(3-Hydroxyquinolin-2-yl)indene-1,3-dione; LC-ESI-QTOF; MS2; 80 V
Name: 2-(3-Hydroxyquinolin-2-yl)indene-1,3-dione
Class: Industrial_process; Personal_care_product; Pigment
Formula: C18H11NO3
Exact mass: 289.0739
SMILES: C1=CC=C2C(=C1)C=C(C(=N2)C3C(=O)C4=CC=CC=C4C3=O)O
InChI: InChI=1S/C18H11NO3/c20-14-9-10-5-1-4-8-13(10)19-16(14)15-17(21)11-6-2-3-7-12(11)18(15)22/h1-9,15,20H
Instrument: TripleTOF 6600 SCIEX
Instrument type: LC-ESI-QTOF
Ms type: MS2
Ion mode: POSITIVE
Collision energy: 80
Fragmentation mode: CID
Ionization: ESI
Column name: Zorbax Eclipse Plus C18 2.1 mm x 150 mm, 3.5 um, Agilent
Retention time: 14.718 min
Precursor m/z: 290.0812
Precursor type: [M+H]+
m/z	relative intensity
39.0226	28
50.0151	28
51.0234	79
63.0227	123
65.039	72
75.0223	28
77.0386	311
89.0383	354
91.0552	36
101.0366	36
102.0457	28
103.0537	180
105.0367	43
113.0377	50
115.0542	152
116.0488	72
117.0564	36
130.0654	159
139.0531	130
140.049	130
150.0472	72
151.0547	43
152.0614	57
162.0431	28
163.054	325
164.0507	130
165.0696	86
166.0641	36
176.0615	79
177.0678	86
178.0761	79
187.0527	441
188.0612	456
189.0684	658
190.066	383
201.0572	57
203.074	108
204.0805	499
212.0515	43
213.0548	159
214.0648	999
215.0727	398
216.0808	376
217.0883	72
232.0743	115
