Mass spectrum: N-(1,3-Dimethylbutyl)-N`-phenyl-p-phenylenediamine; LC-ESI-QTOF; MS2; 20 V
Name: N-(1,3-Dimethylbutyl)-N`-phenyl-p-phenylenediamine
Class: Industrial_process
Formula: C18H24N2
Exact mass: 268.1939
SMILES: CC(C)CC(C)NC1=CC=C(C=C1)NC2=CC=CC=C2
InChI: InChI=1S/C18H24N2/c1-14(2)13-15(3)19-17-9-11-18(12-10-17)20-16-7-5-4-6-8-16/h4-12,14-15,19-20H,13H2,1-3H3
Instrument: TripleTOF 6600 SCIEX
Instrument type: LC-ESI-QTOF
Ms type: MS2
Ion mode: POSITIVE
Collision energy: 20
Fragmentation mode: CID
Ionization: ESI
Column name: Zorbax Eclipse Plus C18 2.1 mm x 150 mm, 3.5 um, Agilent
Retention time: 9.189 min
Precursor m/z: 269.2012
Precursor type: [M+H]+
m/z	relative intensity
184.0998	999
185.1074	455
269.2019	210
