Mass spectrum: 3-Dimethylaminophenol; LC-ESI-QTOF; MS2; 130 V
Name: 3-Dimethylaminophenol
Formula: C8H11NO
Exact mass: 137.0841
SMILES: CN(C)C1=CC(=CC=C1)O
InChI: InChI=1S/C8H11NO/c1-9(2)7-4-3-5-8(10)6-7/h3-6,10H,1-2H3
Instrument: TripleTOF 6600 SCIEX
Instrument type: LC-ESI-QTOF
Ms type: MS2
Ion mode: POSITIVE
Collision energy: 130
Fragmentation mode: CID
Ionization: ESI
Column name: Zorbax Eclipse Plus C18 2.1 mm x 150 mm, 3.5 um, Agilent
Retention time: 4.073 min
Precursor m/z: 138.0914
Precursor type: [M+H]+
m/z	relative intensity
35.9984	283
37.0066	999
38.0025	88
38.0141	475
39.0106	13
39.0221	198
40.017	17
44.0488	13
49.0063	189
50.0142	264
51.0098	24
51.0218	26
52.017	22
53.0013	50
59.9983	50
61.006	158
62.0139	85
63.0216	33
73.0063	44
74.0131	52
78.0066	13
