Mass spectrum: Chlorotoluron; LC-ESI-QTOF; MS2; 70 V
Name: Chlorotoluron
Class: Herbicide
Formula: C10H13ClN2O
Exact mass: 212.0716
SMILES: CC1=C(C=C(C=C1)NC(=O)N(C)C)Cl
InChI: InChI=1S/C10H13ClN2O/c1-7-4-5-8(6-9(7)11)12-10(14)13(2)3/h4-6H,1-3H3,(H,12,14)
Instrument: TripleTOF 6600 SCIEX
Instrument type: LC-ESI-QTOF
Ms type: MS2
Ion mode: POSITIVE
Collision energy: 70
Fragmentation mode: CID
Ionization: ESI
Column name: Zorbax Eclipse Plus C18 2.1 mm x 150 mm, 3.5 um, Agilent
Retention time: 9.778 min
Precursor m/z: 213.0789
Precursor type: [M+H]+
m/z	relative intensity
30.0342	37
42.0344	65
44.0501	65
46.0655	210
50.0152	37
51.0235	135
56.0134	233
62.0154	23
63.0229	98
72.0448	999
72.9846	60
77.0388	219
78.0348	23
78.0462	46
89.0382	149
90.047	37
98.9992	93
104.049	70
