Mass spectrum: Sulfluramid; LC-ESI-QTOF; MS2; 110 V
Name: Sulfluramid
Class: Industrial_process; PFAS
Formula: C10H6F17NO2S
Exact mass: 526.9848
SMILES: CCNS(=O)(=O)C(C(C(C(C(C(C(C(F)(F)F)(F)F)(F)F)(F)F)(F)F)(F)F)(F)F)(F)F
InChI: InChI=1S/C10H6F17NO2S/c1-2-28-31(29,30)10(26,27)8(21,22)6(17,18)4(13,14)3(11,12)5(15,16)7(19,20)9(23,24)25/h28H,2H2,1H3
Instrument: TripleTOF 6600 SCIEX
Instrument type: LC-ESI-QTOF
Ms type: MS2
Ion mode: NEGATIVE
Collision energy: 110
Fragmentation mode: CID
Ionization: ESI
Column name: Zorbax Eclipse Plus C18 2.1 mm x 150 mm, 3.5 um, Agilent
Retention time: 16.156 min
Precursor m/z: 525.9775
Precursor type: [M-H]-
m/z	relative intensity
63.9596	999
64.9668	479
68.9923	199
