Mass spectrum: Methabenzthiazuron; LC-ESI-QTOF; MS2; 10 V
Name: Methabenzthiazuron
Class: Herbicide
Formula: C10H11N3OS
Exact mass: 221.0623
SMILES: CNC(=O)N(C)c1sc2ccccc2n1
InChI: InChI=1S/C10H11N3OS/c1-11-9(14)13(2)10-12-7-5-3-4-6-8(7)15-10/h3-6H,1-2H3,(H,11,14)
Instrument: TripleTOF 5600 SCIEX
Instrument type: LC-ESI-QTOF
Ms type: CID
Ion mode: POSITIVE
Collision energy: 10
Ionization: ESI
Column name: Zorbax Eclipse Plus C18 2.1 mm x 150 mm, 3.5 um, Agilent
Retention time: 9.783 min
Precursor m/z: 222.0696
Precursor type: [M+H]+
m/z	relative intensity
165.0471	255
222.0678	999
