Mass spectrum: N-desmethyl-diphenhydramine; LC-ESI-QTOF; MS2; 130 V
Name: N-desmethyl-diphenhydramine
Class: Pharmaceutical; Metabolite; Transformation_product-Metabolite
Formula: C16H19NO
Exact mass: 241.1467
SMILES: CNCCOC(c1ccccc1)c2ccccc2
InChI: InChI=1S/C16H19NO/c1-17-12-13-18-16(14-8-4-2-5-9-14)15-10-6-3-7-11-15/h2-11,16-17H,12-13H2,1H3
Instrument: TripleTOF 5600 SCIEX
Instrument type: LC-ESI-QTOF
Ms type: MS2
Ion mode: POSITIVE
Collision energy: 130
Fragmentation mode: CID
Ionization: ESI
Column name: Zorbax Eclipse Plus C18 2.1 mm x 150 mm, 3.5 um, Agilent
Retention time: 7.557 min
Precursor m/z: 242.1539
Precursor type: [M+H]+
m/z	relative intensity
60.0036	45
65.0425	180
73.011	49
74.0185	443
75.0252	182
76.0333	173
77.0412	173
78.0498	64
84.0014	18
85.0102	118
86.0168	294
87.0247	244
88.0338	30
89.0404	474
91.0554	21
97.0099	26
98.0155	251
99.0234	94
100.0307	33
101.0395	23
102.0478	144
109.0084	26
110.0153	94
111.0216	64
113.0396	144
114.0469	28
115.0539	329
122.0159	45
123.0218	16
125.0395	40
126.0454	135
127.0544	33
128.0614	18
137.0382	118
138.0477	52
139.0537	263
149.0389	33
150.0458	242
151.053	54
152.0625	23
161.0392	130
162.0468	287
163.0549	999
164.0623	161
165.0705	80
