Mass spectrum: Sulfadoxine; LC-ESI-QTOF; MS2; 60 V
Name: Sulfadoxine
Class: Pharmaceutical
Formula: C12H14N4O4S
Exact mass: 310.0736
SMILES: COc1ncnc(N[S](=O)(=O)c2ccc(N)cc2)c1OC
InChI: InChI=1S/C12H14N4O4S/c1-19-10-11(14-7-15-12(10)20-2)16-21(17,18)9-5-3-8(13)4-6-9/h3-7H,13H2,1-2H3,(H,14,15,16)
Instrument: TripleTOF 5600 SCIEX
Instrument type: LC-ESI-QTOF
Ms type: CID
Ion mode: NEGATIVE
Collision energy: 60
Ionization: ESI
Column name: Zorbax Eclipse Plus C18 2.1 mm x 150 mm, 3.5 um, Agilent
Retention time: 7.083 min
Precursor m/z: 309.0663
Precursor type: [M-H]-
m/z	relative intensity
63.9656	426
91.0009	101
92.0531	336
132.0558	123
156.0141	999
196.0192	78
