Mass spectrum: Zoxamide; LC-ESI-QTOF; MS2; 120 V
Name: Zoxamide
Class: Fungicide
Formula: C14H16Cl3NO2
Exact mass: 335.0247
SMILES: CCC(C)(C(=O)CCl)NC(=O)C1=CC(=C(C(=C1)Cl)C)Cl
InChI: InChI=1S/C14H16Cl3NO2/c1-4-14(3,12(19)7-15)18-13(20)9-5-10(16)8(2)11(17)6-9/h5-6H,4,7H2,1-3H3,(H,18,20)
Instrument: TripleTOF 6600 SCIEX
Instrument type: LC-ESI-QTOF
Ms type: MS2
Ion mode: POSITIVE
Collision energy: 120
Fragmentation mode: CID
Ionization: ESI
Column name: Zorbax Eclipse Plus C18 2.1 mm x 150 mm, 3.5 um, Agilent
Retention time: 14.13 min
Precursor m/z: 336.032
Precursor type: [M+H]+
m/z	relative intensity
37.0067	30
38.0151	30
39.0226	55
44.0129	30
46.9683	65
48.9833	110
61.0069	85
62.015	326
63.0228	481
72.9835	642
82.9444	75
86.0151	40
87.0217	65
88.0294	115
89.0384	999
96.9837	200
98.9988	135
106.9443	45
122.9993	160
132.9598	75
