Mass spectrum: Iopromide-d3; LC-ESI-QTOF; MS2; 40 V
Name: Iopromide-d3
Class: Surrogate_standard
Formula: C18H21I3N3O8 2H3
Exact mass: 793.8886
InChI: InChI=1S/C18H24I3N3O8/c1-24(4-9(28)6-26)18(31)12-13(19)11(17(30)22-3-8(27)5-25)14(20)16(15(12)21)23-10(29)7-32-2/h8-9,25-28H,3-7H2,1-2H3,(H,22,30)(H,23,29)/i2D3
Instrument: TripleTOF 6600 SCIEX
Instrument type: LC-ESI-QTOF
Ms type: CID
Ion mode: POSITIVE
Collision energy: 40
Ionization: ESI
Column name: Zorbax Eclipse Plus C18 2.1 mm x 150 mm, 3.5 um, Agilent
Retention time: 4.82 min
Precursor m/z: 794.8955
Precursor type: [M+H]+
m/z	relative intensity
360.966	60
372.9622	196
386.9915	26
399.9213	81
413.8074	32
413.9664	124
425.8125	46
448.0061	124
488.8464	110
527.8719	302
534.9169	253
541.8726	158
543.9064	63
548.9316	133
548.9737	53
561.8948	362
575.915	748
575.9827	86
598.7348	33
648.9705	172
689.8102	279
703.8296	336
776.8775	510
794.8916	999
795.8765	115
