Mass spectrum: Atenolol acid; LC-ESI-QTOF; MS2; 30 V
Name: Atenolol acid
Class: Pharmaceutical
Formula: C14H21NO4
Exact mass: 267.1471
SMILES: CC(C)NCC(COC1=CC=C(C=C1)CC(=O)O)O
InChI: InChI=1S/C14H21NO4/c1-10(2)15-8-12(16)9-19-13-5-3-11(4-6-13)7-14(17)18/h3-6,10,12,15-16H,7-9H2,1-2H3,(H,17,18)
Instrument: TripleTOF 5600 SCIEX
Instrument type: LC-ESI-QTOF
Ms type: MS2
Ion mode: POSITIVE
Collision energy: 30
Fragmentation mode: CID
Ionization: ESI
Column name: Zorbax Eclipse Plus C18 2.1 mm x 150 mm, 3.5 um, Agilent
Retention time: 4.893 min
Precursor m/z: 268.1543
Precursor type: [M+H]+
m/z	relative intensity
56.0499	201
58.0657	21
72.0812	223
74.0604	174
79.0545	16
89.0388	10
91.0548	41
95.0498	13
98.0969	208
107.0488	16
109.0655	23
115.0537	12
116.1075	204
117.0702	33
119.0495	50
123.0439	21
133.0662	19
135.0459	25
137.06	49
145.0654	999
162.0915	29
163.0501	30
163.0766	34
165.0549	297
179.0704	31
191.0715	833
226.1086	248
250.1444	47
268.1551	809
