Mass spectrum: Brilliant Green Cation; LC-ESI-QTOF; MS2; 140 V
Name: Brilliant Green Cation
Formula: [C27H33N2]+
Exact mass: 385.2638
SMILES: CCN(CC)C1=CC=C(C=C1)C(=C2C=CC(=[N+](CC)CC)C=C2)C3=CC=CC=C3
InChI: InChI=1S/C27H33N2/c1-5-28(6-2)25-18-14-23(15-19-25)27(22-12-10-9-11-13-22)24-16-20-26(21-17-24)29(7-3)8-4/h9-21H,5-8H2,1-4H3/q+1
Instrument: TripleTOF 6600 SCIEX
Instrument type: LC-ESI-QTOF
Ms type: MS2
Ion mode: POSITIVE
Collision energy: 140
Fragmentation mode: CID
Ionization: ESI
Column name: Zorbax Eclipse Plus C18 2.1 mm x 150 mm, 3.5 um, Agilent
Retention time: 12.461 min
Precursor m/z: 385.2638
Precursor type: [M]+
m/z	relative intensity
139.0522	56
152.06	55
163.0525	285
164.0602	140
165.068	120
189.0678	68
190.0636	69
202.0763	54
213.0684	152
215.0844	80
224.0603	56
226.0761	189
237.0693	310
238.0758	171
239.0853	999
252.0907	81
