Mass spectrum: Lidocaine; LC-ESI-QTOF; MS2; 90 V
Name: Lidocaine
Class: Pharmaceutical
Formula: C14H22N2O
Exact mass: 234.1732
SMILES: CCN(CC)CC(=O)Nc1c(C)cccc1C
InChI: InChI=1S/C14H22N2O/c1-5-16(6-2)10-13(17)15-14-11(3)8-7-9-12(14)4/h7-9H,5-6,10H2,1-4H3,(H,15,17)
Instrument: TripleTOF 5600 SCIEX
Instrument type: LC-ESI-QTOF
Ms type: MS2
Ion mode: POSITIVE
Collision energy: 90
Fragmentation mode: CID
Ionization: ESI
Column name: Zorbax Eclipse Plus C18 2.1 mm x 150 mm, 3.5 um, Agilent
Retention time: 5.769 min
Precursor m/z: 235.1805
Precursor type: [M+H]+
m/z	relative intensity
58.0704	617
65.0427	27
77.0408	111
79.0574	16
86.0983	999
91.0563	48
106.0658	27
118.0648	16
