Mass spectrum: Ecgonine ethyl ester; LC-ESI-QTOF; MS2; 110 V
Name: Ecgonine ethyl ester
Formula: C11H19NO3
Exact mass: 213.1365
SMILES: CCOC(=O)C1C2CCC(N2C)CC1O
InChI: InChI=1S/C11H19NO3/c1-3-15-11(14)10-8-5-4-7(12(8)2)6-9(10)13/h7-10,13H,3-6H2,1-2H3
Instrument: TripleTOF 6600 SCIEX
Instrument type: LC-ESI-QTOF
Ms type: MS2
Ion mode: POSITIVE
Collision energy: 110
Fragmentation mode: CID
Ionization: ESI
Column name: Zorbax Eclipse Plus C18 2.1 mm x 150 mm, 3.5 um, Agilent
Retention time: 2.108 min
Precursor m/z: 214.1438
Precursor type: [M+H]+
m/z	relative intensity
36.0002	90
37.0079	363
38.0157	272
39.0241	999
41.028	272
41.0399	544
42.0345	454
51.0243	363
52.0315	181
53.0393	363
54.0345	90
56.0501	181
65.0396	363
67.0428	454
68.0495	90
77.0399	90
78.0366	181
79.0425	90
80.0514	181
82.0653	90
89.0402	90
93.0587	90
94.0672	272
