Mass spectrum: Norfloxacin; LC-ESI-QTOF; MS2; 150 V
Name: Norfloxacin
Class: Antimicrobial; Pharmaceutical
Formula: C16H18FN3O3
Exact mass: 319.1332
SMILES: CCN1C=C(C(=O)C2=CC(=C(C=C21)N3CCNCC3)F)C(=O)O
InChI: InChI=1S/C16H18FN3O3/c1-2-19-9-11(16(22)23)15(21)10-7-12(17)14(8-13(10)19)20-5-3-18-4-6-20/h7-9,18H,2-6H2,1H3,(H,22,23)
Instrument: TripleTOF 5600 SCIEX
Instrument type: LC-ESI-QTOF
Ms type: MS2
Ion mode: POSITIVE
Collision energy: 150
Fragmentation mode: CID
Ionization: ESI
Column name: Zorbax Eclipse Plus C18 2.1 mm x 150 mm, 3.5 um, Agilent
Retention time: 5.167 min
Precursor m/z: 320.1405
Precursor type: [M+H]+
m/z	relative intensity
57.0219	315
74.0209	946
75.0285	999
76.0227	262
81.0185	683
82.0124	315
83.0305	262
85.0124	368
86.0163	315
87.0143	368
87.0273	262
94.0245	262
98.0201	420
99.0227	525
100.0208	473
101.0393	262
105.0153	788
106.0207	473
107.0299	630
113.0264	315
132.0262	683
133.0441	262
