Mass spectrum: Monomethyldiuron; LC-ESI-QTOF; MS2; 90 V
Name: Monomethyldiuron
Class: Herbicide; Transformation_product; Transformation_product-Metabolite
Formula: C8H8Cl2N2O
Exact mass: 218.0014
SMILES: CNC(=O)Nc1ccc(Cl)c(Cl)c1
InChI: InChI=1S/C8H8Cl2N2O/c1-11-8(13)12-5-2-3-6(9)7(10)4-5/h2-4H,1H3,(H2,11,12,13)
Instrument: TripleTOF 5600 SCIEX
Instrument type: LC-ESI-QTOF
Ms type: MS2
Ion mode: POSITIVE
Collision energy: 90
Fragmentation mode: CID
Ionization: ESI
Column name: Zorbax Eclipse Plus C18 2.1 mm x 150 mm, 3.5 um, Agilent
Retention time: 9.821 min
Precursor m/z: 219.0086
Precursor type: [M+H]+
m/z	relative intensity
52.0255	36
58.0346	208
64.0343	41
65.0427	999
66.0398	31
72.9869	171
73.013	52
74.0184	426
75.0266	78
76.021	20
82.946	41
83.979	36
90.0343	52
91.0451	57
91.062	36
92.0515	280
96.9829	26
98.9995	98
100.0072	208
108.9832	31
127.0175	270
