Mass spectrum: Olmesartan; LC-ESI-QTOF; MS2; 100 V
Name: Olmesartan
Class: Pharmaceutical
Formula: C24H26N6O3
Exact mass: 446.2066
SMILES: CCCc1nc(c(n1Cc2ccc(cc2)c3ccccc3c4n[nH]nn4)C(O)=O)C(C)(C)O
InChI: InChI=1S/C24H26N6O3/c1-4-7-19-25-21(24(2,3)33)20(23(31)32)30(19)14-15-10-12-16(13-11-15)17-8-5-6-9-18(17)22-26-28-29-27-22/h5-6,8-13,33H,4,7,14H2,1-3H3,(H,31,32)(H,26,27,28,29)
Instrument: TripleTOF 5600 SCIEX
Instrument type: LC-ESI-QTOF
Ms type: MS2
Ion mode: POSITIVE
Collision energy: 100
Fragmentation mode: CID
Ionization: ESI
Column name: Zorbax Eclipse Plus C18 2.1 mm x 150 mm, 3.5 um, Agilent
Retention time: 7.356 min
Precursor m/z: 447.2139
Precursor type: [M+H]+
m/z	relative intensity
77.0415	51
80.052	19
113.0385	15
115.0541	28
126.0454	12
127.0541	57
128.0612	20
138.0465	22
139.0539	43
140.05	85
150.0458	33
151.0549	244
152.0627	607
153.0696	119
154.0661	14
162.0482	12
163.0549	201
164.0564	180
165.0682	144
166.0655	25
167.073	13
168.0689	9
176.0624	108
177.0687	148
177.1011	15
178.0748	364
179.0728	83
180.0812	81
188.0496	15
189.0577	59
190.0665	999
191.0708	98
192.0686	96
205.0765	307
206.0848	23
