Mass spectrum: N-desmethyl-venlafaxine; LC-ESI-QTOF; MS2; 80 V
Name: N-desmethyl-venlafaxine
Class: Pharmaceutical; Metabolite
Formula: C16H25NO2
Exact mass: 263.1885
SMILES: CNCC(c1ccc(cc1)OC)C2(CCCCC2)O
InChI: InChI=1S/C16H25NO2/c1-17-12-15(16(18)10-4-3-5-11-16)13-6-8-14(19-2)9-7-13/h6-9,15,17-18H,3-5,10-12H2,1-2H3
Instrument: TripleTOF 5600 SCIEX
Instrument type: LC-ESI-QTOF
Ms type: MS2
Ion mode: POSITIVE
Collision energy: 80
Fragmentation mode: CID
Ionization: ESI
Column name: Zorbax Eclipse Plus C18 2.1 mm x 150 mm, 3.5 um, Agilent
Retention time: 6.444 min
Precursor m/z: 264.1958
Precursor type: [M+H]+
m/z	relative intensity
44.0573	999
51.0277	78
52.0351	22
53.0441	22
55.0595	15
65.0415	334
67.0548	15
76.036	18
77.0404	822
78.0486	946
79.0553	180
81.0731	75
89.0396	63
91.0546	875
91.094	22
93.0685	18
102.0462	56
103.0527	180
104.0594	86
106.0395	86
106.0641	22
107.0476	86
115.053	597
116.06	56
117.0674	33
117.0907	15
118.0415	15
119.0503	22
121.0635	597
127.0538	71
128.0615	172
129.0681	52
131.0476	157
132.0562	30
134.0567	18
141.0693	48
144.0577	26
146.0642	22
148.0766	22
157.0664	26
