Mass spectrum: Butocarboxim; LC-ESI-QTOF; MS2; 90 V
Name: Butocarboxim
Class: Insecticide
Formula: C7H14N2O2S
Exact mass: 190.0776
InChI: InChI=1S/C7H14N2O2S/c1-5(6(2)12-4)9-11-7(10)8-3/h6H,1-4H3,(H,8,10)
Instrument: TripleTOF 6600 SCIEX
Instrument type: LC-ESI-QTOF
Ms type: CID
Ion mode: POSITIVE
Collision energy: 90
Ionization: ESI
Column name: Zorbax Eclipse Plus C18 2.1 mm x 150 mm, 3.5 um, Agilent
Retention time: 7.75 min
Precursor m/z: 213.0668
Precursor type: [M+Na]+
m/z	relative intensity
39.0233	124
41.0382	53
43.972	107
44.9793	999
46.9947	347
57.987	115
58.9947	579
60.0028	240
75.0255	53
