Mass spectrum: Isoxaben; LC-ESI-QTOF; MS2; 140 V
Name: Isoxaben
Class: Herbicide
Formula: C18H24N2O4
Exact mass: 332.1736
SMILES: CCC(C)(CC)C1=NOC(=C1)NC(=O)C2=C(C=CC=C2OC)OC
InChI: InChI=1S/C18H24N2O4/c1-6-18(3,7-2)14-11-15(24-20-14)19-17(21)16-12(22-4)9-8-10-13(16)23-5/h8-11H,6-7H2,1-5H3,(H,19,21)
Instrument: TripleTOF 6600 SCIEX
Instrument type: LC-ESI-QTOF
Ms type: MS2
Ion mode: POSITIVE
Collision energy: 140
Fragmentation mode: CID
Ionization: ESI
Column name: Zorbax Eclipse Plus C18 2.1 mm x 150 mm, 3.5 um, Agilent
Retention time: 12.747 min
Precursor m/z: 333.1809
Precursor type: [M+H]+
m/z	relative intensity
36.0001	20
37.0071	53
38.0016	16
38.0146	63
39.0226	100
41.002	11
41.0384	16
49.0069	70
50.0147	606
51.0227	999
53.002	207
53.0374	10
55.0173	456
59.9988	25
61.0071	111
62.0144	192
63.0225	539
64.0304	88
65.0379	26
66.0452	13
68.9962	30
73.0056	26
74.0143	158
75.022	138
77.0376	35
79.017	157
91.0161	11
92.025	31
107.0122	310
