Mass spectrum: Fluazifop; LC-ESI-QTOF; MS2; 50 V
Name: Fluazifop
Class: Herbicide; Transformation_product
Formula: C15H12F3NO4
Exact mass: 327.0718
SMILES: CC(C(=O)O)Oc1ccc(cc1)Oc2ccc(cn2)C(F)(F)F
InChI: InChI=1S/C15H12F3NO4/c1-9(14(20)21)22-11-3-5-12(6-4-11)23-13-7-2-10(8-19-13)15(16,17)18/h2-9H,1H3,(H,20,21)
Instrument: TripleTOF 6600 SCIEX
Instrument type: LC-ESI-QTOF
Ms type: MS2
Ion mode: POSITIVE
Collision energy: 50
Fragmentation mode: CID
Ionization: ESI
Column name: Zorbax Eclipse Plus C18 2.1 mm x 150 mm, 3.5 um, Agilent
Retention time: 11.668 min
Precursor m/z: 328.0791
Precursor type: [M+H]+
m/z	relative intensity
39.0232	16
55.0186	13
63.0232	15
64.0308	15
65.0392	320
75.0229	19
77.0387	15
81.0337	9
91.0546	611
92.0254	37
93.0335	95
94.0419	24
103.0542	10
109.0285	16
110.0362	15
119.0493	47
120.044	10
121.0277	27
121.065	12
126.0149	39
127.023	44
130.065	23
131.049	66
133.0472	16
140.0491	11
141.0573	126
146.021	213
147.0289	368
148.0369	9
152.0435	13
158.0598	82
159.0464	11
163.0351	18
164.0315	137
167.072	22
168.0442	41
169.0522	37
170.0404	21
172.0369	15
178.0455	10
179.0529	16
180.0375	43
183.0414	13
184.0367	19
185.045	30
186.053	23
187.0421	12
188.0508	33
189.0402	11
190.0455	72
198.0521	116
199.0604	20
200.0411	23
201.0394	17
206.0409	12
207.0481	36
208.0569	24
209.044	35
210.0514	44
211.0597	38
212.0698	18
214.0642	9
218.0406	174
226.047	76
226.0835	17
227.0554	598
234.0353	13
235.0588	21
236.0668	22
238.0474	999
239.0539	11
254.0423	969
254.0757	29
255.0493	44
256.0568	163
264.0628	13
282.0732	37
