Mass spectrum: Acridine-9-carboxylic acid; LC-ESI-QTOF; MS2; 50 V
Name: Acridine-9-carboxylic acid
Class: Pharmaceutical; Metabolite; Transformation_product
Formula: C14H9NO2
Exact mass: 223.0633
SMILES: OC(=O)c1c2ccccc2nc3ccccc13
InChI: InChI=1S/C14H9NO2/c16-14(17)13-9-5-1-3-7-11(9)15-12-8-4-2-6-10(12)13/h1-8H,(H,16,17)
Instrument: TripleTOF 5600 SCIEX
Instrument type: LC-ESI-QTOF
Ms type: MS2
Ion mode: POSITIVE
Collision energy: 50
Fragmentation mode: CID
Ionization: ESI
Column name: Zorbax Eclipse Plus C18 2.1 mm x 150 mm, 3.5 um, Agilent
Retention time: 4.656 min
Precursor m/z: 224.0706
Precursor type: [M+H]+
m/z	relative intensity
77.0405	18
115.0546	16
127.0537	24
128.0488	45
139.0533	27
140.0488	10
140.0608	14
141.0699	11
150.0453	14
151.054	86
152.0617	252
153.0626	34
154.0666	11
166.065	112
167.073	999
168.0797	50
177.0561	41
178.0648	210
179.0725	256
180.0808	362
195.0674	116
196.0755	532
