Mass spectrum: Metoprolol; LC-ESI-QTOF; MS2; 140 V
Name: Metoprolol
Class: Pharmaceutical
Formula: C15H25NO3
Exact mass: 267.1834
SMILES: CC(C)NCC(COC1=CC=C(C=C1)CCOC)O
InChI: InChI=1S/C15H25NO3/c1-12(2)16-10-14(17)11-19-15-6-4-13(5-7-15)8-9-18-3/h4-7,12,14,16-17H,8-11H2,1-3H3
Instrument: TripleTOF 6600 SCIEX
Instrument type: LC-ESI-QTOF
Ms type: MS2
Ion mode: POSITIVE
Collision energy: 140
Fragmentation mode: CID
Ionization: ESI
Column name: Zorbax Eclipse Plus C18 2.1 mm x 150 mm, 3.5 um, Agilent
Retention time: 6.14 min
Precursor m/z: 268.1907
Precursor type: [M+H]+
m/z	relative intensity
30.0334	130
35.9989	29
37.0068	199
38.0021	55
38.015	189
39.0227	780
41.0382	143
42.0337	71
43.0182	16
44.0499	55
45.0327	16
49.0062	48
50.0149	656
51.0225	999
52.0301	16
53.0124	22
61.007	65
62.0144	117
63.0226	173
65.0376	140
73.0074	16
74.0143	124
75.0229	48
76.0299	13
77.0378	189
89.0376	68
91.0522	55
102.0477	19
115.0513	19
