Mass spectrum: Diaveridine; LC-ESI-QTOF; MS2; 120 V
Name: Diaveridine
Class: Pharmaceutical
Formula: C13H16N4O2
Exact mass: 260.1273
SMILES: COC1=C(C=C(C=C1)CC2=CN=C(N=C2N)N)OC
InChI: InChI=1S/C13H16N4O2/c1-18-10-4-3-8(6-11(10)19-2)5-9-7-16-13(15)17-12(9)14/h3-4,6-7H,5H2,1-2H3,(H4,14,15,16,17)
Instrument: TripleTOF 5600 SCIEX
Instrument type: LC-ESI-QTOF
Ms type: MS2
Ion mode: POSITIVE
Collision energy: 120
Fragmentation mode: CID
Ionization: ESI
Column name: Zorbax Eclipse Plus C18 2.1 mm x 150 mm, 3.5 um, Agilent
Retention time: 4.966 min
Precursor m/z: 261.1346
Precursor type: [M+H]+
m/z	relative intensity
41.0414	67
42.0442	26
43.0435	288
52.0283	321
53.0225	46
53.0355	26
54.0437	368
55.0344	33
55.0477	40
64.0385	26
65.0451	147
67.0339	33
67.0434	40
68.0422	53
74.0216	181
75.0286	301
76.0243	87
76.036	40
77.0443	999
78.0395	73
78.0517	40
79.0359	60
79.0594	26
80.0523	40
81.049	167
83.0574	40
87.0269	46
88.0217	53
88.038	33
89.0438	469
90.0396	53
90.0503	60
91.0576	113
92.0509	26
99.0279	33
100.0233	67
101.0435	113
102.0461	120
103.0551	60
104.052	73
105.0408	174
107.0518	46
109.0581	26
113.0393	46
114.0369	113
115.0422	60
116.0505	80
117.0615	67
118.0657	40
127.0465	40
128.0499	46
129.05	53
130.0422	40
130.065	26
140.0462	33
142.0563	46
