Mass spectrum: Tributylphosphine oxide; LC-ESI-QTOF; MS2; 40 V
Name: Tributylphosphine oxide
Class: Industrial_process
Formula: C12H27OP
Exact mass: 218.18
SMILES: CCCC[P](=O)(CCCC)CCCC
InChI: InChI=1S/C12H27OP/c1-4-7-10-14(13,11-8-5-2)12-9-6-3/h4-12H2,1-3H3
Instrument: TripleTOF 5600 SCIEX
Instrument type: LC-ESI-QTOF
Ms type: MS2
Ion mode: POSITIVE
Collision energy: 40
Fragmentation mode: CID
Ionization: ESI
Column name: Zorbax Eclipse Plus C18 2.1 mm x 150 mm, 3.5 um, Agilent
Retention time: 11.114 min
Precursor m/z: 219.1872
Precursor type: [M+H]+
m/z	relative intensity
55.0607	14
57.0758	33
61.0256	27
63.0048	127
77.0185	80
78.0268	478
89.0529	26
91.0324	20
92.0411	409
103.0679	14
105.0467	36
105.0694	10
106.0538	27
107.0624	61
119.0621	12
120.0699	30
133.0779	63
135.0927	15
145.1082	10
147.0936	84
161.109	61
163.1249	270
175.1244	59
177.1399	13
191.1559	52
219.1877	999
