Mass spectrum: Metalaxyl; LC-ESI-QTOF; MS2; 70 V
Name: Metalaxyl
Class: Fungicide
Formula: C15H21NO4
Exact mass: 279.1471
SMILES: CC1=C(C(=CC=C1)C)N(C(C)C(=O)OC)C(=O)COC
InChI: InChI=1S/C15H21NO4/c1-10-7-6-8-11(2)14(10)16(13(17)9-19-4)12(3)15(18)20-5/h6-8,12H,9H2,1-5H3
Instrument: TripleTOF 6600 SCIEX
Instrument type: LC-ESI-QTOF
Ms type: MS2
Ion mode: POSITIVE
Collision energy: 70
Fragmentation mode: CID
Ionization: ESI
Column name: Zorbax Eclipse Plus C18 2.1 mm x 150 mm, 3.5 um, Agilent
Retention time: 10.17 min
Precursor m/z: 280.1543
Precursor type: [M+H]+
m/z	relative intensity
39.0227	15
45.0336	710
51.0226	72
65.0382	60
77.0384	463
78.0469	34
79.0537	319
80.0494	15
89.038	49
90.0464	64
91.0539	558
93.07	26
103.0539	262
104.0492	26
104.0596	34
105.0434	26
105.0693	455
106.0652	87
106.0775	18
107.0821	18
115.0536	197
116.049	15
116.0605	30
117.0574	999
118.0649	254
119.0739	117
120.0806	129
121.0886	22
127.0546	18
128.0492	15
128.0607	41
129.0547	22
130.0649	763
131.0725	102
132.0804	645
133.0882	87
134.0601	45
134.0955	406
135.0665	41
142.0658	18
143.0721	60
144.0803	672
145.0882	125
146.0946	22
148.0749	79
148.1118	53
150.0919	18
158.0953	30
160.1123	41
