Mass spectrum: Dihydroxycarbazepine; LC-ESI-QTOF; MS2; 150 V
Name: Dihydroxycarbazepine
Class: Pharmaceutical; Metabolite
Formula: C15H14N2O3
Exact mass: 270.1004
SMILES: NC(=O)N1c2ccccc2C(O)C(O)c3ccccc13
InChI: InChI=1S/C15H14N2O3/c16-15(20)17-11-7-3-1-5-9(11)13(18)14(19)10-6-2-4-8-12(10)17/h1-8,13-14,18-19H,(H2,16,20)
Instrument: TripleTOF 5600 SCIEX
Instrument type: LC-ESI-QTOF
Ms type: MS2
Ion mode: POSITIVE
Collision energy: 150
Fragmentation mode: CID
Ionization: ESI
Column name: Zorbax Eclipse Plus C18 2.1 mm x 150 mm, 3.5 um, Agilent
Retention time: 6.663 min
Precursor m/z: 271.1077
Precursor type: [M+H]+
m/z	relative intensity
51.0286	450
65.0416	45
73.0104	81
74.0179	999
75.0254	765
76.0327	270
77.0414	441
77.058	45
78.0494	72
85.0094	125
86.0165	288
87.0243	270
88.0207	36
89.0401	297
98.0166	441
98.0344	36
99.0103	36
99.0241	162
100.0293	54
101.039	125
102.0352	36
102.0471	180
110.0149	125
111.0226	45
113.0393	207
122.017	72
123.0214	81
125.0383	180
126.0472	324
127.042	36
128.0495	62
137.0388	99
139.0524	90
140.0492	72
149.039	90
150.0464	810
151.0531	468
152.0468	81
152.0635	99
161.04	45
162.0474	108
163.055	90
164.0513	36
175.0395	45
176.0479	45
177.0571	135
178.0661	108
188.0476	45
