Mass spectrum: 3,5-Diacetamidobenzoic acid; LC-ESI-QTOF; MS2; 40 V
Name: 3,5-Diacetamidobenzoic acid
Class: Pharmaceutical
Formula: C11H12N2O4
Exact mass: 236.0797
SMILES: CC(=O)NC1=CC(=CC(=C1)C(=O)O)NC(=O)C
InChI: InChI=1S/C11H12N2O4/c1-6(14)12-9-3-8(11(16)17)4-10(5-9)13-7(2)15/h3-5H,1-2H3,(H,12,14)(H,13,15)(H,16,17)
Instrument: TripleTOF 5600 SCIEX
Instrument type: LC-ESI-QTOF
Ms type: MS2
Ion mode: POSITIVE
Collision energy: 40
Fragmentation mode: CID
Ionization: ESI
Column name: Zorbax Eclipse Plus C18 2.1 mm x 150 mm, 3.5 um, Agilent
Retention time: 5.221 min
Precursor m/z: 237.087
Precursor type: [M+H]+
m/z	relative intensity
43.0327	45
66.0409	45
80.0542	219
82.0693	22
90.0378	36
92.0541	435
93.058	22
107.0627	999
108.046	320
108.0672	32
109.0308	54
109.0782	843
110.0615	36
122.0639	22
131.0621	22
132.0476	50
135.0569	636
136.0409	137
148.0646	73
149.0717	696
150.0562	155
153.067	563
154.0504	27
177.0675	238
178.0497	45
191.0829	201
219.077	59
