Mass spectrum: Propranolol; LC-ESI-QTOF; MS2; 90 V
Name: Propranolol
Class: Pharmaceutical
Formula: C16H21NO2
Exact mass: 259.1572
SMILES: CC(C)NCC(O)COc1cccc2ccccc12
InChI: InChI=1S/C16H21NO2/c1-12(2)17-10-14(18)11-19-16-9-5-7-13-6-3-4-8-15(13)16/h3-9,12,14,17-18H,10-11H2,1-2H3
Instrument: TripleTOF 5600 SCIEX
Instrument type: LC-ESI-QTOF
Ms type: MS2
Ion mode: POSITIVE
Collision energy: 90
Fragmentation mode: CID
Ionization: ESI
Column name: Zorbax Eclipse Plus C18 2.1 mm x 150 mm, 3.5 um, Agilent
Retention time: 7.356 min
Precursor m/z: 260.1645
Precursor type: [M+H]+
m/z	relative intensity
44.0575	10
56.0555	176
58.0708	140
65.0427	68
72.0836	38
74.019	33
74.0633	33
75.0264	105
76.0346	24
77.0425	759
77.0766	15
78.0498	91
87.0259	14
88.0348	10
89.0413	153
91.0566	98
100.1154	12
101.0399	153
102.0475	223
113.039	17
114.0472	19
115.0554	646
116.061	17
117.0703	10
125.0392	21
126.0475	311
127.0557	836
128.0633	999
129.0459	28
129.0722	15
138.0486	12
139.0554	160
144.0586	12
150.0469	19
151.0545	98
152.0627	320
153.0701	81
155.0583	35
163.054	72
164.0623	44
165.0701	31
