Mass spectrum: Etofibrate; LC-ESI-QTOF; MS2; 80 V
Name: Etofibrate
Class: Pharmaceutical
Formula: C18H18ClNO5
Exact mass: 363.0874
SMILES: CC(C)(C(=O)OCCOC(=O)C1=CN=CC=C1)OC2=CC=C(C=C2)Cl
InChI: InChI=1S/C18H18ClNO5/c1-18(2,25-15-7-5-14(19)6-8-15)17(22)24-11-10-23-16(21)13-4-3-9-20-12-13/h3-9,12H,10-11H2,1-2H3
Instrument: TripleTOF 6600 SCIEX
Instrument type: LC-ESI-QTOF
Ms type: MS2
Ion mode: POSITIVE
Collision energy: 80
Fragmentation mode: CID
Ionization: ESI
Column name: Zorbax Eclipse Plus C18 2.1 mm x 150 mm, 3.5 um, Agilent
Retention time: 12.631 min
Precursor m/z: 364.0946
Precursor type: [M+H]+
m/z	relative intensity
39.022	41
41.0377	92
45.0325	16
50.0139	20
51.0219	58
52.0172	15
53.0375	47
55.017	317
65.0376	12
69.0322	87
70.0405	22
73.0272	34
75.0216	51
77.0367	21
78.0328	672
79.0404	47
80.0482	427
93.0554	25
94.0401	21
99.0429	999
106.027	92
106.0632	28
110.9982	65
113.0583	110
114.0657	51
122.0209	17
124.038	707
129.0082	18
139.0041	23
141.0082	18
