Mass spectrum: Triethylphosphine oxide; LC-ESI-QTOF; MS2; 50 V
Name: Triethylphosphine oxide
Class: Pharmaceutical
Formula: C6H15OP
Exact mass: 134.0861
SMILES: CC[P](=O)(CC)CC
InChI: InChI=1S/C6H15OP/c1-4-8(7,5-2)6-3/h4-6H2,1-3H3
Instrument: TripleTOF 5600 SCIEX
Instrument type: LC-ESI-QTOF
Ms type: MS2
Ion mode: POSITIVE
Collision energy: 50
Fragmentation mode: CID
Ionization: ESI
Column name: Zorbax Eclipse Plus C18 2.1 mm x 150 mm, 3.5 um, Agilent
Retention time: 5.148 min
Precursor m/z: 135.0933
Precursor type: [M+H]+
m/z	relative intensity
44.9973	96
47.0228	23
49.9983	268
51.0048	40
55.9938	17
56.9946	315
59.0099	184
61.0245	102
62.9669	23
63.0042	999
63.0369	20
73.0251	11
77.0179	473
78.0256	216
79.0329	26
91.0318	17
92.0413	46
107.064	14
135.0937	14
