Mass spectrum: Demeton-S-methylsulphon; LC-ESI-QTOF; MS2; 50 V
Name: Demeton-S-methylsulphon
Class: Insecticide; Metabolite; Pesticide
Formula: C6H15O5PS2
Exact mass: 262.0099
SMILES: CCS(=O)(=O)CCSP(=O)(OC)OC
InChI: InChI=1S/C6H15O5PS2/c1-4-14(8,9)6-5-13-12(7,10-2)11-3/h4-6H2,1-3H3
Instrument: TripleTOF 6600 SCIEX
Instrument type: LC-ESI-QTOF
Ms type: MS2
Ion mode: POSITIVE
Collision energy: 50
Fragmentation mode: CID
Ionization: ESI
Column name: Zorbax Eclipse Plus C18 2.1 mm x 150 mm, 3.5 um, Agilent
Retention time: 5.996 min
Precursor m/z: 263.0171
Precursor type: [M+H]+
m/z	relative intensity
44.9782	14
46.967	19
46.9942	44
58.9938	14
64.9679	64
74.9882	19
78.9932	330
92.9729	10
92.9984	32
94.9884	10
109.0037	999
110.9648	74
124.9805	172
127.0132	42
