Mass spectrum: Tylosin; LC-ESI-QTOF; MS2; 80 V
Name: Tylosin
Class: Pharmaceutical
Formula: C46H77NO17
Exact mass: 915.5192
SMILES: CCC1C(C=C(C=CC(=O)C(CC(C(C(C(CC(=O)O1)O)C)OC2C(C(C(C(O2)C)OC3CC(C(C(O3)C)O)(C)O)N(C)C)O)CC=O)C)C)COC4C(C(C(C(O4)C)O)OC)OC
InChI: InChI=1S/C46H77NO17/c1-13-33-30(22-58-45-42(57-12)41(56-11)37(52)26(5)60-45)18-23(2)14-15-31(49)24(3)19-29(16-17-48)39(25(4)32(50)20-34(51)62-33)64-44-38(53)36(47(9)10)40(27(6)61-44)63-35-21-46(8,55)43(54)28(7)59-35/h14-15,17-18,24-30,32-33,35-45,50,52-55H,13,16,19-22H2,1-12H3
Instrument: TripleTOF 6600 SCIEX
Instrument type: LC-ESI-QTOF
Ms type: MS2
Ion mode: POSITIVE
Collision energy: 80
Fragmentation mode: CID
Ionization: ESI
Column name: Zorbax Eclipse Plus C18 2.1 mm x 150 mm, 3.5 um, Agilent
Retention time: 8.178 min
Precursor m/z: 916.5264
Precursor type: [M+H]+
m/z	relative intensity
41.0394	18
43.0181	244
55.0542	44
58.0653	37
59.0491	18
70.0645	18
71.0494	14
72.0811	25
73.0526	107
81.0702	51
83.0493	484
84.081	59
85.0288	48
85.0637	29
86.0601	25
87.0444	148
88.0759	573
98.0609	14
98.0967	192
99.0436	22
100.0768	114
101.0599	499
101.0841	66
109.0642	18
112.0748	25
114.0921	111
115.099	107
116.0705	259
126.0926	37
127.0758	92
132.1027	188
143.0705	22
145.0879	44
156.1022	203
172.094	14
174.1139	999
