Mass spectrum: Lenalidomide; LC-ESI-QTOF; MS2; 60 V
Name: Lenalidomide
Class: Pharmaceutical
Formula: C13H13N3O3
Exact mass: 259.0957
SMILES: Nc1cccc2C(=O)N(Cc12)C3CCC(=O)NC3=O
InChI: InChI=1S/C13H13N3O3/c14-9-3-1-2-7-8(9)6-16(13(7)19)10-4-5-11(17)15-12(10)18/h1-3,10H,4-6,14H2,(H,15,17,18)
Instrument: TripleTOF 5600 SCIEX
Instrument type: LC-ESI-QTOF
Ms type: MS2
Ion mode: POSITIVE
Collision energy: 60
Fragmentation mode: CID
Ionization: ESI
Column name: Zorbax Eclipse Plus C18 2.1 mm x 150 mm, 3.5 um, Agilent
Retention time: 5.24 min
Precursor m/z: 260.103
Precursor type: [M+H]+
m/z	relative intensity
65.0434	54
77.0413	243
79.0568	135
84.0472	62
89.0422	54
91.0565	45
92.0509	414
94.0658	72
104.0495	540
105.0575	45
105.0705	36
106.0647	999
115.0544	162
116.0495	81
117.0591	125
119.0604	333
119.0777	81
120.0444	90
130.0642	45
131.0602	531
132.0425	45
132.0668	54
132.0784	54
133.0537	45
133.072	36
142.063	81
143.0739	72
144.0798	72
147.0541	216
147.076	36
149.0704	225
158.0859	72
159.0916	225
169.0744	90
187.0858	90
