Mass spectrum: Paroxetine; LC-ESI-QTOF; MS2; 120 V
Name: Paroxetine
Class: Pharmaceutical
Formula: C19H20FNO3
Exact mass: 329.1427
SMILES: C1CNCC(C1C2=CC=C(C=C2)F)COC3=CC4=C(C=C3)OCO4
InChI: InChI=1S/C19H20FNO3/c20-15-3-1-13(2-4-15)17-7-8-21-10-14(17)11-22-16-5-6-18-19(9-16)24-12-23-18/h1-6,9,14,17,21H,7-8,10-12H2
Instrument: TripleTOF 5600 SCIEX
Instrument type: LC-ESI-QTOF
Ms type: MS2
Ion mode: POSITIVE
Collision energy: 120
Fragmentation mode: CID
Ionization: ESI
Column name: Zorbax Eclipse Plus C18 2.1 mm x 150 mm, 3.5 um, Agilent
Retention time: 7.812 min
Precursor m/z: 330.15
Precursor type: [M+H]+
m/z	relative intensity
37.0074	73
38.0149	54
39.0231	459
41.0387	370
42.0338	104
43.0545	27
44.0496	339
51.0226	84
53.0021	38
53.0383	19
56.0495	73
57.0131	111
59.0283	46
62.0151	23
63.0234	100
65.0384	111
67.0427	19
68.0491	65
70.0649	343
74.0146	77
75.0223	146
77.0389	246
81.0118	19
81.0329	54
82.0662	34
83.0291	837
89.0385	192
95.0293	54
96.0375	38
99.0221	19
100.0295	19
101.04	84
102.0466	42
103.053	30
107.0295	115
108.0393	19
109.0447	999
113.0385	19
115.0538	613
120.0372	57
121.0428	27
123.058	15
125.0375	34
126.0465	38
127.0541	84
128.0605	46
129.0409	19
132.0339	15
133.045	729
134.0515	23
135.0589	104
145.0459	46
146.0523	281
