Mass spectrum: 2,4-Dinitrophenol; LC-ESI-QTOF; MS2; 50 V
Name: 2,4-Dinitrophenol
Class: Industrial_process
Formula: C6H4N2O5
Exact mass: 184.012
SMILES: Oc1ccc(cc1[N+]([O-])=O)[N+]([O-])=O
InChI: InChI=1S/C6H4N2O5/c9-6-2-1-4(7(10)11)3-5(6)8(12)13/h1-3,9H
Instrument: TripleTOF 5600 SCIEX
Instrument type: LC-ESI-QTOF
Ms type: MS2
Ion mode: NEGATIVE
Collision energy: 50
Fragmentation mode: CID
Ionization: ESI
Column name: Zorbax Eclipse Plus C18 2.1 mm x 150 mm, 3.5 um, Agilent
Retention time: 9.209 min
Precursor m/z: 183.0047
Precursor type: [M-H]-
m/z	relative intensity
45.9966	364
51.026	113
68.999	51
95.0142	158
109.0172	999
