Mass spectrum: 2-Propinyl-triphenylphosphonium; LC-ESI-QTOF; MS2; 120 V
Name: 2-Propinyl-triphenylphosphonium
Formula: [C21H18P]+
Exact mass: 301.1141
SMILES: C#CC[P+](C1=CC=CC=C1)(C2=CC=CC=C2)C3=CC=CC=C3
InChI: InChI=1S/C21H18P/c1-2-18-22(19-12-6-3-7-13-19,20-14-8-4-9-15-20)21-16-10-5-11-17-21/h1,3-17H,18H2/q+1
Instrument: TripleTOF 6600 SCIEX
Instrument type: LC-ESI-QTOF
Ms type: MS2
Ion mode: POSITIVE
Collision energy: 120
Fragmentation mode: CID
Ionization: ESI
Column name: Zorbax Eclipse Plus C18 2.1 mm x 150 mm, 3.5 um, Agilent
Retention time: 7.928 min
Precursor m/z: 301.1141
Precursor type: [M]+
m/z	relative intensity
39.022	87
49.0056	51
50.0135	298
51.0214	605
55.9791	65
56.9868	135
61.0053	55
62.0131	97
63.0208	318
65.0363	156
67.9785	155
68.9865	143
74.0122	109
75.0201	73
76.0274	124
77.0357	760
78.0425	54
78.9711	60
79.9777	221
80.9855	298
87.019	76
89.0346	375
91.9772	89
102.0426	194
107.001	999
113.0345	107
115.0508	627
126.0426	225
131.0006	109
139.051	368
144.0095	195
150.0436	327
151.0515	450
152.0596	582
156.0087	59
157.0165	247
162.0431	77
163.0515	537
164.0594	130
165.0675	107
176.0597	252
180.0094	63
181.0178	276
187.0513	156
188.0589	74
189.0669	260
205.0176	202
207.0331	64
