Mass spectrum: 3,5-Diacetamidobenzoic acid; LC-ESI-QTOF; MS2; 70 V
Name: 3,5-Diacetamidobenzoic acid
Class: Pharmaceutical
Formula: C11H12N2O4
Exact mass: 236.0797
SMILES: CC(=O)NC1=CC(=CC(=C1)C(=O)O)NC(=O)C
InChI: InChI=1S/C11H12N2O4/c1-6(14)12-9-3-8(11(16)17)4-10(5-9)13-7(2)15/h3-5H,1-2H3,(H,12,14)(H,13,15)(H,16,17)
Instrument: TripleTOF 5600 SCIEX
Instrument type: LC-ESI-QTOF
Ms type: MS2
Ion mode: POSITIVE
Collision energy: 70
Fragmentation mode: CID
Ionization: ESI
Column name: Zorbax Eclipse Plus C18 2.1 mm x 150 mm, 3.5 um, Agilent
Retention time: 5.221 min
Precursor m/z: 237.087
Precursor type: [M+H]+
m/z	relative intensity
43.0311	229
65.046	839
66.0441	141
67.035	53
67.0457	61
80.0549	999
81.0627	123
90.0382	70
92.0536	698
93.0608	167
107.0625	663
108.0707	274
109.0777	141
135.0556	53
