Mass spectrum: Rhein; LC-ESI-QTOF; MS2; 40 V
Name: Rhein
Class: Metabolite
Formula: C15H8O6
Exact mass: 284.0321
SMILES: C1=CC2=C(C(=C1)O)C(=O)C3=C(C=C(C=C3C2=O)C(=O)O)O
InChI: InChI=1S/C15H8O6/c16-9-3-1-2-7-11(9)14(19)12-8(13(7)18)4-6(15(20)21)5-10(12)17/h1-5,16-17H,(H,20,21)
Instrument: TripleTOF 5600 SCIEX
Instrument type: LC-ESI-QTOF
Ms type: MS2
Ion mode: POSITIVE
Collision energy: 40
Fragmentation mode: CID
Ionization: ESI
Column name: Zorbax Eclipse Plus C18 2.1 mm x 150 mm, 3.5 um, Agilent
Retention time: 10.796 min
Precursor m/z: 285.0394
Precursor type: [M+H]+
m/z	relative intensity
65.0387	26
77.0379	76
93.034	45
115.0553	30
119.0128	49
121.0279	535
127.0535	88
128.0613	57
129.0692	53
131.0492	26
139.0541	156
141.0703	107
155.049	382
157.0642	290
165.0168	114
167.0478	187
169.0669	22
173.0614	45
183.0434	953
184.0493	19
185.0589	149
193.0217	26
195.0435	141
199.0389	34
211.0392	635
213.0556	451
223.0349	38
229.0422	22
239.0326	608
241.0481	999
257.043	80
267.0293	470
285.038	401
