Mass spectrum: Ethisterone; LC-ESI-QTOF; MS2; 20 V
Name: Ethisterone
Class: Pharmaceutical; Metabolite
Formula: C21H28O2
Exact mass: 312.2089
SMILES: C[C@]12CCC(=O)C=C1CC[C@@H]3[C@@H]2CC[C@@]4(C)[C@H]3CC[C@@]4(O)C#C
InChI: InChI=1S/C21H28O2/c1-4-21(23)12-9-18-16-6-5-14-13-15(22)7-10-19(14,2)17(16)8-11-20(18,21)3/h1,13,16-18,23H,5-12H2,2-3H3/t16-,17+,18+,19+,20+,21+/m1/s1
Instrument: TripleTOF 5600 SCIEX
Instrument type: LC-ESI-QTOF
Ms type: MS2
Ion mode: POSITIVE
Collision energy: 20
Fragmentation mode: CID
Ionization: ESI
Column name: Zorbax Eclipse Plus C18 2.1 mm x 150 mm, 3.5 um, Agilent
Retention time: 11.662 min
Precursor m/z: 313.2162
Precursor type: [M+H]+
m/z	relative intensity
79.0565	17
81.0713	22
83.0515	48
91.0554	13
93.0716	12
95.0862	28
97.0666	999
105.0695	24
107.0859	27
109.0657	690
109.1008	14
117.0729	14
119.0859	51
121.0652	13
121.1006	12
123.0797	73
129.0685	11
131.0838	47
133.101	28
135.0805	12
135.1172	17
143.0849	41
145.1018	87
147.117	31
149.0959	19
157.1008	53
159.1166	32
161.0954	14
161.1313	16
163.1115	18
169.101	39
171.1174	76
173.1333	28
177.1274	22
181.102	18
183.1152	31
185.1329	73
187.1484	71
189.1282	17
195.1174	23
197.1314	28
199.1484	115
207.1143	11
209.1321	29
211.1478	62
213.1631	82
221.1331	31
225.162	41
227.142	11
227.1796	52
235.1508	34
237.1644	67
243.1738	36
245.1902	120
249.1674	26
