Mass spectrum: Alizarin; LC-ESI-QTOF; MS2; 60 V
Name: Alizarin
Formula: C14H8O4
Exact mass: 240.0423
SMILES: C1=CC=C2C(=C1)C(=O)C3=C(C2=O)C(=C(C=C3)O)O
InChI: InChI=1S/C14H8O4/c15-10-6-5-9-11(14(10)18)13(17)8-4-2-1-3-7(8)12(9)16/h1-6,15,18H
Instrument: TripleTOF X500R SCIEX
Instrument type: LC-ESI-QTOF
Ms type: MS2
Ion mode: POSITIVE
Collision energy: 60
Fragmentation mode: CID
Ionization: ESI
Column name: Zorbax Eclipse Plus C18 2.1 mm x 150 mm, 3.5 um, Agilent
Retention time: 10.763 min
Precursor m/z: 241.0496
Precursor type: [M+H]+
m/z	relative intensity
77.0392	82
81.0332	20
89.0392	41
102.0463	20
105.0355	31
107.0131	20
109.0293	31
113.0386	72
115.0548	76
126.049	17
127.0547	269
128.0626	598
129.0703	86
137.0279	48
138.0468	48
139.0551	999
157.0659	20
