Mass spectrum: Azo Rubin S; LC-ESI-QTOF; MS2; 70 V
Name: Azo Rubin S
Formula: C20H14N2O7S2
Exact mass: 458.0242
SMILES: C1=CC=C2C(=C1)C(=CC=C2S(=O)(=O)O)N=NC3=C(C4=CC=CC=C4C(=C3)S(=O)(=O)O)O
InChI: InChI=1S/C20H14N2O7S2/c23-20-15-8-4-3-7-14(15)19(31(27,28)29)11-17(20)22-21-16-9-10-18(30(24,25)26)13-6-2-1-5-12(13)16/h1-11,23H,(H,24,25,26)(H,27,28,29)
Instrument: TripleTOF 6600 SCIEX
Instrument type: LC-ESI-QTOF
Ms type: MS2
Ion mode: POSITIVE
Collision energy: 70
Fragmentation mode: CID
Ionization: ESI
Column name: Zorbax Eclipse Plus C18 2.1 mm x 150 mm, 3.5 um, Agilent
Retention time: 7.286 min
Precursor m/z: 459.0315
Precursor type: [M+H]+
m/z	relative intensity
77.0382	37
80.0128	157
89.0377	30
103.0537	171
104.0487	10
105.0332	56
115.0537	98
116.0489	32
126.0331	10
128.049	37
130.0653	999
131.0489	54
131.0715	13
140.0493	23
141.0568	10
142.0645	184
143.0723	73
146.0594	26
154.0302	34
158.0601	965
159.0665	35
174.0565	14
223.0308	287
252.0806	19
266.0852	22
267.0906	92
268.1003	60
269.1054	11
278.085	21
279.092	48
280.1016	45
295.087	19
296.0942	25
297.1004	18
360.0572	20
361.0652	10
