Mass spectrum: Bronopol; LC-ESI-QTOF; MS2; 100 V
Name: Bronopol
Class: Antimicrobial
Formula: C3H6BrNO4
Exact mass: 198.948
SMILES: C(C(CO)([N+](=O)[O-])Br)O
InChI: InChI=1S/C3H6BrNO4/c4-3(1-6,2-7)5(8)9/h6-7H,1-2H2
Instrument: TripleTOF 5600 SCIEX
Instrument type: LC-ESI-QTOF
Ms type: CID
Ion mode: NEGATIVE
Collision energy: 100
Ionization: ESI
Column name: Zorbax Eclipse Plus C18 2.1 mm x 150 mm, 3.5 um, Agilent
Retention time: 4.534 min
Precursor m/z: 243.9462
Precursor type: [M+HCOO-]-
m/z	relative intensity
44.9975	363
78.9177	999
