Mass spectrum: 2-(Thiocyanomethylthio)benzothiazole; LC-ESI-QTOF; MS2; 150 V
Name: 2-(Thiocyanomethylthio)benzothiazole
Class: Antimicrobial; Fungicide
Formula: C9H6N2S3
Exact mass: 237.9693
SMILES: C1=CC=C2C(=C1)N=C(S2)SCSC#N
InChI: InChI=1S/C9H6N2S3/c10-5-12-6-13-9-11-7-3-1-2-4-8(7)14-9/h1-4H,6H2
Instrument: TripleTOF 6600 SCIEX
Instrument type: LC-ESI-QTOF
Ms type: MS2
Ion mode: POSITIVE
Collision energy: 150
Fragmentation mode: CID
Ionization: ESI
Column name: Zorbax Eclipse Plus C18 2.1 mm x 150 mm, 3.5 um, Agilent
Retention time: 12.417 min
Precursor m/z: 238.9766
Precursor type: [M+H]+
m/z	relative intensity
31.9718	18
35.9997	34
37.0073	176
38.0157	106
39.0231	205
43.9716	85
44.9796	379
45.9743	58
45.9869	16
49.0073	157
50.0155	491
51.01	13
51.0232	243
52.0182	40
56.979	18
57.9873	40
59.9995	26
61.0076	181
62.0154	229
63.0225	184
63.9438	34
64.0184	42
65.039	24
67.9719	197
68.9797	999
69.9744	18
69.9879	16
73.0075	34
74.0153	122
75.0101	26
80.979	53
81.9876	37
91.9724	58
92.9794	96
93.9773	10
