Mass spectrum: Bosentan; LC-ESI-QTOF; MS2; 150 V
Name: Bosentan
Class: Pharmaceutical
Formula: C27H29N5O6S
Exact mass: 551.1839
SMILES: CC(C)(C)C1=CC=C(C=C1)S(=O)(=O)NC2=C(C(=NC(=N2)C3=NC=CC=N3)OCCO)OC4=CC=CC=C4OC
InChI: InChI=1S/C27H29N5O6S/c1-27(2,3)18-10-12-19(13-11-18)39(34,35)32-23-22(38-21-9-6-5-8-20(21)36-4)26(37-17-16-33)31-25(30-23)24-28-14-7-15-29-24/h5-15,33H,16-17H2,1-4H3,(H,30,31,32)
Instrument: TripleTOF 5600 SCIEX
Instrument type: LC-ESI-QTOF
Ms type: MS2
Ion mode: NEGATIVE
Collision energy: 150
Fragmentation mode: CID
Ionization: ESI
Column name: Zorbax Eclipse Plus C18 2.1 mm x 150 mm, 3.5 um, Agilent
Retention time: 12.118 min
Precursor m/z: 550.1766
Precursor type: [M-H]-
m/z	relative intensity
41.9979	628
63.9616	999
65.0147	74
66.0092	370
89.0258	74
90.0354	111
118.0288	185
119.0372	74
132.0359	74
134.0255	37
141.0462	259
157.0788	222
158.0432	74
221.036	74
