Mass spectrum: Ethylene terephthalate cyclic trimer; LC-ESI-QTOF; MS2; 70 V
Name: Ethylene terephthalate cyclic trimer
Class: Industrial_process
Formula: C30H24O12
Exact mass: 576.1268
SMILES: C1COC(=O)C2=CC=C(C=C2)C(=O)OCCOC(=O)C3=CC=C(C=C3)C(=O)OCCOC(=O)C4=CC=C(C=C4)C(=O)O1
InChI: InChI=1S/C30H24O12/c31-25-19-1-2-20(4-3-19)26(32)38-15-16-40-28(34)22-9-11-24(12-10-22)30(36)42-18-17-41-29(35)23-7-5-21(6-8-23)27(33)39-14-13-37-25/h1-12H,13-18H2
Instrument: TripleTOF 6600 SCIEX
Instrument type: LC-ESI-QTOF
Ms type: MS2
Ion mode: POSITIVE
Collision energy: 70
Fragmentation mode: CID
Ionization: ESI
Column name: Zorbax Eclipse Plus C18 2.1 mm x 150 mm, 3.5 um, Agilent
Retention time: 14.542 min
Precursor m/z: 577.1341
Precursor type: [M+H]+
m/z	relative intensity
65.0378	72
93.0338	10
104.0245	10
121.0274	120
131.0476	15
147.0456	24
148.0503	10
149.0238	999
175.0387	24
191.0688	28
193.049	510
219.0645	26
225.0561	24
269.0452	22
297.0396	30
313.0697	53
341.065	183
385.0932	91
