Mass spectrum: Citalopram; LC-ESI-QTOF; MS2; 80 V
Name: Citalopram
Class: Pharmaceutical
Formula: C20H21FN2O
Exact mass: 324.1638
SMILES: CN(C)CCCC1(OCc2cc(ccc12)C#N)c3ccc(F)cc3
InChI: InChI=1S/C20H21FN2O/c1-23(2)11-3-10-20(17-5-7-18(21)8-6-17)19-9-4-15(13-22)12-16(19)14-24-20/h4-9,12H,3,10-11,14H2,1-2H3
Instrument: TripleTOF 5600 SCIEX
Instrument type: LC-ESI-QTOF
Ms type: MS2
Ion mode: POSITIVE
Collision energy: 80
Fragmentation mode: CID
Ionization: ESI
Column name: Zorbax Eclipse Plus C18 2.1 mm x 150 mm, 3.5 um, Agilent
Retention time: 7.757 min
Precursor m/z: 325.1711
Precursor type: [M+H]+
m/z	relative intensity
57.0195	48
58.0707	81
59.0342	22
75.0263	28
77.0418	37
83.0329	513
89.0413	217
95.0306	27
101.0393	31
103.0551	16
109.0463	999
113.0391	48
115.0546	48
116.0499	122
125.0386	11
126.0463	10
127.0542	56
128.0621	38
133.0449	52
139.0546	60
140.0498	244
146.053	23
163.0544	39
164.0494	21
166.0652	15
168.0369	11
169.0456	19
170.0518	28
173.0383	12
174.0447	14
175.0543	38
176.0613	16
177.0571	11
181.0451	37
182.0518	22
183.0607	60
187.0545	32
188.0499	31
189.0644	41
190.0654	104
193.0452	18
194.0524	79
195.0533	38
196.0676	15
198.0448	11
199.0536	82
200.0593	127
201.0605	61
202.0752	36
203.0732	10
205.0451	16
206.0521	34
207.0605	169
208.0563	250
212.0549	16
213.0693	80
214.0657	118
215.0849	28
218.0526	81
219.0595	250
220.0676	196
221.0644	207
224.0582	12
225.0577	64
226.0651	146
227.0732	167
231.0587	28
232.0562	138
233.0748	102
234.072	51
238.0639	30
239.0742	12
240.0809	126
244.0623	61
245.0641	553
246.0723	242
247.0777	21
258.0715	48
259.0795	33
260.087	13
