Mass spectrum: Etoricoxib; LC-ESI-QTOF; MS2; 120 V
Name: Etoricoxib
Class: Pharmaceutical
Formula: C18H15ClN2O2S
Exact mass: 358.0543
SMILES: CC1=NC=C(C=C1)C2=NC=C(C=C2C3=CC=C(C=C3)S(=O)(=O)C)Cl
InChI: InChI=1S/C18H15ClN2O2S/c1-12-3-4-14(10-20-12)18-17(9-15(19)11-21-18)13-5-7-16(8-6-13)24(2,22)23/h3-11H,1-2H3
Instrument: TripleTOF 5600 SCIEX
Instrument type: LC-ESI-QTOF
Ms type: MS2
Ion mode: POSITIVE
Collision energy: 120
Fragmentation mode: CID
Ionization: ESI
Column name: Zorbax Eclipse Plus C18 2.1 mm x 150 mm, 3.5 um, Agilent
Retention time: 6.991 min
Precursor m/z: 359.0616
Precursor type: [M+H]+
m/z	relative intensity
74.0205	27
75.0273	24
76.0353	12
77.0438	25
78.0455	10
87.0257	14
89.0419	17
98.0171	32
99.0247	48
100.031	16
101.0397	15
102.0463	17
111.0231	12
113.0399	27
114.0433	17
115.0554	33
122.0167	17
123.0228	53
124.0285	30
125.0385	63
126.0469	94
127.0446	39
137.0391	33
138.0433	36
139.055	127
140.0501	107
141.0577	17
142.0648	15
147.0211	10
148.0289	26
149.0389	254
150.0465	381
151.0512	261
152.0573	181
153.0557	76
161.0381	31
162.0452	68
163.0541	324
164.0505	194
165.0577	86
166.0649	187
167.0705	32
168.0701	13
173.0386	62
174.0461	499
175.0516	624
176.0563	509
177.0564	267
178.0545	71
179.0623	24
186.0133	13
186.0486	22
187.0181	15
187.0538	386
188.0574	428
189.0678	534
190.0647	298
191.0662	82
192.0678	49
193.0762	38
198.0454	29
199.0424	163
200.05	331
201.0568	878
202.0635	347
203.0685	122
204.0571	16
204.0741	19
205.0752	12
211.0199	10
212.0499	91
213.0174	20
213.0567	107
214.0647	999
215.071	408
216.0782	408
217.0794	68
218.0868	15
223.0295	17
224.026	21
225.0526	52
226.0541	134
227.0601	241
228.0668	164
229.0754	59
236.025	36
237.0291	21
238.0393	19
239.0582	68
240.0666	123
241.0761	398
242.0835	319
243.0909	36
249.0362	25
250.0414	109
251.0432	25
262.0305	13
263.0367	62
275.035	50
276.0448	129
277.0511	19
