Mass spectrum: Flumioxazin; LC-ESI-QTOF; MS2; 50 V
Name: Flumioxazin
Class: Herbicide
Formula: C19H15FN2O4
Exact mass: 354.1016
SMILES: C#CCN1c2cc(c(cc2OCC1=O)F)N3C(=O)C4=C(C3=O)CCCC4
InChI: InChI=1S/C19H15FN2O4/c1-2-7-21-15-9-14(13(20)8-16(15)26-10-17(21)23)22-18(24)11-5-3-4-6-12(11)19(22)25/h1,8-9H,3-7,10H2
Instrument: TripleTOF 6600 SCIEX
Instrument type: LC-ESI-QTOF
Ms type: MS2
Ion mode: POSITIVE
Collision energy: 50
Fragmentation mode: CID
Ionization: ESI
Column name: Zorbax Eclipse Plus C18 2.1 mm x 150 mm, 3.5 um, Agilent
Retention time: 11.704 min
Precursor m/z: 355.1089
Precursor type: [M+H]+
m/z	relative intensity
51.0221	41
53.0389	41
67.0542	41
77.0372	333
79.0526	333
80.0557	41
81.0675	83
97.0621	41
99.0242	41
101.0388	124
105.0306	41
105.0457	41
107.048	374
116.0451	41
121.0429	249
128.0479	83
134.0387	83
135.0463	208
138.0362	83
146.0377	41
146.0538	83
148.0552	416
149.0369	166
149.0632	41
150.033	41
152.0109	124
163.0643	41
164.0541	124
172.052	41
176.0496	582
177.0527	249
179.0268	83
182.0575	208
184.0547	83
186.0575	41
189.0426	83
192.0762	83
193.0738	41
195.0921	41
204.041	41
205.0356	124
209.0674	41
210.0548	124
211.0664	166
212.0849	166
215.0595	83
216.0481	41
219.0543	166
223.0651	41
223.0794	41
226.06	124
226.0679	124
226.1007	41
230.0635	83
230.0876	83
231.0534	83
232.0398	208
239.0613	124
240.079	83
251.08	291
251.0976	41
253.0792	41
257.0716	291
259.0506	999
265.0747	83
267.0915	83
271.0476	41
274.0876	83
279.0748	166
279.0904	333
285.0654	624
287.0823	166
297.0669	41
299.0832	541
316.0844	41
355.1166	124
