Mass spectrum: Methabenzthiazuron; LC-ESI-QTOF; MS2; 100 V
Name: Methabenzthiazuron
Class: Herbicide
Formula: C10H11N3OS
Exact mass: 221.0623
SMILES: CNC(=O)N(C)c1sc2ccccc2n1
InChI: InChI=1S/C10H11N3OS/c1-11-9(14)13(2)10-12-7-5-3-4-6-8(7)15-10/h3-6H,1-2H3,(H,11,14)
Instrument: TripleTOF 5600 SCIEX
Instrument type: LC-ESI-QTOF
Ms type: MS2
Ion mode: POSITIVE
Collision energy: 100
Fragmentation mode: CID
Ionization: ESI
Column name: Zorbax Eclipse Plus C18 2.1 mm x 150 mm, 3.5 um, Agilent
Retention time: 9.783 min
Precursor m/z: 222.0696
Precursor type: [M+H]+
m/z	relative intensity
51.03	79
52.0357	85
53.0438	56
57.9941	28
58.0334	128
64.0343	9
65.0429	113
67.9738	17
68.9836	862
69.991	722
77.0406	37
77.05	13
78.0362	47
79.0434	47
80.0516	117
80.9805	11
81.9888	87
90.0351	20
91.0434	49
92.9803	30
94.9963	999
95.0355	15
96.0037	904
96.0377	13
97.0102	11
105.0458	36
108.0028	30
109.0131	20
118.0516	32
122.0055	210
123.0135	51
150.022	11
