Mass spectrum: Anagrelide; LC-ESI-QTOF; MS2; 100 V
Name: Anagrelide
Class: Pharmaceutical
Formula: C10H7Cl2N3O
Exact mass: 254.9966
SMILES: c1cc(c(c2c1NC3=NC(=O)CN3C2)Cl)Cl
InChI: InChI=1S/C10H7Cl2N3O/c11-6-1-2-7-5(9(6)12)3-15-4-8(16)14-10(15)13-7/h1-2H,3-4H2,(H,13,14,16)
Instrument: TripleTOF 5600 SCIEX
Instrument type: LC-ESI-QTOF
Ms type: MS2
Ion mode: POSITIVE
Collision energy: 100
Fragmentation mode: CID
Ionization: ESI
Column name: Zorbax Eclipse Plus C18 2.1 mm x 150 mm, 3.5 um, Agilent
Retention time: 7.666 min
Precursor m/z: 256.0039
Precursor type: [M+H]+
m/z	relative intensity
61.9842	116
73.0105	174
73.0298	38
74.0189	895
74.0545	32
75.0124	77
75.0254	599
76.0203	167
76.0332	32
84.9844	51
89.0398	45
96.9865	38
99.0112	728
100.0191	999
101.0278	45
102.0337	541
106.9464	45
108.9839	277
109.9927	25
122.9993	51
129.0452	51
130.04	77
137.0002	83
137.011	58
