Mass spectrum: Chloridazon; LC-ESI-QTOF; MS2; 100 V
Name: Chloridazon
Class: Herbicide
Formula: C10H8ClN3O
Exact mass: 221.0356
SMILES: C1=CC=C(C=C1)N2C(=O)C(=C(C=N2)N)Cl
InChI: InChI=1S/C10H8ClN3O/c11-9-8(12)6-13-14(10(9)15)7-4-2-1-3-5-7/h1-6H,12H2
Instrument: TripleTOF 6600 SCIEX
Instrument type: LC-ESI-QTOF
Ms type: MS2
Ion mode: POSITIVE
Collision energy: 100
Fragmentation mode: CID
Ionization: ESI
Column name: Zorbax Eclipse Plus C18 2.1 mm x 150 mm, 3.5 um, Agilent
Retention time: 6.924 min
Precursor m/z: 222.0429
Precursor type: [M+H]+
m/z	relative intensity
37.0072	84
38.0028	22
38.0151	40
39.0232	206
41.0256	14
46.9681	47
49.0072	173
50.0153	737
51.0118	14
51.0233	999
52.0179	132
53.0257	36
61.0077	18
62.0151	40
63.023	47
63.995	18
65.0387	95
66.0211	165
66.0464	18
73.9785	29
74.0157	55
74.9862	25
75.0223	22
77.0394	140
87.9943	36
89.0383	14
92.049	18
