Mass spectrum: Tributylphosphine oxide; LC-ESI-QTOF; MS2; 40 V
Name: Tributylphosphine oxide
Class: Industrial_process
Formula: C12H27OP
Exact mass: 218.18
SMILES: CCCC[P](=O)(CCCC)CCCC
InChI: InChI=1S/C12H27OP/c1-4-7-10-14(13,11-8-5-2)12-9-6-3/h4-12H2,1-3H3
Instrument: TripleTOF 5600 SCIEX
Instrument type: LC-ESI-QTOF
Ms type: MS2
Ion mode: POSITIVE
Collision energy: 40
Fragmentation mode: CID
Ionization: ESI
Column name: Zorbax Eclipse Plus C18 2.1 mm x 150 mm, 3.5 um, Agilent
Retention time: 11.114 min
Precursor m/z: 219.1872
Precursor type: [M+H]+
m/z	relative intensity
55.0592	32
56.9929	17
57.0753	54
59.0094	24
61.0246	55
63.0047	367
77.0184	255
78.0266	808
79.0557	13
89.0529	47
91.0314	40
91.0548	32
92.0407	673
103.067	29
105.0472	85
105.07	32
106.0547	51
107.0622	118
117.0699	13
119.061	24
119.0843	26
120.0695	72
133.0777	129
135.0928	33
145.101	11
145.113	13
147.0935	157
161.1086	121
163.1248	436
175.1248	98
177.1394	27
191.1555	113
203.1426	60
219.1869	999
