Mass spectrum: Dichlorvos; LC-ESI-QTOF; MS2; 40 V
Name: Dichlorvos
Class: Insecticide; Transformation_product; Pharmaceutical
Formula: C4H7Cl2O4P
Exact mass: 219.9459
SMILES: CO[P](=O)(OC)OC=C(Cl)Cl
InChI: InChI=1S/C4H7Cl2O4P/c1-8-11(7,9-2)10-3-4(5)6/h3H,1-2H3
Instrument: TripleTOF 5600 SCIEX
Instrument type: LC-ESI-QTOF
Ms type: MS2
Ion mode: POSITIVE
Collision energy: 40
Fragmentation mode: CID
Ionization: ESI
Column name: Zorbax Eclipse Plus C18 2.1 mm x 150 mm, 3.5 um, Agilent
Retention time: 9.126 min
Precursor m/z: 220.9532
Precursor type: [M+H]+
m/z	relative intensity
55.0582	78
59.9794	46
65.0407	11
77.0405	121
78.9962	277
79.0561	83
82.947	14
91.0549	159
92.9765	17
94.9455	176
94.9879	57
95.0532	11
96.9607	49
107.0501	14
109.0045	999
112.953	26
115.053	17
123.0425	14
127.0146	118
144.9786	26
220.9535	37
