Mass spectrum: O-tolidine; LC-ESI-QTOF; MS2; 50 V
Name: O-tolidine
Formula: C14H16N2
Exact mass: 212.1313
SMILES: CC1=C(C=CC(=C1)C2=CC(=C(C=C2)N)C)N
InChI: InChI=1S/C14H16N2/c1-9-7-11(3-5-13(9)15)12-4-6-14(16)10(2)8-12/h3-8H,15-16H2,1-2H3
Instrument: TripleTOF 6600 SCIEX
Instrument type: LC-ESI-QTOF
Ms type: MS2
Ion mode: POSITIVE
Collision energy: 50
Fragmentation mode: CID
Ionization: ESI
Column name: Zorbax Eclipse Plus C18 2.1 mm x 150 mm, 3.5 um, Agilent
Retention time: 5.073 min
Precursor m/z: 213.1386
Precursor type: [M+H]+
m/z	relative intensity
106.0659	16
130.0662	17
152.0625	104
153.0689	124
163.0552	25
164.0646	23
165.0707	78
166.0694	13
170.0965	17
177.0668	16
178.0791	53
179.081	17
180.0817	999
181.088	139
182.0877	37
194.0979	18
195.104	22
196.0996	35
197.1067	55
198.1181	26
