Mass spectrum: Budesonide; LC-ESI-QTOF; MS2; 60 V
Name: Budesonide
Class: Pharmaceutical
Formula: C25H34O6
Exact mass: 430.2355
SMILES: CCC[C@@H]1O[C@@H]2C[C@H]3[C@@H]4CCC5=CC(=O)C=C[C@]5(C)[C@H]4[C@@H](O)C[C@]3(C)[C@@]2(O1)C(=O)CO
InChI: InChI=1S/C25H34O6/c1-4-5-21-30-20-11-17-16-7-6-14-10-15(27)8-9-23(14,2)22(16)18(28)12-24(17,3)25(20,31-21)19(29)13-26/h8-10,16-18,20-22,26,28H,4-7,11-13H2,1-3H3/t16-,17-,18-,20+,21+,22+,23-,24-,25+/m0/s1
Instrument: TripleTOF 5600 SCIEX
Instrument type: LC-ESI-QTOF
Ms type: MS2
Ion mode: POSITIVE
Collision energy: 60
Fragmentation mode: CID
Ionization: ESI
Column name: Zorbax Eclipse Plus C18 2.1 mm x 150 mm, 3.5 um, Agilent
Retention time: 11.041 min
Precursor m/z: 431.2428
Precursor type: [M+H]+
m/z	relative intensity
77.0408	113
79.0562	77
81.0721	77
91.0548	290
93.07	70
95.0846	35
105.0689	170
107.0491	42
107.0852	92
109.0644	63
115.0547	92
117.068	99
119.0624	28
119.085	262
121.0641	474
127.0522	49
128.0611	127
129.0675	99
130.0769	49
131.0881	77
132.0571	113
133.0651	35
133.0993	42
135.081	106
139.0736	42
141.0675	85
142.0778	28
143.0835	120
144.056	35
145.0643	212
145.101	127
146.0729	56
147.0796	999
153.0714	85
154.0806	49
155.0844	113
157.0646	63
157.1012	42
158.0721	247
159.0792	177
161.0946	77
163.0758	28
165.0673	63
167.084	63
169.0631	35
169.1001	35
170.0714	63
171.0802	651
172.0852	28
173.0955	453
178.0765	49
179.0856	170
181.0632	85
181.1005	70
182.0717	56
183.0824	127
183.118	42
184.0855	63
185.0931	127
187.1087	42
189.0663	28
190.0805	35
191.0835	77
192.0931	177
193.0997	170
194.0724	56
195.0797	191
195.1163	42
196.088	177
197.0947	184
198.1047	42
199.1085	56
203.0833	56
205.0992	63
207.08	63
207.1157	113
208.0864	106
209.0948	205
209.1332	28
210.1031	240
211.1102	311
215.0839	63
216.0897	42
217.0998	42
218.0724	35
219.0776	70
219.1145	49
220.0878	63
221.0964	212
222.1027	120
223.111	99
224.1201	77
225.1256	92
226.1357	92
229.0975	56
231.0839	35
231.1178	49
232.0863	35
233.0954	120
233.1284	35
234.1035	99
235.1115	155
236.1164	42
237.1246	77
243.1167	28
245.0978	56
247.1104	155
248.1192	120
249.125	134
250.1326	35
251.145	49
259.1123	42
261.1267	42
262.1329	70
