Mass spectrum: Acebutolol; LC-ESI-QTOF; MS2; 150 V
Name: Acebutolol
Class: Pharmaceutical
Formula: C18H28N2O4
Exact mass: 336.2049
SMILES: CCCC(=O)Nc1ccc(OCC(O)CNC(C)C)c(c1)C(C)=O
InChI: InChI=1S/C18H28N2O4/c1-5-6-18(23)20-14-7-8-17(16(9-14)13(4)21)24-11-15(22)10-19-12(2)3/h7-9,12,15,19,22H,5-6,10-11H2,1-4H3,(H,20,23)
Instrument: TripleTOF 5600 SCIEX
Instrument type: LC-ESI-QTOF
Ms type: MS2
Ion mode: POSITIVE
Collision energy: 150
Fragmentation mode: CID
Ionization: ESI
Column name: Zorbax Eclipse Plus C18 2.1 mm x 150 mm, 3.5 um, Agilent
Retention time: 5.965 min
Precursor m/z: 337.2122
Precursor type: [M+H]+
m/z	relative intensity
42.0429	94
43.0257	175
51.0288	364
53.0436	108
56.0546	999
58.0692	297
58.0785	54
65.0431	445
66.0498	94
72.0837	94
74.0636	54
77.0419	809
78.0368	54
80.0528	323
89.0405	161
91.0568	94
92.0504	94
93.0599	148
104.0484	108
109.0552	54
115.0537	108
