Mass spectrum: Flecainide meta-O-dealkylated; LC-ESI-QTOF; MS2; 40 V
Name: Flecainide meta-O-dealkylated
Class: Pharmaceutical; Transformation_product
Formula: C15H19F3N2O3
Exact mass: 332.1348
SMILES: C1CCNC(C1)CNC(=O)C2=C(C=CC(=C2)O)OCC(F)(F)F
InChI: InChI=1S/C15H19F3N2O3/c16-15(17,18)9-23-13-5-4-11(21)7-12(13)14(22)20-8-10-3-1-2-6-19-10/h4-5,7,10,19,21H,1-3,6,8-9H2,(H,20,22)
Instrument: TripleTOF 5600 SCIEX
Instrument type: LC-ESI-QTOF
Ms type: MS2
Ion mode: POSITIVE
Collision energy: 40
Fragmentation mode: CID
Ionization: ESI
Column name: Zorbax Eclipse Plus C18 2.1 mm x 150 mm, 3.5 um, Agilent
Retention time: 5.586 min
Precursor m/z: 333.1421
Precursor type: [M+H]+
m/z	relative intensity
44.0614	13
79.0576	38
80.029	15
81.073	102
82.0678	48
84.0835	31
97.09	14
98.0972	237
99.0237	18
108.0199	45
127.0177	135
136.0137	203
137.0215	25
143.0282	65
155.0114	168
171.023	133
172.0311	12
199.0164	95
205.0435	15
216.0986	62
219.0219	999
232.0903	23
233.1007	99
236.0499	15
315.1182	17
316.1089	525
333.1341	205
