Mass spectrum: Ecgonine ethyl ester; LC-ESI-QTOF; MS2; 80 V
Name: Ecgonine ethyl ester
Formula: C11H19NO3
Exact mass: 213.1365
SMILES: CCOC(=O)C1C2CCC(N2C)CC1O
InChI: InChI=1S/C11H19NO3/c1-3-15-11(14)10-8-5-4-7(12(8)2)6-9(10)13/h7-10,13H,3-6H2,1-2H3
Instrument: TripleTOF 6600 SCIEX
Instrument type: LC-ESI-QTOF
Ms type: MS2
Ion mode: POSITIVE
Collision energy: 80
Fragmentation mode: CID
Ionization: ESI
Column name: Zorbax Eclipse Plus C18 2.1 mm x 150 mm, 3.5 um, Agilent
Retention time: 2.108 min
Precursor m/z: 214.1438
Precursor type: [M+H]+
m/z	relative intensity
35.9998	52
37.0083	105
38.0031	52
38.017	105
39.0242	736
41.0263	105
41.0397	525
42.0347	525
43.0193	105
43.0415	52
44.0508	105
51.0237	262
52.0322	105
53.0397	157
54.0351	105
55.0224	105
55.0554	210
56.0502	157
57.0569	105
65.0399	525
66.047	52
67.0426	946
67.0529	105
68.05	525
71.0163	52
77.0394	315
78.0357	105
79.0403	157
79.0563	105
80.0499	315
81.0584	105
82.0653	999
91.0551	262
93.0574	52
94.0657	736
105.0447	105
106.0656	105
