Mass spectrum: Nitrendipine; LC-ESI-QTOF; MS2; 50 V
Name: Nitrendipine
Class: Pharmaceutical
Formula: C18H20N2O6
Exact mass: 360.1321
SMILES: CCOC(=O)C1=C(NC(=C(C1C2=CC(=CC=C2)[N+](=O)[O-])C(=O)OC)C)C
InChI: InChI=1S/C18H20N2O6/c1-5-26-18(22)15-11(3)19-10(2)14(17(21)25-4)16(15)12-7-6-8-13(9-12)20(23)24/h6-9,16,19H,5H2,1-4H3
Instrument: TripleTOF 5600 SCIEX
Instrument type: LC-ESI-QTOF
Ms type: MS2
Ion mode: POSITIVE
Collision energy: 50
Fragmentation mode: CID
Ionization: ESI
Column name: Zorbax Eclipse Plus C18 2.1 mm x 150 mm, 3.5 um, Agilent
Retention time: 12.373 min
Precursor m/z: 361.1394
Precursor type: [M+H]+
m/z	relative intensity
67.024	138
99.0471	10
106.0678	10
115.0547	16
127.0552	12
128.0594	23
129.0341	14
129.0667	14
130.0416	12
133.059	10
134.0602	41
139.0562	27
140.0532	12
140.0615	27
141.0677	45
142.0703	10
143.0721	23
148.0434	10
150.0207	20
150.0547	30
151.0558	21
152.0629	50
153.068	38
154.0406	12
154.0654	18
155.0466	10
155.0705	14
157.0613	12
157.0902	10
164.0674	14
165.0732	41
166.0618	32
166.0839	21
167.074	63
168.0803	314
170.0631	10
170.0955	20
171.0662	12
171.1048	32
174.0542	16
176.0332	54
178.0491	21
178.0658	25
179.0724	36
180.0803	278
181.0636	18
181.0888	165
182.0968	249
183.0735	12
183.1034	129
184.0751	21
186.0548	18
189.0672	20
190.0671	10
192.0612	16
193.0799	27
194.0594	61
194.0927	21
195.0527	10
195.0661	29
196.073	165
196.1126	10
197.0813	56
198.092	105
200.0359	43
200.069	38
206.057	20
207.0671	56
208.075	394
209.083	505
210.0544	12
210.0897	786
211.0978	269
212.0689	80
214.0485	12
214.086	32
217.0617	32
221.072	52
222.0527	32
223.0865	43
224.0713	40
225.0786	101
226.0862	999
227.0866	121
228.0632	18
235.0639	69
236.0699	309
237.0765	118
238.0748	61
239.0604	23
239.0857	50
240.0729	65
240.0992	120
241.0669	25
241.105	10
242.0803	101
249.0644	29
252.0661	29
252.0993	14
253.0725	414
254.0801	895
255.0874	740
256.0959	43
266.073	34
267.0865	263
268.096	396
269.0671	21
269.1055	422
270.0747	32
281.0939	52
282.1085	12
283.0666	81
284.0802	100
298.0924	60
299.0697	12
301.0778	72
315.0964	29
329.1044	12
