Mass spectrum: Disperse Orange 37; LC-ESI-QTOF; MS2; 30 V
Name: Disperse Orange 37
Formula: C17H15Cl2N5O2
Exact mass: 391.0603
SMILES: CCN(CCC#N)C1=CC=C(C=C1)N=NC2=C(C=C(C=C2Cl)[N+](=O)[O-])Cl
InChI: InChI=1S/C17H15Cl2N5O2/c1-2-23(9-3-8-20)13-6-4-12(5-7-13)21-22-17-15(18)10-14(24(25)26)11-16(17)19/h4-7,10-11H,2-3,9H2,1H3
Instrument: TripleTOF X500R SCIEX
Instrument type: LC-ESI-QTOF
Ms type: MS2
Ion mode: POSITIVE
Collision energy: 30
Fragmentation mode: CID
Ionization: ESI
Column name: Zorbax Eclipse Plus C18 2.1 mm x 150 mm, 3.5 um, Agilent
Retention time: 15.169 min
Precursor m/z: 392.0676
Precursor type: [M+H]+
m/z	relative intensity
120.0814	54
133.089	25
134.0971	16
145.0762	39
147.0924	19
148.0868	28
173.0832	17
187.1108	28
189.9466	28
217.9532	32
305.0492	39
317.0809	37
323.0105	109
338.034	33
346.0759	15
351.0412	999
352.0494	90
364.041	11
392.0679	229
