Mass spectrum: Foramsulfuron; LC-ESI-QTOF; MS2; 110 V
Name: Foramsulfuron
Class: Herbicide
Formula: C17H20N6O7S
Exact mass: 452.1114
SMILES: CN(C)C(=O)C1=C(C=C(C=C1)NC=O)S(=O)(=O)NC(=O)NC2=NC(=CC(=N2)OC)OC
InChI: InChI=1S/C17H20N6O7S/c1-23(2)15(25)11-6-5-10(18-9-24)7-12(11)31(27,28)22-17(26)21-16-19-13(29-3)8-14(20-16)30-4/h5-9H,1-4H3,(H,18,24)(H2,19,20,21,22,26)
Instrument: TripleTOF 6600 SCIEX
Instrument type: LC-ESI-QTOF
Ms type: MS2
Ion mode: NEGATIVE
Collision energy: 110
Fragmentation mode: CID
Ionization: ESI
Column name: Zorbax Eclipse Plus C18 2.1 mm x 150 mm, 3.5 um, Agilent
Retention time: 8.823 min
Precursor m/z: 451.1041
Precursor type: [M-H]-
m/z	relative intensity
40.0066	22
41.0142	53
41.999	999
61.9704	40
63.9633	20
64.0055	15
65.014	81
65.9986	555
68.014	15
77.9657	25
88.0192	22
89.028	25
90.0111	12
90.0351	12
107.0136	88
115.0306	17
117.0458	12
118.031	22
122.0373	27
144.0535	10
145.0389	27
159.0228	12
