Mass spectrum: Trospium; LC-ESI-QTOF; MS2; 120 V
Name: Trospium
Class: Pharmaceutical
Formula: [C25H30NO3]+
Exact mass: 392.222
SMILES: C1CC[N+]2(C1)C3CCC2CC(C3)OC(=O)C(C4=CC=CC=C4)(C5=CC=CC=C5)O
InChI: InChI=1S/C25H30NO3/c27-24(25(28,19-9-3-1-4-10-19)20-11-5-2-6-12-20)29-23-17-21-13-14-22(18-23)26(21)15-7-8-16-26/h1-6,9-12,21-23,28H,7-8,13-18H2/q+1
Instrument: TripleTOF 6600 SCIEX
Instrument type: LC-ESI-QTOF
Ms type: MS2
Ion mode: POSITIVE
Collision energy: 120
Fragmentation mode: CID
Ionization: ESI
Column name: Zorbax Eclipse Plus C18 2.1 mm x 150 mm, 3.5 um, Agilent
Retention time: 7.411 min
Precursor m/z: 392.222
Precursor type: [M]+
m/z	relative intensity
39.0223	115
41.0378	151
51.0216	178
54.0323	240
55.0532	89
56.0483	115
65.037	169
67.0525	214
68.0473	187
69.055	445
70.063	289
72.0788	115
77.0357	999
79.0519	62
80.0467	165
82.0619	66
91.0501	432
93.0665	57
94.0611	151
96.0771	553
97.0842	361
98.0921	66
108.0764	111
110.0913	57
120.0762	165
122.0924	66
138.125	71
