Mass spectrum: 6-Methylthioguanine; LC-ESI-QTOF; MS2; 40 V
Name: 6-Methylthioguanine
Class: Metabolite; Pharmaceutical
Formula: C6H7N5S
Exact mass: 181.0422
SMILES: CSc1nc(N)nc2nc[nH]c12
InChI: InChI=1S/C6H7N5S/c1-12-5-3-4(9-2-8-3)10-6(7)11-5/h2H,1H3,(H3,7,8,9,10,11)
Instrument: TripleTOF 5600 SCIEX
Instrument type: LC-ESI-QTOF
Ms type: MS2
Ion mode: POSITIVE
Collision energy: 40
Fragmentation mode: CID
Ionization: ESI
Column name: Zorbax Eclipse Plus C18 2.1 mm x 150 mm, 3.5 um, Agilent
Retention time: 4.912 min
Precursor m/z: 182.0495
Precursor type: [M+H]+
m/z	relative intensity
53.0183	27
55.035	32
65.016	33
67.0321	12
68.0285	38
70.9848	54
80.0271	170
81.0345	15
82.0423	14
82.9839	30
92.0253	90
97.9935	44
107.0356	483
108.0425	72
109.0505	70
121.0518	25
122.9893	16
125.0042	125
126.0118	62
134.0469	999
149.0724	15
149.999	82
165.0235	77
167.0266	152
182.0498	309
