Mass spectrum: 11alpha-Hydroxyprogesterone; LC-ESI-QTOF; MS2; 150 V
Name: 11alpha-Hydroxyprogesterone
Class: Pharmaceutical; Metabolite
Formula: C21H30O3
Exact mass: 330.2195
SMILES: CC(=O)C1CC[C@H]2[C@@H]3CCC4=CC(=O)CC[C@]4(C)[C@H]3[C@H](O)C[C@]12C
InChI: InChI=1S/C21H30O3/c1-12(22)16-6-7-17-15-5-4-13-10-14(23)8-9-20(13,2)19(15)18(24)11-21(16,17)3/h10,15-19,24H,4-9,11H2,1-3H3/t15-,16?,17-,18+,19+,20-,21+/m0/s1
Instrument: TripleTOF 5600 SCIEX
Instrument type: LC-ESI-QTOF
Ms type: MS2
Ion mode: POSITIVE
Collision energy: 150
Fragmentation mode: CID
Ionization: ESI
Column name: Zorbax Eclipse Plus C18 2.1 mm x 150 mm, 3.5 um, Agilent
Retention time: 10.293 min
Precursor m/z: 331.2268
Precursor type: [M+H]+
m/z	relative intensity
43.0273	554
51.0289	402
53.0435	42
55.0244	30
55.0602	36
65.0429	383
66.0493	30
67.0557	30
74.0175	36
75.0258	30
77.0412	999
78.0496	97
79.0557	103
81.0709	24
89.0399	127
91.0554	414
102.0459	109
103.0544	67
115.0531	590
126.0453	73
127.0533	158
128.0622	286
139.052	30
141.0675	36
150.0511	36
151.0516	30
152.0636	109
163.0561	54
164.0629	42
165.0666	42
