Mass spectrum: Isorhamnetin; LC-ESI-QTOF; MS2; 80 V
Name: Isorhamnetin
Class: Pharmaceutical; Metabolite
Formula: C16H12O7
Exact mass: 316.0583
SMILES: COc1cc(ccc1O)C2=C(O)C(=O)c3c(O)cc(O)cc3O2
InChI: InChI=1S/C16H12O7/c1-22-11-4-7(2-3-9(11)18)16-15(21)14(20)13-10(19)5-8(17)6-12(13)23-16/h2-6,17-19,21H,1H3
Instrument: TripleTOF 5600 SCIEX
Instrument type: LC-ESI-QTOF
Ms type: MS2
Ion mode: NEGATIVE
Collision energy: 80
Fragmentation mode: CID
Ionization: ESI
Column name: Zorbax Eclipse Plus C18 2.1 mm x 150 mm, 3.5 um, Agilent
Retention time: 9.418 min
Precursor m/z: 315.051
Precursor type: [M-H]-
m/z	relative intensity
41.0033	172
65.0034	999
79.0182	76
83.0127	153
89.038	57
91.0185	134
93.0349	115
95.0149	115
96.0235	57
107.0159	172
108.0224	672
109.0301	192
115.0553	96
117.0352	211
119.0157	57
120.0242	76
129.0357	96
133.0305	192
135.0102	230
141.0368	115
143.0522	172
145.0326	115
147.0087	76
148.0167	115
153.0347	76
154.0435	115
157.0325	76
158.0361	76
159.0477	76
161.0298	96
163.0043	249
169.0314	115
171.0466	115
173.0282	134
182.0374	96
183.0467	96
185.0281	96
187.0406	115
189.0175	96
197.0268	96
198.0326	96
199.0396	115
215.0388	57
