Mass spectrum: Verapamil; LC-ESI-QTOF; MS2; 110 V
Name: Verapamil
Class: Pharmaceutical
Formula: C27H38N2O4
Exact mass: 454.2832
SMILES: CC(C)C(CCCN(C)CCc1ccc(c(c1)OC)OC)(C#N)c2ccc(c(c2)OC)OC
InChI: InChI=1S/C27H38N2O4/c1-20(2)27(19-28,22-10-12-24(31-5)26(18-22)33-7)14-8-15-29(3)16-13-21-9-11-23(30-4)25(17-21)32-6/h9-12,17-18,20H,8,13-16H2,1-7H3
Instrument: TripleTOF 5600 SCIEX
Instrument type: LC-ESI-QTOF
Ms type: MS2
Ion mode: POSITIVE
Collision energy: 110
Fragmentation mode: CID
Ionization: ESI
Column name: Zorbax Eclipse Plus C18 2.1 mm x 150 mm, 3.5 um, Agilent
Retention time: 8.542 min
Precursor m/z: 455.2904
Precursor type: [M+H]+
m/z	relative intensity
42.0449	11
44.0572	13
58.0709	44
65.0426	93
66.0489	11
77.0426	999
78.0495	141
79.0575	409
81.0358	11
84.0835	31
89.0407	80
90.0483	118
91.0566	894
92.0281	11
92.0637	26
93.0717	57
94.042	33
95.0498	28
96.0577	10
102.047	67
103.0554	406
104.0627	86
105.0339	29
105.0697	86
106.0408	11
107.0501	482
108.0565	16
109.0284	12
109.0652	21
115.0544	45
117.0698	15
118.0418	86
119.0499	335
120.0569	73
121.0653	210
122.0358	15
122.0733	24
123.0441	18
127.054	11
128.06	14
131.0495	96
132.0446	29
133.0285	66
133.0642	37
134.0726	125
135.0443	355
137.0587	14
144.0569	13
144.0806	18
145.0644	18
146.0606	33
149.0605	66
150.0683	75
151.0763	17
159.0691	11
160.0763	15
172.0758	24
