Mass spectrum: 14-Hydroxycodeinone; LC-ESI-QTOF; MS2; 150 V
Name: 14-Hydroxycodeinone
Class: Pharmaceutical; Transformation_product
Formula: C18H19NO4
Exact mass: 313.1314
SMILES: COc1ccc2C[C@H]3N(C)CC[C@@]45C(Oc1c24)C(=O)C=C[C@@]35O
InChI: InChI=1S/C18H19NO4/c1-19-8-7-17-14-10-3-4-12(22-2)15(14)23-16(17)11(20)5-6-18(17,21)13(19)9-10/h3-6,13,16,21H,7-9H2,1-2H3/t13-,16?,17+,18-/m1/s1
Instrument: TripleTOF 5600 SCIEX
Instrument type: LC-ESI-QTOF
Ms type: MS2
Ion mode: POSITIVE
Collision energy: 150
Fragmentation mode: CID
Ionization: ESI
Column name: Zorbax Eclipse Plus C18 2.1 mm x 150 mm, 3.5 um, Agilent
Retention time: 5.367 min
Precursor m/z: 314.1387
Precursor type: [M+H]+
m/z	relative intensity
60.0057	17
62.039	13
65.0427	93
73.0122	20
74.0183	279
75.026	203
76.0333	145
77.0415	314
78.0371	17
78.0487	58
85.009	48
86.0169	148
87.0244	252
88.0323	89
89.0401	525
90.0467	17
91.0574	31
98.0162	148
99.0236	96
100.0323	44
101.0385	89
102.0463	145
103.0551	13
110.0152	51
111.0232	38
113.0387	459
114.0351	48
114.0459	76
114.0841	17
115.0545	331
116.0506	34
122.0155	24
123.0211	17
125.0388	69
126.0464	407
127.0404	27
127.0541	165
128.0612	100
130.0649	17
137.039	124
138.0466	124
139.0543	999
140.0497	279
141.0553	17
149.0364	41
150.0466	376
151.0535	324
152.0617	380
153.0582	117
154.0664	44
161.0376	38
162.0448	96
163.0542	397
164.0502	197
165.0647	62
166.0648	138
167.0747	38
174.0474	31
175.04	20
176.0602	31
177.0567	41
178.0666	48
179.0725	13
188.0513	20
190.0657	34
