Mass spectrum: Malachite green cation; LC-ESI-QTOF; MS2; 110 V
Name: Malachite green cation
Class: Industrial_process; Pigment; Antimicrobial; Fungicide
Formula: [C23H25N2]+
Exact mass: 329.2012
SMILES: CN(C)C1=CC=C(C=C1)C(=C2C=CC(=[N+](C)C)C=C2)C3=CC=CC=C3
InChI: InChI=1S/C23H25N2/c1-24(2)21-14-10-19(11-15-21)23(18-8-6-5-7-9-18)20-12-16-22(17-13-20)25(3)4/h5-17H,1-4H3/q+1
Instrument: TripleTOF 5600 SCIEX
Instrument type: LC-ESI-QTOF
Ms type: MS2
Ion mode: POSITIVE
Collision energy: 110
Fragmentation mode: CID
Ionization: ESI
Column name: Zorbax Eclipse Plus C18 2.1 mm x 150 mm, 3.5 um, Agilent
Retention time: 9.29 min
Precursor m/z: 329.2012
Precursor type: [M]+
m/z	relative intensity
115.0515	55
139.054	55
152.0618	94
163.0532	184
164.0606	189
165.0687	346
189.0674	78
190.0644	89
202.079	72
213.0692	133
215.0862	139
226.0785	245
227.0765	55
228.0934	50
237.0678	200
238.0788	117
239.0862	999
240.0889	83
241.097	106
266.0965	55
