Mass spectrum: Sulfapyridine; LC-ESI-QTOF; MS2; 60 V
Name: Sulfapyridine
Class: Antimicrobial; Pharmaceutical
Formula: C11H11N3O2S
Exact mass: 249.0572
SMILES: C1=CC=NC(=C1)NS(=O)(=O)C2=CC=C(C=C2)N
InChI: InChI=1S/C11H11N3O2S/c12-9-4-6-10(7-5-9)17(15,16)14-11-3-1-2-8-13-11/h1-8H,12H2,(H,13,14)
Instrument: TripleTOF 5600 SCIEX
Instrument type: LC-ESI-QTOF
Ms type: MS2
Ion mode: POSITIVE
Collision energy: 60
Fragmentation mode: CID
Ionization: ESI
Column name: Zorbax Eclipse Plus C18 2.1 mm x 150 mm, 3.5 um, Agilent
Retention time: 5.55 min
Precursor m/z: 250.0645
Precursor type: [M+H]+
m/z	relative intensity
51.0303	11
53.0473	33
65.0454	999
66.0394	72
67.0472	222
78.0375	284
80.0532	469
92.0515	646
93.0585	119
94.0538	94
95.0617	313
108.0443	573
113.0339	13
140.0477	57
141.0557	11
155.0572	13
156.0676	15
157.0721	26
166.0497	44
167.0565	167
168.0665	68
182.0719	24
183.0752	74
184.0822	28
