Mass spectrum: Hydroxychloroquine; LC-ESI-QTOF; MS2; 130 V
Name: Hydroxychloroquine
Class: Pharmaceutical
Formula: C18H26ClN3O
Exact mass: 335.1764
SMILES: CCN(CCCC(C)NC1=C2C=CC(=CC2=NC=C1)Cl)CCO
InChI: InChI=1S/C18H26ClN3O/c1-3-22(11-12-23)10-4-5-14(2)21-17-8-9-20-18-13-15(19)6-7-16(17)18/h6-9,13-14,23H,3-5,10-12H2,1-2H3,(H,20,21)
Instrument: TripleTOF 5600 SCIEX
Instrument type: LC-ESI-QTOF
Ms type: MS2
Ion mode: POSITIVE
Collision energy: 130
Fragmentation mode: CID
Ionization: ESI
Column name: Zorbax Eclipse Plus C18 2.1 mm x 150 mm, 3.5 um, Agilent
Retention time: 4.747 min
Precursor m/z: 336.1837
Precursor type: [M+H]+
m/z	relative intensity
39.0224	249
41.0398	249
51.0219	499
74.0165	249
75.023	749
77.0404	249
89.0389	999
90.0416	249
90.0494	499
98.0178	499
99.0207	249
100.0162	249
101.0384	499
110.9979	249
115.0542	249
116.0468	499
117.0603	499
127.0458	249
128.05	749
140.0455	249
142.0552	249
142.0672	499
155.0643	249
177.0287	499
