Mass spectrum: Demeclocycline; LC-ESI-QTOF; MS2; 50 V
Name: Demeclocycline
Class: Antimicrobial; Pharmaceutical
Formula: C21H21ClN2O8
Exact mass: 464.0986
SMILES: CN(C)C1C2CC3C(C4=C(C=CC(=C4C(=C3C(=O)C2(C(=C(C1=O)C(=O)N)O)O)O)O)Cl)O
InChI: InChI=1S/C21H21ClN2O8/c1-24(2)14-7-5-6-10(16(27)12-9(25)4-3-8(22)11(12)15(6)26)18(29)21(7,32)19(30)13(17(14)28)20(23)31/h3-4,6-7,14-15,25-27,30,32H,5H2,1-2H3,(H2,23,31)
Instrument: TripleTOF 5600 SCIEX
Instrument type: LC-ESI-QTOF
Ms type: MS2
Ion mode: POSITIVE
Collision energy: 50
Fragmentation mode: CID
Ionization: ESI
Column name: Zorbax Eclipse Plus C18 2.1 mm x 150 mm, 3.5 um, Agilent
Retention time: 5.787 min
Precursor m/z: 465.1059
Precursor type: [M+H]+
m/z	relative intensity
98.0632	229
126.0564	114
154.0501	338
166.0491	27
198.062	27
215.024	32
226.0632	49
231.0256	76
233.0344	98
243.0219	65
245.0373	32
247.0158	32
252.0416	43
255.0243	27
259.0156	256
261.0323	693
271.016	65
273.0297	147
277.0239	76
277.0378	27
278.0525	21
283.0136	38
287.0085	262
289.0254	999
297.0355	27
299.0036	65
301.0012	27
301.0239	60
311.0103	81
313.028	185
316.0658	21
317.0205	87
329.017	54
334.0572	60
339.0049	141
341.023	212
356.0712	43
367.0019	43
369.013	109
385.0128	38
402.0799	21
412.0524	43
430.0585	43
430.0787	70
