Mass spectrum: Dienogest Impurity G; LC-ESI-QTOF; MS2; 40 V
Name: Dienogest Impurity G
Class: Pharmaceutical
Formula: C20H23NO2
Exact mass: 309.1729
SMILES: CC12CC=C3C(C1CCC2(CC#N)O)CCC4=C3C=CC(=C4)O
InChI: InChI=1S/C20H23NO2/c1-19-8-6-16-15-5-3-14(22)12-13(15)2-4-17(16)18(19)7-9-20(19,23)10-11-21/h3,5-6,12,17-18,22-23H,2,4,7-10H2,1H3
Instrument: TripleTOF 6600 SCIEX
Instrument type: LC-ESI-QTOF
Ms type: MS2
Ion mode: POSITIVE
Collision energy: 40
Fragmentation mode: CID
Ionization: ESI
Column name: Zorbax Eclipse Plus C18 2.1 mm x 150 mm, 3.5 um, Agilent
Retention time: 9.956 min
Precursor m/z: 310.1802
Precursor type: [M+H]+
m/z	relative intensity
67.0534	16
77.0377	25
79.0526	46
81.0686	35
91.0531	121
93.0692	38
95.0852	23
97.0631	26
103.0526	16
105.0688	153
107.0473	50
107.0845	28
108.0796	35
109.0644	16
115.0528	43
116.0612	28
117.068	26
119.0846	34
121.0641	25
123.0792	59
127.0532	22
128.061	31
129.0689	38
130.0655	10
131.0481	47
131.0838	120
132.0804	41
133.0637	609
141.0679	92
143.0848	11
144.0561	141
145.0634	60
146.0954	62
147.0793	78
148.1101	16
157.0638	508
158.0717	14
159.0794	999
160.0736	19
160.111	17
161.1183	17
165.0674	10
169.0739	29
171.0783	56
173.094	35
174.0902	10
179.0849	11
181.0632	19
182.0743	11
183.0802	32
185.0957	16
191.0882	11
194.0719	14
195.0787	38
196.0861	25
197.0943	38
198.102	26
207.0807	22
208.0863	16
209.0959	49
210.0997	14
211.1096	19
212.1162	17
220.0884	13
221.0937	19
222.1	10
223.112	35
224.1138	10
227.1411	14
233.094	17
234.0998	10
235.1078	13
236.1184	11
237.1273	40
241.1205	22
245.0939	10
246.1036	19
247.1107	10
249.1246	25
251.1422	101
252.1501	38
260.12	16
264.1384	19
265.159	25
267.1386	11
269.1512	28
275.1451	22
292.1688	83
310.1813	35
