Mass spectrum: 6alpha-Methylprednisolone; LC-ESI-QTOF; MS2; 100 V
Name: 6alpha-Methylprednisolone
Class: Pharmaceutical
Formula: C22H30O5
Exact mass: 374.2093
SMILES: C[C@H]1C[C@H]2[C@@H]3CC[C@](O)(C(=O)CO)[C@@]3(C)C[C@H](O)[C@@H]2[C@@]4(C)C=CC(=O)C=C14
InChI: InChI=1S/C22H30O5/c1-12-8-14-15-5-7-22(27,18(26)11-23)21(15,3)10-17(25)19(14)20(2)6-4-13(24)9-16(12)20/h4,6,9,12,14-15,17,19,23,25,27H,5,7-8,10-11H2,1-3H3/t12-,14-,15-,17-,19+,20-,21-,22-/m0/s1
Instrument: TripleTOF 5600 SCIEX
Instrument type: LC-ESI-QTOF
Ms type: MS2
Ion mode: POSITIVE
Collision energy: 100
Fragmentation mode: CID
Ionization: ESI
Column name: Zorbax Eclipse Plus C18 2.1 mm x 150 mm, 3.5 um, Agilent
Retention time: 9.016 min
Precursor m/z: 375.2166
Precursor type: [M+H]+
m/z	relative intensity
65.0407	161
67.0571	23
77.0407	646
78.0495	47
79.0543	131
89.0396	35
91.0551	999
93.0713	53
102.046	41
103.0537	107
105.0692	227
107.0481	47
115.0538	861
115.0805	35
116.06	95
117.0697	137
119.0845	29
121.0632	125
127.0542	215
128.0614	592
129.0682	173
131.0495	137
133.0982	29
135.0784	53
139.053	59
141.0684	317
142.0756	53
144.0537	47
145.0649	95
146.0762	23
151.0534	95
152.0612	400
153.0681	203
155.0854	41
157.0618	131
158.0715	71
163.0539	29
164.0631	59
165.069	669
166.076	77
167.0853	41
168.057	47
169.0628	35
171.0785	53
176.0638	101
177.0673	59
177.0795	35
178.076	346
178.0992	23
179.0846	107
180.0947	35
181.0653	233
181.1018	29
182.0694	47
189.0688	305
190.0744	107
191.0846	131
192.0923	35
193.0981	47
194.0711	107
195.0787	77
201.0708	41
202.0761	275
203.0836	113
205.0601	35
207.0786	83
208.087	59
213.0697	29
215.084	107
217.1014	35
218.0704	23
219.0801	71
221.1008	35
231.079	35
