Mass spectrum: Cocaine; LC-ESI-QTOF; MS2; 40 V
Name: Cocaine
Class: Pharmaceutical
Formula: C17H21NO4
Exact mass: 303.1471
SMILES: CN1C2CCC1C(C(C2)OC(=O)C3=CC=CC=C3)C(=O)OC
InChI: InChI=1S/C17H21NO4/c1-18-12-8-9-13(18)15(17(20)21-2)14(10-12)22-16(19)11-6-4-3-5-7-11/h3-7,12-15H,8-10H2,1-2H3
Instrument: TripleTOF 6600 SCIEX
Instrument type: LC-ESI-QTOF
Ms type: MS2
Ion mode: POSITIVE
Collision energy: 40
Fragmentation mode: CID
Ionization: ESI
Column name: Zorbax Eclipse Plus C18 2.1 mm x 150 mm, 3.5 um, Agilent
Retention time: 6.407 min
Precursor m/z: 304.1543
Precursor type: [M+H]+
m/z	relative intensity
42.0343	23
44.0498	46
51.0235	32
59.0125	27
65.0388	74
67.0413	27
67.0535	27
68.0495	69
70.0648	32
77.0388	404
79.0538	65
81.0702	32
82.0653	924
83.0728	134
91.0542	325
93.033	120
93.07	55
94.0647	97
96.0799	55
97.0648	32
105.0335	817
107.0726	27
108.0805	209
118.042	51
119.0493	227
122.0964	153
125.0602	18
132.0808	32
135.0673	27
150.0911	213
154.0862	46
182.118	999
304.153	37
