Mass spectrum: O-desmethyl-metoprolol; LC-ESI-QTOF; MS2; 40 V
Name: O-desmethyl-metoprolol
Class: Pharmaceutical; Metabolite; Transformation_product; Transformation_product-Metabolite
Formula: C14H23NO3
Exact mass: 253.1678
SMILES: CC(C)NCC(O)COc1ccc(CCO)cc1
InChI: InChI=1S/C14H23NO3/c1-11(2)15-9-13(17)10-18-14-5-3-12(4-6-14)7-8-16/h3-6,11,13,15-17H,7-10H2,1-2H3
Instrument: TripleTOF 5600 SCIEX
Instrument type: LC-ESI-QTOF
Ms type: MS2
Ion mode: POSITIVE
Collision energy: 40
Fragmentation mode: CID
Ionization: ESI
Column name: Zorbax Eclipse Plus C18 2.1 mm x 150 mm, 3.5 um, Agilent
Retention time: 5.112 min
Precursor m/z: 254.1751
Precursor type: [M+H]+
m/z	relative intensity
43.0267	39
44.0598	17
55.0224	24
55.0303	14
56.0567	592
58.0701	102
65.0433	17
72.0847	412
74.0635	453
77.0417	483
79.0573	190
81.0712	11
84.0826	42
91.0563	768
93.0711	128
95.085	27
98.0968	234
100.112	62
102.0504	18
103.0549	418
105.0473	9
105.0698	597
107.0495	42
107.0854	11
115.0549	165
116.0622	86
116.1063	214
117.0698	91
119.0493	11
119.0849	37
120.0789	12
121.0651	583
128.0615	28
129.0695	136
131.0511	45
131.0849	305
133.0649	999
135.0821	34
141.0687	185
144.057	253
147.0788	64
148.0748	200
149.0704	297
151.0747	219
159.0798	422
165.0899	27
169.0737	22
176.1077	18
177.09	240
212.1313	22
254.1782	32
