Mass spectrum: Triphenyl phosphate; LC-ESI-QTOF; MS2; 140 V
Name: Triphenyl phosphate
Class: Industrial_process
Formula: C18H15O4P
Exact mass: 326.0708
SMILES: C1=CC=C(C=C1)OP(=O)(OC2=CC=CC=C2)OC3=CC=CC=C3
InChI: InChI=1S/C18H15O4P/c19-23(20-16-10-4-1-5-11-16,21-17-12-6-2-7-13-17)22-18-14-8-3-9-15-18/h1-15H
Instrument: TripleTOF 5600 SCIEX
Instrument type: LC-ESI-QTOF
Ms type: MS2
Ion mode: POSITIVE
Collision energy: 140
Fragmentation mode: CID
Ionization: ESI
Column name: Zorbax Eclipse Plus C18 2.1 mm x 150 mm, 3.5 um, Agilent
Retention time: 14.07 min
Precursor m/z: 327.0781
Precursor type: [M+H]+
m/z	relative intensity
49.0076	50
50.0147	479
51.0229	999
63.0228	61
73.0068	61
74.014	254
75.0224	142
76.0303	132
77.038	733
78.0459	50
86.0131	71
87.0231	81
98.0144	152
99.0221	101
101.0369	50
102.0456	112
113.0403	71
122.0128	71
125.037	91
126.0467	254
139.0528	142
149.0392	50
150.045	530
151.0535	244
152.0601	61
198.0488	40
200.0576	50
223.0527	71
224.0597	183
