Mass spectrum: Fipronil; LC-ESI-QTOF; MS2; 80 V
Name: Fipronil
Class: Insecticide
Formula: C12H4Cl2F6N4OS
Exact mass: 435.9387
SMILES: C1=C(C=C(C(=C1Cl)N2C(=C(C(=N2)C#N)S(=O)C(F)(F)F)N)Cl)C(F)(F)F
InChI: InChI=1S/C12H4Cl2F6N4OS/c13-5-1-4(11(15,16)17)2-6(14)8(5)24-10(22)9(7(3-21)23-24)26(25)12(18,19)20/h1-2H,22H2
Instrument: TripleTOF 6600 SCIEX
Instrument type: LC-ESI-QTOF
Ms type: MS2
Ion mode: POSITIVE
Collision energy: 80
Fragmentation mode: CID
Ionization: ESI
Column name: Zorbax Eclipse Plus C18 2.1 mm x 150 mm, 3.5 um, Agilent
Retention time: 13.577 min
Precursor m/z: 436.946
Precursor type: [M+H]+
m/z	relative intensity
66.0192	272
157.0118	635
158.0184	590
165.9777	272
169.0137	181
185.0295	953
191.9799	862
192.9884	272
193.9699	317
200.9459	363
201.0028	363
203.9808	726
209.967	317
212.9455	862
219.9989	363
220.986	227
221.0038	454
226.987	227
227.9562	999
230.9899	272
231.9761	272
235.9541	227
239.9571	726
249.0017	771
254.9655	363
262.9634	681
