Mass spectrum: Sulfamic acid; LC-ESI-QTOF; MS2; 40 V
Name: Sulfamic acid
Class: Industrial_process
Formula: H3NO3S
Exact mass: 96.9834
SMILES: NS(=O)(=O)O
InChI: InChI=1S/H3NO3S/c1-5(2,3)4/h(H3,1,2,3,4)
Instrument: TripleTOF 5600 SCIEX
Instrument type: LC-ESI-QTOF
Ms type: MS2
Ion mode: NEGATIVE
Collision energy: 40
Fragmentation mode: CID
Ionization: ESI
Column name: Zorbax Eclipse Plus C18 2.1 mm x 150 mm, 3.5 um, Agilent
Retention time: 1.3 min
Precursor m/z: 95.9764
Precursor type: [M-H]-
m/z	relative intensity
63.9625	25
77.9652	18
79.9563	999
95.9742	92
