Mass spectrum: Metoprolol; LC-ESI-QTOF; MS2; 120 V
Name: Metoprolol
Class: Pharmaceutical
Formula: C15H25NO3
Exact mass: 267.1834
SMILES: CC(C)NCC(COC1=CC=C(C=C1)CCOC)O
InChI: InChI=1S/C15H25NO3/c1-12(2)16-10-14(17)11-19-15-6-4-13(5-7-15)8-9-18-3/h4-7,12,14,16-17H,8-11H2,1-3H3
Instrument: TripleTOF 6600 SCIEX
Instrument type: LC-ESI-QTOF
Ms type: MS2
Ion mode: POSITIVE
Collision energy: 120
Fragmentation mode: CID
Ionization: ESI
Column name: Zorbax Eclipse Plus C18 2.1 mm x 150 mm, 3.5 um, Agilent
Retention time: 6.14 min
Precursor m/z: 268.1907
Precursor type: [M+H]+
m/z	relative intensity
30.0338	111
35.9984	21
37.007	104
38.0023	34
38.0147	95
39.0231	547
41.038	191
42.0332	47
43.0417	10
43.0531	17
44.049	32
45.0332	37
49.0073	34
50.0145	333
51.0227	999
52.0298	10
53.0125	13
56.049	19
58.0654	15
61.0065	26
62.0155	69
63.0218	98
65.038	211
66.045	10
74.0136	85
75.0219	32
76.0288	19
77.0377	477
78.0458	30
89.0374	95
91.0531	117
102.0448	39
103.0537	19
105.0453	10
115.0527	63
127.0493	10
