Mass spectrum: Diazinon; LC-ESI-QTOF; MS2; 90 V
Name: Diazinon
Class: Insecticide
Formula: C12H21N2O3PS
Exact mass: 304.1011
SMILES: CCO[P](=S)(OCC)Oc1cc(C)nc(n1)C(C)C
InChI: InChI=1S/C12H21N2O3PS/c1-6-15-18(19,16-7-2)17-11-8-10(5)13-12(14-11)9(3)4/h8-9H,6-7H2,1-5H3
Instrument: TripleTOF 5600 SCIEX
Instrument type: LC-ESI-QTOF
Ms type: MS2
Ion mode: POSITIVE
Collision energy: 90
Fragmentation mode: CID
Ionization: ESI
Column name: Zorbax Eclipse Plus C18 2.1 mm x 150 mm, 3.5 um, Agilent
Retention time: 14.526 min
Precursor m/z: 305.1083
Precursor type: [M+H]+
m/z	relative intensity
42.0436	117
54.0394	12
59.0007	44
59.9954	36
62.9679	61
64.9842	288
66.0381	10
67.046	71
70.0687	39
78.944	385
80.9766	180
82.9973	65
84.0465	71
90.9955	24
96.9532	999
99.0141	10
100.0228	109
137.0703	12
153.0484	38
