Mass spectrum: 2-(2-Hydroxyphenyl)-1H-benzimidazole; LC-ESI-QTOF; MS2; 80 V
Name: 2-(2-Hydroxyphenyl)-1H-benzimidazole
Class: Industrial_process; Pharmaceutical
Formula: C13H10N2O
Exact mass: 210.0793
SMILES: C1=CC=C2C(=C1)NC(=C3C=CC=CC3=O)N2
InChI: InChI=1S/C13H10N2O/c16-12-8-4-1-5-9(12)13-14-10-6-2-3-7-11(10)15-13/h1-8,14-15H
Instrument: TripleTOF 5600 SCIEX
Instrument type: LC-ESI-QTOF
Ms type: MS2
Ion mode: POSITIVE
Collision energy: 80
Fragmentation mode: CID
Ionization: ESI
Column name: Zorbax Eclipse Plus C18 2.1 mm x 150 mm, 3.5 um, Agilent
Retention time: 6.225 min
Precursor m/z: 211.0866
Precursor type: [M+H]+
m/z	relative intensity
52.0293	30
64.0372	138
74.0216	66
75.0283	215
76.0233	46
76.036	163
77.0446	999
78.0411	128
80.0539	30
87.0278	66
88.0343	102
89.0411	199
90.0399	128
91.0452	368
92.0533	368
101.0418	92
102.0377	353
103.0429	333
104.0532	122
113.0411	169
114.0421	128
115.0506	102
116.0554	61
117.0546	71
118.0545	163
119.0606	61
126.0487	76
127.0562	266
128.0524	302
129.0524	189
130.042	51
131.0622	189
132.0688	30
137.0395	138
138.0429	153
139.0556	210
140.0504	261
141.0608	30
142.0546	71
143.0631	148
153.0596	46
154.0654	261
155.0607	251
156.0687	143
164.0496	553
165.0474	92
166.057	40
167.0576	71
168.0693	66
179.0622	143
180.0685	204
181.0763	865
182.0822	76
191.0644	76
