Mass spectrum: Iotalamic acid; LC-ESI-QTOF; MS2; 110 V
Name: Iotalamic acid
Class: Pharmaceutical
Formula: C11H9I3N2O4
Exact mass: 613.7697
SMILES: CNC(c1c(I)c(C(O)=O)c(I)c(NC(C)=O)c1I)=O
InChI: InChI=1S/C11H9I3N2O4/c1-3(17)16-9-7(13)4(10(18)15-2)6(12)5(8(9)14)11(19)20/h1-2H3,(H,15,18)(H,16,17)(H,19,20)
Instrument: TripleTOF 5600 SCIEX
Instrument type: LC-ESI-QTOF
Ms type: MS2
Ion mode: POSITIVE
Collision energy: 110
Fragmentation mode: CID
Ionization: ESI
Column name: Zorbax Eclipse Plus C18 2.1 mm x 150 mm, 3.5 um, Agilent
Retention time: 4.565 min
Precursor m/z: 614.7769
Precursor type: [M+H]+
m/z	relative intensity
76.0202	149
76.0375	99
77.0307	124
78.0358	249
91.0437	249
102.0321	324
104.0489	124
106.0308	149
130.0295	249
131.0362	349
132.0433	199
133.0528	374
135.0316	324
147.0338	149
177.0422	999
203.9293	174
204.9353	224
231.9277	99
232.9373	174
257.9412	174
259.9218	174
355.854	99
