Mass spectrum: Isopyrazam; LC-ESI-QTOF; MS2; 30 V
Name: Isopyrazam
Class: Fungicide
Formula: C20H23F2N3O
Exact mass: 359.1809
SMILES: CC(C)C1C2CCC1C3=C2C=CC=C3NC(=O)C4=CN(N=C4C(F)F)C
InChI: InChI=1S/C20H23F2N3O/c1-10(2)16-12-7-8-13(16)17-11(12)5-4-6-15(17)23-20(26)14-9-25(3)24-18(14)19(21)22/h4-6,9-10,12-13,16,19H,7-8H2,1-3H3,(H,23,26)
Instrument: TripleTOF 6600 SCIEX
Instrument type: LC-ESI-QTOF
Ms type: MS2
Ion mode: POSITIVE
Collision energy: 30
Fragmentation mode: CID
Ionization: ESI
Column name: Zorbax Eclipse Plus C18 2.1 mm x 150 mm, 3.5 um, Agilent
Retention time: 14.619 min
Precursor m/z: 360.1882
Precursor type: [M+H]+
m/z	relative intensity
69.0696	13
95.0851	35
109.1007	42
159.0362	26
212.0806	18
224.0805	46
226.0969	38
232.0877	44
236.0796	11
238.0977	113
244.0885	887
246.1031	42
249.0902	18
250.0974	132
251.1074	15
252.1124	41
258.1038	442
263.1155	15
264.1126	109
270.103	56
272.119	63
277.1226	56
278.1284	229
284.12	46
292.1447	86
298.1354	146
305.1516	11
320.1766	999
340.1818	330
360.1884	164
