Mass spectrum: Tetraoctylphosphonium; LC-ESI-QTOF; MS2; 70 V
Name: Tetraoctylphosphonium
Class: Industrial_process
Formula: [C32H68P]+
Exact mass: 483.5053
SMILES: CCCCCCCC[P+](CCCCCCCC)(CCCCCCCC)CCCCCCCC
InChI: InChI=1S/C32H68P/c1-5-9-13-17-21-25-29-33(30-26-22-18-14-10-6-2,31-27-23-19-15-11-7-3)32-28-24-20-16-12-8-4/h5-32H2,1-4H3/q+1
Instrument: TripleTOF 5600 SCIEX
Instrument type: LC-ESI-QTOF
Ms type: MS2
Ion mode: POSITIVE
Collision energy: 70
Fragmentation mode: CID
Ionization: ESI
Column name: Zorbax Eclipse Plus C18 2.1 mm x 150 mm, 3.5 um, Agilent
Retention time: 16.405 min
Precursor m/z: 483.5053
Precursor type: [M]+
m/z	relative intensity
76.0431	87
187.1616	68
201.1772	55
215.193	81
229.2086	112
243.2241	97
257.24	74
271.2551	59
285.2711	157
299.2874	87
313.3028	116
327.3181	313
341.3338	233
355.3492	88
369.3654	61
371.3807	149
383.3814	65
397.3965	240
483.5049	999
