Mass spectrum: N-[2-[(2-Bromo-4,6-dinitrophenyl)azo]-5-(diethylamino)phenyl]acetamide; LC-ESI-QTOF; MS2; 130 V
Name: N-[2-[(2-Bromo-4,6-dinitrophenyl)azo]-5-(diethylamino)phenyl]acetamide
Formula: C18H19BrN6O5
Exact mass: 478.06
SMILES: CCN(CC)C1=CC(=C(C=C1)N=NC2=C(C=C(C=C2Br)[N+](=O)[O-])[N+](=O)[O-])NC(=O)C
InChI: InChI=1S/C18H19BrN6O5/c1-4-23(5-2)12-6-7-15(16(9-12)20-11(3)26)21-22-18-14(19)8-13(24(27)28)10-17(18)25(29)30/h6-10H,4-5H2,1-3H3,(H,20,26)
Instrument: TripleTOF 6600 SCIEX
Instrument type: LC-ESI-QTOF
Ms type: MS2
Ion mode: POSITIVE
Collision energy: 130
Fragmentation mode: CID
Ionization: ESI
Column name: Zorbax Eclipse Plus C18 2.1 mm x 150 mm, 3.5 um, Agilent
Retention time: 16.579 min
Precursor m/z: 479.0673
Precursor type: [M+H]+
m/z	relative intensity
39.023	49
42.0339	24
43.0172	176
51.0215	61
52.0162	24
52.0296	118
53.0379	77
62.0158	24
63.0222	57
65.0377	311
66.0334	40
66.0443	90
67.0409	40
74.0149	20
75.0219	20
76.0153	20
77.0377	335
78.032	188
79.0292	122
79.0399	135
79.0534	61
80.0477	626
81.0549	28
89.0382	57
90.0329	94
91.0394	188
92.0483	503
93.0558	999
94.0418	24
94.0636	180
95.0593	49
101.0366	16
102.0329	32
104.0481	114
105.0438	311
106.0511	102
106.0625	147
107.0359	61
107.0587	147
108.0427	20
108.0777	20
109.0756	40
113.0366	57
114.036	40
115.0529	32
116.0481	32
117.0436	81
117.0552	61
118.0511	110
119.0583	319
120.053	53
120.0656	98
121.0496	24
121.0746	192
125.0361	28
126.0364	32
127.0416	53
128.0484	28
129.0451	40
130.0619	16
131.0576	53
132.0532	24
132.0789	28
133.0575	315
134.056	20
134.0706	143
137.0361	45
138.0421	73
139.0518	290
140.05	204
146.0697	237
147.0524	139
147.0798	20
148.0609	32
150.0453	32
151.0425	53
152.0481	57
153.0349	16
153.0486	40
154.0574	24
155.0574	20
161.0713	36
163.0512	36
163.0817	20
164.0467	139
165.0539	176
166.0526	53
166.0651	61
167.0593	49
177.0511	36
178.056	49
179.0585	45
180.0526	40
191.0584	36
192.0604	40
193.0717	73
194.0665	65
204.0536	24
205.0691	20
206.0701	53
221.0831	85
