Mass spectrum: Venlafaxine-N-oxide; LC-ESI-QTOF; MS2; 40 V
Name: Venlafaxine-N-oxide
Class: Pharmaceutical; Metabolite; Transformation_product
Formula: C17H27NO3
Exact mass: 293.1991
SMILES: C[N+](C)(CC(c1ccc(cc1)OC)C2(CCCCC2)O)[O-]
InChI: InChI=1S/C17H27NO3/c1-18(2,20)13-16(17(19)11-5-4-6-12-17)14-7-9-15(21-3)10-8-14/h7-10,16,19H,4-6,11-13H2,1-3H3
Instrument: TripleTOF 5600 SCIEX
Instrument type: LC-ESI-QTOF
Ms type: MS2
Ion mode: POSITIVE
Collision energy: 40
Fragmentation mode: CID
Ionization: ESI
Column name: Zorbax Eclipse Plus C18 2.1 mm x 150 mm, 3.5 um, Agilent
Retention time: 7.246 min
Precursor m/z: 294.2064
Precursor type: [M+H]+
m/z	relative intensity
77.0422	43
78.049	24
81.073	27
91.0556	39
99.0813	17
121.0646	999
135.0799	30
147.0801	17
163.1003	16
178.1219	39
215.1426	25
294.2058	41
