Mass spectrum: Nitenpyram; LC-ESI-QTOF; MS2; 110 V
Name: Nitenpyram
Class: Pharmaceutical; Insecticide
Formula: C11H15ClN4O2
Exact mass: 270.0884
SMILES: CCN(Cc1ccc(Cl)nc1)\C(NC)=C\[N+]([O-])=O
InChI: InChI=1S/C11H15ClN4O2/c1-3-15(11(13-2)8-16(17)18)7-9-4-5-10(12)14-6-9/h4-6,8,13H,3,7H2,1-2H3/b11-8+
Instrument: TripleTOF 5600 SCIEX
Instrument type: LC-ESI-QTOF
Ms type: MS2
Ion mode: POSITIVE
Collision energy: 110
Fragmentation mode: CID
Ionization: ESI
Column name: Zorbax Eclipse Plus C18 2.1 mm x 150 mm, 3.5 um, Agilent
Retention time: 5.386 min
Precursor m/z: 271.0956
Precursor type: [M+H]+
m/z	relative intensity
42.0418	50
55.0348	28
56.0549	722
57.0494	28
63.05	39
64.0331	33
64.0461	28
65.0431	28
72.9872	999
75.0281	33
76.0202	62
77.042	39
78.0362	50
89.0395	22
90.035	129
91.042	73
98.9994	163
102.0315	33
104.0479	22
