Mass spectrum: Venlafaxine-N-oxide; LC-ESI-QTOF; MS2; 40 V
Name: Venlafaxine-N-oxide
Class: Pharmaceutical; Metabolite; Transformation_product; Transformation_product-Metabolite
Formula: C17H27NO3
Exact mass: 293.1991
SMILES: C[N+](C)(CC(c1ccc(cc1)OC)C2(CCCCC2)O)[O-]
InChI: InChI=1S/C17H27NO3/c1-18(2,20)13-16(17(19)11-5-4-6-12-17)14-7-9-15(21-3)10-8-14/h7-10,16,19H,4-6,11-13H2,1-3H3
Instrument: TripleTOF 5600 SCIEX
Instrument type: LC-ESI-QTOF
Ms type: MS2
Ion mode: POSITIVE
Collision energy: 40
Fragmentation mode: CID
Ionization: ESI
Column name: Zorbax Eclipse Plus C18 2.1 mm x 150 mm, 3.5 um, Agilent
Retention time: 7.246 min
Precursor m/z: 294.2064
Precursor type: [M+H]+
m/z	relative intensity
77.0413	35
78.0497	19
81.0727	30
91.0557	38
99.0807	25
105.0698	10
121.0647	999
135.0798	39
147.0804	24
148.075	11
163.0998	25
173.095	12
178.1225	28
