Mass spectrum: Dimethyldioctylammonium; LC-ESI-QTOF; MS2; 140 V
Name: Dimethyldioctylammonium
Class: Antimicrobial
Formula: C18H40N
Exact mass: 270.3155
InChI: InChI=1S/C18H40N/c1-5-7-9-11-13-15-17-19(3,4)18-16-14-12-10-8-6-2/h5-18H2,1-4H3/q+1
Instrument: TripleTOF 6600 SCIEX
Instrument type: LC-ESI-QTOF
Ms type: CID
Ion mode: POSITIVE
Collision energy: 140
Ionization: ESI
Column name: Zorbax Eclipse Plus C18 2.1 mm x 150 mm, 3.5 um, Agilent
Retention time: 11.669 min
Precursor m/z: 270.3155
Precursor type: [M]+
m/z	relative intensity
30.0346	66
36.0001	58
37.008	274
38.003	74
38.0155	241
39.0233	849
41.0388	233
42.0343	999
43.0416	124
44.0491	66
56.05	91
58.0647	241
