Mass spectrum: Metobromuron; LC-ESI-QTOF; MS2; 80 V
Name: Metobromuron
Class: Herbicide
Formula: C9H11BrN2O2
Exact mass: 258.0004
SMILES: CN(C(=O)NC1=CC=C(C=C1)Br)OC
InChI: InChI=1S/C9H11BrN2O2/c1-12(14-2)9(13)11-8-5-3-7(10)4-6-8/h3-6H,1-2H3,(H,11,13)
Instrument: TripleTOF 6600 SCIEX
Instrument type: LC-ESI-QTOF
Ms type: MS2
Ion mode: POSITIVE
Collision energy: 80
Fragmentation mode: CID
Ionization: ESI
Column name: Zorbax Eclipse Plus C18 2.1 mm x 150 mm, 3.5 um, Agilent
Retention time: 10.623 min
Precursor m/z: 259.0077
Precursor type: [M+H]+
m/z	relative intensity
37.0052	65
38.0127	46
39.0209	261
41.0236	56
51.0201	56
52.0155	140
61.0053	74
62.0119	186
63.0202	914
64.0281	448
65.0234	93
65.0357	924
78.0307	46
91.0385	999
92.0463	373
92.9293	84
105.0407	46
116.9296	578
119.0571	438
129.0384	46
142.9452	466
170.9641	102
