Mass spectrum: Acridine; LC-ESI-QTOF; MS2; 140 V
Name: Acridine
Class: Industrial_process
Formula: C13H9N
Exact mass: 179.0735
SMILES: c1ccc2nc3ccccc3cc2c1
InChI: InChI=1S/C13H9N/c1-3-7-12-10(5-1)9-11-6-2-4-8-13(11)14-12/h1-9H
Instrument: TripleTOF 5600 SCIEX
Instrument type: LC-ESI-QTOF
Ms type: MS2
Ion mode: POSITIVE
Collision energy: 140
Fragmentation mode: CID
Ionization: ESI
Column name: Zorbax Eclipse Plus C18 2.1 mm x 150 mm, 3.5 um, Agilent
Retention time: 5.776 min
Precursor m/z: 180.0808
Precursor type: [M+H]+
m/z	relative intensity
52.0281	23
60.0049	68
73.0117	369
74.0194	999
75.0138	40
75.0257	104
76.023	17
77.0415	12
84.0023	69
85.0101	274
85.0337	13
86.018	130
87.0125	10
87.026	15
97.0089	139
98.0162	274
99.0121	45
108.0001	13
109.0081	105
110.015	31
119.9999	24
121.0082	20
122.0161	35
123.0107	12
