Mass spectrum: Norfloxacin; LC-ESI-QTOF; MS2; 100 V
Name: Norfloxacin
Class: Antimicrobial; Pharmaceutical
Formula: C16H18FN3O3
Exact mass: 319.1332
SMILES: CCN1C=C(C(=O)C2=CC(=C(C=C21)N3CCNCC3)F)C(=O)O
InChI: InChI=1S/C16H18FN3O3/c1-2-19-9-11(16(22)23)15(21)10-7-12(17)14(8-13(10)19)20-5-3-18-4-6-20/h7-9,18H,2-6H2,1H3,(H,22,23)
Instrument: TripleTOF 5600 SCIEX
Instrument type: LC-ESI-QTOF
Ms type: MS2
Ion mode: POSITIVE
Collision energy: 100
Fragmentation mode: CID
Ionization: ESI
Column name: Zorbax Eclipse Plus C18 2.1 mm x 150 mm, 3.5 um, Agilent
Retention time: 5.167 min
Precursor m/z: 320.1405
Precursor type: [M+H]+
m/z	relative intensity
74.0188	127
75.0269	212
77.0432	191
81.0202	106
83.0331	85
87.0275	148
88.0243	85
89.0424	255
94.0247	127
95.0349	127
99.0239	106
100.0224	127
101.0401	382
102.0474	148
105.0135	191
106.0206	212
107.0309	616
108.037	191
109.049	106
113.0283	212
114.0336	170
115.055	233
120.038	233
121.0338	106
122.041	106
126.035	297
128.0479	361
129.052	148
132.0247	935
133.0341	999
134.0405	616
135.0494	212
139.0254	85
139.0352	127
140.0433	191
146.0404	361
147.0479	212
148.056	361
154.0387	85
155.0584	148
160.0182	191
160.0428	382
161.0545	340
162.0385	106
167.0188	106
173.0507	531
174.0601	170
187.0306	403
187.0614	85
188.0125	106
