Mass spectrum: Iminostilbene; LC-ESI-QTOF; MS2; 50 V
Name: Iminostilbene
Class: Pharmaceutical
Formula: C14H11N
Exact mass: 193.0891
SMILES: C1=CC=C2C(=C1)C=CC3=CC=CC=C3N2
InChI: InChI=1S/C14H11N/c1-3-7-13-11(5-1)9-10-12-6-2-4-8-14(12)15-13/h1-10,15H
Instrument: TripleTOF 6600 SCIEX
Instrument type: LC-ESI-QTOF
Ms type: MS2
Ion mode: POSITIVE
Collision energy: 50
Fragmentation mode: CID
Ionization: ESI
Column name: Zorbax Eclipse Plus C18 2.1 mm x 150 mm, 3.5 um, Agilent
Retention time: 13.175 min
Precursor m/z: 194.0964
Precursor type: [M+H]+
m/z	relative intensity
65.0325	24
77.0314	16
89.0305	97
90.038	62
91.0458	29
115.0436	25
116.0387	23
117.0465	47
126.0346	10
128.0382	19
128.0488	17
139.0417	37
140.037	40
150.0325	19
151.0405	193
152.0481	264
153.0437	73
164.0465	30
165.0551	365
166.0518	121
167.0582	311
176.0457	53
177.0416	71
178.0497	496
179.0568	472
190.0479	45
191.0561	463
192.0638	999
193.0718	738
194.0791	88
