Mass spectrum: Phenytoin; LC-ESI-QTOF; MS2; 140 V
Name: Phenytoin
Class: Pharmaceutical
Formula: C15H12N2O2
Exact mass: 252.0899
InChI: InChI=1S/C15H12N2O2/c18-13-15(17-14(19)16-13,11-7-3-1-4-8-11)12-9-5-2-6-10-12/h1-10H,(H2,16,17,18,19)
Instrument: TripleTOF 5600 SCIEX
Instrument type: LC-ESI-QTOF
Ms type: CID
Ion mode: POSITIVE
Collision energy: 140
Ionization: ESI
Column name: Zorbax Eclipse Plus C18 2.1 mm x 150 mm, 3.5 um, Agilent
Retention time: 9.176 min
Precursor m/z: 253.0972
Precursor type: [M+H]+
m/z	relative intensity
74.0175	199
75.0254	47
77.0419	999
86.017	70
89.0416	70
98.0186	47
163.0544	70
