Mass spectrum: 17alpha-Methyltestosterone; LC-ESI-QTOF; MS2; 40 V
Name: 17alpha-Methyltestosterone
Class: Pharmaceutical
Formula: C20H30O2
Exact mass: 302.2246
SMILES: C[C@]1(O)CC[C@H]2[C@@H]3CCC4=CC(=O)CC[C@]4(C)[C@H]3CC[C@]12C
InChI: InChI=1S/C20H30O2/c1-18-9-6-14(21)12-13(18)4-5-15-16(18)7-10-19(2)17(15)8-11-20(19,3)22/h12,15-17,22H,4-11H2,1-3H3/t15-,16+,17+,18+,19+,20+/m1/s1
Instrument: TripleTOF 5600 SCIEX
Instrument type: LC-ESI-QTOF
Ms type: MS2
Ion mode: POSITIVE
Collision energy: 40
Fragmentation mode: CID
Ionization: ESI
Column name: Zorbax Eclipse Plus C18 2.1 mm x 150 mm, 3.5 um, Agilent
Retention time: 11.57 min
Precursor m/z: 303.2319
Precursor type: [M+H]+
m/z	relative intensity
43.0241	12
65.0433	12
67.0571	63
69.0717	22
77.041	77
79.057	188
81.0354	12
81.0723	148
83.051	66
91.0551	111
93.0703	125
95.0856	144
97.0658	999
105.07	106
107.0504	18
107.0854	102
109.0646	982
109.0972	12
109.1088	12
117.0683	19
119.0838	119
121.0621	39
121.1004	101
123.08	136
128.0602	12
129.0685	23
131.0845	50
133.1003	89
135.1156	42
142.0766	9
143.0857	37
145.1012	59
147.1143	53
149.0941	25
149.1311	39
155.0842	19
156.0959	11
157.1007	30
159.1157	68
161.0948	14
161.1306	50
163.1107	23
163.1424	12
169.0983	23
171.1149	40
173.1299	42
175.1096	16
175.1448	40
177.1275	46
177.1603	49
183.1155	22
185.13	53
187.1459	33
189.1258	14
189.1624	96
197.1297	21
199.144	23
201.1596	30
203.1767	22
211.1458	59
215.1762	33
225.1614	19
227.1774	103
229.157	22
239.1769	14
245.1877	47
267.2078	136
285.2177	181
303.2286	368
