Mass spectrum: Indoxacarb; LC-ESI-QTOF; MS2; 40 V
Name: Indoxacarb
Class: Insecticide
Formula: C22H17ClF3N3O7
Exact mass: 527.0707
SMILES: COC(=O)[C@]12Cc3cc(ccc3C1=NN(CO2)C(=O)N(c4ccc(cc4)OC(F)(F)F)C(=O)OC)Cl
InChI: InChI=1S/C22H17ClF3N3O7/c1-33-18(30)21-10-12-9-13(23)3-8-16(12)17(21)27-28(11-35-21)19(31)29(20(32)34-2)14-4-6-15(7-5-14)36-22(24,25)26/h3-9H,10-11H2,1-2H3/t21-/m0/s1
Instrument: TripleTOF 5600 SCIEX
Instrument type: LC-ESI-QTOF
Ms type: MS2
Ion mode: POSITIVE
Collision energy: 40
Fragmentation mode: CID
Ionization: ESI
Column name: Zorbax Eclipse Plus C18 2.1 mm x 150 mm, 3.5 um, Agilent
Retention time: 15.019 min
Precursor m/z: 528.078
Precursor type: [M+H]+
m/z	relative intensity
45.0428	15
56.0208	103
59.0188	21
75.0476	18
81.0173	22
104.0501	32
128.0615	12
132.0449	104
134.0235	15
137.0157	14
149.0154	17
150.011	880
155.06	41
160.0504	34
161.0156	21
162.011	179
163.0308	42
164.0255	37
167.026	31
174.9974	16
176.0257	16
177.0278	40
178.0054	25
178.0418	11
179.0255	54
189.0216	181
190.0065	722
192.02	20
195.021	148
203.0188	999
204.0083	50
206.0358	12
207.0225	162
214.0735	50
215.0423	36
216.0264	14
217.0166	441
218.042	907
219.0321	250
221.0462	17
223.0157	266
230.9951	72
235.0271	13
249.043	270
263.0221	113
265.0364	14
293.0314	14
390.0243	19
422.0499	19
454.0748	11
