Mass spectrum: Prallethrin; LC-ESI-QTOF; MS2; 40 V
Name: Prallethrin
Class: Insecticide
Formula: C19H24O3
Exact mass: 300.1725
SMILES: CC1=C(C(=O)CC1OC(=O)C2C(C2(C)C)C=C(C)C)CC#C
InChI: InChI=1S/C19H24O3/c1-7-8-13-12(4)16(10-15(13)20)22-18(21)17-14(9-11(2)3)19(17,5)6/h1,9,14,16-17H,8,10H2,2-6H3
Instrument: TripleTOF 6600 SCIEX
Instrument type: LC-ESI-QTOF
Ms type: MS2
Ion mode: POSITIVE
Collision energy: 40
Fragmentation mode: CID
Ionization: ESI
Column name: Zorbax Eclipse Plus C18 2.1 mm x 150 mm, 3.5 um, Agilent
Retention time: 14.861 min
Precursor m/z: 301.1798
Precursor type: [M+H]+
m/z	relative intensity
41.0392	27
43.0183	16
43.0545	22
50.0152	9
51.0229	37
55.0181	81
55.0543	38
57.0702	29
59.0493	20
65.0387	20
67.0554	91
69.0701	84
77.0388	627
79.0547	847
81.0703	440
83.0496	11
83.0856	23
85.0651	24
91.0547	67
93.0696	42
95.0495	38
95.086	95
101.0591	9
103.0546	529
105.045	22
105.0703	999
107.0493	11
107.0855	19
109.0649	52
109.1029	19
113.0606	23
115.0548	78
118.0415	18
119.0865	13
121.0647	34
121.1021	56
123.1168	342
128.0625	9
129.07	15
131.0858	16
133.0644	98
133.1011	11
143.0849	12
151.1141	19
156.0935	13
