Mass spectrum: Dipyridamole; LC-ESI-QTOF; MS2; 50 V
Name: Dipyridamole
Class: Pharmaceutical
Formula: C24H40N8O4
Exact mass: 504.3173
SMILES: OCCN(CCO)c1nc(N2CCCCC2)c3nc(nc(N4CCCCC4)c3n1)N(CCO)CCO
InChI: InChI=1S/C24H40N8O4/c33-15-11-31(12-16-34)23-26-20-19(21(27-23)29-7-3-1-4-8-29)25-24(32(13-17-35)14-18-36)28-22(20)30-9-5-2-6-10-30/h33-36H,1-18H2
Instrument: TripleTOF 5600 SCIEX
Instrument type: LC-ESI-QTOF
Ms type: MS2
Ion mode: POSITIVE
Collision energy: 50
Fragmentation mode: CID
Ionization: ESI
Column name: Zorbax Eclipse Plus C18 2.1 mm x 150 mm, 3.5 um, Agilent
Retention time: 7.666 min
Precursor m/z: 505.3245
Precursor type: [M+H]+
m/z	relative intensity
302.1728	10
346.1986	19
348.2121	17
360.2142	16
361.2082	10
385.2456	159
386.2423	18
399.2622	24
404.2394	29
411.2646	12
415.2555	10
416.2621	11
417.2354	25
420.2343	11
422.2508	28
429.2732	175
430.2792	25
431.2539	12
442.2768	13
443.2877	29
460.2904	27
461.2984	26
487.3145	50
503.3049	11
505.3246	999
