Mass spectrum: Noramidopyrine; LC-ESI-QTOF; MS2; 140 V
Name: Noramidopyrine
Class: Pharmaceutical
Formula: C12H15N3O
Exact mass: 217.1215
SMILES: CC1=C(C(=O)N(N1C)C2=CC=CC=C2)NC
InChI: InChI=1S/C12H15N3O/c1-9-11(13-2)12(16)15(14(9)3)10-7-5-4-6-8-10/h4-8,13H,1-3H3
Instrument: TripleTOF 6600 SCIEX
Instrument type: LC-ESI-QTOF
Ms type: MS2
Ion mode: POSITIVE
Collision energy: 140
Fragmentation mode: CID
Ionization: ESI
Column name: Zorbax Eclipse Plus C18 2.1 mm x 150 mm, 3.5 um, Agilent
Retention time: 4.819 min
Precursor m/z: 218.1288
Precursor type: [M+H]+
m/z	relative intensity
35.9992	24
37.0074	124
38.0034	24
38.0151	69
39.023	159
40.018	69
41.0261	269
42.0338	324
49.0071	184
50.0151	999
51.023	564
52.0179	44
53.0131	59
54.0334	39
56.0495	189
61.0082	34
62.015	49
63.0228	54
74.0146	79
77.0395	19
