Mass spectrum: 10,11-Dihydrocarbamazepine; LC-ESI-QTOF; MS2; 50 V
Name: 10,11-Dihydrocarbamazepine
Class: Pharmaceutical; Metabolite
Formula: C15H14N2O
Exact mass: 238.1106
SMILES: NC(=O)N1c2ccccc2CCc3ccccc13
InChI: InChI=1S/C15H14N2O/c16-15(18)17-13-7-3-1-5-11(13)9-10-12-6-2-4-8-14(12)17/h1-8H,9-10H2,(H2,16,18)
Instrument: TripleTOF 5600 SCIEX
Instrument type: LC-ESI-QTOF
Ms type: MS2
Ion mode: POSITIVE
Collision energy: 50
Fragmentation mode: CID
Ionization: ESI
Column name: Zorbax Eclipse Plus C18 2.1 mm x 150 mm, 3.5 um, Agilent
Retention time: 9.235 min
Precursor m/z: 239.1179
Precursor type: [M+H]+
m/z	relative intensity
65.0428	40
77.0412	23
91.0566	403
103.0539	16
115.0545	10
116.0491	29
117.0579	27
118.0657	82
119.0721	13
128.0504	25
151.0538	17
152.0623	55
165.0698	46
166.0697	34
167.075	166
168.0804	19
176.0617	12
177.0699	17
178.0754	80
179.0733	174
180.0816	999
181.0889	130
191.0726	17
192.0806	60
193.089	294
194.0968	510
196.1117	16
