Mass spectrum: Enalaprilat; LC-ESI-QTOF; MS2; 110 V
Name: Enalaprilat
Class: Pharmaceutical; Metabolite; Transformation_product
Formula: C18H24N2O5
Exact mass: 348.1685
SMILES: CC(C(=O)N1CCCC1C(=O)O)NC(CCC2=CC=CC=C2)C(=O)O
InChI: InChI=1S/C18H24N2O5/c1-12(16(21)20-11-5-8-15(20)18(24)25)19-14(17(22)23)10-9-13-6-3-2-4-7-13/h2-4,6-7,12,14-15,19H,5,8-11H2,1H3,(H,22,23)(H,24,25)/t12-,14-,15-/m0/s1
Instrument: TripleTOF 5600 SCIEX
Instrument type: LC-ESI-QTOF
Ms type: MS2
Ion mode: POSITIVE
Collision energy: 110
Fragmentation mode: CID
Ionization: ESI
Column name: Zorbax Eclipse Plus C18 2.1 mm x 150 mm, 3.5 um, Agilent
Retention time: 5.842 min
Precursor m/z: 349.1758
Precursor type: [M+H]+
m/z	relative intensity
56.0561	25
65.0431	185
70.068	48
91.0553	999
115.0537	193
116.0606	10
117.07	48
