Mass spectrum: Fenbendazole; LC-ESI-QTOF; MS2; 100 V
Name: Fenbendazole
Class: Pharmaceutical
Formula: C15H13N3O2S
Exact mass: 299.0728
SMILES: COC(=O)Nc1[nH]c2cc(Sc3ccccc3)ccc2n1
InChI: InChI=1S/C15H13N3O2S/c1-20-15(19)18-14-16-12-8-7-11(9-13(12)17-14)21-10-5-3-2-4-6-10/h2-9H,1H3,(H2,16,17,18,19)
Instrument: TripleTOF 5600 SCIEX
Instrument type: LC-ESI-QTOF
Ms type: MS2
Ion mode: POSITIVE
Collision energy: 100
Fragmentation mode: CID
Ionization: ESI
Column name: Zorbax Eclipse Plus C18 2.1 mm x 150 mm, 3.5 um, Agilent
Retention time: 9.947 min
Precursor m/z: 300.0801
Precursor type: [M+H]+
m/z	relative intensity
51.0292	35
52.0242	15
52.0354	20
53.0317	19
65.0303	14
65.0423	60
68.9823	74
69.0106	21
75.0118	46
76.0208	324
77.0294	999
78.036	123
79.0439	19
81.989	29
89.0396	17
90.035	26
91.0296	13
91.0419	21
92.0374	67
92.9794	25
93.044	20
93.9876	18
94.9956	65
96.0027	18
102.0435	17
103.0283	80
104.0369	579
105.0446	92
108.0017	11
108.9981	48
113.0379	12
115.0533	43
116.0359	13
118.0489	12
119.0465	32
119.9877	19
120.0544	12
120.9964	14
122.0051	61
123.0125	9
125.0363	10
126.0457	38
127.0532	108
128.0599	29
130.0388	64
131.0468	146
134.9987	10
136.0079	19
139.0534	42
140.0476	42
145.009	13
151.0468	10
152.0487	21
153.0563	19
154.0642	19
158.0323	15
159.0415	39
164.0482	17
166.0633	11
169.0096	14
170.0173	20
171.025	157
186.0355	10
196.0203	44
224.0388	12
