Mass spectrum: Venlafaxine; LC-ESI-QTOF; MS2; 110 V
Name: Venlafaxine
Class: Pharmaceutical
Formula: C17H27NO2
Exact mass: 277.2042
SMILES: CN(C)CC(c1ccc(cc1)OC)C2(CCCCC2)O
InChI: InChI=1S/C17H27NO2/c1-18(2)13-16(17(19)11-5-4-6-12-17)14-7-9-15(20-3)10-8-14/h7-10,16,19H,4-6,11-13H2,1-3H3
Instrument: TripleTOF 5600 SCIEX
Instrument type: LC-ESI-QTOF
Ms type: MS2
Ion mode: POSITIVE
Collision energy: 110
Fragmentation mode: CID
Ionization: ESI
Column name: Zorbax Eclipse Plus C18 2.1 mm x 150 mm, 3.5 um, Agilent
Retention time: 6.626 min
Precursor m/z: 278.2115
Precursor type: [M+H]+
m/z	relative intensity
42.044	224
43.0502	32
52.0355	73
56.0606	20
58.0713	999
65.0436	252
77.0413	583
78.0489	778
79.0569	69
81.0716	32
89.0406	81
91.0551	313
102.0473	32
103.0544	73
106.0437	16
115.0539	260
121.0655	69
127.0571	28
128.0617	73
131.0466	24
