Mass spectrum: Pirimicarb; LC-ESI-QTOF; MS2; 40 V
Name: Pirimicarb
Class: Insecticide
Formula: C11H18N4O2
Exact mass: 238.143
SMILES: CC1=C(N=C(N=C1OC(=O)N(C)C)N(C)C)C
InChI: InChI=1S/C11H18N4O2/c1-7-8(2)12-10(14(3)4)13-9(7)17-11(16)15(5)6/h1-6H3
Instrument: TripleTOF 6600 SCIEX
Instrument type: LC-ESI-QTOF
Ms type: CID
Ion mode: POSITIVE
Collision energy: 40
Ionization: ESI
Column name: Zorbax Eclipse Plus C18 2.1 mm x 150 mm, 3.5 um, Agilent
Retention time: 6.157 min
Precursor m/z: 239.1503
Precursor type: [M+H]+
m/z	relative intensity
72.045	999
83.0239	17
85.0762	86
109.0761	79
137.0709	32
138.0789	30
150.1023	17
152.0816	21
167.1047	11
182.129	58
