Mass spectrum: Nicosulfuron; LC-ESI-QTOF; MS2; 120 V
Name: Nicosulfuron
Class: Herbicide
Formula: C15H18N6O6S
Exact mass: 410.1009
SMILES: CN(C)C(=O)C1=C(N=CC=C1)S(=O)(=O)NC(=O)NC2=NC(=CC(=N2)OC)OC
InChI: InChI=1S/C15H18N6O6S/c1-21(2)13(22)9-6-5-7-16-12(9)28(24,25)20-15(23)19-14-17-10(26-3)8-11(18-14)27-4/h5-8H,1-4H3,(H2,17,18,19,20,23)
Instrument: TripleTOF 6600 SCIEX
Instrument type: LC-ESI-QTOF
Ms type: MS2
Ion mode: POSITIVE
Collision energy: 120
Fragmentation mode: CID
Ionization: ESI
Column name: Zorbax Eclipse Plus C18 2.1 mm x 150 mm, 3.5 um, Agilent
Retention time: 8.499 min
Precursor m/z: 411.1081
Precursor type: [M+H]+
m/z	relative intensity
38.0005	12
39.0204	24
40.0158	23
41.0237	28
43.0273	32
44.0471	14
49.005	16
50.0128	128
51.0209	696
52.016	14
53.0001	10
54.0323	14
55.0266	30
56.0107	101
57.0428	35
64.0151	44
65.0107	162
65.0363	21
66.0183	14
67.0029	35
68.0114	62
68.9953	83
69.0049	138
70.0258	17
78.0314	999
79.0368	12
81.0414	17
82.026	40
83.0215	536
91.0268	53
93.0057	284
94.0134	23
95.0218	10
106.0265	17
110.0325	16
138.0289	19
139.0489	12
