Mass spectrum: Febantel; LC-ESI-QTOF; MS2; 20 V
Name: Febantel
Class: Pharmaceutical
Formula: C20H22N4O6S
Exact mass: 446.126
SMILES: COCC(=O)Nc1cc(Sc2ccccc2)ccc1NC(NC(=O)OC)=NC(=O)OC
InChI: InChI=1S/C20H22N4O6S/c1-28-12-17(25)21-16-11-14(31-13-7-5-4-6-8-13)9-10-15(16)22-18(23-19(26)29-2)24-20(27)30-3/h4-11H,12H2,1-3H3,(H,21,25)(H2,22,23,24,26,27)
Instrument: TripleTOF 5600 SCIEX
Instrument type: LC-ESI-QTOF
Ms type: MS2
Ion mode: POSITIVE
Collision energy: 20
Fragmentation mode: CID
Ionization: ESI
Column name: Zorbax Eclipse Plus C18 2.1 mm x 150 mm, 3.5 um, Agilent
Retention time: 13.085 min
Precursor m/z: 447.1333
Precursor type: [M+H]+
m/z	relative intensity
227.065	49
229.0345	15
261.0627	77
267.0448	34
268.0542	95
280.0551	265
282.069	66
294.0353	17
297.0708	63
300.0811	40
306.0972	59
308.0499	38
311.058	28
312.0812	999
321.0787	11
323.061	330
325.0788	35
339.0945	42
340.0762	421
344.1067	154
