Mass spectrum: Ethylparaben; LC-ESI-QTOF; MS2; 10 V
Name: Ethylparaben
Class: Antimicrobial; Food_additive; Personal_care_product
Formula: C9H10O3
Exact mass: 166.063
SMILES: CCOC(=O)C1=CC=C(C=C1)O
InChI: InChI=1S/C9H10O3/c1-2-12-9(11)7-3-5-8(10)6-4-7/h3-6,10H,2H2,1H3
Instrument: TripleTOF 5600 SCIEX
Instrument type: LC-ESI-QTOF
Ms type: CID
Ion mode: POSITIVE
Collision energy: 10
Ionization: ESI
Column name: Zorbax Eclipse Plus C18 2.1 mm x 150 mm, 3.5 um, Agilent
Retention time: 8.834 min
Precursor m/z: 167.0703
Precursor type: [M+H]+
m/z	relative intensity
77.043	13
95.0513	74
121.0285	55
125.9876	39
139.0394	749
167.07	999
