Mass spectrum: Chloridazone-methyl-desphenyl; LC-ESI-QTOF; MS2; 150 V
Name: Chloridazone-methyl-desphenyl
Class: Herbicide; Transformation_product; Transformation_product-Metabolite
Formula: C5H6ClN3O
Exact mass: 159.0199
SMILES: CN1C(=O)C(=C(C=N1)N)Cl
InChI: InChI=1S/C5H6ClN3O/c1-9-5(10)4(6)3(7)2-8-9/h2H,7H2,1H3
Instrument: TripleTOF 6600 SCIEX
Instrument type: LC-ESI-QTOF
Ms type: MS2
Ion mode: POSITIVE
Collision energy: 150
Fragmentation mode: CID
Ionization: ESI
Column name: Zorbax Eclipse Plus C18 2.1 mm x 150 mm, 3.5 um, Agilent
Retention time: 4.787 min
Precursor m/z: 160.0272
Precursor type: [M+H]+
m/z	relative intensity
47.9718	999
