Mass spectrum: Formononetin; LC-ESI-QTOF; MS2; 90 V
Name: Formononetin
Class: Metabolite; Metabolite; Pharmaceutical
Formula: C16H12O4
Exact mass: 268.0736
SMILES: COc1ccc(cc1)C2=COc3cc(O)ccc3C2=O
InChI: InChI=1S/C16H12O4/c1-19-12-5-2-10(3-6-12)14-9-20-15-8-11(17)4-7-13(15)16(14)18/h2-9,17H,1H3
Instrument: TripleTOF 5600 SCIEX
Instrument type: LC-ESI-QTOF
Ms type: CID
Ion mode: POSITIVE
Collision energy: 90
Ionization: ESI
Column name: Zorbax Eclipse Plus C18 2.1 mm x 150 mm, 3.5 um, Agilent
Retention time: 10.093 min
Precursor m/z: 269.0808
Precursor type: [M+H]+
m/z	relative intensity
64.0353	32
65.043	47
69.0011	47
74.0187	28
75.0255	47
76.0342	10
77.0419	170
78.0502	16
80.0303	10
81.0373	47
89.0414	773
90.049	116
91.0565	54
92.028	27
101.0398	16
102.0473	57
103.0545	11
105.034	10
113.039	13
114.0465	20
115.0553	999
118.0415	27
125.0374	17
126.0468	62
127.0538	110
128.0623	94
131.0503	13
137.0234	10
139.054	247
140.0615	43
141.07	228
142.0415	12
149.0409	14
150.0465	109
151.0541	168
152.062	321
153.072	13
155.0482	13
168.0573	95
169.0646	45
171.0436	10
179.0486	16
181.0657	15
196.0521	27
197.0591	35
