Mass spectrum: Tris(1-chloro-2-propyl) phosphate; LC-ESI-QTOF; MS2; 150 V
Name: Tris(1-chloro-2-propyl) phosphate
Class: Industrial_process
Formula: C9H18Cl3O4P
Exact mass: 326.0008
SMILES: CC(CCl)OP(=O)(OC(C)CCl)OC(C)CCl
InChI: InChI=1S/C9H18Cl3O4P/c1-7(4-10)14-17(13,15-8(2)5-11)16-9(3)6-12/h7-9H,4-6H2,1-3H3
Instrument: TripleTOF 6600 SCIEX
Instrument type: LC-ESI-QTOF
Ms type: MS2
Ion mode: POSITIVE
Collision energy: 150
Fragmentation mode: CID
Ionization: ESI
Column name: Zorbax Eclipse Plus C18 2.1 mm x 150 mm, 3.5 um, Agilent
Retention time: 11.533 min
Precursor m/z: 327.0081
Precursor type: [M+H]+
m/z	relative intensity
37.007	35
38.0151	31
39.0226	81
46.9676	120
48.9834	74
62.9628	999
80.9731	304
98.9846	31
