Mass spectrum: 2-(4-Chlorophenyl)benzimidazole; LC-ESI-QTOF; MS2; 70 V
Name: 2-(4-Chlorophenyl)benzimidazole
Class: Pharmaceutical
Formula: C13H9ClN2
Exact mass: 228.0454
SMILES: C1=CC=C2C(=C1)NC(=N2)C3=CC=C(C=C3)Cl
InChI: InChI=1S/C13H9ClN2/c14-10-7-5-9(6-8-10)13-15-11-3-1-2-4-12(11)16-13/h1-8H,(H,15,16)
Instrument: TripleTOF 5600 SCIEX
Instrument type: LC-ESI-QTOF
Ms type: MS2
Ion mode: POSITIVE
Collision energy: 70
Fragmentation mode: CID
Ionization: ESI
Column name: Zorbax Eclipse Plus C18 2.1 mm x 150 mm, 3.5 um, Agilent
Retention time: 6.754 min
Precursor m/z: 229.0527
Precursor type: [M+H]+
m/z	relative intensity
64.0382	348
74.0213	53
75.0286	144
77.0436	158
89.042	514
90.0484	329
91.0455	318
92.0531	535
104.0517	99
111.0012	93
115.056	91
118.0544	53
127.0563	72
138.0473	66
139.0548	599
140.0503	449
154.0658	69
164.0507	139
165.0564	141
166.0656	942
167.0726	337
168.0741	77
191.0611	149
192.068	972
193.0763	999
194.0847	187
