Mass spectrum: Tryptamine; LC-ESI-QTOF; MS2; 50 V
Name: Tryptamine
Class: Metabolite
Formula: C10H12N2
Exact mass: 160.1
SMILES: C1=CC=C2C(=C1)C(=CN2)CCN
InChI: InChI=1S/C10H12N2/c11-6-5-8-7-12-10-4-2-1-3-9(8)10/h1-4,7,12H,5-6,11H2
Instrument: TripleTOF 5600 SCIEX
Instrument type: LC-ESI-QTOF
Ms type: MS2
Ion mode: POSITIVE
Collision energy: 50
Fragmentation mode: CID
Ionization: ESI
Column name: Zorbax Eclipse Plus C18 2.1 mm x 150 mm, 3.5 um, Agilent
Retention time: 4.966 min
Precursor m/z: 161.1073
Precursor type: [M+H]+
m/z	relative intensity
51.0236	32
63.0232	39
65.0387	129
75.0226	25
77.0383	269
78.0473	17
89.0383	305
90.0468	215
91.0542	600
101.0388	57
102.0466	35
103.0547	35
115.0542	999
116.0597	168
117.0581	646
118.065	25
126.0467	64
127.0539	201
128.0498	140
129.0486	17
129.0603	21
140.0484	32
141.0537	32
142.0659	150
143.0736	431
144.082	71
