Mass spectrum: Kresoxim-methyl; LC-ESI-QTOF; MS2; 30 V
Name: Kresoxim-methyl
Class: Fungicide
Formula: C18H19NO4
Exact mass: 313.1314
SMILES: CC1=CC=CC=C1OCC2=CC=CC=C2C(=NOC)C(=O)OC
InChI: InChI=1S/C18H19NO4/c1-13-8-4-7-11-16(13)23-12-14-9-5-6-10-15(14)17(19-22-3)18(20)21-2/h4-11H,12H2,1-3H3
Instrument: TripleTOF 6600 SCIEX
Instrument type: LC-ESI-QTOF
Ms type: MS2
Ion mode: POSITIVE
Collision energy: 30
Fragmentation mode: CID
Ionization: ESI
Column name: Zorbax Eclipse Plus C18 2.1 mm x 150 mm, 3.5 um, Agilent
Retention time: 13.809 min
Precursor m/z: 314.1387
Precursor type: [M+H]+
m/z	relative intensity
89.0364	20
91.0533	40
105.0698	13
116.0484	216
117.0558	29
118.0636	29
119.0479	14
121.0617	29
130.0646	19
131.072	132
132.0434	14
132.0797	60
135.0426	33
146.0585	136
152.0607	12
153.0675	10
165.0681	17
166.0717	23
167.0802	39
168.0789	16
177.0675	25
178.0755	80
179.0833	90
180.0787	94
181.096	27
191.0846	15
193.0938	57
194.0702	27
194.095	340
195.0781	41
195.1031	62
203.0719	16
204.08	99
205.0846	13
206.0598	17
206.0885	42
207.0749	257
208.0862	225
209.0893	15
220.0739	14
220.1053	11
221.0831	15
222.0898	999
223.0979	665
224.1042	38
225.0891	24
232.0789	21
235.0739	463
236.0787	25
237.1131	16
238.1222	55
250.0854	46
254.1156	56
282.1108	16
