Mass spectrum: Clenbuterol; LC-ESI-QTOF; MS2; 50 V
Name: Clenbuterol
Class: Pharmaceutical; Transformation_product-Metabolite
Formula: C12H18Cl2N2O
Exact mass: 276.0796
SMILES: CC(C)(C)NCC(c1cc(c(c(c1)Cl)N)Cl)O
InChI: InChI=1S/C12H18Cl2N2O/c1-12(2,3)16-6-10(17)7-4-8(13)11(15)9(14)5-7/h4-5,10,16-17H,6,15H2,1-3H3
Instrument: TripleTOF 5600 SCIEX
Instrument type: LC-ESI-QTOF
Ms type: MS2
Ion mode: POSITIVE
Collision energy: 50
Fragmentation mode: CID
Ionization: ESI
Column name: Zorbax Eclipse Plus C18 2.1 mm x 150 mm, 3.5 um, Agilent
Retention time: 6.115 min
Precursor m/z: 277.0869
Precursor type: [M+H]+
m/z	relative intensity
57.0755	49
104.0504	60
105.0578	32
106.0651	21
116.05	13
131.061	177
132.0692	999
133.0764	94
140.0267	258
141.0348	31
151.0188	107
152.026	25
153.0211	16
167.038	297
168.0458	849
173.9878	20
185.9872	12
203.0125	11
