Mass spectrum: Tetraconazole; LC-ESI-QTOF; MS2; 110 V
Name: Tetraconazole
Class: Fungicide
Formula: C13H11Cl2F4N3O
Exact mass: 371.0215
SMILES: C1=CC(=C(C=C1Cl)Cl)C(CN2C=NC=N2)COC(C(F)F)(F)F
InChI: InChI=1S/C13H11Cl2F4N3O/c14-9-1-2-10(11(15)3-9)8(4-22-7-20-6-21-22)5-23-13(18,19)12(16)17/h1-3,6-8,12H,4-5H2
Instrument: TripleTOF 6600 SCIEX
Instrument type: LC-ESI-QTOF
Ms type: MS2
Ion mode: POSITIVE
Collision energy: 110
Fragmentation mode: CID
Ionization: ESI
Column name: Zorbax Eclipse Plus C18 2.1 mm x 150 mm, 3.5 um, Agilent
Retention time: 12.382 min
Precursor m/z: 372.0288
Precursor type: [M+H]+
m/z	relative intensity
39.0231	10
43.0294	70
46.9681	12
48.9841	16
51.0042	78
61.0074	21
62.0152	71
63.0233	164
65.0385	11
70.0404	216
72.9842	333
82.9449	27
87.023	20
88.0311	72
89.039	999
96.9841	127
98.9998	209
106.945	13
107.0289	20
113.0388	18
114.0469	28
115.0546	220
122.9998	385
124.0075	106
132.9608	97
133.0448	13
149.0159	12
158.9765	104
