Mass spectrum: Cyproconazole; LC-ESI-QTOF; MS2; 90 V
Name: Cyproconazole
Class: Fungicide
Formula: C15H18ClN3O
Exact mass: 291.1138
SMILES: CC(C1CC1)C(CN2C=NC=N2)(C3=CC=C(C=C3)Cl)O
InChI: InChI=1S/C15H18ClN3O/c1-11(12-2-3-12)15(20,8-19-10-17-9-18-19)13-4-6-14(16)7-5-13/h4-7,9-12,20H,2-3,8H2,1H3
Instrument: TripleTOF 6600 SCIEX
Instrument type: LC-ESI-QTOF
Ms type: MS2
Ion mode: POSITIVE
Collision energy: 90
Fragmentation mode: CID
Ionization: ESI
Column name: Zorbax Eclipse Plus C18 2.1 mm x 150 mm, 3.5 um, Agilent
Retention time: 11.30515 min
Precursor m/z: 292.1211
Precursor type: [M+H]+
m/z	relative intensity
39.0194	38
41.035	12
43.0254	164
48.9791	13
51.018	13
62.0095	32
63.0173	182
64.0247	13
65.0326	27
70.034	999
72.9771	125
74.0081	28
74.9925	21
75.0159	92
77.0313	19
89.0307	561
90.0382	186
98.9906	298
110.9891	33
115.0435	19
125.0036	270
128.0501	17
