Mass spectrum: Oxcarbazepine; LC-ESI-QTOF; MS2; 80 V
Name: Oxcarbazepine
Class: Pharmaceutical
Formula: C15H12N2O2
Exact mass: 252.0899
SMILES: NC(=O)N1c2ccccc2CC(=O)c3ccccc13
InChI: InChI=1S/C15H12N2O2/c16-15(19)17-12-7-3-1-5-10(12)9-14(18)11-6-2-4-8-13(11)17/h1-8H,9H2,(H2,16,19)
Instrument: TripleTOF 5600 SCIEX
Instrument type: LC-ESI-QTOF
Ms type: MS2
Ion mode: POSITIVE
Collision energy: 80
Fragmentation mode: CID
Ionization: ESI
Column name: Zorbax Eclipse Plus C18 2.1 mm x 150 mm, 3.5 um, Agilent
Retention time: 8.323 min
Precursor m/z: 253.0972
Precursor type: [M+H]+
m/z	relative intensity
74.018	20
75.0256	70
77.0413	235
89.0399	55
90.0485	12
91.0557	11
101.0391	165
102.034	26
102.046	24
104.05	13
113.0384	27
114.0455	22
115.0542	83
116.0509	11
117.0575	12
125.0377	28
126.0474	66
127.0541	143
128.0499	270
129.0469	20
138.0468	12
139.0541	232
140.0492	170
141.0571	24
149.0402	10
150.046	89
151.0542	368
152.0622	999
153.0601	120
154.0652	65
163.0542	90
164.06	97
165.0692	98
166.0652	226
167.0728	165
177.0572	106
178.0658	695
179.073	563
180.0809	927
190.066	42
191.0738	51
192.0812	19
