Mass spectrum: Amantadine; LC-ESI-QTOF; MS2; 50 V
Name: Amantadine
Class: Pharmaceutical
Formula: C10H17N
Exact mass: 151.1361
SMILES: C1C2CC3CC1CC(C2)(C3)N
InChI: InChI=1S/C10H17N/c11-10-4-7-1-8(5-10)3-9(2-7)6-10/h7-9H,1-6,11H2
Instrument: TripleTOF 5600 SCIEX
Instrument type: LC-ESI-QTOF
Ms type: MS2
Ion mode: POSITIVE
Collision energy: 50
Fragmentation mode: CID
Ionization: ESI
Column name: Zorbax Eclipse Plus C18 2.1 mm x 150 mm, 3.5 um, Agilent
Retention time: 5.148 min
Precursor m/z: 152.1434
Precursor type: [M+H]+
m/z	relative intensity
39.023	36
41.0387	41
50.0147	16
51.0227	72
53.0383	23
55.0545	72
65.0384	100
67.054	189
69.0692	25
77.0385	999
78.045	23
79.0539	684
81.0695	216
91.0539	513
93.0698	389
103.0527	10
105.0685	78
107.085	176
135.1168	160
