Mass spectrum: Flufenacet ESA; LC-ESI-QTOF; MS2; 110 V
Name: Flufenacet ESA
Class: Herbicide; Transformation_product
Formula: C11H14FNO4S
Exact mass: 275.0628
SMILES: CC(C)N(C1=CC=C(C=C1)F)C(=O)CS(=O)(=O)O
InChI: InChI=1S/C11H14FNO4S/c1-8(2)13(11(14)7-18(15,16)17)10-5-3-9(12)4-6-10/h3-6,8H,7H2,1-2H3,(H,15,16,17)
Instrument: TripleTOF 6600 SCIEX
Instrument type: LC-ESI-QTOF
Ms type: MS2
Ion mode: POSITIVE
Collision energy: 110
Fragmentation mode: CID
Ionization: ESI
Column name: Zorbax Eclipse Plus C18 2.1 mm x 150 mm, 3.5 um, Agilent
Retention time: 6.781 min
Precursor m/z: 276.07
Precursor type: [M+H]+
m/z	relative intensity
37.0072	20
38.0146	10
39.0225	65
41.0383	20
49.0072	20
50.0146	80
51.0228	96
52.0161	10
57.0131	166
59.0295	15
61.0059	13
62.0153	20
63.0223	83
63.9606	15
64.0296	28
64.9681	15
65.0381	28
68.0054	13
69.0128	75
70.0205	28
73.0068	72
74.015	881
75.0226	999
77.0382	54
80.9638	15
81.0124	26
83.0286	184
84.0362	44
95.0286	140
96.0364	49
97.0436	10
107.0284	26
109.0441	52
111.0485	26
123.0344	41
