Mass spectrum: Amethopterin; LC-ESI-QTOF; MS2; 80 V
Name: Amethopterin
Class: Pharmaceutical
Formula: C20H22N8O5
Exact mass: 454.1713
SMILES: CN(Cc1cnc2nc(N)nc(N)c2n1)c3ccc(cc3)C(=O)NC(CCC(O)=O)C(O)=O
InChI: InChI=1S/C20H22N8O5/c1-28(9-11-8-23-17-15(24-11)16(21)26-20(22)27-17)12-4-2-10(3-5-12)18(31)25-13(19(32)33)6-7-14(29)30/h2-5,8,13H,6-7,9H2,1H3,(H,25,31)(H,29,30)(H,32,33)(H4,21,22,23,26,27)
Instrument: TripleTOF 5600 SCIEX
Instrument type: LC-ESI-QTOF
Ms type: CID
Ion mode: NEGATIVE
Collision energy: 80
Ionization: ESI
Column name: Zorbax Eclipse Plus C18 2.1 mm x 150 mm, 3.5 um, Agilent
Retention time: 5.057 min
Precursor m/z: 453.164
Precursor type: [M-H]-
m/z	relative intensity
41.0167	264
41.0277	117
42.0006	58
66.0119	117
84.0455	58
102.0319	58
104.0501	88
105.0601	205
106.0656	646
119.0345	117
130.029	58
131.0606	88
132.044	999
133.0535	117
149.0721	146
150.0554	58
157.0403	88
161.0709	146
163.094	58
174.0639	88
191.1176	58
