Mass spectrum: Haloxyfop-methyl; LC-ESI-QTOF; MS2; 40 V
Name: Haloxyfop-methyl
Class: Herbicide
Formula: C16H13ClF3NO4
Exact mass: 375.0485
SMILES: COC(=O)C(C)Oc1ccc(Oc2ncc(cc2Cl)C(F)(F)F)cc1
InChI: InChI=1S/C16H13ClF3NO4/c1-9(15(22)23-2)24-11-3-5-12(6-4-11)25-14-13(17)7-10(8-21-14)16(18,19)20/h3-9H,1-2H3
Instrument: TripleTOF 5600 SCIEX
Instrument type: LC-ESI-QTOF
Ms type: MS2
Ion mode: POSITIVE
Collision energy: 40
Fragmentation mode: CID
Ionization: ESI
Column name: Zorbax Eclipse Plus C18 2.1 mm x 150 mm, 3.5 um, Agilent
Retention time: 14.891 min
Precursor m/z: 376.0558
Precursor type: [M+H]+
m/z	relative intensity
65.0407	27
91.0557	999
119.0481	116
120.0559	17
121.0271	85
197.9954	44
209.0444	27
216.0228	13
219.0056	17
219.0406	24
232.0129	44
237.036	17
245.0201	20
246.0302	27
247.0404	34
248.026	34
252.0621	30
260.0456	106
261.0147	24
270.0344	48
272.0087	772
272.0587	13
288.0047	164
288.0396	806
289.0105	51
290.0191	24
316.0343	662
