Mass spectrum: 4,4`-Methylenebis(2-chloroaniline); LC-ESI-QTOF; MS2; 150 V
Name: 4,4`-Methylenebis(2-chloroaniline)
Formula: C13H12Cl2N2
Exact mass: 266.0378
SMILES: C1=CC(=C(C=C1CC2=CC(=C(C=C2)N)Cl)Cl)N
InChI: InChI=1S/C13H12Cl2N2/c14-10-6-8(1-3-12(10)16)5-9-2-4-13(17)11(15)7-9/h1-4,6-7H,5,16-17H2
Instrument: TripleTOF 6600 SCIEX
Instrument type: LC-ESI-QTOF
Ms type: MS2
Ion mode: POSITIVE
Collision energy: 150
Fragmentation mode: CID
Ionization: ESI
Column name: Zorbax Eclipse Plus C18 2.1 mm x 150 mm, 3.5 um, Agilent
Retention time: 11.747 min
Precursor m/z: 267.045
Precursor type: [M+H]+
m/z	relative intensity
37.0076	87
38.0155	55
39.0238	151
49.0074	151
50.0158	991
51.0231	999
52.0189	103
61.0072	255
62.015	271
63.023	327
65.0388	63
72.9826	39
73.0074	95
74.0153	759
75.0224	183
76.0319	47
77.0382	199
85.007	103
86.0154	151
87.0228	111
89.0389	135
97.0077	55
98.0155	519
99.0246	79
100.0263	39
104.0496	39
110.0155	79
113.0393	103
122.0148	63
123.0191	39
126.0455	31
137.038	31
139.0549	111
150.0482	95
151.0578	55
