Mass spectrum: Iotalamic acid; LC-ESI-QTOF; MS2; 30 V
Name: Iotalamic acid
Class: Pharmaceutical
Formula: C11H9I3N2O4
Exact mass: 613.7697
SMILES: CNC(c1c(I)c(C(O)=O)c(I)c(NC(C)=O)c1I)=O
InChI: InChI=1S/C11H9I3N2O4/c1-3(17)16-9-7(13)4(10(18)15-2)6(12)5(8(9)14)11(19)20/h1-2H3,(H,15,18)(H,16,17)(H,19,20)
Instrument: TripleTOF 5600 SCIEX
Instrument type: LC-ESI-QTOF
Ms type: MS2
Ion mode: POSITIVE
Collision energy: 30
Fragmentation mode: CID
Ionization: ESI
Column name: Zorbax Eclipse Plus C18 2.1 mm x 150 mm, 3.5 um, Agilent
Retention time: 4.565 min
Precursor m/z: 614.7769
Precursor type: [M+H]+
m/z	relative intensity
177.0409	13
289.9324	11
301.9294	35
302.9391	13
318.9566	11
360.9675	999
411.8397	26
428.8343	353
429.843	11
430.8532	25
441.8664	28
445.8574	73
455.821	315
456.827	65
468.8518	189
486.8638	472
487.871	75
583.7329	241
614.7697	73
