Mass spectrum: Enrofloxacin; LC-ESI-QTOF; MS2; 150 V
Name: Enrofloxacin
Class: Pharmaceutical; Antimicrobial
Formula: C19H22FN3O3
Exact mass: 359.1645
SMILES: CCN1CCN(CC1)c2cc3N(C=C(C(O)=O)C(=O)c3cc2F)C4CC4
InChI: InChI=1S/C19H22FN3O3/c1-2-21-5-7-22(8-6-21)17-10-16-13(9-15(17)20)18(24)14(19(25)26)11-23(16)12-3-4-12/h9-12H,2-8H2,1H3,(H,25,26)
Instrument: TripleTOF 5600 SCIEX
Instrument type: LC-ESI-QTOF
Ms type: MS2
Ion mode: POSITIVE
Collision energy: 150
Fragmentation mode: CID
Ionization: ESI
Column name: Zorbax Eclipse Plus C18 2.1 mm x 150 mm, 3.5 um, Agilent
Retention time: 5.696 min
Precursor m/z: 360.1718
Precursor type: [M+H]+
m/z	relative intensity
42.0419	458
53.011	188
57.0169	161
73.0114	188
74.0191	809
75.0249	755
77.0422	188
81.0171	351
81.0325	108
82.0117	161
83.0314	134
85.0095	108
85.0153	108
86.0165	297
87.0245	216
88.0229	242
89.0401	323
93.0139	216
94.023	242
95.0328	108
96.0391	161
98.0157	404
98.0319	134
99.0236	539
100.0201	432
101.0376	188
102.0412	216
105.0152	432
106.0201	161
107.0294	999
108.0383	134
113.037	108
114.035	161
120.0367	216
125.0402	161
126.0369	188
127.0554	188
128.0501	108
131.03	134
132.0262	513
139.0534	134
140.0461	161
140.054	108
144.0363	108
145.0479	134
146.0537	134
154.0599	108
158.038	134
