Mass spectrum: Isopropyl diphenyl phosphate; LC-ESI-QTOF; MS2; 20 V
Name: Isopropyl diphenyl phosphate
Formula: C15H17O4P
Exact mass: 292.0864
SMILES: CC(C)OP(=O)(OC1=CC=CC=C1)OC2=CC=CC=C2
InChI: InChI=1S/C15H17O4P/c1-13(2)17-20(16,18-14-9-5-3-6-10-14)19-15-11-7-4-8-12-15/h3-13H,1-2H3
Instrument: TripleTOF 6600 SCIEX
Instrument type: LC-ESI-QTOF
Ms type: MS2
Ion mode: POSITIVE
Collision energy: 20
Fragmentation mode: CID
Ionization: ESI
Column name: Zorbax Eclipse Plus C18 2.1 mm x 150 mm, 3.5 um, Agilent
Retention time: 12.828 min
Precursor m/z: 293.0937
Precursor type: [M+H]+
m/z	relative intensity
251.0468	999
252.0505	20
