Mass spectrum: Oseltamivir; LC-ESI-QTOF; MS2; 70 V
Name: Oseltamivir
Class: Pharmaceutical
Formula: C16H28N2O4
Exact mass: 312.2049
SMILES: CCC(CC)O[C@@H]1C=C(C[C@@H]([C@H]1/N=C(\C)/O)N)C(=O)OCC
InChI: InChI=1S/C16H28N2O4/c1-5-12(6-2)22-14-9-11(16(20)21-7-3)8-13(17)15(14)18-10(4)19/h9,12-15H,5-8,17H2,1-4H3,(H,18,19)/t13-,14+,15+/m0/s1
Instrument: TripleTOF 5600 SCIEX
Instrument type: LC-ESI-QTOF
Ms type: MS2
Ion mode: POSITIVE
Collision energy: 70
Fragmentation mode: CID
Ionization: ESI
Column name: Zorbax Eclipse Plus C18 2.1 mm x 150 mm, 3.5 um, Agilent
Retention time: 6.973 min
Precursor m/z: 313.2122
Precursor type: [M+H]+
m/z	relative intensity
43.0252	35
51.0276	10
55.0591	11
65.0436	778
66.0501	52
67.0581	189
68.0531	51
77.042	531
78.0375	12
79.0566	13
80.0523	277
81.0596	22
82.0673	162
83.0556	25
92.0517	999
93.0577	501
94.029	11
94.0667	574
95.05	18
106.0642	17
108.0447	30
108.0682	18
109.0528	23
109.0761	143
110.0367	12
110.0595	72
111.0387	13
119.0603	73
120.0449	886
137.0461	74
137.0711	64
138.0544	97
166.0853	19
