Mass spectrum: Butylphosphonic acid; LC-ESI-QTOF; MS2; 60 V
Name: Butylphosphonic acid
Formula: C4H11O3P
Exact mass: 138.0446
SMILES: CCCCP(=O)(O)O
InChI: InChI=1S/C4H11O3P/c1-2-3-4-8(5,6)7/h2-4H2,1H3,(H2,5,6,7)
Instrument: TripleTOF 5600 SCIEX
Instrument type: LC-ESI-QTOF
Ms type: MS2
Ion mode: POSITIVE
Collision energy: 60
Fragmentation mode: CID
Ionization: ESI
Column name: Zorbax Eclipse Plus C18 2.1 mm x 150 mm, 3.5 um, Agilent
Retention time: 4.77 min
Precursor m/z: 139.0519
Precursor type: [M+H]+
m/z	relative intensity
36.0006	58
37.0078	176
38.0155	117
39.0231	881
41.039	411
46.9682	999
47.976	117
53.0376	58
55.0537	58
60.9847	58
62.9615	58
64.9792	705
77.988	58
80.9718	470
