Mass spectrum: Atenolol acid; LC-ESI-QTOF; MS2; 40 V
Name: Atenolol acid
Class: Pharmaceutical; Transformation_product-Metabolite
Formula: C14H21NO4
Exact mass: 267.1471
SMILES: CC(C)NCC(COC1=CC=C(C=C1)CC(=O)O)O
InChI: InChI=1S/C14H21NO4/c1-10(2)15-8-12(16)9-19-13-5-3-11(4-6-13)7-14(17)18/h3-6,10,12,15-16H,7-9H2,1-2H3,(H,17,18)
Instrument: TripleTOF 5600 SCIEX
Instrument type: LC-ESI-QTOF
Ms type: MS2
Ion mode: POSITIVE
Collision energy: 40
Fragmentation mode: CID
Ionization: ESI
Column name: Zorbax Eclipse Plus C18 2.1 mm x 150 mm, 3.5 um, Agilent
Retention time: 4.893 min
Precursor m/z: 268.1543
Precursor type: [M+H]+
m/z	relative intensity
41.0392	10
43.0546	13
56.0498	230
58.0647	27
72.0812	122
74.0602	99
77.039	41
79.0543	101
81.0705	18
84.0799	13
89.0384	29
91.0546	153
93.0705	15
95.0498	39
98.0963	63
100.1113	16
105.0709	14
107.0491	64
109.0646	46
115.0551	71
116.1071	62
117.0338	21
117.0701	102
119.0492	98
123.0445	35
127.0549	15
133.0644	30
135.044	65
137.06	74
144.0571	10
145.0652	999
163.0505	88
163.0739	26
165.0554	162
191.0703	100
226.1067	10
