Mass spectrum: 2,6-Dichlorodiphenylamine; LC-ESI-QTOF; MS2; 20 V
Name: 2,6-Dichlorodiphenylamine
Class: Pharmaceutical
Formula: C12H9Cl2N
Exact mass: 237.0112
SMILES: C1=CC=C(C=C1)NC2=C(C=CC=C2Cl)Cl
InChI: InChI=1S/C12H9Cl2N/c13-10-7-4-8-11(14)12(10)15-9-5-2-1-3-6-9/h1-8,15H
Instrument: TripleTOF 5600 SCIEX
Instrument type: LC-ESI-QTOF
Ms type: MS2
Ion mode: POSITIVE
Collision energy: 20
Fragmentation mode: CID
Ionization: ESI
Column name: Zorbax Eclipse Plus C18 2.1 mm x 150 mm, 3.5 um, Agilent
Retention time: 14.125 min
Precursor m/z: 238.0185
Precursor type: [M+H]+
m/z	relative intensity
92.0525	10
93.059	11
159.9711	110
160.9773	13
168.0804	11
203.05	177
238.0184	999
