Mass spectrum: Etrimfos; LC-ESI-QTOF; MS2; 100 V
Name: Etrimfos
Class: Insecticide
Formula: C10H17N2O4PS
Exact mass: 292.0647
SMILES: CCC1=NC(=CC(=N1)OP(=S)(OC)OC)OCC
InChI: InChI=1S/C10H17N2O4PS/c1-5-8-11-9(15-6-2)7-10(12-8)16-17(18,13-3)14-4/h7H,5-6H2,1-4H3
Instrument: TripleTOF 6600 SCIEX
Instrument type: LC-ESI-QTOF
Ms type: MS2
Ion mode: POSITIVE
Collision energy: 100
Fragmentation mode: CID
Ionization: ESI
Column name: Zorbax Eclipse Plus C18 2.1 mm x 150 mm, 3.5 um, Agilent
Retention time: 14.241 min
Precursor m/z: 293.072
Precursor type: [M+H]+
m/z	relative intensity
40.0176	71
42.0323	13
43.9705	25
44.979	999
45.986	38
46.9709	316
46.9891	533
48.9831	15
56.0487	51
56.978	14
62.0166	10
62.9442	40
62.9985	53
64.9768	10
68.012	148
68.996	11
78.9383	22
78.9931	138
79.9467	10
93.0091	29
110.9648	13
