Mass spectrum: Lapatinib; LC-ESI-QTOF; MS2; 90 V
Name: Lapatinib
Class: Pharmaceutical
Formula: C29H26ClFN4O4S
Exact mass: 580.1347
SMILES: CS(=O)(CCNCC1=CC=C(C2=CC3=C(N=CN=C3NC4=CC(Cl)=C(OCC5=CC(F)=CC=C5)C=C4)C=C2)O1)=O
InChI: InChI=1S/C29H26ClFN4O4S/c1-40(36,37)12-11-32-16-23-7-10-27(39-23)20-5-8-26-24(14-20)29(34-18-33-26)35-22-6-9-28(25(30)15-22)38-17-19-3-2-4-21(31)13-19/h2-10,13-15,18,32H,11-12,16-17H2,1H3,(H,33,34,35)
Instrument: TripleTOF 5600 SCIEX
Instrument type: LC-ESI-QTOF
Ms type: MS2
Ion mode: NEGATIVE
Collision energy: 90
Fragmentation mode: CID
Ionization: ESI
Column name: Zorbax Eclipse Plus C18 2.1 mm x 150 mm, 3.5 um, Agilent
Retention time: 8.263 min
Precursor m/z: 579.1275
Precursor type: [M-H]-
m/z	relative intensity
192.032	104
205.061	124
220.0519	999
233.0608	83
242.068	83
244.0572	62
256.0891	83
257.0601	270
270.063	83
271.0811	62
272.0943	62
283.0761	124
284.0907	83
292.0322	62
294.0649	83
297.0525	83
297.0778	83
298.0734	83
310.0627	104
311.0711	145
318.0411	124
319.0598	104
324.0876	62
325.0786	124
327.0818	83
346.0374	437
347.0495	312
348.0594	62
349.0691	83
360.0469	62
361.0585	353
362.0586	83
363.0652	124
