Mass spectrum: Food Yellow 3 free acid; LC-ESI-QTOF; MS2; 140 V
Name: Food Yellow 3 free acid
Formula: C16H12N2O7S2
Exact mass: 408.0086
SMILES: C1=CC(=CC=C1N=NC2=C(C=CC3=C2C=CC(=C3)S(=O)(=O)O)O)S(=O)(=O)O
InChI: InChI=1S/C16H12N2O7S2/c19-15-8-1-10-9-13(27(23,24)25)6-7-14(10)16(15)18-17-11-2-4-12(5-3-11)26(20,21)22/h1-9,19H,(H,20,21,22)(H,23,24,25)
Instrument: TripleTOF 6600 SCIEX
Instrument type: LC-ESI-QTOF
Ms type: MS2
Ion mode: POSITIVE
Collision energy: 140
Fragmentation mode: CID
Ionization: ESI
Column name: Zorbax Eclipse Plus C18 2.1 mm x 150 mm, 3.5 um, Agilent
Retention time: 5.59 min
Precursor m/z: 409.0159
Precursor type: [M+H]+
m/z	relative intensity
37.007	37
38.0148	38
39.0232	277
49.0066	11
50.0146	199
51.0227	112
52.0303	17
53.0387	293
54.0332	10
61.007	56
62.0145	162
63.0223	301
64.0181	16
64.9694	22
65.0382	284
66.0333	10
73.0073	80
74.0149	999
75.0105	114
75.0206	168
76.0184	57
76.0301	81
77.0382	22
80.0488	533
81.0324	11
86.0147	37
87.022	62
88.0188	19
88.0298	11
89.0376	90
98.0144	236
99.0101	177
99.0217	66
100.0184	103
100.0303	121
101.025	34
102.0453	15
108.044	14
114.0319	19
126.0461	16
127.041	25
139.0505	11
149.0371	28
150.0453	17
151.0504	12
163.0542	31
164.0504	11
174.0467	26
175.0477	34
176.0534	16
188.0495	24
190.0662	19
201.0568	30
216.0667	17
227.062	15
