Mass spectrum: Etofibrate; LC-ESI-QTOF; MS2; 20 V
Name: Etofibrate
Class: Pharmaceutical
Formula: C18H18ClNO5
Exact mass: 363.0874
SMILES: CC(C)(C(=O)OCCOC(=O)C1=CN=CC=C1)OC2=CC=C(C=C2)Cl
InChI: InChI=1S/C18H18ClNO5/c1-18(2,25-15-7-5-14(19)6-8-15)17(22)24-11-10-23-16(21)13-4-3-9-20-12-13/h3-9,12H,10-11H2,1-2H3
Instrument: TripleTOF 6600 SCIEX
Instrument type: LC-ESI-QTOF
Ms type: MS2
Ion mode: POSITIVE
Collision energy: 20
Fragmentation mode: CID
Ionization: ESI
Column name: Zorbax Eclipse Plus C18 2.1 mm x 150 mm, 3.5 um, Agilent
Retention time: 12.631 min
Precursor m/z: 364.0946
Precursor type: [M+H]+
m/z	relative intensity
106.0274	10
113.0588	40
114.0665	36
124.0382	16
150.0544	315
168.0649	38
169.0408	74
236.0915	55
237.0991	52
241.062	20
364.0953	999
