Mass spectrum: 4,4`-Methylenebis(2-chloroaniline); LC-ESI-QTOF; MS2; 90 V
Name: 4,4`-Methylenebis(2-chloroaniline)
Formula: C13H12Cl2N2
Exact mass: 266.0378
SMILES: C1=CC(=C(C=C1CC2=CC(=C(C=C2)N)Cl)Cl)N
InChI: InChI=1S/C13H12Cl2N2/c14-10-6-8(1-3-12(10)16)5-9-2-4-13(17)11(15)7-9/h1-4,6-7H,5,16-17H2
Instrument: TripleTOF 6600 SCIEX
Instrument type: LC-ESI-QTOF
Ms type: MS2
Ion mode: POSITIVE
Collision energy: 90
Fragmentation mode: CID
Ionization: ESI
Column name: Zorbax Eclipse Plus C18 2.1 mm x 150 mm, 3.5 um, Agilent
Retention time: 11.747 min
Precursor m/z: 267.045
Precursor type: [M+H]+
m/z	relative intensity
39.0239	11
50.0148	105
51.0234	498
52.0174	25
62.0156	17
63.0234	74
65.0376	42
72.9838	25
74.0149	60
75.023	166
76.0308	37
77.0385	987
78.0342	40
78.0464	128
79.0422	14
86.0151	17
87.0226	22
88.0346	14
89.0391	148
90.0353	11
91.0536	17
98.015	34
99.0251	77
100.0306	20
101.0393	62
102.0332	14
102.0463	85
103.0555	37
104.0489	558
105.0429	17
105.058	68
113.0137	22
113.038	60
114.0118	20
114.046	31
115.0542	735
116.056	37
117.0579	17
125.0372	123
126.0458	260
127.0531	188
128.049	14
128.0594	48
129.0458	17
130.0647	45
137.0381	14
138.0464	17
139.0538	810
140.0286	143
140.0497	246
140.0593	160
141.0662	65
143.0719	14
149.0377	68
150.0461	999
151.0538	953
152.0616	701
153.0569	42
153.0669	22
154.066	62
155.0588	60
161.0383	28
162.0486	22
163.0543	37
164.048	48
165.0603	11
166.0642	535
167.0722	609
168.0802	28
175.0402	17
176.0502	42
177.0569	257
178.0646	123
179.0614	60
179.074	17
180.0539	14
180.0794	14
191.0589	17
192.0683	77
193.0767	48
194.0834	22
204.056	11
