Mass spectrum: Methylbenzethonium; LC-ESI-QTOF; MS2; 150 V
Name: Methylbenzethonium
Class: Antimicrobial
Formula: [C28H44NO2]+
Exact mass: 426.3367
SMILES: Cc1cc(OCCOCC[N+](C)(C)Cc2ccccc2)ccc1C(C)(C)CC(C)(C)C
InChI: InChI=1S/C28H44NO2/c1-23-20-25(14-15-26(23)28(5,6)22-27(2,3)4)31-19-18-30-17-16-29(7,8)21-24-12-10-9-11-13-24/h9-15,20H,16-19,21-22H2,1-8H3/q+1
Instrument: TripleTOF 5600 SCIEX
Instrument type: LC-ESI-QTOF
Ms type: MS2
Ion mode: POSITIVE
Collision energy: 150
Fragmentation mode: CID
Ionization: ESI
Column name: Zorbax Eclipse Plus C18 2.1 mm x 150 mm, 3.5 um, Agilent
Retention time: 12.282 min
Precursor m/z: 426.3367
Precursor type: [M]+
m/z	relative intensity
58.0697	80
65.0433	646
91.0556	999
