Mass spectrum: 2-Hydroxyestrone; LC-ESI-QTOF; MS2; 110 V
Name: 2-Hydroxyestrone
Class: Pharmaceutical; Metabolite
Formula: C18H22O3
Exact mass: 286.1569
SMILES: C[C@]12CC[C@H]3[C@@H](CCc4cc(O)c(O)cc34)[C@@H]1CCC2=O
InChI: InChI=1S/C18H22O3/c1-18-7-6-11-12(14(18)4-5-17(18)21)3-2-10-8-15(19)16(20)9-13(10)11/h8-9,11-12,14,19-20H,2-7H2,1H3/t11-,12+,14-,18-/m0/s1
Instrument: TripleTOF 5600 SCIEX
Instrument type: LC-ESI-QTOF
Ms type: MS2
Ion mode: POSITIVE
Collision energy: 110
Fragmentation mode: CID
Ionization: ESI
Column name: Zorbax Eclipse Plus C18 2.1 mm x 150 mm, 3.5 um, Agilent
Retention time: 9.978 min
Precursor m/z: 287.1642
Precursor type: [M+H]+
m/z	relative intensity
51.0283	395
75.0242	104
77.0402	999
78.0498	124
91.0572	104
101.0389	104
102.0455	228
103.0543	124
115.0542	333
126.0472	166
127.0536	333
128.0613	457
139.0525	124
151.0536	104
152.0605	187
