Mass spectrum: 4-Hydroxydiphenylamine; LC-ESI-QTOF; MS2; 110 V
Name: 4-Hydroxydiphenylamine
Class: Pesticide
Formula: C12H11NO
Exact mass: 185.0841
SMILES: C1=CC=C(C=C1)NC2=CC=C(C=C2)O
InChI: InChI=1S/C12H11NO/c14-12-8-6-11(7-9-12)13-10-4-2-1-3-5-10/h1-9,13-14H
Instrument: TripleTOF 6600 SCIEX
Instrument type: LC-ESI-QTOF
Ms type: MS2
Ion mode: POSITIVE
Collision energy: 110
Fragmentation mode: CID
Ionization: ESI
Column name: Zorbax Eclipse Plus C18 2.1 mm x 150 mm, 3.5 um, Agilent
Retention time: 10.034 min
Precursor m/z: 186.0914
Precursor type: [M+H]+
m/z	relative intensity
35.9989	86
37.0067	499
38.0028	60
38.0143	465
39.0222	999
40.0172	51
41.0253	94
42.0336	77
44.0123	68
49.0063	129
50.0143	551
51.0224	499
52.0175	180
53.0017	60
53.0378	551
54.033	215
61.0063	60
62.0137	241
63.0219	232
65.025	60
65.0378	146
66.0335	34
66.0454	51
73.0064	34
74.0142	60
80.0481	353
