Mass spectrum: Repaglinide; LC-ESI-QTOF; MS2; 60 V
Name: Repaglinide
Class: Pharmaceutical
Formula: C27H36N2O4
Exact mass: 452.2675
SMILES: CCOc1cc(CC(=O)N[C@@H](CC(C)C)c2ccccc2N3CCCCC3)ccc1C(O)=O
InChI: InChI=1S/C27H36N2O4/c1-4-33-25-17-20(12-13-22(25)27(31)32)18-26(30)28-23(16-19(2)3)21-10-6-7-11-24(21)29-14-8-5-9-15-29/h6-7,10-13,17,19,23H,4-5,8-9,14-16,18H2,1-3H3,(H,28,30)(H,31,32)/t23-/m0/s1
Instrument: TripleTOF 5600 SCIEX
Instrument type: LC-ESI-QTOF
Ms type: MS2
Ion mode: POSITIVE
Collision energy: 60
Fragmentation mode: CID
Ionization: ESI
Column name: Zorbax Eclipse Plus C18 2.1 mm x 150 mm, 3.5 um, Agilent
Retention time: 10.348 min
Precursor m/z: 453.2748
Precursor type: [M+H]+
m/z	relative intensity
86.0989	157
91.0556	22
106.0654	62
117.0572	22
118.0654	124
120.0805	28
130.065	61
131.0728	50
132.0807	75
144.0811	69
145.0883	26
146.0971	311
158.0968	58
159.1044	41
160.1124	30
162.1283	161
172.1128	200
173.1197	29
174.1281	690
179.0703	19
186.1278	39
188.1428	15
202.1597	34
230.1904	999
