Mass spectrum: Antipyrine; LC-ESI-QTOF; MS2; 40 V
Name: Antipyrine
Class: Pharmaceutical
Formula: C11H12N2O
Exact mass: 188.095
SMILES: CN1N(C(=O)C=C1C)c2ccccc2
InChI: InChI=1S/C11H12N2O/c1-9-8-11(14)13(12(9)2)10-6-4-3-5-7-10/h3-8H,1-2H3
Instrument: TripleTOF 5600 SCIEX
Instrument type: LC-ESI-QTOF
Ms type: MS2
Ion mode: POSITIVE
Collision energy: 40
Fragmentation mode: CID
Ionization: ESI
Column name: Zorbax Eclipse Plus C18 2.1 mm x 150 mm, 3.5 um, Agilent
Retention time: 6.261 min
Precursor m/z: 189.1022
Precursor type: [M+H]+
m/z	relative intensity
51.0275	30
56.0549	699
58.0699	212
65.0417	153
68.0511	11
69.0607	33
77.0411	999
78.048	42
79.0563	116
80.0512	11
81.046	67
89.0403	15
90.0467	20
91.0546	196
92.049	43
93.0326	10
93.0587	21
93.0686	11
94.064	28
95.061	109
96.0486	13
96.0683	64
98.0599	84
102.0462	27
103.0541	125
104.0492	468
105.034	11
105.056	27
105.0675	49
106.0645	530
115.0529	201
116.0486	10
117.0639	294
118.0636	180
119.0711	18
120.0798	89
127.0534	32
128.0478	49
129.0569	82
130.0643	405
131.0653	360
131.0946	13
132.0439	13
132.0691	192
133.0502	38
133.0742	13
134.0472	18
134.0954	18
143.0714	33
144.0796	125
145.0741	221
146.082	120
147.0907	218
149.0686	15
157.0512	20
159.0542	15
159.091	15
161.1072	13
172.0734	16
173.0707	20
174.0779	59
189.1017	113
