Mass spectrum: Emamectin; LC-ESI-QTOF; MS2; 150 V
Name: Emamectin
Class: Pharmaceutical; Insecticide
Formula: C49H75NO13
Exact mass: 885.5238
SMILES: C/C([C@](O[C@H]1C[C@H](OC)[C@](O[C@@H]2O[C@H](C)[C@@H](NC)[C@H](OC)C2)([H])[C@H](C)O1)([H])[C@@H](C)/C=C/C=C(CO3)/[C@@]([C@@]3([H])[C@H](O)C(C)=C4)(O)[C@@H]4C(O5)=O)=C\C[C@@H]6C[C@H]5C[C@]7(C=C[C@H](C)[C@]([C@@H](C)CC)([H])O7)O6
InChI: InChI=1S/C49H75NO13/c1-12-26(2)44-29(5)18-19-48(63-44)24-35-21-34(62-48)17-16-28(4)43(27(3)14-13-15-33-25-56-46-42(51)30(6)20-36(47(52)59-35)49(33,46)53)60-40-23-38(55-11)45(32(8)58-40)61-39-22-37(54-10)41(50-9)31(7)57-39/h13-16,18-20,26-27,29,31-32,34-46,50-51,53H,12,17,21-25H2,1-11H3/b14-13+,28-16+,33-15+/t26-,27-,29-,31+,32-,34+,35-,36-,37+,38-,39-,40-,41+,42+,43-,44+,45-,46+,48+,49+/m0/s1
Instrument: TripleTOF 5600 SCIEX
Instrument type: LC-ESI-QTOF
Ms type: MS2
Ion mode: POSITIVE
Collision energy: 150
Fragmentation mode: CID
Ionization: ESI
Column name: Zorbax Eclipse Plus C18 2.1 mm x 150 mm, 3.5 um, Agilent
Retention time: 11.594 min
Precursor m/z: 886.5311
Precursor type: [M+H]+
m/z	relative intensity
43.0277	14
45.042	31
55.0604	19
58.0707	92
67.0468	48
67.058	19
79.0576	21
80.0515	34
81.0728	22
82.069	999
84.0465	23
84.084	11
91.0557	46
93.0711	13
95.0502	18
95.0849	12
98.06	17
101.059	18
105.0707	32
108.0805	49
114.092	16
115.0543	17
117.0695	12
119.0848	17
126.091	16
128.0619	19
129.0689	14
131.0847	10
141.0685	10
158.1166	70
