Mass spectrum: Reserpine; LC-ESI-QTOF; MS2; 100 V
Name: Reserpine
Class: Natural_product; Pharmaceutical
Formula: C33H40N2O9
Exact mass: 608.2734
SMILES: COC1C(CC2CN3CCC4=C(C3CC2C1C(=O)OC)NC5=C4C=CC(=C5)OC)OC(=O)C6=CC(=C(C(=C6)OC)OC)OC
InChI: InChI=1S/C33H40N2O9/c1-38-19-7-8-20-21-9-10-35-16-18-13-27(44-32(36)17-11-25(39-2)30(41-4)26(12-17)40-3)31(42-5)28(33(37)43-6)22(18)15-24(35)29(21)34-23(20)14-19/h7-8,11-12,14,18,22,24,27-28,31,34H,9-10,13,15-16H2,1-6H3
Instrument: TripleTOF 5600 SCIEX
Instrument type: LC-ESI-QTOF
Ms type: MS2
Ion mode: POSITIVE
Collision energy: 100
Fragmentation mode: CID
Ionization: ESI
Column name: Zorbax Eclipse Plus C18 2.1 mm x 150 mm, 3.5 um, Agilent
Retention time: 8.6 min
Precursor m/z: 609.2807
Precursor type: [M+H]+
m/z	relative intensity
65.0454	16
66.0525	10
67.0604	10
77.0439	137
78.0523	25
79.0588	99
80.0551	12
81.0385	144
81.075	33
89.0434	15
91.0582	133
92.0302	21
92.0549	14
93.0369	15
93.0608	26
94.0454	40
94.0687	34
95.0523	34
96.0615	96
103.0574	61
104.0533	24
105.037	16
105.0661	37
106.0441	22
106.068	23
107.0163	36
107.0514	26
107.0747	10
108.06	55
108.08	10
109.0301	34
109.067	90
111.0468	18
111.0828	15
113.0621	23
115.0563	194
116.0627	58
117.0616	174
118.0673	59
119.0516	12
119.0763	17
120.0842	24
121.0308	96
121.0679	31
122.0382	136
123.0452	24
124.0544	178
127.0561	31
128.0612	48
129.0708	45
130.0671	548
131.0747	992
132.0465	33
132.0593	20
132.0821	68
133.0582	33
134.0374	35
136.0775	18
137.0245	149
139.0766	156
141.0607	18
142.0656	113
143.0742	578
144.0817	158
145.0537	70
145.0884	41
146.0619	109
146.097	24
147.0737	101
148.0753	49
149.0609	15
151.0403	186
152.0479	380
154.0667	53
155.0735	41
156.0802	54
157.0694	13
157.089	37
158.0609	160
159.0689	999
160.076	146
161.0832	41
162.0929	22
165.0685	12
166.0684	18
167.072	158
168.0815	53
169.0546	10
169.0863	32
170.0594	86
171.0674	20
172.0758	93
173.0836	153
174.0628	10
174.0917	780
178.0725	14
179.0725	15
180.081	45
181.0879	49
182.0608	32
182.0919	25
183.0682	47
183.0939	14
184.0752	105
185.0814	59
186.0905	81
187.0977	16
188.1103	21
191.0739	22
192.0808	48
193.0863	45
194.0801	10
194.0956	28
195.0655	286
195.1027	15
196.0755	51
197.0815	47
198.0899	64
199.0881	84
200.1025	31
201.1047	13
202.0781	10
204.0804	70
205.0889	58
206.0928	47
207.0968	36
208.0757	57
208.0981	20
209.0793	36
209.1085	12
210.0902	74
211.0955	25
212.0976	33
213.0997	21
216.0774	10
217.0884	51
218.0957	73
219.072	18
219.1031	38
220.073	60
220.1042	22
221.0801	46
221.1079	15
222.0907	95
223.0934	62
224.1064	68
225.1012	22
227.1167	16
229.0887	16
230.0953	61
231.1024	41
232.0752	37
232.1099	26
233.0834	61
233.1209	16
234.09	75
235.0933	57
236.0987	115
237.1043	49
238.1175	30
239.1201	23
241.0892	13
242.0957	22
243.1017	14
244.0773	13
244.1113	34
245.083	19
245.123	10
246.089	91
247.098	73
248.1035	99
249.1023	71
250.1103	78
251.118	99
252.1281	12
253.1334	11
256.1119	14
257.0825	12
258.0887	40
259.0971	30
260.0772	10
260.1054	73
261.1093	68
262.1207	70
263.117	21
264.1217	36
265.1335	38
272.107	28
273.1107	27
274.0886	18
274.1163	37
275.1133	24
276.1307	27
277.1309	24
278.1133	10
288.1306	14
289.1353	16
290.1425	14
291.1509	11
306.11	10
