Mass spectrum: Medroxyprogesterone; LC-ESI-QTOF; MS2; 50 V
Name: Medroxyprogesterone
Class: Pharmaceutical
Formula: C22H32O3
Exact mass: 344.2351
SMILES: CC1CC2C(CCC3(C2CCC3(C(=O)C)O)C)C4(C1=CC(=O)CC4)C
InChI: InChI=1S/C22H32O3/c1-13-11-16-17(20(3)8-5-15(24)12-19(13)20)6-9-21(4)18(16)7-10-22(21,25)14(2)23/h12-13,16-18,25H,5-11H2,1-4H3
Instrument: TripleTOF 6600 SCIEX
Instrument type: LC-ESI-QTOF
Ms type: MS2
Ion mode: POSITIVE
Collision energy: 50
Fragmentation mode: CID
Ionization: ESI
Column name: Zorbax Eclipse Plus C18 2.1 mm x 150 mm, 3.5 um, Agilent
Retention time: 12.524 min
Precursor m/z: 345.2424
Precursor type: [M+H]+
m/z	relative intensity
41.0391	11
43.0181	54
55.0182	14
55.0544	25
67.0544	73
69.0698	20
77.0384	39
79.0545	59
81.0692	27
83.0488	39
91.054	45
93.0698	80
95.0495	20
95.0854	99
97.0649	452
105.0696	84
107.0854	27
108.0566	16
109.0645	27
109.1008	13
117.0692	14
119.0855	58
121.0646	12
121.101	15
123.0807	999
129.0694	15
131.0852	39
133.1012	39
135.0798	13
137.096	67
142.0767	11
143.0852	23
145.1011	49
147.1166	35
155.0848	12
156.093	11
157.101	29
159.1167	27
161.0966	14
161.1317	20
169.1008	18
171.117	22
173.132	25
175.1479	15
183.1159	15
185.1322	14
195.1169	10
197.1318	17
199.1489	11
211.1483	13
214.135	26
215.1427	14
251.1792	13
