Mass spectrum: Prochloraz; LC-ESI-QTOF; MS2; 130 V
Name: Prochloraz
Class: Fungicide
Formula: C15H16Cl3N3O2
Exact mass: 375.0308
SMILES: CCCN(CCOc1c(cc(cc1Cl)Cl)Cl)C(=O)n2ccnc2
InChI: InChI=1S/C15H16Cl3N3O2/c1-2-4-20(15(22)21-5-3-19-10-21)6-7-23-14-12(17)8-11(16)9-13(14)18/h3,5,8-10H,2,4,6-7H2,1H3
Instrument: TripleTOF 6600 SCIEX
Instrument type: LC-ESI-QTOF
Ms type: MS2
Ion mode: POSITIVE
Collision energy: 130
Fragmentation mode: CID
Ionization: ESI
Column name: Zorbax Eclipse Plus C18 2.1 mm x 150 mm, 3.5 um, Agilent
Retention time: 11.258 min
Precursor m/z: 376.0381
Precursor type: [M+H]+
m/z	relative intensity
38.0032	92
38.0153	65
39.0229	381
41.0386	381
42.0342	236
46.9675	105
56.0492	65
61.0076	78
62.0153	197
63.0232	302
70.0655	92
71.976	236
72.984	381
73.0071	184
74.0151	354
82.9448	670
89.0376	210
95.9762	92
96.9837	315
98.9995	52
106.9447	460
107.9758	999
108.9841	249
166.9221	52
