Mass spectrum: Tiapride; LC-ESI-QTOF; MS2; 130 V
Name: Tiapride
Class: Pharmaceutical
Formula: C15H24N2O4S
Exact mass: 328.1457
SMILES: CCN(CC)CCNC(=O)C1=C(C=CC(=C1)S(=O)(=O)C)OC
InChI: InChI=1S/C15H24N2O4S/c1-5-17(6-2)10-9-16-15(18)13-11-12(22(4,19)20)7-8-14(13)21-3/h7-8,11H,5-6,9-10H2,1-4H3,(H,16,18)
Instrument: TripleTOF 5600 SCIEX
Instrument type: LC-ESI-QTOF
Ms type: MS2
Ion mode: POSITIVE
Collision energy: 130
Fragmentation mode: CID
Ionization: ESI
Column name: Zorbax Eclipse Plus C18 2.1 mm x 150 mm, 3.5 um, Agilent
Retention time: 4.856 min
Precursor m/z: 329.153
Precursor type: [M+H]+
m/z	relative intensity
44.063	77
53.0109	45
55.0254	18
58.0738	36
64.037	31
65.0446	91
66.0516	31
68.9864	31
72.0842	18
73.0122	36
74.0188	200
75.0141	27
75.027	177
76.0364	999
77.044	848
78.0512	323
79.0222	118
79.044	22
79.0606	18
86.1002	18
89.0424	72
90.0374	91
91.0209	310
91.0564	68
92.0285	27
103.0417	31
104.0505	209
105.0351	59
107.0132	22
117.0618	22
119.0137	36
