Mass spectrum: Phenylbutazone; LC-ESI-QTOF; MS2; 60 V
Name: Phenylbutazone
Class: Pharmaceutical
Formula: C19H20N2O2
Exact mass: 308.1525
SMILES: CCCCC1C(=O)N(N(C1=O)C2=CC=CC=C2)C3=CC=CC=C3
InChI: InChI=1S/C19H20N2O2/c1-2-3-14-17-18(22)20(15-10-6-4-7-11-15)21(19(17)23)16-12-8-5-9-13-16/h4-13,17H,2-3,14H2,1H3
Instrument: TripleTOF 5600 SCIEX
Instrument type: LC-ESI-QTOF
Ms type: MS2
Ion mode: POSITIVE
Collision energy: 60
Fragmentation mode: CID
Ionization: ESI
Column name: Zorbax Eclipse Plus C18 2.1 mm x 150 mm, 3.5 um, Agilent
Retention time: 13.103 min
Precursor m/z: 309.1598
Precursor type: [M+H]+
m/z	relative intensity
55.0274	38
67.0609	14
69.0767	19
77.0453	999
78.0513	13
79.06	42
91.0572	47
92.0545	530
93.0369	19
93.0618	126
94.0451	14
94.0692	269
95.0527	12
104.0527	120
105.0369	48
105.0599	21
106.0319	22
106.0681	163
115.0567	18
116.0549	12
117.0593	56
118.0675	89
120.0471	105
120.0845	11
128.0515	45
130.0669	58
131.0697	16
132.0459	107
132.0815	14
133.0544	162
134.0564	18
140.0535	11
143.0764	13
144.0468	12
144.0819	17
146.0627	59
156.0825	13
159.0681	11
160.1127	13
166.0675	45
167.0727	41
168.081	22
174.0577	10
180.0844	13
181.077	46
182.086	107
206.0823	16
207.0908	16
