Mass spectrum: Ethyl-N-(4-aminophenyl)carbamate; LC-ESI-QTOF; MS2; 50 V
Name: Ethyl-N-(4-aminophenyl)carbamate
Class: Industrial_process
Formula: C9H12N2O2
Exact mass: 180.0899
SMILES: CCOC(=O)Nc1ccc(cc1)N
InChI: InChI=1S/C9H12N2O2/c1-2-13-9(12)11-8-5-3-7(10)4-6-8/h3-6H,2,10H2,1H3,(H,11,12)
Instrument: TripleTOF 5600 SCIEX
Instrument type: LC-ESI-QTOF
Ms type: MS2
Ion mode: POSITIVE
Collision energy: 50
Fragmentation mode: CID
Ionization: ESI
Column name: Zorbax Eclipse Plus C18 2.1 mm x 150 mm, 3.5 um, Agilent
Retention time: 4.863 min
Precursor m/z: 181.0972
Precursor type: [M+H]+
m/z	relative intensity
53.0444	81
54.04	10
65.043	727
66.0363	14
66.0501	73
67.0455	14
79.0434	14
80.0522	733
81.0602	43
82.0669	15
90.0356	608
91.0553	10
92.0512	636
93.0592	999
93.0849	22
105.0451	17
106.0524	63
107.0612	912
107.0966	12
108.0448	14
108.0678	241
109.0759	104
118.0278	18
134.0475	58
135.0553	127
