Mass spectrum: Trifloxystrobin; LC-ESI-QTOF; MS2; 120 V
Name: Trifloxystrobin
Class: Fungicide
Formula: C20H19F3N2O4
Exact mass: 408.1297
SMILES: CC(=NOCC1=CC=CC=C1C(=NOC)C(=O)OC)C2=CC(=CC=C2)C(F)(F)F
InChI: InChI=1S/C20H19F3N2O4/c1-13(14-8-6-9-16(11-14)20(21,22)23)24-29-12-15-7-4-5-10-17(15)18(25-28-3)19(26)27-2/h4-11H,12H2,1-3H3
Instrument: TripleTOF 5600 SCIEX
Instrument type: LC-ESI-QTOF
Ms type: MS2
Ion mode: POSITIVE
Collision energy: 120
Fragmentation mode: CID
Ionization: ESI
Column name: Zorbax Eclipse Plus C18 2.1 mm x 150 mm, 3.5 um, Agilent
Retention time: 15.037 min
Precursor m/z: 409.137
Precursor type: [M+H]+
m/z	relative intensity
51.0155	20
51.032	26
57.0223	20
59.0214	10
65.0461	90
69.0014	58
73.0131	14
74.0212	222
75.0276	771
77.0442	219
78.0512	32
79.0591	11
81.018	27
88.0342	14
89.0427	999
90.0494	216
91.058	203
95.0324	920
99.0067	72
102.0479	9
103.0567	143
104.0566	30
105.0158	12
114.0345	29
115.0433	34
116.0513	468
117.0589	115
118.0668	144
119.0119	82
123.0368	33
125.0214	354
128.0506	10
130.0669	293
131.0747	79
145.0268	749
