Mass spectrum: 2-Aminobenzimidazole; LC-ESI-QTOF; MS2; 100 V
Name: 2-Aminobenzimidazole
Class: Transformation_product; Fungicide
Formula: C7H7N3
Exact mass: 133.064
SMILES: C1=CC=C2C(=C1)NC(=N2)N
InChI: InChI=1S/C7H7N3/c8-7-9-5-3-1-2-4-6(5)10-7/h1-4H,(H3,8,9,10)
Instrument: TripleTOF 6600 SCIEX
Instrument type: LC-ESI-QTOF
Ms type: MS2
Ion mode: POSITIVE
Collision energy: 100
Fragmentation mode: CID
Ionization: ESI
Column name: Zorbax Eclipse Plus C18 2.1 mm x 150 mm, 3.5 um, Agilent
Retention time: 4.787 min
Precursor m/z: 134.0713
Precursor type: [M+H]+
m/z	relative intensity
35.9993	241
37.0071	999
38.0028	49
38.0149	722
39.0229	921
40.0172	24
41.0259	14
42.0211	35
43.0285	217
49.0069	98
50.0149	252
51.0106	31
51.0228	91
52.0179	115
52.0297	17
53.0128	14
53.0382	14
59.9989	31
61.0075	133
62.0145	220
63.0227	147
64.0169	28
65.0383	24
73.0062	21
74.0146	35
75.0104	14
