Mass spectrum: 2-Phenylbenzimidazole; LC-ESI-QTOF; MS2; 140 V
Name: 2-Phenylbenzimidazole
Class: Industrial_process
Formula: C13H10N2
Exact mass: 194.0844
SMILES: [nH]1c2ccccc2nc1c3ccccc3
InChI: InChI=1S/C13H10N2/c1-2-6-10(7-3-1)13-14-11-8-4-5-9-12(11)15-13/h1-9H,(H,14,15)
Instrument: TripleTOF 5600 SCIEX
Instrument type: LC-ESI-QTOF
Ms type: MS2
Ion mode: NEGATIVE
Collision energy: 140
Fragmentation mode: CID
Ionization: ESI
Column name: Zorbax Eclipse Plus C18 2.1 mm x 150 mm, 3.5 um, Agilent
Retention time: 5.903 min
Precursor m/z: 193.0771
Precursor type: [M-H]-
m/z	relative intensity
40.0238	299
41.018	399
41.0278	199
50.0061	999
63.0116	499
73.0085	299
74.0028	299
87.0239	99
88.0189	899
89.0234	99
90.0349	399
115.0314	899
115.0476	99
117.0498	299
141.0477	699
165.0491	299
