Mass spectrum: Oseltamivir carboxylic acid; LC-ESI-QTOF; MS2; 90 V
Name: Oseltamivir carboxylic acid
Class: Pharmaceutical; Metabolite; Transformation_product
Formula: C14H24N2O4
Exact mass: 284.1736
SMILES: CCC(CC)O[C@@H]1C=C(C[C@H](N)[C@H]1NC(C)=O)C(O)=O
InChI: InChI=1S/C14H24N2O4/c1-4-10(5-2)20-12-7-9(14(18)19)6-11(15)13(12)16-8(3)17/h7,10-13H,4-6,15H2,1-3H3,(H,16,17)(H,18,19)/t11-,12+,13+/m0/s1
Instrument: TripleTOF 5600 SCIEX
Instrument type: LC-ESI-QTOF
Ms type: MS2
Ion mode: POSITIVE
Collision energy: 90
Fragmentation mode: CID
Ionization: ESI
Column name: Zorbax Eclipse Plus C18 2.1 mm x 150 mm, 3.5 um, Agilent
Retention time: 5.65 min
Precursor m/z: 285.1809
Precursor type: [M+H]+
m/z	relative intensity
43.0248	47
53.0443	21
55.0596	18
60.0479	18
65.0432	999
66.0491	65
67.0454	83
67.0578	131
68.0532	32
77.0411	780
77.0731	25
78.0363	21
80.0518	244
81.0592	14
82.0672	91
92.0508	397
93.0356	61
93.0581	236
94.0352	14
94.0662	185
102.0377	18
108.0662	14
109.0783	18
110.0613	21
120.0451	91
