Mass spectrum: Ranitidine-S-oxide; LC-ESI-QTOF; MS2; 30 V
Name: Ranitidine-S-oxide
Class: Pharmaceutical; Transformation_product; Transformation_product-Metabolite
Formula: C13H22N4O4S
Exact mass: 330.1362
SMILES: CNC(=C[N+](=O)[O-])NCCS(=O)Cc1ccc(o1)CN(C)C
InChI: InChI=1S/C13H22N4O4S/c1-14-13(9-17(18)19)15-6-7-22(20)10-12-5-4-11(21-12)8-16(2)3/h4-5,9,14-15H,6-8,10H2,1-3H3
Instrument: TripleTOF 5600 SCIEX
Instrument type: LC-ESI-QTOF
Ms type: MS2
Ion mode: POSITIVE
Collision energy: 30
Fragmentation mode: CID
Ionization: ESI
Column name: Zorbax Eclipse Plus C18 2.1 mm x 150 mm, 3.5 um, Agilent
Retention time: 2.941 min
Precursor m/z: 331.1435
Precursor type: [M+H]+
m/z	relative intensity
67.0591	9
68.0511	14
81.0741	11
82.0666	23
93.0725	11
94.0427	174
94.0673	21
95.0495	42
95.0729	16
96.0579	14
98.0857	18
108.0804	21
110.0967	625
130.0567	68
138.0914	999
139.0978	77
143.017	33
146.0522	30
176.0492	30
192.0432	101
193.0545	16
222.0802	28
331.1434	25
