Mass spectrum: Pirimicarb; LC-ESI-QTOF; MS2; 30 V
Name: Pirimicarb
Class: Insecticide
Formula: C11H18N4O2
Exact mass: 238.143
InChI: InChI=1S/C11H18N4O2/c1-7-8(2)12-10(14(3)4)13-9(7)17-11(16)15(5)6/h1-6H3
Instrument: TripleTOF 6600 SCIEX
Instrument type: LC-ESI-QTOF
Ms type: CID
Ion mode: POSITIVE
Collision energy: 30
Ionization: ESI
Column name: Zorbax Eclipse Plus C18 2.1 mm x 150 mm, 3.5 um, Agilent
Retention time: 6.157 min
Precursor m/z: 239.1503
Precursor type: [M+H]+
m/z	relative intensity
72.0451	999
85.0763	56
109.0762	30
137.0712	57
138.0788	13
150.1027	31
167.1051	14
182.13	455
195.1602	10
