Mass spectrum: Clonazepam; LC-ESI-QTOF; MS2; 50 V
Name: Clonazepam
Class: Pharmaceutical
Formula: C15H10ClN3O3
Exact mass: 315.0411
SMILES: C1C(=O)NC2=C(C=C(C=C2)[N+](=O)[O-])C(=N1)C3=CC=CC=C3Cl
InChI: InChI=1S/C15H10ClN3O3/c16-12-4-2-1-3-10(12)15-11-7-9(19(21)22)5-6-13(11)18-14(20)8-17-15/h1-7H,8H2,(H,18,20)
Instrument: TripleTOF 6600 SCIEX
Instrument type: LC-ESI-QTOF
Ms type: MS2
Ion mode: NEGATIVE
Collision energy: 50
Fragmentation mode: CID
Ionization: ESI
Column name: Zorbax Eclipse Plus C18 2.1 mm x 150 mm, 3.5 um, Agilent
Retention time: 9.867 min
Precursor m/z: 314.0338
Precursor type: [M-H]-
m/z	relative intensity
34.9694	748
41.9983	113
45.9928	37
118.0279	26
139.0403	22
140.0497	87
146.0221	37
164.0507	30
165.0454	15
165.0578	37
176.05	18
177.0513	18
189.053	53
191.0579	159
192.0453	64
193.0598	18
203.0593	91
204.0461	60
204.0664	53
205.0512	144
206.0455	22
219.0553	843
220.0391	26
220.0623	106
221.0455	64
230.0538	15
231.0554	315
232.0617	459
240.0186	18
247.0504	999
248.0573	174
250.0335	15
251.045	159
256.0091	34
261.0619	22
278.0521	94
