Mass spectrum: Entacapone; LC-ESI-QTOF; MS2; 40 V
Name: Entacapone
Class: Pharmaceutical
Formula: C14H15N3O5
Exact mass: 305.1012
SMILES: CCN(CC)C(=O)C(=CC1=CC(=C(C(=C1)O)O)[N+](=O)[O-])C#N
InChI: InChI=1S/C14H15N3O5/c1-3-16(4-2)14(20)10(8-15)5-9-6-11(17(21)22)13(19)12(18)7-9/h5-7,18-19H,3-4H2,1-2H3
Instrument: TripleTOF 5600 SCIEX
Instrument type: LC-ESI-QTOF
Ms type: MS2
Ion mode: POSITIVE
Collision energy: 40
Fragmentation mode: CID
Ionization: ESI
Column name: Zorbax Eclipse Plus C18 2.1 mm x 150 mm, 3.5 um, Agilent
Retention time: 9.381 min
Precursor m/z: 306.1084
Precursor type: [M+H]+
m/z	relative intensity
43.0419	51
44.0254	37
68.021	70
71.0661	61
72.05	207
72.085	94
74.1014	113
75.0168	47
76.0237	259
78.0385	37
80.0174	94
87.0159	47
88.0217	282
89.0272	37
90.0369	51
96.0455	32
99.0936	136
100.0767	141
101.0285	405
102.0367	56
103.0312	457
104.0143	287
104.0502	32
105.0186	23
105.0479	32
106.0359	42
114.0215	122
115.0297	202
116.0127	61
116.0383	61
117.0473	42
118.0614	42
119.0642	37
121.0406	23
122.0362	42
124.0761	32
128.0451	18
129.0214	409
130.0319	51
131.0244	664
132.0152	37
132.0616	23
133.0138	32
134.0241	23
142.0165	245
143.0236	51
144.0332	70
144.0558	42
145.0396	42
146.0231	23
146.0576	18
147.0299	23
149.0685	32
157.0143	207
158.0275	47
158.0367	28
158.0683	23
159.0231	999
160.0168	42
161.0403	70
161.1053	28
163.051	37
168.0281	108
170.0111	692
171.0183	183
172.0494	51
172.0841	42
182.0433	23
185.011	513
186.1014	65
187.0131	447
187.0714	70
189.0298	42
193.1119	37
200.0838	51
207.0311	23
208.0224	37
215.0107	131
215.1059	113
233.019	669
239.0998	108
260.1085	23
278.1131	47
306.1081	579
