Mass spectrum: 3,4-Methylenedioxy-N-ethylamphetamine; LC-ESI-QTOF; MS2; 110 V
Name: 3,4-Methylenedioxy-N-ethylamphetamine
Class: Pharmaceutical
Formula: C12H17NO2
Exact mass: 207.1259
SMILES: CCNC(C)CC1=CC2=C(C=C1)OCO2
InChI: InChI=1S/C12H17NO2/c1-3-13-9(2)6-10-4-5-11-12(7-10)15-8-14-11/h4-5,7,9,13H,3,6,8H2,1-2H3
Instrument: TripleTOF 6600 SCIEX
Instrument type: LC-ESI-QTOF
Ms type: MS2
Ion mode: POSITIVE
Collision energy: 110
Fragmentation mode: CID
Ionization: ESI
Column name: Zorbax Eclipse Plus C18 2.1 mm x 150 mm, 3.5 um, Agilent
Retention time: 5.673 min
Precursor m/z: 208.1332
Precursor type: [M+H]+
m/z	relative intensity
35.9999	17
37.0069	110
38.0028	12
38.0147	89
39.0228	243
44.0491	11
49.0071	104
50.0149	720
51.0228	999
59.9985	11
61.0066	58
62.0149	122
63.0224	185
65.0381	31
73.0066	13
74.0141	77
75.0225	22
77.0375	212
78.0448	10
89.038	62
