Mass spectrum: Estrone 3-methyl ether; LC-ESI-QTOF; MS2; 80 V
Name: Estrone 3-methyl ether
Class: Pharmaceutical
Formula: C19H24O2
Exact mass: 284.1776
SMILES: C[C@]12CC[C@@H]3c4ccc(cc4CC[C@H]3[C@@H]1CCC2=O)OC
InChI: InChI=1S/C19H24O2/c1-19-10-9-15-14-6-4-13(21-2)11-12(14)3-5-16(15)17(19)7-8-18(19)20/h4,6,11,15-17H,3,5,7-10H2,1-2H3/t15-,16-,17+,19+/m1/s1
Instrument: TripleTOF 5600 SCIEX
Instrument type: LC-ESI-QTOF
Ms type: MS2
Ion mode: POSITIVE
Collision energy: 80
Fragmentation mode: CID
Ionization: ESI
Column name: Zorbax Eclipse Plus C18 2.1 mm x 150 mm, 3.5 um, Agilent
Retention time: 10.549 min
Precursor m/z: 285.1849
Precursor type: [M+H]+
m/z	relative intensity
55.0599	21
65.0422	94
67.059	21
77.0405	185
77.0619	24
78.048	140
79.056	66
81.07	17
89.0404	42
91.0552	448
91.0854	31
93.0708	17
95.0849	21
102.0474	161
103.0541	115
104.0633	70
105.0687	21
107.0491	49
115.0543	999
115.0896	17
116.0643	77
117.0708	52
121.064	49
126.0469	35
127.0539	150
128.0618	764
128.0981	14
129.07	161
130.0414	24
130.0807	28
131.0488	143
132.0564	49
139.0564	56
140.0654	21
141.0689	199
142.0785	31
143.0506	17
144.0545	21
145.0637	31
145.0822	17
147.0799	17
151.0539	45
152.0605	238
153.0702	154
153.0984	17
154.0758	45
155.0827	17
156.058	17
157.0618	31
158.0732	42
164.0583	21
165.07	217
166.0764	38
167.0874	35
168.0589	17
169.0657	28
171.0805	49
176.0625	17
177.0735	21
178.0767	91
179.0845	24
181.0643	24
182.0726	31
183.0799	17
