Mass spectrum: Fludarabine; LC-ESI-QTOF; MS2; 40 V
Name: Fludarabine
Class: Pharmaceutical
Formula: C10H12FN5O4
Exact mass: 285.0873
InChI: InChI=1S/C10H12FN5O4/c11-10-14-7(12)4-8(15-10)16(2-13-4)9-6(19)5(18)3(1-17)20-9/h2-3,5-6,9,17-19H,1H2,(H2,12,14,15)
Instrument: TripleTOF 5600 SCIEX
Instrument type: LC-ESI-QTOF
Ms type: CID
Ion mode: NEGATIVE
Collision energy: 40
Ionization: ESI
Column name: Zorbax Eclipse Plus C18 2.1 mm x 150 mm, 3.5 um, Agilent
Retention time: 4.674 min
Precursor m/z: 284.08
Precursor type: [M-H]-
m/z	relative intensity
66.0102	53
131.0255	53
132.0314	214
151.0322	80
152.0381	999
284.0806	98
