Mass spectrum: 11alpha-Hydroxyprogesterone; LC-ESI-QTOF; MS2; 60 V
Name: 11alpha-Hydroxyprogesterone
Class: Pharmaceutical; Metabolite
Formula: C21H30O3
Exact mass: 330.2195
SMILES: CC(=O)C1CC[C@H]2[C@@H]3CCC4=CC(=O)CC[C@]4(C)[C@H]3[C@H](O)C[C@]12C
InChI: InChI=1S/C21H30O3/c1-12(22)16-6-7-17-15-5-4-13-10-14(23)8-9-20(13,2)19(15)18(24)11-21(16,17)3/h10,15-19,24H,4-9,11H2,1-3H3/t15-,16?,17-,18+,19+,20-,21+/m0/s1
Instrument: TripleTOF 5600 SCIEX
Instrument type: LC-ESI-QTOF
Ms type: MS2
Ion mode: POSITIVE
Collision energy: 60
Fragmentation mode: CID
Ionization: ESI
Column name: Zorbax Eclipse Plus C18 2.1 mm x 150 mm, 3.5 um, Agilent
Retention time: 10.293 min
Precursor m/z: 331.2268
Precursor type: [M+H]+
m/z	relative intensity
43.0265	379
55.0228	90
55.06	122
65.0429	59
67.0577	292
69.0353	23
69.0725	39
71.0523	55
77.0408	517
77.0724	23
79.0562	493
81.0352	19
81.0721	307
83.0509	248
83.083	15
85.0662	35
91.0559	999
93.0702	438
94.0431	35
95.0506	43
95.0863	343
97.0652	458
97.0916	15
103.0537	130
104.0635	23
105.0699	971
107.0487	122
107.0851	157
108.0571	35
109.0647	221
109.1009	35
115.0542	209
116.0608	55
117.0693	284
118.0766	27
119.085	363
121.0641	706
121.0993	47
123.08	461
123.1057	23
127.0536	55
128.0611	244
129.0694	304
130.0776	114
131.0495	23
131.085	422
132.0577	23
133.0636	51
133.1001	173
135.0785	55
135.1153	19
141.069	197
142.0769	185
143.0845	280
144.0925	82
145.0668	51
145.1002	280
146.0717	23
147.0791	110
147.1194	51
148.088	82
152.0637	31
153.0694	71
154.0772	82
155.0855	146
156.0926	94
157.1013	138
158.0707	35
158.1076	23
159.0811	55
159.1158	102
160.0849	15
161.0949	59
163.1117	90
165.0706	71
166.0752	51
167.0841	102
168.0929	43
169.1012	173
170.1072	19
171.115	90
172.0891	15
173.0947	35
173.13	51
174.105	31
175.1138	23
178.0794	23
179.0836	59
180.092	43
181.1006	98
182.1087	55
183.0797	15
183.1171	59
184.1226	15
185.1314	35
186.1355	15
187.111	19
187.1465	31
191.0834	35
192.0928	19
193.0996	51
195.1153	35
196.1271	15
197.0928	19
197.1308	31
199.1105	23
199.1475	19
205.0984	23
207.1152	31
209.1317	27
211.1099	19
211.1432	15
213.1243	43
213.1646	19
220.127	15
223.1428	19
225.1652	15
227.1346	19
233.1289	15
237.1625	23
