Mass spectrum: Aripiprazole; LC-ESI-QTOF; MS2; 90 V
Name: Aripiprazole
Class: Pharmaceutical
Formula: C23H27Cl2N3O2
Exact mass: 447.148
SMILES: Clc1cccc(N2CCN(CCCCOc3ccc4CCC(=O)Nc4c3)CC2)c1Cl
InChI: InChI=1S/C23H27Cl2N3O2/c24-19-4-3-5-21(23(19)25)28-13-11-27(12-14-28)10-1-2-15-30-18-8-6-17-7-9-22(29)26-20(17)16-18/h3-6,8,16H,1-2,7,9-15H2,(H,26,29)
Instrument: TripleTOF 5600 SCIEX
Instrument type: LC-ESI-QTOF
Ms type: MS2
Ion mode: POSITIVE
Collision energy: 90
Fragmentation mode: CID
Ionization: ESI
Column name: Zorbax Eclipse Plus C18 2.1 mm x 150 mm, 3.5 um, Agilent
Retention time: 8.305 min
Precursor m/z: 448.1553
Precursor type: [M+H]+
m/z	relative intensity
42.0427	32
55.0236	53
55.0591	69
56.0563	155
65.0434	37
69.0722	37
70.0692	96
77.0416	225
77.0628	26
78.0362	32
79.0568	32
84.0827	134
89.0403	69
90.0496	75
91.0556	660
93.0722	32
94.0661	26
98.0971	155
103.0546	59
104.0499	204
105.066	26
106.0649	64
108.9841	69
110.0602	42
111.0	59
116.0494	69
117.0575	999
118.0658	934
120.0804	225
122.0619	80
125.0167	48
126.023	32
128.056	32
130.0646	37
132.9595	37
133.0527	48
134.0603	53
135.9962	32
138.0102	48
144.9599	300
146.0608	268
148.077	112
151.0185	69
152.0265	730
153.035	155
158.9763	42
160.9769	42
164.0257	96
164.0675	26
165.0314	42
166.0419	26
171.972	440
172.968	128
173.9868	75
176.0719	37
188.0018	161
193.0503	53
200.0026	53
212.9998	53
215.0049	26
228.023	42
