Mass spectrum: 1-(o-Tolyl)-biguanide; LC-ESI-QTOF; MS2; 60 V
Name: 1-(o-Tolyl)-biguanide
Class: Industrial_process
Formula: C9H13N5
Exact mass: 191.1171
SMILES: Cc1ccccc1N=C(N)N=C(N)N
InChI: InChI=1S/C9H13N5/c1-6-4-2-3-5-7(6)13-9(12)14-8(10)11/h2-5H,1H3,(H6,10,11,12,13,14)
Instrument: TripleTOF 5600 SCIEX
Instrument type: LC-ESI-QTOF
Ms type: MS2
Ion mode: POSITIVE
Collision energy: 60
Fragmentation mode: CID
Ionization: ESI
Column name: Zorbax Eclipse Plus C18 2.1 mm x 150 mm, 3.5 um, Agilent
Retention time: 4.675 min
Precursor m/z: 192.1244
Precursor type: [M+H]+
m/z	relative intensity
43.0383	500
51.0288	41
60.0609	445
65.0428	523
66.0498	23
68.0276	78
77.041	323
78.0355	40
79.0564	184
80.0506	14
85.052	18
89.0399	643
90.0352	31
90.0459	22
91.0549	999
92.0501	21
93.0581	344
104.0492	74
105.056	18
106.0649	609
108.0794	28
114.0333	18
116.0489	334
117.0562	51
118.0517	123
131.0589	59
132.0668	74
133.0748	27
