Mass spectrum: Trifloxystrobin; LC-ESI-QTOF; MS2; 110 V
Name: Trifloxystrobin
Class: Fungicide
Formula: C20H19F3N2O4
Exact mass: 408.1297
SMILES: CC(=NOCC1=CC=CC=C1C(=NOC)C(=O)OC)C2=CC(=CC=C2)C(F)(F)F
InChI: InChI=1S/C20H19F3N2O4/c1-13(14-8-6-9-16(11-14)20(21,22)23)24-29-12-15-7-4-5-10-17(15)18(25-28-3)19(26)27-2/h4-11H,12H2,1-3H3
Instrument: TripleTOF 5600 SCIEX
Instrument type: LC-ESI-QTOF
Ms type: MS2
Ion mode: POSITIVE
Collision energy: 110
Fragmentation mode: CID
Ionization: ESI
Column name: Zorbax Eclipse Plus C18 2.1 mm x 150 mm, 3.5 um, Agilent
Retention time: 15.037 min
Precursor m/z: 409.137
Precursor type: [M+H]+
m/z	relative intensity
51.0146	13
57.022	10
65.0457	52
69.0013	29
74.021	97
75.0273	414
77.0436	120
78.051	19
81.0178	19
89.0426	540
90.0496	169
91.0577	146
95.0318	692
99.0066	39
103.0565	92
104.0579	26
114.0333	13
115.044	33
116.0509	373
117.0587	104
118.0662	121
119.0112	55
123.0364	26
125.0212	277
130.0663	241
131.0737	108
132.0456	11
145.0265	999
146.0615	111
