Mass spectrum: Metobromuron; LC-ESI-QTOF; MS2; 100 V
Name: Metobromuron
Class: Herbicide
Formula: C9H11BrN2O2
Exact mass: 258.0004
SMILES: CN(C(=O)NC1=CC=C(C=C1)Br)OC
InChI: InChI=1S/C9H11BrN2O2/c1-12(14-2)9(13)11-8-5-3-7(10)4-6-8/h3-6H,1-2H3,(H,11,13)
Instrument: TripleTOF 6600 SCIEX
Instrument type: LC-ESI-QTOF
Ms type: MS2
Ion mode: POSITIVE
Collision energy: 100
Fragmentation mode: CID
Ionization: ESI
Column name: Zorbax Eclipse Plus C18 2.1 mm x 150 mm, 3.5 um, Agilent
Retention time: 10.623 min
Precursor m/z: 259.0077
Precursor type: [M+H]+
m/z	relative intensity
37.005	161
38.0127	242
39.0206	485
50.0123	67
51.0205	80
52.0155	202
61.0041	202
62.0126	256
63.0199	999
64.0284	256
65.0226	121
65.0359	499
74.0122	54
76.0156	67
77.0347	54
91.0387	256
92.0466	134
92.929	134
116.9296	404
119.0578	67
142.9446	80
