Mass spectrum: Fludioxonil; LC-ESI-QTOF; MS2; 90 V
Name: Fludioxonil
Class: Fungicide
Formula: C12H6F2N2O2
Exact mass: 248.0397
SMILES: c1cc(c2c(c1)OC(O2)(F)F)c3c[nH]cc3C#N
InChI: InChI=1S/C12H6F2N2O2/c13-12(14)17-10-3-1-2-8(11(10)18-12)9-6-16-5-7(9)4-15/h1-3,5-6,16H
Instrument: TripleTOF 6600 SCIEX
Instrument type: LC-ESI-QTOF
Ms type: MS2
Ion mode: NEGATIVE
Collision energy: 90
Fragmentation mode: CID
Ionization: ESI
Column name: Zorbax Eclipse Plus C18 2.1 mm x 150 mm, 3.5 um, Agilent
Retention time: 11.757 min
Precursor m/z: 247.0324
Precursor type: [M-H]-
m/z	relative intensity
49.0079	199
50.0035	999
62.0022	88
64.0051	111
65.0135	133
70.9923	44
73.0075	166
74.0024	233
89.0135	66
91.0288	44
98.002	88
114.0338	44
115.0296	122
139.03	88
152.0354	55
