Mass spectrum: Mirtazapine; LC-ESI-QTOF; MS2; 70 V
Name: Mirtazapine
Class: Pharmaceutical
Formula: C17H19N3
Exact mass: 265.1579
SMILES: CN1CCN2C(C1)C3=CC=CC=C3CC4=C2N=CC=C4
InChI: InChI=1S/C17H19N3/c1-19-9-10-20-16(12-19)15-7-3-2-5-13(15)11-14-6-4-8-18-17(14)20/h2-8,16H,9-12H2,1H3
Instrument: TripleTOF 5600 SCIEX
Instrument type: LC-ESI-QTOF
Ms type: MS2
Ion mode: POSITIVE
Collision energy: 70
Fragmentation mode: CID
Ionization: ESI
Column name: Zorbax Eclipse Plus C18 2.1 mm x 150 mm, 3.5 um, Agilent
Retention time: 5.459 min
Precursor m/z: 266.1652
Precursor type: [M+H]+
m/z	relative intensity
42.0462	23
44.0622	18
58.0728	24
65.046	134
70.0707	16
72.0865	70
77.0439	34
78.0381	45
80.0559	11
89.0422	39
90.0366	33
91.0559	63
92.0525	115
103.055	32
104.0553	14
105.0707	14
115.0552	156
116.0508	58
117.0494	68
118.0551	19
126.0485	13
127.0554	68
128.0543	55
129.0555	12
130.0645	93
131.0624	35
139.0559	71
140.0582	77
141.0682	62
143.0703	12
144.0805	23
150.0458	28
151.0546	193
152.0622	147
153.0591	75
154.0651	29
163.0513	12
164.0591	24
165.0692	49
166.0654	198
167.0738	437
168.0793	164
176.0491	9
177.0573	78
178.0649	127
179.072	162
180.0796	150
181.0788	10
190.0663	34
191.0739	33
192.068	149
193.0764	447
194.0838	999
195.0911	210
204.077	18
205.0746	47
206.0841	20
207.0931	34
216.0797	14
218.0848	81
219.0924	35
