Mass spectrum: Disperse Yellow 9; LC-ESI-QTOF; MS2; 80 V
Name: Disperse Yellow 9
Formula: C12H10N4O4
Exact mass: 274.0702
SMILES: C1=CC(=CC=C1N)NC2=C(C=C(C=C2)[N+](=O)[O-])[N+](=O)[O-]
InChI: InChI=1S/C12H10N4O4/c13-8-1-3-9(4-2-8)14-11-6-5-10(15(17)18)7-12(11)16(19)20/h1-7,14H,13H2
Instrument: TripleTOF X500R SCIEX
Instrument type: LC-ESI-QTOF
Ms type: MS2
Ion mode: POSITIVE
Collision energy: 80
Fragmentation mode: CID
Ionization: ESI
Column name: Zorbax Eclipse Plus C18 2.1 mm x 150 mm, 3.5 um, Agilent
Retention time: 9.832 min
Precursor m/z: 275.0775
Precursor type: [M+H]+
m/z	relative intensity
63.0235	53
65.0387	39
77.0388	84
89.0389	84
93.0579	35
101.0393	93
102.0472	48
104.0496	57
113.0391	155
114.0394	124
115.0524	88
116.0503	93
117.0587	57
125.0402	48
126.0461	164
127.0549	763
128.0507	501
129.0586	124
130.0656	84
132.067	17
137.0395	226
138.0473	372
139.0553	337
140.0501	341
141.0481	39
142.053	53
143.0616	22
145.0651	31
150.0342	17
152.0506	102
153.0568	142
154.066	843
155.061	137
164.0507	999
165.0581	137
166.0525	66
167.0603	44
168.0678	26
177.0449	44
179.0621	159
180.0679	48
181.0772	705
182.0866	39
193.0639	22
194.071	39
