Mass spectrum: Quinoxyfen; LC-ESI-QTOF; MS2; 70 V
Name: Quinoxyfen
Class: Fungicide
Formula: C15H8Cl2FNO
Exact mass: 306.9967
SMILES: C1=CC(=CC=C1OC2=C3C(=CC(=CC3=NC=C2)Cl)Cl)F
InChI: InChI=1S/C15H8Cl2FNO/c16-9-7-12(17)15-13(8-9)19-6-5-14(15)20-11-3-1-10(18)2-4-11/h1-8H
Instrument: TripleTOF 6600 SCIEX
Instrument type: LC-ESI-QTOF
Ms type: MS2
Ion mode: POSITIVE
Collision energy: 70
Fragmentation mode: CID
Ionization: ESI
Column name: Zorbax Eclipse Plus C18 2.1 mm x 150 mm, 3.5 um, Agilent
Retention time: 15.195 min
Precursor m/z: 308.004
Precursor type: [M+H]+
m/z	relative intensity
69.012	10
72.9825	14
73.0061	16
74.0139	170
75.0218	312
88.0298	19
89.037	25
95.0282	116
98.0134	18
99.0215	93
100.0168	23
108.9823	14
111.9933	16
114.0321	49
115.0404	109
116.047	10
122.9982	223
123.0294	19
124.0044	27
126.0321	75
127.0403	147
134.998	78
144.9598	16
150.0091	199
151.017	122
154.039	39
156.9602	12
157.9674	16
161.0013	26
162.0096	999
163.0044	34
163.0518	16
169.966	57
171.9717	15
178.0048	14
179.0113	73
181.0429	40
182.0508	39
183.0583	52
184.9784	95
188.0488	13
189.0566	14
190.0635	43
195.9722	16
196.9785	99
208.0552	100
209.0627	68
210.0697	14
213.9818	168
217.0214	15
225.0339	10
237.0579	70
243.0237	16
244.0341	12
272.0284	18
