Mass spectrum: Dinoseb; LC-ESI-QTOF; MS2; 30 V
Name: Dinoseb
Class: Herbicide
Formula: C10H12N2O5
Exact mass: 240.0746
SMILES: CCC(C)c1cc(cc(c1O)[N+](=O)[O-])[N+](=O)[O-]
InChI: InChI=1S/C10H12N2O5/c1-3-6(2)8-4-7(11(14)15)5-9(10(8)13)12(16)17/h4-6,13H,3H2,1-2H3
Instrument: TripleTOF 6600 SCIEX
Instrument type: LC-ESI-QTOF
Ms type: MS2
Ion mode: NEGATIVE
Collision energy: 30
Fragmentation mode: CID
Ionization: ESI
Column name: Zorbax Eclipse Plus C18 2.1 mm x 150 mm, 3.5 um, Agilent
Retention time: 13.78182 min
Precursor m/z: 239.0673
Precursor type: [M-H]-
m/z	relative intensity
45.9926	36
109.0157	14
134.0235	38
135.031	31
136.0388	13
137.047	15
151.0746	65
162.0188	11
163.0263	146
164.0341	13
164.046	28
176.0339	103
177.0415	69
178.0492	79
179.0699	63
180.0287	51
191.0567	37
192.0653	304
193.0245	999
194.0448	891
207.0392	163
208.0601	35
209.0191	116
209.0669	41
210.0267	64
221.0551	42
222.0627	140
239.0657	783
