Mass spectrum: Oxfendazole; LC-ESI-QTOF; MS2; 110 V
Name: Oxfendazole
Class: Pharmaceutical
Formula: C15H13N3O3S
Exact mass: 315.0678
SMILES: COC(=O)Nc1[nH]c2cc(ccc2n1)[S](=O)c3ccccc3
InChI: InChI=1S/C15H13N3O3S/c1-21-15(19)18-14-16-12-8-7-11(9-13(12)17-14)22(20)10-5-3-2-4-6-10/h2-9H,1H3,(H2,16,17,18,19)
Instrument: TripleTOF 5600 SCIEX
Instrument type: LC-ESI-QTOF
Ms type: MS2
Ion mode: POSITIVE
Collision energy: 110
Fragmentation mode: CID
Ionization: ESI
Column name: Zorbax Eclipse Plus C18 2.1 mm x 150 mm, 3.5 um, Agilent
Retention time: 6.579 min
Precursor m/z: 316.075
Precursor type: [M+H]+
m/z	relative intensity
51.0286	55
52.0222	44
52.0344	19
53.0326	13
65.0295	11
68.9836	19
69.0102	46
75.0113	35
75.0268	11
76.0204	309
77.0283	999
77.0645	11
77.0765	16
78.0355	154
79.0447	22
89.0262	16
90.0347	16
91.0423	27
92.0356	16
94.9957	16
102.0439	11
103.0292	85
104.0369	482
104.0659	13
104.0871	11
105.0447	146
113.0398	16
115.0527	13
116.0372	19
118.053	22
126.0445	13
127.0539	30
130.0394	49
131.0465	110
131.0641	13
139.0526	19
140.0484	35
152.0498	13
158.0347	16
159.0439	49
170.0189	16
171.0245	35
183.0158	22
196.0216	49
