Mass spectrum: Norlidocaine; LC-ESI-QTOF; MS2; 80 V
Name: Norlidocaine
Class: Pharmaceutical; Metabolite
Formula: C12H18N2O
Exact mass: 206.1419
SMILES: CCNCC(=O)Nc1c(cccc1C)C
InChI: InChI=1S/C12H18N2O/c1-4-13-8-11(15)14-12-9(2)6-5-7-10(12)3/h5-7,13H,4,8H2,1-3H3,(H,14,15)
Instrument: TripleTOF 6600 SCIEX
Instrument type: LC-ESI-QTOF
Ms type: MS2
Ion mode: POSITIVE
Collision energy: 80
Fragmentation mode: CID
Ionization: ESI
Column name: Zorbax Eclipse Plus C18 2.1 mm x 150 mm, 3.5 um, Agilent
Retention time: 5.349 min
Precursor m/z: 207.1492
Precursor type: [M+H]+
m/z	relative intensity
30.0342	329
37.0073	19
38.0025	106
38.0151	24
39.0228	82
40.0057	24
42.0337	48
50.0148	106
51.0231	543
52.006	29
53.0135	38
53.0383	43
54.0079	33
58.0654	538
63.0225	33
65.0386	135
67.0414	19
77.0386	999
78.0335	24
79.0539	213
80.0498	38
89.0385	189
90.046	58
91.0537	150
103.0535	58
105.0449	29
105.0694	24
106.0646	698
107.0485	43
107.0729	48
117.0567	33
118.0637	24
