Mass spectrum: Octrizole; LC-ESI-QTOF; MS2; 110 V
Name: Octrizole
Class: Industrial_process
Formula: C20H25N3O
Exact mass: 323.1998
SMILES: CC(C)(C)CC(C)(C)C1=CC(=C(C=C1)O)N2N=C3C=CC=CC3=N2
InChI: InChI=1S/C20H25N3O/c1-19(2,3)13-20(4,5)14-10-11-18(24)17(12-14)23-21-15-8-6-7-9-16(15)22-23/h6-12,24H,13H2,1-5H3
Instrument: TripleTOF 5600 SCIEX
Instrument type: LC-ESI-QTOF
Ms type: MS2
Ion mode: POSITIVE
Collision energy: 110
Fragmentation mode: CID
Ionization: ESI
Column name: Zorbax Eclipse Plus C18 2.1 mm x 150 mm, 3.5 um, Agilent
Retention time: 19.562 min
Precursor m/z: 324.207
Precursor type: [M+H]+
m/z	relative intensity
65.0455	999
77.0443	493
79.0594	149
80.056	68
89.0435	57
91.0586	172
92.0535	149
103.056	103
105.0726	68
115.0572	114
127.0564	68
128.0555	68
139.0565	172
140.0635	57
152.0631	103
154.0649	57
163.0531	57
166.0683	91
167.0722	103
