Mass spectrum: 2-Propinyl-triphenylphosphonium; LC-ESI-QTOF; MS2; 150 V
Name: 2-Propinyl-triphenylphosphonium
Formula: [C21H18P]+
Exact mass: 301.1141
SMILES: C#CC[P+](C1=CC=CC=C1)(C2=CC=CC=C2)C3=CC=CC=C3
InChI: InChI=1S/C21H18P/c1-2-18-22(19-12-6-3-7-13-19,20-14-8-4-9-15-20)21-16-10-5-11-17-21/h1,3-17H,18H2/q+1
Instrument: TripleTOF 6600 SCIEX
Instrument type: LC-ESI-QTOF
Ms type: MS2
Ion mode: POSITIVE
Collision energy: 150
Fragmentation mode: CID
Ionization: ESI
Column name: Zorbax Eclipse Plus C18 2.1 mm x 150 mm, 3.5 um, Agilent
Retention time: 7.928 min
Precursor m/z: 301.1141
Precursor type: [M]+
m/z	relative intensity
37.0066	62
39.0219	183
49.0056	142
50.0136	824
51.0215	999
55.979	129
56.9868	174
61.0051	148
62.0126	313
63.0207	608
65.036	124
67.9786	291
68.9865	155
74.0122	318
75.0201	109
76.0275	148
77.0357	286
78.9702	127
79.9779	493
80.9858	415
86.0109	156
87.0188	199
89.0346	317
91.9767	214
98.0114	153
102.0425	119
102.9686	65
103.9767	156
104.9853	55
107.0011	380
113.0351	78
115.0506	142
126.043	124
131.0012	52
137.0347	50
139.0505	81
150.0434	331
151.051	135
152.0591	63
161.0362	75
162.0429	104
163.0517	235
174.044	58
179.0021	85
180.0091	55
181.0174	57
187.0514	135
205.0168	76
