Mass spectrum: Omeprazole; LC-ESI-QTOF; MS2; 40 V
Name: Omeprazole
Class: Pharmaceutical
Formula: C17H19N3O3S
Exact mass: 345.1147
SMILES: COc1ccc2nc([nH]c2c1)[S](=O)Cc3ncc(C)c(OC)c3C
InChI: InChI=1S/C17H19N3O3S/c1-10-8-18-15(11(2)16(10)23-4)9-24(21)17-19-13-6-5-12(22-3)7-14(13)20-17/h5-8H,9H2,1-4H3,(H,19,20)
Instrument: TripleTOF 5600 SCIEX
Instrument type: LC-ESI-QTOF
Ms type: MS2
Ion mode: POSITIVE
Collision energy: 40
Fragmentation mode: CID
Ionization: ESI
Column name: Zorbax Eclipse Plus C18 2.1 mm x 150 mm, 3.5 um, Agilent
Retention time: 6.462 min
Precursor m/z: 346.122
Precursor type: [M+H]+
m/z	relative intensity
77.0424	10
79.0597	12
93.0742	13
106.0654	34
108.0816	96
120.0817	92
121.0892	222
122.0969	108
134.0477	41
136.0235	16
136.0761	999
149.0716	244
150.0918	397
151.0994	677
152.017	93
165.024	113
166.0323	42
166.0865	20
168.1021	136
179.0273	123
180.0479	769
181.0551	190
198.0586	536
328.1099	12
