Mass spectrum: Tetracycline; LC-ESI-QTOF; MS2; 70 V
Name: Tetracycline
Class: Pharmaceutical
Formula: C22H24N2O8
Exact mass: 444.1533
SMILES: CC1(C2CC3C(C(=O)C(=C(C3(C(=O)C2=C(C4=C1C=CC=C4O)O)O)O)C(=O)N)N(C)C)O
InChI: InChI=1S/C22H24N2O8/c1-21(31)8-5-4-6-11(25)12(8)16(26)13-9(21)7-10-15(24(2)3)17(27)14(20(23)30)19(29)22(10,32)18(13)28/h4-6,9-10,15,25-26,29,31-32H,7H2,1-3H3,(H2,23,30)
Instrument: TripleTOF 5600 SCIEX
Instrument type: LC-ESI-QTOF
Ms type: MS2
Ion mode: POSITIVE
Collision energy: 70
Fragmentation mode: CID
Ionization: ESI
Column name: Zorbax Eclipse Plus C18 2.1 mm x 150 mm, 3.5 um, Agilent
Retention time: 5.46 min
Precursor m/z: 445.1605
Precursor type: [M+H]+
m/z	relative intensity
46.0674	22
58.0646	22
68.046	22
70.0649	66
86.0603	66
95.0149	22
98.0601	377
115.0592	44
126.0551	44
129.0706	22
139.0505	22
145.062	22
152.0588	22
154.0449	44
165.0703	44
167.0823	66
168.0569	66
169.0706	22
176.0685	88
177.0702	44
180.0738	22
181.0629	44
187.0633	22
187.0762	22
192.0597	22
193.0708	44
195.0783	310
196.0423	22
196.0533	177
197.0543	44
197.0675	44
198.069	155
201.0614	88
207.0818	44
208.048	44
210.0522	66
211.0735	133
213.0549	22
213.0961	44
217.0663	22
219.0797	22
221.0511	22
223.0748	266
224.0419	133
224.0538	88
225.0517	44
226.0455	22
226.0643	999
234.0694	22
235.0459	22
235.0801	133
236.0428	111
237.0519	22
238.0648	155
239.0693	199
241.0861	355
241.1062	22
242.0621	177
247.0847	88
249.052	22
250.0661	88
251.0717	177
252.0393	532
254.0549	399
263.0653	66
267.0698	199
269.0767	111
269.0977	22
278.0588	421
281.1157	44
304.0324	22
306.0318	44
306.0541	155
334.0431	266
