Mass spectrum: 2-(4-Chlorophenyl)benzimidazole; LC-ESI-QTOF; MS2; 110 V
Name: 2-(4-Chlorophenyl)benzimidazole
Class: Pharmaceutical
Formula: C13H9ClN2
Exact mass: 228.0454
SMILES: C1=CC=C2C(=C1)NC(=N2)C3=CC=C(C=C3)Cl
InChI: InChI=1S/C13H9ClN2/c14-10-7-5-9(6-8-10)13-15-11-3-1-2-4-12(11)16-13/h1-8H,(H,15,16)
Instrument: TripleTOF 5600 SCIEX
Instrument type: LC-ESI-QTOF
Ms type: MS2
Ion mode: POSITIVE
Collision energy: 110
Fragmentation mode: CID
Ionization: ESI
Column name: Zorbax Eclipse Plus C18 2.1 mm x 150 mm, 3.5 um, Agilent
Retention time: 6.754 min
Precursor m/z: 229.0527
Precursor type: [M+H]+
m/z	relative intensity
52.0278	128
64.0353	128
65.046	999
72.9912	23
73.0134	50
74.0203	369
75.0285	233
76.024	34
77.045	77
86.021	42
87.0264	89
88.026	38
88.0358	23
89.0435	295
90.0355	15
91.0459	66
92.0539	42
98.0195	23
99.0241	19
102.0352	15
110.018	23
111.0207	19
113.0398	136
114.0333	34
115.0479	19
115.0581	27
137.0389	89
138.0436	73
139.0551	139
140.0499	101
164.0496	167
165.0455	34
166.0657	50
191.0604	34
192.0672	31
