Mass spectrum: Icaridin; LC-ESI-QTOF; MS2; 90 V
Name: Icaridin
Class: Insecticide
Formula: C12H23NO3
Exact mass: 229.1678
SMILES: CCC(C)OC(=O)N1CCCCC1CCO
InChI: InChI=1S/C12H23NO3/c1-3-10(2)16-12(15)13-8-5-4-6-11(13)7-9-14/h10-11,14H,3-9H2,1-2H3
Instrument: TripleTOF 6600 SCIEX
Instrument type: LC-ESI-QTOF
Ms type: MS2
Ion mode: POSITIVE
Collision energy: 90
Fragmentation mode: CID
Ionization: ESI
Column name: Zorbax Eclipse Plus C18 2.1 mm x 150 mm, 3.5 um, Agilent
Retention time: 10.188 min
Precursor m/z: 230.1751
Precursor type: [M+H]+
m/z	relative intensity
30.0328	99
37.0063	199
38.0142	224
39.0219	999
41.0373	574
51.0213	124
53.0369	99
55.0527	349
56.0479	349
65.0373	174
67.0525	174
68.0472	99
77.037	199
