Mass spectrum: Iopromide; LC-ESI-QTOF; MS2; 40 V
Name: Iopromide
Class: Pharmaceutical
Formula: C18H24I3N3O8
Exact mass: 790.8698
SMILES: COCC(=O)Nc1c(I)c(C(=O)NCC(O)CO)c(I)c(c1I)C(=O)N(C)CC(O)CO
InChI: InChI=1S/C18H24I3N3O8/c1-24(4-9(28)6-26)18(31)12-13(19)11(17(30)22-3-8(27)5-25)14(20)16(15(12)21)23-10(29)7-32-2/h8-9,25-28H,3-7H2,1-2H3,(H,22,30)(H,23,29)
Instrument: TripleTOF 5600 SCIEX
Instrument type: LC-ESI-QTOF
Ms type: MS2
Ion mode: POSITIVE
Collision energy: 40
Fragmentation mode: CID
Ionization: ESI
Column name: Zorbax Eclipse Plus C18 2.1 mm x 150 mm, 3.5 um, Agilent
Retention time: 4.895 min
Precursor m/z: 791.877
Precursor type: [M+H]+
m/z	relative intensity
291.0926	10
299.9116	35
326.8948	12
357.9179	22
372.9656	97
386.9797	51
388.9637	14
399.953	21
400.9931	10
404.9893	25
413.8135	36
413.9674	176
419.0101	14
425.8034	20
430.9737	33
442.846	12
444.9878	265
445.9934	14
446.9975	22
456.8516	87
460.0333	14
485.829	70
512.8761	33
523.868	10
527.8635	303
531.896	310
540.8718	51
541.8778	106
541.9128	12
545.9106	157
554.8914	40
558.8822	784
572.8987	999
595.7255	44
645.9508	176
668.8052	14
682.7989	31
686.7945	138
700.7798	12
700.8075	93
718.8184	16
773.8576	330
791.867	103
