Mass spectrum: Progesterone; LC-ESI-QTOF; MS2; 40 V
Name: Progesterone
Class: Pharmaceutical
Formula: C21H30O2
Exact mass: 314.2246
SMILES: CC(=O)[C@H]1CC[C@H]2[C@@H]3CCC4=CC(=O)CC[C@]4(C)[C@H]3CC[C@]12C
InChI: InChI=1S/C21H30O2/c1-13(22)17-6-7-18-16-5-4-14-12-15(23)8-10-20(14,2)19(16)9-11-21(17,18)3/h12,16-19H,4-11H2,1-3H3/t16-,17+,18-,19-,20-,21+/m0/s1
Instrument: TripleTOF 5600 SCIEX
Instrument type: LC-ESI-QTOF
Ms type: MS2
Ion mode: POSITIVE
Collision energy: 40
Fragmentation mode: CID
Ionization: ESI
Column name: Zorbax Eclipse Plus C18 2.1 mm x 150 mm, 3.5 um, Agilent
Retention time: 13.796 min
Precursor m/z: 315.2319
Precursor type: [M+H]+
m/z	relative intensity
43.0264	28
55.0592	10
67.0583	30
69.072	27
77.0408	44
79.0575	145
81.0722	121
83.051	36
85.0665	19
91.0569	46
93.0708	39
95.0864	58
97.0665	924
105.0697	56
107.0854	34
109.066	999
117.0691	13
119.0854	52
121.0642	15
121.0998	31
123.0803	110
129.0686	15
131.0854	47
133.1007	36
135.116	10
137.0964	17
143.0855	18
145.1009	47
147.1163	35
149.0947	13
157.0989	29
159.1167	42
161.1329	18
163.1108	20
169.1046	10
171.115	26
173.1303	36
175.1464	16
177.1275	22
183.1171	16
185.1323	17
187.1483	19
189.1259	18
197.1307	13
199.1482	18
201.1598	13
213.1609	19
215.1405	11
215.1781	15
223.1462	13
227.178	10
237.1646	11
239.1799	26
241.1579	11
