Mass spectrum: Icaridin; LC-ESI-QTOF; MS2; 40 V
Name: Icaridin
Class: Insecticide
Formula: C12H23NO3
Exact mass: 229.1678
SMILES: CCC(C)OC(=O)N1CCCCC1CCO
InChI: InChI=1S/C12H23NO3/c1-3-10(2)16-12(15)13-8-5-4-6-11(13)7-9-14/h10-11,14H,3-9H2,1-2H3
Instrument: TripleTOF 6600 SCIEX
Instrument type: LC-ESI-QTOF
Ms type: MS2
Ion mode: POSITIVE
Collision energy: 40
Fragmentation mode: CID
Ionization: ESI
Column name: Zorbax Eclipse Plus C18 2.1 mm x 150 mm, 3.5 um, Agilent
Retention time: 10.188 min
Precursor m/z: 230.1751
Precursor type: [M+H]+
m/z	relative intensity
30.033	21
39.0221	19
41.0378	60
43.0537	23
44.0485	50
55.053	206
56.0481	103
57.032	23
57.0689	44
65.037	21
67.0532	753
69.0685	101
70.0636	132
71.0478	359
77.0377	17
80.0594	11
83.0835	27
84.0794	448
91.0519	19
93.0682	113
95.0843	741
112.1108	431
113.0945	97
128.069	214
130.1212	999
156.1	9
