Mass spectrum: 4,4`-Methylenebis(2-methylaniline); LC-ESI-QTOF; MS2; 120 V
Name: 4,4`-Methylenebis(2-methylaniline)
Formula: C15H18N2
Exact mass: 226.147
SMILES: CC1=C(C=CC(=C1)CC2=CC(=C(C=C2)N)C)N
InChI: InChI=1S/C15H18N2/c1-10-7-12(3-5-14(10)16)9-13-4-6-15(17)11(2)8-13/h3-8H,9,16-17H2,1-2H3
Instrument: TripleTOF 6600 SCIEX
Instrument type: LC-ESI-QTOF
Ms type: MS2
Ion mode: POSITIVE
Collision energy: 120
Fragmentation mode: CID
Ionization: ESI
Column name: Zorbax Eclipse Plus C18 2.1 mm x 150 mm, 3.5 um, Agilent
Retention time: 5.215 min
Precursor m/z: 227.1543
Precursor type: [M+H]+
m/z	relative intensity
37.0064	65
39.0218	196
50.0136	442
51.0218	999
52.0276	81
53.0379	65
62.0135	114
63.0211	229
65.0375	180
74.0135	262
75.0223	147
76.0295	65
77.0372	900
78.0301	81
78.0439	131
80.0496	98
86.0132	98
87.0194	98
89.0368	163
91.0518	212
98.0134	114
102.0446	81
104.0467	147
115.0551	98
126.0442	114
139.0516	98
150.0435	278
151.0533	114
152.0611	81
162.041	147
163.0508	294
190.0633	98
