Mass spectrum: Estradiol; LC-ESI-QTOF; MS2; 110 V
Name: Estradiol
Class: Pharmaceutical
Formula: C18H24O2
Exact mass: 272.1776
SMILES: CC12CCC3C(C1CCC2O)CCC4=C3C=CC(=C4)O
InChI: InChI=1S/C18H24O2/c1-18-9-8-14-13-5-3-12(19)10-11(13)2-4-15(14)16(18)6-7-17(18)20/h3,5,10,14-17,19-20H,2,4,6-9H2,1H3
Instrument: TripleTOF 5600 SCIEX
Instrument type: LC-ESI-QTOF
Ms type: MS2
Ion mode: POSITIVE
Collision energy: 110
Fragmentation mode: CID
Ionization: ESI
Column name: Zorbax Eclipse Plus C18 2.1 mm x 150 mm, 3.5 um, Agilent
Retention time: 10.403 min
Precursor m/z: 273.1849
Precursor type: [M+H]+
m/z	relative intensity
37.0073	12
39.023	58
41.0384	37
43.0179	17
49.0079	12
50.0149	74
51.0231	355
53.0393	38
55.0174	54
55.0542	21
63.0227	37
65.0386	76
67.054	44
77.0388	999
78.0463	30
79.0538	113
81.0334	15
81.0691	14
89.0383	33
91.0537	95
103.0534	31
105.0708	17
107.049	136
115.0534	114
127.0528	15
128.0626	28
131.0488	10
