Mass spectrum: Topramezone; LC-ESI-QTOF; MS2; 50 V
Name: Topramezone
Class: Herbicide
Formula: C16H17N3O5S
Exact mass: 363.0889
SMILES: CC1=C(C=CC(=C1C2=NOCC2)S(=O)(=O)C)C(=O)C3=CNN(C3=O)C
InChI: InChI=1S/C16H17N3O5S/c1-9-10(15(20)11-8-17-19(2)16(11)21)4-5-13(25(3,22)23)14(9)12-6-7-24-18-12/h4-5,8,17H,6-7H2,1-3H3
Instrument: TripleTOF 6600 SCIEX
Instrument type: LC-ESI-QTOF
Ms type: MS2
Ion mode: NEGATIVE
Collision energy: 50
Fragmentation mode: CID
Ionization: ESI
Column name: Zorbax Eclipse Plus C18 2.1 mm x 150 mm, 3.5 um, Agilent
Retention time: 6.915 min
Precursor m/z: 362.0816
Precursor type: [M-H]-
m/z	relative intensity
41.9976	48
63.961	165
65.9981	73
78.9838	277
82.0157	51
97.0387	433
102.0344	19
103.04	12
114.0339	26
115.0426	584
116.0533	241
121.0094	14
124.027	21
128.0513	17
129.058	160
130.0648	523
131.0374	397
132.0428	29
140.0341	12
140.049	31
142.0308	14
142.0604	9
144.0503	9
144.0804	17
145.0526	29
149.0061	19
153.046	12
155.0209	12
156.0527	12
157.0624	14
158.0586	82
163.0236	77
167.0498	12
168.042	38
170.0589	12
179.0127	645
180.0272	250
181.043	97
182.0145	14
182.0425	19
183.0386	14
184.035	29
184.0518	24
192.0105	19
194.0269	660
195.0011	31
195.0597	14
197.0385	36
198.0533	24
198.0731	12
208.0159	21
208.0432	24
209.0131	24
209.0534	14
210.0203	187
210.0663	17
211.0444	17
211.0856	12
212.0614	12
214.0727	38
223.0428	26
224.0799	14
225.0641	46
226.0637	46
227.0427	17
227.0677	17
228.0915	36
236.0447	12
237.0523	29
238.0629	324
239.0693	999
240.0368	17
240.0771	131
242.0101	26
252.0616	12
252.0783	26
252.096	12
253.0816	82
254.0599	314
254.0924	29
254.1139	9
255.0654	365
260.0252	19
260.0418	14
282.083	14
282.1064	12
289.0376	36
318.0511	199
334.0474	377
362.0737	9
