Mass spectrum: 3,3`-Dichlorobenzidine; LC-ESI-QTOF; MS2; 60 V
Name: 3,3`-Dichlorobenzidine
Formula: C12H10Cl2N2
Exact mass: 252.0221
SMILES: C1=CC(=C(C=C1C2=CC(=C(C=C2)N)Cl)Cl)N
InChI: InChI=1S/C12H10Cl2N2/c13-9-5-7(1-3-11(9)15)8-2-4-12(16)10(14)6-8/h1-6H,15-16H2
Instrument: TripleTOF 6600 SCIEX
Instrument type: LC-ESI-QTOF
Ms type: MS2
Ion mode: POSITIVE
Collision energy: 60
Fragmentation mode: CID
Ionization: ESI
Column name: Zorbax Eclipse Plus C18 2.1 mm x 150 mm, 3.5 um, Agilent
Retention time: 11.426 min
Precursor m/z: 253.0294
Precursor type: [M+H]+
m/z	relative intensity
77.0386	55
101.0375	24
102.0469	15
103.0536	27
115.0539	14
126.0463	32
127.019	16
127.0541	275
128.0599	109
129.0551	16
130.0643	189
131.0734	15
137.0392	12
138.0454	40
139.0538	60
140.0507	36
151.0202	16
152.0476	16
153.0571	65
154.0648	999
155.0662	207
156.0784	25
164.0262	104
164.0497	64
165.0572	53
166.0643	44
173.0151	23
179.0605	36
180.0678	17
181.076	511
182.0836	194
190.0422	118
201.0334	40
215.0394	28
216.0465	11
218.0634	17
