Mass spectrum: Roxithromycine; LC-ESI-QTOF; MS2; 60 V
Name: Roxithromycine
Class: Pharmaceutical
Formula: C41H76N2O15
Exact mass: 836.5246
SMILES: CC[C@@H]1[C@@]([C@@H]([C@H](/C(=N/OCOCCOC)/[C@@H](C[C@@]([C@@H]([C@H]([C@@H]([C@H](C(=O)O1)C)O[C@H]2C[C@@]([C@H]([C@@H](O2)C)O)(C)OC)C)O[C@H]3[C@@H]([C@H](C[C@H](O3)C)N(C)C)O)(C)O)C)C)O)(C)O
InChI: InChI=1S/C41H76N2O15/c1-15-29-41(10,49)34(45)24(4)31(42-53-21-52-17-16-50-13)22(2)19-39(8,48)36(58-38-32(44)28(43(11)12)18-23(3)54-38)25(5)33(26(6)37(47)56-29)57-30-20-40(9,51-14)35(46)27(7)55-30/h22-30,32-36,38,44-46,48-49H,15-21H2,1-14H3/b42-31+/t22-,23-,24+,25+,26-,27+,28+,29-,30+,32-,33+,34-,35+,36-,38+,39-,40-,41-/m1/s1
Instrument: TripleTOF 5600 SCIEX
Instrument type: LC-ESI-QTOF
Ms type: MS2
Ion mode: POSITIVE
Collision energy: 60
Fragmentation mode: CID
Ionization: ESI
Column name: Zorbax Eclipse Plus C18 2.1 mm x 150 mm, 3.5 um, Agilent
Retention time: 8.911 min
Precursor m/z: 837.5318
Precursor type: [M+H]+
m/z	relative intensity
72.0822	33
83.0503	192
87.0449	20
88.0758	10
98.0965	129
100.0743	16
113.0579	64
114.0899	19
115.0724	36
116.0686	91
116.1051	255
127.0734	27
158.1166	999
380.2428	18
398.2523	27
410.2506	12
446.2733	11
555.3566	10
679.4338	51
