Mass spectrum: 6PPD-quinone; LC-ESI-QTOF; MS2; 80 V
Name: 6PPD-quinone
Class: Industrial_process
Formula: C18H22N2O2
Exact mass: 298.1681
SMILES: CC(C)CC(C)NC1=CC(=O)C(=CC1=O)NC2=CC=CC=C2
InChI: InChI=1S/C18H22N2O2/c1-12(2)9-13(3)19-15-10-18(22)16(11-17(15)21)20-14-7-5-4-6-8-14/h4-8,10-13,19-20H,9H2,1-3H3
Instrument: TripleTOF 6600 SCIEX
Instrument type: LC-ESI-QTOF
Ms type: MS2
Ion mode: POSITIVE
Collision energy: 80
Fragmentation mode: CID
Ionization: ESI
Column name: Zorbax Eclipse Plus C18 2.1 mm x 150 mm, 3.5 um, Agilent
Retention time: 13.951 min
Precursor m/z: 299.1754
Precursor type: [M+H]+
m/z	relative intensity
39.0229	86
41.0384	137
43.0547	68
51.0232	223
54.0335	68
55.0173	68
65.0378	68
68.0127	172
77.0385	999
82.0519	155
89.0378	120
91.054	361
93.0566	206
101.0385	68
103.0535	86
104.0497	137
105.0448	86
111.0543	68
115.0536	499
116.0489	137
117.0567	206
118.0635	137
127.0535	137
128.0488	258
130.0649	120
140.0506	137
142.063	120
143.0719	241
144.0801	86
154.0651	68
172.0768	86
199.0867	68
