Mass spectrum: Bosentan; LC-ESI-QTOF; MS2; 120 V
Name: Bosentan
Class: Pharmaceutical
Formula: C27H29N5O6S
Exact mass: 551.1839
SMILES: CC(C)(C)C1=CC=C(C=C1)S(=O)(=O)NC2=C(C(=NC(=N2)C3=NC=CC=N3)OCCO)OC4=CC=CC=C4OC
InChI: InChI=1S/C27H29N5O6S/c1-27(2,3)18-10-12-19(13-11-18)39(34,35)32-23-22(38-21-9-6-5-8-20(21)36-4)26(37-17-16-33)31-25(30-23)24-28-14-7-15-29-24/h5-15,33H,16-17H2,1-4H3,(H,30,31,32)
Instrument: TripleTOF 5600 SCIEX
Instrument type: LC-ESI-QTOF
Ms type: MS2
Ion mode: POSITIVE
Collision energy: 120
Fragmentation mode: CID
Ionization: ESI
Column name: Zorbax Eclipse Plus C18 2.1 mm x 150 mm, 3.5 um, Agilent
Retention time: 12.118 min
Precursor m/z: 552.1911
Precursor type: [M+H]+
m/z	relative intensity
52.0281	34
53.0338	22
54.0447	10
65.0457	115
75.0297	14
77.0433	177
78.0505	64
79.0339	533
79.0549	14
80.018	19
80.0417	503
81.0459	16
89.0415	30
90.0435	22
91.0419	13
91.0578	83
92.0307	16
92.0523	45
93.0373	126
95.0529	23
97.042	15
102.0354	57
103.0555	15
104.051	98
105.0362	15
105.0648	48
106.0416	999
107.0488	34
108.0556	26
109.0301	13
109.0535	14
114.0371	11
115.0509	29
116.0506	67
117.0713	39
118.0499	33
119.037	10
119.062	74
120.0456	318
121.0288	58
122.0597	11
123.0656	16
129.0458	14
130.0385	26
131.0622	63
132.0463	28
132.0673	17
133.0548	10
134.0522	42
135.0556	28
143.0617	13
144.0453	30
145.0447	14
147.0622	68
157.0545	19
197.0828	26
263.0595	16
