Mass spectrum: Tepraloxydim; LC-ESI-QTOF; MS2; 110 V
Name: Tepraloxydim
Class: Herbicide
Formula: C17H24ClNO4
Exact mass: 341.1394
SMILES: CCC(=NOCC=CCl)C1=C(CC(CC1=O)C2CCOCC2)O
InChI: InChI=1S/C17H24ClNO4/c1-2-14(19-23-7-3-6-18)17-15(20)10-13(11-16(17)21)12-4-8-22-9-5-12/h3,6,12-13,20H,2,4-5,7-11H2,1H3
Instrument: TripleTOF 6600 SCIEX
Instrument type: LC-ESI-QTOF
Ms type: MS2
Ion mode: POSITIVE
Collision energy: 110
Fragmentation mode: CID
Ionization: ESI
Column name: Zorbax Eclipse Plus C18 2.1 mm x 150 mm, 3.5 um, Agilent
Retention time: 12.248 min
Precursor m/z: 342.1467
Precursor type: [M+H]+
m/z	relative intensity
37.0066	55
38.0144	36
39.0222	312
41.0251	73
41.0377	202
42.033	147
43.017	128
44.0122	61
46.967	49
48.9829	337
50.0148	128
51.0221	422
52.0299	42
53.0009	36
53.0378	153
54.0326	122
55.0173	49
55.0533	91
56.0484	159
63.0213	55
65.0374	343
66.0331	91
66.045	36
67.0402	116
67.0532	104
68.012	55
68.0482	159
69.0327	36
74.9985	134
75.0206	30
77.0375	999
78.0332	49
78.0449	61
79.0531	153
80.0478	159
81.0326	49
81.0551	55
81.0691	30
82.064	73
89.0376	91
90.0446	30
91.053	386
92.0491	61
93.0563	110
93.0681	36
94.0637	140
96.0429	134
98.059	91
102.045	55
103.0531	134
104.0489	24
105.0439	67
106.064	30
107.0468	42
109.0511	24
115.0529	196
117.0555	55
118.0642	55
127.0525	42
128.0606	110
130.0639	49
155.0589	30
