Mass spectrum: Flunixin; LC-ESI-QTOF; MS2; 70 V
Name: Flunixin
Class: Pharmaceutical
Formula: C14H11F3N2O2
Exact mass: 296.0773
SMILES: CC1=C(C=CC=C1NC2=C(C=CC=N2)C(=O)O)C(F)(F)F
InChI: InChI=1S/C14H11F3N2O2/c1-8-10(14(15,16)17)5-2-6-11(8)19-12-9(13(20)21)4-3-7-18-12/h2-7H,1H3,(H,18,19)(H,20,21)
Instrument: TripleTOF 5600 SCIEX
Instrument type: LC-ESI-QTOF
Ms type: MS2
Ion mode: POSITIVE
Collision energy: 70
Fragmentation mode: CID
Ionization: ESI
Column name: Zorbax Eclipse Plus C18 2.1 mm x 150 mm, 3.5 um, Agilent
Retention time: 11.023 min
Precursor m/z: 297.0845
Precursor type: [M+H]+
m/z	relative intensity
51.0324	11
57.0226	11
78.0391	73
79.0461	14
83.0342	180
89.0424	40
90.0498	12
93.0168	16
93.048	10
98.0179	41
99.0261	215
106.0671	32
109.0468	999
113.0208	11
113.0405	22
114.034	10
115.0548	12
119.0306	205
127.0558	69
128.0506	23
132.0379	20
133.029	12
133.0451	15
134.0422	13
137.0385	11
138.0291	24
139.0376	61
140.0505	414
141.0537	13
142.0535	19
145.027	44
147.0362	55
151.0367	12
152.0488	15
153.0574	30
154.0661	124
155.0645	28
157.0453	100
158.04	113
159.045	84
160.0408	10
162.0278	17
163.0377	26
164.0499	147
165.0443	67
166.0539	69
167.0618	173
169.0326	16
170.0318	23
171.0487	13
174.052	10
176.0307	20
177.05	15
179.061	78
180.0686	114
181.0762	559
182.0346	108
182.0828	26
183.0466	61
184.0564	241
185.0469	55
186.0586	347
187.0376	37
188.0293	27
189.0394	140
190.0464	65
191.0605	73
192.0678	40
194.0408	30
195.0537	42
196.0413	28
197.0494	75
199.0648	10
202.0462	26
203.0551	28
204.0575	15
208.0377	57
208.0637	14
209.0653	276
210.058	228
211.0666	76
213.0388	18
214.0497	42
215.0414	119
216.0497	93
217.0571	266
221.0507	10
222.0498	16
228.0465	16
229.0569	38
230.0639	31
231.0743	20
234.051	10
235.0479	262
236.055	631
237.0403	63
238.055	13
239.0613	31
241.0572	29
245.0525	10
249.0631	75
257.0503	17
258.057	13
259.0679	14
263.0428	68
264.0507	257
277.0608	13
