Mass spectrum: N-[2-[(2-Bromo-4,6-dinitrophenyl)azo]-5-(diethylamino)phenyl]acetamide; LC-ESI-QTOF; MS2; 50 V
Name: N-[2-[(2-Bromo-4,6-dinitrophenyl)azo]-5-(diethylamino)phenyl]acetamide
Formula: [C18H19BrN6O5]-
Exact mass: 478.06
SMILES: CCN(CC)C1=CC(=C(C=C1)N=NC2=C(C=C(C=C2Br)[N+](=O)[O-])[N+](=O)[O-])NC(=O)C
InChI: InChI=1S/C18H19BrN6O5/c1-4-23(5-2)12-6-7-15(16(9-12)20-11(3)26)21-22-18-14(19)8-13(24(27)28)10-17(18)25(29)30/h6-10H,4-5H2,1-3H3,(H,20,26)
Instrument: TripleTOF 6600 SCIEX
Instrument type: LC-ESI-QTOF
Ms type: MS2
Ion mode: NEGATIVE
Collision energy: 50
Fragmentation mode: CID
Ionization: ESI
Column name: Zorbax Eclipse Plus C18 2.1 mm x 150 mm, 3.5 um, Agilent
Retention time: 16.579 min
Precursor m/z: 478.0614
Precursor type: [M]-
m/z	relative intensity
78.9185	999
117.0447	14
120.0083	40
132.0699	18
159.0713	10
161.0729	9
175.087	15
186.9269	547
199.9346	77
205.136	11
210.0641	9
214.9223	28
215.9279	69
224.1197	21
229.9322	173
238.0618	40
244.9196	122
251.0618	12
251.1249	12
252.0653	12
254.0539	82
281.0616	20
281.111	20
282.0616	29
315.9793	27
324.0706	23
325.1788	8
326.1351	10
333.9801	89
354.0648	12
360.0106	18
361.9898	111
378.049	22
403.9995	213
406.0492	25
419.0131	10
