Mass spectrum: Didesmethyl-citalopram; LC-ESI-QTOF; MS2; 30 V
Name: Didesmethyl-citalopram
Class: Pharmaceutical; Metabolite
Formula: C18H17FN2O
Exact mass: 296.1325
SMILES: c1cc(ccc1C2(c3ccc(cc3CO2)C#N)CCCN)F
InChI: InChI=1S/C18H17FN2O/c19-16-5-3-15(4-6-16)18(8-1-9-20)17-7-2-13(11-21)10-14(17)12-22-18/h2-7,10H,1,8-9,12,20H2
Instrument: TripleTOF 5600 SCIEX
Instrument type: LC-ESI-QTOF
Ms type: MS2
Ion mode: POSITIVE
Collision energy: 30
Fragmentation mode: CID
Ionization: ESI
Column name: Zorbax Eclipse Plus C18 2.1 mm x 150 mm, 3.5 um, Agilent
Retention time: 7.575 min
Precursor m/z: 297.1398
Precursor type: [M+H]+
m/z	relative intensity
83.0311	13
109.0445	999
116.0493	217
140.0489	12
144.0443	10
154.0634	10
156.081	32
166.0648	84
183.0911	48
215.085	43
220.0687	20
221.0638	119
222.0712	50
227.0725	92
233.0755	21
234.0712	416
235.0916	77
236.0855	18
238.0658	31
240.0803	28
241.0883	28
242.096	113
245.0744	23
246.0728	42
247.0787	273
250.1018	35
260.0853	38
261.0953	33
262.1025	817
279.129	281
280.1131	11
297.136	13
