Mass spectrum: (3-Carboxypropyl)triphenylphosphonium; LC-ESI-QTOF; MS2; 20 V
Name: (3-Carboxypropyl)triphenylphosphonium
Class: Pharmaceutical
Formula: C22H22O2P
Exact mass: 349.1352
InChI: InChI=1S/C22H21O2P/c23-22(24)17-10-18-25(19-11-4-1-5-12-19,20-13-6-2-7-14-20)21-15-8-3-9-16-21/h1-9,11-16H,10,17-18H2/p+1
Instrument: TripleTOF 5600 SCIEX
Instrument type: LC-ESI-QTOF
Ms type: CID
Ion mode: POSITIVE
Collision energy: 20
Ionization: ESI
Column name: Zorbax Eclipse Plus C18 2.1 mm x 150 mm, 3.5 um, Agilent
Retention time: 7.192 min
Precursor m/z: 349.1352
Precursor type: [M]+
m/z	relative intensity
349.1346	999
