Mass spectrum: 4`-Aminoacetanilide; LC-ESI-QTOF; MS2; 50 V
Name: 4`-Aminoacetanilide
Formula: C8H10N2O
Exact mass: 150.0793
SMILES: CC(=O)NC1=CC=C(C=C1)N
InChI: InChI=1S/C8H10N2O/c1-6(11)10-8-4-2-7(9)3-5-8/h2-5H,9H2,1H3,(H,10,11)
Instrument: TripleTOF X500R SCIEX
Instrument type: LC-ESI-QTOF
Ms type: MS2
Ion mode: POSITIVE
Collision energy: 50
Fragmentation mode: CID
Ionization: ESI
Column name: Zorbax Eclipse Plus C18 2.1 mm x 150 mm, 3.5 um, Agilent
Retention time: 2.212 min
Precursor m/z: 151.0866
Precursor type: [M+H]+
m/z	relative intensity
38.0143	16
39.0231	335
43.0178	541
54.0336	16
65.0384	999
66.0339	24
66.0463	72
67.0413	40
80.0499	141
81.056	52
82.0644	32
92.0495	303
93.0575	400
107.0604	113
108.0689	359
109.0769	16
