Mass spectrum: N,O-didesmethyl-venlafaxine; LC-ESI-QTOF; MS2; 140 V
Name: N,O-didesmethyl-venlafaxine
Class: Pharmaceutical; Metabolite
Formula: C15H23NO2
Exact mass: 249.1729
InChI: InChI=1S/C15H23NO2/c1-16-11-14(12-5-7-13(17)8-6-12)15(18)9-3-2-4-10-15/h5-8,14,16-18H,2-4,9-11H2,1H3
Instrument: TripleTOF 5600 SCIEX
Instrument type: LC-ESI-QTOF
Ms type: CID
Ion mode: POSITIVE
Collision energy: 140
Ionization: ESI
Column name: Zorbax Eclipse Plus C18 2.1 mm x 150 mm, 3.5 um, Agilent
Retention time: 5.659 min
Precursor m/z: 250.1802
Precursor type: [M+H]+
m/z	relative intensity
44.0583	999
53.0439	56
55.0232	37
55.0586	26
63.049	22
65.0419	218
66.0503	22
74.018	98
75.0273	49
77.0412	640
78.0521	26
79.0566	41
81.0693	18
89.0402	180
90.046	22
91.0554	64
115.0548	64
