Mass spectrum: Flavanone; LC-ESI-QTOF; MS2; 110 V
Name: Flavanone
Class: Personal_care_product
Formula: C15H12O2
Exact mass: 224.0837
SMILES: C1C(OC2=CC=CC=C2C1=O)C3=CC=CC=C3
InChI: InChI=1S/C15H12O2/c16-13-10-15(11-6-2-1-3-7-11)17-14-9-5-4-8-12(13)14/h1-9,15H,10H2
Instrument: TripleTOF 5600 SCIEX
Instrument type: LC-ESI-QTOF
Ms type: MS2
Ion mode: POSITIVE
Collision energy: 110
Fragmentation mode: CID
Ionization: ESI
Column name: Zorbax Eclipse Plus C18 2.1 mm x 150 mm, 3.5 um, Agilent
Retention time: 12.61 min
Precursor m/z: 225.091
Precursor type: [M+H]+
m/z	relative intensity
37.0073	137
38.0152	97
39.0229	362
50.0144	186
51.0231	999
62.0147	58
63.0224	117
65.0384	225
74.0147	215
75.0224	156
76.0311	68
77.0386	597
98.0142	58
102.0452	48
126.0469	78
150.0457	215
151.0549	97
163.0569	48
175.0522	48
176.0589	117
