Mass spectrum: Methyl 3-hydroxybenzoate; LC-ESI-QTOF; MS2; 100 V
Name: Methyl 3-hydroxybenzoate
Class: Pharmaceutical
Formula: C8H8O3
Exact mass: 152.0473
SMILES: COC(=O)C1=CC(=CC=C1)O
InChI: InChI=1S/C8H8O3/c1-11-8(10)6-3-2-4-7(9)5-6/h2-5,9H,1H3
Instrument: TripleTOF 5600 SCIEX
Instrument type: LC-ESI-QTOF
Ms type: MS2
Ion mode: POSITIVE
Collision energy: 100
Fragmentation mode: CID
Ionization: ESI
Column name: Zorbax Eclipse Plus C18 2.1 mm x 150 mm, 3.5 um, Agilent
Retention time: 7.88 min
Precursor m/z: 153.0546
Precursor type: [M+H]+
m/z	relative intensity
35.9997	222
37.0075	555
38.0153	666
39.023	999
51.025	111
53.0022	333
65.0369	111
73.006	111
74.0159	333
