Mass spectrum: Metoclopramide; LC-ESI-QTOF; MS2; 60 V
Name: Metoclopramide
Class: Pharmaceutical
Formula: C14H22ClN3O2
Exact mass: 299.1401
SMILES: CCN(CC)CCNC(=O)C1=CC(=C(C=C1OC)N)Cl
InChI: InChI=1S/C14H22ClN3O2/c1-4-18(5-2)7-6-17-14(19)10-8-11(15)12(16)9-13(10)20-3/h8-9H,4-7,16H2,1-3H3,(H,17,19)
Instrument: TripleTOF 5600 SCIEX
Instrument type: LC-ESI-QTOF
Ms type: MS2
Ion mode: POSITIVE
Collision energy: 60
Fragmentation mode: CID
Ionization: ESI
Column name: Zorbax Eclipse Plus C18 2.1 mm x 150 mm, 3.5 um, Agilent
Retention time: 5.459 min
Precursor m/z: 300.1473
Precursor type: [M+H]+
m/z	relative intensity
65.0445	11
78.0397	98
90.0381	205
92.0537	25
93.0613	85
99.0034	45
100.116	15
105.0473	24
113.0054	389
119.0627	13
120.0461	35
126.0125	186
127.0192	15
128.0279	75
129.0121	54
140.0142	37
140.9988	686
147.0546	15
148.0644	90
154.0068	86
156.0219	166
168.0089	565
168.9928	295
170.0007	95
181.0157	28
182.0246	42
183.032	138
184.016	999
211.0266	26
212.0343	244
227.0573	31
