Mass spectrum: 14-Hydroxycodeinone; LC-ESI-QTOF; MS2; 100 V
Name: 14-Hydroxycodeinone
Class: Pharmaceutical; Transformation_product
Formula: C18H19NO4
Exact mass: 313.1314
SMILES: COc1ccc2C[C@H]3N(C)CC[C@@]45C(Oc1c24)C(=O)C=C[C@@]35O
InChI: InChI=1S/C18H19NO4/c1-19-8-7-17-14-10-3-4-12(22-2)15(14)23-16(17)11(20)5-6-18(17,21)13(19)9-10/h3-6,13,16,21H,7-9H2,1-2H3/t13-,16?,17+,18-/m1/s1
Instrument: TripleTOF 5600 SCIEX
Instrument type: LC-ESI-QTOF
Ms type: MS2
Ion mode: POSITIVE
Collision energy: 100
Fragmentation mode: CID
Ionization: ESI
Column name: Zorbax Eclipse Plus C18 2.1 mm x 150 mm, 3.5 um, Agilent
Retention time: 5.367 min
Precursor m/z: 314.1387
Precursor type: [M+H]+
m/z	relative intensity
42.0422	20
51.0273	12
65.0426	29
74.0188	13
75.0244	17
76.0336	10
77.0415	111
78.0354	12
78.0477	23
88.033	17
89.0407	130
90.0473	12
91.0554	31
92.0515	18
93.0582	12
94.0653	10
101.04	24
102.046	62
103.0543	23
113.0384	65
114.0459	54
115.0548	549
116.0504	54
117.0579	37
118.066	23
125.0389	23
126.0471	90
127.0545	236
128.0619	194
129.0686	21
130.0651	38
131.0726	34
138.0469	29
139.055	913
140.0565	343
141.0684	111
142.0645	49
143.0727	23
149.0391	12
150.0469	100
151.0545	264
152.0622	635
153.0664	285
154.0657	170
155.0489	35
155.074	34
156.0801	24
162.0477	15
163.054	142
164.0618	156
165.0701	338
166.0655	999
167.0736	512
168.0577	35
168.0804	150
169.0634	10
169.0866	12
170.0617	10
175.0552	21
176.0626	96
177.0606	49
178.0669	128
179.0725	73
180.0541	12
180.0812	374
181.0609	12
181.089	324
182.0621	41
182.0956	54
189.0692	31
190.0654	82
191.0738	90
192.0792	51
193.0885	26
194.0589	73
194.095	23
195.0687	93
196.0748	12
197.0821	10
202.0646	20
203.0718	51
204.0801	29
205.0846	17
206.0602	23
207.0682	20
208.0742	48
209.083	35
210.0916	60
219.0682	17
220.0775	26
221.0841	10
222.0543	37
236.0727	26
238.0876	62
