Mass spectrum: Parathion-methyl; LC-ESI-QTOF; MS2; 120 V
Name: Parathion-methyl
Class: Insecticide
Formula: C8H10NO5PS
Exact mass: 263.0017
SMILES: COP(=S)(OC)OC1=CC=C(C=C1)[N+](=O)[O-]
InChI: InChI=1S/C8H10NO5PS/c1-12-15(16,13-2)14-8-5-3-7(4-6-8)9(10)11/h3-6H,1-2H3
Instrument: TripleTOF 6600 SCIEX
Instrument type: LC-ESI-QTOF
Ms type: MS2
Ion mode: POSITIVE
Collision energy: 120
Fragmentation mode: CID
Ionization: ESI
Column name: Zorbax Eclipse Plus C18 2.1 mm x 150 mm, 3.5 um, Agilent
Retention time: 12.495 min
Precursor m/z: 264.009
Precursor type: [M+H]+
m/z	relative intensity
44.9783	484
46.9661	249
46.9937	102
49.0064	102
50.0143	470
61.0056	117
62.0138	146
62.9445	205
63.0215	146
68.9783	279
73.0054	190
74.014	999
75.0211	235
81.9845	58
