Mass spectrum: 2-Hydroxy-N-phenylpropanamide; LC-ESI-QTOF; MS2; 20 V
Name: 2-Hydroxy-N-phenylpropanamide
Class: Pharmaceutical
Formula: C9H11NO2
Exact mass: 165.079
SMILES: CC(C(=O)NC1=CC=CC=C1)O
InChI: InChI=1S/C9H11NO2/c1-7(11)9(12)10-8-5-3-2-4-6-8/h2-7,11H,1H3,(H,10,12)
Instrument: TripleTOF 5600 SCIEX
Instrument type: LC-ESI-QTOF
Ms type: MS2
Ion mode: POSITIVE
Collision energy: 20
Fragmentation mode: CID
Ionization: ESI
Column name: Zorbax Eclipse Plus C18 2.1 mm x 150 mm, 3.5 um, Agilent
Retention time: 6.608 min
Precursor m/z: 166.0863
Precursor type: [M+H]+
m/z	relative intensity
45.042	9
77.0429	31
92.0532	9
93.0682	15
94.068	389
103.0559	65
105.0718	60
106.0679	11
118.0672	18
120.0465	22
120.0836	999
148.0779	289
166.0899	133
