Mass spectrum: Inosine 5`-monophosphate; LC-ESI-QTOF; MS2; 140 V
Name: Inosine 5`-monophosphate
Class: Metabolite
Formula: C10H13N4O8P
Exact mass: 348.0471
InChI: InChI=1S/C10H13N4O8P/c15-6-4(1-21-23(18,19)20)22-10(7(6)16)14-3-13-5-8(14)11-2-12-9(5)17/h2-4,6-7,10,15-16H,1H2,(H,11,12,17)(H2,18,19,20)
Instrument: TripleTOF 5600 SCIEX
Instrument type: LC-ESI-QTOF
Ms type: CID
Ion mode: POSITIVE
Collision energy: 140
Ionization: ESI
Column name: Zorbax Eclipse Plus C18 2.1 mm x 150 mm, 3.5 um, Agilent
Retention time: 2.062 min
Precursor m/z: 349.0544
Precursor type: [M+H]+
m/z	relative intensity
39.0233	358
40.0189	102
41.039	128
55.0289	999
62.9629	333
65.0131	358
67.028	204
80.9736	819
82.0397	307
92.0241	281
94.0398	179
98.9858	153
110.0356	358
119.0335	435
