Mass spectrum: Mefloquine; LC-ESI-QTOF; MS2; 60 V
Name: Mefloquine
Class: Pharmaceutical
Formula: C17H16F6N2O
Exact mass: 378.1167
SMILES: C1CCNC(C1)C(C2=CC(=NC3=C2C=CC=C3C(F)(F)F)C(F)(F)F)O
InChI: InChI=1S/C17H16F6N2O/c18-16(19,20)11-5-3-4-9-10(15(26)12-6-1-2-7-24-12)8-13(17(21,22)23)25-14(9)11/h3-5,8,12,15,24,26H,1-2,6-7H2
Instrument: TripleTOF 5600 SCIEX
Instrument type: LC-ESI-QTOF
Ms type: MS2
Ion mode: POSITIVE
Collision energy: 60
Fragmentation mode: CID
Ionization: ESI
Column name: Zorbax Eclipse Plus C18 2.1 mm x 150 mm, 3.5 um, Agilent
Retention time: 8.432 min
Precursor m/z: 379.124
Precursor type: [M+H]+
m/z	relative intensity
56.0564	24
67.05	24
68.0558	147
68.9995	12
70.0712	62
80.0542	50
81.0623	16
82.0697	396
83.0773	114
84.0846	203
96.0844	12
140.049	23
152.0505	10
153.0564	11
163.0358	10
165.0577	22
166.0643	27
169.0421	14
171.0362	14
176.0309	12
177.0483	19
178.0667	29
179.0641	23
180.0716	14
181.0758	26
182.0368	17
182.0559	12
183.0409	79
184.0579	15
189.0381	92
190.0476	31
191.0634	20
194.0194	33
194.0397	18
194.0815	11
195.0447	21
195.0934	10
196.0383	48
196.0583	12
197.0605	30
201.0303	15
202.0467	161
203.0545	57
204.0805	31
205.0801	24
206.0934	17
207.05	15
208.0379	50
208.0569	24
209.048	98
210.0594	64
211.0694	12
213.0352	27
214.0297	317
215.0545	219
216.0619	153
217.0633	52
219.0399	20
219.0921	10
220.038	78
221.0328	79
221.0997	12
221.1145	17
222.0525	101
222.1147	15
223.0653	99
224.072	52
226.0443	99
227.0479	55
228.0537	96
229.0606	145
230.0664	147
231.0444	15
231.0683	10
231.0888	26
232.038	32
233.0455	62
234.0539	269
235.0543	147
236.0585	133
237.0349	12
237.071	25
238.028	262
239.04	62
240.0452	107
241.0632	50
242.066	43
243.0721	223
244.0204	90
244.0788	78
245.0334	17
246.0499	556
247.0577	236
248.0638	100
249.0646	242
250.0451	15
250.071	104
251.0375	39
251.0943	50
252.0437	353
253.0577	182
254.0762	85
255.0736	63
256.0813	30
257.0479	14
257.0899	14
258.036	310
259.047	217
260.0592	227
261.0723	99
262.071	48
263.0793	146
264.0366	603
264.0862	34
265.0429	126
266.0587	276
267.0537	58
268.0779	11
269.0885	82
270.0335	223
270.0955	58
271.0325	62
271.104	999
272.0527	318
272.1095	16
273.0643	428
274.0815	64
275.0825	47
276.0403	59
277.0474	15
277.095	11
278.0409	821
279.0549	311
280.0632	163
281.0854	127
282.0333	21
283.041	125
284.0504	427
285.0484	234
286.0682	138
287.0665	18
288.0478	13
289.0938	31
290.0416	17
290.1023	48
291.0438	55
291.1111	159
292.0609	64
293.0694	418
296.049	434
297.0454	67
298.0565	252
299.0618	161
300.0867	57
301.096	182
302.0412	142
304.0456	12
304.0685	51
305.0561	122
306.0789	27
308.0482	15
309.0589	23
311.0585	56
312.0744	37
313.0767	324
314.0899	13
316.0556	73
317.0557	46
318.0579	28
319.0616	12
319.0855	46
320.0911	89
321.1012	267
323.0593	31
324.0803	22
325.0781	20
326.0802	14
331.0656	15
333.0823	164
339.0903	145
340.104	15
341.1102	20
361.1153	135
