Mass spectrum: Sulfadiazine; LC-ESI-QTOF; MS2; 30 V
Name: Sulfadiazine
Class: Antimicrobial; Pharmaceutical
Formula: C10H10N4O2S
Exact mass: 250.0524
SMILES: C1=CN=C(N=C1)NS(=O)(=O)C2=CC=C(C=C2)N
InChI: InChI=1S/C10H10N4O2S/c11-8-2-4-9(5-3-8)17(15,16)14-10-12-6-1-7-13-10/h1-7H,11H2,(H,12,13,14)
Instrument: TripleTOF 5600 SCIEX
Instrument type: LC-ESI-QTOF
Ms type: MS2
Ion mode: POSITIVE
Collision energy: 30
Fragmentation mode: CID
Ionization: ESI
Column name: Zorbax Eclipse Plus C18 2.1 mm x 150 mm, 3.5 um, Agilent
Retention time: 5.24 min
Precursor m/z: 251.0597
Precursor type: [M+H]+
m/z	relative intensity
65.0453	94
79.0328	10
80.0546	33
92.0526	999
93.0602	16
94.044	13
94.0667	81
96.0581	333
108.0458	984
156.0116	947
158.0022	168
185.082	111
251.0582	52
