Mass spectrum: Hostavin VSU P; LC-ESI-QTOF; MS2; 90 V
Name: Hostavin VSU P
Formula: C18H20N2O3
Exact mass: 312.1474
SMILES: CCC1=CC=CC=C1NC(=O)C(=O)NC2=CC=CC=C2OCC
InChI: InChI=1S/C18H20N2O3/c1-3-13-9-5-6-10-14(13)19-17(21)18(22)20-15-11-7-8-12-16(15)23-4-2/h5-12H,3-4H2,1-2H3,(H,19,21)(H,20,22)
Instrument: TripleTOF 5600 SCIEX
Instrument type: LC-ESI-QTOF
Ms type: MS2
Ion mode: POSITIVE
Collision energy: 90
Fragmentation mode: CID
Ionization: ESI
Column name: Zorbax Eclipse Plus C18 2.1 mm x 150 mm, 3.5 um, Agilent
Retention time: 15.402 min
Precursor m/z: 313.1547
Precursor type: [M+H]+
m/z	relative intensity
39.0229	65
51.0238	81
65.0383	589
66.0462	98
77.0387	999
79.0539	180
80.0491	917
90.0337	98
91.0535	327
92.0486	229
93.0308	65
93.0569	278
94.0665	114
103.0534	376
106.0646	81
108.0435	131
109.052	343
118.0645	81
119.073	98
120.08	81
130.0654	425
136.0397	262
