Mass spectrum: 1-(2,6-Dichlorophenyl)-2-indolinone; LC-ESI-QTOF; MS2; 110 V
Name: 1-(2,6-Dichlorophenyl)-2-indolinone
Class: Pharmaceutical; Transformation_product; Diclofenac-lactam
Formula: C14H9Cl2NO
Exact mass: 277.0061
SMILES: C1C2=CC=CC=C2N(C1=O)C3=C(C=CC=C3Cl)Cl
InChI: InChI=1S/C14H9Cl2NO/c15-10-5-3-6-11(16)14(10)17-12-7-2-1-4-9(12)8-13(17)18/h1-7H,8H2
Instrument: TripleTOF 5600 SCIEX
Instrument type: LC-ESI-QTOF
Ms type: MS2
Ion mode: POSITIVE
Collision energy: 110
Fragmentation mode: CID
Ionization: ESI
Column name: Zorbax Eclipse Plus C18 2.1 mm x 150 mm, 3.5 um, Agilent
Retention time: 12.191 min
Precursor m/z: 278.0134
Precursor type: [M+H]+
m/z	relative intensity
50.0255	79
62.0209	19
63.029	75
73.012	48
74.0215	459
75.0287	243
76.0357	59
77.0441	815
78.0524	34
79.0594	59
83.9821	9
84.9933	13
86.0192	9
87.0269	25
89.0421	125
98.018	98
99.0248	202
100.0286	67
101.0432	75
102.0491	88
104.0522	13
108.9865	77
110.0176	21
111.0251	17
113.0406	38
114.0434	17
115.0565	21
122.0173	21
123.0239	34
124.0298	27
125.0406	181
126.0483	244
127.0507	142
128.0533	65
129.0557	23
137.0373	15
139.0583	21
140.0507	46
149.0394	131
150.0476	999
151.0554	759
152.0613	422
153.059	71
163.0519	11
164.0484	27
165.0567	11
175.0415	54
176.0506	121
177.0582	376
178.0661	370
179.0716	50
