Mass spectrum: Proadifen; LC-ESI-QTOF; MS2; 70 V
Name: Proadifen
Formula: C23H31NO2
Exact mass: 353.2355
SMILES: CCCC(C1=CC=CC=C1)(C2=CC=CC=C2)C(=O)OCCN(CC)CC
InChI: InChI=1S/C23H31NO2/c1-4-17-23(20-13-9-7-10-14-20,21-15-11-8-12-16-21)22(25)26-19-18-24(5-2)6-3/h7-16H,4-6,17-19H2,1-3H3
Instrument: TripleTOF 6600 SCIEX
Instrument type: LC-ESI-QTOF
Ms type: MS2
Ion mode: POSITIVE
Collision energy: 70
Fragmentation mode: CID
Ionization: ESI
Column name: Zorbax Eclipse Plus C18 2.1 mm x 150 mm, 3.5 um, Agilent
Retention time: 9.831 min
Precursor m/z: 354.2428
Precursor type: [M+H]+
m/z	relative intensity
44.0483	37
65.037	77
72.0793	20
77.0371	116
79.0526	66
91.0528	999
100.1104	15
103.0528	63
105.0674	386
115.0526	21
116.0602	13
128.0603	18
131.0841	23
141.0678	17
151.0529	27
152.0612	374
165.0689	465
166.0764	102
167.0843	198
178.0766	15
