Mass spectrum: Temazepam; LC-ESI-QTOF; MS2; 50 V
Name: Temazepam
Class: Pharmaceutical
Formula: C16H13ClN2O2
Exact mass: 300.0666
SMILES: CN1C2=C(C=C(C=C2)Cl)C(=NC(C1=O)O)C3=CC=CC=C3
InChI: InChI=1S/C16H13ClN2O2/c1-19-13-8-7-11(17)9-12(13)14(18-15(20)16(19)21)10-5-3-2-4-6-10/h2-9,15,20H,1H3
Instrument: TripleTOF 6600 SCIEX
Instrument type: LC-ESI-QTOF
Ms type: MS2
Ion mode: POSITIVE
Collision energy: 50
Fragmentation mode: CID
Ionization: ESI
Column name: Zorbax Eclipse Plus C18 2.1 mm x 150 mm, 3.5 um, Agilent
Retention time: 10.497 min
Precursor m/z: 301.0738
Precursor type: [M+H]+
m/z	relative intensity
77.0369	38
89.0366	20
104.0477	21
110.9977	17
117.0555	32
125.0135	64
135.9927	11
142.05	14
150.0093	31
151.0524	14
152.0246	30
163.999	18
165.0681	24
177.0207	330
178.0649	14
179.0697	10
180.0191	13
180.0794	17
192.0794	20
193.0879	217
205.0754	61
214.041	18
219.0909	25
228.0558	28
239.0366	124
243.0673	16
255.0686	999
257.0466	18
