Mass spectrum: Dimethenamid; LC-ESI-QTOF; MS2; 120 V
Name: Dimethenamid
Class: Herbicide
Formula: C12H18ClNO2S
Exact mass: 275.0747
SMILES: CC1=CSC(=C1N(C(C)COC)C(=O)CCl)C
InChI: InChI=1S/C12H18ClNO2S/c1-8-7-17-10(3)12(8)14(11(15)5-13)9(2)6-16-4/h7,9H,5-6H2,1-4H3
Instrument: TripleTOF 6600 SCIEX
Instrument type: LC-ESI-QTOF
Ms type: MS2
Ion mode: POSITIVE
Collision energy: 120
Fragmentation mode: CID
Ionization: ESI
Column name: Zorbax Eclipse Plus C18 2.1 mm x 150 mm, 3.5 um, Agilent
Retention time: 11.971 min
Precursor m/z: 276.082
Precursor type: [M+H]+
m/z	relative intensity
37.008	319
38.0152	279
39.0237	999
41.0387	319
43.0187	119
43.9718	119
44.9796	799
45.0339	159
46.9687	279
48.9848	979
49.0081	139
50.0153	479
51.0237	739
52.018	79
52.0325	139
53.0395	399
57.9874	219
58.9959	519
59.9911	239
62.0148	99
63.0235	239
65.0387	739
66.0472	139
67.0422	159
67.0547	179
68.9802	419
69.9867	119
70.9961	239
77.0394	599
78.0346	259
78.0464	239
79.042	119
80.05	519
85.0109	119
89.0389	119
91.0558	159
92.0509	139
93.0565	199
94.0663	539
94.9951	179
96.0019	99
97.0101	459
104.0496	299
105.058	139
109.0109	119
111.0263	159
112.0221	99
117.0563	119
136.021	79
