Mass spectrum: Methylecgonidine; LC-ESI-QTOF; MS2; 150 V
Name: Methylecgonidine
Class: Metabolite
Formula: C10H15NO2
Exact mass: 181.1103
SMILES: CN1C2CCC1C(=CC2)C(=O)OC
InChI: InChI=1S/C10H15NO2/c1-11-7-3-5-8(10(12)13-2)9(11)6-4-7/h5,7,9H,3-4,6H2,1-2H3
Instrument: TripleTOF 6600 SCIEX
Instrument type: LC-ESI-QTOF
Ms type: MS2
Ion mode: POSITIVE
Collision energy: 150
Fragmentation mode: CID
Ionization: ESI
Column name: Zorbax Eclipse Plus C18 2.1 mm x 150 mm, 3.5 um, Agilent
Retention time: 4.43 min
Precursor m/z: 182.1176
Precursor type: [M+H]+
m/z	relative intensity
35.9996	199
37.0073	999
38.015	649
39.0227	699
49.0067	299
50.0151	599
61.0075	299
62.0143	199
