Mass spectrum: Tramadol-N-oxide; LC-ESI-QTOF; MS2; 50 V
Name: Tramadol-N-oxide
Class: Pharmaceutical; Transformation_product-Metabolite
Formula: C16H25NO3
Exact mass: 279.1834
SMILES: [O-][N+](C)(C)C[C@H]2CCCC[C@]2(O)c1cc(OC)ccc1
InChI: InChI=1S/C16H25NO3/c1-17(2,19)12-14-7-4-5-10-16(14,18)13-8-6-9-15(11-13)20-3/h6,8-9,11,14,18H,4-5,7,10,12H2,1-3H3/t14-,16+/m1/s1
Instrument: TripleTOF 5600 SCIEX
Instrument type: LC-ESI-QTOF
Ms type: MS2
Ion mode: POSITIVE
Collision energy: 50
Fragmentation mode: CID
Ionization: ESI
Column name: Zorbax Eclipse Plus C18 2.1 mm x 150 mm, 3.5 um, Agilent
Retention time: 6.334 min
Precursor m/z: 280.1907
Precursor type: [M+H]+
m/z	relative intensity
42.0436	26
55.0603	52
56.0537	32
58.0714	606
62.0664	15
64.0357	26
65.0425	47
67.0587	52
68.0555	12
69.0746	14
70.0699	38
71.0762	16
72.0857	11
77.0421	964
78.0484	31
79.0568	142
80.0536	10
81.0606	13
81.0721	30
82.0686	60
83.0879	26
84.0826	100
91.056	475
92.0274	331
93.0713	69
94.0458	27
94.0663	80
95.0734	60
103.0535	33
105.0702	37
106.0419	22
107.0496	999
108.0798	46
109.0648	81
110.0965	77
115.0545	123
116.0619	56
117.0698	51
121.065	803
127.0537	84
128.0624	85
129.0697	121
130.076	13
131.0486	45
132.0571	27
135.0447	979
141.0704	35
143.0847	12
144.057	297
145.0641	126
146.072	36
147.081	114
155.0632	11
157.065	29
158.073	152
159.0808	435
160.0877	95
171.0805	42
172.0866	41
173.0977	63
186.1045	22
201.1264	20
