Mass spectrum: 1-Benzothiazol-2-yl-ethylamine; LC-ESI-QTOF; MS2; 100 V
Name: 1-Benzothiazol-2-yl-ethylamine
Formula: C9H10N2S
Exact mass: 178.0565
SMILES: CC(C1=NC2=CC=CC=C2S1)N
InChI: InChI=1S/C9H10N2S/c1-6(10)9-11-7-4-2-3-5-8(7)12-9/h2-6H,10H2,1H3
Instrument: TripleTOF 6600 SCIEX
Instrument type: LC-ESI-QTOF
Ms type: MS2
Ion mode: POSITIVE
Collision energy: 100
Fragmentation mode: CID
Ionization: ESI
Column name: Zorbax Eclipse Plus C18 2.1 mm x 150 mm, 3.5 um, Agilent
Retention time: 5.162 min
Precursor m/z: 179.0638
Precursor type: [M+H]+
m/z	relative intensity
35.999	42
37.007	307
38.0027	15
38.0145	244
39.0225	999
42.0337	58
43.9715	19
44.0488	151
44.9786	97
49.0063	23
50.0146	132
51.0222	136
57.9866	19
61.0073	15
62.0142	31
63.0218	54
65.0378	108
67.9709	77
68.9787	897
74.014	31
80.9784	23
81.9866	50
92.9787	46
108.0011	23
