Mass spectrum: Fluazifop; LC-ESI-QTOF; MS2; 40 V
Name: Fluazifop
Class: Herbicide; Transformation_product
Formula: C15H12F3NO4
Exact mass: 327.0718
SMILES: CC(C(=O)O)Oc1ccc(cc1)Oc2ccc(cn2)C(F)(F)F
InChI: InChI=1S/C15H12F3NO4/c1-9(14(20)21)22-11-3-5-12(6-4-11)23-13-7-2-10(8-19-13)15(16,17)18/h2-9H,1H3,(H,20,21)
Instrument: TripleTOF 6600 SCIEX
Instrument type: LC-ESI-QTOF
Ms type: MS2
Ion mode: POSITIVE
Collision energy: 40
Fragmentation mode: CID
Ionization: ESI
Column name: Zorbax Eclipse Plus C18 2.1 mm x 150 mm, 3.5 um, Agilent
Retention time: 11.668 min
Precursor m/z: 328.0791
Precursor type: [M+H]+
m/z	relative intensity
65.0389	144
91.0545	548
92.0255	14
93.0334	65
94.0414	12
119.0492	87
121.0283	30
126.0147	12
127.0226	14
131.0487	23
141.057	45
146.021	94
147.029	182
158.0597	32
164.031	71
167.0714	12
168.0442	10
169.0511	15
180.0385	17
185.0448	14
186.0542	24
188.0502	15
190.0455	31
198.0523	55
200.0385	13
207.0489	10
209.0441	11
210.0521	18
211.0595	20
212.0683	13
213.0773	21
218.0398	66
226.0463	36
226.0819	25
227.0548	479
235.059	13
236.0667	31
238.0469	854
239.0563	14
240.062	13
254.0443	999
255.0494	227
256.0575	339
264.0623	23
267.0492	11
282.0731	641
328.0775	74
