Mass spectrum: Telmisartan; LC-ESI-QTOF; MS2; 150 V
Name: Telmisartan
Class: Pharmaceutical
Formula: C33H30N4O2
Exact mass: 514.2369
SMILES: CCCc1nc2c(C)cc(cc2n1Cc3ccc(cc3)c4ccccc4C(O)=O)c5nc6ccccc6n5C
InChI: InChI=1S/C33H30N4O2/c1-4-9-30-35-31-21(2)18-24(32-34-27-12-7-8-13-28(27)36(32)3)19-29(31)37(30)20-22-14-16-23(17-15-22)25-10-5-6-11-26(25)33(38)39/h5-8,10-19H,4,9,20H2,1-3H3,(H,38,39)
Instrument: TripleTOF 5600 SCIEX
Instrument type: LC-ESI-QTOF
Ms type: MS2
Ion mode: NEGATIVE
Collision energy: 150
Fragmentation mode: CID
Ionization: ESI
Column name: Zorbax Eclipse Plus C18 2.1 mm x 150 mm, 3.5 um, Agilent
Retention time: 8.861 min
Precursor m/z: 513.2296
Precursor type: [M-H]-
m/z	relative intensity
131.0658	142
166.0437	285
205.078	570
216.0527	285
217.0604	142
217.0735	142
218.0683	428
230.0695	856
231.0833	428
232.0863	142
243.0711	428
244.0627	142
245.0745	570
255.0649	856
256.071	0
256.0823	142
257.0853	999
258.1061	142
259.0953	142
259.1092	570
269.0777	142
269.0921	142
270.0929	999
271.0965	999
