Mass spectrum: Clothianidin; LC-ESI-QTOF; MS2; 30 V
Name: Clothianidin
Class: Insecticide
Formula: C6H8ClN5O2S
Exact mass: 249.0087
SMILES: CN=C(NCc1sc(Cl)nc1)N[N+]([O-])=O
InChI: InChI=1S/C6H8ClN5O2S/c1-8-6(11-12(13)14)10-3-4-2-9-5(7)15-4/h2H,3H2,1H3,(H2,8,10,11)
Instrument: TripleTOF 5600 SCIEX
Instrument type: LC-ESI-QTOF
Ms type: MS2
Ion mode: POSITIVE
Collision energy: 30
Fragmentation mode: CID
Ionization: ESI
Column name: Zorbax Eclipse Plus C18 2.1 mm x 150 mm, 3.5 um, Agilent
Retention time: 6.736 min
Precursor m/z: 250.016
Precursor type: [M+H]+
m/z	relative intensity
70.995	17
86.0067	37
110.0696	281
111.0777	75
113.0153	412
113.0579	15
119.9667	10
127.0482	12
131.9661	999
132.9724	17
142.0422	40
146.9763	70
147.9842	40
153.0204	15
167.0375	25
168.0454	118
169.0531	845
172.9808	15
174.9709	45
