Mass spectrum: (4-Chlorobenzyl)-triphenylphosphonium; LC-ESI-QTOF; MS2; 30 V
Name: (4-Chlorobenzyl)-triphenylphosphonium
Class: Industrial_process
Formula: [C25H21ClP]+
Exact mass: 387.1064
SMILES: Clc1ccc(C[P+](c2ccccc2)(c3ccccc3)c4ccccc4)cc1
InChI: InChI=1S/C25H21ClP/c26-22-18-16-21(17-19-22)20-27(23-10-4-1-5-11-23,24-12-6-2-7-13-24)25-14-8-3-9-15-25/h1-19H,20H2/q+1
Instrument: TripleTOF 5600 SCIEX
Instrument type: LC-ESI-QTOF
Ms type: MS2
Ion mode: POSITIVE
Collision energy: 30
Fragmentation mode: CID
Ionization: ESI
Column name: Zorbax Eclipse Plus C18 2.1 mm x 150 mm, 3.5 um, Agilent
Retention time: 9.6 min
Precursor m/z: 387.1064
Precursor type: [M]+
m/z	relative intensity
125.015	66
262.0905	111
387.1054	999
