Mass spectrum: Timolol; LC-ESI-QTOF; MS2; 40 V
Name: Timolol
Class: Pharmaceutical
Formula: C13H24N4O3S
Exact mass: 316.1569
SMILES: CC(C)(C)NCC(COC1=NSN=C1N2CCOCC2)O
InChI: InChI=1S/C13H24N4O3S/c1-13(2,3)14-8-10(18)9-20-12-11(15-21-16-12)17-4-6-19-7-5-17/h10,14,18H,4-9H2,1-3H3
Instrument: TripleTOF 5600 SCIEX
Instrument type: LC-ESI-QTOF
Ms type: MS2
Ion mode: POSITIVE
Collision energy: 40
Fragmentation mode: CID
Ionization: ESI
Column name: Zorbax Eclipse Plus C18 2.1 mm x 150 mm, 3.5 um, Agilent
Retention time: 5.513 min
Precursor m/z: 317.1642
Precursor type: [M+H]+
m/z	relative intensity
56.0591	157
69.0521	25
74.0115	57
74.0658	906
86.0641	46
99.0038	40
101.017	19
104.0177	13
113.0718	323
118.0293	15
126.9957	32
127.9919	13
130.0082	11
130.1236	36
144.0234	458
145.044	136
158.0925	15
159.0218	42
167.0696	9
170.0369	40
172.055	75
188.0487	999
200.0483	46
243.0938	111
244.0757	995
261.102	812
317.1644	348
