Mass spectrum: 4`-Aminoacetanilide; LC-ESI-QTOF; MS2; 60 V
Name: 4`-Aminoacetanilide
Formula: C8H10N2O
Exact mass: 150.0793
SMILES: CC(=O)NC1=CC=C(C=C1)N
InChI: InChI=1S/C8H10N2O/c1-6(11)10-8-4-2-7(9)3-5-8/h2-5H,9H2,1H3,(H,10,11)
Instrument: TripleTOF X500R SCIEX
Instrument type: LC-ESI-QTOF
Ms type: MS2
Ion mode: POSITIVE
Collision energy: 60
Fragmentation mode: CID
Ionization: ESI
Column name: Zorbax Eclipse Plus C18 2.1 mm x 150 mm, 3.5 um, Agilent
Retention time: 2.212 min
Precursor m/z: 151.0866
Precursor type: [M+H]+
m/z	relative intensity
37.0071	72
38.0154	81
39.0228	926
43.0176	808
53.0382	45
65.0386	999
66.0332	45
66.046	172
67.0414	72
80.0492	245
81.057	72
92.0496	245
93.0581	290
107.0592	154
108.0688	199
