Mass spectrum: L-Thyronine; LC-ESI-QTOF; MS2; 30 V
Name: L-Thyronine
Class: Pharmaceutical
Formula: C15H15NO4
Exact mass: 273.1001
SMILES: N[C@@H](Cc1ccc(Oc2ccc(O)cc2)cc1)C(O)=O
InChI: InChI=1S/C15H15NO4/c16-14(15(18)19)9-10-1-5-12(6-2-10)20-13-7-3-11(17)4-8-13/h1-8,14,17H,9,16H2,(H,18,19)/t14-/m0/s1
Instrument: TripleTOF 5600 SCIEX
Instrument type: LC-ESI-QTOF
Ms type: MS2
Ion mode: POSITIVE
Collision energy: 30
Fragmentation mode: CID
Ionization: ESI
Column name: Zorbax Eclipse Plus C18 2.1 mm x 150 mm, 3.5 um, Agilent
Retention time: 5.619 min
Precursor m/z: 274.1074
Precursor type: [M+H]+
m/z	relative intensity
93.0333	14
94.0414	64
109.0281	84
118.0642	51
119.0732	347
120.0809	40
141.0703	26
155.0846	11
159.0803	15
165.0692	34
169.0651	102
183.0803	48
187.0736	74
194.0721	11
197.0609	23
199.0766	12
211.0749	191
215.0706	999
228.1022	283
239.0726	12
257.081	38
