Mass spectrum: Tetrabutylammonium; LC-ESI-QTOF; MS2; 50 V
Name: Tetrabutylammonium
Class: Industrial_process
Formula: [C16H36N]+
Exact mass: 242.2842
SMILES: CCCC[N+](CCCC)(CCCC)CCCC
InChI: InChI=1S/C16H36N/c1-5-9-13-17(14-10-6-2,15-11-7-3)16-12-8-4/h5-16H2,1-4H3/q+1
Instrument: TripleTOF 5600 SCIEX
Instrument type: LC-ESI-QTOF
Ms type: MS2
Ion mode: POSITIVE
Collision energy: 50
Fragmentation mode: CID
Ionization: ESI
Column name: Zorbax Eclipse Plus C18 2.1 mm x 150 mm, 3.5 um, Agilent
Retention time: 8.907 min
Precursor m/z: 242.2842
Precursor type: [M]+
m/z	relative intensity
57.0749	115
58.0712	649
100.1136	999
142.1593	335
