Mass spectrum: Bisphenol-A bis(diphenyl phosphate); LC-ESI-QTOF; MS2; 150 V
Name: Bisphenol-A bis(diphenyl phosphate)
Class: Industrial_process
Formula: C39H34O8P2
Exact mass: 692.1729
SMILES: CC(C)(C1=CC=C(C=C1)OP(=O)(OC2=CC=CC=C2)OC3=CC=CC=C3)C4=CC=C(C=C4)OP(=O)(OC5=CC=CC=C5)OC6=CC=CC=C6
InChI: InChI=1S/C39H34O8P2/c1-39(2,31-23-27-37(28-24-31)46-48(40,42-33-15-7-3-8-16-33)43-34-17-9-4-10-18-34)32-25-29-38(30-26-32)47-49(41,44-35-19-11-5-12-20-35)45-36-21-13-6-14-22-36/h3-30H,1-2H3
Instrument: TripleTOF 6600 SCIEX
Instrument type: LC-ESI-QTOF
Ms type: MS2
Ion mode: POSITIVE
Collision energy: 150
Fragmentation mode: CID
Ionization: ESI
Column name: Zorbax Eclipse Plus C18 2.1 mm x 150 mm, 3.5 um, Agilent
Retention time: 17.714 min
Precursor m/z: 693.1802
Precursor type: [M+H]+
m/z	relative intensity
51.0222	133
65.038	190
77.0377	466
79.0534	66
89.0376	85
91.0538	371
103.0533	57
105.0689	47
115.0533	999
117.0685	38
126.0444	47
127.0521	76
128.0613	66
133.0194	57
138.9932	57
139.0528	266
141.0694	95
150.0443	95
151.0527	361
152.0609	989
153.0691	76
163.055	47
164.061	66
165.0685	247
168.0565	818
176.0605	247
177.0701	171
178.0752	190
187.0282	47
189.0686	123
191.0874	38
215.0251	85
226.0773	142
227.0886	38
228.0962	47
237.0669	38
239.0853	95
252.0921	66
