Mass spectrum: 4-[(4-Aminophenyl)(4-iminocyclohexa-2,5-dien-1-ylidene)methyl]-2-methylaniline; LC-ESI-QTOF; MS2; 40 V
Name: 4-[(4-Aminophenyl)(4-iminocyclohexa-2,5-dien-1-ylidene)methyl]-2-methylaniline
Formula: C20H19N3
Exact mass: 301.1579
SMILES: CC1=CC(=C(C2=CC=C(C=C2)N)C3=CC=C(C=C3)N)C=CC1=N
InChI: InChI=1S/C20H19N3/c1-13-12-16(6-11-19(13)23)20(14-2-7-17(21)8-3-14)15-4-9-18(22)10-5-15/h2-12,23H,21-22H2,1H3
Instrument: TripleTOF X500R SCIEX
Instrument type: LC-ESI-QTOF
Ms type: MS2
Ion mode: POSITIVE
Collision energy: 40
Fragmentation mode: CID
Ionization: ESI
Column name: Zorbax Eclipse Plus C18 2.1 mm x 150 mm, 3.5 um, Agilent
Retention time: 7.598 min
Precursor m/z: 302.1652
Precursor type: [M+H]+
m/z	relative intensity
106.0659	34
165.0702	30
167.0738	24
168.0811	32
178.0658	14
182.0962	30
191.0732	11
192.0814	31
193.0892	55
194.085	40
195.0923	366
208.1007	48
209.1079	650
221.106	11
243.105	12
245.107	20
246.1166	12
254.0957	14
258.1189	13
259.1241	17
268.1123	19
269.1095	43
270.1166	37
271.1232	119
272.1209	18
273.1287	22
285.1394	86
286.1355	189
287.1422	110
300.1482	18
302.1654	999
