Mass spectrum: Betaxolol; LC-ESI-QTOF; MS2; 20 V
Name: Betaxolol
Class: Pharmaceutical
Formula: C18H29NO3
Exact mass: 307.2147
SMILES: CC(C)NCC(COC1=CC=C(C=C1)CCOCC2CC2)O
InChI: InChI=1S/C18H29NO3/c1-14(2)19-11-17(20)13-22-18-7-5-15(6-8-18)9-10-21-12-16-3-4-16/h5-8,14,16-17,19-20H,3-4,9-13H2,1-2H3
Instrument: TripleTOF 5600 SCIEX
Instrument type: LC-ESI-QTOF
Ms type: MS2
Ion mode: POSITIVE
Collision energy: 20
Fragmentation mode: CID
Ionization: ESI
Column name: Zorbax Eclipse Plus C18 2.1 mm x 150 mm, 3.5 um, Agilent
Retention time: 7.064 min
Precursor m/z: 308.222
Precursor type: [M+H]+
m/z	relative intensity
72.0868	22
74.0655	16
98.1002	29
116.1098	103
121.0671	10
159.0813	11
161.0967	24
177.0915	29
218.1536	14
231.1363	27
236.1627	11
254.1738	17
266.1739	30
290.2098	23
307.2484	30
308.2201	999
