Mass spectrum: Tetrahexylammonium; LC-ESI-QTOF; MS2; 140 V
Name: Tetrahexylammonium
Class: Industrial_process
Formula: C24H52N
Exact mass: 354.4094
SMILES: CCCCCC[N+](CCCCCC)(CCCCCC)CCCCCC
InChI: InChI=1S/C24H52N/c1-5-9-13-17-21-25(22-18-14-10-6-2,23-19-15-11-7-3)24-20-16-12-8-4/h5-24H2,1-4H3/q+1
Instrument: TripleTOF 5600 SCIEX
Instrument type: LC-ESI-QTOF
Ms type: CID
Ion mode: POSITIVE
Collision energy: 140
Ionization: ESI
Column name: Zorbax Eclipse Plus C18 2.1 mm x 150 mm, 3.5 um, Agilent
Retention time: 13.103 min
Precursor m/z: 354.4094
Precursor type: [M]+
m/z	relative intensity
42.0421	275
58.0692	999
