Mass spectrum: Oseltamivir carboxylic acid; LC-ESI-QTOF; MS2; 50 V
Name: Oseltamivir carboxylic acid
Class: Pharmaceutical; Metabolite; Transformation_product
Formula: C14H24N2O4
Exact mass: 284.1736
SMILES: CCC(CC)O[C@@H]1C=C(C[C@H](N)[C@H]1NC(C)=O)C(O)=O
InChI: InChI=1S/C14H24N2O4/c1-4-10(5-2)20-12-7-9(14(18)19)6-11(15)13(12)16-8(3)17/h7,10-13H,4-6,15H2,1-3H3,(H,16,17)(H,18,19)/t11-,12+,13+/m0/s1
Instrument: TripleTOF 5600 SCIEX
Instrument type: LC-ESI-QTOF
Ms type: MS2
Ion mode: POSITIVE
Collision energy: 50
Fragmentation mode: CID
Ionization: ESI
Column name: Zorbax Eclipse Plus C18 2.1 mm x 150 mm, 3.5 um, Agilent
Retention time: 5.65 min
Precursor m/z: 285.1809
Precursor type: [M+H]+
m/z	relative intensity
43.0275	11
60.0488	21
65.0424	225
67.0582	189
68.0537	24
77.0414	423
80.0516	68
82.0672	58
83.0506	14
83.0629	11
92.0511	349
93.0351	255
93.0572	122
94.067	999
95.0492	22
108.0448	12
109.0536	19
109.0759	96
110.0604	109
111.0442	19
119.0602	49
120.0449	859
121.0285	21
133.0769	14
134.0615	31
137.071	164
138.0551	528
156.0657	12
162.0557	29
