Mass spectrum: Prometon; LC-ESI-QTOF; MS2; 40 V
Name: Prometon
Class: Herbicide
Formula: C10H19N5O
Exact mass: 225.159
InChI: InChI=1S/C10H19N5O/c1-6(2)11-8-13-9(12-7(3)4)15-10(14-8)16-5/h6-7H,1-5H3,(H2,11,12,13,14,15)
Instrument: TripleTOF 5600 SCIEX
Instrument type: LC-ESI-QTOF
Ms type: CID
Ion mode: POSITIVE
Collision energy: 40
Ionization: ESI
Column name: Zorbax Eclipse Plus C18 2.1 mm x 150 mm, 3.5 um, Agilent
Retention time: 7.392 min
Precursor m/z: 226.1662
Precursor type: [M+H]+
m/z	relative intensity
43.0385	79
57.0513	281
58.034	87
68.0294	282
69.013	105
75.0588	101
82.0425	82
83.0257	75
85.0516	30
86.0378	650
99.0672	97
100.052	539
110.0464	28
110.0712	37
142.0732	999
152.1168	19
184.1194	516
226.166	325
