Mass spectrum: Norlidocaine; LC-ESI-QTOF; MS2; 140 V
Name: Norlidocaine
Class: Pharmaceutical; Metabolite
Formula: C12H18N2O
Exact mass: 206.1419
SMILES: CCNCC(=O)Nc1c(cccc1C)C
InChI: InChI=1S/C12H18N2O/c1-4-13-8-11(15)14-12-9(2)6-5-7-10(12)3/h5-7,13H,4,8H2,1-3H3,(H,14,15)
Instrument: TripleTOF 6600 SCIEX
Instrument type: LC-ESI-QTOF
Ms type: MS2
Ion mode: POSITIVE
Collision energy: 140
Fragmentation mode: CID
Ionization: ESI
Column name: Zorbax Eclipse Plus C18 2.1 mm x 150 mm, 3.5 um, Agilent
Retention time: 5.349 min
Precursor m/z: 207.1492
Precursor type: [M+H]+
m/z	relative intensity
30.0337	92
35.9993	66
37.0072	185
38.0026	145
38.0151	172
39.0229	317
41.0255	52
42.0337	165
49.0073	191
50.0151	999
51.0231	767
52.0057	33
52.0184	26
53.0132	52
61.0078	119
62.0156	211
63.0232	218
65.0379	59
74.0144	86
77.0386	86
89.0374	46
