Mass spectrum: Cocaethylene; LC-ESI-QTOF; MS2; 20 V
Name: Cocaethylene
Class: Metabolite
Formula: C18H23NO4
Exact mass: 317.1627
SMILES: CCOC(=O)C1C2CCC(N2C)CC1OC(=O)C3=CC=CC=C3
InChI: InChI=1S/C18H23NO4/c1-3-22-18(21)16-14-10-9-13(19(14)2)11-15(16)23-17(20)12-7-5-4-6-8-12/h4-8,13-16H,3,9-11H2,1-2H3
Instrument: TripleTOF 6600 SCIEX
Instrument type: LC-ESI-QTOF
Ms type: CID
Ion mode: POSITIVE
Collision energy: 20
Ionization: ESI
Column name: Zorbax Eclipse Plus C18 2.1 mm x 150 mm, 3.5 um, Agilent
Retention time: 7.013 min
Precursor m/z: 318.17
Precursor type: [M+H]+
m/z	relative intensity
196.1344	338
318.1711	999
