Mass spectrum: 17alpha-Methyltestosterone; LC-ESI-QTOF; MS2; 50 V
Name: 17alpha-Methyltestosterone
Class: Pharmaceutical
Formula: C20H30O2
Exact mass: 302.2246
SMILES: C[C@]1(O)CC[C@H]2[C@@H]3CCC4=CC(=O)CC[C@]4(C)[C@H]3CC[C@]12C
InChI: InChI=1S/C20H30O2/c1-18-9-6-14(21)12-13(18)4-5-15-16(18)7-10-19(2)17(15)8-11-20(19,3)22/h12,15-17,22H,4-11H2,1-3H3/t15-,16+,17+,18+,19+,20+/m1/s1
Instrument: TripleTOF 5600 SCIEX
Instrument type: LC-ESI-QTOF
Ms type: MS2
Ion mode: POSITIVE
Collision energy: 50
Fragmentation mode: CID
Ionization: ESI
Column name: Zorbax Eclipse Plus C18 2.1 mm x 150 mm, 3.5 um, Agilent
Retention time: 11.57 min
Precursor m/z: 303.2319
Precursor type: [M+H]+
m/z	relative intensity
43.0281	28
55.0242	12
55.0585	27
65.0432	14
67.0577	90
69.0727	43
77.0411	126
79.0566	341
81.0366	10
81.0727	233
83.0493	56
91.0552	212
93.0707	155
95.0862	158
97.0662	946
103.0542	12
105.0698	174
107.051	17
107.0855	126
109.0655	999
109.0975	18
115.0549	17
117.0686	50
119.0858	142
121.0653	51
121.101	70
123.0802	187
128.062	13
129.069	25
131.0853	62
133.1006	85
135.1157	17
137.0955	10
141.069	17
142.0768	20
143.0846	47
144.0936	20
145.1014	58
147.1166	32
149.0952	18
149.1321	13
155.0845	27
156.0926	12
157.1004	39
159.1154	55
161.0955	10
161.1309	14
163.1101	13
169.1025	21
171.1166	37
173.1322	16
175.1484	13
177.1255	14
183.1142	20
185.1325	23
187.1506	14
211.1461	13
227.1794	17
