Mass spectrum: Hexazinone; LC-ESI-QTOF; MS2; 110 V
Name: Hexazinone
Class: Herbicide
Formula: C12H20N4O2
Exact mass: 252.1586
SMILES: CN1C(=NC(=O)N(C1=O)C2CCCCC2)N(C)C
InChI: InChI=1S/C12H20N4O2/c1-14(2)10-13-11(17)16(12(18)15(10)3)9-7-5-4-6-8-9/h9H,4-8H2,1-3H3
Instrument: TripleTOF 6600 SCIEX
Instrument type: LC-ESI-QTOF
Ms type: MS2
Ion mode: POSITIVE
Collision energy: 110
Fragmentation mode: CID
Ionization: ESI
Column name: Zorbax Eclipse Plus C18 2.1 mm x 150 mm, 3.5 um, Agilent
Retention time: 8.427 min
Precursor m/z: 253.1659
Precursor type: [M+H]+
m/z	relative intensity
30.0331	18
35.9998	11
37.0069	70
38.0021	12
38.0147	50
39.0229	235
41.0136	14
41.038	58
41.9967	11
42.0332	243
44.0131	31
44.0491	83
53.0383	11
55.0288	547
55.0534	23
56.0127	12
56.0359	231
57.0445	18
58.0275	17
58.0646	33
60.9863	23
69.0076	50
69.0442	999
69.9916	121
70.0518	86
71.0598	217
83.0234	34
85.0748	28
