Mass spectrum: 3,3`-Dichlorobenzidine; LC-ESI-QTOF; MS2; 120 V
Name: 3,3`-Dichlorobenzidine
Formula: C12H10Cl2N2
Exact mass: 252.0221
SMILES: C1=CC(=C(C=C1C2=CC(=C(C=C2)N)Cl)Cl)N
InChI: InChI=1S/C12H10Cl2N2/c13-9-5-7(1-3-11(9)15)8-2-4-12(16)10(14)6-8/h1-6H,15-16H2
Instrument: TripleTOF 6600 SCIEX
Instrument type: LC-ESI-QTOF
Ms type: MS2
Ion mode: POSITIVE
Collision energy: 120
Fragmentation mode: CID
Ionization: ESI
Column name: Zorbax Eclipse Plus C18 2.1 mm x 150 mm, 3.5 um, Agilent
Retention time: 11.426 min
Precursor m/z: 253.0294
Precursor type: [M+H]+
m/z	relative intensity
37.0081	42
38.0158	31
39.0228	74
50.0155	239
51.0231	616
52.0188	58
60.0003	26
61.0071	138
62.0155	313
63.0233	483
65.039	31
73.0091	74
74.0155	786
75.0229	813
76.0181	42
76.0308	138
77.0381	999
85.0074	255
86.0152	531
87.023	318
88.0313	74
89.0382	249
97.0092	26
98.0157	366
99.0108	37
99.0221	95
100.0306	47
101.0385	164
102.0346	31
102.0474	106
103.0519	42
104.0504	26
105.0466	31
109.0081	53
110.0165	154
111.0218	53
112.0344	26
113.037	116
114.0334	26
122.0186	53
125.0395	42
126.0471	531
127.0542	90
128.0487	31
129.0447	31
137.0385	122
138.04	47
139.0535	53
140.0502	31
151.0429	26
152.0497	69
153.0588	47
164.0504	31
179.0607	21
