Mass spectrum: Sulcotrione; LC-ESI-QTOF; MS2; 40 V
Name: Sulcotrione
Class: Herbicide
Formula: C14H13ClO5S
Exact mass: 328.0172
SMILES: CS(=O)(=O)C1=CC(=C(C=C1)C(=O)C2C(=O)CCCC2=O)Cl
InChI: InChI=1S/C14H13ClO5S/c1-21(19,20)8-5-6-9(10(15)7-8)14(18)13-11(16)3-2-4-12(13)17/h5-7,13H,2-4H2,1H3
Instrument: TripleTOF 6600 SCIEX
Instrument type: LC-ESI-QTOF
Ms type: MS2
Ion mode: NEGATIVE
Collision energy: 40
Fragmentation mode: CID
Ionization: ESI
Column name: Zorbax Eclipse Plus C18 2.1 mm x 150 mm, 3.5 um, Agilent
Retention time: 9.651 min
Precursor m/z: 327.0099
Precursor type: [M-H]-
m/z	relative intensity
34.9684	143
93.0326	10
102.9468	18
140.0636	12
142.0406	34
144.0211	22
158.0375	28
159.0423	30
168.0571	57
170.0373	122
171.0099	10
183.0426	12
184.0511	38
210.033	12
211.0402	75
212.0471	999
221.0273	63
223.0068	28
227.0333	47
237.0225	16
247.0425	45
249.0204	311
275.0012	22
291.0325	761
