Mass spectrum: Sucralose; LC-ESI-QTOF; MS2; 40 V
Name: Sucralose
Class: Food_additive; Personal_care_product
Formula: C12H19Cl3O8
Exact mass: 396.0146
SMILES: C(C1C(C(C(C(O1)OC2(C(C(C(O2)CCl)O)O)CCl)O)O)Cl)O
InChI: InChI=1S/C12H19Cl3O8/c13-1-4-7(17)10(20)12(3-14,22-4)23-11-9(19)8(18)6(15)5(2-16)21-11/h4-11,16-20H,1-3H2
Instrument: TripleTOF 6600 SCIEX
Instrument type: LC-ESI-QTOF
Ms type: MS2
Ion mode: POSITIVE
Collision energy: 40
Fragmentation mode: CID
Ionization: ESI
Column name: Zorbax Eclipse Plus C18 2.1 mm x 150 mm, 3.5 um, Agilent
Retention time: 5.87 min
Precursor m/z: 191.0823
Precursor type: [M+Na]+
m/z	relative intensity
85.0254	15
203.0084	55
221.0192	400
238.9855	557
419.0035	999
