Mass spectrum: Acetochlor; LC-ESI-QTOF; MS2; 10 V
Name: Acetochlor
Class: Herbicide
Formula: C14H20ClNO2
Exact mass: 269.1183
SMILES: CCC1=CC=CC(=C1N(COCC)C(=O)CCl)C
InChI: InChI=1S/C14H20ClNO2/c1-4-12-8-6-7-11(3)14(12)16(10-18-5-2)13(17)9-15/h6-8H,4-5,9-10H2,1-3H3
Instrument: TripleTOF 6600 SCIEX
Instrument type: LC-ESI-QTOF
Ms type: MS2
Ion mode: POSITIVE
Collision energy: 10
Fragmentation mode: CID
Ionization: ESI
Column name: Zorbax Eclipse Plus C18 2.1 mm x 150 mm, 3.5 um, Agilent
Retention time: 13.251 min
Precursor m/z: 270.1255
Precursor type: [M+H]+
m/z	relative intensity
148.1106	10
224.0826	187
238.0981	156
270.1247	999
