Mass spectrum: Citalopram; LC-ESI-QTOF; MS2; 90 V
Name: Citalopram
Class: Pharmaceutical
Formula: C20H21FN2O
Exact mass: 324.1638
SMILES: CN(C)CCCC1(OCc2cc(ccc12)C#N)c3ccc(F)cc3
InChI: InChI=1S/C20H21FN2O/c1-23(2)11-3-10-20(17-5-7-18(21)8-6-17)19-9-4-15(13-22)12-16(19)14-24-20/h4-9,12H,3,10-11,14H2,1-2H3
Instrument: TripleTOF 5600 SCIEX
Instrument type: LC-ESI-QTOF
Ms type: MS2
Ion mode: POSITIVE
Collision energy: 90
Fragmentation mode: CID
Ionization: ESI
Column name: Zorbax Eclipse Plus C18 2.1 mm x 150 mm, 3.5 um, Agilent
Retention time: 7.757 min
Precursor m/z: 325.1711
Precursor type: [M+H]+
m/z	relative intensity
42.0443	16
51.0308	10
57.0192	111
58.0711	128
59.0342	42
65.0432	22
74.0188	20
75.0261	74
77.0415	93
83.0328	899
87.025	18
89.0412	398
90.0351	27
95.0312	49
99.024	15
101.0395	47
102.0473	11
103.0545	18
107.0299	16
109.0463	999
113.0392	126
114.0389	50
115.0545	80
116.0502	127
120.0374	18
123.0233	10
125.0376	15
126.0464	31
127.0547	63
128.0622	59
133.0452	83
139.0545	77
140.05	354
144.0371	12
145.0456	9
146.0532	36
149.0393	28
150.0468	33
151.0538	16
152.0617	19
153.0558	13
154.0638	10
157.0448	31
158.0408	13
161.0392	19
162.0464	13
163.0549	96
164.0497	59
166.0665	9
168.0372	41
169.0446	33
170.0528	66
173.0392	26
174.047	64
175.0542	72
176.06	29
177.0578	29
181.0455	126
182.0503	57
183.0611	83
186.0479	12
187.0551	102
188.0504	94
189.0677	73
190.0651	123
192.0374	29
193.0449	38
194.0532	160
195.0508	59
196.0691	21
198.0474	43
199.0542	218
200.0606	252
201.0612	114
202.0763	39
203.073	12
205.0455	72
206.0521	79
207.0604	245
208.0563	397
211.0544	14
212.0516	62
213.0699	108
214.0658	135
215.0853	16
217.0449	35
218.0537	370
219.0592	355
220.0675	229
221.0645	167
224.0553	28
225.0576	188
226.0659	135
227.0729	145
230.0429	14
231.0598	76
232.057	224
233.0769	113
234.0719	40
238.0667	83
239.0743	23
240.0815	125
242.0543	12
243.0497	35
244.0577	134
245.0646	880
246.071	66
247.0767	9
256.0552	13
258.0722	67
259.0807	35
