Mass spectrum: Mesotrione; LC-ESI-QTOF; MS2; 40 V
Name: Mesotrione
Class: Herbicide
Formula: C14H13NO7S
Exact mass: 339.0413
SMILES: CS(=O)(=O)C1=CC(=C(C=C1)C(=O)C2C(=O)CCCC2=O)[N+](=O)[O-]
InChI: InChI=1S/C14H13NO7S/c1-23(21,22)8-5-6-9(10(7-8)15(19)20)14(18)13-11(16)3-2-4-12(13)17/h5-7,13H,2-4H2,1H3
Instrument: TripleTOF 6600 SCIEX
Instrument type: LC-ESI-QTOF
Ms type: MS2
Ion mode: NEGATIVE
Collision energy: 40
Fragmentation mode: CID
Ionization: ESI
Column name: Zorbax Eclipse Plus C18 2.1 mm x 150 mm, 3.5 um, Agilent
Retention time: 9.26 min
Precursor m/z: 338.034
Precursor type: [M-H]-
m/z	relative intensity
45.9925	339
142.0419	12
158.0353	9
159.0432	14
168.0565	20
170.0361	66
184.0517	19
211.0401	29
212.0473	999
221.0249	24
223.0069	19
227.0326	14
247.0426	29
249.0219	162
291.0324	757
