Mass spectrum: L-Isoleucine; LC-ESI-QTOF; MS2; 40 V
Name: L-Isoleucine
Class: Food_additive; Personal_care_product
Formula: C6H13NO2
Exact mass: 131.0946
SMILES: CCC(C(C(O)=O)N)C
InChI: InChI=1S/C6H13NO2/c1-3-4(2)5(7)6(8)9/h4-5H,3,7H2,1-2H3,(H,8,9)
Instrument: TripleTOF 5600 SCIEX
Instrument type: LC-ESI-QTOF
Ms type: MS2
Ion mode: POSITIVE
Collision energy: 40
Fragmentation mode: CID
Ionization: ESI
Column name: Zorbax Eclipse Plus C18 2.1 mm x 150 mm, 3.5 um, Agilent
Retention time: 2.357 min
Precursor m/z: 132.1019
Precursor type: [M+H]+
m/z	relative intensity
35.9992	18
37.0076	57
38.0152	45
39.0235	382
41.0391	634
42.0343	153
43.0185	39
43.0433	36
43.0554	24
44.0501	833
44.9975	15
45.0339	156
53.0388	15
55.0548	93
56.0501	658
57.0334	15
57.058	511
58.0421	21
58.0656	138
59.0496	30
67.0545	45
68.0257	12
69.034	33
69.0706	947
70.0651	90
71.0736	21
73.0654	45
86.0974	999
87.0439	15
