Mass spectrum: Warfarin; LC-ESI-QTOF; MS2; 70 V
Name: Warfarin
Class: Pesticide
Formula: C19H16O4
Exact mass: 308.1049
SMILES: CC(=O)CC(C1=CC=CC=C1)C2=C(C3=CC=CC=C3OC2=O)O
InChI: InChI=1S/C19H16O4/c1-12(20)11-15(13-7-3-2-4-8-13)17-18(21)14-9-5-6-10-16(14)23-19(17)22/h2-10,15,21H,11H2,1H3
Instrument: TripleTOF 6600 SCIEX
Instrument type: LC-ESI-QTOF
Ms type: MS2
Ion mode: NEGATIVE
Collision energy: 70
Fragmentation mode: CID
Ionization: ESI
Column name: Zorbax Eclipse Plus C18 2.1 mm x 150 mm, 3.5 um, Agilent
Retention time: 11.631 min
Precursor m/z: 307.0976
Precursor type: [M-H]-
m/z	relative intensity
41.0025	282
57.0334	353
89.0371	10
92.0246	71
93.0331	65
101.0385	58
115.0555	25
117.0338	999
119.0508	10
130.0411	34
143.0491	21
161.0267	21
165.0696	23
193.0656	49
205.0662	18
219.0815	18
221.0586	21
249.0592	29
250.0634	10
