Mass spectrum: Triamterene; LC-ESI-QTOF; MS2; 30 V
Name: Triamterene
Class: Pharmaceutical
Formula: C12H11N7
Exact mass: 253.1076
SMILES: C1=CC=C(C=C1)C2=NC3=C(N=C2N)N=C(N=C3N)N
InChI: InChI=1S/C12H11N7/c13-9-7(6-4-2-1-3-5-6)16-8-10(14)18-12(15)19-11(8)17-9/h1-5H,(H6,13,14,15,17,18,19)
Instrument: TripleTOF 5600 SCIEX
Instrument type: LC-ESI-QTOF
Ms type: MS2
Ion mode: POSITIVE
Collision energy: 30
Fragmentation mode: CID
Ionization: ESI
Column name: Zorbax Eclipse Plus C18 2.1 mm x 150 mm, 3.5 um, Agilent
Retention time: 5.203 min
Precursor m/z: 254.1149
Precursor type: [M+H]+
m/z	relative intensity
104.0513	41
141.0456	10
143.0618	23
168.0564	35
195.0672	76
210.0779	44
212.0939	68
220.0622	11
227.1037	40
237.0883	541
254.1149	999
