Mass spectrum: Propiconazole; LC-ESI-QTOF; MS2; 150 V
Name: Propiconazole
Class: Fungicide
Formula: C15H17Cl2N3O2
Exact mass: 341.0698
SMILES: CCCC1COC(Cn2cncn2)(O1)c3ccc(Cl)cc3Cl
InChI: InChI=1S/C15H17Cl2N3O2/c1-2-3-12-7-21-15(22-12,8-20-10-18-9-19-20)13-5-4-11(16)6-14(13)17/h4-6,9-10,12H,2-3,7-8H2,1H3
Instrument: TripleTOF 5600 SCIEX
Instrument type: LC-ESI-QTOF
Ms type: CID
Ion mode: POSITIVE
Collision energy: 150
Ionization: ESI
Column name: Zorbax Eclipse Plus C18 2.1 mm x 150 mm, 3.5 um, Agilent
Retention time: 13.45 min
Precursor m/z: 342.0771
Precursor type: [M+H]+
m/z	relative intensity
48.9909	37
60.0031	20
63.0645	10
69.0745	9
70.0437	38
72.9881	851
74.0189	999
75.0253	138
82.0424	10
82.9461	90
83.9778	34
84.9853	22
86.0165	50
87.024	52
88.032	75
89.0411	999
89.0831	13
96.9844	169
98.9998	92
106.9446	26
108.9834	154
109.9914	10
122.9989	75
124.0073	13
132.9606	34
