Mass spectrum: 10,11-Dihydro-10,11-epoxycarbamazepine; LC-ESI-QTOF; MS2; 130 V
Name: 10,11-Dihydro-10,11-epoxycarbamazepine
Class: Metabolite; Pharmaceutical; Transformation_product-Metabolite
Formula: C15H12N2O2
Exact mass: 252.0899
SMILES: C1=CC=C2C(=C1)C3C(O3)C4=CC=CC=C4N2C(=O)N
InChI: InChI=1S/C15H12N2O2/c16-15(18)17-11-7-3-1-5-9(11)13-14(19-13)10-6-2-4-8-12(10)17/h1-8,13-14H,(H2,16,18)
Instrument: TripleTOF 5600 SCIEX
Instrument type: LC-ESI-QTOF
Ms type: MS2
Ion mode: POSITIVE
Collision energy: 130
Fragmentation mode: CID
Ionization: ESI
Column name: Zorbax Eclipse Plus C18 2.1 mm x 150 mm, 3.5 um, Agilent
Retention time: 7.593 min
Precursor m/z: 253.0972
Precursor type: [M+H]+
m/z	relative intensity
37.0073	12
39.0228	39
44.0131	33
49.0075	43
50.0152	270
51.0232	473
52.0311	21
60.0005	21
61.0071	73
62.0149	165
63.0232	405
64.0183	15
65.0388	55
73.0078	73
74.0153	593
75.0107	12
75.0228	691
76.018	36
76.0306	218
77.0387	571
78.0344	15
78.0464	73
83.9983	18
85.0058	79
86.0156	153
87.0226	252
88.018	52
88.0317	46
89.0381	307
90.0402	27
91.0552	12
97.0071	27
98.0149	356
99.0083	21
99.0229	273
100.0178	24
100.0308	92
101.0374	159
102.0455	239
103.0408	15
109.0081	21
110.0154	79
111.0226	55
112.0223	27
113.0385	221
114.0333	39
114.0457	18
115.054	67
122.0153	58
123.023	49
124.0312	36
125.0375	199
126.0467	485
127.0496	162
128.0504	107
129.0428	18
137.0383	98
138.0448	33
139.0544	138
140.0485	113
149.0379	147
150.0466	999
151.0542	777
152.0608	433
153.0572	67
161.0394	36
162.0463	61
163.0539	113
164.0487	49
175.0415	30
176.0499	101
177.0578	276
178.0656	230
179.0739	27
188.0466	12
189.0575	27
190.0686	24
