Mass spectrum: Carbamazepine; LC-ESI-QTOF; MS2; 100 V
Name: Carbamazepine
Class: Pharmaceutical
Formula: C15H12N2O
Exact mass: 236.095
SMILES: NC(=O)N1c2ccccc2C=Cc3ccccc13
InChI: InChI=1S/C15H12N2O/c16-15(18)17-13-7-3-1-5-11(13)9-10-12-6-2-4-8-14(12)17/h1-10H,(H2,16,18)
Instrument: TripleTOF 5600 SCIEX
Instrument type: LC-ESI-QTOF
Ms type: MS2
Ion mode: POSITIVE
Collision energy: 100
Fragmentation mode: CID
Ionization: ESI
Column name: Zorbax Eclipse Plus C18 2.1 mm x 150 mm, 3.5 um, Agilent
Retention time: 8.87 min
Precursor m/z: 237.1022
Precursor type: [M+H]+
m/z	relative intensity
64.0356	25
65.0426	80
73.0129	15
74.0186	114
75.0262	127
76.033	84
77.0418	139
78.0485	23
85.01	15
86.0176	64
87.0253	102
88.0194	11
88.0323	25
89.04	485
90.0488	45
91.0561	17
98.015	74
99.0229	72
100.0313	29
101.0384	66
102.032	15
102.0456	92
110.0162	15
111.0248	29
112.0195	11
113.0386	237
114.0402	55
115.0544	291
116.0492	23
117.0566	15
122.0152	11
125.037	86
126.0471	182
127.0491	66
128.0518	53
129.0582	11
137.0388	98
138.0449	47
139.0537	515
140.0496	312
149.0401	55
150.046	405
151.0538	289
152.0542	165
153.0557	13
161.0393	45
162.0469	161
163.0541	999
164.058	528
165.0688	237
166.0647	72
167.0683	17
174.0462	19
175.0501	27
176.0506	53
177.0564	116
178.0681	43
188.05	133
189.0562	249
190.0646	645
191.0717	320
192.0809	19
