Mass spectrum: Estradiol; LC-ESI-QTOF; MS2; 90 V
Name: Estradiol
Class: Pharmaceutical
Formula: C18H24O2
Exact mass: 272.1776
SMILES: CC12CCC3C(C1CCC2O)CCC4=C3C=CC(=C4)O
InChI: InChI=1S/C18H24O2/c1-18-9-8-14-13-5-3-12(19)10-11(13)2-4-15(14)16(18)6-7-17(18)20/h3,5,10,14-17,19-20H,2,4,6-9H2,1H3
Instrument: TripleTOF 5600 SCIEX
Instrument type: LC-ESI-QTOF
Ms type: MS2
Ion mode: POSITIVE
Collision energy: 90
Fragmentation mode: CID
Ionization: ESI
Column name: Zorbax Eclipse Plus C18 2.1 mm x 150 mm, 3.5 um, Agilent
Retention time: 10.403 min
Precursor m/z: 273.1849
Precursor type: [M+H]+
m/z	relative intensity
39.0226	21
41.0379	21
50.0146	23
51.0225	129
53.0378	20
55.0172	33
55.0541	23
63.0232	10
65.0382	66
67.0538	64
77.0386	999
78.0461	24
79.054	181
81.034	12
81.0696	29
89.0385	21
91.0535	138
93.0703	24
95.0852	16
102.0448	16
103.0539	49
105.0693	32
107.0488	317
115.0544	144
116.0608	21
117.0696	12
127.0546	30
128.0618	33
129.0695	15
131.0464	24
141.0707	10
144.0569	12
152.0624	10
