Mass spectrum: Clomazone; LC-ESI-QTOF; MS2; 60 V
Name: Clomazone
Class: Herbicide
Formula: C12H14ClNO2
Exact mass: 239.0713
SMILES: CC1(CON(C1=O)CC2=CC=CC=C2Cl)C
InChI: InChI=1S/C12H14ClNO2/c1-12(2)8-16-14(11(12)15)7-9-5-3-4-6-10(9)13/h3-6H,7-8H2,1-2H3
Instrument: TripleTOF 6600 SCIEX
Instrument type: LC-ESI-QTOF
Ms type: MS2
Ion mode: POSITIVE
Collision energy: 60
Fragmentation mode: CID
Ionization: ESI
Column name: Zorbax Eclipse Plus C18 2.1 mm x 150 mm, 3.5 um, Agilent
Retention time: 11.289 min
Precursor m/z: 240.0786
Precursor type: [M+H]+
m/z	relative intensity
39.0212	26
61.005	21
62.013	34
63.0206	154
65.0363	41
72.9814	119
74.9969	27
89.0362	974
90.0441	359
96.982	10
98.9971	505
125.0128	999
