Mass spectrum: Triclabendazole; LC-ESI-QTOF; MS2; 140 V
Name: Triclabendazole
Class: Pharmaceutical
Formula: C14H9Cl3N2OS
Exact mass: 357.9501
SMILES: CSc1[nH]c2cc(Cl)c(Oc3cccc(Cl)c3Cl)cc2n1
InChI: InChI=1S/C14H9Cl3N2OS/c1-21-14-18-9-5-8(16)12(6-10(9)19-14)20-11-4-2-3-7(15)13(11)17/h2-6H,1H3,(H,18,19)
Instrument: TripleTOF 5600 SCIEX
Instrument type: LC-ESI-QTOF
Ms type: MS2
Ion mode: POSITIVE
Collision energy: 140
Fragmentation mode: CID
Ionization: ESI
Column name: Zorbax Eclipse Plus C18 2.1 mm x 150 mm, 3.5 um, Agilent
Retention time: 13.11 min
Precursor m/z: 358.9574
Precursor type: [M+H]+
m/z	relative intensity
44.9795	238
48.9841	146
49.0076	30
50.0156	169
51.0112	76
51.0233	153
52.019	153
61.0072	76
61.9795	268
62.0154	153
63.0235	276
64.018	476
65.0271	92
68.9799	169
69.976	53
69.9865	38
72.984	230
73.0071	38
73.982	30
74.016	391
75.0108	199
75.0226	338
76.0182	999
77.0268	115
77.0382	76
78.0337	253
78.9412	146
80.9803	38
81.9883	84
84.9846	122
85.9793	261
86.0172	38
87.0229	69
88.0177	53
88.0302	46
89.0256	38
89.0383	30
90.0344	92
91.0291	99
92.0366	115
92.9794	192
93.9873	122
96.9853	92
97.994	38
98.0155	315
99.0235	491
99.9949	161
100.0176	53
100.0286	76
101.039	76
102.0326	46
102.9397	46
103.0282	61
104.0423	61
107.9916	61
108.9846	46
111.9963	76
113.0404	130
114.0342	30
114.0451	38
119.9916	69
120.997	53
122.0144	115
123.023	115
124.0248	192
125.0382	476
126.0465	591
127.0052	92
127.0395	38
128.9555	53
129.048	38
136.0117	30
137.0394	53
138.0346	99
139.0399	61
140.0493	107
146.9993	46
148.0096	192
150.0305	30
151.0419	376
152.0519	138
153.0555	38
160.007	146
170.9792	46
174.0124	53
