Mass spectrum: Oxazepam; LC-ESI-QTOF; MS2; 80 V
Name: Oxazepam
Class: Pharmaceutical
Formula: C15H11ClN2O2
Exact mass: 286.0509
SMILES: C1=CC=C(C=C1)C2=NC(C(=O)NC3=C2C=C(C=C3)Cl)O
InChI: InChI=1S/C15H11ClN2O2/c16-10-6-7-12-11(8-10)13(9-4-2-1-3-5-9)18-15(20)14(19)17-12/h1-8,15,20H,(H,17,19)
Instrument: TripleTOF 6600 SCIEX
Instrument type: LC-ESI-QTOF
Ms type: MS2
Ion mode: POSITIVE
Collision energy: 80
Fragmentation mode: CID
Ionization: ESI
Column name: Zorbax Eclipse Plus C18 2.1 mm x 150 mm, 3.5 um, Agilent
Retention time: 9.314 min
Precursor m/z: 287.0582
Precursor type: [M+H]+
m/z	relative intensity
49.0072	13
50.015	63
51.023	247
63.0227	45
64.0305	15
65.0381	22
66.0465	80
72.9836	48
74.0149	48
75.023	164
77.0389	999
84.9831	14
90.0337	83
91.0414	108
92.0489	24
93.0573	222
99.0008	128
100.0184	430
102.0342	11
104.0496	224
105.0443	21
108.9839	19
110.9995	146
116.0372	11
117.0441	23
118.0526	155
123.9948	54
125.0021	13
125.0384	12
126.0102	14
126.0472	12
127.0175	18
127.0529	18
128.0616	11
135.9947	96
138.01	10
139.0054	37
139.054	15
140.0492	17
150.0459	74
151.0062	25
151.0541	196
152.0138	16
152.0616	139
153.0578	18
163.0059	53
164.0012	128
166.0648	45
167.0723	55
168.0682	39
176.0501	19
177.0576	121
178.0652	105
179.0674	48
180.0806	11
192.0688	30
193.0759	124
194.0843	148
195.0916	44
204.0661	13
205.0762	83
229.0537	23
239.037	11
241.052	10
