Mass spectrum: O-tolidine; LC-ESI-QTOF; MS2; 130 V
Name: O-tolidine
Formula: C14H16N2
Exact mass: 212.1313
SMILES: CC1=C(C=CC(=C1)C2=CC(=C(C=C2)N)C)N
InChI: InChI=1S/C14H16N2/c1-9-7-11(3-5-13(9)15)12-4-6-14(16)10(2)8-12/h3-8H,15-16H2,1-2H3
Instrument: TripleTOF 6600 SCIEX
Instrument type: LC-ESI-QTOF
Ms type: MS2
Ion mode: POSITIVE
Collision energy: 130
Fragmentation mode: CID
Ionization: ESI
Column name: Zorbax Eclipse Plus C18 2.1 mm x 150 mm, 3.5 um, Agilent
Retention time: 5.073 min
Precursor m/z: 213.1386
Precursor type: [M+H]+
m/z	relative intensity
50.0163	477
51.0238	521
61.0089	217
62.0155	347
63.0237	434
73.0105	217
74.0158	999
75.0251	390
76.0322	217
77.0389	217
85.0083	173
86.016	390
87.0237	347
98.0162	434
99.0213	304
110.0154	260
113.0376	173
150.0485	564
