Mass spectrum: Ciprofloxacin; LC-ESI-QTOF; MS2; 60 V
Name: Ciprofloxacin
Class: Pharmaceutical
Formula: C17H18FN3O3
Exact mass: 331.1332
SMILES: C1CC1N2C=C(C(=O)C3=CC(=C(C=C32)N4CCNCC4)F)C(=O)O
InChI: InChI=1S/C17H18FN3O3/c18-13-7-11-14(8-15(13)20-5-3-19-4-6-20)21(10-1-2-10)9-12(16(11)22)17(23)24/h7-10,19H,1-6H2,(H,23,24)
Instrument: TripleTOF 6600 SCIEX
Instrument type: LC-ESI-QTOF
Ms type: MS2
Ion mode: POSITIVE
Collision energy: 60
Fragmentation mode: CID
Ionization: ESI
Column name: Zorbax Eclipse Plus C18 2.1 mm x 150 mm, 3.5 um, Agilent
Retention time: 5.497 min
Precursor m/z: 332.1405
Precursor type: [M+H]+
m/z	relative intensity
116.0505	35
134.0409	40
135.0476	25
136.0562	50
142.0686	25
148.0563	127
155.0615	45
156.0685	56
160.0562	30
162.0344	61
162.0707	35
163.0406	20
163.067	25
174.0599	30
174.0713	25
175.0665	81
187.068	45
188.0413	81
189.0481	86
191.0622	30
201.0823	25
202.0612	35
203.0627	208
205.0767	71
215.0608	35
231.0573	999
