Mass spectrum: 3,3-Diphenylacrylonitrile; LC-ESI-QTOF; MS2; 40 V
Name: 3,3-Diphenylacrylonitrile
Formula: C15H11N
Exact mass: 205.0891
SMILES: C1=CC=C(C=C1)C(=CC#N)C2=CC=CC=C2
InChI: InChI=1S/C15H11N/c16-12-11-15(13-7-3-1-4-8-13)14-9-5-2-6-10-14/h1-11H
Instrument: TripleTOF 6600 SCIEX
Instrument type: LC-ESI-QTOF
Ms type: MS2
Ion mode: POSITIVE
Collision energy: 40
Fragmentation mode: CID
Ionization: ESI
Column name: Zorbax Eclipse Plus C18 2.1 mm x 150 mm, 3.5 um, Agilent
Retention time: 13.746 min
Precursor m/z: 206.0964
Precursor type: [M+H]+
m/z	relative intensity
51.0216	26
75.0216	59
77.0373	785
101.0373	491
102.0323	30
103.0523	80
104.048	875
105.0424	15
128.0479	999
129.0439	192
151.0561	13
152.0607	34
164.064	22
165.0693	203
176.0604	36
177.0681	49
178.077	652
179.0875	17
189.0675	19
190.0628	34
191.0705	24
203.0732	11
204.0812	223
205.0848	13
206.0968	101
