Mass spectrum: 2,6-Dimethylquinoline; LC-ESI-QTOF; MS2; 120 V
Name: 2,6-Dimethylquinoline
Formula: C11H11N
Exact mass: 157.0891
SMILES: CC1=CC2=C(C=C1)N=C(C=C2)C
InChI: InChI=1S/C11H11N/c1-8-3-6-11-10(7-8)5-4-9(2)12-11/h3-7H,1-2H3
Instrument: TripleTOF 6600 SCIEX
Instrument type: LC-ESI-QTOF
Ms type: MS2
Ion mode: POSITIVE
Collision energy: 120
Fragmentation mode: CID
Ionization: ESI
Column name: Zorbax Eclipse Plus C18 2.1 mm x 150 mm, 3.5 um, Agilent
Retention time: 5.162 min
Precursor m/z: 158.0964
Precursor type: [M+H]+
m/z	relative intensity
35.9994	131
37.0071	599
38.0029	23
38.0149	403
39.0227	547
42.0336	19
49.0067	283
50.0147	999
51.0224	371
52.0178	35
59.9992	39
61.0068	455
62.0145	723
63.0224	415
64.0179	19
73.0063	175
74.0144	615
75.0101	35
75.022	59
85.0066	63
86.0141	99
87.0221	23
89.0376	31
97.0059	23
98.0137	31
113.0382	19
