Mass spectrum: Dehydroepiandrosterone; LC-ESI-QTOF; MS2; 80 V
Name: Dehydroepiandrosterone
Class: Pharmaceutical
Formula: C19H28O2
Exact mass: 288.2089
SMILES: C[C@]12CC[C@H]3[C@@H](CC=C4C[C@@H](O)CC[C@]34C)[C@@H]1CCC2=O
InChI: InChI=1S/C19H28O2/c1-18-9-7-13(20)11-12(18)3-4-14-15-5-6-17(21)19(15,2)10-8-16(14)18/h3,13-16,20H,4-11H2,1-2H3/t13-,14-,15-,16-,18-,19-/m0/s1
Instrument: TripleTOF 5600 SCIEX
Instrument type: LC-ESI-QTOF
Ms type: MS2
Ion mode: POSITIVE
Collision energy: 80
Fragmentation mode: CID
Ionization: ESI
Column name: Zorbax Eclipse Plus C18 2.1 mm x 150 mm, 3.5 um, Agilent
Retention time: 11.589 min
Precursor m/z: 289.2162
Precursor type: [M+H]+
m/z	relative intensity
67.0557	134
77.0411	594
79.0567	432
91.0544	999
103.0552	134
105.0678	269
115.0539	594
117.0678	188
119.0925	134
127.056	188
128.0605	729
129.07	404
141.0691	702
142.0767	134
152.0611	216
153.0696	216
154.0762	108
155.0885	216
165.0667	323
