Mass spectrum: Desethylterbuthylazine; LC-ESI-QTOF; MS2; 120 V
Name: Desethylterbuthylazine
Class: Herbicide; Transformation_product; Metabolite
Formula: C7H12ClN5
Exact mass: 201.0781
SMILES: CC(C)(C)NC1=NC(=NC(=N1)N)Cl
InChI: InChI=1S/C7H12ClN5/c1-7(2,3)13-6-11-4(8)10-5(9)12-6/h1-3H3,(H3,9,10,11,12,13)
Instrument: TripleTOF 6600 SCIEX
Instrument type: LC-ESI-QTOF
Ms type: MS2
Ion mode: POSITIVE
Collision energy: 120
Fragmentation mode: CID
Ionization: ESI
Column name: Zorbax Eclipse Plus C18 2.1 mm x 150 mm, 3.5 um, Agilent
Retention time: 9.136 min
Precursor m/z: 202.0854
Precursor type: [M+H]+
m/z	relative intensity
35.999	16
37.0073	67
38.0028	18
38.015	57
39.0231	190
41.0137	84
41.0384	17
42.0217	121
42.0324	27
43.0296	899
53.0135	74
61.9794	999
68.0243	175
