Mass spectrum: Tenofovir; LC-ESI-QTOF; MS2; 10 V
Name: Tenofovir
Class: Pharmaceutical
Formula: C9H14N5O4P
Exact mass: 287.0783
SMILES: C[C@H](Cn1cnc2c(N)ncnc12)OC[P](O)(O)=O
InChI: InChI=1S/C9H14N5O4P/c1-6(18-5-19(15,16)17)2-14-4-13-7-8(10)11-3-12-9(7)14/h3-4,6H,2,5H2,1H3,(H2,10,11,12)(H2,15,16,17)/t6-/m1/s1
Instrument: TripleTOF 5600 SCIEX
Instrument type: LC-ESI-QTOF
Ms type: MS2
Ion mode: POSITIVE
Collision energy: 10
Fragmentation mode: CID
Ionization: ESI
Column name: Zorbax Eclipse Plus C18 2.1 mm x 150 mm, 3.5 um, Agilent
Retention time: 2.771 min
Precursor m/z: 288.0856
Precursor type: [M+H]+
m/z	relative intensity
288.0862	999
