Mass spectrum: (Methoxymethyl)diphenylphosphine oxide; LC-ESI-QTOF; MS2; 70 V
Name: (Methoxymethyl)diphenylphosphine oxide
Class: Industrial_process
Formula: C14H15O2P
Exact mass: 246.081
SMILES: COC[P](=O)(c1ccccc1)c2ccccc2
InChI: InChI=1S/C14H15O2P/c1-16-12-17(15,13-8-4-2-5-9-13)14-10-6-3-7-11-14/h2-11H,12H2,1H3
Instrument: TripleTOF 5600 SCIEX
Instrument type: LC-ESI-QTOF
Ms type: MS2
Ion mode: POSITIVE
Collision energy: 70
Fragmentation mode: CID
Ionization: ESI
Column name: Zorbax Eclipse Plus C18 2.1 mm x 150 mm, 3.5 um, Agilent
Retention time: 8.67 min
Precursor m/z: 247.0882
Precursor type: [M+H]+
m/z	relative intensity
45.0425	354
51.0305	24
65.0432	118
77.0416	114
78.0484	12
79.9817	12
80.9897	16
83.0047	14
89.0409	36
91.0564	197
102.0441	14
107.0042	181
108.0123	30
109.0206	57
115.0545	267
126.0451	38
128.0593	20
131.0088	14
133.0207	91
139.0538	203
141.0698	22
144.009	10
150.0472	14
151.0539	103
152.0622	999
156.0109	18
157.0198	475
165.0679	20
170.0294	42
181.0194	134
182.0301	46
183.0353	939
199.0294	12
