Mass spectrum: Prallethrin; LC-ESI-QTOF; MS2; 130 V
Name: Prallethrin
Class: Insecticide
Formula: C19H24O3
Exact mass: 300.1725
SMILES: CC1=C(C(=O)CC1OC(=O)C2C(C2(C)C)C=C(C)C)CC#C
InChI: InChI=1S/C19H24O3/c1-7-8-13-12(4)16(10-15(13)20)22-18(21)17-14(9-11(2)3)19(17,5)6/h1,9,14,16-17H,8,10H2,2-6H3
Instrument: TripleTOF 6600 SCIEX
Instrument type: LC-ESI-QTOF
Ms type: MS2
Ion mode: POSITIVE
Collision energy: 130
Fragmentation mode: CID
Ionization: ESI
Column name: Zorbax Eclipse Plus C18 2.1 mm x 150 mm, 3.5 um, Agilent
Retention time: 14.861 min
Precursor m/z: 301.1798
Precursor type: [M+H]+
m/z	relative intensity
37.0077	87
38.0162	78
39.0235	257
41.0391	61
43.018	26
49.0075	117
50.0156	497
51.0236	999
53.0397	52
61.009	17
62.0155	39
63.0233	78
65.0388	82
74.0161	34
75.0229	21
77.0393	418
78.0475	21
79.0551	21
89.0388	65
91.0544	34
115.0541	39
