Mass spectrum: Methacetin; LC-ESI-QTOF; MS2; 50 V
Name: Methacetin
Class: Pharmaceutical
Formula: C9H11NO2
Exact mass: 165.079
SMILES: COc1ccc(NC(C)=O)cc1
InChI: InChI=1S/C9H11NO2/c1-7(11)10-8-3-5-9(12-2)6-4-8/h3-6H,1-2H3,(H,10,11)
Instrument: TripleTOF 5600 SCIEX
Instrument type: LC-ESI-QTOF
Ms type: MS2
Ion mode: POSITIVE
Collision energy: 50
Fragmentation mode: CID
Ionization: ESI
Column name: Zorbax Eclipse Plus C18 2.1 mm x 150 mm, 3.5 um, Agilent
Retention time: 6.508 min
Precursor m/z: 166.0863
Precursor type: [M+H]+
m/z	relative intensity
43.0292	363
43.0502	11
54.044	27
64.0364	108
65.044	558
66.0514	447
67.0485	25
77.0421	593
78.0428	37
80.0527	829
81.0603	706
82.0442	18
92.0475	411
93.0594	999
94.0658	24
107.0494	11
108.0451	242
109.0524	486
123.0682	18
124.0758	48
