Mass spectrum: 4-Epioxytetracyline; LC-ESI-QTOF; MS2; 30 V
Name: 4-Epioxytetracyline
Class: Metabolite; Pharmaceutical
Formula: C22H24N2O9
Exact mass: 460.1482
SMILES: CC1(C2C(C3C(C(=O)C(=C(C3(C(=O)C2=C(C4=C1C=CC=C4O)O)O)O)C(=O)N)N(C)C)O)O
InChI: InChI=1S/C22H24N2O9/c1-21(32)7-5-4-6-8(25)9(7)15(26)10-12(21)17(28)13-14(24(2)3)16(27)11(20(23)31)19(30)22(13,33)18(10)29/h4-6,12-14,17,25-26,28,30,32-33H,1-3H3,(H2,23,31)
Instrument: TripleTOF 5600 SCIEX
Instrument type: LC-ESI-QTOF
Ms type: MS2
Ion mode: POSITIVE
Collision energy: 30
Fragmentation mode: CID
Ionization: ESI
Column name: Zorbax Eclipse Plus C18 2.1 mm x 150 mm, 3.5 um, Agilent
Retention time: 5.276 min
Precursor m/z: 461.1555
Precursor type: [M+H]+
m/z	relative intensity
201.0531	43
226.0696	52
337.068	67
365.0639	43
381.0593	124
408.1017	62
408.1247	24
426.1157	999
443.1415	38
444.1134	38
444.1363	57
461.1425	28
