Mass spectrum: Trifloxystrobin; LC-ESI-QTOF; MS2; 150 V
Name: Trifloxystrobin
Class: Fungicide
Formula: C20H19F3N2O4
Exact mass: 408.1297
SMILES: CC(=NOCC1=CC=CC=C1C(=NOC)C(=O)OC)C2=CC(=CC=C2)C(F)(F)F
InChI: InChI=1S/C20H19F3N2O4/c1-13(14-8-6-9-16(11-14)20(21,22)23)24-29-12-15-7-4-5-10-17(15)18(25-28-3)19(26)27-2/h4-11H,12H2,1-3H3
Instrument: TripleTOF 5600 SCIEX
Instrument type: LC-ESI-QTOF
Ms type: MS2
Ion mode: POSITIVE
Collision energy: 150
Fragmentation mode: CID
Ionization: ESI
Column name: Zorbax Eclipse Plus C18 2.1 mm x 150 mm, 3.5 um, Agilent
Retention time: 15.037 min
Precursor m/z: 409.137
Precursor type: [M+H]+
m/z	relative intensity
51.0328	67
57.0224	25
59.0215	12
64.0308	27
65.0463	85
69.0016	116
73.0124	26
74.0212	432
75.0276	890
76.0356	13
77.0442	234
78.052	19
81.0193	24
88.027	19
89.0428	999
90.0496	104
91.0577	94
95.0325	269
99.0066	69
102.0489	11
103.0565	102
105.0152	12
114.0341	18
116.0516	169
117.0598	49
118.0666	45
119.0116	30
125.0215	89
130.0668	94
131.0735	10
145.0275	56
