Mass spectrum: Benzyldiphenylphosphine oxide; LC-ESI-QTOF; MS2; 40 V
Name: Benzyldiphenylphosphine oxide
Class: Industrial_process
Formula: C19H17OP
Exact mass: 292.1017
SMILES: O=P(c1ccccc1)(c2ccccc2)Cc3ccccc3
InChI: InChI=1S/C19H17OP/c20-21(18-12-6-2-7-13-18,19-14-8-3-9-15-19)16-17-10-4-1-5-11-17/h1-15H,16H2
Instrument: TripleTOF 5600 SCIEX
Instrument type: LC-ESI-QTOF
Ms type: MS2
Ion mode: POSITIVE
Collision energy: 40
Fragmentation mode: CID
Ionization: ESI
Column name: Zorbax Eclipse Plus C18 2.1 mm x 150 mm, 3.5 um, Agilent
Retention time: 10.822 min
Precursor m/z: 293.109
Precursor type: [M+H]+
m/z	relative intensity
65.0432	56
91.0557	999
125.014	27
155.0854	26
173.0513	19
183.0357	35
185.0518	18
201.0465	255
202.0549	18
293.1096	294
