Mass spectrum: Atenolol acid; LC-ESI-QTOF; MS2; 10 V
Name: Atenolol acid
Class: Pharmaceutical
Formula: C14H21NO4
Exact mass: 267.1471
SMILES: CC(C)NCC(COC1=CC=C(C=C1)CC(=O)O)O
InChI: InChI=1S/C14H21NO4/c1-10(2)15-8-12(16)9-19-13-5-3-11(4-6-13)7-14(17)18/h3-6,10,12,15-16H,7-9H2,1-2H3,(H,17,18)
Instrument: TripleTOF 5600 SCIEX
Instrument type: LC-ESI-QTOF
Ms type: MS2
Ion mode: POSITIVE
Collision energy: 10
Fragmentation mode: CID
Ionization: ESI
Column name: Zorbax Eclipse Plus C18 2.1 mm x 150 mm, 3.5 um, Agilent
Retention time: 4.893 min
Precursor m/z: 268.1543
Precursor type: [M+H]+
m/z	relative intensity
268.1546	999
