Mass spectrum: Tolfenamic acid; LC-ESI-QTOF; MS2; 100 V
Name: Tolfenamic acid
Class: Pharmaceutical
Formula: C14H12ClNO2
Exact mass: 261.0557
SMILES: Cc1cc(Nc2ccccc2C(O)=O)ccc1Cl
InChI: InChI=1S/C14H12ClNO2/c1-9-8-10(6-7-12(9)15)16-13-5-3-2-4-11(13)14(17)18/h2-8,16H,1H3,(H,17,18)
Instrument: TripleTOF 5600 SCIEX
Instrument type: LC-ESI-QTOF
Ms type: MS2
Ion mode: POSITIVE
Collision energy: 100
Fragmentation mode: CID
Ionization: ESI
Column name: Zorbax Eclipse Plus C18 2.1 mm x 150 mm, 3.5 um, Agilent
Retention time: 14.052 min
Precursor m/z: 262.0629
Precursor type: [M+H]+
m/z	relative intensity
64.0371	22
65.0421	29
72.9898	14
73.0089	12
74.0187	58
74.0319	9
75.0256	173
76.0328	26
77.0415	342
78.0479	26
86.0169	22
87.0246	53
88.019	9
88.0308	24
89.0397	217
90.0465	12
91.0538	12
92.0276	22
98.0143	29
99.0234	39
100.031	12
101.0387	129
102.0331	19
102.0455	63
103.0536	12
111.023	14
113.0377	296
114.0361	66
115.0533	97
115.0833	9
116.0482	39
125.0376	44
126.0455	205
127.0539	249
128.0503	220
129.0492	17
129.0674	14
130.0632	9
137.0386	90
138.0456	66
139.0536	347
140.048	457
141.0563	14
149.0375	22
150.0455	308
151.0534	778
152.0614	999
153.0568	127
154.0643	44
163.0526	36
164.0485	156
165.0552	29
166.0634	58
173.0159	24
176.0481	31
177.0567	217
178.0638	666
179.0726	242
180.0798	88
188.0468	12
