Mass spectrum: Formononetin; LC-ESI-QTOF; MS2; 100 V
Name: Formononetin
Class: Metabolite; Metabolite; Pharmaceutical
Formula: C16H12O4
Exact mass: 268.0736
SMILES: COc1ccc(cc1)C2=COc3cc(O)ccc3C2=O
InChI: InChI=1S/C16H12O4/c1-19-12-5-2-10(3-6-12)14-9-20-15-8-11(17)4-7-13(15)16(14)18/h2-9,17H,1H3
Instrument: TripleTOF 5600 SCIEX
Instrument type: LC-ESI-QTOF
Ms type: MS2
Ion mode: POSITIVE
Collision energy: 100
Fragmentation mode: CID
Ionization: ESI
Column name: Zorbax Eclipse Plus C18 2.1 mm x 150 mm, 3.5 um, Agilent
Retention time: 10.093 min
Precursor m/z: 269.0808
Precursor type: [M+H]+
m/z	relative intensity
52.0354	16
53.0109	10
64.0338	72
65.0434	96
69.0008	46
74.0189	61
75.0257	84
76.0344	21
77.0419	224
78.0513	30
80.0276	13
81.0363	24
87.0242	14
88.0322	16
89.0416	980
89.0804	11
90.0478	83
91.0573	77
92.0286	27
98.0183	14
99.024	20
101.0393	21
102.0474	74
103.0541	13
108.0213	13
113.0388	49
114.0477	39
115.0553	999
118.0433	21
125.0374	18
126.0468	81
127.0544	93
128.0627	72
138.0466	13
139.055	387
140.0635	39
141.0704	84
149.0404	11
150.0474	174
151.0542	206
152.0625	238
163.0562	11
168.0566	52
169.0642	11
179.053	13
