Mass spectrum: Amisulbrom; LC-ESI-QTOF; MS2; 130 V
Name: Amisulbrom
Formula: C13H13BrFN5O4S2
Exact mass: 464.9576
SMILES: CC1=C(C2=C(N1S(=O)(=O)C3=NN(C=N3)S(=O)(=O)N(C)C)C=C(C=C2)F)Br
InChI: InChI=1S/C13H13BrFN5O4S2/c1-8-12(14)10-5-4-9(15)6-11(10)20(8)25(21,22)13-16-7-19(17-13)26(23,24)18(2)3/h4-7H,1-3H3
Instrument: TripleTOF 6600 SCIEX
Instrument type: LC-ESI-QTOF
Ms type: MS2
Ion mode: POSITIVE
Collision energy: 130
Fragmentation mode: CID
Ionization: ESI
Column name: Zorbax Eclipse Plus C18 2.1 mm x 150 mm, 3.5 um, Agilent
Retention time: 14.781 min
Precursor m/z: 465.9649
Precursor type: [M+H]+
m/z	relative intensity
42.033	37
44.0489	21
51.0219	37
70.0208	26
74.0135	154
75.0218	528
77.0411	32
94.019	96
95.0277	106
96.0366	160
98.0141	42
99.0213	203
100.0201	160
101.0377	502
106.0165	26
107.0274	117
108.0315	21
109.0402	21
119.0291	53
120.0356	999
121.0354	64
126.0333	117
127.041	32
128.049	128
129.043	160
132.0234	26
133.046	117
134.0382	48
146.0372	438
147.0468	566
148.0558	138
154.0408	26
154.0511	21
158.0369	58
160.038	37
225.9662	53
