Mass spectrum: Sulcotrione; LC-ESI-QTOF; MS2; 50 V
Name: Sulcotrione
Class: Herbicide
Formula: C14H13ClO5S
Exact mass: 328.0172
SMILES: CS(=O)(=O)C1=CC(=C(C=C1)C(=O)C2C(=O)CCCC2=O)Cl
InChI: InChI=1S/C14H13ClO5S/c1-21(19,20)8-5-6-9(10(15)7-8)14(18)13-11(16)3-2-4-12(13)17/h5-7,13H,2-4H2,1H3
Instrument: TripleTOF 6600 SCIEX
Instrument type: LC-ESI-QTOF
Ms type: MS2
Ion mode: NEGATIVE
Collision energy: 50
Fragmentation mode: CID
Ionization: ESI
Column name: Zorbax Eclipse Plus C18 2.1 mm x 150 mm, 3.5 um, Agilent
Retention time: 9.651 min
Precursor m/z: 327.0099
Precursor type: [M-H]-
m/z	relative intensity
34.9683	156
93.0311	16
102.9486	17
133.0272	13
140.0617	26
142.042	55
144.0206	21
156.0566	14
158.0367	47
159.046	35
168.0567	85
169.0271	26
170.0357	238
171.0097	14
183.0439	24
184.0516	60
186.0317	16
197.0297	13
210.0311	19
211.0379	127
212.0461	999
221.0265	63
223.0031	27
227.0356	50
247.0389	24
249.0206	138
291.0312	44
