Mass spectrum: Tetraconazole; LC-ESI-QTOF; MS2; 140 V
Name: Tetraconazole
Class: Fungicide
Formula: C13H11Cl2F4N3O
Exact mass: 371.0215
SMILES: C1=CC(=C(C=C1Cl)Cl)C(CN2C=NC=N2)COC(C(F)F)(F)F
InChI: InChI=1S/C13H11Cl2F4N3O/c14-9-1-2-10(11(15)3-9)8(4-22-7-20-6-21-22)5-23-13(18,19)12(16)17/h1-3,6-8,12H,4-5H2
Instrument: TripleTOF 6600 SCIEX
Instrument type: LC-ESI-QTOF
Ms type: MS2
Ion mode: POSITIVE
Collision energy: 140
Fragmentation mode: CID
Ionization: ESI
Column name: Zorbax Eclipse Plus C18 2.1 mm x 150 mm, 3.5 um, Agilent
Retention time: 12.382 min
Precursor m/z: 372.0288
Precursor type: [M+H]+
m/z	relative intensity
37.0069	16
38.0148	10
39.0224	41
43.0289	96
46.9677	46
48.9833	41
51.0035	167
59.9992	16
61.0068	128
62.0146	299
63.0227	581
65.0371	32
70.0391	96
72.9836	573
74.014	30
75.0226	19
82.9442	38
85.0064	16
86.0144	30
87.0225	46
88.0302	87
89.0382	999
96.9833	120
98.9988	79
106.9444	10
107.0285	19
113.0378	24
115.0536	79
122.9985	63
124.0059	13
132.9603	24
133.0436	13
