Mass spectrum: Tenamfetamine; LC-ESI-QTOF; MS2; 40 V
Name: Tenamfetamine
Class: Pharmaceutical
Formula: C10H13NO2
Exact mass: 179.0946
SMILES: CC(CC1=CC2=C(C=C1)OCO2)N
InChI: InChI=1S/C10H13NO2/c1-7(11)4-8-2-3-9-10(5-8)13-6-12-9/h2-3,5,7H,4,6,11H2,1H3
Instrument: TripleTOF 6600 SCIEX
Instrument type: LC-ESI-QTOF
Ms type: MS2
Ion mode: POSITIVE
Collision energy: 40
Fragmentation mode: CID
Ionization: ESI
Column name: Zorbax Eclipse Plus C18 2.1 mm x 150 mm, 3.5 um, Agilent
Retention time: 5.295 min
Precursor m/z: 180.1019
Precursor type: [M+H]+
m/z	relative intensity
50.0145	10
51.0228	79
55.0178	28
65.0376	64
77.0379	999
78.0436	14
79.0535	583
89.0389	12
91.0531	20
93.0334	27
103.0532	443
105.0339	53
105.0509	14
105.0686	601
106.0728	10
115.0524	27
121.0273	53
122.0347	17
133.0629	68
135.0424	457
147.043	50
148.0503	14
