Mass spectrum: Levamisole; LC-ESI-QTOF; MS2; 80 V
Name: Levamisole
Class: Pharmaceutical
Formula: C11H12N2S
Exact mass: 204.0721
SMILES: c1ccc(cc1)[C@H]2CN3CCSC3=N2
InChI: InChI=1S/C11H12N2S/c1-2-4-9(5-3-1)10-8-13-6-7-14-11(13)12-10/h1-5,10H,6-8H2/t10-/m1/s1
Instrument: TripleTOF 5600 SCIEX
Instrument type: LC-ESI-QTOF
Ms type: MS2
Ion mode: POSITIVE
Collision energy: 80
Fragmentation mode: CID
Ionization: ESI
Column name: Zorbax Eclipse Plus C18 2.1 mm x 150 mm, 3.5 um, Agilent
Retention time: 5.021 min
Precursor m/z: 205.0794
Precursor type: [M+H]+
m/z	relative intensity
42.0449	10
51.0303	357
57.9914	10
58.9987	32
59.9951	88
65.044	740
71.9962	12
74.0201	29
75.0256	42
76.0334	22
77.0424	999
78.0491	132
79.0566	49
89.0409	230
90.0486	100
91.0565	980
91.0865	12
101.0387	17
102.0476	89
103.0554	263
104.0624	20
105.0701	14
115.0543	106
117.0574	85
118.0652	16
126.0461	28
127.0537	61
128.0617	143
130.0651	140
