Mass spectrum: 11alpha-Hydroxyprogesterone; LC-ESI-QTOF; MS2; 120 V
Name: 11alpha-Hydroxyprogesterone
Class: Pharmaceutical; Metabolite
Formula: C21H30O3
Exact mass: 330.2195
SMILES: CC(=O)C1CC[C@H]2[C@@H]3CCC4=CC(=O)CC[C@]4(C)[C@H]3[C@H](O)C[C@]12C
InChI: InChI=1S/C21H30O3/c1-12(22)16-6-7-17-15-5-4-13-10-14(23)8-9-20(13,2)19(15)18(24)11-21(16,17)3/h10,15-19,24H,4-9,11H2,1-3H3/t15-,16?,17-,18+,19+,20-,21+/m0/s1
Instrument: TripleTOF 5600 SCIEX
Instrument type: LC-ESI-QTOF
Ms type: MS2
Ion mode: POSITIVE
Collision energy: 120
Fragmentation mode: CID
Ionization: ESI
Column name: Zorbax Eclipse Plus C18 2.1 mm x 150 mm, 3.5 um, Agilent
Retention time: 10.293 min
Precursor m/z: 331.2268
Precursor type: [M+H]+
m/z	relative intensity
43.0264	420
53.0437	80
55.0228	38
65.0434	335
67.0592	68
71.0517	21
77.0413	999
78.049	68
79.0557	221
81.0738	21
83.0506	51
89.0398	46
91.0559	629
91.0912	21
93.0705	21
94.0439	29
95.087	17
97.064	34
102.0485	68
103.0535	102
105.0696	72
107.05	46
108.0586	17
115.054	607
116.0612	29
117.0694	55
119.0866	17
126.0449	38
127.0539	140
128.0618	399
129.0689	80
131.0502	29
139.0524	17
141.0694	119
147.0816	21
151.0558	38
152.0614	144
153.0691	68
164.0616	25
165.0708	182
178.0797	38
189.0668	25
