Mass spectrum: Amlodipine; LC-ESI-QTOF; MS2; 110 V
Name: Amlodipine
Class: Pharmaceutical
Formula: C20H25ClN2O5
Exact mass: 408.1452
SMILES: CCOC(=O)C1=C(COCCN)NC(=C(C1c2ccccc2Cl)C(=O)OC)C
InChI: InChI=1S/C20H25ClN2O5/c1-4-28-20(25)18-15(11-27-10-9-22)23-12(2)16(19(24)26-3)17(18)13-7-5-6-8-14(13)21/h5-8,17,23H,4,9-11,22H2,1-3H3
Instrument: TripleTOF 5600 SCIEX
Instrument type: LC-ESI-QTOF
Ms type: MS2
Ion mode: POSITIVE
Collision energy: 110
Fragmentation mode: CID
Ionization: ESI
Column name: Zorbax Eclipse Plus C18 2.1 mm x 150 mm, 3.5 um, Agilent
Retention time: 8.432 min
Precursor m/z: 409.1525
Precursor type: [M+H]+
m/z	relative intensity
42.0426	71
44.0589	240
65.0439	154
67.0223	35
72.0478	17
74.018	86
75.0263	434
76.0341	28
77.0422	190
78.0473	28
80.0534	21
88.0326	53
89.0408	140
91.0419	25
91.0558	17
92.0513	129
93.0573	35
94.0676	32
98.0187	14
99	68
99.0269	17
101.04	639
102.0477	582
103.0544	21
104.0518	17
111.0001	118
111.0207	17
113.0385	143
114.047	477
114.0684	14
115.0549	999
116.062	226
117.0576	28
120.0457	104
123.0004	25
125.017	125
125.039	32
126.0475	161
127.0545	474
128.0628	560
129.0452	39
129.0554	14
129.0709	32
136.0405	50
137.0162	89
137.0408	25
138.0462	50
138.997	50
139.0104	21
139.0546	409
139.0764	21
140.0522	247
141.0697	204
142.066	89
143.073	150
148.0418	68
149.0155	600
150.0481	86
151.0549	373
152.0631	833
153.0701	291
154.0653	201
155.0522	35
155.0711	28
156.0567	25
156.0809	39
161.0164	28
162.0228	17
163.055	50
164.0254	14
164.0536	35
164.067	28
165.0705	43
166.0658	229
167.0735	362
168.0536	21
168.0808	165
169.0668	39
169.0854	21
169.1012	14
170.0628	17
173.0173	61
175.0298	28
177.0562	43
178.0653	229
179.0737	150
180.0812	355
181.0661	21
181.0882	50
182.06	53
188.0242	25
189.0108	17
190.0419	17
190.0642	14
193.087	25
194.0616	21
195.0685	32
196.0772	165
197.091	25
198.0947	21
201.0359	25
202.0439	21
203.0519	17
204.0576	35
206.0608	25
207.0695	17
208.0758	21
214.042	35
224.0728	21
230.0351	21
