Mass spectrum: 2-Dimethylaminoguanosine; LC-ESI-QTOF; MS2; 110 V
Name: 2-Dimethylaminoguanosine
Class: Pharmaceutical
Formula: C12H17N5O5
Exact mass: 311.123
InChI: InChI=1S/C12H17N5O5/c1-16(2)12-14-9-6(10(21)15-12)13-4-17(9)11-8(20)7(19)5(3-18)22-11/h4-5,7-8,11,18-20H,3H2,1-2H3,(H,14,15,21)/t5-,7-,8-,11-/m1/s1
Instrument: TripleTOF 5600 SCIEX
Instrument type: LC-ESI-QTOF
Ms type: CID
Ion mode: POSITIVE
Collision energy: 110
Ionization: ESI
Column name: Zorbax Eclipse Plus C18 2.1 mm x 150 mm, 3.5 um, Agilent
Retention time: 4.565 min
Precursor m/z: 312.1302
Precursor type: [M+H]+
m/z	relative intensity
55.0331	999
71.0656	862
80.0271	227
82.0412	544
93.0076	227
110.0336	544
122.0591	454
135.0315	317
