Mass spectrum: Procarbazine; LC-ESI-QTOF; MS2; 60 V
Name: Procarbazine
Class: Pharmaceutical
Formula: C12H19N3O
Exact mass: 221.1528
SMILES: CC(C)NC(=O)c1ccc(cc1)CNNC
InChI: InChI=1S/C12H19N3O/c1-9(2)15-12(16)11-6-4-10(5-7-11)8-14-13-3/h4-7,9,13-14H,8H2,1-3H3,(H,15,16)
Instrument: TripleTOF 5600 SCIEX
Instrument type: LC-ESI-QTOF
Ms type: MS2
Ion mode: POSITIVE
Collision energy: 60
Fragmentation mode: CID
Ionization: ESI
Column name: Zorbax Eclipse Plus C18 2.1 mm x 150 mm, 3.5 um, Agilent
Retention time: 4.911 min
Precursor m/z: 222.1601
Precursor type: [M+H]+
m/z	relative intensity
44.0206	49
51.0282	49
65.0415	260
74.0199	49
75.0265	422
75.0517	49
76.0334	91
77.0412	780
77.065	42
78.0461	98
79.0568	225
80.0603	42
89.0394	436
90.0478	999
90.0801	42
91.0554	647
91.0742	77
92.0594	56
103.0174	182
104.0486	232
104.0697	42
105.0577	351
106.0641	436
107.0495	42
116.0611	35
118.0392	119
119.0497	35
131.0591	28
143.0709	42
149.0701	49
