Mass spectrum: Amidate; LC-ESI-QTOF; MS2; 10 V
Name: Amidate
Class: Pharmaceutical
Formula: C14H16N2O2
Exact mass: 244.1212
SMILES: CCOC(=O)C1=CN=CN1C(C)C2=CC=CC=C2
InChI: InChI=1S/C14H16N2O2/c1-3-18-14(17)13-9-15-10-16(13)11(2)12-7-5-4-6-8-12/h4-11H,3H2,1-2H3
Instrument: TripleTOF 6600 SCIEX
Instrument type: LC-ESI-QTOF
Ms type: MS2
Ion mode: POSITIVE
Collision energy: 10
Fragmentation mode: CID
Ionization: ESI
Column name: Zorbax Eclipse Plus C18 2.1 mm x 150 mm, 3.5 um, Agilent
Retention time: 8.832 min
Precursor m/z: 245.1285
Precursor type: [M+H]+
m/z	relative intensity
95.0241	23
105.07	14
141.0717	999
