Mass spectrum: Inabenfide; LC-ESI-QTOF; MS2; 60 V
Name: Inabenfide
Formula: C19H15ClN2O2
Exact mass: 338.0822
SMILES: C1=CC=C(C=C1)C(C2=C(C=CC(=C2)Cl)NC(=O)C3=CC=NC=C3)O
InChI: InChI=1S/C19H15ClN2O2/c20-15-6-7-17(22-19(24)14-8-10-21-11-9-14)16(12-15)18(23)13-4-2-1-3-5-13/h1-12,18,23H,(H,22,24)
Instrument: TripleTOF 6600 SCIEX
Instrument type: LC-ESI-QTOF
Ms type: MS2
Ion mode: NEGATIVE
Collision energy: 60
Fragmentation mode: CID
Ionization: ESI
Column name: Zorbax Eclipse Plus C18 2.1 mm x 150 mm, 3.5 um, Agilent
Retention time: 10.231 min
Precursor m/z: 337.0749
Precursor type: [M-H]-
m/z	relative intensity
34.9677	22
41.9966	29
78.0325	999
116.0106	13
122.0216	31
151.9875	21
