Mass spectrum: Prochloraz; LC-ESI-QTOF; MS2; 40 V
Name: Prochloraz
Class: Fungicide
Formula: C15H16Cl3N3O2
Exact mass: 375.0308
SMILES: CCCN(CCOc1c(cc(cc1Cl)Cl)Cl)C(=O)n2ccnc2
InChI: InChI=1S/C15H16Cl3N3O2/c1-2-4-20(15(22)21-5-3-19-10-21)6-7-23-14-12(17)8-11(16)9-13(14)18/h3,5,8-10H,2,4,6-7H2,1H3
Instrument: TripleTOF 6600 SCIEX
Instrument type: LC-ESI-QTOF
Ms type: MS2
Ion mode: POSITIVE
Collision energy: 40
Fragmentation mode: CID
Ionization: ESI
Column name: Zorbax Eclipse Plus C18 2.1 mm x 150 mm, 3.5 um, Agilent
Retention time: 11.258 min
Precursor m/z: 376.0381
Precursor type: [M+H]+
m/z	relative intensity
39.0225	20
41.0387	100
42.0342	91
43.0545	241
44.0495	10
56.0492	158
57.058	41
70.0291	999
70.0462	58
70.0648	427
72.044	16
85.0884	164
98.0595	50
106.0427	12
113.0837	31
122.9993	10
132.9599	29
138.0102	16
158.9772	60
159.9854	20
160.9556	25
161.963	62
166.0062	33
166.9207	89
167.013	41
173.9867	45
174.9723	77
179.9297	45
180.0217	18
186.9713	27
187.9798	39
194.9163	275
194.9513	37
196.9315	116
201.9821	120
202.9911	18
206.9267	16
209.0596	25
215.9986	18
222.9482	202
237.9578	47
244.0291	70
245.0362	52
265.9542	168
280.0064	81
308.0005	329
