Mass spectrum: 2-Morpholin-4-yl-benzothiazole; LC-ESI-QTOF; MS2; 120 V
Name: 2-Morpholin-4-yl-benzothiazole
Class: Industrial_process
Formula: C11H12N2OS
Exact mass: 220.067
SMILES: c1ccc2c(c1)nc(s2)N3CCOCC3
InChI: InChI=1S/C11H12N2OS/c1-2-4-10-9(3-1)12-11(15-10)13-5-7-14-8-6-13/h1-4H,5-8H2
Instrument: TripleTOF 5600 SCIEX
Instrument type: LC-ESI-QTOF
Ms type: MS2
Ion mode: POSITIVE
Collision energy: 120
Fragmentation mode: CID
Ionization: ESI
Column name: Zorbax Eclipse Plus C18 2.1 mm x 150 mm, 3.5 um, Agilent
Retention time: 9.363 min
Precursor m/z: 221.0743
Precursor type: [M+H]+
m/z	relative intensity
51.0296	151
52.0293	16
53.0429	12
57.992	26
65.0428	177
67.9744	66
68.9834	999
69.0121	26
69.0306	16
69.9905	62
74.0186	38
75.0252	24
77.0401	72
80.0503	24
80.9811	22
81.9886	143
89.0393	58
90.0411	14
91.0447	16
92.98	95
94.9947	105
96.004	20
106.994	14
108.002	56
109.009	12
