Mass spectrum: 4'-O-Demethyl pantoprazole sulfide; LC-ESI-QTOF; MS2; 100 V
Name: 4'-O-Demethyl pantoprazole sulfide
Class: Pharmaceutical; Transformation_product-Metabolite
Formula: C15H13F2N3O3S
Exact mass: 353.0646
SMILES: COC1=C(NC=CC1=O)CSC2=NC3=C(N2)C=C(C=C3)OC(F)F
InChI: InChI=1S/C15H13F2N3O3S/c1-22-13-11(18-5-4-12(13)21)7-24-15-19-9-3-2-8(23-14(16)17)6-10(9)20-15/h2-6,14H,7H2,1H3,(H,18,21)(H,19,20)
Instrument: TripleTOF 6600 SCIEX
Instrument type: LC-ESI-QTOF
Ms type: MS2
Ion mode: POSITIVE
Collision energy: 100
Fragmentation mode: CID
Ionization: ESI
Column name: Zorbax Eclipse Plus C18 2.1 mm x 150 mm, 3.5 um, Agilent
Retention time: 7.57 min
Precursor m/z: 354.0719
Precursor type: [M+H]+
m/z	relative intensity
37.0061	48
38.0143	69
39.0225	386
40.0177	12
41.0255	70
41.0382	19
42.0331	206
43.0173	40
44.0121	23
51.0224	38
52.0172	42
53.0013	67
53.0378	999
54.0333	66
55.017	74
57.9866	11
62.0145	26
63.0218	299
64.0175	48
65.0371	96
66.0092	210
66.0331	103
66.0441	30
67.0169	320
67.0402	310
68.0119	109
68.0493	22
70.0278	87
70.9937	34
72.0008	13
78.0324	42
79.0403	29
80.0126	33
80.0483	410
81.0322	80
82.0282	11
82.0644	16
83.0346	67
86.0052	29
90.0325	109
91.0403	27
92.0477	128
93.0557	54
94.0277	205
95.0351	145
96.0428	156
98.0029	37
99.0132	56
106.0512	29
107.0578	65
108.0429	137
109.0522	23
110.0597	49
111.0301	34
117.0429	92
118.0512	108
120.0421	31
125.9995	299
126.052	12
127.0069	37
134.0464	19
135.0538	153
136.0376	214
137.0155	34
138.0523	19
140.015	16
141.0455	9
142.0494	18
155.0	12
159.0527	18
166.0173	18
