Mass spectrum: Pentoxifylline; LC-ESI-QTOF; MS2; 100 V
Name: Pentoxifylline
Class: Pharmaceutical
Formula: C13H18N4O3
Exact mass: 278.1379
SMILES: Cn1cnc2N(C)C(=O)N(CCCCC(C)=O)C(=O)c12
InChI: InChI=1S/C13H18N4O3/c1-9(18)6-4-5-7-17-12(19)10-11(14-8-15(10)2)16(3)13(17)20/h8H,4-7H2,1-3H3
Instrument: TripleTOF 5600 SCIEX
Instrument type: LC-ESI-QTOF
Ms type: MS2
Ion mode: POSITIVE
Collision energy: 100
Fragmentation mode: CID
Ionization: ESI
Column name: Zorbax Eclipse Plus C18 2.1 mm x 150 mm, 3.5 um, Agilent
Retention time: 6.772 min
Precursor m/z: 279.1452
Precursor type: [M+H]+
m/z	relative intensity
41.0338	30
42.0429	999
43.026	770
53.0191	465
53.0426	38
54.0276	38
54.051	30
56.0539	122
66.0258	45
67.0326	549
68.04	381
69.0483	91
69.9939	53
81.0483	91
82.0534	38
83.0633	106
94.0405	45
95.0495	38
110.0708	30
122.0575	61
123.0421	137
