Mass spectrum: Methacetin; LC-ESI-QTOF; MS2; 130 V
Name: Methacetin
Class: Pharmaceutical
Formula: C9H11NO2
Exact mass: 165.079
SMILES: COc1ccc(NC(C)=O)cc1
InChI: InChI=1S/C9H11NO2/c1-7(11)10-8-3-5-9(12-2)6-4-8/h3-6H,1-2H3,(H,10,11)
Instrument: TripleTOF 5600 SCIEX
Instrument type: LC-ESI-QTOF
Ms type: MS2
Ion mode: POSITIVE
Collision energy: 130
Fragmentation mode: CID
Ionization: ESI
Column name: Zorbax Eclipse Plus C18 2.1 mm x 150 mm, 3.5 um, Agilent
Retention time: 6.508 min
Precursor m/z: 166.0863
Precursor type: [M+H]+
m/z	relative intensity
40.0317	47
41.0371	81
42.0447	121
43.0289	999
44.023	89
52.0259	456
53.0106	75
54.0411	143
60.0054	292
62.0396	94
62.05	44
65.0416	100
66.0418	40
73.0109	62
74.0187	145
76.0208	36
80.0522	79
