Mass spectrum: Flumequin; LC-ESI-QTOF; MS2; 90 V
Name: Flumequin
Class: Pharmaceutical; Antimicrobial
Formula: C14H12FNO3
Exact mass: 261.0801
SMILES: CC1CCc2cc(F)cc3C(=O)C(=CN1c23)C(O)=O
InChI: InChI=1S/C14H12FNO3/c1-7-2-3-8-4-9(15)5-10-12(8)16(7)6-11(13(10)17)14(18)19/h4-7H,2-3H2,1H3,(H,18,19)
Instrument: TripleTOF 5600 SCIEX
Instrument type: LC-ESI-QTOF
Ms type: MS2
Ion mode: POSITIVE
Collision energy: 90
Fragmentation mode: CID
Ionization: ESI
Column name: Zorbax Eclipse Plus C18 2.1 mm x 150 mm, 3.5 um, Agilent
Retention time: 9.545 min
Precursor m/z: 262.0874
Precursor type: [M+H]+
m/z	relative intensity
51.0281	48
53.0076	63
57.0196	14
73.009	29
74.0184	109
75.0255	337
76.0212	65
81.017	14
83.0311	14
93.0151	65
93.0284	12
94.0217	21
95.0296	85
96.038	31
98.0155	439
99.023	999
99.0673	17
100.0188	642
101.0378	12
106.0214	12
107.0288	39
118.0211	21
119.0284	112
120.0226	29
120.0353	97
125.0369	29
125.051	12
126.0336	222
131.0294	41
132.0369	9
133.0455	41
145.0322	48
146.0404	78
147.0377	26
152.0491	21
154.0384	56
158.039	21
172.0542	31
