Mass spectrum: Albendazole; LC-ESI-QTOF; MS2; 80 V
Name: Albendazole
Class: Pharmaceutical
Formula: C12H15N3O2S
Exact mass: 265.0885
SMILES: CCCSc1ccc2nc(NC(=O)OC)[nH]c2c1
InChI: InChI=1S/C12H15N3O2S/c1-3-6-18-8-4-5-9-10(7-8)14-11(13-9)15-12(16)17-2/h4-5,7H,3,6H2,1-2H3,(H2,13,14,15,16)
Instrument: TripleTOF 5600 SCIEX
Instrument type: LC-ESI-QTOF
Ms type: MS2
Ion mode: NEGATIVE
Collision energy: 80
Fragmentation mode: CID
Ionization: ESI
Column name: Zorbax Eclipse Plus C18 2.1 mm x 150 mm, 3.5 um, Agilent
Retention time: 8.546 min
Precursor m/z: 264.0812
Precursor type: [M-H]-
m/z	relative intensity
57.9768	999
57.9885	117
57.9942	58
61.9898	117
65.0161	293
74.0065	176
76.0196	117
81.9752	528
89.0138	176
105.9762	176
106.9838	117
132.9881	235
133.9943	411
134.9996	117
135.0107	58
156.0193	176
159.9978	822
160.0134	58
161.0096	176
189.0041	117
