Mass spectrum: 2-Morpholin-4-yl-benzothiazole; LC-ESI-QTOF; MS2; 30 V
Name: 2-Morpholin-4-yl-benzothiazole
Class: Industrial_process
Formula: C11H12N2OS
Exact mass: 220.067
SMILES: c1ccc2c(c1)nc(s2)N3CCOCC3
InChI: InChI=1S/C11H12N2OS/c1-2-4-10-9(3-1)12-11(15-10)13-5-7-14-8-6-13/h1-4H,5-8H2
Instrument: TripleTOF 5600 SCIEX
Instrument type: LC-ESI-QTOF
Ms type: MS2
Ion mode: POSITIVE
Collision energy: 30
Fragmentation mode: CID
Ionization: ESI
Column name: Zorbax Eclipse Plus C18 2.1 mm x 150 mm, 3.5 um, Agilent
Retention time: 9.363 min
Precursor m/z: 221.0743
Precursor type: [M+H]+
m/z	relative intensity
109.0109	65
109.1011	10
117.0576	27
124.0208	15
136.0219	147
150.0375	220
175.0318	21
177.0483	570
203.0632	15
219.0564	10
221.0738	999
