Mass spectrum: Clopidogrel; LC-ESI-QTOF; MS2; 110 V
Name: Clopidogrel
Class: Pharmaceutical
Formula: C16H16ClNO2S
Exact mass: 321.059
SMILES: COC(=O)C(c1ccccc1Cl)N2CCc3c(ccs3)C2
InChI: InChI=1S/C16H16ClNO2S/c1-20-16(19)15(12-4-2-3-5-13(12)17)18-8-6-14-11(10-18)7-9-21-14/h2-5,7,9,15H,6,8,10H2,1H3
Instrument: TripleTOF 5600 SCIEX
Instrument type: LC-ESI-QTOF
Ms type: MS2
Ion mode: POSITIVE
Collision energy: 110
Fragmentation mode: CID
Ionization: ESI
Column name: Zorbax Eclipse Plus C18 2.1 mm x 150 mm, 3.5 um, Agilent
Retention time: 12.465 min
Precursor m/z: 322.0663
Precursor type: [M+H]+
m/z	relative intensity
45.0404	26
51.0295	304
65.043	288
72.9861	71
73.0092	23
74.0181	128
75.0263	366
76.0334	18
77.0421	719
84.9851	36
89.0407	512
90.0479	166
91.0557	328
96.9841	14
99.0008	228
105.0335	92
110.0192	13
111.0003	999
112.0072	108
117.0558	26
125.015	395
133.0275	57
138.9949	712
155.0262	16
