Mass spectrum: Valsartanic acid; LC-ESI-QTOF; MS2; 100 V
Name: Valsartanic acid
Class: Pharmaceutical; Transformation_product
Formula: C14H10N4O2
Exact mass: 266.0804
SMILES: O=C(O)C(C=C1)=CC=C1C2=CC=CC=C2C3=NN=NN3
InChI: InChI=1S/C14H10N4O2/c19-14(20)10-7-5-9(6-8-10)11-3-1-2-4-12(11)13-15-17-18-16-13/h1-8H,(H,19,20)(H,15,16,17,18)
Instrument: TripleTOF 5600 SCIEX
Instrument type: LC-ESI-QTOF
Ms type: MS2
Ion mode: POSITIVE
Collision energy: 100
Fragmentation mode: CID
Ionization: ESI
Column name: Zorbax Eclipse Plus C18 2.1 mm x 150 mm, 3.5 um, Agilent
Retention time: 8.027 min
Precursor m/z: 267.0877
Precursor type: [M+H]+
m/z	relative intensity
74.0174	110
75.0251	145
76.0323	54
77.0408	209
78.0488	13
86.0157	13
87.0244	22
89.0395	12
98.015	141
99.023	182
100.0295	37
101.0381	36
102.0457	32
110.0145	18
111.0227	22
113.0381	18
122.0143	51
123.022	51
124.0299	52
125.0378	131
126.0458	75
127.043	44
137.038	13
138.0394	10
139.0515	17
148.0311	9
149.0374	189
150.0462	999
151.0522	258
152.06	83
163.0522	12
164.0513	29
175.0407	81
176.0488	75
177.0564	102
