Mass spectrum: Epirubicin; LC-ESI-QTOF; MS2; 80 V
Name: Epirubicin
Class: Pharmaceutical
Formula: C27H29NO11
Exact mass: 543.1741
SMILES: CC1C(C(CC(O1)OC2CC(CC3=C(C4=C(C(=C23)O)C(=O)C5=C(C4=O)C=CC=C5OC)O)(C(=O)CO)O)N)O
InChI: InChI=1S/C27H29NO11/c1-10-22(31)13(28)6-17(38-10)39-15-8-27(36,16(30)9-29)7-12-19(15)26(35)21-20(24(12)33)23(32)11-4-3-5-14(37-2)18(11)25(21)34/h3-5,10,13,15,17,22,29,31,33,35-36H,6-9,28H2,1-2H3
Instrument: TripleTOF 5600 SCIEX
Instrument type: LC-ESI-QTOF
Ms type: MS2
Ion mode: POSITIVE
Collision energy: 80
Fragmentation mode: CID
Ionization: ESI
Column name: Zorbax Eclipse Plus C18 2.1 mm x 150 mm, 3.5 um, Agilent
Retention time: 7.492 min
Precursor m/z: 544.1813
Precursor type: [M+H]+
m/z	relative intensity
58.0678	35
60.0492	41
68.0539	29
69.0366	77
71.0538	23
72.0464	77
86.0614	323
95.0498	29
107.0499	47
112.0766	59
113.0605	59
121.0284	41
121.0654	53
130.0857	71
133.0276	23
135.0419	131
145.0267	59
170.0368	29
176.0655	23
184.013	41
186.0297	29
189.0676	29
202.0796	47
203.0865	35
204.0574	41
205.0663	41
206.0692	35
217.0634	71
218.0767	53
219.0773	41
231.076	53
231.0873	47
232.0536	77
233.0638	29
234.069	59
244.0536	29
245.0666	23
246.0665	35
247.0766	161
249.057	29
250.0614	29
257.0625	23
259.0755	89
260.0489	47
261.0561	65
262.0614	113
272.0454	59
273.0524	59
273.0665	29
274.0647	23
275.0696	83
277.0471	53
278.0573	89
279.0633	29
287.0722	119
289.0494	221
290.059	221
291.0656	29
293.0764	41
301.0505	41
302.0576	35
303.0631	47
305.0444	41
305.0858	113
306.0541	777
307.0615	53
308.0708	47
315.0659	35
317.0515	29
318.0545	107
319.0621	41
321.0802	101
329.0446	173
332.0659	23
333.076	47
345.04	107
346.0498	999
