Mass spectrum: Gemfibrozil; LC-ESI-QTOF; MS2; 20 V
Name: Gemfibrozil
Class: Pharmaceutical
Formula: C15H22O3
Exact mass: 250.1569
SMILES: CC1=CC(=C(C=C1)C)OCCCC(C)(C)C(=O)O
InChI: InChI=1S/C15H22O3/c1-11-6-7-12(2)13(10-11)18-9-5-8-15(3,4)14(16)17/h6-7,10H,5,8-9H2,1-4H3,(H,16,17)
Instrument: TripleTOF 6600 SCIEX
Instrument type: LC-ESI-QTOF
Ms type: MS2
Ion mode: POSITIVE
Collision energy: 20
Fragmentation mode: CID
Ionization: ESI
Column name: Zorbax Eclipse Plus C18 2.1 mm x 150 mm, 3.5 um, Agilent
Retention time: 13.701 min
Precursor m/z: 251.1642
Precursor type: [M+H]+
m/z	relative intensity
55.0519	170
57.0308	15
57.0679	51
59.0478	23
71.0461	31
73.0624	43
83.0832	824
101.0919	15
123.0776	202
129.0885	999
205.1567	27
