Mass spectrum: Nafcillin; LC-ESI-QTOF; MS2; 40 V
Name: Nafcillin
Class: Pharmaceutical
Formula: C21H22N2O5S
Exact mass: 414.1249
SMILES: CCOC1=C(C2=CC=CC=C2C=C1)C(=O)NC3C4N(C3=O)C(C(S4)(C)C)C(=O)O
InChI: InChI=1S/C21H22N2O5S/c1-4-28-13-10-9-11-7-5-6-8-12(11)14(13)17(24)22-15-18(25)23-16(20(26)27)21(2,3)29-19(15)23/h5-10,15-16,19H,4H2,1-3H3,(H,22,24)(H,26,27)
Instrument: TripleTOF 6600 SCIEX
Instrument type: LC-ESI-QTOF
Ms type: MS2
Ion mode: POSITIVE
Collision energy: 40
Fragmentation mode: CID
Ionization: ESI
Column name: Zorbax Eclipse Plus C18 2.1 mm x 150 mm, 3.5 um, Agilent
Retention time: 10.616 min
Precursor m/z: 415.1322
Precursor type: [M+H]+
m/z	relative intensity
115.053	27
143.0481	35
169.064	13
171.0438	999
181.064	163
182.0589	46
183.0674	13
199.0746	624
210.0785	31
211.0888	19
227.0562	15
228.0643	26
239.1167	29
256.0954	73
