Mass spectrum: Flufenacet ESA; LC-ESI-QTOF; MS2; 50 V
Name: Flufenacet ESA
Class: Herbicide; Transformation_product
Formula: C11H14FNO4S
Exact mass: 275.0628
SMILES: CC(C)N(C1=CC=C(C=C1)F)C(=O)CS(=O)(=O)O
InChI: InChI=1S/C11H14FNO4S/c1-8(2)13(11(14)7-18(15,16)17)10-5-3-9(12)4-6-10/h3-6,8H,7H2,1-2H3,(H,15,16,17)
Instrument: TripleTOF 6600 SCIEX
Instrument type: LC-ESI-QTOF
Ms type: MS2
Ion mode: POSITIVE
Collision energy: 50
Fragmentation mode: CID
Ionization: ESI
Column name: Zorbax Eclipse Plus C18 2.1 mm x 150 mm, 3.5 um, Agilent
Retention time: 6.781 min
Precursor m/z: 276.07
Precursor type: [M+H]+
m/z	relative intensity
41.0388	14
43.0542	13
59.0124	104
65.0385	38
74.0145	13
75.0225	31
77.0384	22
83.0289	16
92.0492	202
95.029	180
96.0365	29
97.0444	81
104.0487	9
108.0364	17
109.0444	157
110.0399	28
111.0473	56
112.0559	999
122.0395	11
123.0349	92
124.0556	371
134.0398	11
135.048	456
136.056	18
152.0497	21
