Mass spectrum: Linezolid; LC-ESI-QTOF; MS2; 50 V
Name: Linezolid
Class: Pharmaceutical
Formula: C16H20FN3O4
Exact mass: 337.1438
SMILES: CC(=O)NCC1CN(C(=O)O1)C2=CC(=C(C=C2)N3CCOCC3)F
InChI: InChI=1S/C16H20FN3O4/c1-11(21)18-9-13-10-20(16(22)24-13)12-2-3-15(14(17)8-12)19-4-6-23-7-5-19/h2-3,8,13H,4-7,9-10H2,1H3,(H,18,21)
Instrument: TripleTOF 5600 SCIEX
Instrument type: LC-ESI-QTOF
Ms type: MS2
Ion mode: POSITIVE
Collision energy: 50
Fragmentation mode: CID
Ionization: ESI
Column name: Zorbax Eclipse Plus C18 2.1 mm x 150 mm, 3.5 um, Agilent
Retention time: 6.936 min
Precursor m/z: 338.1511
Precursor type: [M+H]+
m/z	relative intensity
43.0187	17
44.05	11
45.0334	11
56.0499	239
72.0431	11
84.0469	17
85.0526	13
89.0382	11
91.0555	17
103.0548	17
104.0493	17
109.045	67
110.0493	38
111.0491	40
112.0554	11
115.0546	71
116.0497	71
117.0566	55
118.0657	35
122.0395	82
123.0485	53
124.0563	105
125.0522	67
126.0653	26
128.0508	26
129.0557	13
130.0654	60
131.0615	51
132.0673	11
132.0797	11
133.0755	31
134.0414	49
135.0487	416
136.0559	232
137.0625	284
138.0583	47
138.0715	55
139.0673	76
140.0734	11
141.059	11
142.0663	98
143.0617	64
144.081	40
145.0747	24
146.0413	55
147.0479	31
147.091	17
148.0566	999
149.059	394
150.0713	185
151.0671	295
152.0514	15
152.0749	134
153.0576	15
153.0828	163
154.0665	33
155.0599	26
156.07	78
157.0773	42
158.0847	11
159.0936	31
160.0547	15
160.0696	11
161.0622	73
162.0722	309
163.0677	472
164.0751	62
165.0837	389
166.0927	15
167.0966	33
168.0697	20
168.0838	17
169.0771	306
170.0839	33
171.0944	71
172.0573	78
173.066	20
174.0594	398
175.0689	76
176.0764	76
177.0482	22
177.0834	228
178.0914	31
179.062	55
179.0986	98
180.0832	47
181.0884	141
182.0877	20
183.0944	17
185.1115	42
186.0954	11
187.0673	98
188.0751	33
189.0839	246
189.1111	11
190.0945	105
191.0989	383
192.0769	17
192.1081	15
194.0876	17
195.0929	297
196.1008	94
197.0747	42
197.1065	47
201.0805	20
203.1002	15
205.1134	17
207.0955	17
208.1167	11
209.1096	134
215.1202	62
217.1138	42
221.106	11
221.1168	11
222.1248	15
223.0955	13
223.1255	11
235.1239	94
238.0992	22
241.0972	38
251.1136	26
252.1149	62
278.1342	24
296.1367	33
