Mass spectrum: Desmethylranitidine; LC-ESI-QTOF; MS2; 50 V
Name: Desmethylranitidine
Class: Pharmaceutical; Transformation_product; Transformation_product-Metabolite
Formula: C12H20N4O3S
Exact mass: 300.1256
SMILES: CNCC1=CC=C(O1)CSCCNC(=C[N+](=O)[O-])NC
InChI: InChI=1S/C12H20N4O3S/c1-13-7-10-3-4-11(19-10)9-20-6-5-15-12(14-2)8-16(17)18/h3-4,8,13-15H,5-7,9H2,1-2H3
Instrument: TripleTOF 5600 SCIEX
Instrument type: LC-ESI-QTOF
Ms type: MS2
Ion mode: POSITIVE
Collision energy: 50
Fragmentation mode: CID
Ionization: ESI
Column name: Zorbax Eclipse Plus C18 2.1 mm x 150 mm, 3.5 um, Agilent
Retention time: 4.769 min
Precursor m/z: 301.1329
Precursor type: [M+H]+
m/z	relative intensity
42.0423	15
53.0453	19
55.0465	17
56.0556	28
60.0094	11
67.0583	13
68.0542	34
69.0619	11
71.0666	22
77.0404	32
78.049	11
79.0577	20
80.0524	34
81.036	603
83.0609	104
84.0689	43
85.043	11
88.0248	26
91.054	24
93.0567	9
94.0651	60
95.0494	32
95.059	13
96.0821	58
97.0103	19
97.077	382
98.0845	157
101.0292	20
102.0374	999
104.0497	28
106.0652	22
107.0492	188
108.0547	13
108.0781	19
110.0611	22
110.0769	13
114.0383	11
115.0307	26
117.052	41
118.0345	17
118.0666	41
120.0786	43
121.0764	125
122.0591	17
122.0869	13
124.0752	58
125.0049	627
129.0464	49
130.0553	348
131.0244	11
131.0636	32
132.0427	112
132.0794	11
133.0512	91
133.0725	22
134.058	20
134.0822	11
135.0249	24
135.0909	148
136.0784	11
137.1066	17
139.0291	13
140.0536	15
144.0726	13
145.0782	15
146.0585	17
147.0665	19
147.0891	19
148.0753	213
149.0697	39
150.0337	19
151.0196	39
153.0483	15
159.048	15
160.0717	17
163.0845	70
164.094	11
165.0999	41
167.0638	38
176.0493	34
176.0923	11
177.1016	104
178.0293	49
181.0785	15
191.1135	22
191.1264	11
192.0461	39
194.0614	11
