Mass spectrum: Tetraoctylphosphonium; LC-ESI-QTOF; MS2; 130 V
Name: Tetraoctylphosphonium
Class: Industrial_process
Formula: [C32H68P]+
Exact mass: 483.5053
SMILES: CCCCCCCC[P+](CCCCCCCC)(CCCCCCCC)CCCCCCCC
InChI: InChI=1S/C32H68P/c1-5-9-13-17-21-25-29-33(30-26-22-18-14-10-6-2,31-27-23-19-15-11-7-3)32-28-24-20-16-12-8-4/h5-32H2,1-4H3/q+1
Instrument: TripleTOF 5600 SCIEX
Instrument type: LC-ESI-QTOF
Ms type: MS2
Ion mode: POSITIVE
Collision energy: 130
Fragmentation mode: CID
Ionization: ESI
Column name: Zorbax Eclipse Plus C18 2.1 mm x 150 mm, 3.5 um, Agilent
Retention time: 16.405 min
Precursor m/z: 483.5053
Precursor type: [M]+
m/z	relative intensity
39.0233	182
41.0389	341
43.0545	141
43.9809	150
44.9889	257
45.9971	382
47.0046	153
48.0127	159
55.0542	217
56.9887	341
57.0684	57
59.0043	466
61.0199	883
62.0277	842
69.069	89
71.003	66
73.0193	214
74.0272	98
75.035	778
76.0428	999
85.0184	57
87.0337	55
88.0426	104
89.0498	306
90.0575	220
101.0499	182
102.0577	81
103.0658	220
115.0659	231
117.0814	147
129.0814	127
131.0971	156
143.0977	104
145.1133	118
157.1123	52
159.1289	60
187.1631	52
