Mass spectrum: Codeine; LC-ESI-QTOF; MS2; 40 V
Name: Codeine
Formula: C18H21NO3
Exact mass: 299.1521
SMILES: CN1CCC23C4C1CC5=C2C(=C(C=C5)OC)OC3C(C=C4)O
InChI: InChI=1S/C18H21NO3/c1-19-8-7-18-11-4-5-13(20)17(18)22-16-14(21-2)6-3-10(15(16)18)9-12(11)19/h3-6,11-13,17,20H,7-9H2,1-2H3
Instrument: TripleTOF 6600 SCIEX
Instrument type: LC-ESI-QTOF
Ms type: MS2
Ion mode: POSITIVE
Collision energy: 40
Fragmentation mode: CID
Ionization: ESI
Column name: Zorbax Eclipse Plus C18 2.1 mm x 150 mm, 3.5 um, Agilent
Retention time: 5.043 min
Precursor m/z: 300.1594
Precursor type: [M+H]+
m/z	relative intensity
44.0489	53
58.0641	70
77.037	13
91.053	18
115.0532	34
121.0632	28
127.0521	15
128.0604	34
129.069	27
131.047	11
137.0583	68
141.0684	65
143.0481	13
144.0561	76
145.0631	14
152.0605	35
153.0682	160
154.0765	27
155.0502	17
155.0841	174
156.0558	39
157.0629	26
158.0709	46
159.0788	97
160.0746	14
161.0584	166
164.067	14
165.069	358
166.0763	37
167.0832	36
168.055	73
169.063	33
170.0721	26
171.0466	11
171.0784	181
172.0513	29
172.0865	49
173.096	17
174.066	31
175.0746	61
177.0738	29
178.0775	33
179.0854	54
180.0976	16
181.0634	238
181.0962	22
182.0712	85
183.0424	12
183.079	317
184.0514	25
184.0864	23
185.0599	82
185.0945	28
186.0662	46
187.0751	145
187.1097	55
189.0732	15
190.078	23
191.0844	79
192.0995	31
193.0644	165
193.0998	17
194.0712	128
195.0795	54
197.058	33
197.0936	58
198.066	95
199.0744	468
200.0834	76
201.089	67
202.0785	15
203.0858	14
205.0646	15
207.0783	38
208.0871	27
209.0591	101
209.0934	38
210.0679	82
211.0744	80
212.0823	64
213.0896	121
214.0921	21
215.1062	479
218.0728	11
219.0792	36
220.0868	30
221.0587	26
221.0945	41
223.0742	117
224.0806	25
225.0901	329
226.0993	14
227.0671	11
228.0776	11
228.0976	12
235.0779	11
236.0843	40
237.0884	23
238.0975	22
239.1045	21
241.0856	174
241.1193	14
243.1003	198
248.1074	12
250.1244	33
251.106	52
252.1027	27
253.1222	21
266.1181	98
267.1237	57
282.1491	93
300.16	999
