Mass spectrum: Hexazinone; LC-ESI-QTOF; MS2; 50 V
Name: Hexazinone
Class: Herbicide
Formula: C12H20N4O2
Exact mass: 252.1586
SMILES: CN1C(=NC(=O)N(C1=O)C2CCCCC2)N(C)C
InChI: InChI=1S/C12H20N4O2/c1-14(2)10-13-11(17)16(12(18)15(10)3)9-7-5-4-6-8-9/h9H,4-8H2,1-3H3
Instrument: TripleTOF 6600 SCIEX
Instrument type: LC-ESI-QTOF
Ms type: MS2
Ion mode: POSITIVE
Collision energy: 50
Fragmentation mode: CID
Ionization: ESI
Column name: Zorbax Eclipse Plus C18 2.1 mm x 150 mm, 3.5 um, Agilent
Retention time: 8.427 min
Precursor m/z: 253.1659
Precursor type: [M+H]+
m/z	relative intensity
42.0337	13
44.0492	17
46.0647	10
55.0293	9
55.0537	38
56.0368	13
58.0288	15
58.0648	31
69.0077	17
69.0439	40
69.9916	17
70.0523	22
71.0601	999
72.0437	30
83.0235	94
85.0759	576
101.0335	38
114.0657	31
171.0873	60
