Mass spectrum: Estradiol; LC-ESI-QTOF; MS2; 40 V
Name: Estradiol
Class: Pharmaceutical
Formula: C18H24O2
Exact mass: 272.1776
SMILES: CC12CCC3C(C1CCC2O)CCC4=C3C=CC(=C4)O
InChI: InChI=1S/C18H24O2/c1-18-9-8-14-13-5-3-12(19)10-11(13)2-4-15(14)16(18)6-7-17(18)20/h3,5,10,14-17,19-20H,2,4,6-9H2,1H3
Instrument: TripleTOF 5600 SCIEX
Instrument type: LC-ESI-QTOF
Ms type: MS2
Ion mode: POSITIVE
Collision energy: 40
Fragmentation mode: CID
Ionization: ESI
Column name: Zorbax Eclipse Plus C18 2.1 mm x 150 mm, 3.5 um, Agilent
Retention time: 10.403 min
Precursor m/z: 273.1849
Precursor type: [M+H]+
m/z	relative intensity
55.0537	10
67.0541	55
69.0699	10
77.0386	82
79.0542	111
81.0699	66
91.0544	56
93.0701	111
95.0857	50
105.07	70
107.0493	999
107.0842	63
109.1015	50
115.0537	11
117.0692	11
119.0846	31
121.0643	35
121.1014	16
127.0548	12
129.0693	10
131.0492	14
131.0859	37
133.0647	117
133.1016	13
135.1173	132
141.0711	32
144.0574	18
145.0642	65
147.0794	22
147.117	36
149.1335	13
157.0652	41
158.0706	12
159.0806	138
161.0963	10
171.0812	10
173.0965	27
185.096	23
