Mass spectrum: N,N-Dimethyldecanamide; LC-ESI-QTOF; MS2; 40 V
Name: N,N-Dimethyldecanamide
Class: Industrial_process
Formula: C12H25NO
Exact mass: 199.1936
SMILES: CCCCCCCCCC(=O)N(C)C
InChI: InChI=1S/C12H25NO/c1-4-5-6-7-8-9-10-11-12(14)13(2)3/h4-11H2,1-3H3
Instrument: TripleTOF 6600 SCIEX
Instrument type: LC-ESI-QTOF
Ms type: MS2
Ion mode: POSITIVE
Collision energy: 40
Fragmentation mode: CID
Ionization: ESI
Column name: Zorbax Eclipse Plus C18 2.1 mm x 150 mm, 3.5 um, Agilent
Retention time: 13.577 min
Precursor m/z: 200.2009
Precursor type: [M+H]+
m/z	relative intensity
30.0335	11
39.0226	126
41.0384	582
43.054	890
44.0491	149
45.0567	92
46.0649	999
55.017	18
55.0533	58
57.0332	22
57.0693	471
67.0533	25
69.069	31
71.0842	49
72.0439	745
81.0688	26
85.1002	16
87.0668	69
95.084	23
100.0746	193
102.0905	84
116.106	93
130.1215	24
200.2007	95
