Mass spectrum: Sertraline; LC-ESI-QTOF; MS2; 110 V
Name: Sertraline
Class: Pharmaceutical
Formula: C17H17Cl2N
Exact mass: 305.0738
SMILES: CN[C@H]1CC[C@H](c2c1cccc2)c3ccc(c(c3)Cl)Cl
InChI: InChI=1S/C17H17Cl2N/c1-20-17-9-7-12(13-4-2-3-5-14(13)17)11-6-8-15(18)16(19)10-11/h2-6,8,10,12,17,20H,7,9H2,1H3/t12-,17-/m0/s1
Instrument: TripleTOF 5600 SCIEX
Instrument type: LC-ESI-QTOF
Ms type: MS2
Ion mode: POSITIVE
Collision energy: 110
Fragmentation mode: CID
Ionization: ESI
Column name: Zorbax Eclipse Plus C18 2.1 mm x 150 mm, 3.5 um, Agilent
Retention time: 8.925 min
Precursor m/z: 306.0811
Precursor type: [M+H]+
m/z	relative intensity
51.0282	17
65.0425	34
72.9883	498
74.0183	14
75.0264	29
76.034	20
77.0417	121
78.0485	46
82.9476	49
86.0178	16
87.0254	35
88.0324	90
89.0416	999
91.0558	26
96.9852	165
99.0009	137
101.0396	18
102.047	99
106.9451	23
115.0551	56
123	295
124.0077	69
126.0465	66
127.0546	183
128.0626	442
129.0711	14
132.961	99
150.047	20
151.054	14
158.9765	32
163.0547	42
165.0694	10
175.0555	10
176.062	40
187.0559	29
188.0618	25
189.0699	82
200.0635	30
201.0699	29
202.0783	104
203.0853	14
