Mass spectrum: Pantoprazole sulfide; LC-ESI-QTOF; MS2; 40 V
Name: Pantoprazole sulfide
Class: Pharmaceutical; Metabolite; Transformation_product-Metabolite
Formula: C16H15F2N3O3S
Exact mass: 367.0802
SMILES: COC1=C(C(=NC=C1)CSC2=NC3=C(N2)C=CC(=C3)OC(F)F)OC
InChI: InChI=1S/C16H15F2N3O3S/c1-22-13-5-6-19-12(14(13)23-2)8-25-16-20-10-4-3-9(24-15(17)18)7-11(10)21-16/h3-7,15H,8H2,1-2H3,(H,20,21)
Instrument: TripleTOF 5600 SCIEX
Instrument type: LC-ESI-QTOF
Ms type: MS2
Ion mode: POSITIVE
Collision energy: 40
Fragmentation mode: CID
Ionization: ESI
Column name: Zorbax Eclipse Plus C18 2.1 mm x 150 mm, 3.5 um, Agilent
Retention time: 7.575 min
Precursor m/z: 368.0875
Precursor type: [M+H]+
m/z	relative intensity
65.0433	69
92.0521	999
94.0655	27
122.0607	414
136.0394	14
137.0468	37
138.0551	107
150.0554	12
151.0079	12
152.0711	364
154.0318	66
184.0431	493
185.0518	102
316.0872	16
320.084	66
334.0999	11
335.1078	19
368.0885	12
