Mass spectrum: Losartan; LC-ESI-QTOF; MS2; 150 V
Name: Losartan
Class: Pharmaceutical
Formula: C22H23ClN6O
Exact mass: 422.1622
SMILES: CCCCc1nc(c(n1Cc2ccc(cc2)c3ccccc3c4n[nH]nn4)CO)Cl
InChI: InChI=1S/C22H23ClN6O/c1-2-3-8-20-24-21(23)19(14-30)29(20)13-15-9-11-16(12-10-15)17-6-4-5-7-18(17)22-25-27-28-26-22/h4-7,9-12,30H,2-3,8,13-14H2,1H3,(H,25,26,27,28)
Instrument: TripleTOF 5600 SCIEX
Instrument type: LC-ESI-QTOF
Ms type: MS2
Ion mode: POSITIVE
Collision energy: 150
Fragmentation mode: CID
Ionization: ESI
Column name: Zorbax Eclipse Plus C18 2.1 mm x 150 mm, 3.5 um, Agilent
Retention time: 9.819 min
Precursor m/z: 423.1695
Precursor type: [M+H]+
m/z	relative intensity
65.0433	36
74.0177	113
75.0252	172
76.0328	45
77.0416	295
78.0362	12
78.0487	33
80.0512	15
86.0172	50
87.0245	104
88.0192	13
88.0312	31
89.0401	183
90.0471	15
98.016	68
99.0234	92
100.031	26
101.0387	103
102.0338	22
102.0461	85
110.015	26
111.0222	41
112.0273	13
113.0386	193
114.0323	61
114.0449	45
115.0541	228
122.0155	13
123.0217	29
124.0301	26
125.0383	136
126.0459	316
127.0399	15
127.0536	110
128.0551	73
137.0393	160
138.0336	33
138.0449	68
139.0533	298
140.0493	199
149.0381	89
150.0463	890
151.0545	999
152.0614	581
153.0562	68
161.0372	69
162.0461	146
163.0541	581
164.0549	490
165.0457	24
165.0687	181
166.0649	10
175.0446	57
176.0555	117
177.057	337
178.0643	164
179.0688	31
180.0594	12
187.0434	19
188.0486	148
189.0569	48
190.0639	76
191.0584	17
203.0587	22
204.065	17
205.0761	38
212.047	17
