Mass spectrum: 5-(3,4,5-Trimethoxybenzoyl)-2,4-pyrimidinediamine; LC-ESI-QTOF; MS2; 90 V
Name: 5-(3,4,5-Trimethoxybenzoyl)-2,4-pyrimidinediamine
Class: Pharmaceutical; Transformation_product; Transformation_product-Metabolite
Formula: C14H16N4O4
Exact mass: 304.1172
SMILES: COc1cc(cc(c1OC)OC)C(=O)c2cnc(nc2N)N
InChI: InChI=1S/C14H16N4O4/c1-20-9-4-7(5-10(21-2)12(9)22-3)11(19)8-6-17-14(16)18-13(8)15/h4-6H,1-3H3,(H4,15,16,17,18)
Instrument: TripleTOF 5600 SCIEX
Instrument type: LC-ESI-QTOF
Ms type: MS2
Ion mode: POSITIVE
Collision energy: 90
Fragmentation mode: CID
Ionization: ESI
Column name: Zorbax Eclipse Plus C18 2.1 mm x 150 mm, 3.5 um, Agilent
Retention time: 5.86 min
Precursor m/z: 305.1244
Precursor type: [M+H]+
m/z	relative intensity
40.0279	46
41.0359	62
43.0372	46
52.0251	56
53.0088	42
65.0176	49
65.0431	204
66.0225	39
66.0426	56
67.0199	26
67.0318	69
68.0181	999
68.0387	98
69.0037	46
69.0488	32
70.0325	75
74.0188	19
75.0247	56
76.031	26
77.026	19
77.0406	323
78.041	151
79.0213	32
79.0444	72
80.0285	29
80.0519	164
81.0362	85
82.0444	13
83.0493	92
88.0186	16
88.0282	16
89.0398	128
90.0349	131
91.0419	16
91.053	29
92.0251	145
92.0484	42
93.0084	19
93.0381	72
93.0588	26
94.0059	29
94.0397	39
95.0244	362
95.0449	16
99.0231	16
100.0193	19
101.0355	52
102.0346	102
103.0365	98
104.0341	36
104.0472	98
105.0443	168
106.0518	161
107.0123	52
107.0464	19
107.0586	105
108.0194	42
108.0351	16
108.0523	19
109.0282	42
109.0504	95
110.0574	168
111.0665	16
114.0332	141
115.0393	19
115.0474	13
116.0477	164
117.0234	16
117.0427	79
118.0335	52
118.052	16
118.0647	19
119.0599	59
120.0194	59
120.0538	65
121.0308	98
121.0619	26
122.0349	29
126.0336	32
127.0281	16
127.037	23
128.0487	75
129.0415	154
130.0427	115
131.031	19
131.0567	105
132.0457	39
132.0634	13
133.0449	52
134.043	16
134.0552	36
135.0605	23
136.0147	26
137.0212	32
137.0426	36
141.0464	102
142.0471	56
143.0356	13
143.0583	62
144.0521	102
145.0376	19
146.0236	36
147.0659	257
148.0703	19
149.0229	16
150.0504	13
151.0374	19
153.0441	32
154.0426	46
155.0565	39
156.0531	32
157.0403	39
158.0455	59
158.0674	26
159.0571	23
159.0684	32
160.0473	39
161.0804	49
162.0691	16
163.0572	36
168.0547	49
169.0426	19
170.0344	13
170.0695	23
171.0653	128
172.0536	23
172.0719	29
173.0622	16
173.0803	26
174.0589	16
175.0617	42
176.0705	23
183.0539	13
184.0498	36
184.0693	16
185.0789	36
186.0393	13
187.0609	46
189.0772	92
196.0515	23
200.069	95
201.0758	49
203.0469	13
213.0802	26
217.0722	42
245.0655	13
