Mass spectrum: Didesmethyl-citalopram; LC-ESI-QTOF; MS2; 150 V
Name: Didesmethyl-citalopram
Class: Pharmaceutical; Metabolite
Formula: C18H17FN2O
Exact mass: 296.1325
SMILES: c1cc(ccc1C2(c3ccc(cc3CO2)C#N)CCCN)F
InChI: InChI=1S/C18H17FN2O/c19-16-5-3-15(4-6-16)18(8-1-9-20)17-7-2-13(11-21)10-14(17)12-22-18/h2-7,10H,1,8-9,12,20H2
Instrument: TripleTOF 5600 SCIEX
Instrument type: LC-ESI-QTOF
Ms type: MS2
Ion mode: POSITIVE
Collision energy: 150
Fragmentation mode: CID
Ionization: ESI
Column name: Zorbax Eclipse Plus C18 2.1 mm x 150 mm, 3.5 um, Agilent
Retention time: 7.575 min
Precursor m/z: 297.1398
Precursor type: [M+H]+
m/z	relative intensity
51.0288	131
57.0202	912
59.0338	41
60.0057	58
65.0465	27
68.0097	31
69.0172	31
70.0242	24
73.0111	100
74.0187	999
75.0259	423
76.0333	34
76.044	20
77.0409	69
78.0476	17
81.0159	169
83.0318	523
84.0037	45
85.0104	183
86.017	336
87.025	322
88.0202	121
88.0408	17
89.04	163
90.036	20
92.0067	27
94.0227	76
95.0294	20
96.0392	20
97.0081	104
98.0162	752
99.0101	58
99.0239	222
100.0149	17
100.0315	48
101.038	17
102.0457	17
105.0138	86
107.0279	107
109.0074	156
109.0456	52
110.0157	267
111.0079	24
111.0224	128
112.0155	34
113.0386	69
114.0354	48
115.0522	24
116.007	27
117.0103	20
118.021	38
119.9982	52
120.0358	62
121.0081	76
122.0152	551
123.0074	48
123.0211	135
124.0286	55
125.0368	27
126.0473	45
128.0669	13
129.0127	45
131.0287	55
131.9995	38
133.0059	65
133.0432	45
134.0144	166
135.0214	62
136.0149	13
137.0392	62
138.0339	17
139.0557	17
141.0131	31
142.0213	41
144.036	48
145.0076	27
145.0454	13
146.0145	287
147.0176	169
148.0301	62
149.0378	65
150.0471	107
151.0524	27
153.0159	31
155.0287	62
157.0074	20
157.0446	31
158.0146	65
159.0079	20
159.0218	38
161.0409	187
162.0464	45
163.0523	65
165.0094	24
166.0222	34
167.0286	55
168.036	228
169.0451	34
170.0128	93
170.054	13
171.0104	38
171.0241	38
172.0285	31
173.0369	52
174.0474	83
175.0465	27
179.0275	135
180.0375	104
181.0455	83
182.0507	13
185.0377	163
186.0434	111
187.0534	100
188.0475	62
190.0224	31
191.0278	31
192.0371	111
193.0346	31
195.015	24
196.0324	34
197.0394	124
198.0467	211
199.0445	65
200.0643	41
203.029	111
204.0369	97
205.048	114
206.0419	48
209.0412	83
210.0407	79
211.0506	117
212.05	86
215.0279	48
216.037	228
217.0422	111
218.0516	76
222.0312	13
222.0547	17
223.0403	79
227.0323	34
228.0337	31
229.0461	83
230.0426	52
231.0669	13
234.0306	20
235.0388	31
236.0507	38
238.0586	17
241.0283	24
242.0405	20
243.0432	48
254.0355	13
