Mass spectrum: Ethyl tosylcarbamate; LC-ESI-QTOF; MS2; 130 V
Name: Ethyl tosylcarbamate
Class: Pharmaceutical
Formula: C10H13NO4S
Exact mass: 243.0565
SMILES: CCOC(=O)N[S](=O)(=O)c1ccc(C)cc1
InChI: InChI=1S/C10H13NO4S/c1-3-15-10(12)11-16(13,14)9-6-4-8(2)5-7-9/h4-7H,3H2,1-2H3,(H,11,12)
Instrument: TripleTOF 5600 SCIEX
Instrument type: LC-ESI-QTOF
Ms type: MS2
Ion mode: POSITIVE
Collision energy: 130
Fragmentation mode: CID
Ionization: ESI
Column name: Zorbax Eclipse Plus C18 2.1 mm x 150 mm, 3.5 um, Agilent
Retention time: 9.545 min
Precursor m/z: 244.0638
Precursor type: [M+H]+
m/z	relative intensity
65.0416	999
