Mass spectrum: Acetylsulfamethoxazole; LC-ESI-QTOF; MS2; 40 V
Name: Acetylsulfamethoxazole
Class: Metabolite; Pharmaceutical
Formula: C12H13N3O4S
Exact mass: 295.0627
SMILES: CC1=CC(=NO1)NS(=O)(=O)C2=CC=C(C=C2)NC(=O)C
InChI: InChI=1S/C12H13N3O4S/c1-8-7-12(14-19-8)15-20(17,18)11-5-3-10(4-6-11)13-9(2)16/h3-7H,1-2H3,(H,13,16)(H,14,15)
Instrument: TripleTOF 5600 SCIEX
Instrument type: LC-ESI-QTOF
Ms type: MS2
Ion mode: POSITIVE
Collision energy: 40
Fragmentation mode: CID
Ionization: ESI
Column name: Zorbax Eclipse Plus C18 2.1 mm x 150 mm, 3.5 um, Agilent
Retention time: 7.411 min
Precursor m/z: 296.07
Precursor type: [M+H]+
m/z	relative intensity
65.0461	645
77.0434	39
78.0389	19
79.0586	28
80.0548	68
92.0527	274
93.0367	339
93.0593	182
94.0673	99
99.0565	119
106.0677	65
107.0632	57
108.0461	656
119.0606	14
131.0615	42
132.0665	25
133.0668	22
134.061	999
135.0687	28
136.0763	199
140.017	17
146.0721	245
147.0551	17
147.0798	151
148.088	37
149.0165	17
149.0747	19
150.0549	91
156.0119	128
160.0881	328
161.0052	22
161.0745	17
162.0669	114
172.0921	14
175.018	11
176.0263	57
188.0825	265
189.0906	48
190.0941	68
194.0375	145
198.0217	525
201.0637	42
202.0987	19
216.0901	19
218.0414	31
230.0914	14
232.1048	14
236.0447	39
296.0688	268
