Mass spectrum: Oxibendazole; LC-ESI-QTOF; MS2; 40 V
Name: Oxibendazole
Class: Pharmaceutical
Formula: C12H15N3O3
Exact mass: 249.1113
SMILES: CCCOC1=CC2=C(C=C1)N=C(N2)NC(=O)OC
InChI: InChI=1S/C12H15N3O3/c1-3-6-18-8-4-5-9-10(7-8)14-11(13-9)15-12(16)17-2/h4-5,7H,3,6H2,1-2H3,(H2,13,14,15,16)
Instrument: TripleTOF 5600 SCIEX
Instrument type: LC-ESI-QTOF
Ms type: MS2
Ion mode: POSITIVE
Collision energy: 40
Fragmentation mode: CID
Ionization: ESI
Column name: Zorbax Eclipse Plus C18 2.1 mm x 150 mm, 3.5 um, Agilent
Retention time: 6.663 min
Precursor m/z: 250.1186
Precursor type: [M+H]+
m/z	relative intensity
80.0498	80
81.033	18
106.0287	27
108.0442	46
119.0473	10
120.0568	18
121.0394	42
130.0403	30
133.0392	27
134.0472	19
147.0425	28
148.0508	314
149.0588	17
158.0356	19
175.0374	46
176.0454	999
218.0928	473
250.1189	47
