Mass spectrum: O-desmethyl-venlafaxine; LC-ESI-QTOF; MS2; 90 V
Name: O-desmethyl-venlafaxine
Class: Metabolite; Pharmaceutical; Transformation_product-Metabolite
Formula: C16H25NO2
Exact mass: 263.1885
SMILES: CN(C)CC(C1=CC=C(C=C1)O)C2(CCCCC2)O
InChI: InChI=1S/C16H25NO2/c1-17(2)12-15(13-6-8-14(18)9-7-13)16(19)10-4-3-5-11-16/h6-9,15,18-19H,3-5,10-12H2,1-2H3
Instrument: TripleTOF 5600 SCIEX
Instrument type: LC-ESI-QTOF
Ms type: MS2
Ion mode: POSITIVE
Collision energy: 90
Fragmentation mode: CID
Ionization: ESI
Column name: Zorbax Eclipse Plus C18 2.1 mm x 150 mm, 3.5 um, Agilent
Retention time: 5.367 min
Precursor m/z: 264.1958
Precursor type: [M+H]+
m/z	relative intensity
42.0486	101
43.0552	58
55.0267	22
56.0581	19
58.0748	963
65.0455	44
77.0441	999
78.0503	14
79.0594	220
81.0391	17
81.0745	74
89.0428	27
91.0578	112
94.0451	27
103.0571	65
105.0712	22
107.0509	433
115.0557	143
116.0655	17
119.0509	22
120.0554	13
126.048	11
127.0568	24
128.0623	24
131.0494	19
144.0612	14
