Mass spectrum: Metobromuron; LC-ESI-QTOF; MS2; 50 V
Name: Metobromuron
Class: Herbicide
Formula: C9H11BrN2O2
Exact mass: 258.0004
SMILES: CN(C(=O)NC1=CC=C(C=C1)Br)OC
InChI: InChI=1S/C9H11BrN2O2/c1-12(14-2)9(13)11-8-5-3-7(10)4-6-8/h3-6H,1-2H3,(H,11,13)
Instrument: TripleTOF 6600 SCIEX
Instrument type: LC-ESI-QTOF
Ms type: MS2
Ion mode: POSITIVE
Collision energy: 50
Fragmentation mode: CID
Ionization: ESI
Column name: Zorbax Eclipse Plus C18 2.1 mm x 150 mm, 3.5 um, Agilent
Retention time: 10.623 min
Precursor m/z: 259.0077
Precursor type: [M+H]+
m/z	relative intensity
62.0119	10
63.02	62
64.0281	48
65.0354	119
90.0308	27
91.0387	999
92.0462	209
93.0543	10
105.0413	14
116.9286	48
119.0566	402
129.0409	18
131.0557	16
142.9452	365
147.0513	86
148.059	50
154.944	10
169.9561	228
170.9644	386
183.9706	18
226.9784	37
