Mass spectrum: Propaquizafop; LC-ESI-QTOF; MS2; 40 V
Name: Propaquizafop
Class: Herbicide
Formula: C22H22ClN3O5
Exact mass: 443.1248
SMILES: CC(Oc1ccc(Oc2cnc3cc(Cl)ccc3n2)cc1)C(=O)OCCON=C(C)C
InChI: InChI=1S/C22H22ClN3O5/c1-14(2)26-29-11-10-28-22(27)15(3)30-17-5-7-18(8-6-17)31-21-13-24-20-12-16(23)4-9-19(20)25-21/h4-9,12-13,15H,10-11H2,1-3H3
Instrument: TripleTOF 6600 SCIEX
Instrument type: LC-ESI-QTOF
Ms type: MS2
Ion mode: POSITIVE
Collision energy: 40
Fragmentation mode: CID
Ionization: ESI
Column name: Zorbax Eclipse Plus C18 2.1 mm x 150 mm, 3.5 um, Agilent
Retention time: 15.307 min
Precursor m/z: 444.1321
Precursor type: [M+H]+
m/z	relative intensity
55.0421	11
56.0497	361
65.0384	16
70.0654	546
91.0541	245
99.0441	126
100.0543	193
100.0757	999
119.0492	63
120.0587	13
126.0086	13
133.0644	16
147.0437	49
148.0533	16
153.02	11
163.0061	179
164.0033	27
165.0214	22
177.0231	13
177.0557	16
181.0178	24
191.0706	63
192.0746	137
193.0753	30
207.0908	49
208.0713	13
208.1002	22
215.0387	35
218.0843	24
221.0686	13
227.0412	13
228.0445	33
229.0532	30
235.0886	27
236.0949	68
243.0338	135
243.0692	267
249.066	16
253.0536	82
254.0348	11
255.0336	331
255.068	16
256.041	55
257.0474	41
268.039	30
270.0177	24
271.0346	33
271.0644	430
272.036	27
281.0495	60
283.0637	33
284.0345	33
285.0433	140
299.0599	927
309.0473	11
327.0541	281
371.0839	99
