Mass spectrum: Acetochlor; LC-ESI-QTOF; MS2; 40 V
Name: Acetochlor
Class: Herbicide
Formula: C14H20ClNO2
Exact mass: 269.1183
SMILES: CCC1=CC=CC(=C1N(COCC)C(=O)CCl)C
InChI: InChI=1S/C14H20ClNO2/c1-4-12-8-6-7-11(3)14(12)16(10-18-5-2)13(17)9-15/h6-8H,4-5,9-10H2,1-3H3
Instrument: TripleTOF 6600 SCIEX
Instrument type: LC-ESI-QTOF
Ms type: MS2
Ion mode: POSITIVE
Collision energy: 40
Fragmentation mode: CID
Ionization: ESI
Column name: Zorbax Eclipse Plus C18 2.1 mm x 150 mm, 3.5 um, Agilent
Retention time: 13.251 min
Precursor m/z: 270.1255
Precursor type: [M+H]+
m/z	relative intensity
31.0168	148
41.0383	28
45.0328	384
48.9827	72
59.0485	100
76.9768	43
79.0526	28
90.0084	144
91.0537	86
93.0659	19
103.0516	33
105.0679	91
115.0525	33
116.0604	19
117.056	81
118.063	100
119.0765	62
119.0896	19
120.0788	86
128.0606	48
129.0673	28
130.0673	81
131.0711	72
132.0795	624
133.087	999
134.0938	62
143.0697	52
144.0794	96
145.0884	24
146.094	220
147.1023	734
148.1099	917
149.0932	86
156.0796	33
157.0941	24
158.0934	81
160.1115	33
161.1184	28
162.1247	859
163.1101	168
169.0874	38
170.0936	76
171.1051	38
172.1094	19
173.0817	38
174.0899	24
178.039	28
184.1093	33
185.117	33
206.0672	72
208.0888	19
220.0878	38
224.0814	86
238.0953	81
