Mass spectrum: Propyphenazone; LC-ESI-QTOF; MS2; 110 V
Name: Propyphenazone
Class: Pharmaceutical
Formula: C14H18N2O
Exact mass: 230.1419
SMILES: CC1=C(C(=O)N(N1C)C2=CC=CC=C2)C(C)C
InChI: InChI=1S/C14H18N2O/c1-10(2)13-11(3)15(4)16(14(13)17)12-8-6-5-7-9-12/h5-10H,1-4H3
Instrument: TripleTOF 5600 SCIEX
Instrument type: LC-ESI-QTOF
Ms type: MS2
Ion mode: POSITIVE
Collision energy: 110
Fragmentation mode: CID
Ionization: ESI
Column name: Zorbax Eclipse Plus C18 2.1 mm x 150 mm, 3.5 um, Agilent
Retention time: 9.545 min
Precursor m/z: 231.1492
Precursor type: [M+H]+
m/z	relative intensity
37.0074	60
38.015	68
39.0229	242
41.027	105
41.039	52
42.0343	105
49.0075	52
50.0151	491
51.0229	999
52.0183	52
53.0385	83
56.0494	824
62.0154	37
63.0228	136
65.0385	234
66.0468	37
67.0408	370
74.0159	52
75.0227	60
77.0388	650
78.0339	30
80.0496	378
81.0572	37
82.0658	83
89.0388	136
91.0538	60
93.0581	37
94.0647	60
115.0538	83
