Mass spectrum: Prochloraz; LC-ESI-QTOF; MS2; 50 V
Name: Prochloraz
Class: Fungicide
Formula: C15H16Cl3N3O2
Exact mass: 375.0308
SMILES: CCCN(CCOc1c(cc(cc1Cl)Cl)Cl)C(=O)n2ccnc2
InChI: InChI=1S/C15H16Cl3N3O2/c1-2-4-20(15(22)21-5-3-19-10-21)6-7-23-14-12(17)8-11(16)9-13(14)18/h3,5,8-10H,2,4,6-7H2,1H3
Instrument: TripleTOF 6600 SCIEX
Instrument type: LC-ESI-QTOF
Ms type: MS2
Ion mode: POSITIVE
Collision energy: 50
Fragmentation mode: CID
Ionization: ESI
Column name: Zorbax Eclipse Plus C18 2.1 mm x 150 mm, 3.5 um, Agilent
Retention time: 11.258 min
Precursor m/z: 376.0381
Precursor type: [M+H]+
m/z	relative intensity
39.0228	49
41.0385	175
42.0339	178
43.0542	354
44.0494	20
56.0492	257
57.0572	64
70.0286	999
70.0451	76
70.0647	571
71.0377	14
72.0444	23
84.0801	11
85.0883	64
98.0613	46
106.0407	11
123.0001	20
125.0139	35
132.9595	76
138.0097	26
139.0103	23
146.9734	20
153.011	17
158.9754	128
159.9838	52
160.9546	82
161.9632	146
166.0035	23
166.9213	275
167.012	32
169.968	14
173.9875	76
174.9694	96
178.9205	14
179.9287	93
180.0218	14
186.9709	35
187.9789	76
192.9354	23
194.9156	392
194.9515	38
196.9319	161
201.9801	29
202.9893	14
204.9355	14
206.9273	17
215.9958	20
222.9473	93
