Mass spectrum: L-Isoleucine; LC-ESI-QTOF; MS2; 70 V
Name: L-Isoleucine
Class: Food_additive; Personal_care_product
Formula: C6H13NO2
Exact mass: 131.0946
SMILES: CCC(C(C(O)=O)N)C
InChI: InChI=1S/C6H13NO2/c1-3-4(2)5(7)6(8)9/h4-5H,3,7H2,1-2H3,(H,8,9)
Instrument: TripleTOF 5600 SCIEX
Instrument type: LC-ESI-QTOF
Ms type: MS2
Ion mode: POSITIVE
Collision energy: 70
Fragmentation mode: CID
Ionization: ESI
Column name: Zorbax Eclipse Plus C18 2.1 mm x 150 mm, 3.5 um, Agilent
Retention time: 2.357 min
Precursor m/z: 132.1019
Precursor type: [M+H]+
m/z	relative intensity
35.9986	65
37.0078	195
38.0154	130
39.0232	999
41.0272	29
41.0389	331
42.0341	283
43.0182	88
44.0501	307
44.9969	70
45.0339	189
53.0392	47
55.0543	35
56.0499	809
57.0573	130
58.0649	100
68.0244	23
69.0329	35
70.0647	53
