Mass spectrum: Oxytetracycline; LC-ESI-QTOF; MS2; 130 V
Name: Oxytetracycline
Class: Pharmaceutical
Formula: C22H24N2O9
Exact mass: 460.1482
SMILES: CC1(C2C(C3C(C(=O)C(=C(C3(C(=O)C2=C(C4=C1C=CC=C4O)O)O)O)C(=O)N)N(C)C)O)O
InChI: InChI=1S/C22H24N2O9/c1-21(32)7-5-4-6-8(25)9(7)15(26)10-12(21)17(28)13-14(24(2)3)16(27)11(20(23)31)19(30)22(13,33)18(10)29/h4-6,12-14,17,25-26,28,30,32-33H,1-3H3,(H2,23,31)
Instrument: TripleTOF 5600 SCIEX
Instrument type: LC-ESI-QTOF
Ms type: MS2
Ion mode: POSITIVE
Collision energy: 130
Fragmentation mode: CID
Ionization: ESI
Column name: Zorbax Eclipse Plus C18 2.1 mm x 150 mm, 3.5 um, Agilent
Retention time: 5.586 min
Precursor m/z: 461.1555
Precursor type: [M+H]+
m/z	relative intensity
55.0227	22
58.0689	44
65.0442	22
68.9994	44
70.0675	38
75.0371	22
76.0351	33
77.0407	288
78.0478	33
89.0407	38
91.0559	105
98.0597	22
101.0372	77
102.0467	227
103.0568	27
113.0385	61
114.0442	38
115.0547	427
116.0612	44
117.0682	33
126.0458	227
127.0533	760
128.0621	999
129.0679	55
131.0498	72
138.0463	27
139.0538	321
140.0611	83
141.0701	55
143.049	22
150.0457	49
151.0547	155
152.0622	349
153.0713	94
155.0485	172
156.0559	55
163.0546	133
164.061	66
165.0694	199
168.0564	111
176.0627	94
178.0742	27
181.0642	44
183.044	33
184.0524	194
187.0408	33
196.0502	38
