Mass spectrum: Dimethenamid; LC-ESI-QTOF; MS2; 80 V
Name: Dimethenamid
Class: Herbicide
Formula: C12H18ClNO2S
Exact mass: 275.0747
SMILES: CC1=CSC(=C1N(C(C)COC)C(=O)CCl)C
InChI: InChI=1S/C12H18ClNO2S/c1-8-7-17-10(3)12(8)14(11(15)5-13)9(2)6-16-4/h7,9H,5-6H2,1-4H3
Instrument: TripleTOF 6600 SCIEX
Instrument type: LC-ESI-QTOF
Ms type: MS2
Ion mode: POSITIVE
Collision energy: 80
Fragmentation mode: CID
Ionization: ESI
Column name: Zorbax Eclipse Plus C18 2.1 mm x 150 mm, 3.5 um, Agilent
Retention time: 11.971 min
Precursor m/z: 276.082
Precursor type: [M+H]+
m/z	relative intensity
37.0083	35
39.024	200
41.0392	165
42.0345	44
43.0185	35
44.9799	200
45.0341	138
46.9686	57
46.9953	17
48.9845	445
50.0161	49
51.0236	133
52.0322	22
53.0395	89
54.0344	31
55.0549	53
57.9879	22
58.9954	205
59.99	89
63.0235	26
65.0394	396
66.0473	102
67.0433	53
67.0548	330
68.9796	53
69.989	17
70.9954	173
75.9944	17
76.98	22
77.0393	553
78.0352	62
78.0465	285
79.0551	124
80.0502	388
81.0593	35
82.066	66
82.9958	35
84.004	44
85.0109	93
89.0387	35
90.0476	31
91.0419	22
91.0551	209
92.0496	124
93.0579	280
94.0655	999
94.9955	31
95.0739	156
96.0024	40
97.011	437
98.0055	17
98.0187	40
99.0269	111
103.0546	26
104.0498	218
105.0577	312
106.0653	107
107.0726	26
108.0818	49
109.0105	138
110.0071	71
110.0196	49
111.0265	700
112.0215	115
113.0297	66
115.0538	26
117.0574	156
118.0658	147
119.0722	57
120.0808	115
121.0099	22
122.0057	26
123.0139	111
124.0215	276
125.0306	44
125.0413	40
126.0371	370
134.006	35
134.0191	17
134.0971	44
135.0277	35
136.022	280
137.0293	62
138.001	89
138.0371	209
144.9858	17
148.0217	22
149.0278	26
150.0378	111
152.0172	495
152.0526	57
