Mass spectrum: Desmetryn; LC-ESI-QTOF; MS2; 50 V
Name: Desmetryn
Class: Herbicide
Formula: C8H15N5S
Exact mass: 213.1048
SMILES: CC(C)NC1=NC(=NC(=N1)NC)SC
InChI: InChI=1S/C8H15N5S/c1-5(2)10-7-11-6(9-3)12-8(13-7)14-4/h5H,1-4H3,(H2,9,10,11,12,13)
Instrument: TripleTOF 6600 SCIEX
Instrument type: LC-ESI-QTOF
Ms type: MS2
Ion mode: POSITIVE
Collision energy: 50
Fragmentation mode: CID
Ionization: ESI
Column name: Zorbax Eclipse Plus C18 2.1 mm x 150 mm, 3.5 um, Agilent
Retention time: 7.281 min
Precursor m/z: 214.1121
Precursor type: [M+H]+
m/z	relative intensity
39.0216	13
41.0374	24
43.0282	180
46.994	16
55.0278	75
57.0437	630
68.0228	191
74.0044	176
82.0387	999
88.0195	19
91.0304	53
99.0644	15
116.0255	27
124.0599	23
130.0405	12
172.0633	14
