Mass spectrum: Fluazifop; LC-ESI-QTOF; MS2; 70 V
Name: Fluazifop
Class: Herbicide; Transformation_product
Formula: C15H12F3NO4
Exact mass: 327.0718
SMILES: CC(C(=O)O)Oc1ccc(cc1)Oc2ccc(cn2)C(F)(F)F
InChI: InChI=1S/C15H12F3NO4/c1-9(14(20)21)22-11-3-5-12(6-4-11)23-13-7-2-10(8-19-13)15(16,17)18/h2-9H,1H3,(H,20,21)
Instrument: TripleTOF 6600 SCIEX
Instrument type: LC-ESI-QTOF
Ms type: MS2
Ion mode: NEGATIVE
Collision energy: 70
Fragmentation mode: CID
Ionization: ESI
Column name: Zorbax Eclipse Plus C18 2.1 mm x 150 mm, 3.5 um, Agilent
Retention time: 11.668 min
Precursor m/z: 326.0646
Precursor type: [M-H]-
m/z	relative intensity
41.0019	19
49.0072	16
66.9975	32
68.994	42
71.013	19
74.0028	65
94.9927	42
97.0075	19
101.0407	16
106.009	19
108.0204	999
111.0118	13
111.0219	16
112.019	19
114.9992	115
117.0127	16
122.0037	36
124.0189	26
126.0141	16
131.0272	16
132.024	62
136.0188	13
137.0238	42
138.0337	223
142.0101	174
143.0295	23
144.0249	42
150.034	82
152.0306	49
156.0258	23
156.0436	19
158.0397	213
159.0226	36
162.0156	315
164.0307	111
166.0295	108
170.0236	19
172.0213	39
178.0461	121
180.0268	16
184.035	32
186.034	92
192.0265	26
198.0549	16
206.0404	98
212.03	19
253.0353	32
