Mass spectrum: Warfarin; LC-ESI-QTOF; MS2; 50 V
Name: Warfarin
Class: Pesticide
Formula: C19H16O4
Exact mass: 308.1049
SMILES: CC(=O)CC(C1=CC=CC=C1)C2=C(C3=CC=CC=C3OC2=O)O
InChI: InChI=1S/C19H16O4/c1-12(20)11-15(13-7-3-2-4-8-13)17-18(21)14-9-5-6-10-16(14)23-19(17)22/h2-10,15,21H,11H2,1H3
Instrument: TripleTOF 6600 SCIEX
Instrument type: LC-ESI-QTOF
Ms type: MS2
Ion mode: POSITIVE
Collision energy: 50
Fragmentation mode: CID
Ionization: ESI
Column name: Zorbax Eclipse Plus C18 2.1 mm x 150 mm, 3.5 um, Agilent
Retention time: 11.631 min
Precursor m/z: 309.1122
Precursor type: [M+H]+
m/z	relative intensity
43.018	179
65.0381	76
68.997	30
77.0381	215
89.0381	12
91.0538	96
93.033	115
95.0484	35
102.0451	10
103.0534	121
105.0343	13
115.0541	13
119.0477	16
121.0283	999
128.0624	37
129.0332	33
129.0692	85
131.0483	99
145.0274	22
147.0797	26
152.0618	47
153.0691	56
154.0763	19
155.0851	411
157.0286	50
163.0386	642
165.0693	111
166.0768	16
167.085	150
173.0227	478
176.0632	20
177.0701	33
178.0772	146
179.0857	24
181.0644	12
183.0794	172
189.0517	11
191.0343	13
195.0804	25
205.0645	109
223.0752	198
233.0598	87
249.0531	24
251.0698	207
