Mass spectrum: Fexofenadinone; LC-ESI-QTOF; MS2; 30 V
Name: Fexofenadinone
Class: Pharmaceutical
Formula: C32H37NO4
Exact mass: 499.2723
SMILES: O=C(C1=CC=C(C(C)(C(O)=O)C)C=C1)CCCN(CCC2)CC2C(C3=CC=CC=C3)(O)C4=CC=CC=C4
InChI: InChI=1S/C32H37NO4/c1-31(2,30(35)36)25-19-17-24(18-20-25)29(34)16-10-22-33-21-9-15-28(23-33)32(37,26-11-5-3-6-12-26)27-13-7-4-8-14-27/h3-8,11-14,17-20,28,37H,9-10,15-16,21-23H2,1-2H3,(H,35,36)
Instrument: TripleTOF 5600 SCIEX
Instrument type: LC-ESI-QTOF
Ms type: MS2
Ion mode: NEGATIVE
Collision energy: 30
Fragmentation mode: CID
Ionization: ESI
Column name: Zorbax Eclipse Plus C18 2.1 mm x 150 mm, 3.5 um, Agilent
Retention time: 8.706 min
Precursor m/z: 498.2652
Precursor type: [M-H]-
m/z	relative intensity
183.0803	12
187.1117	19
300.1983	9
348.2265	11
375.04	11
376.2264	999
454.2723	459
