Mass spectrum: Octabenzone; LC-ESI-QTOF; MS2; 140 V
Name: Octabenzone
Class: Industrial_process
Formula: C21H26O3
Exact mass: 326.1882
SMILES: CCCCCCCCOC1=CC(=C(C=C1)C(=O)C2=CC=CC=C2)O
InChI: InChI=1S/C21H26O3/c1-2-3-4-5-6-10-15-24-18-13-14-19(20(22)16-18)21(23)17-11-8-7-9-12-17/h7-9,11-14,16,22H,2-6,10,15H2,1H3
Instrument: TripleTOF 5600 SCIEX
Instrument type: LC-ESI-QTOF
Ms type: MS2
Ion mode: POSITIVE
Collision energy: 140
Fragmentation mode: CID
Ionization: ESI
Column name: Zorbax Eclipse Plus C18 2.1 mm x 150 mm, 3.5 um, Agilent
Retention time: 19.014 min
Precursor m/z: 327.1955
Precursor type: [M+H]+
m/z	relative intensity
50.0147	268
51.0226	999
53.0385	230
68.9975	422
77.0385	576
81.0326	192
