Mass spectrum: Octrizole; LC-ESI-QTOF; MS2; 50 V
Name: Octrizole
Class: Industrial_process
Formula: C20H25N3O
Exact mass: 323.1998
SMILES: CC(C)(C)CC(C)(C)C1=CC(=C(C=C1)O)N2N=C3C=CC=CC3=N2
InChI: InChI=1S/C20H25N3O/c1-19(2,3)13-20(4,5)14-10-11-18(24)17(12-14)23-21-15-8-6-7-9-16(15)22-23/h6-12,24H,13H2,1-5H3
Instrument: TripleTOF 5600 SCIEX
Instrument type: LC-ESI-QTOF
Ms type: MS2
Ion mode: POSITIVE
Collision energy: 50
Fragmentation mode: CID
Ionization: ESI
Column name: Zorbax Eclipse Plus C18 2.1 mm x 150 mm, 3.5 um, Agilent
Retention time: 19.562 min
Precursor m/z: 324.207
Precursor type: [M+H]+
m/z	relative intensity
65.0449	184
77.0452	37
79.0593	42
91.0579	61
92.0537	999
93.0376	56
103.0588	33
105.072	137
106.0794	28
107.0545	94
119.0553	94
120.0576	303
121.0647	28
128.0592	23
129.0705	66
133.0649	255
134.074	435
135.0827	47
139.0569	61
155.0719	23
156.0797	47
165.0697	33
166.0672	108
167.0706	113
168.0805	18
180.0824	80
181.0662	85
181.0883	66
182.0957	71
183.0677	151
184.0817	56
191.0727	28
196.0768	85
196.1075	47
208.1102	66
209.089	132
210.0909	402
211.0753	113
212.0813	530
223.1045	28
224.0769	37
224.106	279
225.1112	37
238.0969	303
252.113	383
253.1178	108
266.1279	23
324.2015	52
