Mass spectrum: 3,3`-Dichlorobenzidine; LC-ESI-QTOF; MS2; 80 V
Name: 3,3`-Dichlorobenzidine
Formula: C12H10Cl2N2
Exact mass: 252.0221
SMILES: C1=CC(=C(C=C1C2=CC(=C(C=C2)N)Cl)Cl)N
InChI: InChI=1S/C12H10Cl2N2/c13-9-5-7(1-3-11(9)15)8-2-4-12(16)10(14)6-8/h1-6H,15-16H2
Instrument: TripleTOF 6600 SCIEX
Instrument type: LC-ESI-QTOF
Ms type: MS2
Ion mode: POSITIVE
Collision energy: 80
Fragmentation mode: CID
Ionization: ESI
Column name: Zorbax Eclipse Plus C18 2.1 mm x 150 mm, 3.5 um, Agilent
Retention time: 11.426 min
Precursor m/z: 253.0294
Precursor type: [M+H]+
m/z	relative intensity
51.0229	38
62.0159	10
63.0233	56
65.0392	12
75.0229	86
76.0304	15
77.0386	442
78.0465	14
86.0144	27
87.023	15
88.0301	28
89.0381	59
91.0431	13
99.0232	12
101.038	119
102.0462	76
103.0536	150
104.0506	38
105.0439	9
113.0383	56
114.0342	12
114.0451	13
115.0551	49
116.0496	15
117.0561	15
125.0376	30
126.0461	279
127.054	861
128.0493	175
128.0607	104
129.0461	82
129.0557	35
130.0657	262
137.0383	125
138.0463	97
139.0544	190
140.0483	130
141.0569	19
151.0181	17
152.05	92
153.0567	200
154.0652	999
155.0599	234
164.0259	45
164.0496	181
165.0564	31
166.0649	15
173.0168	38
179.059	109
180.0622	22
181.0765	126
182.0829	13
188.0281	11
