Mass spectrum: Cyazofamid; LC-ESI-QTOF; MS2; 40 V
Name: Cyazofamid
Class: Fungicide
Formula: C13H13ClN4O2S
Exact mass: 324.0448
SMILES: CC1=CC=C(C=C1)C2=C(N=C(N2S(=O)(=O)N(C)C)C#N)Cl
InChI: InChI=1S/C13H13ClN4O2S/c1-9-4-6-10(7-5-9)12-13(14)16-11(8-15)18(12)21(19,20)17(2)3/h4-7H,1-3H3
Instrument: TripleTOF 6600 SCIEX
Instrument type: LC-ESI-QTOF
Ms type: MS2
Ion mode: POSITIVE
Collision energy: 40
Fragmentation mode: CID
Ionization: ESI
Column name: Zorbax Eclipse Plus C18 2.1 mm x 150 mm, 3.5 um, Agilent
Retention time: 13.577 min
Precursor m/z: 325.0521
Precursor type: [M+H]+
m/z	relative intensity
42.0337	37
44.0492	230
103.0526	23
108.0106	999
118.0651	14
130.0631	20
155.0578	31
164.0246	11
182.0721	43
189.0195	20
190.0267	83
216.0301	100
217.039	146
226.1214	14
245.0587	43
246.066	20
