Mass spectrum: 6-Methylthioguanine; LC-ESI-QTOF; MS2; 90 V
Name: 6-Methylthioguanine
Class: Metabolite; Pharmaceutical
Formula: C6H7N5S
Exact mass: 181.0422
SMILES: CSc1nc(N)nc2nc[nH]c12
InChI: InChI=1S/C6H7N5S/c1-12-5-3-4(9-2-8-3)10-6(7)11-5/h2H,1H3,(H3,7,8,9,10,11)
Instrument: TripleTOF 5600 SCIEX
Instrument type: LC-ESI-QTOF
Ms type: MS2
Ion mode: POSITIVE
Collision energy: 90
Fragmentation mode: CID
Ionization: ESI
Column name: Zorbax Eclipse Plus C18 2.1 mm x 150 mm, 3.5 um, Agilent
Retention time: 4.912 min
Precursor m/z: 182.0495
Precursor type: [M+H]+
m/z	relative intensity
38.0107	129
53.0184	999
54.0252	211
54.0351	82
55.0355	152
55.9751	340
56.9834	82
57.9806	70
65.0165	446
66.0245	141
68.0271	693
69.9765	517
70.9851	834
80.0263	105
81.0351	70
81.9755	117
82.9836	575
84.9872	70
