Mass spectrum: 3,3`-Dichlorobenzidine; LC-ESI-QTOF; MS2; 70 V
Name: 3,3`-Dichlorobenzidine
Formula: C12H10Cl2N2
Exact mass: 252.0221
SMILES: C1=CC(=C(C=C1C2=CC(=C(C=C2)N)Cl)Cl)N
InChI: InChI=1S/C12H10Cl2N2/c13-9-5-7(1-3-11(9)15)8-2-4-12(16)10(14)6-8/h1-6H,15-16H2
Instrument: TripleTOF 6600 SCIEX
Instrument type: LC-ESI-QTOF
Ms type: MS2
Ion mode: POSITIVE
Collision energy: 70
Fragmentation mode: CID
Ionization: ESI
Column name: Zorbax Eclipse Plus C18 2.1 mm x 150 mm, 3.5 um, Agilent
Retention time: 11.426 min
Precursor m/z: 253.0294
Precursor type: [M+H]+
m/z	relative intensity
63.0233	25
75.0233	18
77.0386	152
89.0379	30
101.0388	40
102.0462	53
103.0535	62
104.0498	12
113.0386	9
115.0548	23
117.058	12
125.0402	11
126.0464	104
127.0181	10
127.0539	529
128.0485	61
128.06	148
129.0486	37
130.0648	246
137.0399	32
138.0461	67
139.0538	126
140.0498	69
141.0586	13
151.0184	15
152.0488	40
153.0564	131
154.0651	999
155.0612	228
156.0801	20
164.0281	72
164.0496	129
165.0568	34
166.0664	19
167.0738	12
173.0165	29
179.0616	59
180.0642	18
181.0758	301
182.0841	49
190.0443	30
215.0406	17
