Mass spectrum: Oxazepam; LC-ESI-QTOF; MS2; 130 V
Name: Oxazepam
Class: Pharmaceutical
Formula: C15H11ClN2O2
Exact mass: 286.0509
SMILES: C1=CC=C(C=C1)C2=NC(C(=O)NC3=C2C=C(C=C3)Cl)O
InChI: InChI=1S/C15H11ClN2O2/c16-10-6-7-12-11(8-10)13(9-4-2-1-3-5-9)18-15(20)14(19)17-12/h1-8,15,20H,(H,17,19)
Instrument: TripleTOF 6600 SCIEX
Instrument type: LC-ESI-QTOF
Ms type: MS2
Ion mode: POSITIVE
Collision energy: 130
Fragmentation mode: CID
Ionization: ESI
Column name: Zorbax Eclipse Plus C18 2.1 mm x 150 mm, 3.5 um, Agilent
Retention time: 9.314 min
Precursor m/z: 287.0582
Precursor type: [M+H]+
m/z	relative intensity
37.0073	27
38.015	26
39.023	56
46.9679	18
48.9834	25
49.0072	135
50.0152	630
51.0231	999
52.0181	46
52.0302	10
60.9835	12
61.0071	50
61.9789	24
62.0151	89
63.0228	249
64.018	62
64.0306	46
65.0261	29
65.0384	85
66.0461	44
72.9842	135
73.006	168
74.0151	564
75.0112	43
75.0224	226
76.0183	27
76.0302	50
77.0384	277
78.0334	12
78.0464	14
84.9839	35
85.0067	12
86.014	30
87.0223	41
88.018	14
88.0305	13
89.0386	60
90.0332	28
91.041	62
92.0484	23
93.0573	15
98.0144	131
99.0106	529
100.0057	10
100.0179	143
101.0385	10
102.0459	24
110.0147	17
111.0228	19
113.0385	77
114.0327	15
115.0542	39
122.0153	26
123.0218	24
123.9949	10
124.0311	12
125.0376	33
126.0462	55
127.0411	10
137.0382	25
138.0461	24
139.0542	121
140.0497	117
149.0391	38
150.0467	216
151.0402	12
151.0536	63
152.0616	16
163.0539	12
164.0499	78
165.0583	23
166.0637	31
175.0426	29
176.0485	18
177.0584	30
191.0607	16
192.0683	36
