Mass spectrum: Repaglinide; LC-ESI-QTOF; MS2; 70 V
Name: Repaglinide
Class: Pharmaceutical
Formula: C27H36N2O4
Exact mass: 452.2675
SMILES: CCOc1cc(CC(=O)N[C@@H](CC(C)C)c2ccccc2N3CCCCC3)ccc1C(O)=O
InChI: InChI=1S/C27H36N2O4/c1-4-33-25-17-20(12-13-22(25)27(31)32)18-26(30)28-23(16-19(2)3)21-10-6-7-11-24(21)29-14-8-5-9-15-29/h6-7,10-13,17,19,23H,4-5,8-9,14-16,18H2,1-3H3,(H,28,30)(H,31,32)/t23-/m0/s1
Instrument: TripleTOF 5600 SCIEX
Instrument type: LC-ESI-QTOF
Ms type: MS2
Ion mode: POSITIVE
Collision energy: 70
Fragmentation mode: CID
Ionization: ESI
Column name: Zorbax Eclipse Plus C18 2.1 mm x 150 mm, 3.5 um, Agilent
Retention time: 10.348 min
Precursor m/z: 453.2748
Precursor type: [M+H]+
m/z	relative intensity
44.0575	17
69.073	17
77.0411	12
86.0983	142
91.0553	94
105.0329	23
105.0692	16
106.0652	153
117.0572	103
118.0648	356
120.0802	69
129.0684	11
130.0646	241
131.0723	181
132.08	190
133.0876	11
143.0711	11
144.0804	252
145.088	71
146.0961	747
158.0959	192
159.1034	97
160.1115	55
162.1272	154
172.1118	624
173.1194	48
174.1272	999
179.0692	20
186.1272	107
188.1428	22
202.1579	35
230.1896	800
