Mass spectrum: 5-Methyl-1H-benzotriazole; LC-ESI-QTOF; MS2; 40 V
Name: 5-Methyl-1H-benzotriazole
Class: Industrial_process
Formula: C7H7N3
Exact mass: 133.064
SMILES: Cc1ccc2n[nH]nc2c1
InChI: InChI=1S/C7H7N3/c1-5-2-3-6-7(4-5)9-10-8-6/h2-4H,1H3,(H,8,9,10)
Instrument: TripleTOF 5600 SCIEX
Instrument type: LC-ESI-QTOF
Ms type: MS2
Ion mode: NEGATIVE
Collision energy: 40
Fragmentation mode: CID
Ionization: ESI
Column name: Zorbax Eclipse Plus C18 2.1 mm x 150 mm, 3.5 um, Agilent
Retention time: 7.021 min
Precursor m/z: 132.0567
Precursor type: [M-H]-
m/z	relative intensity
40.0231	166
50.0059	124
63.013	124
88.0197	416
89.0267	374
102.0359	208
103.0435	832
104.0525	291
132.0548	999
