Mass spectrum: 4-(2,4-Dichlorophenoxy)butanoic acid; LC-ESI-QTOF; MS2; 80 V
Name: 4-(2,4-Dichlorophenoxy)butanoic acid
Class: Herbicide
Formula: C10H10Cl2O3
Exact mass: 248.0007
SMILES: C1=CC(=C(C=C1Cl)Cl)OCCCC(=O)O
InChI: InChI=1S/C10H10Cl2O3/c11-7-3-4-9(8(12)6-7)15-5-1-2-10(13)14/h3-4,6H,1-2,5H2,(H,13,14)
Instrument: TripleTOF 6600 SCIEX
Instrument type: LC-ESI-QTOF
Ms type: MS2
Ion mode: POSITIVE
Collision energy: 80
Fragmentation mode: CID
Ionization: ESI
Column name: Zorbax Eclipse Plus C18 2.1 mm x 150 mm, 3.5 um, Agilent
Retention time: 11.685 min
Precursor m/z: 249.008
Precursor type: [M+H]+
m/z	relative intensity
36	22
37.0076	204
38.0151	158
39.0234	726
41.0391	454
43.0181	681
44.9971	158
45.0336	726
46.9671	22
51.0233	22
60.9839	22
65.037	68
69.0405	22
72.984	408
73.0053	45
74.0148	999
75.0232	272
77.0396	204
79.0535	45
82.9449	181
84.9782	22
89.0418	22
90.0479	45
96.9842	22
98.9987	68
108.9826	385
109.9939	22
112.0059	22
125.0153	90
132.9586	158
