Mass spectrum: 2-(5-Chloro-2-methoxyphenyl)-1H-benzimidazole; LC-ESI-QTOF; MS2; 40 V
Name: 2-(5-Chloro-2-methoxyphenyl)-1H-benzimidazole
Class: Pharmaceutical
Formula: C14H11ClN2O
Exact mass: 258.056
SMILES: COc1ccc(cc1c2[nH]c3ccccc3n2)Cl
InChI: InChI=1S/C14H11ClN2O/c1-18-13-7-6-9(15)8-10(13)14-16-11-4-2-3-5-12(11)17-14/h2-8H,1H3,(H,16,17)
Instrument: TripleTOF 5600 SCIEX
Instrument type: LC-ESI-QTOF
Ms type: MS2
Ion mode: POSITIVE
Collision energy: 40
Fragmentation mode: CID
Ionization: ESI
Column name: Zorbax Eclipse Plus C18 2.1 mm x 150 mm, 3.5 um, Agilent
Retention time: 7.374 min
Precursor m/z: 259.0633
Precursor type: [M+H]+
m/z	relative intensity
181.0768	236
209.0706	26
216.0457	480
244.0402	999
259.0636	34
