Mass spectrum: Dimethachlor ESA; LC-ESI-QTOF; MS2; 60 V
Name: Dimethachlor ESA
Class: Transformation_product; Herbicide
Formula: C13H19NO5S
Exact mass: 301.0984
SMILES: Cc1cccc(c1N(CCOC)C(=O)CS(=O)(=O)O)C
InChI: InChI=1S/C13H19NO5S/c1-10-5-4-6-11(2)13(10)14(7-8-19-3)12(15)9-20(16,17)18/h4-6H,7-9H2,1-3H3,(H,16,17,18)
Instrument: TripleTOF 6600 SCIEX
Instrument type: LC-ESI-QTOF
Ms type: MS2
Ion mode: POSITIVE
Collision energy: 60
Fragmentation mode: CID
Ionization: ESI
Column name: Zorbax Eclipse Plus C18 2.1 mm x 150 mm, 3.5 um, Agilent
Retention time: 6.763 min
Precursor m/z: 302.1057
Precursor type: [M+H]+
m/z	relative intensity
68.0509	36
77.0389	73
79.0542	79
91.0541	30
103.0548	49
105.0703	281
115.0546	42
117.0577	361
118.0656	30
130.0651	159
131.073	465
132.0807	999
144.0808	85
145.0886	36
146.0962	600
147.1053	24
158.0962	61
174.0908	147
