Mass spectrum: Fluroxypyr; LC-ESI-QTOF; MS2; 50 V
Name: Fluroxypyr
Class: Herbicide
Formula: C7H5Cl2FN2O3
Exact mass: 253.9661
SMILES: C(C(=O)O)OC1=NC(=C(C(=C1Cl)N)Cl)F
InChI: InChI=1S/C7H5Cl2FN2O3/c8-3-5(11)4(9)7(12-6(3)10)15-1-2(13)14/h1H2,(H2,11,12)(H,13,14)
Instrument: TripleTOF 6600 SCIEX
Instrument type: LC-ESI-QTOF
Ms type: MS2
Ion mode: NEGATIVE
Collision energy: 50
Fragmentation mode: CID
Ionization: ESI
Column name: Zorbax Eclipse Plus C18 2.1 mm x 150 mm, 3.5 um, Agilent
Retention time: 8.859 min
Precursor m/z: 252.9588
Precursor type: [M-H]-
m/z	relative intensity
34.9684	999
41.9974	149
65.9969	349
95.0025	399
98.9645	174
110.9729	74
115.9708	124
122.9986	199
130.9797	199
131.9391	524
157.966	374
158.9757	149
174.9431	99
194.9564	149
