Mass spectrum: Resorcinol bis(diphenyl phosphate); LC-ESI-QTOF; MS2; 110 V
Name: Resorcinol bis(diphenyl phosphate)
Class: Industrial_process
Formula: C30H24O8P2
Exact mass: 574.0946
SMILES: C1=CC=C(C=C1)OP(=O)(OC2=CC=CC=C2)OC3=CC(=CC=C3)OP(=O)(OC4=CC=CC=C4)OC5=CC=CC=C5
InChI: InChI=1S/C30H24O8P2/c31-39(33-25-14-5-1-6-15-25,34-26-16-7-2-8-17-26)37-29-22-13-23-30(24-29)38-40(32,35-27-18-9-3-10-19-27)36-28-20-11-4-12-21-28/h1-24H
Instrument: TripleTOF 6600 SCIEX
Instrument type: LC-ESI-QTOF
Ms type: MS2
Ion mode: POSITIVE
Collision energy: 110
Fragmentation mode: CID
Ionization: ESI
Column name: Zorbax Eclipse Plus C18 2.1 mm x 150 mm, 3.5 um, Agilent
Retention time: 15.87 min
Precursor m/z: 575.1019
Precursor type: [M+H]+
m/z	relative intensity
39.0233	11
46.9682	13
50.015	36
51.0231	180
63.0225	18
65.0388	49
74.0146	24
75.0223	22
77.0389	628
81.0336	20
87.023	9
89.0386	33
91.0542	20
92.0249	20
94.0405	11
95.0493	38
98.0148	11
99.0229	27
101.0386	20
102.0465	63
103.0548	15
105.0441	22
107.0036	11
109.0274	11
114.0467	27
115.0546	533
121.0214	18
125.0389	58
126.047	45
127.0548	103
128.0625	232
129.0705	22
130.0416	33
131.0499	31
133.0205	61
138.0481	20
138.9953	40
139.055	481
140.063	85
141.0707	198
145.0199	24
146.0285	11
147.0355	18
149.0163	24
149.0394	40
150.0471	370
151.0546	368
152.0628	999
153.0715	63
154.0797	13
154.9908	29
155.0522	94
156.0576	70
157.0208	72
157.0656	36
159.0374	38
163.0546	18
164.0638	11
165.071	54
167.0501	36
168.058	607
169.0648	56
170.0722	15
173.0166	47
174.0237	9
175.0187	22
175.0313	36
176.0619	33
177.0113	126
178.0794	72
179.0616	33
183.0444	42
184.0528	185
185.0167	11
186.0244	22
187.032	54
187.0544	27
188.0622	31
189.0132	15
189.0708	214
190.0781	38
191.0873	54
200.0629	119
201.0717	79
202.079	307
203.026	70
203.0875	47
204.0943	13
205.006	99
205.0656	47
207.0377	38
207.0826	20
211.0567	9
213.0113	31
213.0713	153
214.0802	56
215.0284	106
215.0603	13
215.0872	323
216.0948	22
217.0669	15
218.0745	103
220.0458	15
222.0095	113
223.0166	63
223.0548	22
224.0636	158
225.0714	198
226.0795	617
227.0884	72
228.0941	63
229.0073	49
229.0669	27
231.0227	88
231.0817	74
232.0438	11
232.0913	20
233.0535	42
234.0705	36
234.9574	11
236.9773	11
239.0933	15
242.074	142
243.0805	36
244.0487	11
244.0901	54
247.0169	13
248.0246	13
249.0445	36
250.0795	13
251.0524	18
253.0429	15
258.0691	27
259.0763	18
260.041	63
260.0861	31
261.0476	22
263.0252	20
263.0844	24
265.1101	18
274.0812	15
276.0948	70
278.1141	9
287.0889	31
289.0432	15
289.1045	67
291.1173	18
292.9811	15
298.0787	24
299.086	13
300.0955	119
301.1109	27
302.111	33
305.0978	11
307.0662	11
309.0362	24
316.096	18
318.1137	11
