Mass spectrum: N,N-bis(ethoxycarbonyl)-4-methyl-1,3-phenylenediamine; LC-ESI-QTOF; MS2; 130 V
Name: N,N-bis(ethoxycarbonyl)-4-methyl-1,3-phenylenediamine
Class: Pharmaceutical
Formula: C13H18N2O4
Exact mass: 266.1267
SMILES: CCOC(=O)NC1=CC(=C(C=C1)C)NC(=O)OCC
InChI: InChI=1S/C13H18N2O4/c1-4-18-12(16)14-10-7-6-9(3)11(8-10)15-13(17)19-5-2/h6-8H,4-5H2,1-3H3,(H,14,16)(H,15,17)
Instrument: TripleTOF 5600 SCIEX
Instrument type: LC-ESI-QTOF
Ms type: MS2
Ion mode: POSITIVE
Collision energy: 130
Fragmentation mode: CID
Ionization: ESI
Column name: Zorbax Eclipse Plus C18 2.1 mm x 150 mm, 3.5 um, Agilent
Retention time: 10.056 min
Precursor m/z: 267.1339
Precursor type: [M+H]+
m/z	relative intensity
42.0465	29
52.0358	151
54.0403	23
54.0471	29
65.0448	181
66.0539	40
67.0479	40
67.0584	40
74.0226	87
75.018	35
75.0308	58
76.0245	58
76.0369	29
77.0441	999
78.0392	151
78.0505	58
79.0435	35
79.0572	40
80.0536	315
81.0567	23
89.0439	81
90.04	23
91.0457	40
92.0524	40
93.0611	52
94.0692	35
104.0484	35
105.0479	122
106.0677	29
