Mass spectrum: Triphenylphosphine oxide; LC-ESI-QTOF; MS2; 130 V
Name: Triphenylphosphine oxide
Class: Industrial_process
Formula: C18H15OP
Exact mass: 278.0861
SMILES: O=[P](c1ccccc1)(c2ccccc2)c3ccccc3
InChI: InChI=1S/C18H15OP/c19-20(16-10-4-1-5-11-16,17-12-6-2-7-13-17)18-14-8-3-9-15-18/h1-15H
Instrument: TripleTOF 5600 SCIEX
Instrument type: LC-ESI-QTOF
Ms type: MS2
Ion mode: POSITIVE
Collision energy: 130
Fragmentation mode: CID
Ionization: ESI
Column name: Zorbax Eclipse Plus C18 2.1 mm x 150 mm, 3.5 um, Agilent
Retention time: 10.458 min
Precursor m/z: 279.0933
Precursor type: [M+H]+
m/z	relative intensity
51.0311	999
52.0354	10
56.9952	14
65.0464	19
67.9855	70
68.993	104
73.014	10
74.0191	76
75.0274	44
76.0344	42
77.0418	215
77.074	10
78.047	17
79.982	29
80.9916	42
87.0237	19
89.0408	42
91.983	21
92.9889	10
98.016	23
99.0253	10
100.0314	10
101.0386	12
102.0466	66
103.9815	14
107.0044	89
113.0394	14
115.0534	40
125.0389	19
126.0477	96
127.0547	27
128.0634	34
131.0024	14
139.0545	14
144.0146	17
150.045	106
151.0535	128
152.061	91
155.0014	14
156.0118	14
157.0202	12
179.0053	12
180.0118	14
181.0216	25
