Mass spectrum: Fenpropidin; LC-ESI-QTOF; MS2; 120 V
Name: Fenpropidin
Class: Fungicide
Formula: C19H31N
Exact mass: 273.2456
SMILES: CC(CC1=CC=C(C=C1)C(C)(C)C)CN2CCCCC2
InChI: InChI=1S/C19H31N/c1-16(15-20-12-6-5-7-13-20)14-17-8-10-18(11-9-17)19(2,3)4/h8-11,16H,5-7,12-15H2,1-4H3
Instrument: TripleTOF 6600 SCIEX
Instrument type: LC-ESI-QTOF
Ms type: MS2
Ion mode: POSITIVE
Collision energy: 120
Fragmentation mode: CID
Ionization: ESI
Column name: Zorbax Eclipse Plus C18 2.1 mm x 150 mm, 3.5 um, Agilent
Retention time: 9.471 min
Precursor m/z: 274.2529
Precursor type: [M+H]+
m/z	relative intensity
30.0338	10
35.9993	14
37.0075	85
38.015	66
39.0233	347
41.0387	61
50.015	48
51.0232	162
52.0309	14
56.0496	17
61.0072	29
62.0148	41
63.0227	115
65.0386	478
74.0152	28
75.0221	29
76.0308	21
77.0384	290
78.0461	100
79.054	22
84.0804	15
89.0382	187
91.0543	962
102.0461	69
103.054	73
104.062	11
105.0688	13
115.0543	999
116.0614	73
117.0694	92
127.0524	16
128.0608	40
