Mass spectrum: Theophylline; LC-ESI-QTOF; MS2; 70 V
Name: Theophylline
Class: Pharmaceutical; Natural_product
Formula: C7H8N4O2
Exact mass: 180.0647
SMILES: CN1C2=C(C(=O)N(C1=O)C)NC=N2
InChI: InChI=1S/C7H8N4O2/c1-10-5-4(8-3-9-5)6(12)11(2)7(10)13/h3H,1-2H3,(H,8,9)
Instrument: TripleTOF 5600 SCIEX
Instrument type: LC-ESI-QTOF
Ms type: MS2
Ion mode: NEGATIVE
Collision energy: 70
Fragmentation mode: CID
Ionization: ESI
Column name: Zorbax Eclipse Plus C18 2.1 mm x 150 mm, 3.5 um, Agilent
Retention time: 4.936 min
Precursor m/z: 179.0574
Precursor type: [M-H]-
m/z	relative intensity
38.0038	263
40.0069	118
41.9988	272
44.9979	227
55.0301	118
64.0066	63
65.0142	263
65.9986	999
67.0295	136
79.0176	272
92.0258	172
94.0395	54
107.0111	63
108.0211	54
135.0351	54
