Mass spectrum: 1,5-Naphthalenediamine; LC-ESI-QTOF; MS2; 40 V
Name: 1,5-Naphthalenediamine
Formula: C10H10N2
Exact mass: 158.0844
SMILES: C1=CC2=C(C=CC=C2N)C(=C1)N
InChI: InChI=1S/C10H10N2/c11-9-5-1-3-7-8(9)4-2-6-10(7)12/h1-6H,11-12H2
Instrument: TripleTOF X500R SCIEX
Instrument type: LC-ESI-QTOF
Ms type: MS2
Ion mode: POSITIVE
Collision energy: 40
Fragmentation mode: CID
Ionization: ESI
Column name: Zorbax Eclipse Plus C18 2.1 mm x 150 mm, 3.5 um, Agilent
Retention time: 2.752 min
Precursor m/z: 159.0917
Precursor type: [M+H]+
m/z	relative intensity
39.0211	13
41.0401	13
88.033	13
89.0444	41
91.0517	27
93.0591	27
115.0547	999
116.0592	150
117.0587	82
130.0657	260
131.0838	27
132.0791	27
132.0943	13
140.0535	41
141.0558	164
142.0641	314
143.0739	602
157.0755	95
158.0835	465
159.0941	191
