Mass spectrum: Desmethylranitidine; LC-ESI-QTOF; MS2; 110 V
Name: Desmethylranitidine
Class: Pharmaceutical; Transformation_product; Transformation_product-Metabolite
Formula: C12H20N4O3S
Exact mass: 300.1256
SMILES: CNCC1=CC=C(O1)CSCCNC(=C[N+](=O)[O-])NC
InChI: InChI=1S/C12H20N4O3S/c1-13-7-10-3-4-11(19-10)9-20-6-5-15-12(14-2)8-16(17)18/h3-4,8,13-15H,5-7,9H2,1-2H3
Instrument: TripleTOF 5600 SCIEX
Instrument type: LC-ESI-QTOF
Ms type: MS2
Ion mode: POSITIVE
Collision energy: 110
Fragmentation mode: CID
Ionization: ESI
Column name: Zorbax Eclipse Plus C18 2.1 mm x 150 mm, 3.5 um, Agilent
Retention time: 4.769 min
Precursor m/z: 301.1329
Precursor type: [M+H]+
m/z	relative intensity
42.0419	197
51.029	267
53.0459	604
54.0386	127
54.0491	69
55.0474	58
56.0571	313
57.0512	116
59.0023	162
60.0056	46
65.0432	197
66.0511	81
67.044	58
67.0609	46
68.055	116
69.0486	69
70.9999	58
74.0088	46
77.042	894
78.0352	92
78.0467	92
79.0558	104
80.0534	348
81.0372	999
82.055	139
82.0663	69
83.0629	46
85.0413	58
88.0257	58
89.043	81
91.055	116
92.0489	104
93.0594	139
94.0431	81
94.0661	116
96.0686	232
97.0126	151
97.0773	453
102.037	406
104.0502	151
106.0712	69
107.0506	116
119.0611	104
132.0454	139
133.0576	69
