Mass spectrum: Epoxiconazole; LC-ESI-QTOF; MS2; 70 V
Name: Epoxiconazole
Class: Fungicide
Formula: C17H13ClFN3O
Exact mass: 329.0731
SMILES: C1=CC=C(C(=C1)[C@H]2[C@@](O2)(CN3C=NC=N3)C4=CC=C(C=C4)F)Cl
InChI: InChI=1S/C17H13ClFN3O/c18-15-4-2-1-3-14(15)16-17(23-16,9-22-11-20-10-21-22)12-5-7-13(19)8-6-12/h1-8,10-11,16H,9H2/t16-,17+/m0/s1
Instrument: TripleTOF 5600 SCIEX
Instrument type: LC-ESI-QTOF
Ms type: MS2
Ion mode: POSITIVE
Collision energy: 70
Fragmentation mode: CID
Ionization: ESI
Column name: Zorbax Eclipse Plus C18 2.1 mm x 150 mm, 3.5 um, Agilent
Retention time: 12.465 min
Precursor m/z: 330.0804
Precursor type: [M+H]+
m/z	relative intensity
51.0294	20
70.0441	143
73.0113	16
74.0186	148
75.0261	565
77.0417	80
95.03	676
101.0391	999
109.0446	11
110.9993	28
113.0155	13
120.0367	12
121.0444	915
123.0276	248
129.0445	418
138.9989	16
183.0601	15
196.0676	31
