Mass spectrum: 4-Aminoantipyrine; LC-ESI-QTOF; MS2; 140 V
Name: 4-Aminoantipyrine
Class: Transformation_product; Pharmaceutical; Transformation_product-Metabolite
Formula: C11H13N3O
Exact mass: 203.1059
SMILES: CC1=C(C(=O)N(N1C)C2=CC=CC=C2)N
InChI: InChI=1S/C11H13N3O/c1-8-10(12)11(15)14(13(8)2)9-6-4-3-5-7-9/h3-7H,12H2,1-2H3
Instrument: TripleTOF 5600 SCIEX
Instrument type: LC-ESI-QTOF
Ms type: MS2
Ion mode: POSITIVE
Collision energy: 140
Fragmentation mode: CID
Ionization: ESI
Column name: Zorbax Eclipse Plus C18 2.1 mm x 150 mm, 3.5 um, Agilent
Retention time: 4.783 min
Precursor m/z: 204.1131
Precursor type: [M+H]+
m/z	relative intensity
39.0232	119
41.0262	133
42.0342	319
49.0073	213
50.0151	999
51.0232	719
56.0497	452
61.0084	53
62.0148	53
73.0076	53
74.0144	159
