Mass spectrum: Ethofumesate; LC-ESI-QTOF; MS2; 70 V
Name: Ethofumesate
Class: Herbicide
Formula: C13H18O5S
Exact mass: 286.0875
SMILES: CCOC1C(c2cc(ccc2O1)OS(=O)(=O)C)(C)C
InChI: InChI=1S/C13H18O5S/c1-5-16-12-13(2,3)10-8-9(18-19(4,14)15)6-7-11(10)17-12/h6-8,12H,5H2,1-4H3
Instrument: TripleTOF 6600 SCIEX
Instrument type: LC-ESI-QTOF
Ms type: MS2
Ion mode: POSITIVE
Collision energy: 70
Fragmentation mode: CID
Ionization: ESI
Column name: Zorbax Eclipse Plus C18 2.1 mm x 150 mm, 3.5 um, Agilent
Retention time: 12.56 min
Precursor m/z: 287.0948
Precursor type: [M+H]+
m/z	relative intensity
41.0388	79
43.0171	79
43.0536	39
51.0228	119
65.0367	159
77.0371	999
79.0538	239
81.0324	39
81.0703	39
89.0391	79
91.0532	519
102.0454	39
103.0535	159
105.0677	79
107.0463	39
109.065	39
115.0529	239
131.0493	79
