Mass spectrum: 1-Boc-4-[3-(ethoxycarbonyl)phenyl]piperazine; LC-ESI-QTOF; MS2; 70 V
Name: 1-Boc-4-[3-(ethoxycarbonyl)phenyl]piperazine
Formula: C18H26N2O4
Exact mass: 334.1893
SMILES: CCOC(=O)C1=CC(=CC=C1)N2CCN(CC2)C(=O)OC(C)(C)C
InChI: InChI=1S/C18H26N2O4/c1-5-23-16(21)14-7-6-8-15(13-14)19-9-11-20(12-10-19)17(22)24-18(2,3)4/h6-8,13H,5,9-12H2,1-4H3
Instrument: TripleTOF 6600 SCIEX
Instrument type: LC-ESI-QTOF
Ms type: MS2
Ion mode: POSITIVE
Collision energy: 70
Fragmentation mode: CID
Ionization: ESI
Column name: Zorbax Eclipse Plus C18 2.1 mm x 150 mm, 3.5 um, Agilent
Retention time: 14.611 min
Precursor m/z: 335.1965
Precursor type: [M+H]+
m/z	relative intensity
39.0233	56
41.0388	108
42.0341	32
44.0499	119
51.0228	34
56.0497	60
57.0701	259
58.0652	15
65.0386	105
70.0654	26
75.023	13
77.0388	366
78.0339	12
78.0468	38
79.0542	84
80.049	24
90.0459	11
91.0542	408
92.0492	69
92.0613	18
93.0576	74
93.0689	40
94.0651	57
103.0538	197
104.0494	79
105.0447	12
105.0567	18
105.0679	17
106.0645	38
115.0541	21
116.0495	24
117.0573	281
118.0654	999
119.0729	207
120.0811	526
121.0279	48
128.0488	22
130.0661	67
131.061	15
131.0723	22
132.0807	84
133.0762	23
143.072	21
144.0438	18
144.0804	60
145.0754	39
146.0603	139
146.0836	17
148.0389	53
149.0458	13
150.0552	135
159.0919	32
161.1071	38
164.0708	778
176.0703	35
178.0874	13
192.1021	14
