Mass spectrum: Meperidine; LC-ESI-QTOF; MS2; 90 V
Name: Meperidine
Class: Pharmaceutical
Formula: C15H21NO2
Exact mass: 247.1572
SMILES: CCOC(=O)C1(CCN(CC1)C)C2=CC=CC=C2
InChI: InChI=1S/C15H21NO2/c1-3-18-14(17)15(9-11-16(2)12-10-15)13-7-5-4-6-8-13/h4-8H,3,9-12H2,1-2H3
Instrument: TripleTOF 6600 SCIEX
Instrument type: LC-ESI-QTOF
Ms type: MS2
Ion mode: POSITIVE
Collision energy: 90
Fragmentation mode: CID
Ionization: ESI
Column name: Zorbax Eclipse Plus C18 2.1 mm x 150 mm, 3.5 um, Agilent
Retention time: 6.573 min
Precursor m/z: 248.1645
Precursor type: [M+H]+
m/z	relative intensity
37.0068	21
38.0146	17
39.0226	136
41.0379	32
42.0336	544
43.0416	28
44.0492	356
50.0146	48
51.0225	252
53.0382	33
55.0531	10
56.0492	13
57.0564	12
58.0644	12
61.006	12
62.0143	21
63.0224	67
65.0381	481
67.0404	23
68.0485	13
70.0649	97
74.0142	11
75.0216	20
76.0293	13
77.0382	999
78.0457	33
79.0528	32
80.0484	39
81.0562	24
82.0647	44
89.0378	138
91.0537	757
94.065	13
96.0801	23
102.046	94
103.0537	198
105.043	15
115.0538	851
116.061	48
117.0687	10
126.0452	21
127.0538	82
128.0616	255
129.0679	16
130.0618	11
155.0582	13
