Mass spectrum: Nifedipine; LC-ESI-QTOF; MS2; 150 V
Name: Nifedipine
Class: Pharmaceutical
Formula: C17H18N2O6
Exact mass: 346.1165
SMILES: CC1=C(C(C(=C(N1)C)C(=O)OC)C2=CC=CC=C2[N+](=O)[O-])C(=O)OC
InChI: InChI=1S/C17H18N2O6/c1-9-13(16(20)24-3)15(14(10(2)18-9)17(21)25-4)11-7-5-6-8-12(11)19(22)23/h5-8,15,18H,1-4H3
Instrument: TripleTOF 5600 SCIEX
Instrument type: LC-ESI-QTOF
Ms type: MS2
Ion mode: POSITIVE
Collision energy: 150
Fragmentation mode: CID
Ionization: ESI
Column name: Zorbax Eclipse Plus C18 2.1 mm x 150 mm, 3.5 um, Agilent
Retention time: 10.896 min
Precursor m/z: 347.1238
Precursor type: [M+H]+
m/z	relative intensity
42.0471	48
43.0302	11
50.0253	151
52.0356	52
61.0146	82
62.0223	170
63.0301	467
64.0261	11
64.0355	26
65.0456	164
66.0513	11
67.0246	35
73.0123	52
74.0211	450
75.0288	600
76.0366	222
77.0447	752
78.0395	20
78.0517	97
85.0128	48
86.02	188
87.0113	14
87.0275	263
88.034	230
89.0434	793
90.0478	86
91.0585	46
92.0514	13
98.0191	288
99.0264	327
100.0301	145
101.0424	226
102.0499	284
103.0518	33
104.055	20
106.0696	16
110.0182	37
111.0261	29
112.0254	37
113.0417	608
114.041	203
115.0574	581
116.0518	52
117.0587	29
123.0122	14
123.0254	11
125.0423	125
126.0491	424
127.0558	334
128.0581	203
129.0484	29
130.0671	14
137.0413	145
138.0455	170
139.0563	999
140.0519	538
141.0587	41
149.0418	18
150.0479	230
151.0547	237
152.061	312
153.0597	56
154.0647	44
163.0521	44
164.0506	331
165.0538	84
166.0663	220
167.0735	80
168.0831	11
179.0601	31
180.0842	13
181.0773	14
191.0608	67
192.0684	46
