Mass spectrum: Phenothiazine; LC-ESI-QTOF; MS2; 80 V
Name: Phenothiazine
Class: Pharmaceutical
Formula: C12H9NS
Exact mass: 199.0456
SMILES: C1=CC=C2C(=C1)NC3=CC=CC=C3S2
InChI: InChI=1S/C12H9NS/c1-3-7-11-9(5-1)13-10-6-2-4-8-12(10)14-11/h1-8,13H
Instrument: TripleTOF 6600 SCIEX
Instrument type: LC-ESI-QTOF
Ms type: MS2
Ion mode: POSITIVE
Collision energy: 80
Fragmentation mode: CID
Ionization: ESI
Column name: Zorbax Eclipse Plus C18 2.1 mm x 150 mm, 3.5 um, Agilent
Retention time: 13.113 min
Precursor m/z: 200.0529
Precursor type: [M+H]+
m/z	relative intensity
39.0219	23
44.9782	51
50.0142	76
51.0217	167
52.0284	16
53.0376	10
61.0059	21
62.0139	41
63.0214	164
65.0374	71
68.978	159
69.9852	38
74.0135	28
75.0212	72
76.0282	25
77.0372	226
78.0333	16
78.0434	13
81.9855	32
86.0139	20
87.0213	62
88.0286	33
89.0371	250
90.0432	34
91.0523	13
92.9776	14
94.9933	58
98.0141	14
100.0282	17
101.0368	76
102.0437	56
103.0513	13
108.0007	27
109.0076	14
113.0367	298
114.038	101
115.0522	155
116.0487	40
117.0539	14
126.0447	95
127.052	213
128.0482	182
129.0429	38
130.0626	9
137.0368	44
138.0441	37
139.0525	999
140.0483	840
141.0516	37
152.048	17
153.0552	50
154.0626	106
155.0576	33
164.047	59
165.0545	28
166.0634	399
167.0708	143
171.0241	26
196.019	26
197.0273	47
198.0355	10
