Mass spectrum: Bexarotene; LC-ESI-QTOF; MS2; 20 V
Name: Bexarotene
Class: Pharmaceutical
Formula: C24H28O2
Exact mass: 348.2089
SMILES: Cc1cc2c(cc1C(=C)c3ccc(cc3)C(O)=O)C(C)(C)CCC2(C)C
InChI: InChI=1S/C24H28O2/c1-15-13-20-21(24(5,6)12-11-23(20,3)4)14-19(15)16(2)17-7-9-18(10-8-17)22(25)26/h7-10,13-14H,2,11-12H2,1,3-6H3,(H,25,26)
Instrument: TripleTOF 5600 SCIEX
Instrument type: LC-ESI-QTOF
Ms type: MS2
Ion mode: POSITIVE
Collision energy: 20
Fragmentation mode: CID
Ionization: ESI
Column name: Zorbax Eclipse Plus C18 2.1 mm x 150 mm, 3.5 um, Agilent
Retention time: 17.591 min
Precursor m/z: 349.2162
Precursor type: [M+H]+
m/z	relative intensity
227.1815	16
265.1183	17
279.1378	35
293.1525	33
349.2154	999
