Mass spectrum: Betaxolol; LC-ESI-QTOF; MS2; 60 V
Name: Betaxolol
Class: Pharmaceutical
Formula: C18H29NO3
Exact mass: 307.2147
SMILES: CC(C)NCC(COC1=CC=C(C=C1)CCOCC2CC2)O
InChI: InChI=1S/C18H29NO3/c1-14(2)19-11-17(20)13-22-18-7-5-15(6-8-18)9-10-21-12-16-3-4-16/h5-8,14,16-17,19-20H,3-4,9-13H2,1-2H3
Instrument: TripleTOF 5600 SCIEX
Instrument type: LC-ESI-QTOF
Ms type: MS2
Ion mode: POSITIVE
Collision energy: 60
Fragmentation mode: CID
Ionization: ESI
Column name: Zorbax Eclipse Plus C18 2.1 mm x 150 mm, 3.5 um, Agilent
Retention time: 7.064 min
Precursor m/z: 308.222
Precursor type: [M+H]+
m/z	relative intensity
42.047	20
43.0292	23
44.062	23
55.0253	12
56.0587	796
57.0422	15
58.0746	176
65.0463	48
67.0613	81
70.0721	12
72.0875	281
74.0663	384
77.0445	704
78.0503	17
79.0596	376
81.0743	38
84.0849	76
86.0668	12
89.0431	15
91.0587	999
93.0737	161
95.0523	10
98.0998	76
100.1149	102
102.0504	15
103.0579	589
104.0656	92
105.048	12
105.0734	537
107.0521	71
107.0887	12
115.0564	394
116.0641	143
116.1085	87
117.0723	171
119.0515	17
119.0871	40
120.0616	30
121.067	417
127.0553	105
128.0633	294
129.0726	171
130.079	23
131.0516	89
131.0878	71
132.061	30
133.0672	235
135.0819	10
141.0706	179
142.0772	46
143.0863	15
144.0598	148
145.0664	69
146.0738	25
147.0813	40
148.0764	43
149.0713	12
151.0775	17
152.0607	20
153.07	40
155.0848	25
157.0655	51
158.0741	23
159.0802	40
161.0968	17
165.0696	12
169.0658	20
171.0823	25
183.0829	12
