Mass spectrum: Quinmerac; LC-ESI-QTOF; MS2; 120 V
Name: Quinmerac
Class: Herbicide
Formula: C11H8ClNO2
Exact mass: 221.0244
SMILES: Cc1cc2ccc(c(c2nc1)C(=O)O)Cl
InChI: InChI=1S/C11H8ClNO2/c1-6-4-7-2-3-8(12)9(11(14)15)10(7)13-5-6/h2-5H,1H3,(H,14,15)
Instrument: TripleTOF 6600 SCIEX
Instrument type: LC-ESI-QTOF
Ms type: MS2
Ion mode: POSITIVE
Collision energy: 120
Fragmentation mode: CID
Ionization: ESI
Column name: Zorbax Eclipse Plus C18 2.1 mm x 150 mm, 3.5 um, Agilent
Retention time: 7.013 min
Precursor m/z: 222.0316
Precursor type: [M+H]+
m/z	relative intensity
35.9999	31
37.0073	111
38.0155	84
39.0234	132
46.968	84
48.9843	52
49.0074	63
50.0148	158
51.0227	74
52.0196	26
59.9997	116
61.0076	729
62.0152	999
63.0228	703
64.0179	121
64.0312	26
65.0377	26
72.9841	132
73.0073	148
74.0153	412
75.0108	63
75.0231	89
76.0191	21
83.9997	63
85.0073	359
86.0023	31
86.0155	539
87.0114	47
87.0227	375
88.0175	132
88.0306	137
89.0397	52
97.0087	31
98.0152	111
99.0103	148
100.0186	31
111.01	42
113.0382	264
114.0343	52
140.0508	26
