Mass spectrum: Dextrorphan; LC-ESI-QTOF; MS2; 50 V
Name: Dextrorphan
Class: Pharmaceutical; Metabolite
Formula: C17H23NO
Exact mass: 257.178
SMILES: CN1CC[C@@]23CCCC[C@@H]2[C@@H]1CC4=C3C=C(C=C4)O
InChI: InChI=1S/C17H23NO/c1-18-9-8-17-7-3-2-4-14(17)16(18)10-12-5-6-13(19)11-15(12)17/h5-6,11,14,16,19H,2-4,7-10H2,1H3/t14-,16+,17+/m1/s1
Instrument: TripleTOF 5600 SCIEX
Instrument type: LC-ESI-QTOF
Ms type: MS2
Ion mode: POSITIVE
Collision energy: 50
Fragmentation mode: CID
Ionization: ESI
Column name: Zorbax Eclipse Plus C18 2.1 mm x 150 mm, 3.5 um, Agilent
Retention time: 5.969 min
Precursor m/z: 258.1852
Precursor type: [M+H]+
m/z	relative intensity
44.0572	13
69.0737	10
77.0415	15
79.0569	14
91.0557	17
103.0545	10
105.0707	63
107.05	47
115.0548	27
117.0698	18
121.0653	17
127.0546	59
128.0624	71
129.0701	83
131.0492	30
131.0853	14
133.0657	266
141.0698	24
144.057	27
145.0653	116
147.0807	11
157.0655	999
159.0807	85
165.0693	13
171.1161	23
181.1007	16
185.0961	12
199.1118	150
201.1278	32
258.1856	16
