Mass spectrum: Dehydroaripiprazole; LC-ESI-QTOF; MS2; 100 V
Name: Dehydroaripiprazole
Class: Metabolite; Pharmaceutical; Transformation_product-Metabolite
Formula: C23H25Cl2N3O2
Exact mass: 445.1324
SMILES: C1CN(CCN1CCCCOC2=CC3=C(C=C2)C=CC(=O)N3)C4=C(C(=CC=C4)Cl)Cl
InChI: InChI=1S/C23H25Cl2N3O2/c24-19-4-3-5-21(23(19)25)28-13-11-27(12-14-28)10-1-2-15-30-18-8-6-17-7-9-22(29)26-20(17)16-18/h3-9,16H,1-2,10-15H2,(H,26,29)
Instrument: TripleTOF 5600 SCIEX
Instrument type: LC-ESI-QTOF
Ms type: MS2
Ion mode: POSITIVE
Collision energy: 100
Fragmentation mode: CID
Ionization: ESI
Column name: Zorbax Eclipse Plus C18 2.1 mm x 150 mm, 3.5 um, Agilent
Retention time: 7.84 min
Precursor m/z: 446.1397
Precursor type: [M+H]+
m/z	relative intensity
42.0333	77
44.0496	77
55.0537	207
56.0492	493
63.0225	64
69.0692	90
70.0653	129
74.015	64
75.0217	77
77.0389	64
84.0802	467
89.0382	895
90.0452	129
91.0536	246
96.0814	90
98.0962	389
101.0385	90
102.0331	90
108.9832	272
110.998	103
116.0488	791
117.0572	999
118.0652	350
125.0134	64
128.0495	324
138.0104	142
144.0434	376
144.9587	648
151.0191	129
152.026	804
153.0277	168
153.0409	51
158.9772	77
164.0203	181
165.0267	129
171.9702	635
172.9675	324
173.9878	90
188.0012	129
193.0554	51
200.0052	51
212.9985	77
228.0268	64
