Mass spectrum: Progesterone; LC-ESI-QTOF; MS2; 90 V
Name: Progesterone
Class: Pharmaceutical
Formula: C21H30O2
Exact mass: 314.2246
SMILES: CC(=O)[C@H]1CC[C@H]2[C@@H]3CCC4=CC(=O)CC[C@]4(C)[C@H]3CC[C@]12C
InChI: InChI=1S/C21H30O2/c1-13(22)17-6-7-18-16-5-4-14-12-15(23)8-10-20(14,2)19(16)9-11-21(17,18)3/h12,16-19H,4-11H2,1-3H3/t16-,17+,18-,19-,20-,21+/m0/s1
Instrument: TripleTOF 5600 SCIEX
Instrument type: LC-ESI-QTOF
Ms type: MS2
Ion mode: POSITIVE
Collision energy: 90
Fragmentation mode: CID
Ionization: ESI
Column name: Zorbax Eclipse Plus C18 2.1 mm x 150 mm, 3.5 um, Agilent
Retention time: 13.796 min
Precursor m/z: 315.2319
Precursor type: [M+H]+
m/z	relative intensity
43.0272	328
43.0559	21
51.0284	67
55.0235	92
55.0602	71
57.0364	21
65.0424	214
66.0511	46
67.0574	192
69.0367	24
69.0728	74
77.0415	999
78.0483	28
79.0574	842
81.0358	28
81.0722	288
82.0444	28
83.0507	35
91.0555	531
93.0698	64
94.0441	67
95.0556	21
95.0862	57
97.0655	627
103.0548	82
105.0695	156
107.0489	49
108.0564	28
109.0646	417
109.0969	14
115.0537	139
115.0679	14
116.0614	39
117.0715	32
119.0842	17
123.0798	60
127.0527	24
128.061	149
129.071	74
130.078	21
131.0863	24
141.0685	60
152.061	28
153.0712	35
155.0832	21
165.0675	21
178.0768	24
