Mass spectrum: Leucomalachite green; LC-ESI-QTOF; MS2; 60 V
Name: Leucomalachite green
Class: Metabolite
Formula: C23H26N2
Exact mass: 330.2096
SMILES: CN(C)C1=CC=C(C=C1)C(C2=CC=CC=C2)C3=CC=C(C=C3)N(C)C
InChI: InChI=1S/C23H26N2/c1-24(2)21-14-10-19(11-15-21)23(18-8-6-5-7-9-18)20-12-16-22(17-13-20)25(3)4/h5-17,23H,1-4H3
Instrument: TripleTOF 6600 SCIEX
Instrument type: LC-ESI-QTOF
Ms type: MS2
Ion mode: POSITIVE
Collision energy: 60
Fragmentation mode: CID
Ionization: ESI
Column name: Zorbax Eclipse Plus C18 2.1 mm x 150 mm, 3.5 um, Agilent
Retention time: 9.974 min
Precursor m/z: 331.2169
Precursor type: [M+H]+
m/z	relative intensity
120.0792	11
152.062	24
153.0695	23
165.0693	110
166.0771	37
167.0859	16
179.0711	15
180.0791	69
181.0881	26
182.0959	17
192.0804	10
193.0877	39
194.0957	252
195.1039	110
196.1114	67
197.1186	32
208.1115	118
209.111	61
210.1269	65
222.1153	14
223.1226	486
224.1304	299
237.1372	22
238.1425	21
239.1544	999
241.0994	12
256.111	22
257.119	13
270.1276	25
271.1325	15
272.143	29
284.1412	12
286.1593	18
299.1542	76
300.1625	34
315.1856	115
