Mass spectrum: Terfenadine; LC-ESI-QTOF; MS2; 150 V
Name: Terfenadine
Class: Pharmaceutical
Formula: C32H41NO2
Exact mass: 471.3137
SMILES: CC(C)(C)C1=CC=C(C=C1)C(CCCN2CCC(CC2)C(C3=CC=CC=C3)(C4=CC=CC=C4)O)O
InChI: InChI=1S/C32H41NO2/c1-31(2,3)26-18-16-25(17-19-26)30(34)15-10-22-33-23-20-29(21-24-33)32(35,27-11-6-4-7-12-27)28-13-8-5-9-14-28/h4-9,11-14,16-19,29-30,34-35H,10,15,20-24H2,1-3H3
Instrument: TripleTOF 6600 SCIEX
Instrument type: LC-ESI-QTOF
Ms type: MS2
Ion mode: POSITIVE
Collision energy: 150
Fragmentation mode: CID
Ionization: ESI
Column name: Zorbax Eclipse Plus C18 2.1 mm x 150 mm, 3.5 um, Agilent
Retention time: 10.223 min
Precursor m/z: 472.321
Precursor type: [M+H]+
m/z	relative intensity
37.0067	71
39.0217	399
41.037	271
42.0322	57
51.0205	114
65.0366	428
68.0473	71
77.0363	556
78.0438	85
79.0522	71
80.0481	71
82.0628	71
89.0368	99
91.0519	999
102.0442	156
103.0528	99
105.0674	71
115.0513	784
116.0597	128
117.0672	285
126.0439	85
127.0507	185
128.0593	742
141.0668	128
152.0591	142
165.0672	128
189.0668	99
201.0678	85
202.0745	313
215.0824	71
