Mass spectrum: 4'-O-Demethyl pantoprazole sulfide; LC-ESI-QTOF; MS2; 140 V
Name: 4'-O-Demethyl pantoprazole sulfide
Class: Pharmaceutical; Transformation_product-Metabolite
Formula: C15H13F2N3O3S
Exact mass: 353.0646
SMILES: COC1=C(NC=CC1=O)CSC2=NC3=C(N2)C=C(C=C3)OC(F)F
InChI: InChI=1S/C15H13F2N3O3S/c1-22-13-11(18-5-4-12(13)21)7-24-15-19-9-3-2-8(23-14(16)17)6-10(9)20-15/h2-6,14H,7H2,1H3,(H,18,21)(H,19,20)
Instrument: TripleTOF 6600 SCIEX
Instrument type: LC-ESI-QTOF
Ms type: MS2
Ion mode: POSITIVE
Collision energy: 140
Fragmentation mode: CID
Ionization: ESI
Column name: Zorbax Eclipse Plus C18 2.1 mm x 150 mm, 3.5 um, Agilent
Retention time: 7.57 min
Precursor m/z: 354.0719
Precursor type: [M+H]+
m/z	relative intensity
35.9985	37
37.0064	375
38.0024	23
38.0143	356
39.0221	999
40.0168	56
41.0251	267
41.036	28
42.0332	393
43.0174	60
44.0132	51
44.9799	46
50.0144	112
51.0222	178
52.0175	168
52.0296	56
53.0016	286
53.0378	806
53.9958	32
54.033	93
55.0169	112
61.0059	42
62.0138	117
63.0216	384
64.0167	192
65.0374	117
66.0091	553
66.0329	121
67.0175	117
67.04	173
68.0128	154
68.9792	28
70.0278	60
70.9935	84
76.0165	18
78.0327	56
79.0411	46
80.0481	215
81.0338	89
82.0274	32
83.0358	32
86.0067	42
90.0313	37
91.041	32
92.0485	56
94.0272	103
96.0431	37
98.0039	28
108.0425	18
125.9981	56
