Mass spectrum: Metformin; LC-ESI-QTOF; MS2; 60 V
Name: Metformin
Class: Pharmaceutical
Formula: C4H11N5
Exact mass: 129.1014
SMILES: CN(C)C(=N)N=C(N)N
InChI: InChI=1S/C4H11N5/c1-9(2)4(7)8-3(5)6/h1-2H3,(H5,5,6,7,8)
Instrument: TripleTOF 6600 SCIEX
Instrument type: LC-ESI-QTOF
Ms type: MS2
Ion mode: POSITIVE
Collision energy: 60
Fragmentation mode: CID
Ionization: ESI
Column name: Zorbax Eclipse Plus C18 2.1 mm x 150 mm, 3.5 um, Agilent
Retention time: 1.521 min
Precursor m/z: 130.1087
Precursor type: [M+H]+
m/z	relative intensity
30.0334	29
41.0128	30
42.0202	23
42.0331	39
43.0287	999
44.0366	14
44.0488	53
46.0644	61
55.0283	471
56.0361	191
57.0434	43
68.0233	299
71.0592	142
