Mass spectrum: N,N-didesmethyl-venlafaxine; LC-ESI-QTOF; MS2; 80 V
Name: N,N-didesmethyl-venlafaxine
Class: Pharmaceutical; Transformation_product
Formula: C15H23NO2
Exact mass: 249.1729
SMILES: COC1=CC=C(C=C1)C(CN)C2(CCCCC2)O
InChI: InChI=1S/C15H23NO2/c1-18-13-7-5-12(6-8-13)14(11-16)15(17)9-3-2-4-10-15/h5-8,14,17H,2-4,9-11,16H2,1H3
Instrument: TripleTOF 5600 SCIEX
Instrument type: LC-ESI-QTOF
Ms type: MS2
Ion mode: POSITIVE
Collision energy: 80
Fragmentation mode: CID
Ionization: ESI
Column name: Zorbax Eclipse Plus C18 2.1 mm x 150 mm, 3.5 um, Agilent
Retention time: 6.316 min
Precursor m/z: 250.1802
Precursor type: [M+H]+
m/z	relative intensity
65.0411	374
77.0402	953
78.0474	999
79.0552	147
81.0703	56
89.0382	90
91.0546	942
102.047	45
103.0533	170
104.0612	102
106.0402	56
107.0487	79
115.0536	771
116.0617	90
121.0639	499
127.0535	79
128.0597	147
129.072	56
131.0491	170
144.0569	68
