Mass spectrum: Flurtamone; LC-ESI-QTOF; MS2; 80 V
Name: Flurtamone
Class: Herbicide
Formula: C18H14F3NO2
Exact mass: 333.0977
SMILES: CNC1=C(C(=O)C(O1)C2=CC=CC=C2)C3=CC(=CC=C3)C(F)(F)F
InChI: InChI=1S/C18H14F3NO2/c1-22-17-14(12-8-5-9-13(10-12)18(19,20)21)15(23)16(24-17)11-6-3-2-4-7-11/h2-10,16,22H,1H3
Instrument: TripleTOF 6600 SCIEX
Instrument type: LC-ESI-QTOF
Ms type: MS2
Ion mode: POSITIVE
Collision energy: 80
Fragmentation mode: CID
Ionization: ESI
Column name: Zorbax Eclipse Plus C18 2.1 mm x 150 mm, 3.5 um, Agilent
Retention time: 11.864 min
Precursor m/z: 334.105
Precursor type: [M+H]+
m/z	relative intensity
42.0338	17
50.015	14
51.0229	55
58.0287	25
77.0388	260
91.0543	10
102.0464	11
103.0539	10
105.0345	29
126.0465	15
128.0619	26
139.0546	16
145.0261	16
150.0468	24
151.0531	235
152.0627	454
163.055	15
165.0705	20
169.0266	39
170.0528	11
175.0547	14
176.0634	532
177.0709	359
178.0789	999
181.0454	32
183.0609	14
187.055	28
189.0708	17
196.0693	84
201.0523	72
205.0469	38
206.0536	50
207.0621	413
214.0597	10
225.0528	123
227.0683	190
245.0591	37
246.0668	44
