Mass spectrum: Chloridazon; LC-ESI-QTOF; MS2; 90 V
Name: Chloridazon
Class: Herbicide
Formula: C10H8ClN3O
Exact mass: 221.0356
SMILES: C1=CC=C(C=C1)N2C(=O)C(=C(C=N2)N)Cl
InChI: InChI=1S/C10H8ClN3O/c11-9-8(12)6-13-14(10(9)15)7-4-2-1-3-5-7/h1-6H,12H2
Instrument: TripleTOF 6600 SCIEX
Instrument type: LC-ESI-QTOF
Ms type: MS2
Ion mode: POSITIVE
Collision energy: 90
Fragmentation mode: CID
Ionization: ESI
Column name: Zorbax Eclipse Plus C18 2.1 mm x 150 mm, 3.5 um, Agilent
Retention time: 6.924 min
Precursor m/z: 222.0429
Precursor type: [M+H]+
m/z	relative intensity
37.0075	49
38.0153	37
39.0106	15
39.0233	232
40.0182	12
41.0263	15
46.9681	43
48.9849	18
49.0073	105
50.0153	604
51.0232	999
52.0183	142
53.026	43
54.0336	18
55.029	27
60.9835	15
62.0148	34
63.0225	43
63.9949	18
65.0382	183
66.0212	232
66.0467	40
73.9788	43
74.0149	31
74.987	27
75.0232	27
77.0387	241
87.9945	65
88.029	15
89.0386	27
92.0498	21
93.0575	15
104.0501	15
