Mass spectrum: 5,6-Dimethyl-1H-benzotriazol; LC-ESI-QTOF; MS2; 40 V
Name: 5,6-Dimethyl-1H-benzotriazol
Class: Industrial_process; Antimicrobial
Formula: C8H9N3
Exact mass: 147.0796
SMILES: Cc1cc2n[nH]nc2cc1C
InChI: InChI=1S/C8H9N3/c1-5-3-7-8(4-6(5)2)10-11-9-7/h3-4H,1-2H3,(H,9,10,11)
Instrument: TripleTOF 5600 SCIEX
Instrument type: LC-ESI-QTOF
Ms type: MS2
Ion mode: POSITIVE
Collision energy: 40
Fragmentation mode: CID
Ionization: ESI
Column name: Zorbax Eclipse Plus C18 2.1 mm x 150 mm, 3.5 um, Agilent
Retention time: 8.012 min
Precursor m/z: 148.0869
Precursor type: [M+H]+
m/z	relative intensity
53.0441	26
65.0428	121
66.0498	17
77.0421	999
78.0372	15
78.0481	55
79.0564	21
80.0521	73
91.0562	395
92.0507	25
93.0658	151
94.0661	16
102.0469	17
103.0545	44
104.05	248
105.0569	50
117.0566	15
118.065	82
119.0726	31
120.0814	18
148.0866	53
