Mass spectrum: Propiconazole; LC-ESI-QTOF; MS2; 90 V
Name: Propiconazole
Class: Fungicide; Biocide
Formula: C15H17Cl2N3O2
Exact mass: 341.0698
SMILES: CCCC1COC(Cn2cncn2)(O1)c3ccc(Cl)cc3Cl
InChI: InChI=1S/C15H17Cl2N3O2/c1-2-3-12-7-21-15(22-12,8-20-10-18-9-19-20)13-5-4-11(16)6-14(13)17/h4-6,9-10,12H,2-3,7-8H2,1H3
Instrument: TripleTOF 5600 SCIEX
Instrument type: LC-ESI-QTOF
Ms type: MS2
Ion mode: POSITIVE
Collision energy: 90
Fragmentation mode: CID
Ionization: ESI
Column name: Zorbax Eclipse Plus C18 2.1 mm x 150 mm, 3.5 um, Agilent
Retention time: 13.45 min
Precursor m/z: 342.0771
Precursor type: [M+H]+
m/z	relative intensity
69.0726	21
70.0429	38
72.9873	206
74.0181	68
75.0251	15
82.9465	19
87.0238	11
88.0315	41
89.041	790
96.9842	97
99.0001	316
108.9837	262
110.9981	16
122.9997	981
124.0067	347
132.9598	191
144.9596	249
158.9759	999
172.9621	105
