Mass spectrum: Florasulam; LC-ESI-QTOF; MS2; 110 V
Name: Florasulam
Class: Herbicide
Formula: C12H8F3N5O3S
Exact mass: 359.03
SMILES: COC1=NC=C(C2=NC(=NN21)S(=O)(=O)NC3=C(C=CC=C3F)F)F
InChI: InChI=1S/C12H8F3N5O3S/c1-23-12-16-5-8(15)10-17-11(18-20(10)12)24(21,22)19-9-6(13)3-2-4-7(9)14/h2-5,19H,1H3
Instrument: TripleTOF 6600 SCIEX
Instrument type: LC-ESI-QTOF
Ms type: MS2
Ion mode: POSITIVE
Collision energy: 110
Fragmentation mode: CID
Ionization: ESI
Column name: Zorbax Eclipse Plus C18 2.1 mm x 150 mm, 3.5 um, Agilent
Retention time: 9.723 min
Precursor m/z: 360.0373
Precursor type: [M+H]+
m/z	relative intensity
38.0128	13
50.0126	9
51.0017	37
51.0197	23
52.0154	58
56.003	16
57.0105	48
58.0059	16
59.0135	11
59.9962	46
61.0042	148
62.0127	477
63.008	13
63.0201	537
64.0141	11
65.0234	16
70.0061	67
75.0014	97
76.0149	50
77.0115	23
78.0305	9
81.0106	999
82.0182	775
83.0123	15
83.0256	18
84.0088	34
85.0285	11
87.0068	13
88.0157	113
89.0229	242
90.0307	11
96.0201	11
97.0167	16
100.0156	18
101.0166	303
102.0241	117
108.0205	100
109.0296	393
128.0287	22
129.0357	253
