Mass spectrum: Gabapentin-lactam; LC-ESI-QTOF; MS2; 40 V
Name: Gabapentin-lactam
Class: Pharmaceutical; Transformation_product-Metabolite
Formula: C9H15NO
Exact mass: 153.1154
SMILES: C1CCC2(CC1)CC(=O)NC2
InChI: InChI=1S/C9H15NO/c11-8-6-9(7-10-8)4-2-1-3-5-9/h1-7H2,(H,10,11)
Instrument: TripleTOF 5600 SCIEX
Instrument type: LC-ESI-QTOF
Ms type: MS2
Ion mode: POSITIVE
Collision energy: 40
Fragmentation mode: CID
Ionization: ESI
Column name: Zorbax Eclipse Plus C18 2.1 mm x 150 mm, 3.5 um, Agilent
Retention time: 7.593 min
Precursor m/z: 154.1227
Precursor type: [M+H]+
m/z	relative intensity
39.0222	58
41.0385	79
43.0175	31
44.0126	95
53.0383	37
54.0333	53
55.018	26
55.054	255
60.0444	53
65.0384	100
67.0541	876
69.0698	58
72.0443	122
77.0381	122
79.0547	58
80.0611	42
81.0693	37
91.0547	185
93.0698	196
95.0854	972
109.1015	53
112.1127	37
154.1229	999
