Mass spectrum: 5-(3,4,5-Trimethoxybenzoyl)-2,4-pyrimidinediamine; LC-ESI-QTOF; MS2; 110 V
Name: 5-(3,4,5-Trimethoxybenzoyl)-2,4-pyrimidinediamine
Class: Pharmaceutical; Transformation_product
Formula: C14H16N4O4
Exact mass: 304.1172
SMILES: COc1cc(cc(c1OC)OC)C(=O)c2cnc(nc2N)N
InChI: InChI=1S/C14H16N4O4/c1-20-9-4-7(5-10(21-2)12(9)22-3)11(19)8-6-17-14(16)18-13(8)15/h4-6H,1-3H3,(H4,15,16,17,18)
Instrument: TripleTOF 5600 SCIEX
Instrument type: LC-ESI-QTOF
Ms type: MS2
Ion mode: POSITIVE
Collision energy: 110
Fragmentation mode: CID
Ionization: ESI
Column name: Zorbax Eclipse Plus C18 2.1 mm x 150 mm, 3.5 um, Agilent
Retention time: 5.86 min
Precursor m/z: 305.1244
Precursor type: [M+H]+
m/z	relative intensity
40.0275	74
43.0375	131
52.0233	39
53.0112	87
55.0338	56
64.0352	39
65.0176	70
65.0292	30
65.0437	175
66.0187	74
67.0216	17
67.0341	96
68.0185	999
69.003	43
69.0495	43
70.0317	43
74.0179	43
75.0146	21
75.0257	92
76.0215	43
76.0319	26
76.0421	21
77.0409	420
78.0367	219
79.0244	56
79.0431	92
80.0262	21
80.0518	131
81.0368	56
82.0392	17
83.0503	61
87.0252	26
88.0207	65
88.0386	17
89.0402	201
90.0359	109
91.0421	35
92.0285	118
92.0478	39
93.0107	17
93.0442	78
94.0056	30
94.0513	56
95.0252	105
95.0503	26
100.018	35
101.0395	56
102.0354	122
103.0299	65
103.0419	21
104.0354	30
104.0487	92
105.0428	276
106.0539	52
107.0163	26
108.02	52
109.0266	17
109.0511	52
110.059	74
114.0341	131
115.0391	35
116.0488	87
117.0488	56
118.0384	35
119.0216	21
119.0585	26
120.0176	30
120.0547	135
121.0292	39
128.044	35
129.0418	100
130.0403	105
131.0602	39
132.05	26
133.0416	17
135.0612	35
140.0467	26
142.0484	26
144.0553	39
145.0582	56
147.064	113
154.0405	43
158.0499	21
159.0645	21
171.0665	39
173.0526	21
189.0792	21
