Mass spectrum: Lumichrome; LC-ESI-QTOF; MS2; 80 V
Name: Lumichrome
Class: Pharmaceutical
Formula: C12H10N4O2
Exact mass: 242.0804
SMILES: CC1=CC2=C(C=C1C)N=C3C(=N2)C(=O)NC(=O)N3
InChI: InChI=1S/C12H10N4O2/c1-5-3-7-8(4-6(5)2)14-10-9(13-7)11(17)16-12(18)15-10/h3-4H,1-2H3,(H2,14,15,16,17,18)
Instrument: TripleTOF 6600 SCIEX
Instrument type: LC-ESI-QTOF
Ms type: MS2
Ion mode: POSITIVE
Collision energy: 80
Fragmentation mode: CID
Ionization: ESI
Column name: Zorbax Eclipse Plus C18 2.1 mm x 150 mm, 3.5 um, Agilent
Retention time: 7.067 min
Precursor m/z: 243.0877
Precursor type: [M+H]+
m/z	relative intensity
39.0232	22
49.008	17
50.0155	83
51.0236	352
62.0154	11
63.024	73
64.019	15
65.0389	120
74.0157	21
75.0238	92
76.0186	22
76.0308	26
77.0393	999
78.0333	11
78.0469	33
89.0393	213
90.0352	15
90.0452	16
91.0546	165
100.0187	10
101.039	36
102.0341	51
102.0467	68
103.0417	17
103.0543	92
104.0494	40
105.0456	32
114.0345	21
115.0431	19
116.0501	141
117.0577	49
118.0658	11
128.0501	17
129.0448	48
130.041	30
131.0614	10
142.0515	15
156.0561	41
