Mass spectrum: Ethylparaben; LC-ESI-QTOF; MS2; 50 V
Name: Ethylparaben
Class: Antimicrobial; Food_additive; Personal_care_product
Formula: C9H10O3
Exact mass: 166.063
SMILES: CCOC(=O)C1=CC=C(C=C1)O
InChI: InChI=1S/C9H10O3/c1-2-12-9(11)7-3-5-8(10)6-4-7/h3-6,10H,2H2,1H3
Instrument: TripleTOF 5600 SCIEX
Instrument type: LC-ESI-QTOF
Ms type: MS2
Ion mode: POSITIVE
Collision energy: 50
Fragmentation mode: CID
Ionization: ESI
Column name: Zorbax Eclipse Plus C18 2.1 mm x 150 mm, 3.5 um, Agilent
Retention time: 8.834 min
Precursor m/z: 167.0703
Precursor type: [M+H]+
m/z	relative intensity
65.0454	563
67.0599	24
77.0433	999
93.0357	235
95.0514	73
121.0303	156
