Mass spectrum: Dimethenamid-OA; LC-ESI-QTOF; MS2; 90 V
Name: Dimethenamid-OA
Class: Transformation_product; Herbicide
Formula: C12H17NO4S
Exact mass: 271.0878
SMILES: Cc1csc(c1N(C(C)COC)C(=O)C(=O)O)C
InChI: InChI=1S/C12H17NO4S/c1-7-6-18-9(3)10(7)13(8(2)5-17-4)11(14)12(15)16/h6,8H,5H2,1-4H3,(H,15,16)
Instrument: TripleTOF 6600 SCIEX
Instrument type: LC-ESI-QTOF
Ms type: MS2
Ion mode: POSITIVE
Collision energy: 90
Fragmentation mode: CID
Ionization: ESI
Column name: Zorbax Eclipse Plus C18 2.1 mm x 150 mm, 3.5 um, Agilent
Retention time: 8.208 min
Precursor m/z: 272.0951
Precursor type: [M+H]+
m/z	relative intensity
39.0233	666
41.0391	399
44.9796	799
45.034	333
51.0231	466
53.0389	532
58.9957	666
59.991	399
65.0388	999
66.048	333
67.042	333
67.0549	532
70.9947	333
77.0388	932
78.0467	399
80.0497	532
91.0524	266
92.0459	266
93.0572	532
94.065	932
97.0103	799
104.0512	466
111.0263	666
126.0352	333
