Mass spectrum: Allethrin; LC-ESI-QTOF; MS2; 110 V
Name: Allethrin
Class: Insecticide
Formula: C19H26O3
Exact mass: 302.1882
SMILES: CC(C)=CC1C(C(=O)OC2CC(=O)C(=C2C)CC=C)C1(C)C
InChI: InChI=1S/C19H26O3/c1-7-8-13-12(4)16(10-15(13)20)22-18(21)17-14(9-11(2)3)19(17,5)6/h7,9,14,16-17H,1,8,10H2,2-6H3
Instrument: TripleTOF 5600 SCIEX
Instrument type: LC-ESI-QTOF
Ms type: MS2
Ion mode: POSITIVE
Collision energy: 110
Fragmentation mode: CID
Ionization: ESI
Column name: Zorbax Eclipse Plus C18 2.1 mm x 150 mm, 3.5 um, Agilent
Retention time: 16.132 min
Precursor m/z: 303.1955
Precursor type: [M+H]+
m/z	relative intensity
53.044	27
55.059	33
65.0426	686
66.051	27
67.0582	88
77.0415	999
77.0673	33
78.0499	33
79.0563	278
81.0724	33
89.0403	81
91.0555	876
91.0769	61
93.0712	47
102.0467	47
103.0546	47
105.0696	61
107.0505	47
115.0541	237
128.0619	47
141.0696	47
