Mass spectrum: Propaquizafop; LC-ESI-QTOF; MS2; 100 V
Name: Propaquizafop
Class: Herbicide
Formula: C22H22ClN3O5
Exact mass: 443.1248
SMILES: CC(Oc1ccc(Oc2cnc3cc(Cl)ccc3n2)cc1)C(=O)OCCON=C(C)C
InChI: InChI=1S/C22H22ClN3O5/c1-14(2)26-29-11-10-28-22(27)15(3)30-17-5-7-18(8-6-17)31-21-13-24-20-12-16(23)4-9-19(20)25-21/h4-9,12-13,15H,10-11H2,1-3H3
Instrument: TripleTOF 6600 SCIEX
Instrument type: LC-ESI-QTOF
Ms type: MS2
Ion mode: POSITIVE
Collision energy: 100
Fragmentation mode: CID
Ionization: ESI
Column name: Zorbax Eclipse Plus C18 2.1 mm x 150 mm, 3.5 um, Agilent
Retention time: 15.307 min
Precursor m/z: 444.1321
Precursor type: [M+H]+
m/z	relative intensity
39.0226	63
42.0343	42
51.023	74
54.0353	85
55.0179	85
55.0421	138
56.0497	488
63.0238	85
65.0385	244
70.0651	595
74.0151	63
75.0229	138
77.0385	255
79.0562	53
91.0541	435
99.0054	180
99.0438	350
100.0177	999
100.0535	63
102.0344	95
108.9844	74
109.9914	95
110.999	53
115.0395	63
123.0021	53
123.9944	95
135.9945	499
137.0013	138
137.0382	53
138.0459	233
139.0563	53
140.049	180
142.052	42
149.0125	63
151.0551	63
152.0148	127
152.0509	116
153.0552	85
163.0058	478
164.001	733
164.0493	903
165.0439	74
165.0576	425
166.0647	138
168.0721	42
173.0152	85
174.0109	63
177.0186	53
179.0611	265
180.0673	42
190.053	63
191.0603	531
192.0686	807
193.0774	191
194.0845	74
202.0283	42
207.0914	74
208.0689	42
215.0376	53
216.067	63
217.0764	63
218.0815	53
226.0304	106
227.0343	53
228.051	53
