Mass spectrum: Lenalidomide; LC-ESI-QTOF; MS2; 80 V
Name: Lenalidomide
Class: Pharmaceutical
Formula: C13H13N3O3
Exact mass: 259.0957
SMILES: Nc1cccc2C(=O)N(Cc12)C3CCC(=O)NC3=O
InChI: InChI=1S/C13H13N3O3/c14-9-3-1-2-7-8(9)6-16(13(7)19)10-4-5-11(17)15-12(10)18/h1-3,10H,4-6,14H2,(H,15,17,18)
Instrument: TripleTOF 5600 SCIEX
Instrument type: LC-ESI-QTOF
Ms type: MS2
Ion mode: POSITIVE
Collision energy: 80
Fragmentation mode: CID
Ionization: ESI
Column name: Zorbax Eclipse Plus C18 2.1 mm x 150 mm, 3.5 um, Agilent
Retention time: 5.24 min
Precursor m/z: 260.103
Precursor type: [M+H]+
m/z	relative intensity
65.0432	384
77.0412	960
77.0653	96
78.0406	230
79.0578	230
84.0493	76
89.0406	230
92.0506	614
102.033	96
104.0502	999
105.059	115
106.0661	441
115.0535	326
116.0492	115
117.0568	134
119.0601	288
130.0425	76
130.0636	96
131.0622	192
144.0677	76
147.058	96
