Mass spectrum: Phencyclidine; LC-ESI-QTOF; MS2; 30 V
Name: Phencyclidine
Class: Pharmaceutical
Formula: C17H25N
Exact mass: 243.1987
SMILES: C1CCC(CC1)(C2=CC=CC=C2)N3CCCCC3
InChI: InChI=1S/C17H25N/c1-4-10-16(11-5-1)17(12-6-2-7-13-17)18-14-8-3-9-15-18/h1,4-5,10-11H,2-3,6-9,12-15H2
Instrument: TripleTOF 6600 SCIEX
Instrument type: LC-ESI-QTOF
Ms type: MS2
Ion mode: POSITIVE
Collision energy: 30
Fragmentation mode: CID
Ionization: ESI
Column name: Zorbax Eclipse Plus C18 2.1 mm x 150 mm, 3.5 um, Agilent
Retention time: 7.311 min
Precursor m/z: 244.206
Precursor type: [M+H]+
m/z	relative intensity
81.0687	89
86.0958	759
91.0542	999
117.0687	39
159.1161	212
