Mass spectrum: Paroxetine; LC-ESI-QTOF; MS2; 40 V
Name: Paroxetine
Class: Pharmaceutical
Formula: C19H20FNO3
Exact mass: 329.1427
SMILES: C1CNCC(C1C2=CC=C(C=C2)F)COC3=CC4=C(C=C3)OCO4
InChI: InChI=1S/C19H20FNO3/c20-15-3-1-13(2-4-15)17-7-8-21-10-14(17)11-22-16-5-6-18-19(9-16)24-12-23-18/h1-6,9,14,17,21H,7-8,10-12H2
Instrument: TripleTOF 5600 SCIEX
Instrument type: LC-ESI-QTOF
Ms type: MS2
Ion mode: POSITIVE
Collision energy: 40
Fragmentation mode: CID
Ionization: ESI
Column name: Zorbax Eclipse Plus C18 2.1 mm x 150 mm, 3.5 um, Agilent
Retention time: 7.812 min
Precursor m/z: 330.15
Precursor type: [M+H]+
m/z	relative intensity
39.0226	15
41.0385	27
42.0338	16
43.0541	11
44.0498	210
56.0498	45
68.0493	49
70.0653	999
71.072	11
82.065	47
83.0728	11
84.0803	25
86.0607	11
93.0335	43
96.0815	17
97.0881	37
103.0541	36
109.0447	259
115.0549	16
123.0601	330
133.045	24
135.0604	300
136.0674	83
137.0768	14
138.0713	29
139.038	20
143.0845	10
146.0528	19
147.0598	90
148.068	59
149.0763	46
150.0703	85
151.0387	301
161.0761	180
163.0921	291
164.0871	78
175.0915	20
176.0987	38
178.1031	181
190.1007	18
192.1184	861
193.1251	21
330.1495	208
