Mass spectrum: Acid Red 1; LC-ESI-QTOF; MS2; 70 V
Name: Acid Red 1
Class: Industrial_process; Personal_care_product; Pigment; Food_additive
Formula: C18H15N3O8S2
Exact mass: 465.0301
SMILES: CC(NC1=C2C(C=C(S(=O)(O)=O)/C(C2=O)=N\NC3=CC=CC=C3)=CC(S(=O)(O)=O)=C1)=O
InChI: InChI=1S/C18H15N3O8S2/c1-10(22)19-14-9-13(30(24,25)26)7-11-8-15(31(27,28)29)17(18(23)16(11)14)21-20-12-5-3-2-4-6-12/h2-9,20H,1H3,(H,19,22)(H,24,25,26)(H,27,28,29)/b21-17+
Instrument: TripleTOF 5600 SCIEX
Instrument type: LC-ESI-QTOF
Ms type: MS2
Ion mode: NEGATIVE
Collision energy: 70
Fragmentation mode: CID
Ionization: ESI
Column name: Zorbax Eclipse Plus C18 2.1 mm x 150 mm, 3.5 um, Agilent
Retention time: 7.21 min
Precursor m/z: 464.0228
Precursor type: [M-H]-
m/z	relative intensity
79.9561	210
80.9686	52
129.0341	52
143.0245	315
145.0386	78
156.0443	157
157.0274	131
157.045	236
160.0406	52
172.0391	184
173.0482	131
184.0375	78
185.0354	999
195.994	105
200.033	788
208.0074	105
208.0184	78
209.02	52
214.0583	78
222.0189	105
224.0035	157
227.0421	157
235.9987	105
236.0128	105
237.0094	236
253.0052	184
262.0175	394
263.0119	157
263.9981	893
278.0143	184
279.0173	78
341.9707	131
343.9559	341
