Mass spectrum: Isopropyltriphenylphosphonium; LC-ESI-QTOF; MS2; 140 V
Name: Isopropyltriphenylphosphonium
Formula: [C21H22P]+
Exact mass: 305.1454
SMILES: CC(C)[P+](C1=CC=CC=C1)(C2=CC=CC=C2)C3=CC=CC=C3
InChI: InChI=1S/C21H22P/c1-18(2)22(19-12-6-3-7-13-19,20-14-8-4-9-15-20)21-16-10-5-11-17-21/h3-18H,1-2H3/q+1
Instrument: TripleTOF 5600 SCIEX
Instrument type: LC-ESI-QTOF
Ms type: MS2
Ion mode: POSITIVE
Collision energy: 140
Fragmentation mode: CID
Ionization: ESI
Column name: Zorbax Eclipse Plus C18 2.1 mm x 150 mm, 3.5 um, Agilent
Retention time: 7.721 min
Precursor m/z: 305.1454
Precursor type: [M]+
m/z	relative intensity
39.0233	78
50.015	53
51.0227	76
56.9888	126
62.0142	74
63.0226	243
65.0376	111
74.014	115
76.0289	106
77.0371	88
78.0454	56
78.9721	63
79.98	291
80.9876	367
86.0134	53
87.0205	127
89.0365	348
98.0121	69
102.0441	156
103.979	103
104.986	65
107.0026	999
113.0368	115
115.0525	236
125.0373	51
126.0447	335
131.0025	138
139.0528	161
150.0455	430
151.0532	510
152.0603	383
155.0026	129
156.0114	95
157.0193	225
179.0026	122
180.0112	158
181.0184	385
