Mass spectrum: Paroxetine; LC-ESI-QTOF; MS2; 110 V
Name: Paroxetine
Class: Pharmaceutical
Formula: C19H20FNO3
Exact mass: 329.1427
SMILES: C1CNCC(C1C2=CC=C(C=C2)F)COC3=CC4=C(C=C3)OCO4
InChI: InChI=1S/C19H20FNO3/c20-15-3-1-13(2-4-15)17-7-8-21-10-14(17)11-22-16-5-6-18-19(9-16)24-12-23-18/h1-6,9,14,17,21H,7-8,10-12H2
Instrument: TripleTOF 5600 SCIEX
Instrument type: LC-ESI-QTOF
Ms type: MS2
Ion mode: POSITIVE
Collision energy: 110
Fragmentation mode: CID
Ionization: ESI
Column name: Zorbax Eclipse Plus C18 2.1 mm x 150 mm, 3.5 um, Agilent
Retention time: 7.812 min
Precursor m/z: 330.15
Precursor type: [M+H]+
m/z	relative intensity
37.0072	36
38.0153	36
39.0231	232
41.0385	199
42.0333	55
43.0541	19
44.0495	239
51.0225	29
53.003	19
56.0491	45
57.0138	49
59.0303	22
62.0144	16
63.0235	42
65.0388	68
67.0425	13
68.0502	49
70.0652	245
74.0157	49
75.0226	114
77.0384	222
81.0136	16
81.0334	32
82.0663	45
83.029	655
89.0385	153
91.0539	19
95.0291	42
96.0373	36
99.0234	19
101.0381	85
102.0453	32
103.0545	58
107.028	75
108.0386	22
109.0449	999
113.0379	13
115.0542	674
120.0364	52
121.0461	19
123.061	22
125.0362	22
126.0437	22
127.054	75
128.0617	65
133.045	655
134.0535	32
135.045	16
135.0605	140
137.0232	13
145.0467	42
146.0531	281
147.0587	32
