Mass spectrum: Cyclopropyldiphenylsulfonium; LC-ESI-QTOF; MS2; 100 V
Name: Cyclopropyldiphenylsulfonium
Formula: [C15H15S]+
Exact mass: 227.0889
SMILES: C1CC1[S+](C2=CC=CC=C2)C3=CC=CC=C3
InChI: InChI=1S/C15H15S/c1-3-7-13(8-4-1)16(15-11-12-15)14-9-5-2-6-10-14/h1-10,15H,11-12H2/q+1
Instrument: TripleTOF 5600 SCIEX
Instrument type: LC-ESI-QTOF
Ms type: MS2
Ion mode: POSITIVE
Collision energy: 100
Fragmentation mode: CID
Ionization: ESI
Column name: Zorbax Eclipse Plus C18 2.1 mm x 150 mm, 3.5 um, Agilent
Retention time: 5.55 min
Precursor m/z: 227.0889
Precursor type: [M]+
m/z	relative intensity
39.0234	155
49.0075	84
50.0153	467
51.0233	986
63.0226	116
65.0381	240
68.9786	304
74.0135	77
75.0217	77
76.0301	58
77.0377	454
87.0199	58
89.0372	311
91.0526	116
102.0467	84
113.0362	123
114.0439	71
115.0527	480
126.0454	181
134.018	136
138.0448	51
139.0538	999
150.0459	188
151.0537	389
152.0616	583
183.0261	97
184.0351	240
