Mass spectrum: Acetonyltriphenylphosphonium; LC-ESI-QTOF; MS2; 130 V
Name: Acetonyltriphenylphosphonium
Formula: [C21H20OP]+
Exact mass: 319.1246
SMILES: CC(=O)C[P+](C1=CC=CC=C1)(C2=CC=CC=C2)C3=CC=CC=C3
InChI: InChI=1S/C21H20OP/c1-18(22)17-23(19-11-5-2-6-12-19,20-13-7-3-8-14-20)21-15-9-4-10-16-21/h2-16H,17H2,1H3/q+1
Instrument: TripleTOF 5600 SCIEX
Instrument type: LC-ESI-QTOF
Ms type: MS2
Ion mode: POSITIVE
Collision energy: 130
Fragmentation mode: CID
Ionization: ESI
Column name: Zorbax Eclipse Plus C18 2.1 mm x 150 mm, 3.5 um, Agilent
Retention time: 7.28 min
Precursor m/z: 319.1246
Precursor type: [M]+
m/z	relative intensity
51.0227	74
63.0225	81
65.0382	80
77.0375	103
80.9876	174
89.037	243
102.0451	94
107.003	597
113.0374	87
115.053	385
126.045	250
131.0032	99
133.0192	81
139.0535	327
150.0457	208
151.0535	521
152.0613	999
155.0038	55
156.0117	102
157.0197	513
180.0112	57
181.02	479
183.0355	160
200.0609	76
213.0688	73
224.0615	110
225.0705	61
226.0777	228
255.0357	139
257.0524	126
