Mass spectrum: Eprosartan; LC-ESI-QTOF; MS2; 40 V
Name: Eprosartan
Class: Pharmaceutical
Formula: C23H24N2O4S
Exact mass: 424.1457
SMILES: CCCCc1ncc(\C=C(/Cc2sccc2)C(O)=O)n1Cc3ccc(cc3)C(O)=O
InChI: InChI=1S/C23H24N2O4S/c1-2-3-6-21-24-14-19(12-18(23(28)29)13-20-5-4-11-30-20)25(21)15-16-7-9-17(10-8-16)22(26)27/h4-5,7-12,14H,2-3,6,13,15H2,1H3,(H,26,27)(H,28,29)/b18-12+
Instrument: TripleTOF 5600 SCIEX
Instrument type: LC-ESI-QTOF
Ms type: MS2
Ion mode: NEGATIVE
Collision energy: 40
Fragmentation mode: CID
Ionization: ESI
Column name: Zorbax Eclipse Plus C18 2.1 mm x 150 mm, 3.5 um, Agilent
Retention time: 6.955 min
Precursor m/z: 423.1384
Precursor type: [M-H]-
m/z	relative intensity
91.0578	53
96.0048	53
97.0112	428
121.0294	151
135.0455	196
137.108	80
180.0688	89
199.059	303
201.0529	80
208.0997	89
215.0657	517
237.1408	401
238.1495	53
244.1053	999
245.1139	445
257.1118	89
281.1341	187
301.1745	62
322.0828	80
335.1592	312
379.154	115
