Mass spectrum: Amido Black 10B; LC-ESI-QTOF; MS2; 110 V
Name: Amido Black 10B
Formula: C22H16N6O9S2
Exact mass: 572.042
SMILES: C1=CC=C(C=C1)N=NC2=C(C3=C(C(=C(C=C3C=C2S(=O)(=O)O)S(=O)(=O)O)N=NC4=CC=C(C=C4)[N+](=O)[O-])N)O
InChI: InChI=1S/C22H16N6O9S2/c23-19-18-12(11-17(39(35,36)37)21(22(18)29)27-24-13-4-2-1-3-5-13)10-16(38(32,33)34)20(19)26-25-14-6-8-15(9-7-14)28(30)31/h1-11,29H,23H2,(H,32,33,34)(H,35,36,37)
Instrument: TripleTOF 6600 SCIEX
Instrument type: LC-ESI-QTOF
Ms type: MS2
Ion mode: POSITIVE
Collision energy: 110
Fragmentation mode: CID
Ionization: ESI
Column name: Zorbax Eclipse Plus C18 2.1 mm x 150 mm, 3.5 um, Agilent
Retention time: 9.552 min
Precursor m/z: 573.0493
Precursor type: [M+H]+
m/z	relative intensity
39.0228	69
51.0223	19
63.0238	36
64.03	15
65.0382	672
66.046	186
74.0156	18
75.0228	196
76.0288	23
77.0384	121
78.0333	24
80.0489	39
88.0171	13
90.0335	47
92.0258	22
92.049	270
93.057	999
102.0333	60
103.0426	13
112.0169	10
114.0325	47
117.0449	34
129.0438	43
130.0314	18
139.0296	24
140.052	10
145.0395	32
150.0355	13
151.0499	24
152.0525	13
153.0451	11
157.0377	10
163.043	17
164.0463	23
165.044	12
166.0541	11
173.0323	41
175.0409	11
176.0497	23
177.0549	28
178.0575	20
179.0589	11
188.0442	39
189.0435	61
190.0559	29
191.0592	17
192.06	11
192.072	11
201.0544	11
202.0549	9
203.0631	32
204.0571	46
205.0755	42
206.0755	20
214.0401	15
215.0511	41
216.0565	61
217.0622	40
220.0765	15
228.0576	11
230.069	89
231.0767	49
232.0674	11
232.0845	16
241.0474	10
242.0577	52
243.0674	33
248.0739	14
269.043	14
270.0553	23
280.0882	11
291.0772	18
305.0873	11
318.0931	12
319.0918	12
