Mass spectrum: Alachlor; LC-ESI-QTOF; MS2; 100 V
Name: Alachlor
Class: Herbicide
Formula: C14H20ClNO2
Exact mass: 269.1183
SMILES: CCC1=C(C(=CC=C1)CC)N(COC)C(=O)CCl
InChI: InChI=1S/C14H20ClNO2/c1-4-11-7-6-8-12(5-2)14(11)16(10-18-3)13(17)9-15/h6-8H,4-5,9-10H2,1-3H3
Instrument: TripleTOF 6600 SCIEX
Instrument type: LC-ESI-QTOF
Ms type: MS2
Ion mode: POSITIVE
Collision energy: 100
Fragmentation mode: CID
Ionization: ESI
Column name: Zorbax Eclipse Plus C18 2.1 mm x 150 mm, 3.5 um, Agilent
Retention time: 13.233 min
Precursor m/z: 270.1255
Precursor type: [M+H]+
m/z	relative intensity
31.0168	315
39.0225	236
45.033	368
48.9822	420
51.0221	210
63.0214	157
65.0376	289
77.0373	709
78.0446	105
79.0523	131
89.0374	683
90.0439	420
91.0535	420
103.0542	184
115.0532	683
117.0553	999
118.0678	184
127.0527	131
128.0616	184
130.0646	394
132.0796	262
144.0794	131
