Mass spectrum: 2-Hydroxycarbamazepine; LC-ESI-QTOF; MS2; 80 V
Name: 2-Hydroxycarbamazepine
Class: Pharmaceutical; Metabolite
Formula: C15H12N2O2
Exact mass: 252.0899
SMILES: NC(=O)N1c2ccccc2C=Cc3cc(O)ccc13
InChI: InChI=1S/C15H12N2O2/c16-15(19)17-13-4-2-1-3-10(13)5-6-11-9-12(18)7-8-14(11)17/h1-9,18H,(H2,16,19)
Instrument: TripleTOF 5600 SCIEX
Instrument type: LC-ESI-QTOF
Ms type: MS2
Ion mode: POSITIVE
Collision energy: 80
Fragmentation mode: CID
Ionization: ESI
Column name: Zorbax Eclipse Plus C18 2.1 mm x 150 mm, 3.5 um, Agilent
Retention time: 7.476 min
Precursor m/z: 253.0972
Precursor type: [M+H]+
m/z	relative intensity
51.0273	27
65.0422	26
74.0176	13
75.0248	38
77.0411	191
78.0485	19
87.0249	12
88.0309	13
89.0398	223
90.0479	60
91.0548	15
101.0382	82
102.0467	31
103.0537	12
104.0488	24
113.0383	81
114.0463	48
115.0537	221
116.0485	43
117.0578	30
125.0374	23
126.0456	87
127.0537	212
128.0523	225
129.0512	12
137.039	19
138.0462	30
139.054	748
140.0495	511
141.0562	35
149.0372	13
150.0461	97
151.0537	365
152.0614	999
153.065	217
154.0645	126
162.0454	34
163.0538	256
164.0583	148
165.0686	251
166.0644	660
167.0722	346
176.0501	16
177.0558	97
178.0641	478
179.0724	228
180.0797	640
181.0643	50
181.0876	23
182.0583	15
183.066	15
188.0478	48
189.0564	56
190.0645	259
191.0723	203
192.0826	41
194.0569	10
195.0667	12
206.059	46
207.0668	76
208.0734	60
