Mass spectrum: Disperse Orange 61; LC-ESI-QTOF; MS2; 50 V
Name: Disperse Orange 61
Formula: C17H15Br2N5O2
Exact mass: 478.9592
SMILES: CCN(CCC#N)C1=CC=C(C=C1)N=NC2=C(C=C(C=C2Br)[N+](=O)[O-])Br
InChI: InChI=1S/C17H15Br2N5O2/c1-2-23(9-3-8-20)13-6-4-12(5-7-13)21-22-17-15(18)10-14(24(25)26)11-16(17)19/h4-7,10-11H,2-3,9H2,1H3
Instrument: TripleTOF X500R SCIEX
Instrument type: LC-ESI-QTOF
Ms type: MS2
Ion mode: POSITIVE
Collision energy: 50
Fragmentation mode: CID
Ionization: ESI
Column name: Zorbax Eclipse Plus C18 2.1 mm x 150 mm, 3.5 um, Agilent
Retention time: 15.39 min
Precursor m/z: 479.9665
Precursor type: [M+H]+
m/z	relative intensity
91.0536	38
92.0499	68
104.0509	102
105.0574	243
106.0648	34
118.0656	68
119.06	53
120.0809	384
131.0588	19
132.056	29
132.0814	19
133.0894	760
134.097	92
140.9333	34
145.0764	263
147.0921	258
172.0861	63
173.1074	43
179.0596	34
187.1123	19
194.85	48
230.8446	107
231.8523	136
247.8473	63
256.9861	24
257.9898	77
277.845	282
277.877	34
286.0229	229
305.8527	97
314.0273	53
315.0363	77
332.9986	73
361.0283	341
361.0841	38
364.9173	175
392.9472	414
392.9997	38
410.8582	24
410.9086	584
410.9994	38
438.9005	29
438.9398	999
439.0096	29
439.0307	29
