Mass spectrum: 2-Isopropylphenyl diphenyl phosphate; LC-ESI-QTOF; MS2; 80 V
Name: 2-Isopropylphenyl diphenyl phosphate
Class: Industrial_process
Formula: C21H21O4P
Exact mass: 368.1177
SMILES: CC(C)C1=CC=CC=C1OP(=O)(OC2=CC=CC=C2)OC3=CC=CC=C3
InChI: InChI=1S/C21H21O4P/c1-17(2)20-15-9-10-16-21(20)25-26(22,23-18-11-5-3-6-12-18)24-19-13-7-4-8-14-19/h3-17H,1-2H3
Instrument: TripleTOF 6600 SCIEX
Instrument type: LC-ESI-QTOF
Ms type: MS2
Ion mode: POSITIVE
Collision energy: 80
Fragmentation mode: CID
Ionization: ESI
Column name: Zorbax Eclipse Plus C18 2.1 mm x 150 mm, 3.5 um, Agilent
Retention time: 15.788 min
Precursor m/z: 369.125
Precursor type: [M+H]+
m/z	relative intensity
39.0225	34
41.0385	24
50.0142	24
51.0227	164
65.0376	208
77.0384	591
91.0536	457
92.0252	24
115.0527	29
127.054	39
139.0533	69
150.0464	34
151.0538	159
152.0615	999
168.0561	323
175.0166	29
215.0258	34
226.078	159
