Mass spectrum: Pirimicarb; LC-ESI-QTOF; MS2; 70 V
Name: Pirimicarb
Class: Insecticide
Formula: C11H18N4O2
Exact mass: 238.143
SMILES: CC1=C(N=C(N=C1OC(=O)N(C)C)N(C)C)C
InChI: InChI=1S/C11H18N4O2/c1-7-8(2)12-10(14(3)4)13-9(7)17-11(16)15(5)6/h1-6H3
Instrument: TripleTOF 6600 SCIEX
Instrument type: LC-ESI-QTOF
Ms type: MS2
Ion mode: POSITIVE
Collision energy: 70
Fragmentation mode: CID
Ionization: ESI
Column name: Zorbax Eclipse Plus C18 2.1 mm x 150 mm, 3.5 um, Agilent
Retention time: 6.157 min
Precursor m/z: 239.1503
Precursor type: [M+H]+
m/z	relative intensity
42.0337	46
44.0494	43
53.0379	15
55.0286	14
56.013	133
58.065	22
68.0492	16
69.0445	49
69.0565	26
70.0517	19
71.0599	16
72.0444	999
83.0234	37
85.0757	46
93.0437	28
94.0522	18
95.0594	14
109.0752	38
123.0543	16
152.0797	10
