Mass spectrum: Amido Black 10B; LC-ESI-QTOF; MS2; 140 V
Name: Amido Black 10B
Formula: C22H16N6O9S2
Exact mass: 572.042
SMILES: C1=CC=C(C=C1)N=NC2=C(C3=C(C(=C(C=C3C=C2S(=O)(=O)O)S(=O)(=O)O)N=NC4=CC=C(C=C4)[N+](=O)[O-])N)O
InChI: InChI=1S/C22H16N6O9S2/c23-19-18-12(11-17(39(35,36)37)21(22(18)29)27-24-13-4-2-1-3-5-13)10-16(38(32,33)34)20(19)26-25-14-6-8-15(9-7-14)28(30)31/h1-11,29H,23H2,(H,32,33,34)(H,35,36,37)
Instrument: TripleTOF 6600 SCIEX
Instrument type: LC-ESI-QTOF
Ms type: MS2
Ion mode: POSITIVE
Collision energy: 140
Fragmentation mode: CID
Ionization: ESI
Column name: Zorbax Eclipse Plus C18 2.1 mm x 150 mm, 3.5 um, Agilent
Retention time: 9.552 min
Precursor m/z: 573.0493
Precursor type: [M+H]+
m/z	relative intensity
37.0066	12
38.0149	18
39.0227	244
40.029	11
50.0143	20
51.0225	81
61.0082	16
62.0153	18
63.0227	120
64.0186	12
65.0384	999
66.0459	404
67.0417	18
74.0146	87
75.0223	350
76.0189	22
76.0307	57
77.0384	179
78.0333	46
80.0479	35
87.0231	22
88.0173	29
89.0373	22
90.0323	77
92.0494	303
93.0565	889
100.0174	24
102.0334	98
103.0398	22
112.0169	20
114.0332	96
117.047	11
125.0136	14
125.0382	11
129.0449	40
138.0346	18
139.0317	14
139.0507	9
140.047	18
145.0394	12
149.0358	12
150.0436	25
151.0537	31
152.0213	11
152.0476	25
153.0576	11
162.0365	27
163.031	16
163.046	22
164.0339	16
164.0493	35
165.046	22
166.0511	11
167.0625	11
175.0443	24
176.05	61
177.0536	61
178.0619	12
187.0372	22
188.0447	70
189.0434	66
190.0401	16
190.065	12
191.061	31
193.0776	12
201.0443	22
201.0561	12
202.0516	22
203.0576	40
204.0605	24
205.0755	31
213.0439	14
214.0475	35
215.0498	40
216.0505	20
218.0694	11
228.0572	11
230.0695	70
231.0775	11
232.0818	12
238.058	14
242.0603	12
243.0793	12
255.0647	11
276.0638	11
280.0871	12
305.0711	11
316.0809	14
