Mass spectrum: Prallethrin; LC-ESI-QTOF; MS2; 70 V
Name: Prallethrin
Class: Insecticide
Formula: C19H24O3
Exact mass: 300.1725
SMILES: CC1=C(C(=O)CC1OC(=O)C2C(C2(C)C)C=C(C)C)CC#C
InChI: InChI=1S/C19H24O3/c1-7-8-13-12(4)16(10-15(13)20)22-18(21)17-14(9-11(2)3)19(17,5)6/h1,9,14,16-17H,8,10H2,2-6H3
Instrument: TripleTOF 6600 SCIEX
Instrument type: LC-ESI-QTOF
Ms type: MS2
Ion mode: POSITIVE
Collision energy: 70
Fragmentation mode: CID
Ionization: ESI
Column name: Zorbax Eclipse Plus C18 2.1 mm x 150 mm, 3.5 um, Agilent
Retention time: 14.861 min
Precursor m/z: 301.1798
Precursor type: [M+H]+
m/z	relative intensity
39.0233	45
41.039	71
43.0186	13
43.0552	15
49.0076	9
50.0155	54
51.0234	251
53.0386	35
55.0183	13
55.0545	38
59.0493	13
65.0389	82
66.047	10
67.0554	48
77.0393	999
78.047	18
79.0544	332
81.0703	83
89.0388	52
90.0478	15
91.0547	57
93.0703	21
95.0504	10
102.0462	13
103.0547	166
104.0618	10
105.0449	31
105.0695	43
115.0544	54
128.0623	20
129.0716	10
141.0696	10
