Mass spectrum: Thioxanthen-9-one; LC-ESI-QTOF; MS2; 70 V
Name: Thioxanthen-9-one
Formula: C13H8OS
Exact mass: 212.0296
SMILES: C1=CC=C2C(=C1)C(=O)C3=CC=CC=C3S2
InChI: InChI=1S/C13H8OS/c14-13-9-5-1-3-7-11(9)15-12-8-4-2-6-10(12)13/h1-8H
Instrument: TripleTOF 6600 SCIEX
Instrument type: LC-ESI-QTOF
Ms type: MS2
Ion mode: POSITIVE
Collision energy: 70
Fragmentation mode: CID
Ionization: ESI
Column name: Zorbax Eclipse Plus C18 2.1 mm x 150 mm, 3.5 um, Agilent
Retention time: 13.479 min
Precursor m/z: 213.0369
Precursor type: [M+H]+
m/z	relative intensity
50.0151	11
51.023	20
63.0226	15
65.0382	10
68.9797	87
76.0308	16
77.0384	35
81.9872	27
88.0305	10
89.0387	78
90.0465	10
102.0472	20
108.0026	45
113.0389	44
114.0467	60
115.0543	256
125.0374	14
126.0462	63
134.0185	122
138.0465	28
139.0544	999
140.0626	58
145.0122	15
150.0466	108
151.0543	241
152.062	791
158.0188	100
179.0611	12
182.0183	25
183.0263	252
184.0343	409
