Mass spectrum: Cyproterone; LC-ESI-QTOF; MS2; 40 V
Name: Cyproterone
Class: Pharmaceutical
Formula: C22H27ClO3
Exact mass: 374.1649
SMILES: CC(=O)C1(CCC2C1(CCC3C2C=C(C4=CC(=O)C5CC5C34C)Cl)C)O
InChI: InChI=1S/C22H27ClO3/c1-11(24)22(26)7-5-14-12-9-18(23)17-10-19(25)13-8-16(13)21(17,3)15(12)4-6-20(14,22)2/h9-10,12-16,26H,4-8H2,1-3H3
Instrument: TripleTOF 5600 SCIEX
Instrument type: LC-ESI-QTOF
Ms type: MS2
Ion mode: POSITIVE
Collision energy: 40
Fragmentation mode: CID
Ionization: ESI
Column name: Zorbax Eclipse Plus C18 2.1 mm x 150 mm, 3.5 um, Agilent
Retention time: 11.881 min
Precursor m/z: 375.1721
Precursor type: [M+H]+
m/z	relative intensity
43.0178	185
67.0536	37
79.0534	59
81.0697	51
83.049	59
85.0648	51
87.0444	118
91.0546	103
93.0696	118
95.0493	37
95.0847	51
97.0647	44
105.0698	207
107.0511	37
107.0853	96
109.0646	81
109.1006	66
111.0817	170
115.0516	37
117.07	66
119.0858	170
121.0649	125
121.1026	103
123.079	51
127.0564	37
128.0603	29
129.0712	81
130.0775	29
131.0863	133
133.0653	51
133.1006	340
135.0802	66
135.1145	51
137.0968	37
141.0696	88
142.0786	81
143.0865	177
145.0649	111
145.1016	185
147.0808	88
147.1154	347
149.0968	59
153.0496	37
154.0775	37
155.0264	37
155.0855	177
156.0936	59
157.0644	37
157.1001	222
158.0743	74
159.0796	170
159.1187	133
163.0336	37
163.1105	59
165.046	29
165.0721	66
167.0256	59
167.0864	133
168.0944	44
169.0428	51
169.1015	111
170.0739	29
171.0791	96
171.1171	118
173.0971	88
175.1127	244
177.0474	148
177.1236	29
178.0789	59
179.0223	66
179.0848	96
180.0945	44
181.0422	177
181.0751	29
181.1035	185
182.1104	59
183.0557	44
183.0788	111
183.116	199
184.0893	140
184.1253	59
185.0965	244
185.1294	59
187.1113	59
189.0467	103
191.0285	103
191.0616	111
191.084	66
192.0956	118
193.0422	125
193.1017	214
193.118	44
194.1099	103
195.0602	59
195.0802	44
195.1176	281
196.123	66
197.0927	96
197.1341	59
198.1037	44
199.1115	111
201.0481	44
201.1266	59
203.064	118
203.1017	44
204.093	44
205.0447	155
205.0788	51
205.1017	148
206.1049	51
207.0533	74
207.066	59
207.1164	303
208.1241	59
209.0959	88
209.1352	148
210.1042	44
210.1377	44
211.1122	88
211.1479	37
213.1263	37
215.0715	37
217.0758	81
217.0994	125
218.1119	81
219.0572	769
219.0976	29
219.12	192
220.1283	74
221.1031	133
221.1333	236
222.1018	59
222.1349	29
223.1159	185
223.1491	148
224.1195	37
225.1307	74
227.0622	29
227.1464	29
229.0757	59
230.112	37
231.1128	81
231.1243	44
232.1214	96
233.0682	37
233.0973	37
233.1313	207
234.0962	29
234.1395	88
235.1138	214
235.1477	303
236.1215	155
236.152	103
237.1274	214
237.168	81
238.1319	51
239.1417	88
241.0846	59
243.0944	88
243.1147	66
244.1218	51
245.0734	170
245.1081	44
245.1291	133
246.113	29
246.1396	96
247.1095	44
247.1482	148
248.1165	66
249.1264	162
249.1637	251
250.1314	103
250.1724	81
251.1408	251
251.1776	133
253.1547	59
255.094	103
257.0721	51
257.1139	37
259.0864	44
259.1137	44
259.1444	162
260.1573	96
261.1199	44
261.163	303
262.1322	96
262.1662	37
263.1444	791
264.1458	103
265.1528	74
265.1834	51
269.1132	51
270.1324	96
271.0853	59
271.1246	37
273.1061	103
273.1311	88
274.1359	66
275.1266	37
275.1817	103
277.1606	525
278.1647	458
279.1746	999
281.1095	44
285.1015	59
285.1509	44
285.1681	44
287.1098	51
287.1287	44
288.1451	96
288.1624	37
289.1601	37
291.1398	66
291.1791	29
293.1531	525
293.1941	125
295.1631	37
297.1418	44
297.1891	44
299.1195	185
301.1401	74
303.1726	207
306.162	140
313.136	377
314.1463	288
315.1489	133
315.1661	44
321.1864	680
322.1955	44
332.1193	37
339.1483	74
339.1946	88
357.1661	148
375.1654	414
