Mass spectrum: Disperse Yellow 3; LC-ESI-QTOF; MS2; 70 V
Name: Disperse Yellow 3
Formula: C15H15N3O2
Exact mass: 269.1164
SMILES: CC1=CC(=C(C=C1)O)N=NC2=CC=C(C=C2)NC(=O)C
InChI: InChI=1S/C15H15N3O2/c1-10-3-8-15(20)14(9-10)18-17-13-6-4-12(5-7-13)16-11(2)19/h3-9,20H,1-2H3,(H,16,19)
Instrument: TripleTOF 6600 SCIEX
Instrument type: LC-ESI-QTOF
Ms type: MS2
Ion mode: NEGATIVE
Collision energy: 70
Fragmentation mode: CID
Ionization: ESI
Column name: Zorbax Eclipse Plus C18 2.1 mm x 150 mm, 3.5 um, Agilent
Retention time: 12.171 min
Precursor m/z: 268.1091
Precursor type: [M-H]-
m/z	relative intensity
41.998	599
91.0424	186
92.0504	999
105.0461	66
118.0303	412
133.0568	66
