Mass spectrum: Fenoxycarb; LC-ESI-QTOF; MS2; 80 V
Name: Fenoxycarb
Class: Insecticide
Formula: C17H19NO4
Exact mass: 301.1314
SMILES: CCOC(=O)NCCOc1ccc(Oc2ccccc2)cc1
InChI: InChI=1S/C17H19NO4/c1-2-20-17(19)18-12-13-21-14-8-10-16(11-9-14)22-15-6-4-3-5-7-15/h3-11H,2,12-13H2,1H3,(H,18,19)
Instrument: TripleTOF 5600 SCIEX
Instrument type: LC-ESI-QTOF
Ms type: MS2
Ion mode: POSITIVE
Collision energy: 80
Fragmentation mode: CID
Ionization: ESI
Column name: Zorbax Eclipse Plus C18 2.1 mm x 150 mm, 3.5 um, Agilent
Retention time: 13.067 min
Precursor m/z: 302.1387
Precursor type: [M+H]+
m/z	relative intensity
42.0445	78
44.0598	326
45.0061	12
65.0435	57
66.0512	43
70.0332	70
77.0419	332
78.049	14
79.0573	15
81.0362	62
88.0417	999
89.0402	51
90.0482	14
91.0561	191
94.0429	70
102.048	15
103.0545	12
105.0344	26
107.0496	22
109.0285	37
110.0363	21
115.0541	460
116.0696	20
118.0414	11
119.0502	12
120.0559	16
127.0542	70
128.062	201
129.0698	39
131.05	17
139.0545	68
140.0598	12
141.0701	52
150.0463	10
151.055	24
152.0625	56
157.0651	40
164.0627	14
165.0701	67
168.0573	17
176.0632	13
