Mass spectrum: Fludioxonil; LC-ESI-QTOF; MS2; 80 V
Name: Fludioxonil
Class: Fungicide
Formula: C12H6F2N2O2
Exact mass: 248.0397
SMILES: c1cc(c2c(c1)OC(O2)(F)F)c3c[nH]cc3C#N
InChI: InChI=1S/C12H6F2N2O2/c13-12(14)17-10-3-1-2-8(11(10)18-12)9-6-16-5-7(9)4-15/h1-3,5-6,16H
Instrument: TripleTOF 6600 SCIEX
Instrument type: LC-ESI-QTOF
Ms type: MS2
Ion mode: NEGATIVE
Collision energy: 80
Fragmentation mode: CID
Ionization: ESI
Column name: Zorbax Eclipse Plus C18 2.1 mm x 150 mm, 3.5 um, Agilent
Retention time: 11.757 min
Precursor m/z: 247.0324
Precursor type: [M-H]-
m/z	relative intensity
49.0077	150
50.0034	999
62.0029	52
64.0054	82
65.0136	165
65.9977	37
70.993	45
73.008	120
74.0026	157
75.0226	37
89.0135	97
89.0375	67
91.0286	37
98.0026	90
115.0295	142
126.0346	52
139.0278	67
141.0452	45
151.0304	37
152.0365	157
180.0305	52
