Mass spectrum: Febantel; LC-ESI-QTOF; MS2; 130 V
Name: Febantel
Class: Pharmaceutical
Formula: C20H22N4O6S
Exact mass: 446.126
SMILES: COCC(=O)Nc1cc(Sc2ccccc2)ccc1NC(NC(=O)OC)=NC(=O)OC
InChI: InChI=1S/C20H22N4O6S/c1-28-12-17(25)21-16-11-14(31-13-7-5-4-6-8-13)9-10-15(16)22-18(23-19(26)29-2)24-20(27)30-3/h4-11H,12H2,1-3H3,(H,21,25)(H2,22,23,24,26,27)
Instrument: TripleTOF 5600 SCIEX
Instrument type: LC-ESI-QTOF
Ms type: MS2
Ion mode: POSITIVE
Collision energy: 130
Fragmentation mode: CID
Ionization: ESI
Column name: Zorbax Eclipse Plus C18 2.1 mm x 150 mm, 3.5 um, Agilent
Retention time: 13.085 min
Precursor m/z: 447.1333
Precursor type: [M+H]+
m/z	relative intensity
45.0436	571
45.069	39
51.0316	124
52.0392	54
64.0355	99
65.0313	29
65.0434	337
68.9832	203
69.0005	24
69.014	49
69.9954	44
75.0143	34
75.0267	39
76.0218	173
76.0346	149
77.0373	949
78.0369	183
78.0495	54
79.0449	104
80.0535	29
83.0264	84
88.0215	109
89.0284	193
89.0396	129
90.0366	258
91.0291	29
91.044	571
92.0382	39
92.0512	89
92.9807	44
93.046	19
93.0608	69
93.9876	19
94.9964	149
96.0051	44
101.0325	84
102.0353	188
102.0594	29
103.0351	293
103.067	29
104.0388	839
104.0723	24
105.0452	193
106.0547	89
107.0628	29
108.0031	69
109.0114	228
113.04	74
114.0464	49
115.0308	64
115.0554	188
116.0379	894
116.0732	24
117.0454	154
118.0539	601
119.0608	39
119.9907	89
120.9991	44
121.0782	24
122.0075	333
123.0141	24
125.0394	79
126.0478	99
127.0552	487
128.06	124
129.0458	104
129.0662	19
130.0403	243
131.0222	19
131.0521	442
131.0792	29
131.9924	24
132.0627	44
133.002	29
133.0665	54
134.018	44
135.0557	49
137.0387	59
138.0475	159
139.0554	949
140.0501	427
141.0575	29
142.0432	29
143.0484	139
144.0569	99
145.0107	64
145.0394	34
145.065	59
146.0194	29
146.0342	44
146.0716	19
147.0027	74
147.0293	19
148.0122	24
149.0152	44
149.0354	19
150.0279	24
150.0468	139
151.0554	178
152.0574	402
153.0568	129
154.0652	99
158.0199	84
158.0394	44
159.015	59
159.0429	263
159.0798	19
160.012	19
160.0524	39
162.014	19
164.0502	492
165.0585	44
166.0657	74
167.0745	44
168.0665	24
169.0111	94
170.0197	218
171.0271	999
171.0746	19
172.0515	198
175.0403	19
176.0504	49
177.0573	357
178.0609	54
179.0623	89
180.0736	34
181.0781	49
182.0205	119
183.0127	74
183.025	203
184.0329	173
185.0293	29
186.0387	99
190.0076	39
191.0611	74
192.0697	49
194.0069	24
195.0161	64
196.0216	680
196.0961	24
197.0263	134
198.0392	74
199.0446	34
205.0754	29
208.0215	134
209.0308	228
210.0282	164
211.0329	178
221.0191	24
222.0671	24
223.0349	64
224.0411	228
225.0441	34
233.0602	29
235.0324	19
237.0495	24
238.0449	29
265.0318	69
266.0408	19
