Mass spectrum: [4(Acetyloxy)butyl](triphenyl)phosphonium; LC-ESI-QTOF; MS2; 80 V
Name: [4(Acetyloxy)butyl](triphenyl)phosphonium
Formula: C24H26O2P
Exact mass: 377.1665
InChI: InChI=1S/C24H26O2P/c1-21(25)26-19-11-12-20-27(22-13-5-2-6-14-22,23-15-7-3-8-16-23)24-17-9-4-10-18-24/h2-10,13-18H,11-12,19-20H2,1H3/q+1
Instrument: TripleTOF 6600 SCIEX
Instrument type: LC-ESI-QTOF
Ms type: CID
Ion mode: POSITIVE
Collision energy: 80
Ionization: ESI
Column name: Zorbax Eclipse Plus C18 2.1 mm x 150 mm, 3.5 um, Agilent
Retention time: 8.85 min
Precursor m/z: 377.1665
Precursor type: [M]+
m/z	relative intensity
107.003	107
152.0615	95
183.0362	999
228.0932	96
259.0671	177
260.0751	85
275.0986	295
