Mass spectrum: Tyrosine; LC-ESI-QTOF; MS2; 40 V
Name: Tyrosine
Class: Pharmaceutical; Natural_product
Formula: C9H11NO3
Exact mass: 181.0739
InChI: InChI=1S/C9H11NO3/c10-8(9(12)13)5-6-1-3-7(11)4-2-6/h1-4,8,11H,5,10H2,(H,12,13)
Instrument: TripleTOF 5600 SCIEX
Instrument type: LC-ESI-QTOF
Ms type: CID
Ion mode: POSITIVE
Collision energy: 40
Ionization: ESI
Column name: Zorbax Eclipse Plus C18 2.1 mm x 150 mm, 3.5 um, Agilent
Retention time: 2.614 min
Precursor m/z: 182.0812
Precursor type: [M+H]+
m/z	relative intensity
65.0423	178
77.0407	303
91.0555	999
95.0483	267
107.0485	124
119.0482	249
123.0437	196
136.0753	142
