Mass spectrum: 16alpha-hydroxyestrone; LC-ESI-QTOF; MS2; 140 V
Name: 16alpha-hydroxyestrone
Class: Pharmaceutical; Metabolite
Formula: C18H22O3
Exact mass: 286.1569
SMILES: C[C@]12CC[C@@H]3[C@H](CCc4cc(O)ccc34)[C@H]1C[C@@H](O)C2=O
InChI: InChI=1S/C18H22O3/c1-18-7-6-13-12-5-3-11(19)8-10(12)2-4-14(13)15(18)9-16(20)17(18)21/h3,5,8,13-16,19-20H,2,4,6-7,9H2,1H3/t13-,14-,15+,16+,18-/m0/s1
Instrument: TripleTOF 5600 SCIEX
Instrument type: LC-ESI-QTOF
Ms type: MS2
Ion mode: POSITIVE
Collision energy: 140
Fragmentation mode: CID
Ionization: ESI
Column name: Zorbax Eclipse Plus C18 2.1 mm x 150 mm, 3.5 um, Agilent
Retention time: 8.67 min
Precursor m/z: 287.1642
Precursor type: [M+H]+
m/z	relative intensity
43.0266	51
53.0448	18
55.0237	13
60.0053	12
65.0432	280
66.0495	19
73.0091	12
74.0181	137
75.0257	133
76.0329	83
77.0421	809
78.0484	77
79.0564	43
85.0081	16
86.0166	41
87.024	67
88.0314	26
89.0407	494
91.0553	91
94.0413	16
98.0151	39
99.0226	21
101.0386	33
102.0467	183
103.054	72
107.0485	17
113.0383	55
114.0459	28
115.0545	999
116.0607	10
125.038	20
126.0465	140
127.0535	129
128.0616	160
131.048	23
137.0372	13
139.0537	123
149.0394	11
150.0456	139
151.0535	139
152.0615	167
161.0373	13
162.0463	26
163.0534	134
164.0609	46
165.0688	49
174.0461	10
176.0609	38
187.0544	22
188.0611	10
189.0701	20
200.0612	16
