Mass spectrum: Pencycuron; LC-ESI-QTOF; MS2; 20 V
Name: Pencycuron
Class: Fungicide
Formula: C19H21ClN2O
Exact mass: 328.1342
SMILES: C1CCC(C1)N(CC2=CC=C(C=C2)Cl)C(=O)NC3=CC=CC=C3
InChI: InChI=1S/C19H21ClN2O/c20-16-12-10-15(11-13-16)14-22(18-8-4-5-9-18)19(23)21-17-6-2-1-3-7-17/h1-3,6-7,10-13,18H,4-5,8-9,14H2,(H,21,23)
Instrument: TripleTOF 6600 SCIEX
Instrument type: LC-ESI-QTOF
Ms type: MS2
Ion mode: POSITIVE
Collision energy: 20
Fragmentation mode: CID
Ionization: ESI
Column name: Zorbax Eclipse Plus C18 2.1 mm x 150 mm, 3.5 um, Agilent
Retention time: 14.496 min
Precursor m/z: 329.1415
Precursor type: [M+H]+
m/z	relative intensity
125.0148	262
218.0722	83
261.0776	28
329.1414	999
