Mass spectrum: Leucomalachite green; LC-ESI-QTOF; MS2; 70 V
Name: Leucomalachite green
Class: Metabolite
Formula: C23H26N2
Exact mass: 330.2096
SMILES: CN(C)C1=CC=C(C=C1)C(C2=CC=CC=C2)C3=CC=C(C=C3)N(C)C
InChI: InChI=1S/C23H26N2/c1-24(2)21-14-10-19(11-15-21)23(18-8-6-5-7-9-18)20-12-16-22(17-13-20)25(3)4/h5-17,23H,1-4H3
Instrument: TripleTOF 6600 SCIEX
Instrument type: LC-ESI-QTOF
Ms type: MS2
Ion mode: POSITIVE
Collision energy: 70
Fragmentation mode: CID
Ionization: ESI
Column name: Zorbax Eclipse Plus C18 2.1 mm x 150 mm, 3.5 um, Agilent
Retention time: 9.974 min
Precursor m/z: 331.2169
Precursor type: [M+H]+
m/z	relative intensity
91.0528	12
115.0531	12
120.0798	18
141.0684	10
151.0512	10
152.0619	100
153.0686	109
155.0831	10
164.0612	20
165.069	280
166.0766	92
167.0711	12
167.0841	25
168.079	11
178.0697	13
179.0714	35
180.0796	154
181.0866	56
182.0956	58
192.0805	27
193.0872	67
194.0961	377
195.1032	175
196.1114	143
197.1193	87
202.0794	11
207.0934	33
208.1078	124
209.107	96
210.1258	29
215.0847	20
221.1056	22
222.1139	12
223.1227	999
224.1304	312
227.0849	10
228.092	18
229.0981	19
237.1387	18
238.1417	18
239.0836	13
239.1538	341
240.0917	11
241.1002	37
243.1039	12
254.0954	13
255.1028	11
256.1123	30
257.1201	13
258.1256	12
270.1289	45
271.1361	20
272.1406	24
283.1203	13
284.1364	25
299.153	112
300.1611	12
315.1853	45
