Mass spectrum: Bicalutamide; LC-ESI-QTOF; MS2; 130 V
Name: Bicalutamide
Class: Pharmaceutical
Formula: C18H14F4N2O4S
Exact mass: 430.061
SMILES: CC(O)(C[S](=O)(=O)c1ccc(F)cc1)C(=O)Nc2ccc(C#N)c(c2)C(F)(F)F
InChI: InChI=1S/C18H14F4N2O4S/c1-17(26,10-29(27,28)14-6-3-12(19)4-7-14)16(25)24-13-5-2-11(9-23)15(8-13)18(20,21)22/h2-8,26H,10H2,1H3,(H,24,25)
Instrument: TripleTOF 5600 SCIEX
Instrument type: LC-ESI-QTOF
Ms type: MS2
Ion mode: POSITIVE
Collision energy: 130
Fragmentation mode: CID
Ionization: ESI
Column name: Zorbax Eclipse Plus C18 2.1 mm x 150 mm, 3.5 um, Agilent
Retention time: 11.644 min
Precursor m/z: 431.0683
Precursor type: [M+H]+
m/z	relative intensity
43.024	48
73.0094	42
74.0175	415
75.0078	24
75.0253	999
75.0533	30
95.03	680
100.0178	36
115.0008	30
118.0528	24
123.035	48
140.0322	24
150.0137	54
167.0409	54
