Mass spectrum: Temazepam; LC-ESI-QTOF; MS2; 140 V
Name: Temazepam
Class: Pharmaceutical
Formula: C16H13ClN2O2
Exact mass: 300.0666
SMILES: CN1C2=C(C=C(C=C2)Cl)C(=NC(C1=O)O)C3=CC=CC=C3
InChI: InChI=1S/C16H13ClN2O2/c1-19-13-8-7-11(17)9-12(13)14(18-15(20)16(19)21)10-5-3-2-4-6-10/h2-9,15,20H,1H3
Instrument: TripleTOF 6600 SCIEX
Instrument type: LC-ESI-QTOF
Ms type: MS2
Ion mode: POSITIVE
Collision energy: 140
Fragmentation mode: CID
Ionization: ESI
Column name: Zorbax Eclipse Plus C18 2.1 mm x 150 mm, 3.5 um, Agilent
Retention time: 10.497 min
Precursor m/z: 301.0738
Precursor type: [M+H]+
m/z	relative intensity
35.997	22
37.0057	130
38.0138	91
39.0213	259
46.9663	36
48.9821	57
49.0056	46
50.0137	445
51.0212	643
52.0297	12
59.9983	89
61.0053	310
61.976	12
62.0134	516
63.0213	786
64.016	46
64.0279	20
65.0363	161
66.0455	22
71.998	18
72.9819	243
73.0052	177
74.0134	999
75.0078	40
75.0208	567
76.0159	28
76.0283	122
77.0369	420
78.0446	32
83.9751	24
83.9974	18
84.9823	30
85.0056	89
86.0129	187
87.0209	249
88.0168	36
88.0273	71
89.0364	643
90.0316	20
90.0467	12
96.9822	26
97.0052	38
97.9771	14
98.0131	500
99.011	490
100.0152	181
101.026	18
101.0371	26
102.0308	16
102.0441	59
104.048	30
109.0035	44
110.0124	118
111.0047	14
111.0202	75
112.0165	14
113.0367	204
114.0313	81
115.0526	245
116.0468	14
121.0056	20
122.0122	194
123.02	167
123.9927	14
124.0156	28
124.0281	75
125.0368	79
126.0447	130
127.0387	22
127.0511	32
135.0159	30
137.0366	108
138.0442	73
139.0519	333
140.0467	171
146.0109	22
147.0066	14
148.0281	40
149.0368	198
150.0446	739
151.051	234
152.0589	77
161.0371	69
162.0438	167
163.0528	670
164.0476	236
165.043	16
165.0632	69
166.0632	36
174.0363	22
175.0397	263
176.0464	96
177.0575	85
178.0641	20
188.0491	32
189.0548	28
190.0663	34
191.0578	18
192.0671	20
204.0534	18
