Mass spectrum: Fluroxypyr; LC-ESI-QTOF; MS2; 40 V
Name: Fluroxypyr
Class: Herbicide
Formula: C7H5Cl2FN2O3
Exact mass: 253.9661
SMILES: C(C(=O)O)OC1=NC(=C(C(=C1Cl)N)Cl)F
InChI: InChI=1S/C7H5Cl2FN2O3/c8-3-5(11)4(9)7(12-6(3)10)15-1-2(13)14/h1H2,(H2,11,12)(H,13,14)
Instrument: TripleTOF 6600 SCIEX
Instrument type: LC-ESI-QTOF
Ms type: MS2
Ion mode: POSITIVE
Collision energy: 40
Fragmentation mode: CID
Ionization: ESI
Column name: Zorbax Eclipse Plus C18 2.1 mm x 150 mm, 3.5 um, Agilent
Retention time: 8.859 min
Precursor m/z: 254.9734
Precursor type: [M+H]+
m/z	relative intensity
48.9826	12
62.9624	23
66.9741	37
82.9449	32
90.9739	121
93.9862	10
97.9782	24
98.9857	14
99.9948	16
100.9342	10
106.9445	58
110.0269	35
111.0361	39
116.976	12
117.9858	158
118.9925	17
121.9543	12
124.9356	133
124.9894	71
125.9984	71
129.9849	21
131.942	10
133.9558	286
142.9791	39
143.9881	133
144.9959	427
146.0038	316
151.9457	306
152.9536	21
153.9603	14
160.9668	436
163.01	16
165.9633	12
172.9874	12
175.9493	10
178.9572	528
180.9732	999
196.968	113
200.9342	21
208.9672	128
210.9185	10
