Mass spectrum: Oxytetracycline; LC-ESI-QTOF; MS2; 60 V
Name: Oxytetracycline
Class: Pharmaceutical
Formula: C22H24N2O9
Exact mass: 460.1482
SMILES: CC1(C2C(C3C(C(=O)C(=C(C3(C(=O)C2=C(C4=C1C=CC=C4O)O)O)O)C(=O)N)N(C)C)O)O
InChI: InChI=1S/C22H24N2O9/c1-21(32)7-5-4-6-8(25)9(7)15(26)10-12(21)17(28)13-14(24(2)3)16(27)11(20(23)31)19(30)22(13,33)18(10)29/h4-6,12-14,17,25-26,28,30,32-33H,1-3H3,(H2,23,31)
Instrument: TripleTOF 5600 SCIEX
Instrument type: LC-ESI-QTOF
Ms type: MS2
Ion mode: POSITIVE
Collision energy: 60
Fragmentation mode: CID
Ionization: ESI
Column name: Zorbax Eclipse Plus C18 2.1 mm x 150 mm, 3.5 um, Agilent
Retention time: 5.586 min
Precursor m/z: 461.1555
Precursor type: [M+H]+
m/z	relative intensity
55.0232	10
58.0678	18
82.067	13
83.0145	21
86.0609	26
98.0595	211
107.0141	10
109.0283	24
115.0529	13
117.0722	13
123.0055	26
125.0205	13
126.0527	42
127.0532	74
128.0644	21
129.0698	24
137.0232	24
145.0638	104
151.0014	21
152.0681	26
153.0164	37
154.0487	74
155.0487	85
155.0813	13
156.0651	16
157.0635	21
165.0664	16
173.0583	26
174.0644	24
175.0732	18
178.9962	16
179.0842	10
180.066	29
181.0647	16
183.0767	13
184.0495	24
185.058	42
187.0388	10
187.0732	26
189.0716	16
195.0809	29
196.0556	13
197.0589	34
198.0701	24
199.0739	21
201.054	999
207.0782	24
208.0588	29
209.0608	13
210.0664	16
211.0381	13
211.0747	104
211.091	10
212.0457	158
213.0539	273
217.0607	16
223.0768	32
224.0472	26
225.0544	26
226.0637	26
227.0695	34
229.0817	10
235.073	50
236.0437	10
236.065	13
237.0526	24
238.0623	16
239.0337	21
239.0475	16
239.0691	131
240.0407	136
241.0486	32
242.0576	72
247.0758	10
249.0558	16
250.0639	10
251.0691	64
252.0419	42
253.0499	32
254.0565	128
255.0648	40
257.0524	10
257.0794	40
258.0501	96
259.061	18
261.056	21
263.0697	53
264.0413	18
265.049	29
266.0559	32
267.065	107
267.1954	13
268.0363	715
269.0817	21
270.0523	50
273.0735	21
278.0596	16
279.0629	115
281.0386	18
283.0599	717
285.0742	29
289.0494	48
291.0658	48
292.0371	34
294.0511	58
297.099	53
297.1148	13
307.0258	10
307.0609	61
312.1216	45
317.0415	21
319.0661	10
320.0303	21
321.0487	16
322.05	176
323.0497	13
335.0561	53
337.0712	72
350.0417	629
363.0473	21
365.0658	66
376.0802	21
426.118	13
