Mass spectrum: Etoricoxib; LC-ESI-QTOF; MS2; 150 V
Name: Etoricoxib
Class: Pharmaceutical
Formula: C18H15ClN2O2S
Exact mass: 358.0543
SMILES: CC1=NC=C(C=C1)C2=NC=C(C=C2C3=CC=C(C=C3)S(=O)(=O)C)Cl
InChI: InChI=1S/C18H15ClN2O2S/c1-12-3-4-14(10-20-12)18-17(9-15(19)11-21-18)13-5-7-16(8-6-13)24(2,22)23/h3-11H,1-2H3
Instrument: TripleTOF 5600 SCIEX
Instrument type: LC-ESI-QTOF
Ms type: MS2
Ion mode: POSITIVE
Collision energy: 150
Fragmentation mode: CID
Ionization: ESI
Column name: Zorbax Eclipse Plus C18 2.1 mm x 150 mm, 3.5 um, Agilent
Retention time: 6.991 min
Precursor m/z: 359.0616
Precursor type: [M+H]+
m/z	relative intensity
65.0441	23
73.0147	12
74.0196	155
75.0278	116
76.0348	88
77.0431	95
78.0397	11
85.0103	25
86.0185	64
87.0257	94
88.0288	48
89.0409	91
97.0085	22
98.0172	236
99.0245	190
100.0158	9
100.0304	67
101.0395	33
102.0474	72
110.0163	55
111.0244	53
112.0192	22
113.0384	123
114.0345	37
114.0481	15
115.0546	69
116.0501	13
121.008	12
122.0151	143
123.0232	215
124.029	115
125.0393	108
126.0466	154
127.0426	36
128.0507	15
134.0138	26
135.0209	23
136.0265	17
137.0383	121
138.0345	33
138.0467	51
139.0539	219
140.0495	138
141.0563	14
146.0147	29
147.0072	15
147.0224	36
148.03	82
149.0389	383
150.0459	617
151.0485	235
152.0508	118
153.0568	34
161.0381	181
162.0462	190
163.0541	546
164.0501	281
165.0561	78
166.063	84
167.0636	11
172.0301	17
173.0382	127
174.0457	788
175.0441	508
176.0514	232
177.0543	111
178.0517	24
179.0598	12
185.0382	79
186.0451	179
187.0536	999
188.0521	592
189.0635	243
190.0639	118
191.0617	44
192.0666	17
198.0443	52
199.0412	270
200.0495	184
201.0568	364
202.0625	77
203.0627	23
211.0431	24
212.0477	389
213.0562	236
214.0635	680
215.0653	149
216.0754	52
224.0413	28
225.0548	29
226.0489	67
227.0617	74
228.0619	12
238.0543	15
239.0597	91
240.0672	153
241.0747	71
242.085	15
