Mass spectrum: Omeprazole; LC-ESI-QTOF; MS2; 90 V
Name: Omeprazole
Class: Pharmaceutical
Formula: C17H19N3O3S
Exact mass: 345.1147
SMILES: COc1ccc2nc([nH]c2c1)[S](=O)Cc3ncc(C)c(OC)c3C
InChI: InChI=1S/C17H19N3O3S/c1-10-8-18-15(11(2)16(10)23-4)9-24(21)17-19-13-6-5-12(22-3)7-14(13)20-17/h5-8H,9H2,1-4H3,(H,19,20)
Instrument: TripleTOF 5600 SCIEX
Instrument type: LC-ESI-QTOF
Ms type: MS2
Ion mode: POSITIVE
Collision energy: 90
Fragmentation mode: CID
Ionization: ESI
Column name: Zorbax Eclipse Plus C18 2.1 mm x 150 mm, 3.5 um, Agilent
Retention time: 6.462 min
Precursor m/z: 346.122
Precursor type: [M+H]+
m/z	relative intensity
42.0463	21
53.0468	19
65.0449	88
66.0533	28
67.0594	74
77.0431	299
78.038	29
79.0582	305
80.0531	59
81.0741	52
81.9883	12
91.0565	91
92.0522	161
93.0606	173
94.0673	69
103.056	18
104.0502	42
105.0561	39
106.0657	538
107.0738	184
108.0821	999
108.9982	65
110.0066	23
111.0268	10
117.0569	11
118.0643	23
119.0747	11
120.0817	696
121.0894	472
122.0973	566
123.0152	11
134.0482	118
134.0971	17
135.0688	11
136.022	148
136.076	833
136.9943	29
137.03	36
138.0379	16
149.0735	25
150.039	10
150.0917	278
151.1009	10
152.0171	64
163.0476	11
164.0155	64
165.0244	204
166.033	129
180.0493	104
