Mass spectrum: Flutriafol; LC-ESI-QTOF; MS2; 100 V
Name: Flutriafol
Class: Fungicide
Formula: C16H13F2N3O
Exact mass: 301.1027
SMILES: C1=CC=C(C(=C1)C(CN2C=NC=N2)(C3=CC=C(C=C3)F)O)F
InChI: InChI=1S/C16H13F2N3O/c17-13-7-5-12(6-8-13)16(22,9-21-11-19-10-20-21)14-3-1-2-4-15(14)18/h1-8,10-11,22H,9H2
Instrument: TripleTOF 6600 SCIEX
Instrument type: LC-ESI-QTOF
Ms type: MS2
Ion mode: POSITIVE
Collision energy: 100
Fragmentation mode: CID
Ionization: ESI
Column name: Zorbax Eclipse Plus C18 2.1 mm x 150 mm, 3.5 um, Agilent
Retention time: 10.047 min
Precursor m/z: 302.11
Precursor type: [M+H]+
m/z	relative intensity
39.0229	12
42.0213	13
43.0294	231
57.0132	59
59.0288	13
62.0148	11
63.0235	36
69.0131	41
70.0401	542
73.0067	55
74.015	556
75.023	999
81.0135	10
83.0288	187
89.0379	19
95.0291	338
98.0146	13
99.0218	16
109.044	58
122.0154	13
123.0336	102
133.0444	11
149.0386	13
163.0542	26
168.0365	51
174.0447	26
181.0436	13
183.0601	23
192.0356	15
193.0438	19
194.0518	20
212.0411	11
