Mass spectrum: Fipronil; LC-ESI-QTOF; MS2; 90 V
Name: Fipronil
Class: Insecticide; Biocide
Formula: C12H4Cl2F6N4OS
Exact mass: 435.9387
SMILES: C1=C(C=C(C(=C1Cl)N2C(=C(C(=N2)C#N)S(=O)C(F)(F)F)N)Cl)C(F)(F)F
InChI: InChI=1S/C12H4Cl2F6N4OS/c13-5-1-4(11(15,16)17)2-6(14)8(5)24-10(22)9(7(3-21)23-24)26(25)12(18,19)20/h1-2H,22H2
Instrument: TripleTOF 6600 SCIEX
Instrument type: LC-ESI-QTOF
Ms type: MS2
Ion mode: NEGATIVE
Collision energy: 90
Fragmentation mode: CID
Ionization: ESI
Column name: Zorbax Eclipse Plus C18 2.1 mm x 150 mm, 3.5 um, Agilent
Retention time: 13.577 min
Precursor m/z: 434.9314
Precursor type: [M-H]-
m/z	relative intensity
34.9698	200
50.0038	77
57.9756	77
74.0032	46
81.9749	36
86.0035	56
87.9998	46
98.0029	113
112.001	175
113.0149	396
136.0012	87
143.0054	999
148.0056	56
154.9995	36
162.0079	30
163.011	406
179.0029	25
180.9986	25
182.0099	36
183.0177	216
188.0064	56
203.9765	30
205.0008	46
208.0115	56
212.0058	66
223.9809	25
227.9775	25
232.0144	36
267.9868	56
