Mass spectrum: Laureth-5; LC-ESI-QTOF; MS2; 40 V
Name: Laureth-5
Formula: C22H46O6
Exact mass: 406.3294
SMILES: CCCCCCCCCCCCOCCOCCOCCOCCOCCO
InChI: InChI=1S/C22H46O6/c1-2-3-4-5-6-7-8-9-10-11-13-24-15-17-26-19-21-28-22-20-27-18-16-25-14-12-23/h23H,2-22H2,1H3
Instrument: TripleTOF 6600 SCIEX
Instrument type: LC-ESI-QTOF
Ms type: MS2
Ion mode: POSITIVE
Collision energy: 40
Fragmentation mode: CID
Ionization: ESI
Column name: Zorbax Eclipse Plus C18 2.1 mm x 150 mm, 3.5 um, Agilent
Retention time: 17.227 min
Precursor m/z: 407.3367
Precursor type: [M+H]+
m/z	relative intensity
41.0381	19
43.0538	58
45.0336	545
57.0695	224
69.0688	23
71.0851	240
73.0637	37
83.0846	15
85.1003	185
87.0435	18
89.0593	999
97.1005	18
99.1157	32
111.1149	10
113.1308	24
133.0853	261
151.0947	15
169.1946	11
177.1123	38
195.1211	14
239.1478	28
