Mass spectrum: Anagrelide; LC-ESI-QTOF; MS2; 40 V
Name: Anagrelide
Class: Pharmaceutical
Formula: C10H7Cl2N3O
Exact mass: 254.9966
SMILES: c1cc(c(c2c1NC3=NC(=O)CN3C2)Cl)Cl
InChI: InChI=1S/C10H7Cl2N3O/c11-6-1-2-7-5(9(6)12)3-15-4-8(16)14-10(15)13-7/h1-2H,3-4H2,(H,13,14,16)
Instrument: TripleTOF 5600 SCIEX
Instrument type: LC-ESI-QTOF
Ms type: MS2
Ion mode: NEGATIVE
Collision energy: 40
Fragmentation mode: CID
Ionization: ESI
Column name: Zorbax Eclipse Plus C18 2.1 mm x 150 mm, 3.5 um, Agilent
Retention time: 7.666 min
Precursor m/z: 253.9893
Precursor type: [M-H]-
m/z	relative intensity
173.9872	69
182.0351	104
183.9735	243
188.9869	151
199.9655	81
224.9627	999
225.9958	116
251.9743	673
253.99	731
