Mass spectrum: Dasatinib; LC-ESI-QTOF; MS2; 70 V
Name: Dasatinib
Class: Pharmaceutical
Formula: C22H26ClN7O2S
Exact mass: 487.1557
SMILES: Cc1nc(Nc2sc(cn2)C(=O)Nc3c(C)cccc3Cl)cc(n1)N4CCN(CCO)CC4
InChI: InChI=1S/C22H26ClN7O2S/c1-14-4-3-5-16(23)20(14)28-21(32)17-13-24-22(33-17)27-18-12-19(26-15(2)25-18)30-8-6-29(7-9-30)10-11-31/h3-5,12-13,31H,6-11H2,1-2H3,(H,28,32)(H,24,25,26,27)
Instrument: TripleTOF 5600 SCIEX
Instrument type: LC-ESI-QTOF
Ms type: MS2
Ion mode: POSITIVE
Collision energy: 70
Fragmentation mode: CID
Ionization: ESI
Column name: Zorbax Eclipse Plus C18 2.1 mm x 150 mm, 3.5 um, Agilent
Retention time: 7.247 min
Precursor m/z: 488.163
Precursor type: [M+H]+
m/z	relative intensity
93.0511	46
118.0396	81
120.0566	69
120.0702	46
125.0175	92
134.0752	46
135.0784	58
146.0654	58
150.0133	81
152.0245	58
161.0809	627
174.0919	46
175.9909	81
176.0267	127
176.0918	139
178.0447	104
187.0964	267
191.0486	69
193.0523	348
202.1065	151
206.0582	46
216.0315	58
217.048	69
219.0708	58
232.065	999
233.0541	46
234.0872	58
248.1538	81
258.083	267
260.0953	58
292.0294	127
317.0336	92
319.1361	81
343.0407	116
360.0808	69
387.0849	81
401.1025	151
