Mass spectrum: Prednisolone; LC-ESI-QTOF; MS2; 80 V
Name: Prednisolone
Class: Pharmaceutical
Formula: C21H28O5
Exact mass: 360.1937
SMILES: C[C@]12C[C@H](O)[C@H]3[C@@H](CCC4=CC(=O)C=C[C@]34C)[C@@H]1CC[C@]2(O)C(=O)CO
InChI: InChI=1S/C21H28O5/c1-19-7-5-13(23)9-12(19)3-4-14-15-6-8-21(26,17(25)11-22)20(15,2)10-16(24)18(14)19/h5,7,9,14-16,18,22,24,26H,3-4,6,8,10-11H2,1-2H3/t14-,15-,16-,18+,19-,20-,21-/m0/s1
Instrument: TripleTOF 5600 SCIEX
Instrument type: LC-ESI-QTOF
Ms type: MS2
Ion mode: POSITIVE
Collision energy: 80
Fragmentation mode: CID
Ionization: ESI
Column name: Zorbax Eclipse Plus C18 2.1 mm x 150 mm, 3.5 um, Agilent
Retention time: 8.432 min
Precursor m/z: 361.201
Precursor type: [M+H]+
m/z	relative intensity
43.0264	69
55.0579	27
65.0423	130
67.0571	60
69.0386	18
77.0414	701
77.0694	27
78.0488	32
79.0562	227
81.0741	41
89.0394	18
91.0555	999
93.0712	139
95.0521	23
102.0455	32
103.0536	185
104.0615	60
105.0702	278
107.0484	162
107.0864	27
115.0539	515
116.0637	78
117.0692	199
119.0845	232
121.0641	673
127.0536	218
128.062	664
129.0693	292
130.0781	74
131.0491	195
131.0849	78
132.0574	302
133.0638	27
135.0796	32
139.0534	18
140.0616	32
141.0694	325
142.077	69
143.0846	74
144.0553	78
145.0643	125
145.098	27
146.0712	51
147.0802	204
151.0519	51
152.0613	176
153.0691	195
154.0788	41
155.047	18
155.0861	83
156.0945	23
157.064	167
158.0718	255
159.0793	55
164.0623	23
165.0687	394
166.0748	69
167.0843	65
168.0554	32
169.0631	83
170.074	32
171.0795	162
173.0969	37
176.0625	32
177.0693	69
178.0775	311
179.0858	167
180.093	41
181.0652	190
181.0992	46
182.0713	69
183.0811	37
185.0952	32
189.0689	232
190.0775	111
191.0867	134
192.0936	55
193.1005	78
194.0725	120
195.0806	162
196.0878	88
202.0769	134
203.0857	92
204.0928	46
205.0655	46
205.1009	60
206.0683	18
206.1086	23
207.0799	139
208.089	92
209.0946	78
215.0854	125
216.0952	41
217.1008	41
218.0735	41
219.0798	69
220.0899	32
221.0961	83
222.1021	23
223.1096	37
226.0796	23
227.0849	27
228.093	37
229.1009	46
231.0815	74
232.0883	32
233.0933	32
235.1098	32
239.084	41
244.0899	37
249.1271	18
251.1451	27
258.1013	23
