Mass spectrum: Trifloxystrobin; LC-ESI-QTOF; MS2; 40 V
Name: Trifloxystrobin
Class: Fungicide
Formula: C20H19F3N2O4
Exact mass: 408.1297
SMILES: CC(=NOCC1=CC=CC=C1C(=NOC)C(=O)OC)C2=CC(=CC=C2)C(F)(F)F
InChI: InChI=1S/C20H19F3N2O4/c1-13(14-8-6-9-16(11-14)20(21,22)23)24-29-12-15-7-4-5-10-17(15)18(25-28-3)19(26)27-2/h4-11H,12H2,1-3H3
Instrument: TripleTOF 5600 SCIEX
Instrument type: LC-ESI-QTOF
Ms type: MS2
Ion mode: POSITIVE
Collision energy: 40
Fragmentation mode: CID
Ionization: ESI
Column name: Zorbax Eclipse Plus C18 2.1 mm x 150 mm, 3.5 um, Agilent
Retention time: 15.037 min
Precursor m/z: 409.137
Precursor type: [M+H]+
m/z	relative intensity
89.043	35
90.0502	11
91.0579	44
95.0326	14
103.0567	10
105.0727	36
116.0515	475
117.0595	67
118.0669	70
119.0513	20
130.067	56
131.0747	363
132.0822	201
143.0382	25
145.0272	288
146.0622	129
147.0695	23
148.0778	11
162.0938	25
173.0333	97
175.0638	13
178.0874	10
186.0533	999
206.0827	154
