Mass spectrum: Dichlorvos; LC-ESI-QTOF; MS2; 70 V
Name: Dichlorvos
Class: Insecticide; Transformation_product; Pharmaceutical
Formula: C4H7Cl2O4P
Exact mass: 219.9459
SMILES: CO[P](=O)(OC)OC=C(Cl)Cl
InChI: InChI=1S/C4H7Cl2O4P/c1-8-11(7,9-2)10-3-4(5)6/h3H,1-2H3
Instrument: TripleTOF 5600 SCIEX
Instrument type: LC-ESI-QTOF
Ms type: MS2
Ion mode: POSITIVE
Collision energy: 70
Fragmentation mode: CID
Ionization: ESI
Column name: Zorbax Eclipse Plus C18 2.1 mm x 150 mm, 3.5 um, Agilent
Retention time: 9.126 min
Precursor m/z: 220.9532
Precursor type: [M+H]+
m/z	relative intensity
43.0252	63
51.034	50
55.0578	126
59.9802	999
65.0418	252
77.0403	796
78.9951	278
79.0158	50
79.0551	214
91.0541	531
94.9451	821
94.9902	214
103.0531	63
107.0476	63
109.0048	189
115.0523	126
