Mass spectrum: Bixafen; LC-ESI-QTOF; MS2; 60 V
Name: Bixafen
Class: Fungicide
Formula: C18H12Cl2F3N3O
Exact mass: 413.031
SMILES: CN1C=C(C(=N1)C(F)F)C(=O)NC2=C(C=C(C=C2)F)C3=CC(=C(C=C3)Cl)Cl
InChI: InChI=1S/C18H12Cl2F3N3O/c1-26-8-12(16(25-26)17(22)23)18(27)24-15-5-3-10(21)7-11(15)9-2-4-13(19)14(20)6-9/h2-8,17H,1H3,(H,24,27)
Instrument: TripleTOF 6600 SCIEX
Instrument type: LC-ESI-QTOF
Ms type: MS2
Ion mode: POSITIVE
Collision energy: 60
Fragmentation mode: CID
Ionization: ESI
Column name: Zorbax Eclipse Plus C18 2.1 mm x 150 mm, 3.5 um, Agilent
Retention time: 13.359 min
Precursor m/z: 414.0382
Precursor type: [M+H]+
m/z	relative intensity
42.0336	45
68.0121	10
82.029	10
109.0388	100
129.0443	10
134.0343	11
139.0285	30
159.0352	147
168.0373	10
169.043	26
194.0377	13
195.0446	54
196.0542	50
203.0028	22
204.0128	523
206.0448	12
207.0532	19
208.055	84
211.0155	14
220.06	29
221.0617	28
222.0689	19
224.0548	10
227.0705	10
229.0078	756
230.0162	53
231.0238	593
232.0541	45
233.0562	82
234.0586	70
235.0658	29
241.0183	73
242.0163	71
243.0213	32
245.06	11
245.9852	10
246.0694	84
247.0742	124
248.0813	55
249.0183	10
249.0827	18
250.0267	23
254.0137	12
255.0254	50
256.0288	71
257.0292	18
259.0615	14
260.0632	19
261.0674	27
262.0499	19
263.9765	170
265.9932	999
267.0204	27
268.0308	220
269.0286	50
270.0338	103
274.0721	66
274.9839	9
275.0786	72
276.0688	18
276.0878	26
276.9941	14
277.9933	37
279.0005	20
280.0259	26
281.0315	33
282.0464	133
283.0428	79
284.0315	46
289.9922	40
290.9889	27
291.0549	44
291.9744	43
293.0308	39
294.0316	10
295.0315	46
296.037	158
297.0212	40
301.99	81
302.0745	33
303.0014	232
303.0788	158
303.9962	27
304.0876	120
305.0054	44
308.0307	27
309.0377	43
310.0542	203
311.0376	56
314.988	14
316.0047	24
317.0044	92
318.017	16
324.0278	16
329.9978	49
331.0181	61
332.9988	22
337.0445	30
338.0488	624
346.0279	56
354.0126	14
374.0246	102
