Mass spectrum: Doxepin; LC-ESI-QTOF; MS2; 30 V
Name: Doxepin
Class: Pharmaceutical
Formula: C19H21NO
Exact mass: 279.1623
SMILES: CN(C)CCC=C1C2=CC=CC=C2COC3=CC=CC=C31
InChI: InChI=1S/C19H21NO/c1-20(2)13-7-11-17-16-9-4-3-8-15(16)14-21-19-12-6-5-10-18(17)19/h3-6,8-12H,7,13-14H2,1-2H3
Instrument: TripleTOF 5600 SCIEX
Instrument type: LC-ESI-QTOF
Ms type: MS2
Ion mode: POSITIVE
Collision energy: 30
Fragmentation mode: CID
Ionization: ESI
Column name: Zorbax Eclipse Plus C18 2.1 mm x 150 mm, 3.5 um, Agilent
Retention time: 7.447 min
Precursor m/z: 280.1696
Precursor type: [M+H]+
m/z	relative intensity
58.0739	141
70.0719	20
77.0442	37
79.0593	37
84.0855	213
85.0932	22
91.0584	158
105.0727	10
107.0516	971
115.0567	127
117.0722	253
119.0508	28
128.0637	16
129.0715	129
131.0504	50
141.0709	216
142.0789	270
143.0857	19
157.0645	19
165.0701	54
166.0779	36
167.0856	71
173.1198	26
178.0779	54
179.0859	115
181.1009	48
186.1282	19
191.0848	39
192.0931	76
193.1007	20
194.0721	151
195.0801	130
202.0777	159
203.084	11
205.1009	11
207.0822	64
207.1134	153
209.0954	75
215.0844	25
216.0924	16
217.0997	188
219.0805	29
220.0874	298
233.0948	17
234.1014	12
235.1107	509
280.1676	999
