Mass spectrum: 6-Acetylcodeine; LC-ESI-QTOF; MS2; 60 V
Name: 6-Acetylcodeine
Class: Pharmaceutical; Transformation_product
Formula: C20H23NO4
Exact mass: 341.1627
SMILES: CC(=O)OC1C=CC2C3CC4=C5C2(C1OC5=C(C=C4)OC)CCN3C
InChI: InChI=1S/C20H23NO4/c1-11(22)24-16-7-5-13-14-10-12-4-6-15(23-3)18-17(12)20(13,19(16)25-18)8-9-21(14)2/h4-7,13-14,16,19H,8-10H2,1-3H3
Instrument: TripleTOF 5600 SCIEX
Instrument type: LC-ESI-QTOF
Ms type: MS2
Ion mode: POSITIVE
Collision energy: 60
Fragmentation mode: CID
Ionization: ESI
Column name: Zorbax Eclipse Plus C18 2.1 mm x 150 mm, 3.5 um, Agilent
Retention time: 6.207 min
Precursor m/z: 342.17
Precursor type: [M+H]+
m/z	relative intensity
43.0268	102
44.0586	28
58.0705	61
77.0409	20
91.0561	28
94.0661	9
103.0561	18
105.0702	10
115.0545	76
121.0654	15
127.0546	40
128.0622	86
129.0703	40
131.0496	17
132.0814	14
137.0607	32
139.0541	17
141.0704	124
143.0482	15
144.0577	61
145.0648	15
146.0628	15
151.0552	50
152.0632	322
153.0707	424
154.078	187
155.0483	19
155.0857	112
156.0573	63
157.0653	38
158.0728	47
159.0444	12
159.0809	32
160.0517	18
161.0601	77
164.0628	65
165.071	999
166.0787	128
167.0858	162
168.057	110
169.0658	61
169.1024	12
170.0728	30
171.0447	23
171.0809	121
172.0535	21
172.088	28
174.0695	18
175.0748	38
176.0619	83
177.0704	135
178.0783	179
179.0857	106
180.0576	128
181.0658	539
182.0732	273
183.0445	26
183.0814	85
184.0527	40
185.0602	65
185.0957	13
186.0674	25
187.0766	27
187.1129	12
189.0704	94
190.0784	96
191.0869	115
192.0571	34
192.0951	11
193.0654	136
193.1011	15
194.0734	175
195.0807	121
196.053	27
196.0887	10
197.06	53
197.0969	96
198.0684	83
199.0761	102
200.0838	27
201.0696	40
201.09	11
202.0786	46
203.0854	15
205.0659	69
206.075	16
206.0962	15
207.0442	23
207.0803	77
208.0524	90
208.0884	44
209.0603	160
209.0943	32
210.0688	305
211.0755	50
212.0474	20
212.0839	18
213.0555	11
213.0929	35
215.106	34
218.0737	32
218.0979	11
219.082	71
220.0891	23
220.1125	73
221.0599	110
222.0664	25
223.0757	139
224.0802	17
224.1075	11
225.0566	20
225.0914	142
226.0611	12
227.0706	16
234.0925	17
235.0757	41
235.0972	11
236.0832	44
237.0908	24
238.0898	16
238.1239	11
239.0721	11
240.1385	17
241.087	37
248.1079	37
250.1222	34
251.1003	24
252.1025	30
266.1174	79
