Mass spectrum: Chlorfenvinfos; LC-ESI-QTOF; MS2; 150 V
Name: Chlorfenvinfos
Class: Insecticide
Formula: C12H14Cl3O4P
Exact mass: 357.9695
SMILES: CCOP(=O)(OCC)OC(=CCl)C1=C(C=C(C=C1)Cl)Cl
InChI: InChI=1S/C12H14Cl3O4P/c1-3-17-20(16,18-4-2)19-12(8-13)10-6-5-9(14)7-11(10)15/h5-8H,3-4H2,1-2H3
Instrument: TripleTOF 6600 SCIEX
Instrument type: LC-ESI-QTOF
Ms type: MS2
Ion mode: POSITIVE
Collision energy: 150
Fragmentation mode: CID
Ionization: ESI
Column name: Zorbax Eclipse Plus C18 2.1 mm x 150 mm, 3.5 um, Agilent
Retention time: 13.629 min
Precursor m/z: 358.9768
Precursor type: [M+H]+
m/z	relative intensity
46.9664	24
50.0133	18
51.0208	10
61.0048	43
62.0132	56
62.9611	183
73.0051	75
74.0128	287
75.0208	47
80.9715	101
83.9738	35
84.9804	18
97.0051	180
98.013	999
99.0204	177
107.9736	86
108.9816	30
