Mass spectrum: Mandipropamid; LC-ESI-QTOF; MS2; 20 V
Name: Mandipropamid
Class: Fungicide
Formula: C23H22ClNO4
Exact mass: 411.1237
SMILES: COC1=C(C=CC(=C1)CCNC(=O)C(C2=CC=C(C=C2)Cl)OCC#C)OCC#C
InChI: InChI=1S/C23H22ClNO4/c1-4-14-28-20-11-6-17(16-21(20)27-3)12-13-25-23(26)22(29-15-5-2)18-7-9-19(24)10-8-18/h1-2,6-11,16,22H,12-15H2,3H3,(H,25,26)
Instrument: TripleTOF 6600 SCIEX
Instrument type: LC-ESI-QTOF
Ms type: CID
Ion mode: POSITIVE
Collision energy: 20
Ionization: ESI
Column name: Zorbax Eclipse Plus C18 2.1 mm x 150 mm, 3.5 um, Agilent
Retention time: 12.239 min
Precursor m/z: 412.131
Precursor type: [M+H]+
m/z	relative intensity
125.0147	11
204.101	49
216.101	10
311.0823	21
328.1099	999
356.1043	138
