Mass spectrum: Proadifen; LC-ESI-QTOF; MS2; 100 V
Name: Proadifen
Formula: C23H31NO2
Exact mass: 353.2355
SMILES: CCCC(C1=CC=CC=C1)(C2=CC=CC=C2)C(=O)OCCN(CC)CC
InChI: InChI=1S/C23H31NO2/c1-4-17-23(20-13-9-7-10-14-20,21-15-11-8-12-16-21)22(25)26-19-18-24(5-2)6-3/h7-16H,4-6,17-19H2,1-3H3
Instrument: TripleTOF 6600 SCIEX
Instrument type: LC-ESI-QTOF
Ms type: MS2
Ion mode: POSITIVE
Collision energy: 100
Fragmentation mode: CID
Ionization: ESI
Column name: Zorbax Eclipse Plus C18 2.1 mm x 150 mm, 3.5 um, Agilent
Retention time: 9.831 min
Precursor m/z: 354.2428
Precursor type: [M+H]+
m/z	relative intensity
39.0216	56
41.0378	15
44.0482	43
51.0217	49
63.0212	22
65.0372	385
77.0372	378
79.0528	93
89.0365	15
91.0528	824
102.0447	21
103.0524	76
105.035	28
105.0686	64
115.0525	143
116.061	15
126.0445	18
127.0532	14
128.0604	94
139.0532	40
141.0678	39
150.0446	26
151.0532	104
152.061	554
163.0524	37
164.0608	112
165.0687	999
166.0765	49
178.0754	21
