Mass spectrum: Hydroxytorasemide; LC-ESI-QTOF; MS2; 110 V
Name: Hydroxytorasemide
Class: Pharmaceutical; Transformation_product; Transformation_product-Metabolite
Formula: C16H20N4O4S
Exact mass: 364.1205
SMILES: CC(C)NC(=O)NS(=O)(=O)c1cnccc1Nc2cccc(c2)CO
InChI: InChI=1S/C16H20N4O4S/c1-11(2)18-16(22)20-25(23,24)15-9-17-7-6-14(15)19-13-5-3-4-12(8-13)10-21/h3-9,11,21H,10H2,1-2H3,(H,17,19)(H2,18,20,22)
Instrument: TripleTOF 5600 SCIEX
Instrument type: LC-ESI-QTOF
Ms type: MS2
Ion mode: POSITIVE
Collision energy: 110
Fragmentation mode: CID
Ionization: ESI
Column name: Zorbax Eclipse Plus C18 2.1 mm x 150 mm, 3.5 um, Agilent
Retention time: 5.824 min
Precursor m/z: 365.1278
Precursor type: [M+H]+
m/z	relative intensity
51.0294	29
65.0438	42
67.045	10
74.0171	21
75.0265	75
76.0313	10
77.0415	202
78.0353	25
79.0434	20
81.0467	12
87.0249	10
88.0321	55
89.0402	322
90.0468	60
99.0243	11
100.0303	11
101.0394	112
102.0437	48
103.0545	21
104.0485	10
113.0389	125
114.0452	224
115.0538	999
116.0487	102
117.0569	105
118.0517	17
125.0378	28
126.0461	73
127.0532	213
128.0491	236
129.0481	68
130.0633	23
137.0191	10
139.0407	16
140.0494	469
141.057	204
142.0582	98
152.0483	60
153.0569	100
154.065	164
155.0607	96
156.0687	20
166.0536	50
167.0602	101
168.0679	340
169.0754	212
179.0601	135
180.0687	71
181.0754	677
182.0836	157
187.0306	25
197.0706	68
199.0895	11
