Mass spectrum: Dihexadecyldimethylammonium; LC-ESI-QTOF; MS2; 70 V
Name: Dihexadecyldimethylammonium
Formula: [C34H72N]+
Exact mass: 494.5659
SMILES: CCCCCCCCCCCCCCCC[N+](C)(C)CCCCCCCCCCCCCCCC
InChI: InChI=1S/C34H72N/c1-5-7-9-11-13-15-17-19-21-23-25-27-29-31-33-35(3,4)34-32-30-28-26-24-22-20-18-16-14-12-10-8-6-2/h5-34H2,1-4H3/q+1
Instrument: TripleTOF 5600 SCIEX
Instrument type: LC-ESI-QTOF
Ms type: MS2
Ion mode: POSITIVE
Collision energy: 70
Fragmentation mode: CID
Ionization: ESI
Column name: Zorbax Eclipse Plus C18 2.1 mm x 150 mm, 3.5 um, Agilent
Retention time: 18.376 min
Precursor m/z: 494.5659
Precursor type: [M]+
m/z	relative intensity
57.0751	336
58.0697	211
71.0886	124
85.1007	59
268.3015	170
270.3147	999
494.5641	234
