Mass spectrum: 5-Aminosalicylic acid; LC-ESI-QTOF; MS2; 150 V
Name: 5-Aminosalicylic acid
Class: Pharmaceutical
Formula: C7H7NO3
Exact mass: 153.0426
SMILES: C1=CC(=C(C=C1N)C(=O)O)O
InChI: InChI=1S/C7H7NO3/c8-4-1-2-6(9)5(3-4)7(10)11/h1-3,9H,8H2,(H,10,11)
Instrument: TripleTOF 6600 SCIEX
Instrument type: LC-ESI-QTOF
Ms type: MS2
Ion mode: POSITIVE
Collision energy: 150
Fragmentation mode: CID
Ionization: ESI
Column name: Zorbax Eclipse Plus C18 2.1 mm x 150 mm, 3.5 um, Agilent
Retention time: 2.181 min
Precursor m/z: 154.0499
Precursor type: [M+H]+
m/z	relative intensity
35.9994	553
37.0072	999
38.0023	285
38.0149	187
39.0226	89
49.0072	303
50.0145	214
51.0108	62
52.018	107
53.002	169
59.9991	472
61.0069	847
62.0146	124
73.0067	62
74.0152	62
