Mass spectrum: 3-Alizarinsulfonic acid; LC-ESI-QTOF; MS2; 90 V
Name: 3-Alizarinsulfonic acid
Formula: C14H8O7S
Exact mass: 319.9991
SMILES: C1=CC=C2C(=C1)C(=O)C3=CC(=C(C(=C3C2=O)O)O)S(=O)(=O)O
InChI: InChI=1S/C14H8O7S/c15-11-6-3-1-2-4-7(6)12(16)10-8(11)5-9(22(19,20)21)13(17)14(10)18/h1-5,17-18H,(H,19,20,21)
Instrument: TripleTOF 6600 SCIEX
Instrument type: LC-ESI-QTOF
Ms type: MS2
Ion mode: POSITIVE
Collision energy: 90
Fragmentation mode: CID
Ionization: ESI
Column name: Zorbax Eclipse Plus C18 2.1 mm x 150 mm, 3.5 um, Agilent
Retention time: 8.229 min
Precursor m/z: 321.0064
Precursor type: [M+H]+
m/z	relative intensity
51.0223	72
74.0139	14
75.0227	130
77.0026	14
77.038	999
86.0134	14
87.0222	14
101.0375	115
105.033	28
105.048	28
115.052	28
125.0387	43
126.045	333
127.0528	492
129.0437	57
137.0339	14
155.0449	28
155.0665	43
