Mass spectrum: Alachlor; LC-ESI-QTOF; MS2; 60 V
Name: Alachlor
Class: Herbicide
Formula: C14H20ClNO2
Exact mass: 269.1183
SMILES: CCC1=C(C(=CC=C1)CC)N(COC)C(=O)CCl
InChI: InChI=1S/C14H20ClNO2/c1-4-11-7-6-8-12(5-2)14(11)16(10-18-3)13(17)9-15/h6-8H,4-5,9-10H2,1-3H3
Instrument: TripleTOF 6600 SCIEX
Instrument type: LC-ESI-QTOF
Ms type: MS2
Ion mode: POSITIVE
Collision energy: 60
Fragmentation mode: CID
Ionization: ESI
Column name: Zorbax Eclipse Plus C18 2.1 mm x 150 mm, 3.5 um, Agilent
Retention time: 13.233 min
Precursor m/z: 270.1255
Precursor type: [M+H]+
m/z	relative intensity
31.0172	109
39.0219	18
41.0378	22
45.0328	279
48.9826	82
65.0378	22
77.0375	59
79.0534	45
89.0373	18
90.0082	22
90.045	32
91.053	201
103.0517	50
104.0488	27
105.0685	100
106.0652	50
115.0531	119
116.0612	50
117.0566	430
118.0637	164
119.0708	59
120.0802	18
127.0529	22
128.0612	36
129.0689	54
130.0637	119
131.0713	77
132.0795	999
133.0871	270
134.0945	22
142.0643	27
143.069	50
144.0783	54
146.0956	183
147.1023	132
148.1101	22
156.0799	64
157.0854	22
162.1246	27
168.0839	22
