Mass spectrum: Solway Green G; LC-ESI-QTOF; MS2; 40 V
Name: Solway Green G
Formula: C28H22N2O8S2
Exact mass: 578.0818
SMILES: CC1=CC(=C(C=C1)NC2=C3C(=C(C=C2)NC4=C(C=C(C=C4)C)S(=O)(=O)O)C(=O)C5=CC=CC=C5C3=O)S(=O)(=O)O
InChI: InChI=1S/C28H22N2O8S2/c1-15-7-9-19(23(13-15)39(33,34)35)29-21-11-12-22(30-20-10-8-16(2)14-24(20)40(36,37)38)26-25(21)27(31)17-5-3-4-6-18(17)28(26)32/h3-14,29-30H,1-2H3,(H,33,34,35)(H,36,37,38)
Instrument: TripleTOF 6600 SCIEX
Instrument type: LC-ESI-QTOF
Ms type: MS2
Ion mode: NEGATIVE
Collision energy: 40
Fragmentation mode: CID
Ionization: ESI
Column name: Zorbax Eclipse Plus C18 2.1 mm x 150 mm, 3.5 um, Agilent
Retention time: 10.62 min
Precursor m/z: 288.0336
Precursor type: [M-2H]2-
m/z	relative intensity
79.7092	6
79.9569	999
80.9641	73
121.0529	11
122.0607	5
132.0448	13
170.003	9
184.0068	32
185.0135	44
186.0228	49
282.091	6
297.0815	7
298.0873	29
299.0945	20
310.085	34
323.0802	5
324.0893	16
325.1001	12
326.0802	12
337.0985	5
362.0495	5
385.1338	11
387.148	14
397.1335	14
398.1448	6
401.1293	5
403.1394	5
413.1284	15
414.1338	16
415.1423	60
416.1475	5
431.139	9
451.106	5
467.1125	9
495.0988	11
