Mass spectrum: 2-Aminobenzimidazole; LC-ESI-QTOF; MS2; 50 V
Name: 2-Aminobenzimidazole
Class: Transformation_product; Fungicide; Transformation_product-Metabolite
Formula: C7H7N3
Exact mass: 133.064
SMILES: C1=CC=C2C(=C1)NC(=N2)N
InChI: InChI=1S/C7H7N3/c8-7-9-5-3-1-2-4-6(5)10-7/h1-4H,(H3,8,9,10)
Instrument: TripleTOF 6600 SCIEX
Instrument type: LC-ESI-QTOF
Ms type: MS2
Ion mode: POSITIVE
Collision energy: 50
Fragmentation mode: CID
Ionization: ESI
Column name: Zorbax Eclipse Plus C18 2.1 mm x 150 mm, 3.5 um, Agilent
Retention time: 4.787 min
Precursor m/z: 134.0713
Precursor type: [M+H]+
m/z	relative intensity
35.9991	11
37.007	65
38.015	55
39.023	488
43.0287	12
53.0385	67
63.0229	30
64.0184	15
65.0386	999
66.0332	11
66.0457	60
78.0335	14
79.0415	12
80.0491	178
90.0335	18
92.0494	154
93.0572	129
105.0443	18
106.0521	12
107.0599	21
133.0632	17
134.071	20
