Mass spectrum: Clenbuterol; LC-ESI-QTOF; MS2; 140 V
Name: Clenbuterol
Class: Pharmaceutical
Formula: C12H18Cl2N2O
Exact mass: 276.0796
SMILES: CC(C)(C)NCC(c1cc(c(c(c1)Cl)N)Cl)O
InChI: InChI=1S/C12H18Cl2N2O/c1-12(2,3)16-6-10(17)7-4-8(13)11(15)9(14)5-7/h4-5,10,16-17H,6,15H2,1-3H3
Instrument: TripleTOF 5600 SCIEX
Instrument type: LC-ESI-QTOF
Ms type: MS2
Ion mode: POSITIVE
Collision energy: 140
Fragmentation mode: CID
Ionization: ESI
Column name: Zorbax Eclipse Plus C18 2.1 mm x 150 mm, 3.5 um, Agilent
Retention time: 6.115 min
Precursor m/z: 277.0869
Precursor type: [M+H]+
m/z	relative intensity
42.0426	72
52.024	33
52.037	61
53.0435	33
57.075	129
58.07	168
65.0437	67
72.9881	129
73.0089	44
74.0177	331
75.0132	44
75.0259	157
76.0226	89
77.0421	999
78.0367	196
78.0479	112
79.0438	39
79.0553	22
80.0517	33
84.9852	22
86.0179	44
87.0242	28
88.021	28
88.0308	22
89.0403	314
90.0485	50
96.9879	33
102.0354	44
104.0501	510
105.0564	56
114.0349	22
131.061	50
