Mass spectrum: Diazinon; LC-ESI-QTOF; MS2; 80 V
Name: Diazinon
Class: Insecticide
Formula: C12H21N2O3PS
Exact mass: 304.1011
SMILES: CCO[P](=S)(OCC)Oc1cc(C)nc(n1)C(C)C
InChI: InChI=1S/C12H21N2O3PS/c1-6-15-18(19,16-7-2)17-11-8-10(5)13-12(14-11)9(3)4/h8-9H,6-7H2,1-5H3
Instrument: TripleTOF 5600 SCIEX
Instrument type: LC-ESI-QTOF
Ms type: MS2
Ion mode: POSITIVE
Collision energy: 80
Fragmentation mode: CID
Ionization: ESI
Column name: Zorbax Eclipse Plus C18 2.1 mm x 150 mm, 3.5 um, Agilent
Retention time: 14.526 min
Precursor m/z: 305.1083
Precursor type: [M+H]+
m/z	relative intensity
42.0442	87
56.0554	10
59	38
59.9951	23
62.9677	28
64.9839	180
66.0375	11
67.0457	68
70.069	54
78.9436	241
80.9768	133
82.9972	49
84.0468	100
90.9958	25
96.9526	999
100.0225	172
137.0705	13
153.0483	47
169.0782	10
