Mass spectrum: Favipiravir; LC-ESI-QTOF; MS2; 40 V
Name: Favipiravir
Class: Pharmaceutical
Formula: C5H4FN3O2
Exact mass: 157.0288
SMILES: C1=C(N=C(C(=O)N1)C(=O)N)F
InChI: InChI=1S/C5H4FN3O2/c6-2-1-8-5(11)3(9-2)4(7)10/h1H,(H2,7,10)(H,8,11)
Instrument: TripleTOF 6600 SCIEX
Instrument type: LC-ESI-QTOF
Ms type: MS2
Ion mode: POSITIVE
Collision energy: 40
Fragmentation mode: CID
Ionization: ESI
Column name: Zorbax Eclipse Plus C18 2.1 mm x 150 mm, 3.5 um, Agilent
Retention time: 4.84 min
Precursor m/z: 158.036
Precursor type: [M+H]+
m/z	relative intensity
30.9982	126
33.0142	34
40.0178	9
58.0092	999
60.0246	24
85.0195	938
113.0138	141
141.0083	19
