Mass spectrum: N-[2-[(2-Bromo-4,6-dinitrophenyl)azo]-5-(diethylamino)phenyl]acetamide; LC-ESI-QTOF; MS2; 40 V
Name: N-[2-[(2-Bromo-4,6-dinitrophenyl)azo]-5-(diethylamino)phenyl]acetamide
Formula: C18H19BrN6O5
Exact mass: 478.06
SMILES: CCN(CC)C1=CC(=C(C=C1)N=NC2=C(C=C(C=C2Br)[N+](=O)[O-])[N+](=O)[O-])NC(=O)C
InChI: InChI=1S/C18H19BrN6O5/c1-4-23(5-2)12-6-7-15(16(9-12)20-11(3)26)21-22-18-14(19)8-13(24(27)28)10-17(18)25(29)30/h6-10H,4-5H2,1-3H3,(H,20,26)
Instrument: TripleTOF X500R SCIEX
Instrument type: LC-ESI-QTOF
Ms type: MS2
Ion mode: POSITIVE
Collision energy: 40
Fragmentation mode: CID
Ionization: ESI
Column name: Zorbax Eclipse Plus C18 2.1 mm x 150 mm, 3.5 um, Agilent
Retention time: 16.579 min
Precursor m/z: 479.0673
Precursor type: [M+H]+
m/z	relative intensity
109.0771	11
121.0767	26
134.0718	26
135.0924	17
136.076	14
148.0867	30
149.1037	25
162.1033	123
163.0873	107
163.1229	49
177.1031	223
178.1102	39
191.1182	999
204.1127	25
205.1091	17
205.134	12
206.1416	264
329.0523	14
345.047	18
375.048	21
376.0401	15
390.0594	10
391.0582	30
409.0271	51
420.0543	29
437.0577	332
450.0294	34
451.0383	14
479.0684	253
