Mass spectrum: Carazolol; LC-ESI-QTOF; MS2; 60 V
Name: Carazolol
Class: Pharmaceutical
Formula: C18H22N2O2
Exact mass: 298.1681
SMILES: CC(C)NCC(O)COc1cccc2[nH]c3ccccc3c12
InChI: InChI=1S/C18H22N2O2/c1-12(2)19-10-13(21)11-22-17-9-5-8-16-18(17)14-6-3-4-7-15(14)20-16/h3-9,12-13,19-21H,10-11H2,1-2H3
Instrument: TripleTOF 5600 SCIEX
Instrument type: LC-ESI-QTOF
Ms type: MS2
Ion mode: POSITIVE
Collision energy: 60
Fragmentation mode: CID
Ionization: ESI
Column name: Zorbax Eclipse Plus C18 2.1 mm x 150 mm, 3.5 um, Agilent
Retention time: 6.882 min
Precursor m/z: 299.1754
Precursor type: [M+H]+
m/z	relative intensity
56.0563	483
58.0706	95
72.0842	110
74.0636	284
89.0414	10
98.0974	24
100.1126	29
115.0539	40
116.0494	20
116.1073	136
117.058	22
127.0541	63
128.061	196
129.0696	446
130.0649	55
139.0542	338
140.0495	71
141.0695	74
151.0536	26
152.062	126
153.0613	21
154.0648	229
155.0722	89
156.0807	318
165.0695	109
166.0653	682
167.0731	999
168.0804	278
176.0615	29
177.0691	33
178.0648	82
179.0735	132
180.0799	93
182.0969	10
183.0674	134
184.0753	180
191.0728	99
192.0804	297
193.0884	534
194.0966	395
196.0768	23
203.0736	30
204.0808	102
205.0875	13
207.0678	38
220.0756	45
221.0812	12
222.0886	11
