Mass spectrum: 2,4,5-Trichlorophenoxyacetic acid; LC-ESI-QTOF; MS2; 90 V
Name: 2,4,5-Trichlorophenoxyacetic acid
Class: Herbicide
Formula: C8H5Cl3O3
Exact mass: 253.9304
SMILES: C1=C(C(=CC(=C1Cl)Cl)Cl)OCC(=O)O
InChI: InChI=1S/C8H5Cl3O3/c9-4-1-6(11)7(2-5(4)10)14-3-8(12)13/h1-2H,3H2,(H,12,13)
Instrument: TripleTOF 6600 SCIEX
Instrument type: LC-ESI-QTOF
Ms type: MS2
Ion mode: NEGATIVE
Collision energy: 90
Fragmentation mode: CID
Ionization: ESI
Column name: Zorbax Eclipse Plus C18 2.1 mm x 150 mm, 3.5 um, Agilent
Retention time: 11.222 min
Precursor m/z: 252.9231
Precursor type: [M-H]-
m/z	relative intensity
34.9694	999
