Mass spectrum: Disperse orange 3; LC-ESI-QTOF; MS2; 40 V
Name: Disperse orange 3
Formula: C12H10N4O2
Exact mass: 242.0804
SMILES: C1=CC(=CC=C1N)N=NC2=CC=C(C=C2)[N+](=O)[O-]
InChI: InChI=1S/C12H10N4O2/c13-9-1-3-10(4-2-9)14-15-11-5-7-12(8-6-11)16(17)18/h1-8H,13H2
Instrument: TripleTOF 6600 SCIEX
Instrument type: LC-ESI-QTOF
Ms type: MS2
Ion mode: POSITIVE
Collision energy: 40
Fragmentation mode: CID
Ionization: ESI
Column name: Zorbax Eclipse Plus C18 2.1 mm x 150 mm, 3.5 um, Agilent
Retention time: 12.729 min
Precursor m/z: 243.0877
Precursor type: [M+H]+
m/z	relative intensity
39.0222	11
50.0139	64
63.0214	109
64.0293	130
65.0365	40
66.0454	46
74.0137	73
75.0217	999
76.0293	625
79.0399	39
92.0251	620
92.0453	179
93.0557	707
104.0349	21
105.0427	41
106.0508	79
107.06	11
120.0534	61
122.0223	250
140.0315	16
150.0281	495
167.0732	13
168.0764	14
196.0844	21
197.0925	320
226.0857	35
243.0876	67
