Mass spectrum: 2-(Methylthio)benzothiazole; LC-ESI-QTOF; MS2; 40 V
Name: 2-(Methylthio)benzothiazole
Class: Industrial_process; Fungicide
Formula: C8H7NS2
Exact mass: 181.002
SMILES: CSc1sc2ccccc2n1
InChI: InChI=1S/C8H7NS2/c1-10-8-9-6-4-2-3-5-7(6)11-8/h2-5H,1H3
Instrument: TripleTOF 5600 SCIEX
Instrument type: LC-ESI-QTOF
Ms type: MS2
Ion mode: POSITIVE
Collision energy: 40
Fragmentation mode: CID
Ionization: ESI
Column name: Zorbax Eclipse Plus C18 2.1 mm x 150 mm, 3.5 um, Agilent
Retention time: 12.209 min
Precursor m/z: 182.0093
Precursor type: [M+H]+
m/z	relative intensity
63.9469	26
64.035	13
65.0415	70
68.9813	16
91.0419	91
96.0028	53
103.0426	18
108.0017	26
109.0102	175
123.013	169
135.0126	96
139.9745	48
166.9861	999
182.0097	193
