Mass spectrum: Diazinon; LC-ESI-QTOF; MS2; 140 V
Name: Diazinon
Class: Insecticide
Formula: C12H21N2O3PS
Exact mass: 304.1011
SMILES: CCO[P](=S)(OCC)Oc1cc(C)nc(n1)C(C)C
InChI: InChI=1S/C12H21N2O3PS/c1-6-15-18(19,16-7-2)17-11-8-10(5)13-12(14-11)9(3)4/h8-9H,6-7H2,1-5H3
Instrument: TripleTOF 5600 SCIEX
Instrument type: LC-ESI-QTOF
Ms type: MS2
Ion mode: POSITIVE
Collision energy: 140
Fragmentation mode: CID
Ionization: ESI
Column name: Zorbax Eclipse Plus C18 2.1 mm x 150 mm, 3.5 um, Agilent
Retention time: 14.526 min
Precursor m/z: 305.1083
Precursor type: [M+H]+
m/z	relative intensity
37.0174	22
42.043	280
44.0213	10
46.977	752
47.0127	14
54.0406	54
56.9853	14
57.9915	68
58.9995	58
59.9942	82
62.9493	15
62.9682	452
62.9928	12
64.9839	999
65.045	12
66.0364	10
67.0459	29
68.0164	12
70.998	14
78.9437	984
80.0533	10
80.9754	199
82.9965	58
83.9913	10
96.952	530
