Mass spectrum: N,N`-bis(2-ethoxyethoxycarbonyl)-4-methyl-1,3-phenylenediamine; LC-ESI-QTOF; MS2; 60 V
Name: N,N`-bis(2-ethoxyethoxycarbonyl)-4-methyl-1,3-phenylenediamine
Formula: C17H26N2O6
Exact mass: 354.1791
SMILES: CCOCCOC(=O)NC1=CC(=C(C=C1)C)NC(=O)OCCOCC
InChI: InChI=1S/C17H26N2O6/c1-4-22-8-10-24-16(20)18-14-7-6-13(3)15(12-14)19-17(21)25-11-9-23-5-2/h6-7,12H,4-5,8-11H2,1-3H3,(H,18,20)(H,19,21)
Instrument: TripleTOF 5600 SCIEX
Instrument type: LC-ESI-QTOF
Ms type: MS2
Ion mode: POSITIVE
Collision energy: 60
Fragmentation mode: CID
Ionization: ESI
Column name: Zorbax Eclipse Plus C18 2.1 mm x 150 mm, 3.5 um, Agilent
Retention time: 9.91 min
Precursor m/z: 355.1864
Precursor type: [M+H]+
m/z	relative intensity
43.0297	13
45.047	867
73.0708	457
77.044	107
78.0392	23
91.0801	47
92.0526	195
94.0705	43
104.0513	225
106.0684	104
107.0731	13
117.0578	13
119.0616	40
120.0449	245
121.077	97
132.0454	450
134.0504	26
147.0555	999
147.0842	16
148.0374	20
149.0713	63
155.057	13
160.0474	16
160.0617	47
175.0498	356
191.0836	20
193.0978	50
219.0747	148
