Mass spectrum: Lisinopril; LC-ESI-QTOF; MS2; 100 V
Name: Lisinopril
Class: Pharmaceutical
Formula: C21H31N3O5
Exact mass: 405.2264
InChI: InChI=1S/C21H31N3O5/c22-13-5-4-9-16(19(25)24-14-6-10-18(24)21(28)29)23-17(20(26)27)12-11-15-7-2-1-3-8-15/h1-3,7-8,16-18,23H,4-6,9-14,22H2,(H,26,27)(H,28,29)/t16-,17-,18-/m0/s1
Instrument: TripleTOF 5600 SCIEX
Instrument type: LC-ESI-QTOF
Ms type: CID
Ion mode: POSITIVE
Collision energy: 100
Ionization: ESI
Column name: Zorbax Eclipse Plus C18 2.1 mm x 150 mm, 3.5 um, Agilent
Retention time: 5.185 min
Precursor m/z: 406.2336
Precursor type: [M+H]+
m/z	relative intensity
56.0553	246
65.0417	54
70.0673	95
82.0666	54
84.0825	999
91.0556	506
115.0533	82
