Mass spectrum: Oxycodone; LC-ESI-QTOF; MS2; 150 V
Name: Oxycodone
Class: Pharmaceutical
Formula: C18H21NO4
Exact mass: 315.1471
SMILES: CN1CCC23C4C(=O)CCC2(C1CC5=C3C(=C(C=C5)OC)O4)O
InChI: InChI=1S/C18H21NO4/c1-19-8-7-17-14-10-3-4-12(22-2)15(14)23-16(17)11(20)5-6-18(17,21)13(19)9-10/h3-4,13,16,21H,5-9H2,1-2H3
Instrument: TripleTOF 6600 SCIEX
Instrument type: LC-ESI-QTOF
Ms type: MS2
Ion mode: POSITIVE
Collision energy: 150
Fragmentation mode: CID
Ionization: ESI
Column name: Zorbax Eclipse Plus C18 2.1 mm x 150 mm, 3.5 um, Agilent
Retention time: 5.206 min
Precursor m/z: 316.1543
Precursor type: [M+H]+
m/z	relative intensity
35.9982	13
37.0062	60
38.0142	42
39.0225	242
42.0321	36
44.0486	15
49.0062	23
50.0143	311
51.0224	595
52.0305	39
59.998	44
61.0057	202
62.0137	340
63.0218	629
64.0287	13
65.0376	173
73.0059	79
74.0137	640
75.0212	545
76.0291	305
77.0374	999
78.0447	181
79.0504	10
80.048	10
83.9981	10
85.0062	76
86.0132	221
87.021	292
88.0288	100
89.037	751
90.044	26
91.0535	47
92.046	10
98.0135	179
99.0217	121
100.0289	71
101.0363	176
102.0444	482
103.053	34
105.0411	13
110.0125	44
111.0216	18
113.0368	361
114.034	23
114.0448	73
115.0528	722
116.0466	44
117.0545	23
124.0279	15
125.0372	134
126.0451	927
127.052	469
128.0603	210
129.0433	42
130.0649	18
137.0386	79
138.0426	71
139.0526	848
140.0473	289
141.0555	34
141.072	18
142.0646	23
149.0372	28
150.0453	300
151.0526	271
152.0598	334
153.0584	347
154.0639	102
155.0587	42
161.0401	15
162.0425	42
163.0521	187
164.0546	94
165.0635	50
166.0641	181
167.0703	113
168.0812	36
174.0455	10
175.0572	13
176.0618	31
177.0555	21
178.0667	18
179.0581	15
180.0814	15
188.0509	13
189.059	13
190.0628	21
191.0715	31
