Mass spectrum: threo-Dihydrobupropion; LC-ESI-QTOF; MS2; 140 V
Name: threo-Dihydrobupropion
Class: Pharmaceutical; Metabolite
Formula: C13H20ClNO
Exact mass: 241.1233
SMILES: CC(C(c1cccc(c1)Cl)O)NC(C)(C)C
InChI: InChI=1S/C13H20ClNO/c1-9(15-13(2,3)4)12(16)10-6-5-7-11(14)8-10/h5-9,12,15-16H,1-4H3
Instrument: TripleTOF 5600 SCIEX
Instrument type: LC-ESI-QTOF
Ms type: MS2
Ion mode: POSITIVE
Collision energy: 140
Fragmentation mode: CID
Ionization: ESI
Column name: Zorbax Eclipse Plus C18 2.1 mm x 150 mm, 3.5 um, Agilent
Retention time: 6.626 min
Precursor m/z: 242.1306
Precursor type: [M+H]+
m/z	relative intensity
42.0425	204
51.0277	136
57.0749	158
58.0694	385
65.043	317
72.9877	181
73.0104	158
74.0185	840
75.0256	204
89.0399	999
91.0556	90
115.0539	317
