Mass spectrum: Saluamine; LC-ESI-QTOF; MS2; 40 V
Name: Saluamine
Class: Pharmaceutical; Transformation_product-Metabolite
Formula: C7H7ClN2O4S
Exact mass: 249.9815
SMILES: Nc1cc(Cl)c(cc1C(O)=O)[S](N)(=O)=O
InChI: InChI=1S/C7H7ClN2O4S/c8-4-2-5(9)3(7(11)12)1-6(4)15(10,13)14/h1-2H,9H2,(H,11,12)(H2,10,13,14)
Instrument: TripleTOF 5600 SCIEX
Instrument type: LC-ESI-QTOF
Ms type: MS2
Ion mode: POSITIVE
Collision energy: 40
Fragmentation mode: CID
Ionization: ESI
Column name: Zorbax Eclipse Plus C18 2.1 mm x 150 mm, 3.5 um, Agilent
Retention time: 5.713 min
Precursor m/z: 250.9888
Precursor type: [M+H]+
m/z	relative intensity
89.0263	72
90.036	36
101.0058	36
105.0457	36
106.0527	118
114.0102	172
123.9954	435
125.0018	272
130.0064	63
134.0476	145
139.9864	81
141.0207	54
142.0017	72
151.9911	254
152.9976	354
155.0007	308
155.9842	544
157.0151	199
157.9974	145
167.9884	81
187.9578	163
197.0023	72
204.9853	208
232.9771	999
