Mass spectrum: Paroxetine; LC-ESI-QTOF; MS2; 80 V
Name: Paroxetine
Class: Pharmaceutical
Formula: C19H20FNO3
Exact mass: 329.1427
SMILES: C1CNCC(C1C2=CC=C(C=C2)F)COC3=CC4=C(C=C3)OCO4
InChI: InChI=1S/C19H20FNO3/c20-15-3-1-13(2-4-15)17-7-8-21-10-14(17)11-22-16-5-6-18-19(9-16)24-12-23-18/h1-6,9,14,17,21H,7-8,10-12H2
Instrument: TripleTOF 5600 SCIEX
Instrument type: LC-ESI-QTOF
Ms type: MS2
Ion mode: POSITIVE
Collision energy: 80
Fragmentation mode: CID
Ionization: ESI
Column name: Zorbax Eclipse Plus C18 2.1 mm x 150 mm, 3.5 um, Agilent
Retention time: 7.812 min
Precursor m/z: 330.15
Precursor type: [M+H]+
m/z	relative intensity
37.0075	14
38.0155	16
39.0229	129
41.0387	223
42.0339	57
43.0543	31
44.0494	240
53.0022	12
56.0491	55
65.0384	72
67.0438	9
67.0543	12
68.0492	69
68.9968	12
70.0652	417
74.0148	12
75.0225	38
77.0385	153
80.0493	9
81.0343	55
82.0649	45
83.0293	175
89.0397	33
91.054	16
93.0335	40
95.0278	12
96.0368	14
96.0822	9
101.0383	76
103.0544	168
107.0309	12
108.0371	12
109.0449	999
115.0545	597
116.06	19
121.0274	14
121.0452	57
123.062	91
126.0491	12
127.0542	81
128.0623	69
129.0436	24
130.0643	12
133.0451	441
134.0522	48
135.0608	528
136.063	9
137.0217	19
141.0693	12
145.047	24
146.0522	240
147.0607	136
148.0554	14
148.0667	36
151.039	19
159.0591	19
160.0678	19
161.0735	19
162.0711	12
175.0378	12
