Mass spectrum: Cortisone; LC-ESI-QTOF; MS2; 110 V
Name: Cortisone
Class: Pharmaceutical
Formula: C21H28O5
Exact mass: 360.1937
SMILES: C[C@]12CCC(=O)C=C1CC[C@H]3[C@@H]4CC[C@](O)(C(=O)CO)[C@@]4(C)CC(=O)[C@H]23
InChI: InChI=1S/C21H28O5/c1-19-7-5-13(23)9-12(19)3-4-14-15-6-8-21(26,17(25)11-22)20(15,2)10-16(24)18(14)19/h9,14-15,18,22,26H,3-8,10-11H2,1-2H3/t14-,15-,18+,19-,20-,21-/m0/s1
Instrument: TripleTOF 5600 SCIEX
Instrument type: LC-ESI-QTOF
Ms type: MS2
Ion mode: POSITIVE
Collision energy: 110
Fragmentation mode: CID
Ionization: ESI
Column name: Zorbax Eclipse Plus C18 2.1 mm x 150 mm, 3.5 um, Agilent
Retention time: 8.396 min
Precursor m/z: 361.201
Precursor type: [M+H]+
m/z	relative intensity
43.0286	37
53.0442	23
65.0438	198
67.0588	46
77.0437	999
77.0792	41
78.0513	46
79.0589	268
81.0735	37
83.0524	46
89.0447	46
91.0585	864
93.0738	46
94.0482	23
97.0674	27
102.0491	64
103.0576	189
104.0638	41
105.0724	235
107.0509	87
115.0565	661
116.0656	69
117.0729	134
119.0541	37
119.0874	60
121.067	32
126.0493	32
127.0565	161
128.0644	638
129.0729	203
130.0797	46
131.0515	64
131.0885	46
133.0665	50
139.0556	37
141.073	208
142.0828	37
145.0667	27
147.0827	166
151.058	46
152.0649	254
153.0734	129
154.0846	18
155.0927	32
164.0629	50
165.0731	328
166.0805	37
167.0882	60
176.066	37
178.0804	152
179.0893	50
181.0707	27
181.1057	18
189.0736	83
190.0808	18
191.0873	50
202.0813	37
