Mass spectrum: (2-Hydroxyethyl)triphenylphosphonium; LC-ESI-QTOF; MS2; 150 V
Name: (2-Hydroxyethyl)triphenylphosphonium
Class: Industrial_process
Formula: [C20H20OP]+
Exact mass: 307.1246
SMILES: OCC[P+](c1ccccc1)(c2ccccc2)c3ccccc3
InChI: InChI=1S/C20H20OP/c21-16-17-22(18-10-4-1-5-11-18,19-12-6-2-7-13-19)20-14-8-3-9-15-20/h1-15,21H,16-17H2/q+1
Instrument: TripleTOF 5600 SCIEX
Instrument type: LC-ESI-QTOF
Ms type: MS2
Ion mode: POSITIVE
Collision energy: 150
Fragmentation mode: CID
Ionization: ESI
Column name: Zorbax Eclipse Plus C18 2.1 mm x 150 mm, 3.5 um, Agilent
Retention time: 7.101 min
Precursor m/z: 307.1246
Precursor type: [M]+
m/z	relative intensity
51.0302	100
56.9942	148
65.0428	121
67.9846	54
74.0189	161
76.0334	128
77.0405	123
78.9748	148
79.9826	439
80.9907	480
87.0239	146
89.0391	330
91.98	80
98.0161	87
102.0467	141
103.9804	130
104.9892	59
107.0048	999
113.0382	138
115.055	199
126.0455	283
131.0035	121
139.0533	148
150.0463	475
151.0541	418
152.0615	301
155.0056	139
156.0115	88
157.0203	166
163.0535	49
179.004	143
180.012	134
181.0195	319
224.0626	125
