Mass spectrum: Phenothiazine; LC-ESI-QTOF; MS2; 60 V
Name: Phenothiazine
Class: Pharmaceutical
Formula: C12H9NS
Exact mass: 199.0456
SMILES: C1=CC=C2C(=C1)NC3=CC=CC=C3S2
InChI: InChI=1S/C12H9NS/c1-3-7-11-9(5-1)13-10-6-2-4-8-12(10)14-11/h1-8,13H
Instrument: TripleTOF 6600 SCIEX
Instrument type: LC-ESI-QTOF
Ms type: MS2
Ion mode: POSITIVE
Collision energy: 60
Fragmentation mode: CID
Ionization: ESI
Column name: Zorbax Eclipse Plus C18 2.1 mm x 150 mm, 3.5 um, Agilent
Retention time: 13.113 min
Precursor m/z: 200.0529
Precursor type: [M+H]+
m/z	relative intensity
51.0216	12
69.9857	11
77.0369	28
89.0369	13
94.9929	14
96.0013	13
113.0366	18
115.0524	43
116.0479	14
127.0523	59
128.0521	85
129.0528	13
139.053	297
140.0497	303
141.052	26
153.0554	11
154.064	241
155.0687	34
164.0469	13
165.0551	12
166.0641	624
167.0717	999
168.0748	20
171.0245	47
197.0279	57
198.0357	128
199.0427	25
