Mass spectrum: Sudan III; LC-ESI-QTOF; MS2; 40 V
Name: Sudan III
Formula: C22H16N4O
Exact mass: 352.1324
SMILES: C1=CC=C(C=C1)N=NC2=CC=C(C=C2)N=NC3=C(C=CC4=CC=CC=C43)O
InChI: InChI=1S/C22H16N4O/c27-21-15-10-16-6-4-5-9-20(16)22(21)26-25-19-13-11-18(12-14-19)24-23-17-7-2-1-3-8-17/h1-15,27H
Instrument: TripleTOF X500R SCIEX
Instrument type: LC-ESI-QTOF
Ms type: MS2
Ion mode: POSITIVE
Collision energy: 40
Fragmentation mode: CID
Ionization: ESI
Column name: Zorbax Eclipse Plus C18 2.1 mm x 150 mm, 3.5 um, Agilent
Retention time: 19.216 min
Precursor m/z: 353.1397
Precursor type: [M+H]+
m/z	relative intensity
51.0222	26
59.0315	67
60.0332	22
77.0393	716
91.0422	89
92.0494	331
100.0679	22
101.0388	58
105.0446	35
115.0544	174
118.0636	22
120.0562	362
128.0501	551
141.0702	170
143.0504	250
151.054	22
153.0591	49
154.0666	17
156.0455	613
167.0726	143
168.0803	111
169.0796	71
171.0567	58
181.0781	31
182.0625	17
182.0813	17
196.088	999
197.0958	851
198.1015	129
205.0686	26
219.0884	35
220.0887	22
229.0696	17
230.0862	26
231.0724	49
231.0972	44
232.0889	62
233.0992	17
247.0881	53
248.0959	40
336.1374	49
353.1406	806
