Mass spectrum: Torasemide; LC-ESI-QTOF; MS2; 120 V
Name: Torasemide
Class: Pharmaceutical
Formula: C16H20N4O3S
Exact mass: 348.1256
SMILES: CC(C)NC(=O)N[S](=O)(=O)c1cnccc1Nc2cccc(C)c2
InChI: InChI=1S/C16H20N4O3S/c1-11(2)18-16(21)20-24(22,23)15-10-17-8-7-14(15)19-13-6-4-5-12(3)9-13/h4-11H,1-3H3,(H,17,19)(H2,18,20,21)
Instrument: TripleTOF 5600 SCIEX
Instrument type: LC-ESI-QTOF
Ms type: MS2
Ion mode: NEGATIVE
Collision energy: 120
Fragmentation mode: CID
Ionization: ESI
Column name: Zorbax Eclipse Plus C18 2.1 mm x 150 mm, 3.5 um, Agilent
Retention time: 7.633 min
Precursor m/z: 347.1183
Precursor type: [M-H]-
m/z	relative intensity
42.0009	81
47.9696	167
61.9714	268
63.9634	466
65.0152	91
77.9653	999
78.9736	126
91.0301	141
93.0457	451
114.0349	91
138.0352	65
165.0466	507
166.0513	238
178.0542	116
179.0628	603
180.0695	289
181.0769	106
