Mass spectrum: 4,4`-Methylenebis(2-methylaniline); LC-ESI-QTOF; MS2; 80 V
Name: 4,4`-Methylenebis(2-methylaniline)
Formula: C15H18N2
Exact mass: 226.147
SMILES: CC1=C(C=CC(=C1)CC2=CC(=C(C=C2)N)C)N
InChI: InChI=1S/C15H18N2/c1-10-7-12(3-5-14(10)16)9-13-4-6-15(17)11(2)8-13/h3-8H,9,16-17H2,1-2H3
Instrument: TripleTOF 6600 SCIEX
Instrument type: LC-ESI-QTOF
Ms type: MS2
Ion mode: POSITIVE
Collision energy: 80
Fragmentation mode: CID
Ionization: ESI
Column name: Zorbax Eclipse Plus C18 2.1 mm x 150 mm, 3.5 um, Agilent
Retention time: 5.215 min
Precursor m/z: 227.1543
Precursor type: [M+H]+
m/z	relative intensity
39.0217	21
42.0326	25
50.0153	21
51.022	201
53.0368	21
61.0074	17
63.0216	25
65.0367	120
66.0459	21
77.037	999
78.0437	85
79.0543	21
80.0475	98
89.0374	38
91.0525	330
92.0483	21
93.056	98
94.0627	34
102.0466	55
103.0516	102
104.0478	252
105.0548	47
115.0535	77
117.0553	21
118.0635	158
119.072	85
120.0791	295
126.0429	47
127.0535	77
128.0615	81
129.0508	17
139.0515	47
140.0594	21
150.044	94
151.0526	261
152.0618	531
153.064	77
163.0567	60
164.0604	30
165.0685	261
166.0726	47
167.0709	38
168.078	25
175.0564	21
176.0597	248
177.0676	72
178.0655	47
179.062	34
180.0719	21
189.0695	30
191.075	51
192.0783	47
193.0905	25
