Mass spectrum: Lomefloxacin; LC-ESI-QTOF; MS2; 40 V
Name: Lomefloxacin
Class: Pharmaceutical; Antimicrobial
Formula: C17H19F2N3O3
Exact mass: 351.1394
SMILES: CCn1cc(c(=O)c2c1c(c(c(c2)F)N3CCNC(C3)C)F)C(=O)O
InChI: InChI=1S/C17H19F2N3O3/c1-3-21-8-11(17(24)25)16(23)10-6-12(18)15(13(19)14(10)21)22-5-4-20-9(2)7-22/h6,8-9,20H,3-5,7H2,1-2H3,(H,24,25)
Instrument: TripleTOF 5600 SCIEX
Instrument type: LC-ESI-QTOF
Ms type: MS2
Ion mode: POSITIVE
Collision energy: 40
Fragmentation mode: CID
Ionization: ESI
Column name: Zorbax Eclipse Plus C18 2.1 mm x 150 mm, 3.5 um, Agilent
Retention time: 5.44 min
Precursor m/z: 352.1467
Precursor type: [M+H]+
m/z	relative intensity
153.0399	20
166.044	30
179.0418	20
181.0306	30
194.0648	116
195.0477	85
195.073	30
196.0411	30
196.0781	25
197.0549	25
197.0717	20
202.052	30
203.06	60
203.0983	20
205.0292	20
208.0531	55
208.0803	30
208.097	25
209.0528	20
217.0758	65
221.0503	20
222.0565	80
223.0669	171
224.0743	30
225.0837	65
230.1126	25
231.0886	30
235.0676	35
235.0749	25
236.0749	85
237.0817	575
243.0513	25
243.114	105
244.051	50
249.0472	146
250.0901	30
251.0975	262
257.0623	20
258.1383	55
263.0619	65
263.0998	25
265.1138	999
268.1461	20
286.0962	90
288.1469	105
291.0962	55
291.1251	95
306.1013	136
306.1386	25
308.1546	312
314.1283	176
334.1345	953
352.1459	181
