Mass spectrum: Amethopterin; LC-ESI-QTOF; MS2; 40 V
Name: Amethopterin
Class: Pharmaceutical
Formula: C20H22N8O5
Exact mass: 454.1713
SMILES: CN(Cc1cnc2nc(N)nc(N)c2n1)c3ccc(cc3)C(=O)NC(CCC(O)=O)C(O)=O
InChI: InChI=1S/C20H22N8O5/c1-28(9-11-8-23-17-15(24-11)16(21)26-20(22)27-17)12-4-2-10(3-5-12)18(31)25-13(19(32)33)6-7-14(29)30/h2-5,8,13H,6-7,9H2,1H3,(H,25,31)(H,29,30)(H,32,33)(H4,21,22,23,26,27)
Instrument: TripleTOF 5600 SCIEX
Instrument type: LC-ESI-QTOF
Ms type: MS2
Ion mode: NEGATIVE
Collision energy: 40
Fragmentation mode: CID
Ionization: ESI
Column name: Zorbax Eclipse Plus C18 2.1 mm x 150 mm, 3.5 um, Agilent
Retention time: 5.057 min
Precursor m/z: 453.164
Precursor type: [M-H]-
m/z	relative intensity
132.0434	78
133.054	63
149.0471	63
149.0708	83
150.0567	93
157.0384	78
161.0697	53
162.0793	88
173.0594	102
174.0655	509
175.0752	117
191.12	200
217.1009	102
234.101	117
235.1097	254
238.109	107
281.1151	127
282.0999	176
323.1579	284
324.1233	999
349.1458	68
365.1832	97
367.1518	259
391.1647	107
392.1455	166
409.1741	386
435.1547	97
453.1638	97
