Mass spectrum: Cyclohexyldiethanolamine; LC-ESI-QTOF; MS2; 60 V
Name: Cyclohexyldiethanolamine
Formula: C10H21NO2
Exact mass: 187.1572
SMILES: C1CCC(CC1)N(CCO)CCO
InChI: InChI=1S/C10H21NO2/c12-8-6-11(7-9-13)10-4-2-1-3-5-10/h10,12-13H,1-9H2
Instrument: TripleTOF 6600 SCIEX
Instrument type: LC-ESI-QTOF
Ms type: MS2
Ion mode: POSITIVE
Collision energy: 60
Fragmentation mode: CID
Ionization: ESI
Column name: Zorbax Eclipse Plus C18 2.1 mm x 150 mm, 3.5 um, Agilent
Retention time: 4.323 min
Precursor m/z: 188.1645
Precursor type: [M+H]+
m/z	relative intensity
37.0071	26
38.0019	14
38.0149	32
39.0227	366
41.0383	328
42.0339	219
43.0164	14
44.0491	257
45.0333	243
53.0384	49
55.0538	999
68.0485	17
70.0644	111
83.0845	20
88.0765	14
