Mass spectrum: Flumioxazin; LC-ESI-QTOF; MS2; 30 V
Name: Flumioxazin
Class: Herbicide
Formula: C19H15FN2O4
Exact mass: 354.1016
SMILES: C#CCN1c2cc(c(cc2OCC1=O)F)N3C(=O)C4=C(C3=O)CCCC4
InChI: InChI=1S/C19H15FN2O4/c1-2-7-21-15-9-14(13(20)8-16(15)26-10-17(21)23)22-18(24)11-5-3-4-6-12(11)19(22)25/h1,8-9H,3-7,10H2
Instrument: TripleTOF 6600 SCIEX
Instrument type: LC-ESI-QTOF
Ms type: MS2
Ion mode: POSITIVE
Collision energy: 30
Fragmentation mode: CID
Ionization: ESI
Column name: Zorbax Eclipse Plus C18 2.1 mm x 150 mm, 3.5 um, Agilent
Retention time: 11.704 min
Precursor m/z: 355.1089
Precursor type: [M+H]+
m/z	relative intensity
75.0239	14
81.0679	14
107.0467	67
134.0606	14
148.0535	22
149.0393	52
176.0495	164
177.0577	37
190.0519	44
191.0661	14
202.0672	14
204.0449	134
219.0585	22
232.0366	22
232.0796	14
239.0493	22
240.0746	37
243.063	14
244.076	22
253.0776	7
257.0654	14
258.0924	37
260.0723	67
271.0833	29
271.1274	22
274.0876	14
279.078	37
281.0723	14
281.1094	44
285.0765	89
285.1058	37
286.0861	29
287.0838	82
297.0978	14
298.0875	44
299.0827	380
299.1165	14
300.0581	14
300.1038	14
301.0959	14
307.1067	104
313.098	186
316.0837	44
327.0775	111
327.1143	499
355.1088	999
