Mass spectrum: Flazasulfuron; LC-ESI-QTOF; MS2; 80 V
Name: Flazasulfuron
Class: Herbicide
Formula: C13H12F3N5O5S
Exact mass: 407.0511
SMILES: COC1=CC(=NC(=N1)NC(=O)NS(=O)(=O)C2=C(C=CC=N2)C(F)(F)F)OC
InChI: InChI=1S/C13H12F3N5O5S/c1-25-8-6-9(26-2)19-11(18-8)20-12(22)21-27(23,24)10-7(13(14,15)16)4-3-5-17-10/h3-6H,1-2H3,(H2,18,19,20,21,22)
Instrument: TripleTOF 6600 SCIEX
Instrument type: LC-ESI-QTOF
Ms type: MS2
Ion mode: NEGATIVE
Collision energy: 80
Fragmentation mode: CID
Ionization: ESI
Column name: Zorbax Eclipse Plus C18 2.1 mm x 150 mm, 3.5 um, Agilent
Retention time: 11.145 min
Precursor m/z: 406.0438
Precursor type: [M-H]-
m/z	relative intensity
40.0055	43
41.0128	135
41.9974	272
50.0021	16
64.0058	51
65.0131	287
65.9969	999
74.0012	34
77.9641	27
82.0139	23
87.9997	23
89.0117	10
90.0074	43
91.0265	18
94.0089	18
107.0109	645
108.0188	36
109.0269	25
114.0157	12
121.0201	32
122.034	406
139.0387	137
141.0232	10
142.0063	20
154.0636	49
161.0324	10
162.0156	16
