Mass spectrum: 4,4`-Methylenebis(2-methylaniline); LC-ESI-QTOF; MS2; 100 V
Name: 4,4`-Methylenebis(2-methylaniline)
Formula: C15H18N2
Exact mass: 226.147
SMILES: CC1=C(C=CC(=C1)CC2=CC(=C(C=C2)N)C)N
InChI: InChI=1S/C15H18N2/c1-10-7-12(3-5-14(10)16)9-13-4-6-15(17)11(2)8-13/h3-8H,9,16-17H2,1-2H3
Instrument: TripleTOF 6600 SCIEX
Instrument type: LC-ESI-QTOF
Ms type: MS2
Ion mode: POSITIVE
Collision energy: 100
Fragmentation mode: CID
Ionization: ESI
Column name: Zorbax Eclipse Plus C18 2.1 mm x 150 mm, 3.5 um, Agilent
Retention time: 5.215 min
Precursor m/z: 227.1543
Precursor type: [M+H]+
m/z	relative intensity
39.022	141
42.0326	47
50.014	131
51.0217	650
62.0146	37
63.0217	65
65.0372	226
66.0441	65
74.0128	65
75.022	56
76.0299	56
77.0369	999
78.0316	47
78.0436	94
80.0486	75
89.0378	103
91.0526	320
92.051	47
93.0558	65
102.0468	113
104.0484	282
105.0594	47
115.0496	47
115.0554	47
117.0563	75
118.0634	103
126.0442	150
127.0505	75
139.0535	160
140.0515	75
149.0339	37
150.0468	292
151.0518	301
152.0611	263
162.0431	65
163.0554	179
164.0591	103
165.066	169
166.0638	56
176.0595	84
