Mass spectrum: Ifosfamide; LC-ESI-QTOF; MS2; 40 V
Name: Ifosfamide
Class: Pharmaceutical
Formula: C7H15Cl2N2O2P
Exact mass: 260.0248
SMILES: ClCCN[P]1(=O)OCCCN1CCCl
InChI: InChI=1S/C7H15Cl2N2O2P/c8-2-4-10-14(12)11(6-3-9)5-1-7-13-14/h1-7H2,(H,10,12)
Instrument: TripleTOF 5600 SCIEX
Instrument type: LC-ESI-QTOF
Ms type: MS2
Ion mode: POSITIVE
Collision energy: 40
Fragmentation mode: CID
Ionization: ESI
Column name: Zorbax Eclipse Plus C18 2.1 mm x 150 mm, 3.5 um, Agilent
Retention time: 7.429 min
Precursor m/z: 261.0321
Precursor type: [M+H]+
m/z	relative intensity
44.0581	10
56.0542	82
63.0052	419
63.9978	19
78.0136	257
78.0356	35
79.9937	21
82.0677	13
84.0836	13
92.0285	999
92.0684	21
98.9406	19
106.0046	21
118.0071	38
118.0413	16
120.0565	161
123.9757	24
125.9513	167
126.9685	19
127.9662	35
128.0266	32
141.9812	27
146.0367	49
146.0466	13
153.9822	795
182.0137	145
233.0012	170
261.0333	279
