Mass spectrum: Medroxyprogesterone; LC-ESI-QTOF; MS2; 150 V
Name: Medroxyprogesterone
Class: Pharmaceutical
Formula: C22H32O3
Exact mass: 344.2351
SMILES: CC1CC2C(CCC3(C2CCC3(C(=O)C)O)C)C4(C1=CC(=O)CC4)C
InChI: InChI=1S/C22H32O3/c1-13-11-16-17(20(3)8-5-15(24)12-19(13)20)6-9-21(4)18(16)7-10-22(21,25)14(2)23/h12-13,16-18,25H,5-11H2,1-4H3
Instrument: TripleTOF 6600 SCIEX
Instrument type: LC-ESI-QTOF
Ms type: MS2
Ion mode: POSITIVE
Collision energy: 150
Fragmentation mode: CID
Ionization: ESI
Column name: Zorbax Eclipse Plus C18 2.1 mm x 150 mm, 3.5 um, Agilent
Retention time: 12.524 min
Precursor m/z: 345.2424
Precursor type: [M+H]+
m/z	relative intensity
35.9998	30
37.0076	131
38.0032	38
38.0153	131
39.0232	681
41.0387	185
43.0181	340
49.0075	69
50.0151	363
51.0231	937
53.0386	116
55.0175	85
55.0539	46
62.0154	85
63.0229	193
65.0385	433
66.0456	30
67.055	69
74.0144	77
77.0389	999
78.0466	116
79.0545	170
89.0384	178
91.0539	317
102.0476	139
103.0548	77
105.0706	30
107.0493	54
115.0547	402
126.0461	77
127.055	139
128.0618	247
129.0693	38
139.0546	108
141.0712	46
150.0467	30
151.0549	100
152.0627	162
153.0706	54
155.0613	30
163.0547	100
164.0611	61
165.0706	108
