Mass spectrum: Flavanone; LC-ESI-QTOF; MS2; 30 V
Name: Flavanone
Class: Personal_care_product
Formula: C15H12O2
Exact mass: 224.0837
SMILES: C1C(OC2=CC=CC=C2C1=O)C3=CC=CC=C3
InChI: InChI=1S/C15H12O2/c16-13-10-15(11-6-2-1-3-7-11)17-14-9-5-4-8-12(13)14/h1-9,15H,10H2
Instrument: TripleTOF 5600 SCIEX
Instrument type: LC-ESI-QTOF
Ms type: MS2
Ion mode: POSITIVE
Collision energy: 30
Fragmentation mode: CID
Ionization: ESI
Column name: Zorbax Eclipse Plus C18 2.1 mm x 150 mm, 3.5 um, Agilent
Retention time: 12.61 min
Precursor m/z: 225.091
Precursor type: [M+H]+
m/z	relative intensity
65.0385	47
77.0385	23
79.0541	11
91.0546	20
93.0329	91
103.0543	179
107.0501	14
119.0496	14
121.029	999
131.0494	223
147.0445	75
165.0713	11
178.0773	77
179.0866	275
181.067	21
182.0738	11
207.0807	77
210.0679	231
225.0919	55
