Mass spectrum: 2-(4-Chlorophenyl)benzimidazole; LC-ESI-QTOF; MS2; 120 V
Name: 2-(4-Chlorophenyl)benzimidazole
Class: Pharmaceutical
Formula: C13H9ClN2
Exact mass: 228.0454
SMILES: C1=CC=C2C(=C1)NC(=N2)C3=CC=C(C=C3)Cl
InChI: InChI=1S/C13H9ClN2/c14-10-7-5-9(6-8-10)13-15-11-3-1-2-4-12(11)16-13/h1-8H,(H,15,16)
Instrument: TripleTOF 5600 SCIEX
Instrument type: LC-ESI-QTOF
Ms type: MS2
Ion mode: POSITIVE
Collision energy: 120
Fragmentation mode: CID
Ionization: ESI
Column name: Zorbax Eclipse Plus C18 2.1 mm x 150 mm, 3.5 um, Agilent
Retention time: 6.754 min
Precursor m/z: 229.0527
Precursor type: [M+H]+
m/z	relative intensity
52.0306	188
64.0345	194
65.0462	999
72.9889	42
73.0128	91
74.0207	828
75.0151	36
75.0294	310
76.0252	67
77.0436	73
84.9867	30
85.0088	67
86.019	103
87.0253	188
88.0239	48
88.0357	42
89.0424	274
90.0386	36
91.0469	67
92.0524	24
98.0176	48
99.0235	30
110.0135	30
111.0134	67
112.0196	48
113.0394	146
114.0364	67
115.0525	42
137.0403	127
138.0428	54
139.054	134
140.0507	54
164.0509	152
