Mass spectrum: Nitenpyram; LC-ESI-QTOF; MS2; 70 V
Name: Nitenpyram
Class: Pharmaceutical; Insecticide
Formula: C11H15ClN4O2
Exact mass: 270.0884
SMILES: CCN(CC1=CN=C(C=C1)Cl)/C(=C/[N+](=O)[O-])/NC
InChI: InChI=1S/C11H15ClN4O2/c1-3-15(11(13-2)8-16(17)18)7-9-4-5-10(12)14-6-9/h4-6,8,13H,3,7H2,1-2H3/b11-8+
Instrument: TripleTOF 5600 SCIEX
Instrument type: LC-ESI-QTOF
Ms type: MS2
Ion mode: POSITIVE
Collision energy: 70
Fragmentation mode: CID
Ionization: ESI
Column name: Zorbax Eclipse Plus C18 2.1 mm x 150 mm, 3.5 um, Agilent
Retention time: 5.386 min
Precursor m/z: 271.0956
Precursor type: [M+H]+
m/z	relative intensity
55.0348	12
56.0554	999
57.0483	15
58.0686	36
63.0434	12
64.0349	15
70.0677	12
72.9867	225
75.0245	12
76.0189	18
77.0395	18
78.035	45
85.0431	15
89.0408	21
90.0348	258
91.0411	84
92.0519	21
98.0711	12
98.999	243
99.0927	30
102.0341	60
104.0478	21
105.0448	18
106.0656	36
111.9949	39
114.0133	24
116.0466	30
117.0554	36
118.0516	27
126.0093	360
128.0439	15
129.0421	24
131.0608	42
131.0814	15
132.0661	36
138.0081	66
139.0036	27
139.02	18
141.0185	27
144.0527	15
145.0602	24
150.0105	33
151.0059	15
152.0252	39
153.0247	15
155.0373	15
160.0816	18
165.0175	48
167.0341	12
179.0333	48
180.0292	12
194.0524	21
