Mass spectrum: Amisulpride; LC-ESI-QTOF; MS2; 60 V
Name: Amisulpride
Class: Pharmaceutical
Formula: C17H27N3O4S
Exact mass: 369.1722
SMILES: CCN1CCCC1CNC(=O)c2cc(c(N)cc2OC)[S](=O)(=O)CC
InChI: InChI=1S/C17H27N3O4S/c1-4-20-8-6-7-12(20)11-19-17(21)13-9-16(25(22,23)5-2)14(18)10-15(13)24-3/h9-10,12H,4-8,11,18H2,1-3H3,(H,19,21)
Instrument: TripleTOF 5600 SCIEX
Instrument type: LC-ESI-QTOF
Ms type: MS2
Ion mode: POSITIVE
Collision energy: 60
Fragmentation mode: CID
Ionization: ESI
Column name: Zorbax Eclipse Plus C18 2.1 mm x 150 mm, 3.5 um, Agilent
Retention time: 5.568 min
Precursor m/z: 370.1795
Precursor type: [M+H]+
m/z	relative intensity
66.0509	19
84.0837	74
93.0587	10
98.0976	12
107.013	11
107.9913	13
108.0451	24
110.0066	23
112.1133	151
120.0445	12
121.0528	57
122.0363	48
132.0084	36
138.001	16
140.0174	72
147.0324	121
149.0481	314
150.0007	11
150.0554	19
168.0126	242
177.9965	78
196.0071	999
214.0176	137
242.0494	358
