Mass spectrum: 2-p-Tolyl-1H-benzoimidazole; LC-ESI-QTOF; MS2; 100 V
Name: 2-p-Tolyl-1H-benzoimidazole
Class: Pharmaceutical
Formula: C14H12N2
Exact mass: 208.1
SMILES: CC1=CC=C(C=C1)C2=NC3=CC=CC=C3N2
InChI: InChI=1S/C14H12N2/c1-10-6-8-11(9-7-10)14-15-12-4-2-3-5-13(12)16-14/h2-9H,1H3,(H,15,16)
Instrument: TripleTOF 5600 SCIEX
Instrument type: LC-ESI-QTOF
Ms type: MS2
Ion mode: POSITIVE
Collision energy: 100
Fragmentation mode: CID
Ionization: ESI
Column name: Zorbax Eclipse Plus C18 2.1 mm x 150 mm, 3.5 um, Agilent
Retention time: 6.061 min
Precursor m/z: 209.1073
Precursor type: [M+H]+
m/z	relative intensity
52.0325	35
64.0347	86
65.046	999
66.0398	11
74.0199	46
75.0279	60
76.0316	23
77.0432	147
86.0186	14
87.026	27
88.0345	20
89.0417	186
90.0372	11
91.0513	81
92.0506	18
102.0385	23
103.0542	11
113.0412	53
114.036	31
115.0549	25
125.0395	11
126.0459	20
127.0527	20
128.0573	11
137.041	31
138.0439	29
139.0549	82
140.0494	58
150.0493	31
151.0538	42
152.062	31
164.0498	81
165.0517	22
177.0609	29
178.0641	22
179.0628	11
192.0713	12
205.0776	44
