Mass spectrum: Flavanone; LC-ESI-QTOF; MS2; 60 V
Name: Flavanone
Class: Personal_care_product
Formula: C15H12O2
Exact mass: 224.0837
SMILES: C1C(OC2=CC=CC=C2C1=O)C3=CC=CC=C3
InChI: InChI=1S/C15H12O2/c16-13-10-15(11-6-2-1-3-7-11)17-14-9-5-4-8-12(13)14/h1-9,15H,10H2
Instrument: TripleTOF 5600 SCIEX
Instrument type: LC-ESI-QTOF
Ms type: MS2
Ion mode: POSITIVE
Collision energy: 60
Fragmentation mode: CID
Ionization: ESI
Column name: Zorbax Eclipse Plus C18 2.1 mm x 150 mm, 3.5 um, Agilent
Retention time: 12.61 min
Precursor m/z: 225.091
Precursor type: [M+H]+
m/z	relative intensity
37.0069	20
38.0164	20
39.0228	119
51.0234	75
65.0386	964
75.0232	30
77.0382	999
79.0547	61
91.054	88
93.0332	273
101.0387	51
102.0455	65
103.0541	502
115.0553	20
121.0301	352
128.0638	30
129.0337	17
131.0477	13
150.0451	13
151.0524	92
152.0618	294
153.0685	34
163.0558	17
165.0695	23
176.0614	157
177.0694	116
178.0766	403
181.0646	68
