Mass spectrum: Dronabinol; LC-ESI-QTOF; MS2; 130 V
Name: Dronabinol
Class: Pharmaceutical
Formula: C21H30O2
Exact mass: 314.2246
SMILES: CCCCCC1=CC(=C2C3C=C(CCC3C(OC2=C1)(C)C)C)O
InChI: InChI=1S/C21H30O2/c1-5-6-7-8-15-12-18(22)20-16-11-14(2)9-10-17(16)21(3,4)23-19(20)13-15/h11-13,16-17,22H,5-10H2,1-4H3
Instrument: TripleTOF 6600 SCIEX
Instrument type: LC-ESI-QTOF
Ms type: MS2
Ion mode: POSITIVE
Collision energy: 130
Fragmentation mode: CID
Ionization: ESI
Column name: Zorbax Eclipse Plus C18 2.1 mm x 150 mm, 3.5 um, Agilent
Retention time: 17.589 min
Precursor m/z: 315.2319
Precursor type: [M+H]+
m/z	relative intensity
35.9994	42
37.0065	214
38.0021	30
38.0146	227
39.0229	999
41.0383	304
43.0174	17
50.015	115
51.0227	441
53.0383	42
62.0152	25
63.0225	85
65.0378	214
74.0156	25
75.0212	34
77.0379	673
78.045	68
79.0535	85
89.0368	90
91.0536	162
102.0445	60
103.0541	60
105.0438	25
107.0476	17
115.053	205
126.0443	30
127.0535	55
128.061	132
139.0533	34
151.0551	25
152.0628	47
