Mass spectrum: Pantothenic acid; LC-ESI-QTOF; MS2; 90 V
Name: Pantothenic acid
Formula: C9H17NO5
Exact mass: 219.1107
SMILES: CC(C)(CO)C(C(=O)NCCC(=O)O)O
InChI: InChI=1S/C9H17NO5/c1-9(2,5-11)7(14)8(15)10-4-3-6(12)13/h7,11,14H,3-5H2,1-2H3,(H,10,15)(H,12,13)
Instrument: TripleTOF 6600 SCIEX
Instrument type: LC-ESI-QTOF
Ms type: MS2
Ion mode: POSITIVE
Collision energy: 90
Fragmentation mode: CID
Ionization: ESI
Column name: Zorbax Eclipse Plus C18 2.1 mm x 150 mm, 3.5 um, Agilent
Retention time: 4.792 min
Precursor m/z: 220.118
Precursor type: [M+H]+
m/z	relative intensity
30.0334	146
37.0062	146
38.0153	88
39.0228	999
41.0383	249
42.0332	176
43.0171	367
56.0129	190
80.0492	117
