Mass spectrum: Metsulfuron-methyl; LC-ESI-QTOF; MS2; 130 V
Name: Metsulfuron-methyl
Class: Herbicide
Formula: C14H15N5O6S
Exact mass: 381.0743
SMILES: CC1=NC(=NC(=N1)OC)NC(=O)NS(=O)(=O)C2=CC=CC=C2C(=O)OC
InChI: InChI=1S/C14H15N5O6S/c1-8-15-12(18-14(16-8)25-3)17-13(21)19-26(22,23)10-7-5-4-6-9(10)11(20)24-2/h4-7H,1-3H3,(H2,15,16,17,18,19,21)
Instrument: TripleTOF 6600 SCIEX
Instrument type: LC-ESI-QTOF
Ms type: MS2
Ion mode: POSITIVE
Collision energy: 130
Fragmentation mode: CID
Ionization: ESI
Column name: Zorbax Eclipse Plus C18 2.1 mm x 150 mm, 3.5 um, Agilent
Retention time: 9.15008 min
Precursor m/z: 382.0816
Precursor type: [M+H]+
m/z	relative intensity
41.0118	99
42.0332	99
43.0337	99
51.0227	399
56.0479	99
58.0289	199
64.0309	199
68.0242	99
69.0085	999
77.0378	399
90.0317	99
92.027	399
