Mass spectrum: 3-(4-Bromobutyl)-6-methylpyrimidin-4-one; LC-ESI-QTOF; MS2; 10 V
Name: 3-(4-Bromobutyl)-6-methylpyrimidin-4-one
Formula: C9H13BrN2O
Exact mass: 244.0211
SMILES: CC1=CC(=O)N(C=N1)CCCCBr
InChI: InChI=1S/C9H13BrN2O/c1-8-6-9(13)12(7-11-8)5-3-2-4-10/h6-7H,2-5H2,1H3
Instrument: TripleTOF 6600 SCIEX
Instrument type: LC-ESI-QTOF
Ms type: MS2
Ion mode: POSITIVE
Collision energy: 10
Fragmentation mode: CID
Ionization: ESI
Column name: Zorbax Eclipse Plus C18 2.1 mm x 150 mm, 3.5 um, Agilent
Retention time: 7.281 min
Precursor m/z: 245.0284
Precursor type: [M+H]+
m/z	relative intensity
111.0545	19
245.0285	999
