Mass spectrum: Thioxanthen-9-one; LC-ESI-QTOF; MS2; 140 V
Name: Thioxanthen-9-one
Formula: C13H8OS
Exact mass: 212.0296
SMILES: C1=CC=C2C(=C1)C(=O)C3=CC=CC=C3S2
InChI: InChI=1S/C13H8OS/c14-13-9-5-1-3-7-11(9)15-12-8-4-2-6-10(12)13/h1-8H
Instrument: TripleTOF 6600 SCIEX
Instrument type: LC-ESI-QTOF
Ms type: MS2
Ion mode: POSITIVE
Collision energy: 140
Fragmentation mode: CID
Ionization: ESI
Column name: Zorbax Eclipse Plus C18 2.1 mm x 150 mm, 3.5 um, Agilent
Retention time: 13.479 min
Precursor m/z: 213.0369
Precursor type: [M+H]+
m/z	relative intensity
35.9991	31
37.0073	245
38.0148	141
39.0231	261
43.9713	41
44.9791	115
49.0072	203
50.0154	826
51.0225	308
57.9874	36
59.9996	120
61.0069	653
62.0149	779
63.0228	690
65.0378	26
67.9708	271
68.9792	999
73.0074	282
74.015	931
75.0231	130
76.0298	41
80.9796	41
81.9869	41
83.9992	141
85.007	638
86.0153	878
87.0234	313
88.0297	36
89.0398	130
91.9705	83
92.9787	183
97.0071	151
98.0149	575
99.0237	31
107.9973	20
109.0061	214
110.014	177
113.0394	47
116.9796	26
121.007	26
122.0153	47
126.0519	20
137.037	47
139.0544	31
150.0475	47
