Mass spectrum: Chlorothiazide; LC-ESI-QTOF; MS2; 70 V
Name: Chlorothiazide
Class: Pharmaceutical; Transformation_product-Metabolite
Formula: C7H6ClN3O4S2
Exact mass: 294.9488
SMILES: N[S](=O)(=O)c1cc2c(NC=N[S]2(=O)=O)cc1Cl
InChI: InChI=1S/C7H6ClN3O4S2/c8-4-1-5-7(2-6(4)16(9,12)13)17(14,15)11-3-10-5/h1-3H,(H,10,11)(H2,9,12,13)
Instrument: TripleTOF 5600 SCIEX
Instrument type: LC-ESI-QTOF
Ms type: MS2
Ion mode: NEGATIVE
Collision energy: 70
Fragmentation mode: CID
Ionization: ESI
Column name: Zorbax Eclipse Plus C18 2.1 mm x 150 mm, 3.5 um, Agilent
Retention time: 5.43 min
Precursor m/z: 293.9415
Precursor type: [M-H]-
m/z	relative intensity
113.0119	98
114.0192	65
115.0277	146
178.9891	999
179.9903	93
213.9573	88
