Mass spectrum: Methadone; LC-ESI-QTOF; MS2; 40 V
Name: Methadone
Class: Pharmaceutical
Formula: C21H27NO
Exact mass: 309.2093
SMILES: CCC(=O)C(CC(C)N(C)C)(C1=CC=CC=C1)C2=CC=CC=C2
InChI: InChI=1S/C21H27NO/c1-5-20(23)21(16-17(2)22(3)4,18-12-8-6-9-13-18)19-14-10-7-11-15-19/h6-15,17H,5,16H2,1-4H3
Instrument: TripleTOF 6600 SCIEX
Instrument type: LC-ESI-QTOF
Ms type: MS2
Ion mode: POSITIVE
Collision energy: 40
Fragmentation mode: CID
Ionization: ESI
Column name: Zorbax Eclipse Plus C18 2.1 mm x 150 mm, 3.5 um, Agilent
Retention time: 8.79 min
Precursor m/z: 310.2166
Precursor type: [M+H]+
m/z	relative intensity
57.0332	76
77.0381	182
91.0536	245
105.0338	999
115.0535	23
117.0693	164
128.0612	13
129.0691	52
131.084	17
141.0686	12
143.0845	13
145.0641	22
159.1151	25
165.0686	12
167.0847	55
169.1001	10
178.0771	16
179.0848	13
191.0848	22
194.0719	32
195.1158	89
202.0771	10
203.0854	43
204.0933	163
205.1006	51
217.1008	35
218.1092	91
219.1168	170
223.1116	62
232.1246	19
236.1192	22
247.1476	11
265.1592	20
