Mass spectrum: O-desmethyl-venlafaxine; LC-ESI-QTOF; MS2; 30 V
Name: O-desmethyl-venlafaxine
Class: Metabolite; Pharmaceutical
Formula: C16H25NO2
Exact mass: 263.1885
SMILES: CN(C)CC(C1=CC=C(C=C1)O)C2(CCCCC2)O
InChI: InChI=1S/C16H25NO2/c1-17(2)12-15(13-6-8-14(18)9-7-13)16(19)10-4-3-5-11-16/h6-9,15,18-19H,3-5,10-12H2,1-2H3
Instrument: TripleTOF 5600 SCIEX
Instrument type: LC-ESI-QTOF
Ms type: MS2
Ion mode: POSITIVE
Collision energy: 30
Fragmentation mode: CID
Ionization: ESI
Column name: Zorbax Eclipse Plus C18 2.1 mm x 150 mm, 3.5 um, Agilent
Retention time: 5.367 min
Precursor m/z: 264.1958
Precursor type: [M+H]+
m/z	relative intensity
42.0449	11
58.0747	999
69.0763	12
77.0443	15
79.0595	21
81.0734	36
105.071	17
107.051	426
119.0525	14
121.0648	39
131.0513	12
133.0658	347
144.061	10
145.0658	100
149.0863	12
159.0809	153
163.0998	21
164.1078	27
173.0979	15
201.1273	155
246.1862	125
264.1929	21
