Mass spectrum: Florasulam; LC-ESI-QTOF; MS2; 150 V
Name: Florasulam
Class: Herbicide
Formula: C12H8F3N5O3S
Exact mass: 359.03
SMILES: COC1=NC=C(C2=NC(=NN21)S(=O)(=O)NC3=C(C=CC=C3F)F)F
InChI: InChI=1S/C12H8F3N5O3S/c1-23-12-16-5-8(15)10-17-11(18-20(10)12)24(21,22)19-9-6(13)3-2-4-7(9)14/h2-5,19H,1H3
Instrument: TripleTOF 6600 SCIEX
Instrument type: LC-ESI-QTOF
Ms type: MS2
Ion mode: POSITIVE
Collision energy: 150
Fragmentation mode: CID
Ionization: ESI
Column name: Zorbax Eclipse Plus C18 2.1 mm x 150 mm, 3.5 um, Agilent
Retention time: 9.723 min
Precursor m/z: 360.0373
Precursor type: [M+H]+
m/z	relative intensity
30.9961	73
33.0114	12
37.0058	20
38.0125	25
46.0061	18
50.012	31
51.0023	81
51.0204	43
52.0156	73
53.011	12
56.003	58
57.0107	89
58.0058	22
59.997	64
61.0046	294
62.0121	330
63.0085	25
63.0201	409
65.0225	12
70.0063	112
73.9995	10
74.0117	12
75.0014	171
76.0156	43
77.0104	31
81.0107	999
82.0053	27
82.018	108
83.0136	10
84.008	12
87.007	16
88.0149	64
89.0242	18
99.0045	12
101.0166	102
102.0235	10
108.0212	14
109.0304	12
