Mass spectrum: Medroxyprogesterone-17-acetate; LC-ESI-QTOF; MS2; 60 V
Name: Medroxyprogesterone-17-acetate
Class: Pharmaceutical
Formula: C24H34O4
Exact mass: 386.2457
SMILES: CC1CC2C(CCC3(C2CCC3(C(=O)C)OC(=O)C)C)C4(C1=CC(=O)CC4)C
InChI: InChI=1S/C24H34O4/c1-14-12-18-19(22(4)9-6-17(27)13-21(14)22)7-10-23(5)20(18)8-11-24(23,15(2)25)28-16(3)26/h13-14,18-20H,6-12H2,1-5H3
Instrument: TripleTOF 5600 SCIEX
Instrument type: LC-ESI-QTOF
Ms type: MS2
Ion mode: POSITIVE
Collision energy: 60
Fragmentation mode: CID
Ionization: ESI
Column name: Zorbax Eclipse Plus C18 2.1 mm x 150 mm, 3.5 um, Agilent
Retention time: 13.723 min
Precursor m/z: 387.253
Precursor type: [M+H]+
m/z	relative intensity
41.0386	17
43.0177	104
55.0181	13
55.0542	43
65.0385	10
67.054	134
69.0699	27
77.0383	89
79.0539	127
81.0333	13
81.0692	86
83.0491	94
91.0543	201
93.0696	170
95.0508	23
95.0851	167
97.0646	604
103.0539	26
105.0697	288
107.0497	24
107.0843	78
108.0571	31
109.0646	66
109.1012	32
111.0808	26
115.0562	23
116.0623	10
117.0698	73
119.0854	212
121.0649	30
121.1008	34
123.0806	999
127.0544	10
128.0626	48
129.0702	85
130.0788	31
131.0846	151
133.0654	19
133.1015	128
135.0793	22
135.1172	18
137.0957	120
141.0688	44
142.0777	64
143.086	99
144.0913	35
145.101	197
147.0806	14
147.1166	142
149.1319	10
154.0783	24
155.0863	45
156.093	64
157.1017	78
158.1096	14
159.0819	11
159.1169	82
160.1251	11
161.0939	15
161.1328	60
167.0871	24
168.0924	20
169.1011	73
170.1096	18
171.0859	14
171.1163	83
173.0984	13
173.1329	77
175.1111	11
175.1469	53
177.1264	13
179.0864	17
180.0945	11
181.1011	40
182.1077	15
183.1147	56
185.1323	40
187.1113	11
187.1445	13
189.1292	13
193.1025	15
195.1164	35
196.1259	14
197.1331	60
199.1116	35
199.1476	37
207.1199	13
209.1311	35
210.141	17
211.1493	39
213.1286	40
213.1659	11
214.1357	208
215.1432	18
221.1295	14
223.1482	36
225.1624	20
227.1839	14
237.1574	10
251.1784	75
267.2127	14
269.1929	18
