Mass spectrum: 2-Phenylbenzimidazole-5-sulfonic acid; LC-ESI-QTOF; MS2; 60 V
Name: 2-Phenylbenzimidazole-5-sulfonic acid
Class: Personal_care_product
Formula: C13H10N2O3S
Exact mass: 274.0412
SMILES: C1=CC=C(C=C1)C2=NC3=C(N2)C=C(C=C3)S(=O)(=O)O
InChI: InChI=1S/C13H10N2O3S/c16-19(17,18)10-6-7-11-12(8-10)15-13(14-11)9-4-2-1-3-5-9/h1-8H,(H,14,15)(H,16,17,18)
Instrument: TripleTOF 5600 SCIEX
Instrument type: LC-ESI-QTOF
Ms type: MS2
Ion mode: POSITIVE
Collision energy: 60
Fragmentation mode: CID
Ionization: ESI
Column name: Zorbax Eclipse Plus C18 2.1 mm x 150 mm, 3.5 um, Agilent
Retention time: 5.039 min
Precursor m/z: 275.0485
Precursor type: [M+H]+
m/z	relative intensity
64.0376	73
65.0457	52
66.0551	22
77.043	29
79.048	20
80.054	18
81.0384	32
89.0432	75
90.0501	98
91.0462	137
92.0512	48
104.0514	96
108.0432	20
115.0569	11
117.0576	11
127.0568	13
139.0545	96
140.0566	70
141.0582	11
154.0665	54
164.0477	11
165.0603	11
166.0655	413
167.0733	224
168.0748	73
181.0773	13
182.0822	13
192.068	187
193.0761	999
194.0835	763
195.0932	50
