Mass spectrum: Benzyltriphenylphosphonium; LC-ESI-QTOF; MS2; 70 V
Name: Benzyltriphenylphosphonium
Class: Industrial_process
Formula: [C25H22P]+
Exact mass: 353.1454
SMILES: C1=CC=C(C=C1)C[P+](C2=CC=CC=C2)(C3=CC=CC=C3)C4=CC=CC=C4
InChI: InChI=1S/C25H22P/c1-5-13-22(14-6-1)21-26(23-15-7-2-8-16-23,24-17-9-3-10-18-24)25-19-11-4-12-20-25/h1-20H,21H2/q+1
Instrument: TripleTOF 5600 SCIEX
Instrument type: LC-ESI-QTOF
Ms type: MS2
Ion mode: POSITIVE
Collision energy: 70
Fragmentation mode: CID
Ionization: ESI
Column name: Zorbax Eclipse Plus C18 2.1 mm x 150 mm, 3.5 um, Agilent
Retention time: 8.706 min
Precursor m/z: 353.1454
Precursor type: [M]+
m/z	relative intensity
65.0377	108
91.0521	768
107.0026	225
108.0105	123
152.0612	75
183.0351	999
