Mass spectrum: Reactive Orange; LC-ESI-QTOF; MS2; 40 V
Name: Reactive Orange
Formula: C20H19N3O11S3
Exact mass: 573.0182
SMILES: CC(=O)NC1=CC2=C(C(=C(C=C2C=C1)S(=O)(=O)O)N=NC3=CC=C(C=C3)S(=O)(=O)CCOS(=O)(=O)O)O
InChI: InChI=1S/C20H19N3O11S3/c1-12(24)21-15-3-2-13-10-18(36(28,29)30)19(20(25)17(13)11-15)23-22-14-4-6-16(7-5-14)35(26,27)9-8-34-37(31,32)33/h2-7,10-11,25H,8-9H2,1H3,(H,21,24)(H,28,29,30)(H,31,32,33)
Instrument: TripleTOF 6600 SCIEX
Instrument type: LC-ESI-QTOF
Ms type: MS2
Ion mode: POSITIVE
Collision energy: 40
Fragmentation mode: CID
Ionization: ESI
Column name: Zorbax Eclipse Plus C18 2.1 mm x 150 mm, 3.5 um, Agilent
Retention time: 5.751 min
Precursor m/z: 574.0255
Precursor type: [M+H]+
m/z	relative intensity
74.9897	10
81.0331	19
108.044	434
136.0741	29
156.01	12
159.0534	14
170.0464	204
171.0535	30
200.0359	10
212.0566	44
213.0648	51
233.0963	19
260.0809	25
261.0886	195
275.0969	10
280.9995	12
302.0925	97
303.0998	317
343.0743	10
358.0845	43
366.0525	20
367.0647	45
368.0683	20
370.0842	35
385.0749	24
386.0797	79
394.0846	29
400.0933	26
412.0965	222
428.0887	15
458.0487	29
466.0373	94
476.0583	572
480.055	27
494.0653	51
508.0485	23
556.0156	999
574.022	72
