Mass spectrum: Salbutamol; LC-ESI-QTOF; MS2; 70 V
Name: Salbutamol
Class: Pharmaceutical
Formula: C13H21NO3
Exact mass: 239.1521
SMILES: CC(C)(NCC(c1cc(CO)c(O)cc1)O)C
InChI: InChI=1S/C13H21NO3/c1-13(2,3)14-7-12(17)9-4-5-11(16)10(6-9)8-15/h4-6,12,14-17H,7-8H2,1-3H3
Instrument: TripleTOF 5600 SCIEX
Instrument type: LC-ESI-QTOF
Ms type: MS2
Ion mode: NEGATIVE
Collision energy: 70
Fragmentation mode: CID
Ionization: ESI
Column name: Zorbax Eclipse Plus C18 2.1 mm x 150 mm, 3.5 um, Agilent
Retention time: 4.69 min
Precursor m/z: 238.1449
Precursor type: [M-H]-
m/z	relative intensity
45.0001	111
77.0401	111
89.0353	111
90.0381	222
90.0447	111
91.0593	222
92.0252	111
93.0337	444
105.0351	111
106.0421	222
107.0538	111
116.0486	111
117.0357	333
118.0275	444
119.0497	999
120.0244	111
121.029	555
131.036	888
132.0426	776
133.058	111
134.0356	222
134.0539	222
144.0431	444
160.0392	333
