Mass spectrum: Diaveridine; LC-ESI-QTOF; MS2; 140 V
Name: Diaveridine
Class: Pharmaceutical
Formula: C13H16N4O2
Exact mass: 260.1273
SMILES: COC1=C(C=C(C=C1)CC2=CN=C(N=C2N)N)OC
InChI: InChI=1S/C13H16N4O2/c1-18-10-4-3-8(6-11(10)19-2)5-9-7-16-13(15)17-12(9)14/h3-4,6-7H,5H2,1-2H3,(H4,14,15,16,17)
Instrument: TripleTOF 5600 SCIEX
Instrument type: LC-ESI-QTOF
Ms type: MS2
Ion mode: POSITIVE
Collision energy: 140
Fragmentation mode: CID
Ionization: ESI
Column name: Zorbax Eclipse Plus C18 2.1 mm x 150 mm, 3.5 um, Agilent
Retention time: 4.966 min
Precursor m/z: 261.1346
Precursor type: [M+H]+
m/z	relative intensity
41.0359	98
41.0426	61
43.0414	567
52.028	518
53.0231	61
54.0429	419
55.0518	49
64.0356	61
65.0436	135
67.0393	123
74.0199	382
75.0278	431
76.0236	135
76.0368	98
77.044	999
78.0373	98
81.0512	98
86.0223	61
87.0247	86
88.0228	74
88.0355	49
89.0418	481
90.041	49
91.0517	74
98.0198	74
99.0115	49
101.0433	61
102.0432	86
103.0483	74
105.0384	86
107.0469	49
114.0372	61
