Mass spectrum: Tetrahydroharman-3-carboxylic acid; LC-ESI-QTOF; MS2; 60 V
Name: Tetrahydroharman-3-carboxylic acid
Formula: C13H14N2O2
Exact mass: 230.1055
SMILES: CC1C2=C(CC(N1)C(=O)O)C3=CC=CC=C3N2
InChI: InChI=1S/C13H14N2O2/c1-7-12-9(6-11(14-7)13(16)17)8-4-2-3-5-10(8)15-12/h2-5,7,11,14-15H,6H2,1H3,(H,16,17)
Instrument: TripleTOF 6600 SCIEX
Instrument type: LC-ESI-QTOF
Ms type: MS2
Ion mode: POSITIVE
Collision energy: 60
Fragmentation mode: CID
Ionization: ESI
Column name: Zorbax Eclipse Plus C18 2.1 mm x 150 mm, 3.5 um, Agilent
Retention time: 5.62 min
Precursor m/z: 231.1128
Precursor type: [M+H]+
m/z	relative intensity
65.0378	34
77.0382	184
89.0374	136
90.0452	115
91.0533	206
101.0372	32
102.0449	37
103.0528	100
115.0536	685
116.0475	18
116.0615	188
117.0564	344
118.0642	51
127.0531	71
128.049	437
129.0429	13
129.0689	76
130.0642	346
139.0525	22
140.0527	27
141.056	11
141.0676	16
142.0648	303
143.0722	999
153.0568	11
154.0642	112
155.065	36
156.08	265
157.0877	34
158.0948	25
166.0633	80
167.0722	476
168.08	149
