Mass spectrum: Methadone; LC-ESI-QTOF; MS2; 80 V
Name: Methadone
Class: Pharmaceutical
Formula: C21H27NO
Exact mass: 309.2093
SMILES: CCC(=O)C(CC(C)N(C)C)(C1=CC=CC=C1)C2=CC=CC=C2
InChI: InChI=1S/C21H27NO/c1-5-20(23)21(16-17(2)22(3)4,18-12-8-6-9-13-18)19-14-10-7-11-15-19/h6-15,17H,5,16H2,1-4H3
Instrument: TripleTOF 6600 SCIEX
Instrument type: LC-ESI-QTOF
Ms type: MS2
Ion mode: POSITIVE
Collision energy: 80
Fragmentation mode: CID
Ionization: ESI
Column name: Zorbax Eclipse Plus C18 2.1 mm x 150 mm, 3.5 um, Agilent
Retention time: 8.79 min
Precursor m/z: 310.2166
Precursor type: [M+H]+
m/z	relative intensity
39.0226	15
50.0149	17
51.0227	115
65.038	81
77.0382	999
79.0531	24
89.0375	10
91.0536	395
103.053	34
105.0344	99
115.0536	236
116.0609	12
117.0693	23
127.053	39
128.0612	106
129.0697	20
139.0536	10
141.0687	18
151.054	13
152.0612	91
153.0683	11
164.061	20
165.0695	336
166.0765	17
176.0623	13
178.0771	65
189.0693	50
190.0767	10
191.0839	19
194.0722	21
201.069	21
202.0778	321
203.0852	97
204.0927	26
215.0849	73
216.0922	11
217.1006	15
