Mass spectrum: Tylosin; LC-ESI-QTOF; MS2; 120 V
Name: Tylosin
Class: Pharmaceutical
Formula: C46H77NO17
Exact mass: 915.5192
SMILES: CCC1C(C=C(C=CC(=O)C(CC(C(C(C(CC(=O)O1)O)C)OC2C(C(C(C(O2)C)OC3CC(C(C(O3)C)O)(C)O)N(C)C)O)CC=O)C)C)COC4C(C(C(C(O4)C)O)OC)OC
InChI: InChI=1S/C46H77NO17/c1-13-33-30(22-58-45-42(57-12)41(56-11)37(52)26(5)60-45)18-23(2)14-15-31(49)24(3)19-29(16-17-48)39(25(4)32(50)20-34(51)62-33)64-44-38(53)36(47(9)10)40(27(6)61-44)63-35-21-46(8,55)43(54)28(7)59-35/h14-15,17-18,24-30,32-33,35-45,50,52-55H,13,16,19-22H2,1-12H3
Instrument: TripleTOF 6600 SCIEX
Instrument type: LC-ESI-QTOF
Ms type: MS2
Ion mode: POSITIVE
Collision energy: 120
Fragmentation mode: CID
Ionization: ESI
Column name: Zorbax Eclipse Plus C18 2.1 mm x 150 mm, 3.5 um, Agilent
Retention time: 8.178 min
Precursor m/z: 916.5264
Precursor type: [M+H]+
m/z	relative intensity
39.0231	65
41.039	158
43.0182	802
45.0343	46
55.0547	158
58.0653	158
59.0491	56
70.0656	74
71.0496	37
73.0523	364
81.0696	65
83.0493	877
84.0808	74
85.0285	84
85.0648	37
86.0604	37
86.0987	56
87.0443	102
88.0755	999
98.0969	177
100.0748	93
101.0595	102
114.0925	93
115.1007	46
116.0706	130
127.0752	37
156.1018	46
174.1122	56
