Mass spectrum: Sulpiride; LC-ESI-QTOF; MS2; 100 V
Name: Sulpiride
Class: Pharmaceutical
Formula: C15H23N3O4S
Exact mass: 341.1409
SMILES: CCN1CCCC1CNC(=O)c2cc(ccc2OC)[S](N)(=O)=O
InChI: InChI=1S/C15H23N3O4S/c1-3-18-8-4-5-11(18)10-17-15(19)13-9-12(23(16,20)21)6-7-14(13)22-2/h6-7,9,11H,3-5,8,10H2,1-2H3,(H,17,19)(H2,16,20,21)
Instrument: TripleTOF 5600 SCIEX
Instrument type: LC-ESI-QTOF
Ms type: MS2
Ion mode: POSITIVE
Collision energy: 100
Fragmentation mode: CID
Ionization: ESI
Column name: Zorbax Eclipse Plus C18 2.1 mm x 150 mm, 3.5 um, Agilent
Retention time: 4.958 min
Precursor m/z: 342.1482
Precursor type: [M+H]+
m/z	relative intensity
51.0315	225
52.0378	191
53.0453	41
55.0605	123
56.0556	321
58.0703	143
58.0788	41
65.0422	95
67.0556	54
68.0529	47
70.069	253
74.018	171
75.0258	999
76.0342	437
77.0411	191
78.0483	239
79.0216	171
79.043	136
80.0528	41
82.0669	88
84.0823	520
90.0333	41
91.0185	424
95.0454	27
96.0807	47
98.0961	396
98.9897	61
104.0301	34
105.0322	34
107.0118	232
107.0333	41
108.0468	34
112.1096	205
112.1265	34
119.0146	61
134.0352	143
154.9776	157
