Mass spectrum: Dextrorphan; LC-ESI-QTOF; MS2; 100 V
Name: Dextrorphan
Class: Pharmaceutical; Metabolite
Formula: C17H23NO
Exact mass: 257.178
SMILES: CN1CC[C@@]23CCCC[C@@H]2[C@@H]1CC4=C3C=C(C=C4)O
InChI: InChI=1S/C17H23NO/c1-18-9-8-17-7-3-2-4-14(17)16(18)10-12-5-6-13(19)11-15(12)17/h5-6,11,14,16,19H,2-4,7-10H2,1H3/t14-,16+,17+/m1/s1
Instrument: TripleTOF 5600 SCIEX
Instrument type: LC-ESI-QTOF
Ms type: MS2
Ion mode: POSITIVE
Collision energy: 100
Fragmentation mode: CID
Ionization: ESI
Column name: Zorbax Eclipse Plus C18 2.1 mm x 150 mm, 3.5 um, Agilent
Retention time: 5.969 min
Precursor m/z: 258.1852
Precursor type: [M+H]+
m/z	relative intensity
44.0574	28
65.0433	57
74.018	15
75.0258	39
76.0342	23
77.0422	579
78.0494	69
79.0568	43
89.0405	109
91.0559	77
94.0426	10
101.0387	44
102.0475	198
103.0552	161
105.0707	18
107.0494	40
113.0378	15
114.0468	14
115.0549	372
116.0616	20
118.0417	21
126.0461	111
127.0548	421
128.0629	999
129.07	28
131.0493	105
139.0543	59
141.0689	34
144.0556	17
150.0464	14
151.0546	39
152.0624	75
153.07	12
155.0559	18
157.0646	39
163.0561	11
164.065	19
165.0708	46
