Mass spectrum: Acridine; LC-ESI-QTOF; MS2; 90 V
Name: Acridine
Class: Industrial_process
Formula: C13H9N
Exact mass: 179.0735
SMILES: c1ccc2nc3ccccc3cc2c1
InChI: InChI=1S/C13H9N/c1-3-7-12-10(5-1)9-11-6-2-4-8-13(11)14-12/h1-9H
Instrument: TripleTOF 5600 SCIEX
Instrument type: LC-ESI-QTOF
Ms type: MS2
Ion mode: POSITIVE
Collision energy: 90
Fragmentation mode: CID
Ionization: ESI
Column name: Zorbax Eclipse Plus C18 2.1 mm x 150 mm, 3.5 um, Agilent
Retention time: 5.776 min
Precursor m/z: 180.0808
Precursor type: [M+H]+
m/z	relative intensity
52.0366	40
65.043	25
73.0114	32
74.019	849
74.0534	13
75.0265	902
76.0336	339
77.0421	627
78.0492	56
85.0102	42
86.0172	176
87.0243	198
88.0194	21
88.0312	32
89.0404	177
90.0467	12
97.0082	13
98.0165	363
99.0236	317
100.0314	124
101.0391	160
102.0345	33
102.0469	177
103.0435	14
109.0074	13
110.0146	53
111.0228	52
112.0183	12
113.0391	104
114.0342	18
115.0551	18
122.0157	44
123.0222	42
124.0313	49
125.0385	197
126.0466	385
127.0414	62
127.0528	45
128.0507	49
137.0386	25
140.0492	26
149.0392	122
150.0471	999
151.054	430
152.0576	203
153.0564	20
175.0425	38
176.0489	81
177.0567	150
178.0638	74
