Mass spectrum: Omeprazole; LC-ESI-QTOF; MS2; 80 V
Name: Omeprazole
Class: Pharmaceutical
Formula: C17H19N3O3S
Exact mass: 345.1147
SMILES: COc1ccc2nc([nH]c2c1)[S](=O)Cc3ncc(C)c(OC)c3C
InChI: InChI=1S/C17H19N3O3S/c1-10-8-18-15(11(2)16(10)23-4)9-24(21)17-19-13-6-5-12(22-3)7-14(13)20-17/h5-8H,9H2,1-4H3,(H,19,20)
Instrument: TripleTOF 5600 SCIEX
Instrument type: LC-ESI-QTOF
Ms type: MS2
Ion mode: POSITIVE
Collision energy: 80
Fragmentation mode: CID
Ionization: ESI
Column name: Zorbax Eclipse Plus C18 2.1 mm x 150 mm, 3.5 um, Agilent
Retention time: 6.462 min
Precursor m/z: 346.122
Precursor type: [M+H]+
m/z	relative intensity
65.0444	35
66.053	13
67.0606	31
77.043	144
78.0379	10
79.058	145
80.0533	25
81.0722	15
91.0569	47
92.0527	70
93.0657	91
94.0681	32
104.0501	13
105.0548	14
106.0653	320
107.0738	84
108.0818	706
108.9982	32
110.0104	10
118.0656	12
120.0812	438
121.089	397
122.0965	419
134.0475	115
134.098	10
135.0691	17
136.022	113
136.0758	999
136.9932	25
137.0294	36
138.0357	15
149.0703	40
150.091	294
151.0985	37
152.0174	71
164.0168	41
165.0239	230
166.0319	136
180.048	144
181.0556	23
