Mass spectrum: Citalopram-N-oxide; LC-ESI-QTOF; MS2; 100 V
Name: Citalopram-N-oxide
Class: Metabolite; Pharmaceutical; Transformation_product
Formula: C20H21FN2O2
Exact mass: 340.1587
SMILES: C[N+](C)(CCCC1(C2=C(CO1)C=C(C=C2)C#N)C3=CC=C(C=C3)F)[O-]
InChI: InChI=1S/C20H21FN2O2/c1-23(2,24)11-3-10-20(17-5-7-18(21)8-6-17)19-9-4-15(13-22)12-16(19)14-25-20/h4-9,12H,3,10-11,14H2,1-2H3
Instrument: TripleTOF 5600 SCIEX
Instrument type: LC-ESI-QTOF
Ms type: MS2
Ion mode: POSITIVE
Collision energy: 100
Fragmentation mode: CID
Ionization: ESI
Column name: Zorbax Eclipse Plus C18 2.1 mm x 150 mm, 3.5 um, Agilent
Retention time: 7.958 min
Precursor m/z: 341.166
Precursor type: [M+H]+
m/z	relative intensity
42.0429	14
57.0193	154
58.0709	155
59.0341	54
59.047	14
60.0499	12
65.0419	24
74.0186	45
75.0258	115
77.0417	98
81.0184	15
83.0322	897
87.0247	35
89.0408	497
90.0357	31
95.0304	73
98.0162	23
99.0238	34
101.0404	43
102.0485	15
103.0556	14
107.0292	23
109.0457	758
113.0385	205
114.0343	46
115.0552	105
116.0505	137
120.0386	28
123.0246	32
125.0392	34
126.0458	34
127.0536	70
128.062	65
129.0445	10
133.0461	134
137.039	15
138.0463	15
139.0545	77
140.0505	458
144.0393	29
145.0461	14
146.053	49
147.0255	9
149.0386	49
150.0457	65
151.0422	10
151.0534	18
152.0626	24
153.0578	14
157.0462	42
158.0398	18
159.0603	10
161.0387	37
162.0469	29
163.055	176
164.0518	68
166.0636	10
167.03	20
168.0379	68
169.0445	77
170.0535	85
173.0387	48
174.0452	118
175.053	95
176.0585	48
177.0574	40
180.0399	18
181.0456	221
182.0488	87
183.0611	96
185.0387	15
186.0499	20
187.0532	123
188.0506	221
189.0639	96
190.0655	144
192.0367	56
193.0443	90
194.0526	216
195.0499	81
196.0721	17
197.0385	14
198.0466	123
199.0542	330
200.0609	336
201.0594	107
202.0725	18
203.0725	12
204.0407	14
205.047	123
206.0482	104
207.06	169
208.0567	403
211.0555	35
212.0532	107
213.0699	221
214.0665	124
215.0875	20
216.037	17
217.0454	87
218.0534	596
219.0587	353
220.0664	224
221.0635	121
224.054	73
225.0577	299
226.0653	171
227.0745	123
230.0444	17
231.0585	79
232.0558	235
233.0755	96
234.0725	20
236.0497	10
238.0658	115
239.0713	26
240.0822	115
242.0531	21
243.051	76
244.0573	210
245.0648	999
246.0727	40
256.0576	28
258.0732	115
259.0805	23
