Mass spectrum: p-Phenetidine; LC-ESI-QTOF; MS2; 70 V
Name: p-Phenetidine
Formula: C8H11NO
Exact mass: 137.0841
SMILES: CCOC1=CC=C(C=C1)N
InChI: InChI=1S/C8H11NO/c1-2-10-8-5-3-7(9)4-6-8/h3-6H,2,9H2,1H3
Instrument: TripleTOF 6600 SCIEX
Instrument type: LC-ESI-QTOF
Ms type: MS2
Ion mode: POSITIVE
Collision energy: 70
Fragmentation mode: CID
Ionization: ESI
Column name: Zorbax Eclipse Plus C18 2.1 mm x 150 mm, 3.5 um, Agilent
Retention time: 4.84 min
Precursor m/z: 138.0914
Precursor type: [M+H]+
m/z	relative intensity
36.0008	48
37.0091	325
38.0043	11
38.0164	351
39.0242	999
50.0159	103
51.024	92
53.003	14
53.0396	218
54.035	25
59.9984	11
61.0084	57
62.0161	152
63.024	630
64.0316	17
65.0386	164
66.0484	25
74.0169	46
80.0506	748
92.0503	14
93.06	11
108.0439	14
