Mass spectrum: Citalopram-N-oxide; LC-ESI-QTOF; MS2; 140 V
Name: Citalopram-N-oxide
Class: Metabolite; Pharmaceutical; Transformation_product
Formula: C20H21FN2O2
Exact mass: 340.1587
SMILES: C[N+](C)(CCCC1(C2=C(CO1)C=C(C=C2)C#N)C3=CC=C(C=C3)F)[O-]
InChI: InChI=1S/C20H21FN2O2/c1-23(2,24)11-3-10-20(17-5-7-18(21)8-6-17)19-9-4-15(13-22)12-16(19)14-25-20/h4-9,12H,3,10-11,14H2,1-2H3
Instrument: TripleTOF 5600 SCIEX
Instrument type: LC-ESI-QTOF
Ms type: MS2
Ion mode: POSITIVE
Collision energy: 140
Fragmentation mode: CID
Ionization: ESI
Column name: Zorbax Eclipse Plus C18 2.1 mm x 150 mm, 3.5 um, Agilent
Retention time: 7.958 min
Precursor m/z: 341.166
Precursor type: [M+H]+
m/z	relative intensity
42.0418	96
43.0519	32
51.0302	128
57.0188	708
58.07	372
59.0341	50
59.0456	23
60.005	23
60.05	119
65.0432	59
73.0103	50
74.0187	529
75.0262	534
75.0505	23
76.0325	46
77.0413	184
78.0482	18
81.0159	115
83.0317	999
83.0621	23
85.0097	64
86.0168	124
87.0251	336
88.0194	55
88.0319	50
89.0405	464
89.058	36
90.0355	69
94.0232	73
95.0304	87
96.0355	27
97.0069	32
98.016	345
99.0091	18
99.0228	174
100.031	82
101.039	32
102.0466	46
105.013	41
107.0289	142
109.0081	18
109.0447	234
110.0155	82
111.0227	101
112.0188	46
113.039	349
114.035	115
115.0535	73
116.0484	27
118.0214	41
120.0364	105
121.0073	27
122.0149	257
123.0238	230
124.029	73
125.0376	64
126.0456	124
127.052	69
128.0635	55
131.0288	96
133.0443	151
134.016	41
135.021	59
137.0398	110
138.0352	55
139.0538	64
140.0495	128
142.0209	46
143.0292	23
144.0387	128
146.0148	128
146.0538	55
147.021	170
148.0299	92
149.0385	165
150.0459	267
151.0523	55
152.0584	23
155.0288	73
156.0405	27
157.0446	92
158.0165	27
158.0399	46
160.0191	23
161.0383	354
162.0459	161
163.0539	225
164.0501	87
166.0238	36
167.0296	101
168.0372	414
169.0461	105
170.0518	101
172.0304	55
173.0395	124
174.0455	276
175.0428	92
175.0577	41
176.0621	27
177.0589	27
179.0281	128
180.0369	193
181.0449	487
182.041	105
183.0607	18
185.0412	133
186.0423	193
187.0546	303
188.0484	290
189.0614	41
190.0658	23
191.0311	59
192.0368	267
193.0424	115
194.0514	133
195.0483	23
196.0268	27
197.0385	262
198.0459	644
199.0471	303
200.0605	119
201.0564	27
203.0257	36
204.0381	69
205.0442	271
206.0398	243
207.0532	78
208.0565	78
209.0413	32
210.0442	64
211.0543	193
212.0495	188
213.067	78
214.0636	36
215.0285	32
216.036	336
217.0457	349
218.0527	561
219.0499	128
220.0666	27
223.041	115
224.0519	170
225.0566	207
229.0439	92
230.0394	78
230.0549	27
231.0576	138
232.0581	27
236.0478	78
237.0571	27
238.0666	119
241.0296	27
242.0481	46
243.0479	299
244.056	82
245.0628	73
254.0362	23
256.0581	82
