Mass spectrum: Hydroxytorasemide; LC-ESI-QTOF; MS2; 100 V
Name: Hydroxytorasemide
Class: Pharmaceutical; Transformation_product; Transformation_product-Metabolite
Formula: C16H20N4O4S
Exact mass: 364.1205
SMILES: CC(C)NC(=O)NS(=O)(=O)c1cnccc1Nc2cccc(c2)CO
InChI: InChI=1S/C16H20N4O4S/c1-11(2)18-16(22)20-25(23,24)15-9-17-7-6-14(15)19-13-5-3-4-12(8-13)10-21/h3-9,11,21H,10H2,1-2H3,(H,17,19)(H2,18,20,22)
Instrument: TripleTOF 5600 SCIEX
Instrument type: LC-ESI-QTOF
Ms type: MS2
Ion mode: NEGATIVE
Collision energy: 100
Fragmentation mode: CID
Ionization: ESI
Column name: Zorbax Eclipse Plus C18 2.1 mm x 150 mm, 3.5 um, Agilent
Retention time: 5.824 min
Precursor m/z: 363.1132
Precursor type: [M-H]-
m/z	relative intensity
47.9714	88
57.9779	54
61.9722	157
63.9636	150
65.0141	68
77.9663	999
78.9741	109
90.0349	82
91.0303	390
92.0369	54
93.0461	910
107.0494	82
108.0336	205
108.0568	246
109.0408	47
118.0408	61
165.0454	88
167.0619	273
168.0578	95
178.0527	232
179.0614	191
180.0684	82
181.0633	61
182.0726	102
192.0562	218
195.057	61
