Mass spectrum: Propranolol; LC-ESI-QTOF; MS2; 120 V
Name: Propranolol
Class: Pharmaceutical
Formula: C16H21NO2
Exact mass: 259.1572
SMILES: CC(C)NCC(O)COc1cccc2ccccc12
InChI: InChI=1S/C16H21NO2/c1-12(2)17-10-14(18)11-19-16-9-5-7-13-6-3-4-8-15(13)16/h3-9,12,14,17-18H,10-11H2,1-2H3
Instrument: TripleTOF 5600 SCIEX
Instrument type: LC-ESI-QTOF
Ms type: MS2
Ion mode: POSITIVE
Collision energy: 120
Fragmentation mode: CID
Ionization: ESI
Column name: Zorbax Eclipse Plus C18 2.1 mm x 150 mm, 3.5 um, Agilent
Retention time: 7.356 min
Precursor m/z: 260.1645
Precursor type: [M+H]+
m/z	relative intensity
42.0493	15
44.0591	74
52.037	35
56.0541	165
58.0703	110
65.0428	173
73.0109	39
74.0183	353
75.0262	503
75.0628	15
76.0342	184
77.0419	999
78.0484	200
85.0097	23
86.0176	98
87.025	90
88.0353	23
89.0412	314
91.0575	47
98.0163	70
99.0243	43
100.0314	15
101.0401	133
102.0471	452
102.0703	19
113.0384	51
114.0475	31
115.0551	440
126.047	428
127.055	353
128.0626	350
138.0478	15
139.0557	70
150.0472	82
151.0548	106
152.0633	180
162.0467	27
163.0536	66
