Mass spectrum: Monensin; LC-ESI-QTOF; MS2; 40 V
Name: Monensin
Class: Antimicrobial
Formula: C36H62O11
Exact mass: 670.4292
SMILES: CC[C@@]1([C@@H]2O[C@@H]([C@H]3O[C@@](CO)([C@@H](C[C@@H]3C)C)O)C[C@@H]2C)CC[C@H]([C@@]4(CC[C@@]5(O4)C[C@@H]([C@H]([C@@H]([C@H]([C@H]([C@@H](C(O)=O)C)OC)C)O5)C)O)C)O1
InChI: InChI=1S/C36H62O11/c1-10-34(31-20(3)16-26(43-31)28-19(2)15-21(4)36(41,18-37)46-28)12-11-27(44-34)33(8)13-14-35(47-33)17-25(38)22(5)30(45-35)23(6)29(42-9)24(7)32(39)40/h19-31,37-38,41H,10-18H2,1-9H3,(H,39,40)/t19-,20-,21+,22+,23-,24-,25-,26+,27+,28-,29+,30-,31+,33-,34-,35+,36-/m0/s1
Instrument: TripleTOF 5600 SCIEX
Instrument type: LC-ESI-QTOF
Ms type: MS2
Ion mode: NEGATIVE
Collision energy: 40
Fragmentation mode: CID
Ionization: ESI
Column name: Zorbax Eclipse Plus C18 2.1 mm x 150 mm, 3.5 um, Agilent
Retention time: 20.39 min
Precursor m/z: 669.4241
Precursor type: [M-H]-
m/z	relative intensity
101.0594	14
637.3926	133
669.3865	49
669.4261	999
670.4428	66
