Mass spectrum: Deethylatrazine; LC-ESI-QTOF; MS2; 70 V
Name: Deethylatrazine
Class: Transformation_product; Herbicide; Metabolite; Transformation_product-Metabolite
Formula: C6H10ClN5
Exact mass: 187.0625
SMILES: CC(C)NC1=NC(=NC(=N1)N)Cl
InChI: InChI=1S/C6H10ClN5/c1-3(2)9-6-11-4(7)10-5(8)12-6/h3H,1-2H3,(H3,8,9,10,11,12)
Instrument: TripleTOF 6600 SCIEX
Instrument type: LC-ESI-QTOF
Ms type: MS2
Ion mode: POSITIVE
Collision energy: 70
Fragmentation mode: CID
Ionization: ESI
Column name: Zorbax Eclipse Plus C18 2.1 mm x 150 mm, 3.5 um, Agilent
Retention time: 6.911 min
Precursor m/z: 188.0698
Precursor type: [M+H]+
m/z	relative intensity
37.007	13
38.0029	11
39.0228	74
41.0136	41
41.0385	81
42.0215	22
43.0294	999
53.0137	15
61.9793	948
68.0245	653
79.0056	46
86.9731	11
104.0003	19
