Mass spectrum: Simvastatin; LC-ESI-QTOF; MS2; 130 V
Name: Simvastatin
Class: Pharmaceutical
Formula: C25H38O5
Exact mass: 418.2719
SMILES: CCC(C)(C)C(=O)O[C@H]1C[C@@H](C)C=C2C=C[C@H](C)[C@H](CC[C@@H]3C[C@@H](O)CC(=O)O3)[C@@H]12
InChI: InChI=1S/C25H38O5/c1-6-25(4,5)24(28)30-21-12-15(2)11-17-8-7-16(3)20(23(17)21)10-9-19-13-18(26)14-22(27)29-19/h7-8,11,15-16,18-21,23,26H,6,9-10,12-14H2,1-5H3/t15-,16-,18+,19+,20-,21-,23-/m0/s1
Instrument: TripleTOF 5600 SCIEX
Instrument type: LC-ESI-QTOF
Ms type: MS2
Ion mode: POSITIVE
Collision energy: 130
Fragmentation mode: CID
Ionization: ESI
Column name: Zorbax Eclipse Plus C18 2.1 mm x 150 mm, 3.5 um, Agilent
Retention time: 15.438 min
Precursor m/z: 419.2792
Precursor type: [M+H]+
m/z	relative intensity
65.0439	70
77.0407	458
79.0565	105
81.0743	58
89.0388	47
91.0552	423
102.0491	70
103.0549	82
105.0717	164
115.0538	611
115.0727	47
116.0631	82
117.0724	117
127.0528	258
128.062	999
129.07	340
130.0769	47
131.0853	47
141.0702	364
142.0768	94
143.0843	58
152.0608	258
153.0697	211
165.0704	129
166.0761	58
178.074	47
