Mass spectrum: Inabenfide; LC-ESI-QTOF; MS2; 80 V
Name: Inabenfide
Formula: C19H15ClN2O2
Exact mass: 338.0822
SMILES: C1=CC=C(C=C1)C(C2=C(C=CC(=C2)Cl)NC(=O)C3=CC=NC=C3)O
InChI: InChI=1S/C19H15ClN2O2/c20-15-6-7-17(22-19(24)14-8-10-21-11-9-14)16(12-15)18(23)13-4-2-1-3-5-13/h1-12,18,23H,(H,22,24)
Instrument: TripleTOF 6600 SCIEX
Instrument type: LC-ESI-QTOF
Ms type: MS2
Ion mode: POSITIVE
Collision energy: 80
Fragmentation mode: CID
Ionization: ESI
Column name: Zorbax Eclipse Plus C18 2.1 mm x 150 mm, 3.5 um, Agilent
Retention time: 10.231 min
Precursor m/z: 339.0895
Precursor type: [M+H]+
m/z	relative intensity
49.0064	24
50.0143	115
51.0221	99
52.0176	15
52.0299	323
53.0379	88
75.0224	13
77.0373	27
78.0325	49
79.0408	999
80.0486	575
91.0542	15
102.0327	11
104.0477	13
105.044	45
108.043	13
115.0531	61
125.0383	20
126.0452	24
127.0529	58
128.0475	22
128.061	11
129.0501	18
130.0649	11
139.0532	49
140.0481	20
140.0604	18
141.0542	11
141.0689	38
150.0452	38
151.0529	178
152.0607	167
153.0556	81
154.0387	11
154.0644	92
155.0587	20
162.0094	36
163.0539	58
164.0616	63
165.0689	355
166.064	58
167.0715	194
168.08	133
169.088	29
173.015	13
176.0474	13
176.058	24
177.0565	113
178.0646	240
179.0711	242
180.0662	63
181.0747	79
187.0519	15
188.0259	47
188.0624	11
189.0349	18
189.0633	54
190.0647	36
191.0711	13
199.0296	15
201.033	15
201.0693	18
202.076	63
203.072	54
204.079	13
206.0591	194
207.0656	27
208.0627	11
213.028	18
213.0689	63
214.0408	47
214.0664	65
215.0373	235
215.0844	88
216.0795	54
217.0873	36
227.0726	45
228.08	83
229.0884	43
230.0948	70
238.0647	47
239.0704	15
240.0803	101
241.0878	156
242.0937	106
243.1036	95
250.0397	15
253.0745	18
254.0814	18
255.0916	188
256.0998	99
257.1071	45
264.0556	22
265.0744	18
266.0832	36
267.0905	15
275.0475	18
277.0605	18
289.0512	54
290.0613	27
291.0685	67
