Mass spectrum: Lomefloxacin; LC-ESI-QTOF; MS2; 60 V
Name: Lomefloxacin
Class: Pharmaceutical; Antimicrobial
Formula: C17H19F2N3O3
Exact mass: 351.1394
SMILES: CCn1cc(c(=O)c2c1c(c(c(c2)F)N3CCNC(C3)C)F)C(=O)O
InChI: InChI=1S/C17H19F2N3O3/c1-3-21-8-11(17(24)25)16(23)10-6-12(18)15(13(19)14(10)21)22-5-4-20-9(2)7-22/h6,8-9,20H,3-5,7H2,1-2H3,(H,24,25)
Instrument: TripleTOF 5600 SCIEX
Instrument type: LC-ESI-QTOF
Ms type: MS2
Ion mode: POSITIVE
Collision energy: 60
Fragmentation mode: CID
Ionization: ESI
Column name: Zorbax Eclipse Plus C18 2.1 mm x 150 mm, 3.5 um, Agilent
Retention time: 5.44 min
Precursor m/z: 352.1467
Precursor type: [M+H]+
m/z	relative intensity
128.0491	59
134.0385	134
146.0401	59
147.05	89
148.0564	149
152.0303	134
153.04	119
154.0451	59
155.0592	134
160.055	59
161.0529	149
162.0343	89
166.0322	313
166.0471	119
167.0456	208
169.0748	74
173.0499	104
174.058	298
175.065	89
176.0504	193
176.0737	59
178.0421	89
179.0203	89
179.0522	74
180.0241	89
180.0498	89
181.0329	283
182.0399	104
185.0465	59
187.0659	193
188.0584	164
189.0441	59
189.0822	74
190.0686	104
192.0461	104
193.0179	119
193.0558	193
194.0361	134
194.0634	939
195.0486	879
196.0439	298
197.0512	178
199.0708	59
202.0525	328
203.0625	164
203.0964	164
205.0271	59
206.0297	104
207.0346	74
207.0735	208
208.0563	253
208.0803	328
209.0557	238
215.0258	74
215.0594	238
216.0641	193
217.0757	268
219.0698	59
220.0416	104
221.0515	208
222.0594	164
222.1053	74
223.0718	342
228.0922	104
230.1108	134
235.0651	74
236.0751	134
237.0829	999
243.1168	253
244.0546	134
249.0461	790
257.0941	119
263.0626	208
265.1147	164
271.0779	134
272.0867	74
286.0984	104
314.1322	89
