Mass spectrum: Sunitinib; LC-ESI-QTOF; MS2; 90 V
Name: Sunitinib
Class: Pharmaceutical
Formula: C22H27FN4O2
Exact mass: 398.2118
SMILES: CCN(CC)CCNC(=O)C1=C(NC(=C1C)C=C2C3=C(C=CC(=C3)F)NC2=O)C
InChI: InChI=1S/C22H27FN4O2/c1-5-27(6-2)10-9-24-22(29)20-13(3)19(25-14(20)4)12-17-16-11-15(23)7-8-18(16)26-21(17)28/h7-8,11-12,25H,5-6,9-10H2,1-4H3,(H,24,29)(H,26,28)
Instrument: TripleTOF 5600 SCIEX
Instrument type: LC-ESI-QTOF
Ms type: MS2
Ion mode: POSITIVE
Collision energy: 90
Fragmentation mode: CID
Ionization: ESI
Column name: Zorbax Eclipse Plus C18 2.1 mm x 150 mm, 3.5 um, Agilent
Retention time: 6.516 min
Precursor m/z: 399.2191
Precursor type: [M+H]+
m/z	relative intensity
65.0427	35
75.0259	14
77.0405	13
89.0396	12
92.051	19
94.065	10
95.0299	32
99.0241	20
101.0394	14
104.0494	22
106.0661	14
107.0297	23
108.0405	18
109.0468	17
115.0521	11
116.0488	14
117.0572	17
119.0287	11
119.0591	13
122.0395	71
124.0173	10
125.0377	10
126.0339	35
127.0508	12
128.0487	13
131.0278	11
133.0441	120
134.0393	39
134.0581	10
135.0468	59
136.0566	16
138.0441	12
139.0538	41
140.0489	26
144.0274	22
145.0445	44
146.0399	167
147.0478	46
148.0558	114
149.0385	31
150.0356	98
151.0285	13
151.0539	44
152.0615	36
153.0691	20
154.04	16
157.0445	112
158.0398	100
159.0601	51
160.055	53
161.0612	24
162.0354	21
163.0543	60
164.0496	45
165.0643	59
166.0659	34
168.0376	32
169.0448	237
170.0517	131
171.0368	301
172.0559	121
173.0483	46
174.0346	59
175.0496	26
176.0502	77
177.0576	29
178.066	20
179.0697	17
180.0812	32
181.0441	37
182.0517	121
183.061	491
184.056	330
185.0642	873
186.0711	119
187.0648	21
188.0508	44
189.05	106
190.066	178
191.0659	56
192.0693	37
193.0462	80
193.073	17
194.0416	51
195.0484	200
196.0564	226
197.0595	128
198.0718	135
199.0436	20
199.0793	54
200.0508	161
200.0864	63
201.0588	18
204.0563	15
205.0767	22
206.0852	27
207.0921	26
208.0564	258
209.0646	999
209.1032	13
210.0711	405
211.0678	296
212.0529	15
212.0787	123
213.0579	58
213.0803	32
214.0664	31
215.062	29
216.0683	22
217.077	16
219.0481	123
220.0554	136
221.0523	83
222.0601	81
223.0673	52
224.0759	81
225.0811	96
226.0674	23
226.0895	37
227.0707	12
227.0988	45
228.0554	12
228.0772	28
234.0603	22
235.0676	90
236.0752	154
237.0832	227
238.0726	197
239.0624	220
240.0691	52
248.0595	14
249.0729	19
250.0885	12
252.0694	10
253.0767	83
255.093	23
265.0774	22
