Mass spectrum: Chloridazon; LC-ESI-QTOF; MS2; 40 V
Name: Chloridazon
Class: Herbicide
Formula: C10H8ClN3O
Exact mass: 221.0356
SMILES: C1=CC=C(C=C1)N2C(=O)C(=C(C=N2)N)Cl
InChI: InChI=1S/C10H8ClN3O/c11-9-8(12)6-13-14(10(9)15)7-4-2-1-3-5-7/h1-6H,12H2
Instrument: TripleTOF 6600 SCIEX
Instrument type: LC-ESI-QTOF
Ms type: MS2
Ion mode: POSITIVE
Collision energy: 40
Fragmentation mode: CID
Ionization: ESI
Column name: Zorbax Eclipse Plus C18 2.1 mm x 150 mm, 3.5 um, Agilent
Retention time: 6.924 min
Precursor m/z: 222.0429
Precursor type: [M+H]+
m/z	relative intensity
39.0234	14
50.0151	21
51.0232	87
55.0295	70
63.9945	34
65.0389	552
66.0206	46
73.9794	28
75.9952	26
77.0389	999
83.0242	33
87.9946	104
92.0496	827
93.0575	114
94.0652	158
100.9898	184
101.9741	26
103.0538	14
104.0494	595
105.0448	42
115.0538	10
116.0495	12
116.9969	34
119.0601	29
122.9986	14
128.9851	208
130.0652	92
131.0595	41
132.0445	39
132.0678	14
142.0521	17
146.0119	281
149.0148	36
150.0107	62
158.0641	35
159.0551	34
177.021	11
186.0659	26
193.0292	84
205.0179	16
222.0431	359
