Mass spectrum: Dexpanthenol; LC-ESI-QTOF; MS2; 30 V
Name: Dexpanthenol
Formula: C9H19NO4
Exact mass: 205.1314
SMILES: CC(C)(CO)C(C(=O)NCCCO)O
InChI: InChI=1S/C9H19NO4/c1-9(2,6-12)7(13)8(14)10-4-3-5-11/h7,11-13H,3-6H2,1-2H3,(H,10,14)
Instrument: TripleTOF 6600 SCIEX
Instrument type: LC-ESI-QTOF
Ms type: MS2
Ion mode: POSITIVE
Collision energy: 30
Fragmentation mode: CID
Ionization: ESI
Column name: Zorbax Eclipse Plus C18 2.1 mm x 150 mm, 3.5 um, Agilent
Retention time: 4.791 min
Precursor m/z: 206.1387
Precursor type: [M+H]+
m/z	relative intensity
30.0332	26
39.0226	19
41.0383	104
43.0177	148
45.0331	20
46.0281	29
55.0535	12
56.0121	81
57.0692	81
58.065	361
59.0486	79
65.0378	14
67.0537	190
69.0691	94
74.023	281
76.0751	999
83.0493	28
84.0439	146
85.0634	142
86.0587	14
95.0482	215
96.0799	20
102.054	132
103.0743	40
112.0749	15
113.0571	15
124.0745	54
142.1213	28
152.1057	14
170.1164	120
188.1275	120
