Mass spectrum: Oxytetracycline; LC-ESI-QTOF; MS2; 110 V
Name: Oxytetracycline
Class: Pharmaceutical
Formula: C22H24N2O9
Exact mass: 460.1482
SMILES: CC1(C2C(C3C(C(=O)C(=C(C3(C(=O)C2=C(C4=C1C=CC=C4O)O)O)O)C(=O)N)N(C)C)O)O
InChI: InChI=1S/C22H24N2O9/c1-21(32)7-5-4-6-8(25)9(7)15(26)10-12(21)17(28)13-14(24(2)3)16(27)11(20(23)31)19(30)22(13,33)18(10)29/h4-6,12-14,17,25-26,28,30,32-33H,1-3H3,(H2,23,31)
Instrument: TripleTOF 5600 SCIEX
Instrument type: LC-ESI-QTOF
Ms type: MS2
Ion mode: POSITIVE
Collision energy: 110
Fragmentation mode: CID
Ionization: ESI
Column name: Zorbax Eclipse Plus C18 2.1 mm x 150 mm, 3.5 um, Agilent
Retention time: 5.586 min
Precursor m/z: 461.1555
Precursor type: [M+H]+
m/z	relative intensity
58.0697	40
69.0005	35
70.068	30
77.04	204
79.0197	30
91.0555	87
98.0611	46
101.0372	61
102.0464	76
113.0394	20
115.053	266
116.0611	20
117.0709	40
126.0446	92
126.061	25
127.0533	999
128.0611	753
129.0674	71
131.0481	46
138.0464	30
139.0518	179
140.0603	51
141.0302	30
141.0686	66
144.0557	25
145.0638	71
150.045	20
151.0538	71
152.0602	235
152.0845	25
153.068	87
155.0486	148
156.0565	122
157.0621	51
163.052	35
164.062	76
165.0684	204
168.0542	184
169.0622	46
171.0433	25
171.0826	25
174.0677	25
176.0609	71
177.0701	46
178.0762	87
179.0487	20
179.0783	25
181.0648	76
183.0415	30
184.0508	537
186.0311	40
187.0372	46
189.069	35
192.0578	20
196.0499	46
197.0588	25
201.0535	25
205.0664	35
212.0458	97
221.0629	25
237.0489	56
