Mass spectrum: Warfarin; LC-ESI-QTOF; MS2; 40 V
Name: Warfarin
Class: Pesticide; Biocide; Rodenticide
Formula: C19H16O4
Exact mass: 308.1049
SMILES: CC(=O)CC(C1=CC=CC=C1)C2=C(C3=CC=CC=C3OC2=O)O
InChI: InChI=1S/C19H16O4/c1-12(20)11-15(13-7-3-2-4-8-13)17-18(21)14-9-5-6-10-16(14)23-19(17)22/h2-10,15,21H,11H2,1H3
Instrument: TripleTOF 6600 SCIEX
Instrument type: LC-ESI-QTOF
Ms type: MS2
Ion mode: POSITIVE
Collision energy: 40
Fragmentation mode: CID
Ionization: ESI
Column name: Zorbax Eclipse Plus C18 2.1 mm x 150 mm, 3.5 um, Agilent
Retention time: 11.631 min
Precursor m/z: 309.1122
Precursor type: [M+H]+
m/z	relative intensity
43.0178	119
65.0388	19
68.9974	12
77.0379	64
91.0535	42
93.0327	26
95.0485	15
103.0529	38
121.0279	384
128.0611	18
129.0691	76
131.0479	97
145.0266	10
147.0801	80
153.068	16
155.0849	243
157.0264	42
163.0383	970
165.07	50
167.0852	76
171.0794	13
173.0229	605
175.0376	10
177.0688	16
178.076	61
179.0855	28
183.0801	325
189.0531	23
191.0328	26
195.0804	32
205.0635	62
223.0749	214
233.0585	89
249.054	18
251.0704	999
