Mass spectrum: 2-(2-Methoxyphenyl)-1H-Benzimidazole; LC-ESI-QTOF; MS2; 130 V
Name: 2-(2-Methoxyphenyl)-1H-Benzimidazole
Class: Pharmaceutical
Formula: C14H12N2O
Exact mass: 224.095
SMILES: COc1ccccc1c2[nH]c3ccccc3n2
InChI: InChI=1S/C14H12N2O/c1-17-13-9-5-2-6-10(13)14-15-11-7-3-4-8-12(11)16-14/h2-9H,1H3,(H,15,16)
Instrument: TripleTOF 5600 SCIEX
Instrument type: LC-ESI-QTOF
Ms type: MS2
Ion mode: POSITIVE
Collision energy: 130
Fragmentation mode: CID
Ionization: ESI
Column name: Zorbax Eclipse Plus C18 2.1 mm x 150 mm, 3.5 um, Agilent
Retention time: 6.225 min
Precursor m/z: 225.1022
Precursor type: [M+H]+
m/z	relative intensity
52.024	231
60.004	94
62.051	63
63.0577	52
64.0348	126
65.0296	73
65.0436	788
73.0109	105
74.0192	999
75.0143	147
75.0266	809
75.0546	52
76.0204	294
76.0321	315
76.0746	42
77.0413	546
86.0181	73
87.0271	63
89.0392	42
91.043	52
98.0169	84
99.0133	52
99.0251	63
101.0376	52
102.0363	168
103.0442	52
125.0384	42
126.0498	94
130.0488	63
