Mass spectrum: Oseltamivir carboxylic acid; LC-ESI-QTOF; MS2; 60 V
Name: Oseltamivir carboxylic acid
Class: Pharmaceutical; Metabolite; Transformation_product
Formula: C14H24N2O4
Exact mass: 284.1736
SMILES: CCC(CC)O[C@@H]1C=C(C[C@H](N)[C@H]1NC(C)=O)C(O)=O
InChI: InChI=1S/C14H24N2O4/c1-4-10(5-2)20-12-7-9(14(18)19)6-11(15)13(12)16-8(3)17/h7,10-13H,4-6,15H2,1-3H3,(H,16,17)(H,18,19)/t11-,12+,13+/m0/s1
Instrument: TripleTOF 5600 SCIEX
Instrument type: LC-ESI-QTOF
Ms type: MS2
Ion mode: POSITIVE
Collision energy: 60
Fragmentation mode: CID
Ionization: ESI
Column name: Zorbax Eclipse Plus C18 2.1 mm x 150 mm, 3.5 um, Agilent
Retention time: 5.65 min
Precursor m/z: 285.1809
Precursor type: [M+H]+
m/z	relative intensity
43.0256	46
60.048	20
65.0433	541
66.0483	16
67.0433	16
67.0581	276
68.054	27
77.0419	834
78.039	23
80.0516	139
81.0597	16
82.0674	113
83.0503	18
92.0515	657
93.0353	332
93.0579	199
94.0292	16
94.0669	999
95.0509	27
108.0441	18
108.0696	20
109.0522	25
109.0773	90
110.0605	127
119.0606	85
120.0449	829
120.0712	11
121.0273	11
137.0713	102
138.0548	239
