Mass spectrum: Cocamidopropyl betaine; LC-ESI-QTOF; MS2; 70 V
Name: Cocamidopropyl betaine
Formula: C19H38N2O3
Exact mass: 342.2882
InChI: InChI=1S/C19H38N2O3/c1-4-5-6-7-8-9-10-11-12-14-18(22)20-15-13-16-21(2,3)17-19(23)24/h4-17H2,1-3H3,(H-,20,22,23,24)
Instrument: TripleTOF 6600 SCIEX
Instrument type: LC-ESI-QTOF
Ms type: CID
Ion mode: POSITIVE
Collision energy: 70
Ionization: ESI
Column name: Zorbax Eclipse Plus C18 2.1 mm x 150 mm, 3.5 um, Agilent
Retention time: 10.623 min
Precursor m/z: 343.2955
Precursor type: [M+H]+
m/z	relative intensity
30.0338	43
38.014	16
39.0232	191
41.039	781
43.0548	999
55.0542	90
57.07	871
58.0651	113
65.0374	16
67.0537	197
69.0691	23
71.0852	150
79.0541	40
81.0689	137
83.0849	16
85.0987	13
93.069	20
95.0846	137
109.1009	26
