Mass spectrum: Prosulfuron; LC-ESI-QTOF; MS2; 110 V
Name: Prosulfuron
Class: Herbicide
Formula: C15H16F3N5O4S
Exact mass: 419.0875
SMILES: CC1=NC(=NC(=N1)OC)NC(=O)NS(=O)(=O)C2=CC=CC=C2CCC(F)(F)F
InChI: InChI=1S/C15H16F3N5O4S/c1-9-19-12(22-14(20-9)27-2)21-13(24)23-28(25,26)11-6-4-3-5-10(11)7-8-15(16,17)18/h3-6H,7-8H2,1-2H3,(H2,19,20,21,22,23,24)
Instrument: TripleTOF 6600 SCIEX
Instrument type: LC-ESI-QTOF
Ms type: MS2
Ion mode: POSITIVE
Collision energy: 110
Fragmentation mode: CID
Ionization: ESI
Column name: Zorbax Eclipse Plus C18 2.1 mm x 150 mm, 3.5 um, Agilent
Retention time: 11.847 min
Precursor m/z: 420.0948
Precursor type: [M+H]+
m/z	relative intensity
30.0322	24
39.0208	15
41.011	14
42.0316	398
43.0269	534
44.0103	12
56.0105	17
56.0468	167
57.0118	91
57.0424	375
58.0262	314
59.0263	51
61.0044	14
62.0138	14
63.0203	70
67.0257	17
68.022	289
69.0058	326
77.0348	26
78.0435	30
81.0106	14
83.0261	999
84.0539	10
85.0364	30
89.0358	105
100.0481	28
102.0432	12
107.0254	19
109.0416	743
133.0423	54
151.0332	10
