Mass spectrum: Fexofenadinone; LC-ESI-QTOF; MS2; 150 V
Name: Fexofenadinone
Class: Pharmaceutical
Formula: C32H37NO4
Exact mass: 499.2723
SMILES: O=C(C1=CC=C(C(C)(C(O)=O)C)C=C1)CCCN(CCC2)CC2C(C3=CC=CC=C3)(O)C4=CC=CC=C4
InChI: InChI=1S/C32H37NO4/c1-31(2,30(35)36)25-19-17-24(18-20-25)29(34)16-10-22-33-21-9-15-28(23-33)32(37,26-11-5-3-6-12-26)27-13-7-4-8-14-27/h3-8,11-14,17-20,28,37H,9-10,15-16,21-23H2,1-2H3,(H,35,36)
Instrument: TripleTOF 5600 SCIEX
Instrument type: LC-ESI-QTOF
Ms type: MS2
Ion mode: POSITIVE
Collision energy: 150
Fragmentation mode: CID
Ionization: ESI
Column name: Zorbax Eclipse Plus C18 2.1 mm x 150 mm, 3.5 um, Agilent
Retention time: 8.706 min
Precursor m/z: 500.2795
Precursor type: [M+H]+
m/z	relative intensity
39.0227	16
41.039	11
43.0175	21
51.0232	16
63.0247	21
65.0387	159
77.0388	362
78.0467	76
79.0551	40
89.0387	121
90.0464	176
91.0543	999
92.0623	16
93.0342	14
96.081	11
98.0973	11
101.0382	16
102.0468	66
103.0544	431
104.0614	19
105.0333	19
105.0705	14
107.0485	21
115.0547	941
116.0618	57
117.07	650
118.0778	309
119.0496	14
120.0568	9
121.0298	16
127.0572	21
128.0613	54
131.0482	97
146.0746	11
147.044	21
152.0635	16
