Mass spectrum: Remdesivir; LC-ESI-QTOF; MS2; 150 V
Name: Remdesivir
Class: Pharmaceutical
Formula: C27H35N6O8P
Exact mass: 602.2254
SMILES: CCC(CC)COC(=O)C(C)NP(=O)(OCC1C(C(C(O1)(C#N)C2=CC=C3N2N=CN=C3N)O)O)OC4=CC=CC=C4
InChI: InChI=1S/C27H35N6O8P/c1-4-18(5-2)13-38-26(36)17(3)32-42(37,41-19-9-7-6-8-10-19)39-14-21-23(34)24(35)27(15-28,40-21)22-12-11-20-25(29)30-16-31-33(20)22/h6-12,16-18,21,23-24,34-35H,4-5,13-14H2,1-3H3,(H,32,37)(H2,29,30,31)
Instrument: TripleTOF 6600 SCIEX
Instrument type: LC-ESI-QTOF
Ms type: MS2
Ion mode: POSITIVE
Collision energy: 150
Fragmentation mode: CID
Ionization: ESI
Column name: Zorbax Eclipse Plus C18 2.1 mm x 150 mm, 3.5 um, Agilent
Retention time: 9.974 min
Precursor m/z: 603.2327
Precursor type: [M+H]+
m/z	relative intensity
37.0068	15
39.0226	71
41.0382	54
42.0328	33
43.0285	47
43.0411	16
43.0542	28
44.0492	322
50.0145	24
51.0227	212
60.9835	11
64.0177	64
65.0378	54
66.0327	15
67.0173	9
76.0174	98
77.0261	16
77.038	999
78.0331	254
78.9935	52
79.0284	13
79.9887	90
83.0032	11
87.9934	16
91.0283	24
91.0532	39
92.0489	15
93.0438	30
95.0484	96
103.0283	111
103.0535	43
104.0365	11
105.0438	226
106.0038	52
109.0187	58
117.0566	11
118.0643	15
119.0232	37
119.0593	11
120.0553	24
120.0803	16
129.046	18
130.039	50
135.0659	11
137.0141	49
138.9932	20
145.0512	11
147.0646	96
165.0081	37
