Mass spectrum: Clindamycin; LC-ESI-QTOF; MS2; 140 V
Name: Clindamycin
Class: Antimicrobial; Pharmaceutical
Formula: C18H33ClN2O5S
Exact mass: 424.1799
SMILES: CCCC1CC(N(C1)C)C(=O)NC(C2C(C(C(C(O2)SC)O)O)O)C(C)Cl
InChI: InChI=1S/C18H33ClN2O5S/c1-5-6-10-7-11(21(3)8-10)17(25)20-12(9(2)19)16-14(23)13(22)15(24)18(26-16)27-4/h9-16,18,22-24H,5-8H2,1-4H3,(H,20,25)
Instrument: TripleTOF 5600 SCIEX
Instrument type: LC-ESI-QTOF
Ms type: MS2
Ion mode: POSITIVE
Collision energy: 140
Fragmentation mode: CID
Ionization: ESI
Column name: Zorbax Eclipse Plus C18 2.1 mm x 150 mm, 3.5 um, Agilent
Retention time: 6.261 min
Precursor m/z: 425.1871
Precursor type: [M+H]+
m/z	relative intensity
42.0478	312
44.0604	39
54.0402	12
56.0568	12
58.0722	30
65.0472	21
67.0497	219
68.0557	393
69.0747	96
70.0703	270
77.044	15
79.0566	15
80.0523	60
81.0592	45
82.0687	999
83.076	219
84.0833	45
94.0662	36
95.087	15
96.0813	162
97.092	27
124.1127	45
126.1276	342
