Mass spectrum: Fluazifop-P-butyl; LC-ESI-QTOF; MS2; 90 V
Name: Fluazifop-P-butyl
Class: Herbicide
Formula: C19H20F3NO4
Exact mass: 383.1344
SMILES: CCCCOC(=O)C(C)OC1=CC=C(C=C1)OC2=NC=C(C=C2)C(F)(F)F
InChI: InChI=1S/C19H20F3NO4/c1-3-4-11-25-18(24)13(2)26-15-6-8-16(9-7-15)27-17-10-5-14(12-23-17)19(20,21)22/h5-10,12-13H,3-4,11H2,1-2H3
Instrument: TripleTOF 6600 SCIEX
Instrument type: LC-ESI-QTOF
Ms type: MS2
Ion mode: POSITIVE
Collision energy: 90
Fragmentation mode: CID
Ionization: ESI
Column name: Zorbax Eclipse Plus C18 2.1 mm x 150 mm, 3.5 um, Agilent
Retention time: 15.933 min
Precursor m/z: 384.1417
Precursor type: [M+H]+
m/z	relative intensity
35.9991	19
37.0073	79
38.0028	12
38.0153	64
39.0231	529
41.0386	214
43.0185	20
45.0338	12
50.0145	46
51.0041	10
51.0225	102
53.0382	18
55.0171	24
57.0144	25
57.0696	11
61.0071	25
62.0144	51
63.0229	217
64.0311	75
65.0383	999
66.0465	24
68.9938	93
70.0207	27
73.0073	15
74.0143	129
75.0041	456
75.0213	250
76.0171	65
76.0293	25
77.0379	370
78.0335	122
78.0429	21
79.0544	23
81.0333	56
82.04	12
83.0286	18
87.0228	25
88.0138	11
88.0303	57
89.0371	55
90.0338	16
90.0457	19
91.0536	606
92.0255	46
93.0326	54
94.0406	52
96.0243	52
97.0312	54
98.0138	12
99.0037	208
100.0107	198
101.0183	29
101.0374	28
102.045	87
103.0529	195
104.0118	15
104.0485	32
105.0363	23
107.0148	54
107.0279	30
107.0475	15
108.0191	16
109.026	21
110.0347	38
113.018	24
113.0373	159
114.0452	316
115.039	20
115.0505	63
116.0307	20
116.0493	34
117.0134	16
117.0567	37
119.0085	84
119.035	39
120.0182	57
120.043	45
121.0345	33
122.0143	16
123.0219	82
124.0182	36
125.0189	15
125.0374	15
126.0141	916
127.0222	390
128.0065	11
128.0485	97
129.0565	87
130.0402	19
130.0646	153
131.0485	504
132.0395	52
133.0251	18
133.0439	236
134.0402	48
135.0462	21
137.0208	54
138.0265	16
139.0515	64
140.0292	15
140.0491	590
141.0255	16
141.0567	860
142.0409	48
142.063	32
143.0288	158
144.0247	50
144.0431	18
145.0335	21
146.0206	982
147.0284	343
148.0344	33
148.0544	43
149.038	28
150.0332	79
151.0344	306
152.0284	14
152.042	55
153.0451	12
154.063	29
156.0424	32
156.0796	24
157.0251	45
157.0492	42
158.0401	88
158.0585	100
159.0478	99
160.0375	50
160.0519	29
161.0195	10
161.0424	14
162.027	41
163.0346	113
164.0313	208
165.0335	28
166.0424	19
166.0634	75
167.0725	32
168.0433	277
169.0285	20
169.0496	115
170.0393	114
171.0436	42
172.0325	74
175.0345	11
176.0325	27
177.0381	33
177.0569	16
178.0449	138
179.0304	10
179.0517	14
180.0362	106
181.0245	12
181.044	20
182.0347	86
183.0406	29
184.0362	109
185.0443	181
186.0362	15
186.0579	15
187.0424	25
188.0483	100
189.0379	114
190.0451	286
191.0403	34
196.0384	24
197.0452	50
198.0516	323
199.0361	38
200.0337	23
206.0402	60
207.0461	19
208.0368	101
209.0449	318
210.0495	101
211.0607	38
214.0417	20
215.0497	20
218.0419	192
224.0664	16
225.0362	36
226.0488	120
227.0562	61
234.0367	120
235.0612	42
236.0299	137
237.0436	14
238.0458	315
254.0427	422
