Mass spectrum: Doxycycline; LC-ESI-QTOF; MS2; 40 V
Name: Doxycycline
Class: Antimicrobial; Pharmaceutical
Formula: C22H24N2O8
Exact mass: 444.1533
SMILES: CC1C2C(C3C(C(=O)C(=C(C3(C(=O)C2=C(C4=C1C=CC=C4O)O)O)O)C(=O)N)N(C)C)O
InChI: InChI=1S/C22H24N2O8/c1-7-8-5-4-6-9(25)11(8)16(26)12-10(7)17(27)14-15(24(2)3)18(28)13(21(23)31)20(30)22(14,32)19(12)29/h4-7,10,14-15,17,25-27,30,32H,1-3H3,(H2,23,31)
Instrument: TripleTOF 5600 SCIEX
Instrument type: LC-ESI-QTOF
Ms type: MS2
Ion mode: POSITIVE
Collision energy: 40
Fragmentation mode: CID
Ionization: ESI
Column name: Zorbax Eclipse Plus C18 2.1 mm x 150 mm, 3.5 um, Agilent
Retention time: 6.499 min
Precursor m/z: 445.1605
Precursor type: [M+H]+
m/z	relative intensity
98.0646	42
126.0579	29
154.0517	79
175.0771	21
187.0746	14
195.0819	13
201.0542	64
210.0818	10
211.0756	15
239.0732	33
241.087	27
251.0756	13
252.0445	27
253.0797	10
253.0904	15
257.0832	11
265.0836	17
267.0647	138
269.0785	52
277.0876	14
278.0573	14
279.0672	14
281.0828	13
285.0792	14
291.0632	14
293.0798	67
296.1217	11
297.0745	17
303.0603	22
306.0497	18
311.1015	10
319.0572	19
321.0735	172
334.048	13
334.063	11
336.1205	13
337.0646	25
339.0863	103
347.0587	15
349.0707	48
364.1144	18
367.074	37
382.126	15
392.1089	37
410.1194	217
428.1336	999
445.1649	41
