Mass spectrum: Quinoline; LC-ESI-QTOF; MS2; 70 V
Name: Quinoline
Formula: C9H7N
Exact mass: 129.0578
SMILES: C1=CC=C2C(=C1)C=CC=N2
InChI: InChI=1S/C9H7N/c1-2-6-9-8(4-1)5-3-7-10-9/h1-7H
Instrument: TripleTOF X500R SCIEX
Instrument type: LC-ESI-QTOF
Ms type: MS2
Ion mode: POSITIVE
Collision energy: 70
Fragmentation mode: CID
Ionization: ESI
Column name: Zorbax Eclipse Plus C18 2.1 mm x 150 mm, 3.5 um, Agilent
Retention time: 4.58 min
Precursor m/z: 130.0651
Precursor type: [M+H]+
m/z	relative intensity
37.0069	25
38.0153	14
39.0229	36
49.007	66
50.0147	845
51.0223	999
52.0303	11
61.0079	22
62.0151	84
63.0228	83
74.015	161
75.0228	123
76.0308	43
77.0382	451
102.0463	62
103.0546	14
