Mass spectrum: Itraconazole; LC-ESI-QTOF; MS2; 80 V
Name: Itraconazole
Class: Pharmaceutical
Formula: C35H38Cl2N8O4
Exact mass: 704.2393
InChI: InChI=1S/C35H38Cl2N8O4/c1-3-25(2)45-34(46)44(24-40-45)29-7-5-27(6-8-29)41-14-16-42(17-15-41)28-9-11-30(12-10-28)47-19-31-20-48-35(49-31,21-43-23-38-22-39-43)32-13-4-26(36)18-33(32)37/h4-13,18,22-25,31H,3,14-17,19-21H2,1-2H3
Instrument: TripleTOF 5600 SCIEX
Instrument type: LC-ESI-QTOF
Ms type: CID
Ion mode: POSITIVE
Collision energy: 80
Ionization: ESI
Column name: Zorbax Eclipse Plus C18 2.1 mm x 150 mm, 3.5 um, Agilent
Retention time: 13.565 min
Precursor m/z: 705.2466
Precursor type: [M+H]+
m/z	relative intensity
55.0252	0
56.0515	166
91.0548	499
106.0711	166
117.0523	333
118.0628	499
119.0724	499
120.0786	166
121.0579	333
129.0672	0
130.0682	666
131.0598	333
132.0767	166
134.071	166
135.066	166
136.0762	166
144.0819	499
145.088	166
146.0948	832
148.0774	333
158.9732	832
158.9857	0
160.0654	166
160.0751	166
160.0873	166
161.0623	166
164.0733	166
172.1194	166
173.0771	166
174.07	166
174.0916	499
174.097	166
174.1101	166
186.0884	166
186.9712	832
187.064	333
188.1087	333
189.0749	333
192.103	166
203.0942	999
215.0921	666
229.1056	499
230.119	0
230.1382	166
243.1248	832
245.1592	499
255.9914	499
256.0128	166
270.1346	499
271.1636	166
279.0874	333
279.0971	0
335.1459	832
392.2116	832
