Mass spectrum: Clopidogrel carboxylic acid; LC-ESI-QTOF; MS2; 120 V
Name: Clopidogrel carboxylic acid
Class: Pharmaceutical; Transformation_product-Metabolite
Formula: C15H14ClNO2S
Exact mass: 307.0434
SMILES: C1CN(CC2=C1SC=C2)C(C3=CC=CC=C3Cl)C(=O)O
InChI: InChI=1S/C15H14ClNO2S/c16-12-4-2-1-3-11(12)14(15(18)19)17-7-5-13-10(9-17)6-8-20-13/h1-4,6,8,14H,5,7,9H2,(H,18,19)
Instrument: TripleTOF 6600 SCIEX
Instrument type: LC-ESI-QTOF
Ms type: MS2
Ion mode: POSITIVE
Collision energy: 120
Fragmentation mode: CID
Ionization: ESI
Column name: Zorbax Eclipse Plus C18 2.1 mm x 150 mm, 3.5 um, Agilent
Retention time: 6.621 min
Precursor m/z: 308.0507
Precursor type: [M+H]+
m/z	relative intensity
39.0236	23
44.9795	10
49.0079	62
50.0159	346
51.0239	999
52.0311	28
61.0076	11
62.0159	31
63.0236	102
64.032	11
65.0391	18
72.9846	68
74.0153	19
75.0234	18
77.0394	526
78.0467	71
89.0391	188
90.0465	56
98.9999	49
105.0437	10
125.0151	18
