Mass spectrum: Albendazole; LC-ESI-QTOF; MS2; 90 V
Name: Albendazole
Class: Pharmaceutical
Formula: C12H15N3O2S
Exact mass: 265.0885
SMILES: CCCSc1ccc2nc(NC(=O)OC)[nH]c2c1
InChI: InChI=1S/C12H15N3O2S/c1-3-6-18-8-4-5-9-10(7-8)14-11(13-9)15-12(16)17-2/h4-5,7H,3,6H2,1-2H3,(H2,13,14,15,16)
Instrument: TripleTOF 5600 SCIEX
Instrument type: LC-ESI-QTOF
Ms type: MS2
Ion mode: POSITIVE
Collision energy: 90
Fragmentation mode: CID
Ionization: ESI
Column name: Zorbax Eclipse Plus C18 2.1 mm x 150 mm, 3.5 um, Agilent
Retention time: 8.546 min
Precursor m/z: 266.0958
Precursor type: [M+H]+
m/z	relative intensity
41.0359	13
51.0285	40
52.0244	31
52.0364	44
53.0305	12
57.9921	22
65.0302	82
65.0422	37
66.0263	17
66.0373	54
67.0466	36
68.9834	169
69.0125	42
69.991	145
70.9981	13
75.0129	35
76.0215	389
77.0296	939
78.0367	208
79.044	176
80.0506	17
81.9899	236
82.9849	103
83.9926	56
84.9994	10
89.0268	14
90.0353	102
91.0302	16
91.0429	62
92.0392	810
92.9807	146
93.0456	74
93.9883	222
94.0533	11
94.9961	196
96.0041	157
97.0111	11
102.0341	11
103.0308	285
104.0383	999
105.0451	216
106.0529	35
107.993	20
108.9988	473
109.9929	25
110.0055	73
111.0144	22
116.0366	30
118.0389	26
118.0528	39
119.0483	427
119.9899	136
120.0564	52
120.9984	185
122.0065	334
123.0141	58
130.0404	327
131.0233	15
131.0483	570
132.0563	33
133.0636	59
135.0012	94
136.0091	247
137.017	45
146.0363	22
147.0016	24
147.042	31
149.0185	16
158.0354	95
159.0434	335
162.0118	72
163.0195	58
164.0274	22
190.0066	31
191.0142	25
