Mass spectrum: Carazolol; LC-ESI-QTOF; MS2; 30 V
Name: Carazolol
Class: Pharmaceutical
Formula: C18H22N2O2
Exact mass: 298.1681
SMILES: CC(C)NCC(O)COc1cccc2[nH]c3ccccc3c12
InChI: InChI=1S/C18H22N2O2/c1-12(2)19-10-13(21)11-22-17-9-5-8-16-18(17)14-6-3-4-7-15(14)20-16/h3-9,12-13,19-21H,10-11H2,1-2H3
Instrument: TripleTOF 5600 SCIEX
Instrument type: LC-ESI-QTOF
Ms type: MS2
Ion mode: POSITIVE
Collision energy: 30
Fragmentation mode: CID
Ionization: ESI
Column name: Zorbax Eclipse Plus C18 2.1 mm x 150 mm, 3.5 um, Agilent
Retention time: 6.882 min
Precursor m/z: 299.1754
Precursor type: [M+H]+
m/z	relative intensity
56.056	63
58.071	23
72.0851	110
74.0643	149
98.098	109
116.1084	999
156.0815	15
166.0652	10
167.0753	10
168.081	39
180.0814	13
184.0767	307
194.0972	245
196.0769	213
204.0808	15
210.092	19
222.0924	702
257.1293	25
299.1768	539
