Mass spectrum: Quinmerac; LC-ESI-QTOF; MS2; 110 V
Name: Quinmerac
Class: Herbicide
Formula: C11H8ClNO2
Exact mass: 221.0244
SMILES: Cc1cc2ccc(c(c2nc1)C(=O)O)Cl
InChI: InChI=1S/C11H8ClNO2/c1-6-4-7-2-3-8(12)9(11(14)15)10(7)13-5-6/h2-5H,1H3,(H,14,15)
Instrument: TripleTOF 6600 SCIEX
Instrument type: LC-ESI-QTOF
Ms type: MS2
Ion mode: POSITIVE
Collision energy: 110
Fragmentation mode: CID
Ionization: ESI
Column name: Zorbax Eclipse Plus C18 2.1 mm x 150 mm, 3.5 um, Agilent
Retention time: 7.013 min
Precursor m/z: 222.0316
Precursor type: [M+H]+
m/z	relative intensity
37.0075	83
38.015	67
39.023	140
46.9675	57
48.984	57
49.0074	41
50.0148	171
51.0228	67
59.9993	88
61.0073	546
62.0152	999
63.023	900
64.018	109
64.03	31
65.0387	52
72.9837	187
73.0067	104
74.0155	442
75.0107	41
75.0226	98
83.9995	41
85.0075	239
86.0151	535
87.0225	629
88.0191	187
88.0307	244
89.0383	93
90.0337	31
96.985	36
97.0065	20
98.0151	135
99.0102	109
99.0222	20
100.0185	52
110.0108	20
111.0104	52
113.0386	494
114.0335	104
114.0455	41
115.055	26
122.9981	26
140.0503	98
