Mass spectrum: Dimethenamid-OA; LC-ESI-QTOF; MS2; 70 V
Name: Dimethenamid-OA
Class: Transformation_product; Herbicide
Formula: C12H17NO4S
Exact mass: 271.0878
SMILES: Cc1csc(c1N(C(C)COC)C(=O)C(=O)O)C
InChI: InChI=1S/C12H17NO4S/c1-7-6-18-9(3)10(7)13(8(2)5-17-4)11(14)12(15)16/h6,8H,5H2,1-4H3,(H,15,16)
Instrument: TripleTOF 6600 SCIEX
Instrument type: LC-ESI-QTOF
Ms type: MS2
Ion mode: POSITIVE
Collision energy: 70
Fragmentation mode: CID
Ionization: ESI
Column name: Zorbax Eclipse Plus C18 2.1 mm x 150 mm, 3.5 um, Agilent
Retention time: 8.208 min
Precursor m/z: 272.0951
Precursor type: [M+H]+
m/z	relative intensity
39.0234	241
41.0391	344
44.9797	310
45.034	378
51.0232	206
58.9958	447
59.9899	275
65.0389	688
66.047	206
67.0429	206
67.0544	551
70.9946	275
77.0387	654
78.0464	344
79.0537	275
80.0496	310
82.0645	275
85.01	137
91.0531	275
92.0504	447
93.0573	654
94.0651	757
97.0108	551
99.0269	241
104.0505	310
105.0568	344
109.0116	241
111.0263	895
117.056	137
118.0647	206
123.0127	137
126.0371	999
136.0233	172
138.0004	275
138.0369	206
150.0364	206
152.0142	275
