Mass spectrum: 17alpha-Hydroxyprogesterone; LC-ESI-QTOF; MS2; 100 V
Name: 17alpha-Hydroxyprogesterone
Class: Pharmaceutical
Formula: C21H30O3
Exact mass: 330.2195
SMILES: CC(=O)[C@@]1(O)CC[C@H]2[C@@H]3CCC4=CC(=O)CC[C@]4(C)[C@H]3CC[C@]12C
InChI: InChI=1S/C21H30O3/c1-13(22)21(24)11-8-18-16-5-4-14-12-15(23)6-9-19(14,2)17(16)7-10-20(18,21)3/h12,16-18,24H,4-11H2,1-3H3/t16-,17+,18+,19+,20+,21+/m1/s1
Instrument: TripleTOF 5600 SCIEX
Instrument type: LC-ESI-QTOF
Ms type: MS2
Ion mode: POSITIVE
Collision energy: 100
Fragmentation mode: CID
Ionization: ESI
Column name: Zorbax Eclipse Plus C18 2.1 mm x 150 mm, 3.5 um, Agilent
Retention time: 11.808 min
Precursor m/z: 331.2268
Precursor type: [M+H]+
m/z	relative intensity
43.0274	255
43.0444	59
53.0438	108
55.0226	105
55.0591	59
57.0404	28
65.0424	199
66.0511	24
67.0571	149
69.0364	21
69.0729	52
77.0412	999
78.0478	24
79.0565	666
81.0363	34
81.0721	196
82.0432	18
83.0513	37
91.0555	591
93.0706	52
94.043	34
95.0488	24
95.0868	34
97.0653	410
102.0457	21
103.0534	74
104.0625	18
105.0699	118
107.0481	59
108.0569	18
109.0642	273
109.0939	12
115.054	354
116.0612	28
117.0686	68
119.0852	31
123.0788	34
127.0531	84
128.0619	304
129.0692	133
130.0777	15
131.0846	18
141.0697	164
142.0776	28
143.0837	12
147.0793	12
152.062	93
153.0686	74
154.0761	24
155.0845	34
165.0688	136
166.0778	21
167.0889	18
178.0771	28
179.0876	24
