Mass spectrum: 2-Piperidin-3-yl-benzothiazole; LC-ESI-QTOF; MS2; 140 V
Name: 2-Piperidin-3-yl-benzothiazole
Formula: C12H14N2S
Exact mass: 218.0878
SMILES: C1CC(CNC1)C2=NC3=CC=CC=C3S2
InChI: InChI=1S/C12H14N2S/c1-2-6-11-10(5-1)14-12(15-11)9-4-3-7-13-8-9/h1-2,5-6,9,13H,3-4,7-8H2
Instrument: TripleTOF 5600 SCIEX
Instrument type: LC-ESI-QTOF
Ms type: MS2
Ion mode: POSITIVE
Collision energy: 140
Fragmentation mode: CID
Ionization: ESI
Column name: Zorbax Eclipse Plus C18 2.1 mm x 150 mm, 3.5 um, Agilent
Retention time: 5.623 min
Precursor m/z: 219.095
Precursor type: [M+H]+
m/z	relative intensity
36.0	17
37.007	69
38.0147	59
39.0231	125
43.971	24
44.05	24
44.9793	125
49.0076	27
50.0149	111
51.0231	111
57.9877	38
61.0072	59
62.0152	90
63.0231	104
65.0381	62
67.971	136
68.9793	999
73.0067	20
74.0145	122
75.0217	24
76.0181	13
77.0387	31
80.9786	34
81.9866	104
89.0396	24
91.9725	27
92.9793	87
108.0025	20
