Mass spectrum: Haloxyfop-methyl; LC-ESI-QTOF; MS2; 100 V
Name: Haloxyfop-methyl
Class: Herbicide
Formula: C16H13ClF3NO4
Exact mass: 375.0485
SMILES: COC(=O)C(C)Oc1ccc(Oc2ncc(cc2Cl)C(F)(F)F)cc1
InChI: InChI=1S/C16H13ClF3NO4/c1-9(15(22)23-2)24-11-3-5-12(6-4-11)25-14-13(17)7-10(8-21-14)16(18,19)20/h3-9H,1-2H3
Instrument: TripleTOF 5600 SCIEX
Instrument type: LC-ESI-QTOF
Ms type: MS2
Ion mode: POSITIVE
Collision energy: 100
Fragmentation mode: CID
Ionization: ESI
Column name: Zorbax Eclipse Plus C18 2.1 mm x 150 mm, 3.5 um, Agilent
Retention time: 14.891 min
Precursor m/z: 376.0558
Precursor type: [M+H]+
m/z	relative intensity
65.0418	999
74.0183	561
75.0261	811
77.0393	374
91.0561	936
108.9654	312
109.9775	499
113.0361	312
139.0355	437
140.0493	686
151.0298	374
158.039	499
159.9747	749
162.0258	561
179.9821	374
189.0378	312
190.0435	437
208.0322	249
