Mass spectrum: Clopyralid; LC-ESI-QTOF; MS2; 60 V
Name: Clopyralid
Class: Herbicide
Formula: C6H3Cl2NO2
Exact mass: 190.9541
SMILES: C1=CC(=NC(=C1Cl)C(=O)O)Cl
InChI: InChI=1S/C6H3Cl2NO2/c7-3-1-2-4(8)9-5(3)6(10)11/h1-2H,(H,10,11)
Instrument: TripleTOF 6600 SCIEX
Instrument type: LC-ESI-QTOF
Ms type: MS2
Ion mode: POSITIVE
Collision energy: 60
Fragmentation mode: CID
Ionization: ESI
Column name: Zorbax Eclipse Plus C18 2.1 mm x 150 mm, 3.5 um, Agilent
Retention time: 5.727 min
Precursor m/z: 191.9614
Precursor type: [M+H]+
m/z	relative intensity
61.9777	175
75.0095	785
76.0161	18
83.9755	170
84.982	47
109.9779	999
110.9811	23
118.9429	80
145.9527	56
