Mass spectrum: Voriconazole-N-oxide; LC-ESI-QTOF; MS2; 40 V
Name: Voriconazole-N-oxide
Class: Metabolite; Pharmaceutical
Formula: C16H14F3N5O2
Exact mass: 365.11
SMILES: CC(C1=NC=[N+](C=C1F)[O-])C(CN2C=NC=N2)(C3=C(C=C(C=C3)F)F)O
InChI: InChI=1S/C16H14F3N5O2/c1-10(15-14(19)5-24(26)9-21-15)16(25,6-23-8-20-7-22-23)12-3-2-11(17)4-13(12)18/h2-5,7-10,25H,6H2,1H3
Instrument: TripleTOF 5600 SCIEX
Instrument type: LC-ESI-QTOF
Ms type: MS2
Ion mode: POSITIVE
Collision energy: 40
Fragmentation mode: CID
Ionization: ESI
Column name: Zorbax Eclipse Plus C18 2.1 mm x 150 mm, 3.5 um, Agilent
Retention time: 7.739 min
Precursor m/z: 366.1172
Precursor type: [M+H]+
m/z	relative intensity
55.0335	26
68.052	16
82.0421	381
95.061	105
96.0695	22
98.0418	20
123.0558	36
125.0509	323
126.0587	743
127.0354	483
143.0609	88
154.0461	39
155.0299	171
169.0577	11
197.0526	27
224.063	999
261.0626	12
262.0712	34
279.0726	15
