Mass spectrum: Prednisolone; LC-ESI-QTOF; MS2; 90 V
Name: Prednisolone
Class: Pharmaceutical
Formula: C21H28O5
Exact mass: 360.1937
SMILES: C[C@]12C[C@H](O)[C@H]3[C@@H](CCC4=CC(=O)C=C[C@]34C)[C@@H]1CC[C@]2(O)C(=O)CO
InChI: InChI=1S/C21H28O5/c1-19-7-5-13(23)9-12(19)3-4-14-15-6-8-21(26,17(25)11-22)20(15,2)10-16(24)18(14)19/h5,7,9,14-16,18,22,24,26H,3-4,6,8,10-11H2,1-2H3/t14-,15-,16-,18+,19-,20-,21-/m0/s1
Instrument: TripleTOF 5600 SCIEX
Instrument type: LC-ESI-QTOF
Ms type: MS2
Ion mode: POSITIVE
Collision energy: 90
Fragmentation mode: CID
Ionization: ESI
Column name: Zorbax Eclipse Plus C18 2.1 mm x 150 mm, 3.5 um, Agilent
Retention time: 8.432 min
Precursor m/z: 361.201
Precursor type: [M+H]+
m/z	relative intensity
43.0243	18
51.0283	46
55.0582	18
65.0423	151
67.0578	50
77.0414	791
77.0745	27
78.0478	46
79.0562	184
81.0364	18
81.0734	36
89.0377	18
91.0557	999
91.0864	36
93.0702	64
102.0467	27
103.0544	207
104.0623	46
105.0703	211
107.0504	128
107.0852	23
115.0546	690
116.0619	92
117.0704	156
119.0856	115
121.0644	386
127.0543	271
128.0626	695
129.0699	271
130.0774	78
131.0494	230
132.0576	239
133.0679	18
139.0541	32
140.0628	23
141.07	253
142.0776	69
143.0852	46
144.0571	78
145.067	82
145.101	23
147.0808	73
151.0533	46
152.0619	257
153.0698	170
154.0796	41
155.0846	46
157.0663	188
158.0732	101
159.081	27
165.0697	511
166.0793	82
167.0839	50
168.056	18
169.065	69
171.08	59
176.0627	41
177.0698	73
178.0781	340
179.0841	138
181.0654	243
181.101	36
182.0731	32
183.0807	27
189.07	285
190.0767	119
191.0866	110
192.0955	32
193.1024	23
194.0728	96
195.0821	124
201.0702	36
202.0776	188
203.0822	78
204.0941	27
205.0652	50
205.1018	41
206.0708	41
207.0806	96
208.0908	64
209.0955	55
215.0855	119
218.0727	32
219.0785	41
221.0973	32
222.1076	23
226.0765	23
227.0807	18
228.0918	23
229.1027	41
231.0852	32
233.0993	23
235.1132	23
239.0822	41
243.0787	23
