Mass spectrum: Flusilazole; LC-ESI-QTOF; MS2; 60 V
Name: Flusilazole
Class: Fungicide
Formula: C16H15F2N3Si
Exact mass: 315.1003
SMILES: C[Si](CN1C=NC=N1)(C2=CC=C(C=C2)F)C3=CC=C(C=C3)F
InChI: InChI=1S/C16H15F2N3Si/c1-22(12-21-11-19-10-20-21,15-6-2-13(17)3-7-15)16-8-4-14(18)5-9-16/h2-11H,12H2,1H3
Instrument: TripleTOF 6600 SCIEX
Instrument type: LC-ESI-QTOF
Ms type: MS2
Ion mode: POSITIVE
Collision energy: 60
Fragmentation mode: CID
Ionization: ESI
Column name: Zorbax Eclipse Plus C18 2.1 mm x 150 mm, 3.5 um, Agilent
Retention time: 12.729 min
Precursor m/z: 316.1076
Precursor type: [M+H]+
m/z	relative intensity
46.9744	82
63.0055	14
65.0382	45
77.0379	139
79.0534	21
80.9959	47
83.0282	31
89.0376	21
91.0535	149
99.0051	16
103.0535	44
105.0694	44
109.0441	220
115.0532	86
123.0055	147
125.0212	128
127.053	27
128.061	12
133.0435	15
139.0531	63
143.0116	24
149.0208	67
150.045	30
151.0518	143
152.0614	217
157.0279	116
159.0599	18
163.0538	75
164.0616	177
165.0698	999
167.0119	13
170.052	85
173.0203	12
178.0767	57
181.0296	12
182.05	10
183.0601	266
184.0675	23
185.0757	29
199.0371	30
217.0278	66
219.0432	134
