Mass spectrum: Fipronil; LC-ESI-QTOF; MS2; 60 V
Name: Fipronil
Class: Insecticide
Formula: C12H4Cl2F6N4OS
Exact mass: 435.9387
SMILES: C1=C(C=C(C(=C1Cl)N2C(=C(C(=N2)C#N)S(=O)C(F)(F)F)N)Cl)C(F)(F)F
InChI: InChI=1S/C12H4Cl2F6N4OS/c13-5-1-4(11(15,16)17)2-6(14)8(5)24-10(22)9(7(3-21)23-24)26(25)12(18,19)20/h1-2H,22H2
Instrument: TripleTOF 6600 SCIEX
Instrument type: LC-ESI-QTOF
Ms type: MS2
Ion mode: NEGATIVE
Collision energy: 60
Fragmentation mode: CID
Ionization: ESI
Column name: Zorbax Eclipse Plus C18 2.1 mm x 150 mm, 3.5 um, Agilent
Retention time: 13.577 min
Precursor m/z: 434.9314
Precursor type: [M-H]-
m/z	relative intensity
34.97	102
50.0038	10
57.9755	35
77.0142	18
81.9756	10
112.0039	10
113.0152	87
143.0053	137
148.9917	12
162.0036	10
163.012	322
182.0103	157
183.0185	999
188.006	16
203.9766	10
208.0128	26
212.9478	26
213.9783	10
216.978	28
217.9859	95
218.0086	67
223.9825	36
227.978	22
233.9796	29
243.989	144
244.9211	10
247.9814	22
249.9586	451
253.9853	39
267.989	213
271.9827	26
277.9519	88
280.956	10
281.9914	87
287.9596	29
303.9704	10
