Mass spectrum: Sulfadiazine; LC-ESI-QTOF; MS2; 100 V
Name: Sulfadiazine
Class: Antimicrobial; Pharmaceutical
Formula: C10H10N4O2S
Exact mass: 250.0524
SMILES: C1=CN=C(N=C1)NS(=O)(=O)C2=CC=C(C=C2)N
InChI: InChI=1S/C10H10N4O2S/c11-8-2-4-9(5-3-8)17(15,16)14-10-12-6-1-7-13-10/h1-7H,11H2,(H,12,13,14)
Instrument: TripleTOF 5600 SCIEX
Instrument type: LC-ESI-QTOF
Ms type: MS2
Ion mode: POSITIVE
Collision energy: 100
Fragmentation mode: CID
Ionization: ESI
Column name: Zorbax Eclipse Plus C18 2.1 mm x 150 mm, 3.5 um, Agilent
Retention time: 5.24 min
Precursor m/z: 251.0597
Precursor type: [M+H]+
m/z	relative intensity
51.0303	31
52.0265	26
53.0246	49
64.0317	26
65.0453	999
66.0422	93
69.0517	22
74.0189	17
79.0332	165
79.0494	22
80.0542	374
92.0524	80
93.062	26
96.0585	57
108.0459	49
