Mass spectrum: Fexofenadinone; LC-ESI-QTOF; MS2; 110 V
Name: Fexofenadinone
Class: Pharmaceutical
Formula: C32H37NO4
Exact mass: 499.2723
SMILES: O=C(C1=CC=C(C(C)(C(O)=O)C)C=C1)CCCN(CCC2)CC2C(C3=CC=CC=C3)(O)C4=CC=CC=C4
InChI: InChI=1S/C32H37NO4/c1-31(2,30(35)36)25-19-17-24(18-20-25)29(34)16-10-22-33-21-9-15-28(23-33)32(37,26-11-5-3-6-12-26)27-13-7-4-8-14-27/h3-8,11-14,17-20,28,37H,9-10,15-16,21-23H2,1-2H3,(H,35,36)
Instrument: TripleTOF 5600 SCIEX
Instrument type: LC-ESI-QTOF
Ms type: MS2
Ion mode: POSITIVE
Collision energy: 110
Fragmentation mode: CID
Ionization: ESI
Column name: Zorbax Eclipse Plus C18 2.1 mm x 150 mm, 3.5 um, Agilent
Retention time: 8.706 min
Precursor m/z: 500.2795
Precursor type: [M+H]+
m/z	relative intensity
43.0176	18
65.0386	50
77.0386	115
78.0468	29
79.0538	48
89.0385	26
90.0461	114
91.0544	683
93.0333	26
93.0701	11
96.0804	16
98.0959	11
102.0471	37
103.0542	220
104.0623	33
105.0321	36
105.0701	39
107.0503	80
107.0855	12
115.0546	768
116.0633	76
117.0705	782
118.0781	999
119.0478	12
119.0845	30
120.0601	13
121.0284	118
127.0532	22
128.0626	30
131.0494	227
131.0851	12
132.0594	12
132.0931	61
135.0798	32
145.0659	48
145.1009	11
146.0736	295
147.0439	27
147.0819	12
148.0525	41
152.0627	11
163.0772	15
173.0957	58
176.048	18
187.1122	18
191.0711	233
