Mass spectrum: Caprolactam; LC-ESI-QTOF; MS2; 40 V
Name: Caprolactam
Class: Food_additive; Industrial_process
Formula: C6H11NO
Exact mass: 113.0841
SMILES: C1CCC(=O)NCC1
InChI: InChI=1S/C6H11NO/c8-6-4-2-1-3-5-7-6/h1-5H2,(H,7,8)
Instrument: TripleTOF 6600 SCIEX
Instrument type: LC-ESI-QTOF
Ms type: MS2
Ion mode: POSITIVE
Collision energy: 40
Fragmentation mode: CID
Ionization: ESI
Column name: Zorbax Eclipse Plus C18 2.1 mm x 150 mm, 3.5 um, Agilent
Retention time: 5.197 min
Precursor m/z: 114.0914
Precursor type: [M+H]+
m/z	relative intensity
30.0343	19
37.0081	24
38.0033	12
38.0164	21
39.0237	222
41.0395	254
42.0347	17
43.0192	13
43.0548	45
44.0142	999
51.0236	17
53.0392	30
54.0352	12
55.0184	53
55.0549	167
67.0548	16
68.0503	11
69.0704	30
77.0392	85
79.0549	28
80.05	15
