Mass spectrum: Chlorpyrifos; LC-ESI-QTOF; MS2; 110 V
Name: Chlorpyrifos
Class: Insecticide
Formula: C9H11Cl3NO3PS
Exact mass: 348.9263
SMILES: CCO[P](=S)(OCC)Oc1nc(Cl)c(Cl)cc1Cl
InChI: InChI=1S/C9H11Cl3NO3PS/c1-3-14-17(18,15-4-2)16-9-7(11)5-6(10)8(12)13-9/h5H,3-4H2,1-2H3
Instrument: TripleTOF 5600 SCIEX
Instrument type: LC-ESI-QTOF
Ms type: MS2
Ion mode: POSITIVE
Collision energy: 110
Fragmentation mode: CID
Ionization: ESI
Column name: Zorbax Eclipse Plus C18 2.1 mm x 150 mm, 3.5 um, Agilent
Retention time: 16.34 min
Precursor m/z: 349.9336
Precursor type: [M+H]+
m/z	relative intensity
46.9912	13
61.9846	38
64.9828	269
70.9745	16
71.9795	61
72.9862	19
74.0059	11
78.9422	338
82.9467	16
83.9778	74
96.9515	738
96.9812	13
97.9791	13
106.9454	999
108.9712	327
109.9791	30
117.9357	24
118.9455	88
133.9534	11
143.9398	122
144.9488	19
179.9146	27
