Mass spectrum: Metsulfuron-methyl; LC-ESI-QTOF; MS2; 110 V
Name: Metsulfuron-methyl
Class: Herbicide
Formula: C14H15N5O6S
Exact mass: 381.0743
SMILES: CC1=NC(=NC(=N1)OC)NC(=O)NS(=O)(=O)C2=CC=CC=C2C(=O)OC
InChI: InChI=1S/C14H15N5O6S/c1-8-15-12(18-14(16-8)25-3)17-13(21)19-26(22,23)10-7-5-4-6-9(10)11(20)24-2/h4-7H,1-3H3,(H2,15,16,17,18,19,21)
Instrument: TripleTOF 6600 SCIEX
Instrument type: LC-ESI-QTOF
Ms type: MS2
Ion mode: POSITIVE
Collision energy: 110
Fragmentation mode: CID
Ionization: ESI
Column name: Zorbax Eclipse Plus C18 2.1 mm x 150 mm, 3.5 um, Agilent
Retention time: 9.15008 min
Precursor m/z: 382.0816
Precursor type: [M+H]+
m/z	relative intensity
39.0224	83
42.0339	166
43.0297	166
51.0221	582
56.0504	83
57.044	83
58.0291	166
64.0302	333
64.0358	83
68.0277	83
69.0082	915
77.0379	999
83.0233	166
90.0313	166
92.0238	666
92.0333	83
102.0321	83
