Mass spectrum: Diuron; LC-ESI-QTOF; MS2; 80 V
Name: Diuron
Class: Herbicide
Formula: C9H10Cl2N2O
Exact mass: 232.017
SMILES: CN(C)C(=O)Nc1ccc(Cl)c(Cl)c1
InChI: InChI=1S/C9H10Cl2N2O/c1-13(2)9(14)12-6-3-4-7(10)8(11)5-6/h3-5H,1-2H3,(H,12,14)
Instrument: TripleTOF 5600 SCIEX
Instrument type: LC-ESI-QTOF
Ms type: MS2
Ion mode: POSITIVE
Collision energy: 80
Fragmentation mode: CID
Ionization: ESI
Column name: Zorbax Eclipse Plus C18 2.1 mm x 150 mm, 3.5 um, Agilent
Retention time: 10.497 min
Precursor m/z: 233.0243
Precursor type: [M+H]+
m/z	relative intensity
44.059	20
56.0182	101
72.0477	999
72.9867	139
74.0174	165
75.0244	12
82.946	48
90.0342	30
96.9831	25
106.9446	27
108.9837	58
125.0029	58
132.9591	96
132.9799	17
