Mass spectrum: Oxytetracycline; LC-ESI-QTOF; MS2; 100 V
Name: Oxytetracycline
Class: Pharmaceutical
Formula: C22H24N2O9
Exact mass: 460.1482
SMILES: CC1(C2C(C3C(C(=O)C(=C(C3(C(=O)C2=C(C4=C1C=CC=C4O)O)O)O)C(=O)N)N(C)C)O)O
InChI: InChI=1S/C22H24N2O9/c1-21(32)7-5-4-6-8(25)9(7)15(26)10-12(21)17(28)13-14(24(2)3)16(27)11(20(23)31)19(30)22(13,33)18(10)29/h4-6,12-14,17,25-26,28,30,32-33H,1-3H3,(H2,23,31)
Instrument: TripleTOF 5600 SCIEX
Instrument type: LC-ESI-QTOF
Ms type: MS2
Ion mode: POSITIVE
Collision energy: 100
Fragmentation mode: CID
Ionization: ESI
Column name: Zorbax Eclipse Plus C18 2.1 mm x 150 mm, 3.5 um, Agilent
Retention time: 5.586 min
Precursor m/z: 461.1555
Precursor type: [M+H]+
m/z	relative intensity
58.069	34
69.0005	34
70.0678	46
75.0253	23
77.0407	116
79.0203	29
83.015	29
89.0413	29
91.0543	52
98.0613	92
101.0376	40
102.0485	40
115.054	220
116.0608	34
117.0699	69
126.0458	92
127.0543	999
128.0617	662
129.0697	156
131.0495	52
139.0539	145
140.062	52
141.0323	23
141.0684	63
144.0589	40
145.0638	104
151.0533	52
152.0617	261
153.0688	110
155.049	209
156.0572	92
157.0644	81
163.0579	46
164.0617	75
165.0696	267
167.0835	29
168.0567	168
169.0645	63
173.0584	34
176.0619	58
177.0693	29
178.0787	92
180.0568	29
181.0649	116
182.0718	34
183.0437	52
184.052	958
186.0295	34
187.0395	81
187.0736	29
189.0683	63
193.0643	29
195.0783	34
196.0517	104
197.0612	40
201.056	81
205.0646	52
208.0535	29
209.0569	40
210.0678	52
211.0785	46
212.0477	313
213.0563	69
221.0595	34
226.0648	23
237.054	58
240.0436	40
242.0566	75
249.0571	23
265.0488	34
268.0436	23
