Mass spectrum: Kresoxim-methyl; LC-ESI-QTOF; MS2; 110 V
Name: Kresoxim-methyl
Class: Fungicide
Formula: C18H19NO4
Exact mass: 313.1314
SMILES: CC1=CC=CC=C1OCC2=CC=CC=C2C(=NOC)C(=O)OC
InChI: InChI=1S/C18H19NO4/c1-13-8-4-7-11-16(13)23-12-14-9-5-6-10-15(14)17(19-22-3)18(20)21-2/h4-11H,12H2,1-3H3
Instrument: TripleTOF 6600 SCIEX
Instrument type: LC-ESI-QTOF
Ms type: MS2
Ion mode: POSITIVE
Collision energy: 110
Fragmentation mode: CID
Ionization: ESI
Column name: Zorbax Eclipse Plus C18 2.1 mm x 150 mm, 3.5 um, Agilent
Retention time: 13.809 min
Precursor m/z: 314.1387
Precursor type: [M+H]+
m/z	relative intensity
37.0071	28
38.014	22
39.0233	165
50.0136	62
51.0222	245
61.0074	74
62.0144	119
63.0221	508
64.0175	34
64.0296	22
65.0369	148
73.0067	28
74.0146	114
75.0215	108
76.0293	97
77.038	565
78.0456	57
86.0157	22
87.0224	68
88.0171	28
89.0376	742
90.0462	57
91.0538	85
98.0122	74
99.0215	79
100.0298	28
101.0358	57
102.0445	148
103.0518	51
105.041	34
113.0385	119
114.0341	68
115.054	256
116.0472	45
117.0553	22
125.0381	131
126.0459	268
127.0517	165
128.0605	125
137.0361	57
138.0443	45
139.0526	336
140.0486	114
149.0381	102
150.0454	999
151.0524	890
152.061	867
153.0582	39
161.0396	45
162.0466	57
163.0543	536
164.0598	319
165.069	485
166.0671	62
167.0738	34
174.0463	62
175.0512	165
176.0593	548
177.0578	342
178.0762	239
179.0578	68
186.0437	28
187.0523	45
188.0446	34
188.0586	22
189.0503	28
189.0629	34
190.0637	176
191.0725	102
201.0563	97
203.0728	39
