Mass spectrum: Didesmethyl-citalopram; LC-ESI-QTOF; MS2; 70 V
Name: Didesmethyl-citalopram
Class: Pharmaceutical; Metabolite
Formula: C18H17FN2O
Exact mass: 296.1325
SMILES: c1cc(ccc1C2(c3ccc(cc3CO2)C#N)CCCN)F
InChI: InChI=1S/C18H17FN2O/c19-16-5-3-15(4-6-16)18(8-1-9-20)17-7-2-13(11-21)10-14(17)12-22-18/h2-7,10H,1,8-9,12,20H2
Instrument: TripleTOF 5600 SCIEX
Instrument type: LC-ESI-QTOF
Ms type: MS2
Ion mode: POSITIVE
Collision energy: 70
Fragmentation mode: CID
Ionization: ESI
Column name: Zorbax Eclipse Plus C18 2.1 mm x 150 mm, 3.5 um, Agilent
Retention time: 7.575 min
Precursor m/z: 297.1398
Precursor type: [M+H]+
m/z	relative intensity
57.0203	37
59.0347	19
75.0258	16
77.0422	16
83.0319	413
89.0405	198
101.0394	19
109.0451	999
113.0384	30
114.0332	11
115.054	57
116.0496	130
125.039	15
127.0547	31
128.0629	16
133.0446	50
139.0551	44
140.0495	187
146.0538	22
163.0531	18
164.0519	10
166.0657	23
169.0442	10
170.0525	20
174.0444	11
175.0536	27
176.0631	10
177.0572	10
181.0456	23
183.0615	32
187.0543	30
188.0511	22
189.0713	22
190.0645	40
193.0446	13
194.0533	62
195.0527	32
196.0694	14
199.0536	56
200.0603	92
201.0622	46
202.0735	30
203.0744	14
205.0441	13
206.053	23
207.0599	121
208.0566	175
212.0549	13
213.0685	69
214.0676	95
215.0844	32
218.0532	83
219.0605	210
220.0675	185
221.0647	161
225.0584	57
226.0656	147
227.0739	195
231.0612	24
232.057	127
233.0759	112
234.072	51
235.0791	11
238.0672	30
239.0732	11
240.0813	142
244.0675	59
245.0641	478
246.0721	184
247.0774	35
258.0734	64
259.0807	40
260.0867	17
