Mass spectrum: Dimethenamid; LC-ESI-QTOF; MS2; 130 V
Name: Dimethenamid
Class: Herbicide
Formula: C12H18ClNO2S
Exact mass: 275.0747
SMILES: CC1=CSC(=C1N(C(C)COC)C(=O)CCl)C
InChI: InChI=1S/C12H18ClNO2S/c1-8-7-17-10(3)12(8)14(11(15)5-13)9(2)6-16-4/h7,9H,5-6H2,1-4H3
Instrument: TripleTOF 6600 SCIEX
Instrument type: LC-ESI-QTOF
Ms type: MS2
Ion mode: POSITIVE
Collision energy: 130
Fragmentation mode: CID
Ionization: ESI
Column name: Zorbax Eclipse Plus C18 2.1 mm x 150 mm, 3.5 um, Agilent
Retention time: 11.971 min
Precursor m/z: 276.082
Precursor type: [M+H]+
m/z	relative intensity
36	122
37.0077	366
38.0157	285
39.0237	999
41.0393	285
42.0351	101
43.0181	81
43.971	122
44.9797	856
45.0335	122
46.9689	285
46.9954	81
48.9844	733
49.0079	122
50.0155	468
51.0235	693
52.0313	203
53.0391	387
54.0342	122
57.9875	224
58.9952	509
59.9901	122
63.0233	265
64.0319	81
65.0389	489
66.0476	122
67.0414	122
67.0544	122
68.9798	509
69.987	101
70.9954	305
77.0388	448
78.0351	224
78.0471	163
79.042	101
80.0496	366
89.0393	142
90.0458	101
91.0566	101
92.0494	183
93.0585	142
94.0658	407
94.9964	101
96.0037	101
97.0112	244
104.0499	224
109.011	81
111.0263	81
117.0564	101
136.021	81
