Mass spectrum: Napropamide; LC-ESI-QTOF; MS2; 90 V
Name: Napropamide
Class: Herbicide
Formula: C17H21NO2
Exact mass: 271.1572
SMILES: CCN(CC)C(=O)C(C)Oc1cccc2c1cccc2
InChI: InChI=1S/C17H21NO2/c1-4-18(5-2)17(19)13(3)20-16-12-8-10-14-9-6-7-11-15(14)16/h6-13H,4-5H2,1-3H3
Instrument: TripleTOF 6600 SCIEX
Instrument type: LC-ESI-QTOF
Ms type: MS2
Ion mode: POSITIVE
Collision energy: 90
Fragmentation mode: CID
Ionization: ESI
Column name: Zorbax Eclipse Plus C18 2.1 mm x 150 mm, 3.5 um, Agilent
Retention time: 12.596 min
Precursor m/z: 272.1645
Precursor type: [M+H]+
m/z	relative intensity
30.0339	51
38.0029	51
39.0227	40
42.0338	57
44.0131	206
44.0495	861
50.0148	51
51.0226	155
54.0336	34
55.0176	137
56.0495	22
57.0333	246
58.0288	28
58.0649	493
62.0154	28
63.0224	45
65.0378	109
72.0444	34
72.0797	97
74.0149	63
75.0228	114
76.0301	57
77.0385	499
78.0465	166
87.0231	28
89.0388	172
91.0537	97
99.0237	34
101.038	80
102.046	384
105.0438	22
115.0532	884
116.0611	40
125.0374	57
126.0461	287
127.0532	413
128.0612	999
129.0443	63
139.0531	34
141.0695	80
150.0453	149
151.0536	321
152.061	637
155.0598	86
179.0612	40
