Mass spectrum: Warfarin; LC-ESI-QTOF; MS2; 40 V
Name: Warfarin
Class: Pesticide; Biocide; Rodenticide
Formula: C19H16O4
Exact mass: 308.1049
SMILES: CC(=O)CC(C1=CC=CC=C1)C2=C(C3=CC=CC=C3OC2=O)O
InChI: InChI=1S/C19H16O4/c1-12(20)11-15(13-7-3-2-4-8-13)17-18(21)14-9-5-6-10-16(14)23-19(17)22/h2-10,15,21H,11H2,1H3
Instrument: TripleTOF 6600 SCIEX
Instrument type: LC-ESI-QTOF
Ms type: MS2
Ion mode: NEGATIVE
Collision energy: 40
Fragmentation mode: CID
Ionization: ESI
Column name: Zorbax Eclipse Plus C18 2.1 mm x 150 mm, 3.5 um, Agilent
Retention time: 11.631 min
Precursor m/z: 307.0976
Precursor type: [M-H]-
m/z	relative intensity
41.0025	21
57.0337	157
92.0248	10
93.0325	18
117.034	464
120.0195	10
130.0415	52
157.065	14
161.0243	587
195.0812	21
205.0661	16
206.0725	80
219.0807	13
221.061	16
221.0967	11
222.0694	25
223.0759	40
249.0549	12
250.0638	999
261.0917	17
307.0961	18
