Mass spectrum: 3-Amino-5-methylisoxazole; LC-ESI-QTOF; MS2; 20 V
Name: 3-Amino-5-methylisoxazole
Formula: C4H6N2O
Exact mass: 98.048
SMILES: CC1=CC(=NO1)N
InChI: InChI=1S/C4H6N2O/c1-3-2-4(5)6-7-3/h2H,1H3,(H2,5,6)
Instrument: TripleTOF 6600 SCIEX
Instrument type: LC-ESI-QTOF
Ms type: MS2
Ion mode: POSITIVE
Collision energy: 20
Fragmentation mode: CID
Ionization: ESI
Column name: Zorbax Eclipse Plus C18 2.1 mm x 150 mm, 3.5 um, Agilent
Retention time: 4.412 min
Precursor m/z: 99.0553
Precursor type: [M+H]+
m/z	relative intensity
30.033	56
42.0328	23
43.0179	114
43.0275	81
44.0128	28
44.0488	999
45.0326	14
54.0327	30
55.0168	70
56.048	45
57.0432	21
71.0591	78
72.0433	259
99.0542	925
