Mass spectrum: Irbesartan; LC-ESI-QTOF; MS2; 140 V
Name: Irbesartan
Class: Pharmaceutical
Formula: C25H28N6O
Exact mass: 428.2325
SMILES: CCCCC1=NC2(CCCC2)C(=O)N1Cc3ccc(cc3)c4ccccc4c5n[nH]nn5
InChI: InChI=1S/C25H28N6O/c1-2-3-10-22-26-25(15-6-7-16-25)24(32)31(22)17-18-11-13-19(14-12-18)20-8-4-5-9-21(20)23-27-29-30-28-23/h4-5,8-9,11-14H,2-3,6-7,10,15-17H2,1H3,(H,27,28,29,30)
Instrument: TripleTOF 5600 SCIEX
Instrument type: LC-ESI-QTOF
Ms type: MS2
Ion mode: POSITIVE
Collision energy: 140
Fragmentation mode: CID
Ionization: ESI
Column name: Zorbax Eclipse Plus C18 2.1 mm x 150 mm, 3.5 um, Agilent
Retention time: 9.345 min
Precursor m/z: 429.2397
Precursor type: [M+H]+
m/z	relative intensity
65.0417	26
67.0581	26
74.0179	45
75.0256	77
76.0328	22
77.0413	204
78.0486	18
80.0517	17
84.0823	16
86.0168	25
87.0246	57
88.0194	9
88.0317	19
89.0402	115
98.0154	29
99.0231	46
100.0311	12
101.0393	69
102.0352	20
102.0466	55
111.0224	15
113.0387	158
114.0367	52
115.0543	189
124.0301	10
125.0382	97
126.0462	194
127.0542	165
128.0541	71
129.046	11
137.0385	113
138.0445	62
139.054	273
140.0494	200
149.0376	65
150.0463	611
151.0544	999
152.0615	683
153.057	80
154.0664	10
161.0377	50
162.0457	111
163.0539	530
164.0551	468
165.0695	271
166.0649	31
175.0409	22
176.0531	110
177.0573	344
178.0647	264
179.07	41
180.0814	15
188.0494	152
189.0565	64
190.0649	191
191.0598	30
203.0595	19
204.0637	25
205.0755	118
