Mass spectrum: Fluorescent brightener 363; LC-ESI-QTOF; MS2; 10 V
Name: Fluorescent brightener 363
Class: Pigment
Formula: C19H19N2O4S
Exact mass: 371.106
SMILES: COC1=CC(OC(C2=[N+](C)C(C=C(S(=O)(C)=O)C=C3)=C3N2C)=C4)=C4C=C1
InChI: InChI=1S/C19H19N2O4S/c1-20-15-8-7-14(26(4,22)23)11-16(15)21(2)19(20)18-9-12-5-6-13(24-3)10-17(12)25-18/h5-11H,1-4H3/q+1
Instrument: TripleTOF 6600 SCIEX
Instrument type: LC-ESI-QTOF
Ms type: CID
Ion mode: POSITIVE
Collision energy: 10
Ionization: ESI
Column name: Zorbax Eclipse Plus C18 2.1 mm x 150 mm, 3.5 um, Agilent
Retention time: 8.155 min
Precursor m/z: 371.106
Precursor type: [M]+
m/z	relative intensity
371.1066	999
