Mass spectrum: Emtricitabine carboxylic acid; LC-ESI-QTOF; MS2; 50 V
Name: Emtricitabine carboxylic acid
Class: Pharmaceutical; Metabolite; Transformation_product
Formula: C8H8FN3O4S
Exact mass: 261.022
InChI: InChI=1S/C8H8FN3O4S/c9-3-1-12(8(15)11-5(3)10)4-2-17-7(16-4)6(13)14/h1,4,7H,2H2,(H,13,14)(H2,10,11,15)
Instrument: TripleTOF 5600 SCIEX
Instrument type: LC-ESI-QTOF
Ms type: CID
Ion mode: POSITIVE
Collision energy: 50
Ionization: ESI
Column name: Zorbax Eclipse Plus C18 2.1 mm x 150 mm, 3.5 um, Agilent
Retention time: 4.486 min
Precursor m/z: 262.0292
Precursor type: [M+H]+
m/z	relative intensity
58.9994	71
77.007	61
86.9909	50
87.0398	101
91.056	61
112.0295	122
113.0148	275
130.0409	999
