Mass spectrum: Bisoprolol; LC-ESI-QTOF; MS2; 130 V
Name: Bisoprolol
Class: Pharmaceutical
Formula: C18H31NO4
Exact mass: 325.2253
SMILES: CC(C)NCC(COC1=CC=C(C=C1)COCCOC(C)C)O
InChI: InChI=1S/C18H31NO4/c1-14(2)19-11-17(20)13-23-18-7-5-16(6-8-18)12-21-9-10-22-15(3)4/h5-8,14-15,17,19-20H,9-13H2,1-4H3
Instrument: TripleTOF 6600 SCIEX
Instrument type: LC-ESI-QTOF
Ms type: MS2
Ion mode: POSITIVE
Collision energy: 130
Fragmentation mode: CID
Ionization: ESI
Column name: Zorbax Eclipse Plus C18 2.1 mm x 150 mm, 3.5 um, Agilent
Retention time: 7.01 min
Precursor m/z: 326.2326
Precursor type: [M+H]+
m/z	relative intensity
30.0336	139
35.999	28
37.0068	120
38.0018	47
38.0144	89
39.0223	541
41.0379	286
42.0089	10
42.0329	39
43.0174	34
43.0409	10
43.0532	36
44.0484	28
45.033	126
49.0076	13
50.0148	110
51.0223	362
52.0304	13
53.0129	15
53.0377	31
55.0173	23
56.0489	44
58.064	23
59.9979	49
61.0062	212
62.0142	483
63.022	999
65.0371	134
74.0129	13
75.0215	13
77.0375	536
78.0441	31
79.0536	18
89.037	202
91.0526	44
105.0407	15
107.0482	34
115.0522	36
