Mass spectrum: 4-Acetamidoantipyrine; LC-ESI-QTOF; MS2; 40 V
Name: 4-Acetamidoantipyrine
Class: Pharmaceutical; Metabolite; Transformation_product
Formula: C13H15N3O2
Exact mass: 245.1164
SMILES: CN1N(C(=O)C(=C1C)NC(C)=O)c2ccccc2
InChI: InChI=1S/C13H15N3O2/c1-9-12(14-10(2)17)13(18)16(15(9)3)11-7-5-4-6-8-11/h4-8H,1-3H3,(H,14,17)
Instrument: TripleTOF 5600 SCIEX
Instrument type: LC-ESI-QTOF
Ms type: MS2
Ion mode: POSITIVE
Collision energy: 40
Fragmentation mode: CID
Ionization: ESI
Column name: Zorbax Eclipse Plus C18 2.1 mm x 150 mm, 3.5 um, Agilent
Retention time: 5.586 min
Precursor m/z: 246.1237
Precursor type: [M+H]+
m/z	relative intensity
42.0427	10
43.0264	19
56.0564	294
77.0424	201
81.0466	11
83.0641	999
85.0782	19
92.0513	10
94.0669	82
104.0511	536
118.0653	19
119.0609	21
128.0489	23
130.0659	19
131.0614	35
132.0443	12
132.0813	14
143.0606	11
144.0802	26
145.0778	45
146.0601	26
159.055	12
159.0921	135
171.0555	27
172.0632	37
173.0707	16
185.0704	24
186.0785	18
187.0859	19
189.0893	13
204.1124	12
213.0901	13
228.1148	27
