Mass spectrum: 1-Butyl-2,3-dimethylimidazolium; LC-ESI-QTOF; MS2; 70 V
Name: 1-Butyl-2,3-dimethylimidazolium
Formula: [C9H17N2]+
Exact mass: 153.1386
SMILES: CCCCN1C=C[N+](=C1C)C
InChI: InChI=1S/C9H17N2/c1-4-5-6-11-8-7-10(3)9(11)2/h7-8H,4-6H2,1-3H3/q+1
Instrument: TripleTOF 5600 SCIEX
Instrument type: LC-ESI-QTOF
Ms type: MS2
Ion mode: POSITIVE
Collision energy: 70
Fragmentation mode: CID
Ionization: ESI
Column name: Zorbax Eclipse Plus C18 2.1 mm x 150 mm, 3.5 um, Agilent
Retention time: 4.733 min
Precursor m/z: 153.1386
Precursor type: [M]+
m/z	relative intensity
37.0072	238
38.0158	217
39.0232	999
41.026	130
41.0386	521
42.0338	260
54.0333	304
56.0493	434
68.0484	238
81.0439	412
95.0578	173
97.0741	130
