Mass spectrum: Fenpropidin; LC-ESI-QTOF; MS2; 130 V
Name: Fenpropidin
Class: Fungicide
Formula: C19H31N
Exact mass: 273.2456
SMILES: CC(CC1=CC=C(C=C1)C(C)(C)C)CN2CCCCC2
InChI: InChI=1S/C19H31N/c1-16(15-20-12-6-5-7-13-20)14-17-8-10-18(11-9-17)19(2,3)4/h8-11,16H,5-7,12-15H2,1-4H3
Instrument: TripleTOF 6600 SCIEX
Instrument type: LC-ESI-QTOF
Ms type: MS2
Ion mode: POSITIVE
Collision energy: 130
Fragmentation mode: CID
Ionization: ESI
Column name: Zorbax Eclipse Plus C18 2.1 mm x 150 mm, 3.5 um, Agilent
Retention time: 9.471 min
Precursor m/z: 274.2529
Precursor type: [M+H]+
m/z	relative intensity
30.0345	16
35.9998	26
37.0076	166
38.0033	12
38.0151	117
39.0232	587
41.0387	86
42.0341	16
49.0086	15
50.0153	126
51.0232	281
52.0304	28
53.0383	11
56.0499	34
59.9995	19
61.0069	48
62.0147	97
63.0227	222
65.0387	702
74.0145	57
75.0226	50
76.0301	38
77.0385	364
78.0459	112
79.0531	19
84.0808	12
86.0158	11
87.0213	17
89.0384	280
91.0543	925
102.0455	79
103.054	58
105.0692	10
114.0452	12
115.0541	999
116.0614	49
117.0705	44
127.0539	17
128.0614	44
