Mass spectrum: 2-Hydroxyestrone; LC-ESI-QTOF; MS2; 70 V
Name: 2-Hydroxyestrone
Class: Pharmaceutical; Metabolite
Formula: C18H22O3
Exact mass: 286.1569
SMILES: C[C@]12CC[C@H]3[C@@H](CCc4cc(O)c(O)cc34)[C@@H]1CCC2=O
InChI: InChI=1S/C18H22O3/c1-18-7-6-11-12(14(18)4-5-17(18)21)3-2-10-8-15(19)16(20)9-13(10)11/h8-9,11-12,14,19-20H,2-7H2,1H3/t11-,12+,14-,18-/m0/s1
Instrument: TripleTOF 5600 SCIEX
Instrument type: LC-ESI-QTOF
Ms type: MS2
Ion mode: NEGATIVE
Collision energy: 70
Fragmentation mode: CID
Ionization: ESI
Column name: Zorbax Eclipse Plus C18 2.1 mm x 150 mm, 3.5 um, Agilent
Retention time: 9.978 min
Precursor m/z: 285.1496
Precursor type: [M-H]-
m/z	relative intensity
131.053	85
146.0389	99
159.0465	570
160.0554	71
161.0611	999
172.0546	57
173.0589	57
175.0817	71
187.0741	57
199.0739	71
211.0737	85
213.0925	57
