Mass spectrum: Dicloxacillin; LC-ESI-QTOF; MS2; 40 V
Name: Dicloxacillin
Formula: C19H17Cl2N3O5S
Exact mass: 469.0266
SMILES: CC1=C(C(=NO1)C2=C(C=CC=C2Cl)Cl)C(=O)NC3C4N(C3=O)C(C(S4)(C)C)C(=O)O
InChI: InChI=1S/C19H17Cl2N3O5S/c1-7-10(12(23-29-7)11-8(20)5-4-6-9(11)21)15(25)22-13-16(26)24-14(18(27)28)19(2,3)30-17(13)24/h4-6,13-14,17H,1-3H3,(H,22,25)(H,27,28)
Instrument: TripleTOF 6600 SCIEX
Instrument type: LC-ESI-QTOF
Ms type: MS2
Ion mode: NEGATIVE
Collision energy: 40
Fragmentation mode: CID
Ionization: ESI
Column name: Zorbax Eclipse Plus C18 2.1 mm x 150 mm, 3.5 um, Agilent
Retention time: 11.23 min
Precursor m/z: 468.0193
Precursor type: [M-H]-
m/z	relative intensity
34.9689	458
41.9977	589
57.9736	65
74.9889	212
82.0269	81
83.012	573
159.9712	212
168.0454	98
182.0139	147
190.0039	114
190.9994	131
212.0144	425
222.0431	81
225.9792	81
232.0035	131
232.9688	114
233.008	999
239.9968	81
242.9948	114
247.9781	114
247.9904	327
248.986	589
255.0206	229
257.0103	180
258.017	769
263.0025	212
275.9742	311
290.9965	753
326.9756	131
388.0497	131
