Mass spectrum: Betaxolol; LC-ESI-QTOF; MS2; 110 V
Name: Betaxolol
Class: Pharmaceutical
Formula: C18H29NO3
Exact mass: 307.2147
SMILES: CC(C)NCC(COC1=CC=C(C=C1)CCOCC2CC2)O
InChI: InChI=1S/C18H29NO3/c1-14(2)19-11-17(20)13-22-18-7-5-15(6-8-18)9-10-21-12-16-3-4-16/h5-8,14,16-17,19-20H,3-4,9-13H2,1-2H3
Instrument: TripleTOF 5600 SCIEX
Instrument type: LC-ESI-QTOF
Ms type: CID
Ion mode: POSITIVE
Collision energy: 110
Ionization: ESI
Column name: Zorbax Eclipse Plus C18 2.1 mm x 150 mm, 3.5 um, Agilent
Retention time: 7.064 min
Precursor m/z: 308.222
Precursor type: [M+H]+
m/z	relative intensity
42.046	22
44.0571	18
56.0589	191
57.0438	18
58.0735	99
65.0451	217
72.0858	51
74.0653	47
75.0286	14
76.0375	18
77.0442	999
78.0519	81
79.0602	73
89.0432	99
91.058	383
102.0483	77
103.0573	129
105.0728	22
107.0542	29
115.0568	497
116.0652	18
117.0743	22
126.0509	29
127.0571	92
128.0619	173
129.07	18
131.0506	29
141.0733	29
152.0619	18
