Mass spectrum: Salicylamide; LC-ESI-QTOF; MS2; 40 V
Name: Salicylamide
Formula: C7H7NO2
Exact mass: 137.0477
SMILES: C1=CC=C(C(=C1)C(=O)N)O
InChI: InChI=1S/C7H7NO2/c8-7(10)5-3-1-2-4-6(5)9/h1-4,9H,(H2,8,10)
Instrument: TripleTOF X500R SCIEX
Instrument type: LC-ESI-QTOF
Ms type: MS2
Ion mode: NEGATIVE
Collision energy: 40
Fragmentation mode: CID
Ionization: ESI
Column name: Zorbax Eclipse Plus C18 2.1 mm x 150 mm, 3.5 um, Agilent
Retention time: 6.236 min
Precursor m/z: 136.0404
Precursor type: [M-H]-
m/z	relative intensity
39.0235	17
41.003	67
41.9985	999
50.0027	17
65.0027	74
65.039	160
75.0218	17
90.0341	39
91.0182	253
93.0339	809
116.0143	32
118.0286	299
136.0391	21
