Mass spectrum: Lorazepam; LC-ESI-QTOF; MS2; 60 V
Name: Lorazepam
Class: Pharmaceutical
Formula: C15H10Cl2N2O2
Exact mass: 320.0119
SMILES: OC1N=C(c2ccccc2Cl)c3cc(Cl)ccc3NC1=O
InChI: InChI=1S/C15H10Cl2N2O2/c16-8-5-6-12-10(7-8)13(19-15(21)14(20)18-12)9-3-1-2-4-11(9)17/h1-7,15,21H,(H,18,20)
Instrument: TripleTOF 5600 SCIEX
Instrument type: LC-ESI-QTOF
Ms type: MS2
Ion mode: POSITIVE
Collision energy: 60
Fragmentation mode: CID
Ionization: ESI
Column name: Zorbax Eclipse Plus C18 2.1 mm x 150 mm, 3.5 um, Agilent
Retention time: 9.538 min
Precursor m/z: 321.0192
Precursor type: [M+H]+
m/z	relative intensity
93.0568	169
102.0332	169
110.9974	94
130.0402	94
135.9932	113
138.0096	414
163.0055	395
163.9984	113
166.0053	75
167.0724	75
168.0676	75
177.0551	207
193.074	282
194.082	999
205.0736	150
229.0507	565
239.0346	263
263.0142	169
275.0112	263
