Mass spectrum: Dronabinol; LC-ESI-QTOF; MS2; 90 V
Name: Dronabinol
Class: Pharmaceutical
Formula: C21H30O2
Exact mass: 314.2246
SMILES: CCCCCC1=CC(=C2C3C=C(CCC3C(OC2=C1)(C)C)C)O
InChI: InChI=1S/C21H30O2/c1-5-6-7-8-15-12-18(22)20-16-11-14(2)9-10-17(16)21(3,4)23-19(20)13-15/h11-13,16-17,22H,5-10H2,1-4H3
Instrument: TripleTOF 6600 SCIEX
Instrument type: LC-ESI-QTOF
Ms type: MS2
Ion mode: POSITIVE
Collision energy: 90
Fragmentation mode: CID
Ionization: ESI
Column name: Zorbax Eclipse Plus C18 2.1 mm x 150 mm, 3.5 um, Agilent
Retention time: 17.589 min
Precursor m/z: 315.2319
Precursor type: [M+H]+
m/z	relative intensity
37.0066	56
38.0148	61
39.0223	567
41.038	622
43.0173	43
43.0535	59
50.0137	26
51.0224	162
53.0371	74
55.0169	83
55.0532	41
65.0376	286
66.0461	19
67.0535	177
68.9955	15
69.0323	10
69.0697	17
77.0377	999
78.0457	61
79.0534	389
80.0612	19
81.0321	17
81.0687	78
83.0103	10
89.0367	28
90.0456	13
91.0526	549
93.0694	28
94.0392	32
95.0477	35
102.0453	13
103.0542	102
104.0597	17
105.0435	24
105.0675	113
107.048	144
108.0534	35
115.0537	251
116.0612	32
117.0676	50
119.0477	15
123.0428	39
126.0461	13
127.0536	50
128.0601	133
129.0697	41
131.0477	65
141.0682	54
144.0553	19
145.0634	32
147.0418	28
151.0568	13
152.0596	39
153.0699	35
155.0581	13
157.0639	13
160.0492	41
161.0564	21
165.0689	24
168.0522	13
169.062	13
173.0589	24
174.0642	13
181.0629	13
186.0695	10
187.0709	15
