Mass spectrum: Sitagliptin-N-sulfate; LC-ESI-QTOF; MS2; 90 V
Name: Sitagliptin-N-sulfate
Class: Metabolite; Pharmaceutical
Formula: C16H15F6N5O4S
Exact mass: 487.0749
SMILES: C1CN2C(=NN=C2C(F)(F)F)CN1C(=O)CC(CC3=CC(=C(C=C3F)F)F)NS(=O)(=O)O
InChI: InChI=1S/C16H15F6N5O4S/c17-10-6-12(19)11(18)4-8(10)3-9(25-32(29,30)31)5-14(28)26-1-2-27-13(7-26)23-24-15(27)16(20,21)22/h4,6,9,25H,1-3,5,7H2,(H,29,30,31)
Instrument: TripleTOF 5600 SCIEX
Instrument type: LC-ESI-QTOF
Ms type: MS2
Ion mode: POSITIVE
Collision energy: 90
Fragmentation mode: CID
Ionization: ESI
Column name: Zorbax Eclipse Plus C18 2.1 mm x 150 mm, 3.5 um, Agilent
Retention time: 8.049 min
Precursor m/z: 488.0822
Precursor type: [M+H]+
m/z	relative intensity
56.0539	86
127.0346	999
134.038	86
145.0239	130
150.0263	108
154.0467	282
174.0545	152
