Mass spectrum: Clonidine; LC-ESI-QTOF; MS2; 140 V
Name: Clonidine
Class: Pharmaceutical
Formula: C9H9Cl2N3
Exact mass: 229.0174
SMILES: C1CN=C(N1)NC2=C(C=CC=C2Cl)Cl
InChI: InChI=1S/C9H9Cl2N3/c10-6-2-1-3-7(11)8(6)14-9-12-4-5-13-9/h1-3H,4-5H2,(H2,12,13,14)
Instrument: TripleTOF 6600 SCIEX
Instrument type: LC-ESI-QTOF
Ms type: MS2
Ion mode: POSITIVE
Collision energy: 140
Fragmentation mode: CID
Ionization: ESI
Column name: Zorbax Eclipse Plus C18 2.1 mm x 150 mm, 3.5 um, Agilent
Retention time: 5.408 min
Precursor m/z: 230.0246
Precursor type: [M+H]+
m/z	relative intensity
37.0068	220
38.015	77
39.0234	64
41.0263	64
42.0214	142
42.0334	77
43.0282	90
46.9678	259
48.9829	181
49.0068	142
50.0149	363
51.0226	168
59.9995	90
61.0063	467
62.014	454
63.0095	51
63.022	207
64.0177	103
72.9828	207
73.0063	480
74.0141	999
75.0097	90
75.0224	90
76.0189	90
83.9759	90
