Mass spectrum: N-desmethylterbinafine; LC-ESI-QTOF; MS2; 120 V
Name: N-desmethylterbinafine
Class: Pharmaceutical; Metabolite
Formula: C20H23N
Exact mass: 277.183
SMILES: CC(C)(C)C#C/C=C/CNCc1cccc2ccccc12
InChI: InChI=1S/C20H23N/c1-20(2,3)14-7-4-8-15-21-16-18-12-9-11-17-10-5-6-13-19(17)18/h4-6,8-13,21H,15-16H2,1-3H3/b8-4+
Instrument: TripleTOF 5600 SCIEX
Instrument type: LC-ESI-QTOF
Ms type: MS2
Ion mode: POSITIVE
Collision energy: 120
Fragmentation mode: CID
Ionization: ESI
Column name: Zorbax Eclipse Plus C18 2.1 mm x 150 mm, 3.5 um, Agilent
Retention time: 9.089 min
Precursor m/z: 278.1903
Precursor type: [M+H]+
m/z	relative intensity
65.0437	305
74.0184	37
75.0255	37
76.0332	25
77.042	148
78.0487	14
79.0563	15
86.0163	20
87.0233	29
88.0315	15
89.0411	544
91.0558	167
102.0467	35
113.0379	30
114.0466	25
115.0552	999
139.0546	113
141.0705	18
