Mass spectrum: Linezolid; LC-ESI-QTOF; MS2; 90 V
Name: Linezolid
Class: Pharmaceutical
Formula: C16H20FN3O4
Exact mass: 337.1438
SMILES: CC(=O)NCC1CN(C(=O)O1)C2=CC(=C(C=C2)N3CCOCC3)F
InChI: InChI=1S/C16H20FN3O4/c1-11(21)18-9-13-10-20(16(22)24-13)12-2-3-15(14(17)8-12)19-4-6-23-7-5-19/h2-3,8,13H,4-7,9-10H2,1H3,(H,18,21)
Instrument: TripleTOF 5600 SCIEX
Instrument type: LC-ESI-QTOF
Ms type: MS2
Ion mode: POSITIVE
Collision energy: 90
Fragmentation mode: CID
Ionization: ESI
Column name: Zorbax Eclipse Plus C18 2.1 mm x 150 mm, 3.5 um, Agilent
Retention time: 6.936 min
Precursor m/z: 338.1511
Precursor type: [M+H]+
m/z	relative intensity
43.0177	37
56.0501	185
57.0143	18
62.0168	18
63.0235	46
65.0387	23
74.0155	55
75.0235	148
77.0388	181
78.0338	32
81.0132	37
82.0203	37
83.0294	139
84.0371	37
89.0386	227
90.0335	41
90.0457	51
91.0546	51
92.0486	18
95.0295	157
96.0361	60
97.0448	41
98.0384	65
99.0236	27
101.0389	185
102.0339	46
102.0444	18
103.0556	74
104.0492	83
107.0295	329
108.0372	376
109.0308	46
109.0453	404
110.041	120
111.0472	148
114.0373	51
115.0532	236
116.0503	213
117.057	162
118.0647	78
120.0365	74
121.0326	23
121.045	55
122.0399	325
123.0463	171
124.0558	106
125.0515	78
126.0373	41
127.0394	23
128.0498	171
129.0449	51
129.0608	23
130.0659	106
131.0604	41
132.0687	23
133.0466	65
134.0416	116
135.0482	659
136.0563	381
137.0508	130
137.0648	78
138.0707	23
139.0681	23
140.0498	41
141.0575	46
142.06	88
143.0671	46
145.0444	27
145.079	23
146.0413	116
147.0463	106
148.0564	999
149.0464	23
149.0579	65
150.0561	23
150.0677	55
151.0673	92
152.0772	41
155.0627	51
156.0674	27
160.0531	55
161.0654	92
162.0696	60
163.0674	65
165.0816	18
168.0642	23
169.0778	88
172.0575	32
173.052	37
174.0635	46
175.0648	27
177.0806	23
186.0661	27
187.0672	51
