Mass spectrum: Mefenpyr-diethyl; LC-ESI-QTOF; MS2; 70 V
Name: Mefenpyr-diethyl
Class: Herbicide
Formula: C16H18Cl2N2O4
Exact mass: 372.0644
SMILES: CCOC(=O)C1=NN(C(C1)(C)C(=O)OCC)C2=C(C=C(C=C2)Cl)Cl
InChI: InChI=1S/C16H18Cl2N2O4/c1-4-23-14(21)12-9-16(3,15(22)24-5-2)20(19-12)13-7-6-10(17)8-11(13)18/h6-8H,4-5,9H2,1-3H3
Instrument: TripleTOF 5600 SCIEX
Instrument type: LC-ESI-QTOF
Ms type: MS2
Ion mode: POSITIVE
Collision energy: 70
Fragmentation mode: CID
Ionization: ESI
Column name: Zorbax Eclipse Plus C18 2.1 mm x 150 mm, 3.5 um, Agilent
Retention time: 14.581 min
Precursor m/z: 373.0716
Precursor type: [M+H]+
m/z	relative intensity
72.9906	21
74.0208	40
82.9491	29
99.0025	39
106.9467	10
108.9862	298
123.9977	34
125.0043	75
128.0506	13
132.9618	999
136.0076	10
144.9618	574
151.0201	28
155.061	43
156.9602	14
158.9779	15
159.9723	254
160.9812	47
163.0191	49
164.0265	49
165.0359	17
172.9677	169
173.9885	12
183.9728	22
184.9738	9
185.9872	433
189.0217	176
190.0289	81
197.9873	11
209.9733	11
252.9942	36
