Mass spectrum: Theophylline; LC-ESI-QTOF; MS2; 140 V
Name: Theophylline
Class: Pharmaceutical; Natural_product
Formula: C7H8N4O2
Exact mass: 180.0647
SMILES: CN1C2=C(C(=O)N(C1=O)C)NC=N2
InChI: InChI=1S/C7H8N4O2/c1-10-5-4(8-3-9-5)6(12)11(2)7(10)13/h3H,1-2H3,(H,8,9)
Instrument: TripleTOF 5600 SCIEX
Instrument type: LC-ESI-QTOF
Ms type: MS2
Ion mode: NEGATIVE
Collision energy: 140
Fragmentation mode: CID
Ionization: ESI
Column name: Zorbax Eclipse Plus C18 2.1 mm x 150 mm, 3.5 um, Agilent
Retention time: 4.936 min
Precursor m/z: 179.0574
Precursor type: [M-H]-
m/z	relative intensity
38.0033	424
40.006	199
41.9982	724
44.9984	324
50.0045	49
55.0304	174
64.0061	199
65.0143	374
65.9982	999
79.0155	74
92.0242	49
