Mass spectrum: 2-[(4-hydroxy-9,10-dioxoanthracen-1-yl)amino]-5-methylbenzenesulfonic acid; LC-ESI-QTOF; MS2; 70 V
Name: 2-[(4-hydroxy-9,10-dioxoanthracen-1-yl)amino]-5-methylbenzenesulfonic acid
Formula: C21H15NO6S
Exact mass: 409.062
SMILES: CC1=CC(=C(C=C1)NC2=C3C(=C(C=C2)O)C(=O)C4=CC=CC=C4C3=O)S(=O)(=O)O
InChI: InChI=1S/C21H15NO6S/c1-11-6-7-14(17(10-11)29(26,27)28)22-15-8-9-16(23)19-18(15)20(24)12-4-2-3-5-13(12)21(19)25/h2-10,22-23H,1H3,(H,26,27,28)
Instrument: TripleTOF X500R SCIEX
Instrument type: LC-ESI-QTOF
Ms type: MS2
Ion mode: NEGATIVE
Collision energy: 70
Fragmentation mode: CID
Ionization: ESI
Column name: Zorbax Eclipse Plus C18 2.1 mm x 150 mm, 3.5 um, Agilent
Retention time: 11.683 min
Precursor m/z: 408.0547
Precursor type: [M-H]-
m/z	relative intensity
79.9574	999
80.965	90
101.0409	38
120.0484	51
121.0539	77
129.0391	32
132.0463	129
167.0497	97
183.046	38
184.0093	467
185.0167	220
195.0436	64
209.0497	142
210.0334	168
211.0396	343
223.0422	32
279.0735	25
281.0878	45
282.0968	181
283.062	64
284.0661	32
296.0755	45
297.0774	97
298.0899	51
300.1043	64
308.0731	103
309.0783	175
310.0863	317
311.0657	45
326.079	97
328.1132	25
342.0795	45
