Mass spectrum: Hydroxytorasemide; LC-ESI-QTOF; MS2; 70 V
Name: Hydroxytorasemide
Class: Pharmaceutical; Transformation_product
Formula: C16H20N4O4S
Exact mass: 364.1205
SMILES: CC(C)NC(=O)NS(=O)(=O)c1cnccc1Nc2cccc(c2)CO
InChI: InChI=1S/C16H20N4O4S/c1-11(2)18-16(22)20-25(23,24)15-9-17-7-6-14(15)19-13-5-3-4-12(8-13)10-21/h3-9,11,21H,10H2,1-2H3,(H,17,19)(H2,18,20,22)
Instrument: TripleTOF 5600 SCIEX
Instrument type: LC-ESI-QTOF
Ms type: MS2
Ion mode: POSITIVE
Collision energy: 70
Fragmentation mode: CID
Ionization: ESI
Column name: Zorbax Eclipse Plus C18 2.1 mm x 150 mm, 3.5 um, Agilent
Retention time: 5.824 min
Precursor m/z: 365.1278
Precursor type: [M+H]+
m/z	relative intensity
67.0453	16
77.0407	22
81.0467	16
89.0396	24
98.0065	19
101.0395	12
114.0467	20
115.0537	490
116.0485	33
117.0569	28
124.0084	13
125.0161	38
127.0534	81
128.0489	124
129.0518	22
130.0647	13
137.0155	30
140.0493	76
141.0567	54
142.0641	150
150.0234	11
152.0039	18
152.0487	13
153.0554	33
154.0644	123
155.0598	59
156.0682	36
157.0737	21
167.0597	56
168.0675	588
169.075	999
179.0602	37
180.0674	55
181.0756	554
182.0831	158
184.0628	41
185.0706	46
187.0314	58
188.0381	11
189.0476	31
197.0702	99
198.078	12
199.086	216
200.0404	16
201.0477	11
214.0731	15
215.0813	26
216.0352	22
233.0373	31
