Mass spectrum: Uric acid; LC-ESI-QTOF; MS2; 40 V
Name: Uric acid
Class: Natural_product
Formula: C5H4N4O3
Exact mass: 168.0283
SMILES: O=C1C2=C(NC(N2)=O)NC(N1)=O
InChI: InChI=1S/C5H4N4O3/c10-3-1-2(7-4(11)6-1)8-5(12)9-3/h(H4,6,7,8,9,10,11,12)
Instrument: TripleTOF 5600 SCIEX
Instrument type: LC-ESI-QTOF
Ms type: MS2
Ion mode: NEGATIVE
Collision energy: 40
Fragmentation mode: CID
Ionization: ESI
Column name: Zorbax Eclipse Plus C18 2.1 mm x 150 mm, 3.5 um, Agilent
Retention time: 2.079 min
Precursor m/z: 167.021
Precursor type: [M-H]-
m/z	relative intensity
41.9984	999
69.0084	759
96.0195	359
97.0027	199
124.0159	279
