Mass spectrum: Clarithromycin; LC-ESI-QTOF; MS2; 110 V
Name: Clarithromycin
Class: Pharmaceutical
Formula: C38H69NO13
Exact mass: 747.4769
SMILES: CC[C@H]1OC(=O)[C@H](C)[C@@H](O[C@H]2C[C@@](C)(OC)[C@@H](O)[C@H](C)O2)[C@H](C)[C@@H](O[C@@H]3O[C@H](C)C[C@@H]([C@H]3O)N(C)C)[C@@](C)(C[C@@H](C)C(=O)[C@H](C)[C@@H](O)[C@]1(C)O)OC
InChI: InChI=1S/C38H69NO13/c1-15-26-38(10,45)31(42)21(4)28(40)19(2)17-37(9,47-14)33(52-35-29(41)25(39(11)12)16-20(3)48-35)22(5)30(23(6)34(44)50-26)51-27-18-36(8,46-13)32(43)24(7)49-27/h19-27,29-33,35,41-43,45H,15-18H2,1-14H3/t19-,20-,21+,22+,23-,24+,25+,26-,27+,29-,30+,31-,32+,33-,35+,36-,37-,38-/m1/s1
Instrument: TripleTOF 5600 SCIEX
Instrument type: LC-ESI-QTOF
Ms type: MS2
Ion mode: POSITIVE
Collision energy: 110
Fragmentation mode: CID
Ionization: ESI
Column name: Zorbax Eclipse Plus C18 2.1 mm x 150 mm, 3.5 um, Agilent
Retention time: 8.861 min
Precursor m/z: 748.4842
Precursor type: [M+H]+
m/z	relative intensity
43.0245	28
45.04	31
55.0583	168
57.0642	15
59.053	60
70.0668	22
72.0832	334
79.0552	15
81.0729	22
83.0514	999
83.0826	25
84.0822	63
87.0449	133
87.0683	19
88.0772	98
95.0491	12
98.0589	28
98.0962	365
99.0786	15
100.0769	15
113.0574	15
114.0893	12
116.07	168
116.1063	114
123.0793	25
158.1164	104
