Mass spectrum: Erlotinib; LC-ESI-QTOF; MS2; 110 V
Name: Erlotinib
Class: Pharmaceutical
Formula: C22H23N3O4
Exact mass: 393.1689
SMILES: COCCOC1=C(C=C2C(=C1)C(=NC=N2)NC3=CC=CC(=C3)C#C)OCCOC
InChI: InChI=1S/C22H23N3O4/c1-4-16-6-5-7-17(12-16)25-22-18-13-20(28-10-8-26-2)21(29-11-9-27-3)14-19(18)23-15-24-22/h1,5-7,12-15H,8-11H2,2-3H3,(H,23,24,25)
Instrument: TripleTOF 5600 SCIEX
Instrument type: LC-ESI-QTOF
Ms type: MS2
Ion mode: POSITIVE
Collision energy: 110
Fragmentation mode: CID
Ionization: ESI
Column name: Zorbax Eclipse Plus C18 2.1 mm x 150 mm, 3.5 um, Agilent
Retention time: 7.429 min
Precursor m/z: 394.1761
Precursor type: [M+H]+
m/z	relative intensity
39.0229	14
50.0151	41
51.0232	169
52.0177	30
53.0389	34
55.018	67
59.0495	44
61.0081	14
63.023	31
65.0389	64
66.0337	23
67.0422	12
68.049	30
73.0078	25
74.0152	218
75.0233	999
76.0191	60
77.0262	88
77.0389	64
78.0344	124
79.0179	52
80.0129	42
81.0336	79
88.0185	77
89.0395	145
90.0342	15
90.0457	56
91.0546	112
93.0453	52
94.0527	11
95.0372	11
96.0454	58
97.0287	22
98.0153	11
99.0238	33
100.0202	11
101.0393	496
102.0346	18
102.0458	18
103.0312	17
104.0146	11
104.037	118
105.0454	49
106.0292	109
107.0113	12
108.02	45
109.0285	22
113.039	39
114.035	18
114.0465	15
115.0293	11
115.0555	41
116.0503	58
117.0575	93
121.0405	55
122.0229	14
123.0222	22
124.0386	20
125.0388	98
126.0344	22
126.0465	42
127.0531	109
128.0512	67
129.046	64
132.0088	17
133.0397	9
134.0263	14
135.0322	34
136.0406	11
137.0385	22
138.0355	14
138.0473	28
139.0541	143
140.0501	164
141.0547	28
142.0555	15
143.0609	15
149.0392	172
150.0457	311
151.0548	292
152.0501	263
153.0571	121
154.0677	77
155.0603	55
161.0366	93
162.0441	34
163.0532	79
164.0509	214
165.0557	131
166.0641	124
167.0676	77
168.0718	18
174.032	12
175.0413	88
176.0507	380
177.0582	268
178.0647	184
179.0611	123
180.0653	31
181.0762	23
187.0401	20
188.0507	88
189.05	33
189.0626	11
190.0599	83
191.0611	132
192.0695	327
193.0762	191
194.0668	11
195.0944	11
200.055	11
202.0542	72
203.0616	431
204.0629	124
205.0771	131
206.0718	36
213.0471	45
214.0531	22
215.0633	33
216.0654	18
217.0649	67
218.0728	74
219.0557	11
219.0771	45
220.088	61
221.0725	49
228.0574	17
229.0538	15
229.0699	17
230.0725	248
231.0802	118
246.0676	124
247.0762	42
259.0797	11
275.069	15
