Mass spectrum: Dimethenamid; LC-ESI-QTOF; MS2; 110 V
Name: Dimethenamid
Class: Herbicide
Formula: C12H18ClNO2S
Exact mass: 275.0747
SMILES: CC1=CSC(=C1N(C(C)COC)C(=O)CCl)C
InChI: InChI=1S/C12H18ClNO2S/c1-8-7-17-10(3)12(8)14(11(15)5-13)9(2)6-16-4/h7,9H,5-6H2,1-4H3
Instrument: TripleTOF 6600 SCIEX
Instrument type: LC-ESI-QTOF
Ms type: MS2
Ion mode: POSITIVE
Collision energy: 110
Fragmentation mode: CID
Ionization: ESI
Column name: Zorbax Eclipse Plus C18 2.1 mm x 150 mm, 3.5 um, Agilent
Retention time: 11.971 min
Precursor m/z: 276.082
Precursor type: [M+H]+
m/z	relative intensity
37.0079	207
38.0159	188
39.0237	942
41.039	376
42.0346	94
43.972	94
44.9799	885
45.0336	188
46.9687	226
48.9845	961
49.0076	113
50.0156	320
51.0233	697
52.0306	150
53.0391	433
57.988	226
58.9954	678
59.9909	226
63.0238	207
64.0309	113
65.0389	753
66.0349	94
66.0467	188
67.0433	113
67.0546	358
68.9798	395
70.9957	490
77.0391	791
78.0347	301
78.0467	320
79.0418	113
79.0538	150
80.0499	697
82.9959	150
83.9897	75
85.0102	150
89.0393	150
91.0542	339
92.049	301
93.0583	301
94.0653	999
94.9949	169
96.0033	131
97.0108	546
104.0501	376
105.057	226
106.065	131
109.0107	131
110.0182	113
111.0264	358
112.0224	94
117.057	113
118.065	113
122.0056	94
123.0133	113
124.0239	131
126.0358	131
136.0215	245
152.0179	75
