Mass spectrum: Domiphen; LC-ESI-QTOF; MS2; 80 V
Name: Domiphen
Class: Pharmaceutical
Formula: C22H40NO
Exact mass: 334.3104
SMILES: CCCCCCCCCCCC[N+](C)(C)CCOc1ccccc1
InChI: InChI=1S/C22H40NO/c1-4-5-6-7-8-9-10-11-12-16-19-23(2,3)20-21-24-22-17-14-13-15-18-22/h13-15,17-18H,4-12,16,19-21H2,1-3H3/q+1
Instrument: TripleTOF 5600 SCIEX
Instrument type: LC-ESI-QTOF
Ms type: MS2
Ion mode: POSITIVE
Collision energy: 80
Fragmentation mode: CID
Ionization: ESI
Column name: Zorbax Eclipse Plus C18 2.1 mm x 150 mm, 3.5 um, Agilent
Retention time: 12.027 min
Precursor m/z: 334.3104
Precursor type: [M]+
m/z	relative intensity
42.0433	138
44.0568	114
51.0287	62
56.0543	54
57.0733	52
58.0706	999
70.0682	130
72.084	333
77.0414	792
91.0547	253
103.0554	75
