Mass spectrum: Carbadox; LC-ESI-QTOF; MS2; 70 V
Name: Carbadox
Class: Antimicrobial; Pharmaceutical
Formula: C11H10N4O4
Exact mass: 262.0702
SMILES: COC(=O)N=NC=C1C=[N+]([O-])c2ccccc2N1O
InChI: InChI=1S/C11H10N4O4/c1-19-11(16)13-12-6-8-7-14(17)9-4-2-3-5-10(9)15(8)18/h2-7,18H,1H3
Instrument: TripleTOF 5600 SCIEX
Instrument type: LC-ESI-QTOF
Ms type: MS2
Ion mode: POSITIVE
Collision energy: 70
Fragmentation mode: CID
Ionization: ESI
Column name: Zorbax Eclipse Plus C18 2.1 mm x 150 mm, 3.5 um, Agilent
Retention time: 5.823 min
Precursor m/z: 263.0775
Precursor type: [M+H]+
m/z	relative intensity
52.0234	17
63.0578	15
64.0343	75
64.0465	12
65.0307	25
65.0403	47
74.0175	77
75.0262	398
76.0215	62
76.033	358
77.0416	453
78.0362	60
78.0485	30
79.0463	15
89.0269	82
89.0407	62
90.0358	410
90.0768	17
91.0425	112
101.0393	35
102.0348	999
103.0419	458
104.0498	37
105.0446	20
114.0326	27
115.0411	30
116.0366	207
117.0515	17
118.0538	12
128.0493	27
129.044	240
130.0403	235
130.0782	10
142.0519	32
143.0456	72
145.0402	22
155.0466	37
