Mass spectrum: Norfluoxetine; LC-ESI-QTOF; MS2; 120 V
Name: Norfluoxetine
Class: Pharmaceutical; Metabolite
Formula: C16H16F3NO
Exact mass: 295.1184
SMILES: c1ccc(cc1)C(CCN)Oc2ccc(cc2)C(F)(F)F
InChI: InChI=1S/C16H16F3NO/c17-16(18,19)13-6-8-14(9-7-13)21-15(10-11-20)12-4-2-1-3-5-12/h1-9,15H,10-11,20H2
Instrument: TripleTOF 5600 SCIEX
Instrument type: LC-ESI-QTOF
Ms type: MS2
Ion mode: POSITIVE
Collision energy: 120
Fragmentation mode: CID
Ionization: ESI
Column name: Zorbax Eclipse Plus C18 2.1 mm x 150 mm, 3.5 um, Agilent
Retention time: 8.432 min
Precursor m/z: 296.1257
Precursor type: [M+H]+
m/z	relative intensity
51.0277	199
65.0425	449
74.0174	499
75.026	499
77.0406	299
91.0555	999
115.0537	449
117.0709	299
