Mass spectrum: Praziquantel; LC-ESI-QTOF; MS2; 90 V
Name: Praziquantel
Class: Pharmaceutical
Formula: C19H24N2O2
Exact mass: 312.1838
SMILES: O=C1CN(CC2N1CCc3ccccc23)C(=O)C4CCCCC4
InChI: InChI=1S/C19H24N2O2/c22-18-13-20(19(23)15-7-2-1-3-8-15)12-17-16-9-5-4-6-14(16)10-11-21(17)18/h4-6,9,15,17H,1-3,7-8,10-13H2
Instrument: TripleTOF 5600 SCIEX
Instrument type: LC-ESI-QTOF
Ms type: MS2
Ion mode: POSITIVE
Collision energy: 90
Fragmentation mode: CID
Ionization: ESI
Column name: Zorbax Eclipse Plus C18 2.1 mm x 150 mm, 3.5 um, Agilent
Retention time: 10.768 min
Precursor m/z: 313.1911
Precursor type: [M+H]+
m/z	relative intensity
53.0442	24
55.0603	999
77.0414	136
79.0567	62
83.0877	229
89.0409	74
90.0482	80
90.0608	37
91.0563	223
102.0482	55
103.0541	198
105.0697	322
115.0549	490
116.0629	80
117.0574	552
117.0726	124
127.0542	148
128.0631	459
129.0691	124
130.0652	490
131.0736	80
132.0808	415
143.0753	31
144.0808	117
145.089	43
