Mass spectrum: Fenoxycarb; LC-ESI-QTOF; MS2; 90 V
Name: Fenoxycarb
Class: Insecticide
Formula: C17H19NO4
Exact mass: 301.1314
SMILES: CCOC(=O)NCCOc1ccc(Oc2ccccc2)cc1
InChI: InChI=1S/C17H19NO4/c1-2-20-17(19)18-12-13-21-14-8-10-16(11-9-14)22-15-6-4-3-5-7-15/h3-11H,2,12-13H2,1H3,(H,18,19)
Instrument: TripleTOF 5600 SCIEX
Instrument type: LC-ESI-QTOF
Ms type: MS2
Ion mode: POSITIVE
Collision energy: 90
Fragmentation mode: CID
Ionization: ESI
Column name: Zorbax Eclipse Plus C18 2.1 mm x 150 mm, 3.5 um, Agilent
Retention time: 13.067 min
Precursor m/z: 302.1387
Precursor type: [M+H]+
m/z	relative intensity
42.0441	84
44.0596	359
45.0065	20
65.0435	70
66.0509	35
70.0329	55
77.0418	319
78.0498	16
81.0359	67
88.0414	999
89.0403	75
91.0558	176
94.0424	50
102.0469	24
103.0543	12
105.0345	12
107.0486	18
109.0284	21
110.0363	15
115.0541	409
126.046	15
127.0544	66
128.0618	185
129.0697	20
131.0485	13
139.0543	77
140.0594	11
141.07	26
150.0474	16
151.0538	19
152.0621	37
157.0646	20
163.0537	12
164.0626	10
165.0704	47
168.0564	10
