Mass spectrum: Spinosad A; LC-ESI-QTOF; MS2; 120 V
Name: Spinosad A
Class: Insecticide
Formula: C41H65NO10
Exact mass: 731.4608
SMILES: CCC1CCCC(C(C(=O)C2=CC3C4CC(CC4C=CC3C2CC(=O)O1)OC5C(C(C(C(O5)C)OC)OC)OC)C)OC6CCC(C(O6)C)N(C)C
InChI: InChI=1S/C41H65NO10/c1-10-26-12-11-13-34(52-36-17-16-33(42(5)6)23(3)48-36)22(2)37(44)32-20-30-28(31(32)21-35(43)50-26)15-14-25-18-27(19-29(25)30)51-41-40(47-9)39(46-8)38(45-7)24(4)49-41/h14-15,20,22-31,33-34,36,38-41H,10-13,16-19,21H2,1-9H3
Instrument: TripleTOF 6600 SCIEX
Instrument type: LC-ESI-QTOF
Ms type: MS2
Ion mode: POSITIVE
Collision energy: 120
Fragmentation mode: CID
Ionization: ESI
Column name: Zorbax Eclipse Plus C18 2.1 mm x 150 mm, 3.5 um, Agilent
Retention time: 10.391 min
Precursor m/z: 732.4681
Precursor type: [M+H]+
m/z	relative intensity
39.022	34
41.038	137
42.0333	18
43.0172	71
44.0485	33
45.0328	42
46.0646	27
47.0485	22
53.0377	18
55.0168	18
55.0535	105
56.0488	46
57.0326	38
58.0642	15
59.0482	81
65.0378	17
67.0533	93
69.033	10
69.069	150
70.0642	53
71.0481	112
71.0717	10
72.0436	53
72.0797	64
73.064	12
74.0353	37
75.043	81
77.0379	49
79.0532	86
81.0324	22
81.0692	35
82.0406	34
83.0481	17
83.0847	27
84.08	34
85.0635	26
85.0873	58
86.0956	13
89.0587	25
91.0529	30
93.0687	10
95.0846	27
97.0637	225
98.0356	13
98.0957	999
99.0429	91
99.0787	50
99.1014	15
101.0587	108
105.0693	15
112.1103	13
113.0588	14
115.0533	57
115.0737	15
116.061	9
117.0691	27
124.111	37
125.0586	34
127.0534	23
128.0604	83
129.0688	101
131.0852	10
141.0688	116
142.0763	29
142.1218	228
152.061	39
153.0689	140
154.0771	89
155.0845	161
156.0912	12
157.1003	17
165.069	48
166.0767	15
167.0854	34
168.0918	10
169.1003	39
171.079	20
178.0767	25
179.0852	24
181.0621	15
181.1015	13
183.0802	22
193.0998	9
197.0949	18
203.0834	10
