Mass spectrum: Cyazofamid; LC-ESI-QTOF; MS2; 100 V
Name: Cyazofamid
Class: Fungicide
Formula: C13H13ClN4O2S
Exact mass: 324.0448
SMILES: CC1=CC=C(C=C1)C2=C(N=C(N2S(=O)(=O)N(C)C)C#N)Cl
InChI: InChI=1S/C13H13ClN4O2S/c1-9-4-6-10(7-5-9)12-13(14)16-11(8-15)18(12)21(19,20)17(2)3/h4-7H,1-3H3
Instrument: TripleTOF 6600 SCIEX
Instrument type: LC-ESI-QTOF
Ms type: MS2
Ion mode: POSITIVE
Collision energy: 100
Fragmentation mode: CID
Ionization: ESI
Column name: Zorbax Eclipse Plus C18 2.1 mm x 150 mm, 3.5 um, Agilent
Retention time: 13.577 min
Precursor m/z: 325.0521
Precursor type: [M+H]+
m/z	relative intensity
42.0331	666
44.0489	388
72.971	333
75.0214	222
77.0377	999
89.0379	610
90.0461	277
101.0371	333
102.0456	444
103.0521	222
116.0476	610
128.0484	388
