Mass spectrum: Amethopterin; LC-ESI-QTOF; MS2; 90 V
Name: Amethopterin
Class: Pharmaceutical
Formula: C20H22N8O5
Exact mass: 454.1713
SMILES: CN(Cc1cnc2nc(N)nc(N)c2n1)c3ccc(cc3)C(=O)NC(CCC(O)=O)C(O)=O
InChI: InChI=1S/C20H22N8O5/c1-28(9-11-8-23-17-15(24-11)16(21)26-20(22)27-17)12-4-2-10(3-5-12)18(31)25-13(19(32)33)6-7-14(29)30/h2-5,8,13H,6-7,9H2,1H3,(H,25,31)(H,29,30)(H,32,33)(H4,21,22,23,26,27)
Instrument: TripleTOF 5600 SCIEX
Instrument type: LC-ESI-QTOF
Ms type: MS2
Ion mode: POSITIVE
Collision energy: 90
Fragmentation mode: CID
Ionization: ESI
Column name: Zorbax Eclipse Plus C18 2.1 mm x 150 mm, 3.5 um, Agilent
Retention time: 5.057 min
Precursor m/z: 455.1786
Precursor type: [M+H]+
m/z	relative intensity
43.0293	37
65.0394	21
77.0389	121
79.0296	100
79.0544	185
80.0249	79
80.0374	26
81.0443	31
94.0408	31
106.0401	523
106.0648	216
107.035	21
107.0483	79
108.0555	63
118.0414	42
121.0511	274
131.0342	37
132.0437	47
133.0512	999
134.0441	37
134.0604	459
135.0618	79
146.0477	42
148.0623	237
149.0692	37
150.077	74
158.0459	58
159.0538	142
160.062	84
175.0731	755
176.0797	211
