Mass spectrum: p-Phenetidine; LC-ESI-QTOF; MS2; 40 V
Name: p-Phenetidine
Formula: C8H11NO
Exact mass: 137.0841
SMILES: CCOC1=CC=C(C=C1)N
InChI: InChI=1S/C8H11NO/c1-2-10-8-5-3-7(9)4-6-8/h3-6H,2,9H2,1H3
Instrument: TripleTOF 6600 SCIEX
Instrument type: LC-ESI-QTOF
Ms type: MS2
Ion mode: POSITIVE
Collision energy: 40
Fragmentation mode: CID
Ionization: ESI
Column name: Zorbax Eclipse Plus C18 2.1 mm x 150 mm, 3.5 um, Agilent
Retention time: 4.84 min
Precursor m/z: 138.0914
Precursor type: [M+H]+
m/z	relative intensity
37.0084	25
38.0166	17
39.0243	220
42.0342	11
51.0244	12
53.0398	12
63.0239	40
64.0315	17
65.0395	999
66.0477	25
67.0419	45
77.0397	51
80.0502	424
81.0578	122
82.0657	45
91.0566	11
92.0506	199
93.0348	301
93.0581	176
108.0444	151
109.0524	240
110.061	261
121.0399	21
138.0946	18
