Mass spectrum: Lorazepam; LC-ESI-QTOF; MS2; 40 V
Name: Lorazepam
Class: Pharmaceutical
Formula: C15H10Cl2N2O2
Exact mass: 320.0119
SMILES: OC1N=C(c2ccccc2Cl)c3cc(Cl)ccc3NC1=O
InChI: InChI=1S/C15H10Cl2N2O2/c16-8-5-6-12-10(7-8)13(19-15(21)14(20)18-12)9-3-1-2-4-11(9)17/h1-7,15,21H,(H,18,20)
Instrument: TripleTOF 5600 SCIEX
Instrument type: LC-ESI-QTOF
Ms type: CID
Ion mode: POSITIVE
Collision energy: 40
Ionization: ESI
Column name: Zorbax Eclipse Plus C18 2.1 mm x 150 mm, 3.5 um, Agilent
Retention time: 9.538 min
Precursor m/z: 321.0192
Precursor type: [M+H]+
m/z	relative intensity
110.9992	24
135.9928	24
138.0094	72
163.0046	133
194.0859	121
205.0779	24
229.0536	375
239.0361	60
265.0315	30
275.0145	999
291.0106	24
303.0076	127
321.0212	54
