Mass spectrum: Clopidogrel; LC-ESI-QTOF; MS2; 130 V
Name: Clopidogrel
Class: Pharmaceutical
Formula: C16H16ClNO2S
Exact mass: 321.059
SMILES: COC(=O)C(c1ccccc1Cl)N2CCc3c(ccs3)C2
InChI: InChI=1S/C16H16ClNO2S/c1-20-16(19)15(12-4-2-3-5-13(12)17)18-8-6-14-11(10-18)7-9-21-14/h2-5,7,9,15H,6,8,10H2,1H3
Instrument: TripleTOF 5600 SCIEX
Instrument type: LC-ESI-QTOF
Ms type: MS2
Ion mode: POSITIVE
Collision energy: 130
Fragmentation mode: CID
Ionization: ESI
Column name: Zorbax Eclipse Plus C18 2.1 mm x 150 mm, 3.5 um, Agilent
Retention time: 12.465 min
Precursor m/z: 322.0663
Precursor type: [M+H]+
m/z	relative intensity
51.0295	425
64.0363	9
65.0424	212
72.9869	120
73.0093	28
74.0188	330
75.0266	776
76.033	53
77.0417	428
84.9862	76
89.0404	513
90.0475	140
91.0553	144
99.0007	158
105.0331	24
109.0119	10
111.0001	999
112.0076	53
117.0595	23
125.0155	103
133.0292	13
138.9958	285
