Mass spectrum: Celiprolol; LC-ESI-QTOF; MS2; 60 V
Name: Celiprolol
Class: Pharmaceutical
Formula: C20H33N3O4
Exact mass: 379.2471
SMILES: CCN(CC)C(=O)NC1=CC(=C(C=C1)OCC(CNC(C)(C)C)O)C(=O)C
InChI: InChI=1S/C20H33N3O4/c1-7-23(8-2)19(26)22-15-9-10-18(17(11-15)14(3)24)27-13-16(25)12-21-20(4,5)6/h9-11,16,21,25H,7-8,12-13H2,1-6H3,(H,22,26)
Instrument: TripleTOF 5600 SCIEX
Instrument type: LC-ESI-QTOF
Ms type: MS2
Ion mode: POSITIVE
Collision energy: 60
Fragmentation mode: CID
Ionization: ESI
Column name: Zorbax Eclipse Plus C18 2.1 mm x 150 mm, 3.5 um, Agilent
Retention time: 6.532 min
Precursor m/z: 380.2544
Precursor type: [M+H]+
m/z	relative intensity
43.0271	63
44.0214	55
56.0566	904
57.0401	11
57.0759	129
72.0487	528
72.0842	19
74.0645	999
74.0998	237
77.0417	22
92.0508	16
100.0771	338
104.0511	10
108.0446	10
115.0541	20
120.0453	38
120.0805	15
128.0516	28
130.0654	43
132.0448	114
134.0596	21
136.0403	16
142.066	14
146.0601	43
148.0402	774
148.0729	39
150.0552	91
158.0608	54
160.0406	21
160.0768	16
162.0195	30
162.0553	17
170.0599	26
172.0401	47
174.0558	35
176.0711	157
178.0501	32
186.0556	246
188.0709	10
190.0506	32
198.0559	14
204.0663	102
216.0658	108
233.092	21
251.1374	12
