Mass spectrum: O-desmethyl-tramadol; LC-ESI-QTOF; MS2; 80 V
Name: O-desmethyl-tramadol
Class: Transformation_product; Pharmaceutical; Metabolite
Formula: C15H23NO2
Exact mass: 249.1729
InChI: InChI=1S/C15H23NO2/c1-16(2)11-13-6-3-4-9-15(13,18)12-7-5-8-14(17)10-12/h5,7-8,10,13,17-18H,3-4,6,9,11H2,1-2H3
Instrument: TripleTOF 5600 SCIEX
Instrument type: LC-ESI-QTOF
Ms type: CID
Ion mode: POSITIVE
Collision energy: 80
Ionization: ESI
Column name: Zorbax Eclipse Plus C18 2.1 mm x 150 mm, 3.5 um, Agilent
Retention time: 5.386 min
Precursor m/z: 250.1802
Precursor type: [M+H]+
m/z	relative intensity
42.0429	121
56.0559	18
58.0713	999
65.0425	18
77.0412	58
91.0558	10
107.0492	15
115.0534	19
127.0538	9
