Mass spectrum: Propyphenazone; LC-ESI-QTOF; MS2; 140 V
Name: Propyphenazone
Class: Pharmaceutical
Formula: C14H18N2O
Exact mass: 230.1419
SMILES: CC1=C(C(=O)N(N1C)C2=CC=CC=C2)C(C)C
InChI: InChI=1S/C14H18N2O/c1-10(2)13-11(3)15(4)16(14(13)17)12-8-6-5-7-9-12/h5-10H,1-4H3
Instrument: TripleTOF 5600 SCIEX
Instrument type: LC-ESI-QTOF
Ms type: MS2
Ion mode: POSITIVE
Collision energy: 140
Fragmentation mode: CID
Ionization: ESI
Column name: Zorbax Eclipse Plus C18 2.1 mm x 150 mm, 3.5 um, Agilent
Retention time: 9.545 min
Precursor m/z: 231.1492
Precursor type: [M+H]+
m/z	relative intensity
37.0078	105
38.0149	86
39.0235	278
41.0262	182
41.0383	48
42.0347	76
49.0077	192
50.0154	883
51.0232	999
52.0179	96
53.0392	96
56.0498	461
61.0082	48
62.0154	124
63.0225	115
65.0383	67
67.0418	153
74.0161	182
75.0231	67
77.0392	182
80.0499	201
89.038	48
