Mass spectrum: Estrone; LC-ESI-QTOF; MS2; 120 V
Name: Estrone
Class: Pharmaceutical
Formula: C18H22O2
Exact mass: 270.162
SMILES: CC12CCC3C(C1CCC2=O)CCC4=C3C=CC(=C4)O
InChI: InChI=1S/C18H22O2/c1-18-9-8-14-13-5-3-12(19)10-11(13)2-4-15(14)16(18)6-7-17(18)20/h3,5,10,14-16,19H,2,4,6-9H2,1H3
Instrument: TripleTOF 5600 SCIEX
Instrument type: LC-ESI-QTOF
Ms type: MS2
Ion mode: POSITIVE
Collision energy: 120
Fragmentation mode: CID
Ionization: ESI
Column name: Zorbax Eclipse Plus C18 2.1 mm x 150 mm, 3.5 um, Agilent
Retention time: 11.224 min
Precursor m/z: 271.1693
Precursor type: [M+H]+
m/z	relative intensity
37.0075	12
38.0152	11
39.0231	54
41.0388	20
43.0181	38
49.007	15
50.0153	80
51.0232	209
53.0388	15
55.0184	17
61.0072	34
62.0152	75
63.0231	198
65.0388	237
66.0465	20
67.0543	11
74.0151	47
75.023	90
76.0311	51
77.0388	779
78.0463	74
79.0541	70
86.0151	16
87.0226	37
88.0305	17
89.0386	406
90.0465	10
91.0543	137
94.0407	27
98.0148	14
99.0233	16
101.039	40
102.0464	159
103.0543	121
105.0709	12
107.049	37
113.0386	40
114.0471	28
115.0541	999
116.0622	30
118.0417	11
125.0392	18
126.0464	122
127.0543	176
128.0622	256
131.0489	47
139.0544	116
141.0694	15
150.0462	70
151.0548	141
152.0625	247
153.0691	16
162.0462	14
163.0541	86
164.0622	32
165.0701	92
176.0625	37
189.0721	11
