Mass spectrum: Octhilinone; LC-ESI-QTOF; MS2; 80 V
Name: Octhilinone
Class: Fungicide; Antimicrobial
Formula: C11H19NOS
Exact mass: 213.1187
SMILES: CCCCCCCCN1C(=O)C=CS1
InChI: InChI=1S/C11H19NOS/c1-2-3-4-5-6-7-9-12-11(13)8-10-14-12/h8,10H,2-7,9H2,1H3
Instrument: TripleTOF 6600 SCIEX
Instrument type: LC-ESI-QTOF
Ms type: MS2
Ion mode: POSITIVE
Collision energy: 80
Fragmentation mode: CID
Ionization: ESI
Column name: Zorbax Eclipse Plus C18 2.1 mm x 150 mm, 3.5 um, Agilent
Retention time: 11.855 min
Precursor m/z: 214.126
Precursor type: [M+H]+
m/z	relative intensity
35.9992	38
37.0076	129
38.0029	56
38.0156	106
39.0235	633
40.0178	24
41.0391	488
43.0547	90
44.0135	118
44.9795	47
45.9758	11
47.9908	52
52.0062	20
53.0029	15
53.0141	20
55.0186	15
55.0547	13
56.9798	999
57.9878	102
58.9951	124
82.9827	13
83.9904	281
84.9743	102
102.0006	149
