Mass spectrum: Sulcotrione; LC-ESI-QTOF; MS2; 70 V
Name: Sulcotrione
Class: Herbicide
Formula: C14H13ClO5S
Exact mass: 328.0172
SMILES: CS(=O)(=O)C1=CC(=C(C=C1)C(=O)C2C(=O)CCCC2=O)Cl
InChI: InChI=1S/C14H13ClO5S/c1-21(19,20)8-5-6-9(10(15)7-8)14(18)13-11(16)3-2-4-12(13)17/h5-7,13H,2-4H2,1H3
Instrument: TripleTOF 6600 SCIEX
Instrument type: LC-ESI-QTOF
Ms type: MS2
Ion mode: NEGATIVE
Collision energy: 70
Fragmentation mode: CID
Ionization: ESI
Column name: Zorbax Eclipse Plus C18 2.1 mm x 150 mm, 3.5 um, Agilent
Retention time: 9.651 min
Precursor m/z: 327.0099
Precursor type: [M-H]-
m/z	relative intensity
34.9682	999
91.0176	220
93.0329	102
113.0366	88
114.0457	161
116.0286	73
139.0537	73
140.0633	117
141.0329	88
142.0406	235
144.0222	102
155.0524	73
158.0356	176
167.0473	73
168.0606	161
169.0284	323
170.036	572
182.0387	132
183.0443	190
184.0511	73
210.0305	205
211.0395	235
212.0456	411
227.0337	102
