Mass spectrum: Bentazone; LC-ESI-QTOF; MS2; 80 V
Name: Bentazone
Class: Herbicide
Formula: C10H12N2O3S
Exact mass: 240.0569
InChI: InChI=1S/C10H12N2O3S/c1-7(2)12-10(13)8-5-3-4-6-9(8)11-16(12,14)15/h3-7,11H,1-2H3
Instrument: TripleTOF 6600 SCIEX
Instrument type: LC-ESI-QTOF
Ms type: CID
Ion mode: NEGATIVE
Collision energy: 80
Ionization: ESI
Column name: Zorbax Eclipse Plus C18 2.1 mm x 150 mm, 3.5 um, Agilent
Retention time: 9.867 min
Precursor m/z: 239.0496
Precursor type: [M-H]-
m/z	relative intensity
41.9991	974
50.0031	146
76.0314	194
77.965	97
79.9568	999
90.0342	170
115.0293	268
117.0457	268
132.0328	121
