Mass spectrum: Remdesivir; LC-ESI-QTOF; MS2; 130 V
Name: Remdesivir
Class: Pharmaceutical
Formula: C27H35N6O8P
Exact mass: 602.2254
SMILES: CCC(CC)COC(=O)C(C)NP(=O)(OCC1C(C(C(O1)(C#N)C2=CC=C3N2N=CN=C3N)O)O)OC4=CC=CC=C4
InChI: InChI=1S/C27H35N6O8P/c1-4-18(5-2)13-38-26(36)17(3)32-42(37,41-19-9-7-6-8-10-19)39-14-21-23(34)24(35)27(15-28,40-21)22-12-11-20-25(29)30-16-31-33(20)22/h6-12,16-18,21,23-24,34-35H,4-5,13-14H2,1-3H3,(H,32,37)(H2,29,30,31)
Instrument: TripleTOF 6600 SCIEX
Instrument type: LC-ESI-QTOF
Ms type: MS2
Ion mode: POSITIVE
Collision energy: 130
Fragmentation mode: CID
Ionization: ESI
Column name: Zorbax Eclipse Plus C18 2.1 mm x 150 mm, 3.5 um, Agilent
Retention time: 9.974 min
Precursor m/z: 603.2327
Precursor type: [M+H]+
m/z	relative intensity
39.0227	68
41.0381	42
42.0337	21
43.0287	22
43.0537	31
44.0493	361
50.0147	12
51.0227	126
64.0169	29
65.038	42
66.0337	14
67.0171	36
76.0176	54
77.0383	999
78.0331	205
78.9935	54
79.0281	14
79.989	119
87.9942	17
91.0285	28
91.0535	50
92.0488	19
93.044	22
93.0687	14
95.0483	199
103.0281	96
103.0531	84
104.0356	21
104.0483	15
105.0443	313
106.0043	94
109.019	43
118.0401	12
118.0644	19
119.0223	50
119.0609	22
120.0551	21
120.0794	26
121.0646	24
124.0147	19
129.0441	14
130.0386	47
135.0647	19
137.014	94
138.9929	26
145.051	12
147.0656	220
159.0645	17
161.045	26
164.0244	17
165.009	191
172.0612	14
182.035	17
