Mass spectrum: Sulfasalazine; LC-ESI-QTOF; MS2; 80 V
Name: Sulfasalazine
Class: Pharmaceutical
Formula: C18H14N4O5S
Exact mass: 398.0685
SMILES: C1=CC=NC(=C1)NS(=O)(=O)C2=CC=C(C=C2)NN=C3C=CC(=O)C(=C3)C(=O)O
InChI: InChI=1S/C18H14N4O5S/c23-16-9-6-13(11-15(16)18(24)25)21-20-12-4-7-14(8-5-12)28(26,27)22-17-3-1-2-10-19-17/h1-11,20H,(H,19,22)(H,24,25)
Instrument: TripleTOF 5600 SCIEX
Instrument type: LC-ESI-QTOF
Ms type: MS2
Ion mode: POSITIVE
Collision energy: 80
Fragmentation mode: CID
Ionization: ESI
Column name: Zorbax Eclipse Plus C18 2.1 mm x 150 mm, 3.5 um, Agilent
Retention time: 9.217 min
Precursor m/z: 399.0758
Precursor type: [M+H]+
m/z	relative intensity
53.0474	25
61.0139	14
62.0239	25
63.0301	127
66.0438	19
67.0491	740
76.0356	73
77.0448	70
78.0394	59
80.0197	31
81.0386	201
89.042	14
91.022	999
93.0505	42
94.0565	533
95.0662	11
101.042	19
102.0358	17
107.0151	31
109.0296	34
113.0411	36
119.0151	601
127.0563	39
128.0505	36
129.0442	36
137.0242	184
139.0555	136
140.0509	59
141.0464	14
142.0553	17
143.0597	11
147.0185	17
155.0607	70
156.0702	36
157.0754	51
165.0284	22
166.0515	19
167.0622	25
168.0672	90
169.0745	68
180.0577	19
185.032	31
185.0681	14
229.074	34
