Mass spectrum: Nitrazepam; LC-ESI-QTOF; MS2; 80 V
Name: Nitrazepam
Class: Pharmaceutical
Formula: C15H11N3O3
Exact mass: 281.08
SMILES: C1C(=O)NC2=C(C=C(C=C2)[N+](=O)[O-])C(=N1)C3=CC=CC=C3
InChI: InChI=1S/C15H11N3O3/c19-14-9-16-15(10-4-2-1-3-5-10)12-8-11(18(20)21)6-7-13(12)17-14/h1-8H,9H2,(H,17,19)
Instrument: TripleTOF 6600 SCIEX
Instrument type: LC-ESI-QTOF
Ms type: MS2
Ion mode: NEGATIVE
Collision energy: 80
Fragmentation mode: CID
Ionization: ESI
Column name: Zorbax Eclipse Plus C18 2.1 mm x 150 mm, 3.5 um, Agilent
Retention time: 9.435 min
Precursor m/z: 280.0727
Precursor type: [M-H]-
m/z	relative intensity
40.0184	26
41.0029	42
41.9981	368
45.9932	999
50.0036	42
64.0193	42
65.9983	26
90.0343	168
101.0388	399
113.039	220
115.0549	473
125.0392	110
139.0422	26
140.0484	47
141.0362	178
164.0512	110
166.0651	999
194.0615	105
222.056	47
