Mass spectrum: Picoxystrobin; LC-ESI-QTOF; MS2; 150 V
Name: Picoxystrobin
Class: Fungicide
Formula: C18H16F3NO4
Exact mass: 367.1031
SMILES: COC=C(C1=CC=CC=C1COC2=CC=CC(=N2)C(F)(F)F)C(=O)OC
InChI: InChI=1S/C18H16F3NO4/c1-24-11-14(17(23)25-2)13-7-4-3-6-12(13)10-26-16-9-5-8-15(22-16)18(19,20)21/h3-9,11H,10H2,1-2H3
Instrument: TripleTOF 6600 SCIEX
Instrument type: LC-ESI-QTOF
Ms type: MS2
Ion mode: POSITIVE
Collision energy: 150
Fragmentation mode: CID
Ionization: ESI
Column name: Zorbax Eclipse Plus C18 2.1 mm x 150 mm, 3.5 um, Agilent
Retention time: 13.935 min
Precursor m/z: 368.1104
Precursor type: [M+H]+
m/z	relative intensity
37.0073	48
38.015	30
39.0231	180
49.0074	48
50.0157	561
51.0232	491
52.0307	105
59.9993	21
61.0073	73
62.0151	132
63.0232	278
65.0384	171
73.0075	54
74.0155	430
75.023	126
76.0308	878
77.0389	825
78.0461	40
85.0066	30
86.0148	61
87.0222	87
89.0385	163
91.0534	99
101.0378	22
102.0464	999
103.0532	102
115.0541	151
127.0537	16
128.0604	16
