Mass spectrum: Tributylhexadecylphosphonium; LC-ESI-QTOF; MS2; 100 V
Name: Tributylhexadecylphosphonium
Class: Pharmaceutical
Formula: [C28H60P]+
Exact mass: 427.4427
SMILES: CCCCCCCCCCCCCCCC[P+](CCCC)(CCCC)CCCC
InChI: InChI=1S/C28H60P/c1-5-9-13-14-15-16-17-18-19-20-21-22-23-24-28-29(25-10-6-2,26-11-7-3)27-12-8-4/h5-28H2,1-4H3/q+1
Instrument: TripleTOF 5600 SCIEX
Instrument type: LC-ESI-QTOF
Ms type: MS2
Ion mode: POSITIVE
Collision energy: 100
Fragmentation mode: CID
Ionization: ESI
Column name: Zorbax Eclipse Plus C18 2.1 mm x 150 mm, 3.5 um, Agilent
Retention time: 16.04 min
Precursor m/z: 427.4427
Precursor type: [M]+
m/z	relative intensity
56.9927	106
59.0084	123
61.0246	425
62.0315	319
75.0379	351
76.0463	999
89.0519	132
90.0593	216
103.0661	95
115.0665	67
117.0821	121
131.0976	225
145.1134	108
159.1301	57
173.1452	227
187.1604	104
215.1921	89
229.2075	169
