Mass spectrum: 2-Hydroxycarbamazepine; LC-ESI-QTOF; MS2; 130 V
Name: 2-Hydroxycarbamazepine
Class: Pharmaceutical; Metabolite; Transformation_product-Metabolite
Formula: C15H12N2O2
Exact mass: 252.0899
SMILES: NC(=O)N1c2ccccc2C=Cc3cc(O)ccc13
InChI: InChI=1S/C15H12N2O2/c16-15(19)17-13-4-2-1-3-10(13)5-6-11-9-12(18)7-8-14(11)17/h1-9,18H,(H2,16,19)
Instrument: TripleTOF 5600 SCIEX
Instrument type: LC-ESI-QTOF
Ms type: MS2
Ion mode: POSITIVE
Collision energy: 130
Fragmentation mode: CID
Ionization: ESI
Column name: Zorbax Eclipse Plus C18 2.1 mm x 150 mm, 3.5 um, Agilent
Retention time: 7.476 min
Precursor m/z: 253.0972
Precursor type: [M+H]+
m/z	relative intensity
44.0214	53
51.0286	838
52.0365	53
63.0593	35
64.0332	53
65.0438	169
73.0105	53
73.0172	44
74.0182	945
74.0449	44
75.0255	999
75.0512	44
76.0337	258
77.0403	811
78.048	151
85.0089	214
86.0158	570
87.0244	526
87.0405	44
88.02	80
88.0311	124
89.0403	945
97.009	53
98.0158	517
99.0224	294
100.0316	71
101.038	205
102.0452	347
109.0072	44
110.0144	178
111.023	115
113.0381	606
114.0333	89
115.0531	196
122.0142	98
123.0215	98
124.0317	62
125.0376	196
126.045	579
127.0392	44
127.0529	142
128.0492	62
129.042	44
137.0389	249
138.0449	98
139.0537	437
140.0482	205
149.0394	151
150.0464	981
151.0538	633
152.0599	445
153.0577	71
161.037	196
162.0449	231
163.0535	517
164.0512	169
175.0403	53
176.0517	124
177.0557	151
178.0629	187
188.0477	98
189.0601	53
190.0622	35
