Mass spectrum: Atenolol acid; LC-ESI-QTOF; MS2; 40 V
Name: Atenolol acid
Class: Pharmaceutical; Transformation_product-Metabolite
Formula: C14H21NO4
Exact mass: 267.1471
SMILES: CC(C)NCC(COC1=CC=C(C=C1)CC(=O)O)O
InChI: InChI=1S/C14H21NO4/c1-10(2)15-8-12(16)9-19-13-5-3-11(4-6-13)7-14(17)18/h3-6,10,12,15-16H,7-9H2,1-2H3,(H,17,18)
Instrument: TripleTOF 5600 SCIEX
Instrument type: LC-ESI-QTOF
Ms type: MS2
Ion mode: POSITIVE
Collision energy: 40
Fragmentation mode: CID
Ionization: ESI
Column name: Zorbax Eclipse Plus C18 2.1 mm x 150 mm, 3.5 um, Agilent
Retention time: 4.893 min
Precursor m/z: 268.1543
Precursor type: [M+H]+
m/z	relative intensity
39.0244	12
41.0388	20
43.0541	24
56.0496	279
58.0647	38
65.0378	16
72.0809	152
74.0598	154
77.0385	95
79.0546	148
81.0707	20
84.0804	14
89.0391	89
91.0552	197
95.0491	53
98.0966	114
100.1137	16
105.0705	12
107.0496	87
109.0648	46
115.0552	132
116.0641	12
116.1063	122
117.0355	26
117.0694	114
119.05	93
121.0639	14
123.0449	38
127.0565	24
133.0649	24
135.0446	71
137.0597	59
144.0583	18
145.0658	999
162.0934	12
163.0508	73
163.0767	32
165.0548	222
179.0722	30
191.0707	352
226.1069	142
250.1425	24
268.1548	487
