Mass spectrum: Thiabendazole; LC-ESI-QTOF; MS2; 60 V
Name: Thiabendazole
Class: Fungicide; Pharmaceutical
Formula: C10H7N3S
Exact mass: 201.0361
SMILES: [nH]1c2ccccc2nc1c3cscn3
InChI: InChI=1S/C10H7N3S/c1-2-4-8-7(3-1)12-10(13-8)9-5-14-6-11-9/h1-6H,(H,12,13)
Instrument: TripleTOF 5600 SCIEX
Instrument type: LC-ESI-QTOF
Ms type: MS2
Ion mode: POSITIVE
Collision energy: 60
Fragmentation mode: CID
Ionization: ESI
Column name: Zorbax Eclipse Plus C18 2.1 mm x 150 mm, 3.5 um, Agilent
Retention time: 5.203 min
Precursor m/z: 202.0433
Precursor type: [M+H]+
m/z	relative intensity
51.0306	18
65.044	907
66.0395	18
75.0264	13
77.0421	364
90.0352	74
91.0423	52
92.051	294
102.0345	54
103.0409	17
104.0499	444
106.9948	19
115.0426	16
116.0479	24
118.0523	88
129.0438	21
131.0606	999
134.0057	74
142.051	38
143.0598	157
156.0553	12
157.0605	9
175.032	159
202.0404	12
