Mass spectrum: Prallethrin; LC-ESI-QTOF; MS2; 50 V
Name: Prallethrin
Class: Insecticide
Formula: C19H24O3
Exact mass: 300.1725
SMILES: CC1=C(C(=O)CC1OC(=O)C2C(C2(C)C)C=C(C)C)CC#C
InChI: InChI=1S/C19H24O3/c1-7-8-13-12(4)16(10-15(13)20)22-18(21)17-14(9-11(2)3)19(17,5)6/h1,9,14,16-17H,8,10H2,2-6H3
Instrument: TripleTOF 6600 SCIEX
Instrument type: LC-ESI-QTOF
Ms type: MS2
Ion mode: POSITIVE
Collision energy: 50
Fragmentation mode: CID
Ionization: ESI
Column name: Zorbax Eclipse Plus C18 2.1 mm x 150 mm, 3.5 um, Agilent
Retention time: 14.861 min
Precursor m/z: 301.1798
Precursor type: [M+H]+
m/z	relative intensity
39.0233	13
41.0393	43
43.018	21
43.0548	31
50.0153	16
51.0238	60
53.0384	16
55.0183	63
55.0548	51
57.07	27
59.0502	24
65.0385	51
67.0546	101
69.034	12
69.07	76
77.0391	999
79.0547	911
81.07	366
83.0861	12
85.0653	15
90.0462	16
91.0543	95
93.0701	43
95.049	31
95.0857	67
103.0548	552
104.0635	15
105.0449	39
105.07	540
107.0864	15
109.0637	31
113.0604	10
115.0542	87
118.0415	21
119.0863	15
121.0651	25
121.1008	25
123.1167	89
128.0627	16
129.0693	12
131.0507	12
132.0567	10
133.065	28
141.0713	13
143.0844	25
