Mass spectrum: Dimethenamid-OA; LC-ESI-QTOF; MS2; 10 V
Name: Dimethenamid-OA
Class: Transformation_product; Herbicide; Transformation_product-Metabolite
Formula: C12H17NO4S
Exact mass: 271.0878
SMILES: Cc1csc(c1N(C(C)COC)C(=O)C(=O)O)C
InChI: InChI=1S/C12H17NO4S/c1-7-6-18-9(3)10(7)13(8(2)5-17-4)11(14)12(15)16/h6,8H,5H2,1-4H3,(H,15,16)
Instrument: TripleTOF 6600 SCIEX
Instrument type: LC-ESI-QTOF
Ms type: MS2
Ion mode: POSITIVE
Collision energy: 10
Fragmentation mode: CID
Ionization: ESI
Column name: Zorbax Eclipse Plus C18 2.1 mm x 150 mm, 3.5 um, Agilent
Retention time: 8.208 min
Precursor m/z: 272.0951
Precursor type: [M+H]+
m/z	relative intensity
196.0788	11
200.111	11
226.0907	19
240.0689	626
272.0949	999
