Mass spectrum: Tetracycline; LC-ESI-QTOF; MS2; 90 V
Name: Tetracycline
Class: Pharmaceutical
Formula: C22H24N2O8
Exact mass: 444.1533
SMILES: CC1(C2CC3C(C(=O)C(=C(C3(C(=O)C2=C(C4=C1C=CC=C4O)O)O)O)C(=O)N)N(C)C)O
InChI: InChI=1S/C22H24N2O8/c1-21(31)8-5-4-6-11(25)12(8)16(26)13-9(21)7-10-15(24(2)3)17(27)14(20(23)30)19(29)22(10,32)18(13)28/h4-6,9-10,15,25-26,29,31-32H,7H2,1-3H3,(H2,23,30)
Instrument: TripleTOF 5600 SCIEX
Instrument type: LC-ESI-QTOF
Ms type: MS2
Ion mode: POSITIVE
Collision energy: 90
Fragmentation mode: CID
Ionization: ESI
Column name: Zorbax Eclipse Plus C18 2.1 mm x 150 mm, 3.5 um, Agilent
Retention time: 5.46 min
Precursor m/z: 445.1605
Precursor type: [M+H]+
m/z	relative intensity
41.0417	27
42.0341	27
58.069	27
70.0657	27
98.0598	249
115.0582	83
139.0486	83
139.0567	27
140.0609	111
144.0553	27
147.0473	83
152.0623	499
153.0688	55
157.0677	27
164.0711	55
165.0704	277
167.0859	83
168.0576	499
169.0686	83
170.0703	27
171.0408	27
171.075	27
176.0641	194
177.0708	138
178.0781	138
180.0565	333
181.0677	166
187.0826	55
189.0664	55
189.0786	27
192.0626	83
195.0803	55
195.0955	27
196.0475	166
196.0537	222
197.0476	27
197.0681	111
198.0691	111
204.0582	83
205.0727	111
208.0474	27
210.0726	138
213.0517	83
220.0465	27
221.0554	27
223.0785	138
224.0424	138
225.0637	55
226.0625	999
237.0649	27
238.0675	111
242.0453	55
252.0404	55
252.0545	27
254.0477	83
