Mass spectrum: Aminophenazone; LC-ESI-QTOF; MS2; 110 V
Name: Aminophenazone
Class: Pharmaceutical; Transformation_product-Metabolite
Formula: C13H17N3O
Exact mass: 231.1372
SMILES: CC1=C(C(=O)N(N1C)C2=CC=CC=C2)N(C)C
InChI: InChI=1S/C13H17N3O/c1-10-12(14(2)3)13(17)16(15(10)4)11-8-6-5-7-9-11/h5-9H,1-4H3
Instrument: TripleTOF 5600 SCIEX
Instrument type: LC-ESI-QTOF
Ms type: MS2
Ion mode: POSITIVE
Collision energy: 110
Fragmentation mode: CID
Ionization: ESI
Column name: Zorbax Eclipse Plus C18 2.1 mm x 150 mm, 3.5 um, Agilent
Retention time: 4.71 min
Precursor m/z: 232.1444
Precursor type: [M+H]+
m/z	relative intensity
42.0482	369
43.0557	28
54.0443	84
55.05	40
56.0588	999
57.0689	16
58.0726	216
68.0546	60
70.073	60
74.0197	16
77.0443	204
78.0539	16
79.0617	20
81.0507	72
82.0584	16
83.0668	72
89.0414	24
97.0797	212
