Mass spectrum: m-Hydroxybenzoylecgonine; LC-ESI-QTOF; MS2; 40 V
Name: m-Hydroxybenzoylecgonine
Class: Metabolite
Formula: C16H19NO5
Exact mass: 305.1263
SMILES: CN1C2CCC1C(C(C2)OC(=O)C3=CC(=CC=C3)O)C(=O)O
InChI: InChI=1S/C16H19NO5/c1-17-10-5-6-12(17)14(15(19)20)13(8-10)22-16(21)9-3-2-4-11(18)7-9/h2-4,7,10,12-14,18H,5-6,8H2,1H3,(H,19,20)
Instrument: TripleTOF 6600 SCIEX
Instrument type: LC-ESI-QTOF
Ms type: MS2
Ion mode: NEGATIVE
Collision energy: 40
Fragmentation mode: CID
Ionization: ESI
Column name: Zorbax Eclipse Plus C18 2.1 mm x 150 mm, 3.5 um, Agilent
Retention time: 5.39 min
Precursor m/z: 304.1192
Precursor type: [M-H]-
m/z	relative intensity
93.0335	999
137.023	696
