Mass spectrum: Tiapride; LC-ESI-QTOF; MS2; 70 V
Name: Tiapride
Class: Pharmaceutical
Formula: C15H24N2O4S
Exact mass: 328.1457
SMILES: CCN(CC)CCNC(=O)C1=C(C=CC(=C1)S(=O)(=O)C)OC
InChI: InChI=1S/C15H24N2O4S/c1-5-17(6-2)10-9-16-15(18)13-11-12(22(4,19)20)7-8-14(13)21-3/h7-8,11H,5-6,9-10H2,1-4H3,(H,16,18)
Instrument: TripleTOF 5600 SCIEX
Instrument type: LC-ESI-QTOF
Ms type: MS2
Ion mode: POSITIVE
Collision energy: 70
Fragmentation mode: CID
Ionization: ESI
Column name: Zorbax Eclipse Plus C18 2.1 mm x 150 mm, 3.5 um, Agilent
Retention time: 4.856 min
Precursor m/z: 329.153
Precursor type: [M+H]+
m/z	relative intensity
44.0607	20
45.0453	19
65.0453	57
66.0529	10
72.086	20
76.0364	208
77.0436	143
78.0514	380
78.9903	12
79.0571	79
81.0385	11
90.037	20
91.0205	41
91.0571	28
92.0278	11
93.0369	13
94.0436	28
97.0141	12
100.1142	23
103.044	27
104.0511	228
105.0356	73
105.0584	147
106.0427	75
106.0669	35
107.0142	72
107.0507	43
109.0124	36
110.0202	14
117.0576	15
118.0301	20
119.0143	69
122.0363	20
132.045	52
133.0529	484
134.0373	999
135.0072	28
148.0764	17
154.9801	53
155.0176	27
162.0553	257
170.0035	10
177.0794	330
178.0501	125
181.9905	19
182.9739	10
183.0212	32
185.0258	27
197.9979	12
212.0372	33
213.0223	324
