Mass spectrum: 4-[(4-Aminophenyl)(4-iminocyclohexa-2,5-dien-1-ylidene)methyl]-2-methylaniline; LC-ESI-QTOF; MS2; 70 V
Name: 4-[(4-Aminophenyl)(4-iminocyclohexa-2,5-dien-1-ylidene)methyl]-2-methylaniline
Formula: C20H19N3
Exact mass: 301.1579
SMILES: CC1=CC(=C(C2=CC=C(C=C2)N)C3=CC=C(C=C3)N)C=CC1=N
InChI: InChI=1S/C20H19N3/c1-13-12-16(6-11-19(13)23)20(14-2-7-17(21)8-3-14)15-4-9-18(22)10-5-15/h2-12,23H,21-22H2,1H3
Instrument: TripleTOF X500R SCIEX
Instrument type: LC-ESI-QTOF
Ms type: MS2
Ion mode: POSITIVE
Collision energy: 70
Fragmentation mode: CID
Ionization: ESI
Column name: Zorbax Eclipse Plus C18 2.1 mm x 150 mm, 3.5 um, Agilent
Retention time: 7.598 min
Precursor m/z: 302.1652
Precursor type: [M+H]+
m/z	relative intensity
42.0347	17
77.0389	37
79.0554	26
89.0379	20
91.0544	26
93.0582	17
101.0362	11
103.0544	26
106.0649	116
113.0396	23
114.0473	26
115.0547	200
116.062	46
117.0568	26
118.0655	29
125.041	14
126.0466	26
127.055	116
128.0623	72
130.0661	69
139.055	226
140.0547	151
141.0698	156
142.0666	20
143.0732	151
149.0384	49
150.0471	287
151.0547	595
152.0617	252
153.0676	165
154.065	119
155.0615	11
155.077	14
156.082	26
163.0552	142
164.0628	293
165.0703	894
166.0464	20
166.0654	336
167.0735	999
168.0801	284
169.0786	34
174.0469	17
175.0534	23
176.0546	110
177.0588	220
178.0423	11
178.066	421
179.0697	116
180.0812	604
181.0878	197
182.0927	46
187.0556	20
188.0588	23
189.07	107
190.0652	220
191.074	328
192.077	409
193.0821	612
194.0845	278
195.0921	423
199.0553	14
200.0626	69
201.0699	95
202.0769	185
203.0808	72
204.0823	95
205.0814	34
205.1003	11
206.0921	49
207.0928	124
208.1	278
209.1073	174
213.0714	121
214.0714	87
215.0852	153
216.0821	75
217.0897	232
218.0938	69
219.094	87
221.1067	20
224.0621	46
225.0714	101
226.0785	328
227.0746	182
228.0583	14
228.0839	162
229.0848	78
230.0973	241
231.093	69
232.0994	75
233.1087	34
237.0696	69
238.0647	43
239.0849	223
240.081	168
241.0887	377
242.0944	241
243.1017	243
244.1061	75
245.0788	17
245.1083	272
246.1133	34
247.1194	11
249.065	23
250.0808	84
251.0747	226
252.0826	328
253.0886	258
253.1145	14
254.0968	455
255.0961	203
256.101	130
257.1084	107
258.1149	159
259.12	49
260.1167	17
264.0812	40
265.0874	55
266.0946	87
267.1015	272
268.1026	322
269.071	31
269.1086	769
270.1062	255
271.122	336
272.1173	40
272.139	14
281.1079	29
282.1157	72
283.122	95
283.1519	14
284.1189	124
285.1379	151
286.1343	322
298.1312	20
300.1538	31
