Mass spectrum: Bisphenol-A bis(diphenyl phosphate); LC-ESI-QTOF; MS2; 120 V
Name: Bisphenol-A bis(diphenyl phosphate)
Class: Industrial_process
Formula: C39H34O8P2
Exact mass: 692.1729
SMILES: CC(C)(C1=CC=C(C=C1)OP(=O)(OC2=CC=CC=C2)OC3=CC=CC=C3)C4=CC=C(C=C4)OP(=O)(OC5=CC=CC=C5)OC6=CC=CC=C6
InChI: InChI=1S/C39H34O8P2/c1-39(2,31-23-27-37(28-24-31)46-48(40,42-33-15-7-3-8-16-33)43-34-17-9-4-10-18-34)32-25-29-38(30-26-32)47-49(41,44-35-19-11-5-12-20-35)45-36-21-13-6-14-22-36/h3-30H,1-2H3
Instrument: TripleTOF 6600 SCIEX
Instrument type: LC-ESI-QTOF
Ms type: MS2
Ion mode: POSITIVE
Collision energy: 120
Fragmentation mode: CID
Ionization: ESI
Column name: Zorbax Eclipse Plus C18 2.1 mm x 150 mm, 3.5 um, Agilent
Retention time: 17.714 min
Precursor m/z: 693.1802
Precursor type: [M+H]+
m/z	relative intensity
51.0227	48
65.0379	68
77.038	433
79.0543	19
89.0379	29
91.0535	414
95.0489	24
103.0535	34
105.0684	63
107.0477	48
115.0532	999
116.0602	73
117.068	48
127.0533	29
128.0603	38
133.0199	48
133.0627	43
138.9929	38
139.0527	58
140.0015	24
141.0686	29
151.0536	126
152.0613	906
153.0688	151
155.0854	87
164.0603	34
165.0685	165
168.056	828
175.014	29
176.0616	116
177.0683	131
178.0767	765
179.024	38
180.0315	29
181.0637	43
187.0286	63
189.0689	38
190.0763	24
191.0841	68
192.0912	24
193.0612	29
208.0874	19
215.0248	399
226.0775	43
227.0832	38
228.0932	107
233.0354	29
239.0846	87
252.0915	73
253.1003	34
255.0566	24
