Mass spectrum: 2,6-Dichlorodiphenylamine; LC-ESI-QTOF; MS2; 100 V
Name: 2,6-Dichlorodiphenylamine
Class: Pharmaceutical
Formula: C12H9Cl2N
Exact mass: 237.0112
SMILES: C1=CC=C(C=C1)NC2=C(C=CC=C2Cl)Cl
InChI: InChI=1S/C12H9Cl2N/c13-10-7-4-8-11(14)12(10)15-9-5-2-1-3-6-9/h1-8,15H
Instrument: TripleTOF 5600 SCIEX
Instrument type: LC-ESI-QTOF
Ms type: MS2
Ion mode: POSITIVE
Collision energy: 100
Fragmentation mode: CID
Ionization: ESI
Column name: Zorbax Eclipse Plus C18 2.1 mm x 150 mm, 3.5 um, Agilent
Retention time: 14.125 min
Precursor m/z: 238.0185
Precursor type: [M+H]+
m/z	relative intensity
65.0449	585
66.0528	516
72.9895	895
77.0457	482
82.9484	206
87.0259	172
88.0235	206
89.0415	516
90.0373	620
92.0546	241
93.058	482
99.0007	206
113.0416	378
114.0465	172
115.0591	206
139.056	999
140.05	620
166.0679	137
