Mass spectrum: Enilconazole; LC-ESI-QTOF; MS2; 90 V
Name: Enilconazole
Class: Pharmaceutical; Fungicide; Biocide
Formula: C14H14Cl2N2O
Exact mass: 296.0483
SMILES: Clc1ccc(C(Cn2ccnc2)OCC=C)c(Cl)c1
InChI: InChI=1S/C14H14Cl2N2O/c1-2-7-19-14(9-18-6-5-17-10-18)12-4-3-11(15)8-13(12)16/h2-6,8,10,14H,1,7,9H2
Instrument: TripleTOF 5600 SCIEX
Instrument type: LC-ESI-QTOF
Ms type: MS2
Ion mode: POSITIVE
Collision energy: 90
Fragmentation mode: CID
Ionization: ESI
Column name: Zorbax Eclipse Plus C18 2.1 mm x 150 mm, 3.5 um, Agilent
Retention time: 8.159 min
Precursor m/z: 297.0556
Precursor type: [M+H]+
m/z	relative intensity
54.0414	152
67.0473	152
69.0477	694
69.0658	108
72.9869	369
75.0273	152
81.0467	738
82.0537	130
89.0399	999
96.9838	108
99.0004	282
101.0386	130
102.0463	152
115.0537	412
122.9995	499
124.0074	173
128.0597	217
132.9599	217
158.977	260
