Mass spectrum: Flunixin; LC-ESI-QTOF; MS2; 80 V
Name: Flunixin
Class: Pharmaceutical
Formula: C14H11F3N2O2
Exact mass: 296.0773
SMILES: CC1=C(C=CC=C1NC2=C(C=CC=N2)C(=O)O)C(F)(F)F
InChI: InChI=1S/C14H11F3N2O2/c1-8-10(14(15,16)17)5-2-6-11(8)19-12-9(13(20)21)4-3-7-18-12/h2-7H,1H3,(H,18,19)(H,20,21)
Instrument: TripleTOF 5600 SCIEX
Instrument type: LC-ESI-QTOF
Ms type: MS2
Ion mode: POSITIVE
Collision energy: 80
Fragmentation mode: CID
Ionization: ESI
Column name: Zorbax Eclipse Plus C18 2.1 mm x 150 mm, 3.5 um, Agilent
Retention time: 11.023 min
Precursor m/z: 297.0845
Precursor type: [M+H]+
m/z	relative intensity
51.0347	23
57.0231	42
59.0375	19
74.0208	17
75.0283	31
77.0437	35
78.0399	97
79.0479	23
83.0344	454
87.028	17
88.029	14
89.0431	110
90.0496	15
92.0413	13
93.0176	44
93.0497	13
95.0336	22
98.0182	145
99.0261	463
101.0404	14
102.0445	11
106.0672	34
107.0318	34
108.0382	17
109.047	999
113.0401	101
114.0356	41
115.0526	25
116.0509	10
117.0595	11
119.0315	187
124.0208	11
125.0207	19
125.0392	13
126.0478	24
127.0558	216
128.0513	66
129.054	14
131.0313	31
132.0381	82
133.0293	12
133.0461	26
134.0413	20
135.0489	20
137.0391	44
138.0322	79
139.0412	86
140.0509	700
141.0513	31
142.0531	19
143.0275	12
144.0274	22
145.0272	79
146.04	10
147.0357	57
148.0203	12
150.0344	14
151.0372	27
152.0511	36
153.0585	72
154.0663	217
155.061	46
156.0367	28
157.0461	168
158.0409	242
159.0482	90
160.0419	23
161.0217	14
162.0304	55
163.0387	77
164.0505	201
165.0438	90
166.0537	148
167.029	17
167.0611	156
168.0254	28
168.069	18
169.0306	32
170.0187	17
170.0375	40
171.05	11
172.0392	11
174.05	28
175.0348	25
176.0325	31
177.0467	18
179.0615	165
180.0694	167
181.027	14
181.0772	492
182.0369	201
183.0483	85
184.0559	165
185.0488	76
186.0597	325
187.0374	31
188.0321	67
189.0391	176
190.048	108
191.058	56
192.0689	24
193.0326	14
194.0423	23
195.0398	40
196.0411	36
197.0515	92
199.0699	17
202.0466	36
203.0528	21
208.0372	93
208.0642	16
209.0596	195
210.0589	159
211.0661	34
213.0414	25
214.0469	20
215.0421	127
216.0494	49
217.0577	300
222.0509	16
228.0482	24
229.0579	34
230.0665	14
235.049	254
236.0553	233
237.0431	19
239.0621	11
248.0595	11
249.0649	55
263.0448	33
264.0508	30
