Mass spectrum: Indoxacarb; LC-ESI-QTOF; MS2; 80 V
Name: Indoxacarb
Class: Insecticide
Formula: C22H17ClF3N3O7
Exact mass: 527.0707
SMILES: COC(=O)[C@]12Cc3cc(ccc3C1=NN(CO2)C(=O)N(c4ccc(cc4)OC(F)(F)F)C(=O)OC)Cl
InChI: InChI=1S/C22H17ClF3N3O7/c1-33-18(30)21-10-12-9-13(23)3-8-16(12)17(21)27-28(11-35-21)19(31)29(20(32)34-2)14-4-6-15(7-5-14)36-22(24,25)26/h3-9H,10-11H2,1-2H3/t21-/m0/s1
Instrument: TripleTOF 5600 SCIEX
Instrument type: LC-ESI-QTOF
Ms type: MS2
Ion mode: POSITIVE
Collision energy: 80
Fragmentation mode: CID
Ionization: ESI
Column name: Zorbax Eclipse Plus C18 2.1 mm x 150 mm, 3.5 um, Agilent
Retention time: 15.019 min
Precursor m/z: 528.078
Precursor type: [M+H]+
m/z	relative intensity
56.0206	86
59.0182	28
68.999	23
77.0423	65
78.0371	33
89.0399	10
90.0353	17
95.0299	10
99.0242	17
101.0382	10
102.0469	14
104.0506	73
106.03	111
113.0388	20
114.0344	35
115.0547	87
116.0621	44
122.9998	87
124.0063	15
126.0369	89
127.0431	188
128.0619	84
132.0444	46
134.0247	508
134.999	25
136.007	25
137.0157	26
140.0495	15
141.0559	23
142.0653	46
146.9999	19
148.0067	36
149.0159	134
150.0112	535
152.0022	72
154.0405	41
155.0604	38
157.0287	21
161.0044	46
162.0114	446
163.0221	39
164.0251	54
165.0332	15
167.0258	75
175.0217	86
176.0213	62
177.0332	34
179.0257	42
189.0215	54
190.0047	22
190.0471	50
195.021	23
203.0192	999
204.0083	38
207.0192	11
217.0161	11
218.0416	10
