Mass spectrum: Nadolol; LC-ESI-QTOF; MS2; 90 V
Name: Nadolol
Class: Pharmaceutical
Formula: C17H27NO4
Exact mass: 309.194
SMILES: CC(C)(C)NCC(COC1=CC=CC2=C1CC(C(C2)O)O)O
InChI: InChI=1S/C17H27NO4/c1-17(2,3)18-9-12(19)10-22-16-6-4-5-11-7-14(20)15(21)8-13(11)16/h4-6,12,14-15,18-21H,7-10H2,1-3H3
Instrument: TripleTOF 5600 SCIEX
Instrument type: LC-ESI-QTOF
Ms type: MS2
Ion mode: POSITIVE
Collision energy: 90
Fragmentation mode: CID
Ionization: ESI
Column name: Zorbax Eclipse Plus C18 2.1 mm x 150 mm, 3.5 um, Agilent
Retention time: 5.13 min
Precursor m/z: 310.2013
Precursor type: [M+H]+
m/z	relative intensity
56.0544	141
57.0749	76
63.0312	26
65.0423	106
74.0625	53
75.0243	15
77.0413	362
77.0744	26
78.0481	57
78.0594	19
79.0572	49
89.0401	80
91.0562	648
101.0435	22
102.0489	49
102.0583	19
103.0553	183
104.0634	45
105.0714	49
107.0509	53
115.0555	999
116.0617	122
117.0711	57
126.0465	53
127.0547	339
128.0626	674
129.0691	57
131.0493	202
132.0596	53
139.0535	57
140.0622	19
141.0705	64
144.0591	34
145.0642	26
150.0492	19
151.0545	26
152.0616	114
153.0688	80
157.0626	26
165.0744	26
168.0549	15
