Mass spectrum: Epirubicin; LC-ESI-QTOF; MS2; 140 V
Name: Epirubicin
Class: Pharmaceutical
Formula: C27H29NO11
Exact mass: 543.1741
SMILES: CC1C(C(CC(O1)OC2CC(CC3=C(C4=C(C(=C23)O)C(=O)C5=C(C4=O)C=CC=C5OC)O)(C(=O)CO)O)N)O
InChI: InChI=1S/C27H29NO11/c1-10-22(31)13(28)6-17(38-10)39-15-8-27(36,16(30)9-29)7-12-19(15)26(35)21-20(24(12)33)23(32)11-4-3-5-14(37-2)18(11)25(21)34/h3-5,10,13,15,17,22,29,31,33,35-36H,6-9,28H2,1-2H3
Instrument: TripleTOF 5600 SCIEX
Instrument type: LC-ESI-QTOF
Ms type: MS2
Ion mode: POSITIVE
Collision energy: 140
Fragmentation mode: CID
Ionization: ESI
Column name: Zorbax Eclipse Plus C18 2.1 mm x 150 mm, 3.5 um, Agilent
Retention time: 7.492 min
Precursor m/z: 544.1813
Precursor type: [M+H]+
m/z	relative intensity
44.0569	72
60.0475	86
68.0529	72
69.0357	115
72.0477	57
77.0388	144
86.06	173
89.0399	130
102.0459	101
113.0368	57
115.0521	130
116.0247	57
118.0396	57
128.0215	57
129.0344	101
139.0518	86
144.0236	57
145.025	86
150.0466	173
151.0535	202
152.0609	144
163.0538	57
164.059	86
165.068	405
175.056	130
176.0613	999
177.0692	231
178.0768	130
187.0523	419
188.0615	173
189.0694	680
200.0625	159
201.0683	202
202.0754	448
204.0551	159
205.0646	390
217.0657	115
221.0603	101
233.0653	72
249.0521	130
289.0506	72
