Mass spectrum: Atrazine-desisopropyl-2-hydroxy; LC-ESI-QTOF; MS2; 40 V
Name: Atrazine-desisopropyl-2-hydroxy
Class: Herbicide; Transformation_product
Formula: C5H9N5O
Exact mass: 155.0807
SMILES: CCNC1=NC(=O)N=C(N)N1
InChI: InChI=1S/C5H9N5O/c1-2-7-4-8-3(6)9-5(11)10-4/h2H2,1H3,(H4,6,7,8,9,10,11)
Instrument: TripleTOF 5600 SCIEX
Instrument type: LC-ESI-QTOF
Ms type: CID
Ion mode: NEGATIVE
Collision energy: 40
Ionization: ESI
Column name: Zorbax Eclipse Plus C18 2.1 mm x 150 mm, 3.5 um, Agilent
Retention time: 2.315 min
Precursor m/z: 154.0734
Precursor type: [M-H]-
m/z	relative intensity
41.0177	999
41.0424	76
42.0017	461
42.0139	76
42.0236	76
66.0097	76
69.0466	537
69.0571	153
