Mass spectrum: Clenbuterol; LC-ESI-QTOF; MS2; 120 V
Name: Clenbuterol
Class: Pharmaceutical; Transformation_product-Metabolite
Formula: C12H18Cl2N2O
Exact mass: 276.0796
SMILES: CC(C)(C)NCC(c1cc(c(c(c1)Cl)N)Cl)O
InChI: InChI=1S/C12H18Cl2N2O/c1-12(2,3)16-6-10(17)7-4-8(13)11(15)9(14)5-7/h4-5,10,16-17H,6,15H2,1-3H3
Instrument: TripleTOF 5600 SCIEX
Instrument type: LC-ESI-QTOF
Ms type: MS2
Ion mode: POSITIVE
Collision energy: 120
Fragmentation mode: CID
Ionization: ESI
Column name: Zorbax Eclipse Plus C18 2.1 mm x 150 mm, 3.5 um, Agilent
Retention time: 6.115 min
Precursor m/z: 277.0869
Precursor type: [M+H]+
m/z	relative intensity
42.0439	15
52.0241	15
57.0755	137
58.0696	58
64.0357	15
65.0434	39
67.0479	27
72.9873	76
74.018	100
74.0332	15
75.0257	143
76.0209	39
76.0331	24
77.0416	999
77.0756	18
78.0371	140
78.0487	125
79.045	45
79.0543	33
80.0523	58
86.0161	15
87.0243	12
88.0327	45
89.0405	305
90.0353	61
90.0486	24
91.0427	24
92.0546	15
96.9853	21
99.0001	27
102.035	45
104.0501	834
105.0582	125
106.0666	48
113.0172	24
114.0337	24
115.0425	12
116.0495	24
117.056	54
122.9988	24
127.0185	18
131.0602	161
132.0683	54
138.0113	15
140.0259	51
