Mass spectrum: (Ethoxycarbonylmethyl)triphenylphosphonium; LC-ESI-QTOF; MS2; 140 V
Name: (Ethoxycarbonylmethyl)triphenylphosphonium
Formula: [C22H22O2P]+
Exact mass: 349.1352
SMILES: CCOC(=O)C[P+](C1=CC=CC=C1)(C2=CC=CC=C2)C3=CC=CC=C3
InChI: InChI=1S/C22H22O2P/c1-2-24-22(23)18-25(19-12-6-3-7-13-19,20-14-8-4-9-15-20)21-16-10-5-11-17-21/h3-17H,2,18H2,1H3/q+1
Instrument: TripleTOF 6600 SCIEX
Instrument type: LC-ESI-QTOF
Ms type: MS2
Ion mode: POSITIVE
Collision energy: 140
Fragmentation mode: CID
Ionization: ESI
Column name: Zorbax Eclipse Plus C18 2.1 mm x 150 mm, 3.5 um, Agilent
Retention time: 8 min
Precursor m/z: 349.1352
Precursor type: [M]+
m/z	relative intensity
51.0212	88
56.9867	105
62.0127	56
63.0205	215
65.0362	104
74.0122	84
76.0273	85
77.0355	104
78.97	60
79.9776	204
80.9856	293
87.019	79
89.0344	363
102.0429	163
107.0009	963
113.0347	139
115.0503	448
126.0429	353
131.0009	128
133.0167	78
139.0506	424
150.0432	293
151.0508	648
152.0591	999
155.0013	73
156.0093	126
157.017	581
163.0521	66
165.0663	64
179.0001	66
180.0093	81
181.0174	551
183.0327	144
226.0752	83
