Mass spectrum: Ofloxacin; LC-ESI-QTOF; MS2; 40 V
Name: Ofloxacin
Class: Antimicrobial; Pharmaceutical
Formula: C18H20FN3O4
Exact mass: 361.1438
SMILES: CC1COC2=C3N1C=C(C(=O)C3=CC(=C2N4CCN(CC4)C)F)C(=O)O
InChI: InChI=1S/C18H20FN3O4/c1-10-9-26-17-14-11(16(23)12(18(24)25)8-22(10)14)7-13(19)15(17)21-5-3-20(2)4-6-21/h7-8,10H,3-6,9H2,1-2H3,(H,24,25)
Instrument: TripleTOF 5600 SCIEX
Instrument type: LC-ESI-QTOF
Ms type: MS2
Ion mode: POSITIVE
Collision energy: 40
Fragmentation mode: CID
Ionization: ESI
Column name: Zorbax Eclipse Plus C18 2.1 mm x 150 mm, 3.5 um, Agilent
Retention time: 5.185 min
Precursor m/z: 362.1511
Precursor type: [M+H]+
m/z	relative intensity
58.0718	20
70.0712	32
72.0871	22
122.042	12
150.0332	18
158.0214	14
176.0512	10
178.0288	33
179.0366	76
180.048	11
185.0727	11
191.0625	11
192.0436	22
193.0418	36
194.0531	48
195.0498	12
199.0502	35
200.0572	16
201.0678	12
202.0666	11
203.0338	14
203.062	16
204.0445	24
204.0687	10
205.0379	124
205.0751	51
206.0499	12
207.0567	11
217.0386	16
218.0528	22
219.057	142
220.0659	28
221.0719	194
225.0913	15
226.0681	11
226.0977	19
227.0696	14
231.022	14
231.0528	18
232.0772	10
233.0723	50
234.0865	12
235.0857	15
241.0928	23
245.071	27
246.0744	11
247.0857	76
252.0766	12
253.119	57
254.0956	18
255.1066	18
258.0666	12
261.1027	999
267.074	16
268.0728	19
268.1089	106
268.1462	20
270.1209	29
273.0995	37
275.1142	12
280.0708	10
281.0869	12
286.0584	15
296.1085	50
296.1338	59
298.1478	18
301.0874	103
301.1206	16
316.1078	63
316.1441	110
318.1599	612
324.131	38
344.1389	717
362.1494	262
