Mass spectrum: Hydroxytorasemide; LC-ESI-QTOF; MS2; 50 V
Name: Hydroxytorasemide
Class: Pharmaceutical; Transformation_product
Formula: C16H20N4O4S
Exact mass: 364.1205
SMILES: CC(C)NC(=O)NS(=O)(=O)c1cnccc1Nc2cccc(c2)CO
InChI: InChI=1S/C16H20N4O4S/c1-11(2)18-16(22)20-25(23,24)15-9-17-7-6-14(15)19-13-5-3-4-12(8-13)10-21/h3-9,11,21H,10H2,1-2H3,(H,17,19)(H2,18,20,22)
Instrument: TripleTOF 5600 SCIEX
Instrument type: LC-ESI-QTOF
Ms type: MS2
Ion mode: POSITIVE
Collision energy: 50
Fragmentation mode: CID
Ionization: ESI
Column name: Zorbax Eclipse Plus C18 2.1 mm x 150 mm, 3.5 um, Agilent
Retention time: 5.824 min
Precursor m/z: 365.1278
Precursor type: [M+H]+
m/z	relative intensity
115.0538	58
125.0165	84
128.0488	16
137.0159	18
142.0644	35
152.0042	46
153.0112	17
154.0642	30
156.0666	15
168.0678	171
169.075	999
181.0753	471
182.0836	94
184.0624	28
185.0715	34
187.0315	38
188.0398	16
189.0475	87
197.0707	110
198.0789	20
199.086	122
200.0431	17
201.0568	31
205.0435	21
214.0731	63
215.0816	66
216.0343	52
217.0421	82
228.0345	31
233.0374	190
245.0374	124
246.0426	17
263.0473	50
280.0746	403
306.0539	33
