Mass spectrum: 10,11-Dihydro-10,11-epoxycarbamazepine; LC-ESI-QTOF; MS2; 70 V
Name: 10,11-Dihydro-10,11-epoxycarbamazepine
Class: Metabolite; Pharmaceutical; Transformation_product-Metabolite
Formula: C15H12N2O2
Exact mass: 252.0899
SMILES: C1=CC=C2C(=C1)C3C(O3)C4=CC=CC=C4N2C(=O)N
InChI: InChI=1S/C15H12N2O2/c16-15(18)17-11-7-3-1-5-9(11)13-14(19-13)10-6-2-4-8-12(10)17/h1-8,13-14H,(H2,16,18)
Instrument: TripleTOF 5600 SCIEX
Instrument type: LC-ESI-QTOF
Ms type: MS2
Ion mode: POSITIVE
Collision energy: 70
Fragmentation mode: CID
Ionization: ESI
Column name: Zorbax Eclipse Plus C18 2.1 mm x 150 mm, 3.5 um, Agilent
Retention time: 7.593 min
Precursor m/z: 253.0972
Precursor type: [M+H]+
m/z	relative intensity
77.038	29
101.0384	21
115.0534	17
126.0452	13
127.0545	51
128.0492	68
139.054	53
140.0522	42
150.0462	20
151.0541	152
152.0616	409
153.0652	61
154.0654	25
163.0536	10
164.0608	19
165.0684	33
166.0645	93
167.0721	193
177.0564	39
178.0649	255
179.0725	371
180.0802	999
191.0727	24
192.0803	25
