Mass spectrum: Nilotinib; LC-ESI-QTOF; MS2; 140 V
Name: Nilotinib
Class: Pharmaceutical
Formula: C28H22F3N7O
Exact mass: 529.1838
SMILES: Cc1cn(cn1)c2cc(NC(=O)c3ccc(C)c(Nc4nccc(n4)c5cccnc5)c3)cc(c2)C(F)(F)F
InChI: InChI=1S/C28H22F3N7O/c1-17-5-6-19(10-25(17)37-27-33-9-7-24(36-27)20-4-3-8-32-14-20)26(39)35-22-11-21(28(29,30)31)12-23(13-22)38-15-18(2)34-16-38/h3-16H,1-2H3,(H,35,39)(H,33,36,37)
Instrument: TripleTOF 5600 SCIEX
Instrument type: LC-ESI-QTOF
Ms type: MS2
Ion mode: POSITIVE
Collision energy: 140
Fragmentation mode: CID
Ionization: ESI
Column name: Zorbax Eclipse Plus C18 2.1 mm x 150 mm, 3.5 um, Agilent
Retention time: 8.404 min
Precursor m/z: 530.1911
Precursor type: [M+H]+
m/z	relative intensity
75.0257	42
77.0404	146
77.0573	30
78.0363	146
79.0451	24
89.0406	97
91.0558	42
101.0407	30
102.0363	127
103.0431	48
104.0494	182
104.0753	30
105.0458	24
113.0427	30
114.0331	24
115.0438	36
116.0352	30
116.0485	67
117.0597	42
125.0213	48
128.0498	54
129.0453	109
130.0498	42
131.06	127
140.0488	42
142.0528	85
143.0593	36
145.0255	60
151.0385	30
151.0488	24
152.0349	30
152.051	24
153.0391	48
153.0606	24
155.0614	54
156.0552	109
164.0478	36
165.0591	42
166.048	30
167.0647	30
170.0739	30
177.0471	60
182.0694	30
189.0511	48
190.0537	97
191.059	109
192.0713	91
193.0629	109
194.0695	48
203.0601	30
204.0556	67
205.0772	91
206.069	73
207.0853	48
208.0834	30
215.0631	30
216.0589	85
216.0719	36
217.0655	194
218.0718	127
219.0825	54
220.0895	42
230.0699	85
231.08	67
232.0861	109
243.0666	207
244.0746	999
245.0841	182
256.0737	54
257.0803	737
258.0897	213
259.1	536
