Mass spectrum: Dimethenamid-OA; LC-ESI-QTOF; MS2; 40 V
Name: Dimethenamid-OA
Class: Transformation_product; Herbicide; Transformation_product-Metabolite
Formula: C12H17NO4S
Exact mass: 271.0878
SMILES: Cc1csc(c1N(C(C)COC)C(=O)C(=O)O)C
InChI: InChI=1S/C12H17NO4S/c1-7-6-18-9(3)10(7)13(8(2)5-17-4)11(14)12(15)16/h6,8H,5H2,1-4H3,(H,15,16)
Instrument: TripleTOF 6600 SCIEX
Instrument type: LC-ESI-QTOF
Ms type: MS2
Ion mode: POSITIVE
Collision energy: 40
Fragmentation mode: CID
Ionization: ESI
Column name: Zorbax Eclipse Plus C18 2.1 mm x 150 mm, 3.5 um, Agilent
Retention time: 8.208 min
Precursor m/z: 272.0951
Precursor type: [M+H]+
m/z	relative intensity
39.0235	36
41.0392	64
45.034	128
58.9957	64
65.0387	73
67.0549	64
73.0651	219
77.0379	82
79.0558	64
82.0641	45
85.0104	45
92.0501	45
93.0582	82
93.0708	45
94.0662	219
95.0728	73
97.0114	91
99.0261	100
104.0496	100
105.0575	183
111.0268	751
112.0345	100
113.0418	119
118.0672	45
120.0462	91
120.081	109
125.0424	119
126.0373	999
127.0209	82
128.0521	45
132.0809	82
133.089	109
134.0964	64
135.1041	109
136.0209	64
138.0378	568
140.0504	45
150.0386	54
151.0445	45
151.0564	64
152.0152	91
152.0531	201
153.0613	82
154.0325	366
155.0417	64
166.0691	183
168.0831	293
194.0639	54
196.0783	64
240.069	650
