Mass spectrum: Celiprolol; LC-ESI-QTOF; MS2; 90 V
Name: Celiprolol
Class: Pharmaceutical
Formula: C20H33N3O4
Exact mass: 379.2471
SMILES: CCN(CC)C(=O)NC1=CC(=C(C=C1)OCC(CNC(C)(C)C)O)C(=O)C
InChI: InChI=1S/C20H33N3O4/c1-7-23(8-2)19(26)22-15-9-10-18(17(11-15)14(3)24)27-13-16(25)12-21-20(4,5)6/h9-11,16,21,25H,7-8,12-13H2,1-6H3,(H,22,26)
Instrument: TripleTOF 5600 SCIEX
Instrument type: LC-ESI-QTOF
Ms type: MS2
Ion mode: POSITIVE
Collision energy: 90
Fragmentation mode: CID
Ionization: ESI
Column name: Zorbax Eclipse Plus C18 2.1 mm x 150 mm, 3.5 um, Agilent
Retention time: 6.532 min
Precursor m/z: 380.2544
Precursor type: [M+H]+
m/z	relative intensity
43.0267	62
44.0216	284
44.0576	40
56.0563	999
57.04	16
57.0758	235
58.0719	10
65.0427	91
72.0481	365
72.0891	10
74.0634	503
74.0999	223
77.0418	337
77.0756	14
78.0359	36
78.0467	14
79.0562	14
80.0161	30
89.04	22
90.0345	26
91.056	40
92.0511	168
100.0769	40
102.0353	36
103.0548	115
104.0506	121
105.0344	56
105.0723	10
106.0291	34
106.0651	14
108.0443	26
115.055	101
116.0495	36
117.0577	26
118.0675	12
120.0447	154
120.0812	20
127.0536	12
128.0507	62
130.065	97
131.0488	26
132.0444	229
133.0542	32
134.061	14
144.0458	20
146.0596	14
148.0398	270
150.0537	34
158.0605	16
161.0437	10
162.0187	38
172.0395	22
186.0565	77
