Mass spectrum: Ofloxacin; LC-ESI-QTOF; MS2; 150 V
Name: Ofloxacin
Class: Antimicrobial; Pharmaceutical
Formula: C18H20FN3O4
Exact mass: 361.1438
SMILES: CC1COC2=C3N1C=C(C(=O)C3=CC(=C2N4CCN(CC4)C)F)C(=O)O
InChI: InChI=1S/C18H20FN3O4/c1-10-9-26-17-14-11(16(23)12(18(24)25)8-22(10)14)7-13(19)15(17)21-5-3-20(2)4-6-21/h7-8,10H,3-6,9H2,1-2H3,(H,24,25)
Instrument: TripleTOF 5600 SCIEX
Instrument type: LC-ESI-QTOF
Ms type: MS2
Ion mode: POSITIVE
Collision energy: 150
Fragmentation mode: CID
Ionization: ESI
Column name: Zorbax Eclipse Plus C18 2.1 mm x 150 mm, 3.5 um, Agilent
Retention time: 5.185 min
Precursor m/z: 362.1511
Precursor type: [M+H]+
m/z	relative intensity
42.0468	172
51.0341	183
57.0205	172
58.0714	45
70.0267	137
73.0156	114
74.0203	746
75.0125	80
75.0281	999
76.0215	344
77.0417	183
78.0379	103
81.0168	218
83.033	126
86.0145	80
87.0248	149
88.0253	57
89.0394	126
93.0159	172
94.0199	68
94.028	57
95.0312	206
96.0275	103
96.0399	80
98.0176	137
99.0125	321
100.0207	333
101.0387	137
102.0372	114
104.0507	103
105.0113	80
107.0312	355
108.0253	68
108.0393	45
113.0402	68
114.0345	103
115.0578	57
120.0327	57
121.0333	57
122.0387	172
126.0354	57
128.0525	80
133.0427	68
158.043	57
