Mass spectrum: Caprolactam; LC-ESI-QTOF; MS2; 40 V
Name: Caprolactam
Class: Food_additive; Industrial_process
Formula: C6H11NO
Exact mass: 113.0841
SMILES: C1CCC(=O)NCC1
InChI: InChI=1S/C6H11NO/c8-6-4-2-1-3-5-7-6/h1-5H2,(H,7,8)
Instrument: TripleTOF 6600 SCIEX
Instrument type: LC-ESI-QTOF
Ms type: MS2
Ion mode: POSITIVE
Collision energy: 40
Fragmentation mode: CID
Ionization: ESI
Column name: Zorbax Eclipse Plus C18 2.1 mm x 150 mm, 3.5 um, Agilent
Retention time: 5.197 min
Precursor m/z: 114.0914
Precursor type: [M+H]+
m/z	relative intensity
30.0349	19
37.008	32
38.0031	13
38.0159	25
39.0239	228
41.0394	252
42.0346	22
43.0183	16
43.0548	56
44.0141	999
51.0234	18
53.0391	22
54.035	10
55.019	61
55.0552	172
67.0559	23
68.0502	20
69.0704	68
77.0392	86
79.0546	62
80.05	11
96.0814	29
114.0926	52
