Mass spectrum: Doxepin; LC-ESI-QTOF; MS2; 40 V
Name: Doxepin
Class: Pharmaceutical
Formula: C19H21NO
Exact mass: 279.1623
SMILES: CN(C)CCC=C1C2=CC=CC=C2COC3=CC=CC=C31
InChI: InChI=1S/C19H21NO/c1-20(2)13-7-11-17-16-9-4-3-8-15(16)14-21-19-12-6-5-10-18(17)19/h3-6,8-12H,7,13-14H2,1-2H3
Instrument: TripleTOF 5600 SCIEX
Instrument type: LC-ESI-QTOF
Ms type: MS2
Ion mode: POSITIVE
Collision energy: 40
Fragmentation mode: CID
Ionization: ESI
Column name: Zorbax Eclipse Plus C18 2.1 mm x 150 mm, 3.5 um, Agilent
Retention time: 7.447 min
Precursor m/z: 280.1696
Precursor type: [M+H]+
m/z	relative intensity
42.047	14
58.0739	150
70.072	61
72.086	11
77.0445	230
79.06	183
82.0693	11
84.0858	259
85.093	26
91.0584	319
103.0567	21
105.0737	19
107.0521	999
115.0568	383
117.0723	302
119.0513	30
127.0562	28
128.0639	96
129.0715	198
131.0504	96
141.0715	363
142.0789	130
143.0867	16
151.0562	12
152.0628	68
153.0704	12
157.066	25
165.0707	290
166.0786	127
167.0867	177
173.1202	18
176.0633	16
177.0699	37
178.0783	307
179.0855	184
181.0667	12
181.1014	37
186.1268	12
189.0701	45
190.0776	51
191.0854	228
192.0938	177
193.0659	24
193.1018	17
194.0729	289
195.0805	89
201.0703	51
202.0773	498
203.0851	61
205.064	43
205.1011	13
207.0813	147
207.1147	64
209.0954	43
215.0849	147
216.0939	43
217.1007	131
218.0715	29
219.0802	197
220.0878	380
233.0957	20
234.1025	12
235.1106	179
280.168	258
