Mass spectrum: Tadalafil; LC-ESI-QTOF; MS2; 40 V
Name: Tadalafil
Class: Pharmaceutical
Formula: C22H19N3O4
Exact mass: 389.1376
SMILES: CN1CC(=O)N2C(C1=O)CC3=C(C2C4=CC5=C(C=C4)OCO5)NC6=CC=CC=C36
InChI: InChI=1S/C22H19N3O4/c1-24-10-19(26)25-16(22(24)27)9-14-13-4-2-3-5-15(13)23-20(14)21(25)12-6-7-17-18(8-12)29-11-28-17/h2-8,16,21,23H,9-11H2,1H3
Instrument: TripleTOF 5600 SCIEX
Instrument type: LC-ESI-QTOF
Ms type: MS2
Ion mode: POSITIVE
Collision energy: 40
Fragmentation mode: CID
Ionization: ESI
Column name: Zorbax Eclipse Plus C18 2.1 mm x 150 mm, 3.5 um, Agilent
Retention time: 9.801 min
Precursor m/z: 390.1448
Precursor type: [M+H]+
m/z	relative intensity
77.0384	20
79.0535	17
99.0538	17
115.0521	20
127.0514	17
130.0645	86
135.0445	742
142.0654	29
154.0681	29
169.0764	763
170.0596	44
170.0718	14
180.0828	14
183.0935	29
189.0714	14
191.0748	29
192.0835	59
193.079	26
193.0951	14
195.0571	11
197.0715	241
203.0756	32
204.0813	348
205.0898	304
206.0962	95
216.0849	89
217.0876	23
218.0992	14
219.0806	14
220.0779	38
225.0708	14
232.077	280
233.0837	250
234.092	68
240.114	435
244.0762	50
247.0759	20
250.0868	184
261.0767	23
262.0869	999
263.0939	175
264.1052	166
268.1093	820
272.0724	17
274.0875	351
302.0808	241
390.1447	89
