Mass spectrum: Triamterene; LC-ESI-QTOF; MS2; 80 V
Name: Triamterene
Class: Pharmaceutical
Formula: C12H11N7
Exact mass: 253.1076
SMILES: C1=CC=C(C=C1)C2=NC3=C(N=C2N)N=C(N=C3N)N
InChI: InChI=1S/C12H11N7/c13-9-7(6-4-2-1-3-5-6)16-8-10(14)18-12(15)19-11(8)17-9/h1-5H,(H6,13,14,15,17,18,19)
Instrument: TripleTOF 5600 SCIEX
Instrument type: LC-ESI-QTOF
Ms type: MS2
Ion mode: POSITIVE
Collision energy: 80
Fragmentation mode: CID
Ionization: ESI
Column name: Zorbax Eclipse Plus C18 2.1 mm x 150 mm, 3.5 um, Agilent
Retention time: 5.203 min
Precursor m/z: 254.1149
Precursor type: [M+H]+
m/z	relative intensity
43.0421	45
53.0243	48
55.0384	27
65.0197	137
65.0453	24
67.0362	11
68.0299	16
75.0274	24
76.0355	67
77.0444	748
79.0587	93
80.0289	48
88.0212	30
88.0324	19
89.0426	999
90.0124	42
90.0428	90
91.0564	12
92.028	103
100.021	12
102.0353	42
103.044	177
104.0518	688
114.0358	257
115.0428	129
116.0511	358
117.0581	45
128.0418	16
129.0454	42
131.062	46
139.0296	38
141.0463	502
142.0533	143
143.061	9
153.0424	12
166.0432	24
168.0552	17
