Mass spectrum: Clenbuterol; LC-ESI-QTOF; MS2; 80 V
Name: Clenbuterol
Class: Pharmaceutical
Formula: C12H18Cl2N2O
Exact mass: 276.0796
SMILES: CC(C)(C)NCC(c1cc(c(c(c1)Cl)N)Cl)O
InChI: InChI=1S/C12H18Cl2N2O/c1-12(2,3)16-6-10(17)7-4-8(13)11(15)9(14)5-7/h4-5,10,16-17H,6,15H2,1-3H3
Instrument: TripleTOF 5600 SCIEX
Instrument type: LC-ESI-QTOF
Ms type: MS2
Ion mode: POSITIVE
Collision energy: 80
Fragmentation mode: CID
Ionization: ESI
Column name: Zorbax Eclipse Plus C18 2.1 mm x 150 mm, 3.5 um, Agilent
Retention time: 6.115 min
Precursor m/z: 277.0869
Precursor type: [M+H]+
m/z	relative intensity
57.0747	92
75.026	22
77.0419	319
78.0371	39
78.0476	72
79.0437	34
79.0545	31
80.0517	61
88.0313	11
89.0403	131
90.0357	60
91.0435	13
92.0502	15
93.0581	14
99.0006	16
102.0334	22
104.0504	751
105.0573	251
106.0652	261
110.9993	29
113.0158	67
114.034	14
115.0418	33
116.0491	162
117.0573	141
118.0527	19
122.999	22
124.0059	24
125.0032	20
126.0106	21
127.0195	41
131.0606	492
132.0684	675
133.0762	79
138.0096	28
139.0169	14
140.0265	999
141.0333	21
151.0186	132
152.0263	17
153.022	52
160.979	31
167.0371	91
168.0433	35
173.9871	39
