Mass spectrum: Acebutolol; LC-ESI-QTOF; MS2; 50 V
Name: Acebutolol
Class: Pharmaceutical
Formula: C18H28N2O4
Exact mass: 336.2049
SMILES: CCCC(=O)Nc1ccc(OCC(O)CNC(C)C)c(c1)C(C)=O
InChI: InChI=1S/C18H28N2O4/c1-5-6-18(23)20-14-7-8-17(16(9-14)13(4)21)24-11-15(22)10-19-12(2)3/h7-9,12,15,19,22H,5-6,10-11H2,1-4H3,(H,20,23)
Instrument: TripleTOF 5600 SCIEX
Instrument type: LC-ESI-QTOF
Ms type: MS2
Ion mode: POSITIVE
Collision energy: 50
Fragmentation mode: CID
Ionization: ESI
Column name: Zorbax Eclipse Plus C18 2.1 mm x 150 mm, 3.5 um, Agilent
Retention time: 5.965 min
Precursor m/z: 337.2122
Precursor type: [M+H]+
m/z	relative intensity
43.0263	9
44.0578	19
56.0563	999
57.0394	18
58.0695	70
71.0522	51
72.0849	622
74.0641	796
93.0348	10
93.0592	9
94.0667	14
98.0973	238
100.1129	39
103.0539	22
106.0641	34
109.0553	14
110.0604	262
114.0909	9
115.054	18
116.1076	834
118.0657	16
120.0814	240
122.06	42
122.0972	11
130.0648	51
131.0497	14
132.0813	21
133.0554	25
134.0593	29
134.096	32
136.0761	32
144.0812	30
146.0601	21
147.0665	9
148.076	362
150.0913	39
151.0615	13
152.0705	23
160.0761	108
162.0929	21
164.0701	17
172.077	14
180.1023	197
190.0849	11
216.105	12
218.1183	101
220.1335	11
222.1115	31
230.1174	20
