Mass spectrum: 2-Benzylimidazole; LC-ESI-QTOF; MS2; 70 V
Name: 2-Benzylimidazole
Class: Pharmaceutical
Formula: C10H12N2
Exact mass: 160.1
SMILES: C1CN=C(N1)CC2=CC=CC=C2
InChI: InChI=1S/C10H12N2/c1-2-4-9(5-3-1)8-10-11-6-7-12-10/h1-5H,6-8H2,(H,11,12)
Instrument: TripleTOF 5600 SCIEX
Instrument type: LC-ESI-QTOF
Ms type: MS2
Ion mode: POSITIVE
Collision energy: 70
Fragmentation mode: CID
Ionization: ESI
Column name: Zorbax Eclipse Plus C18 2.1 mm x 150 mm, 3.5 um, Agilent
Retention time: 4.619 min
Precursor m/z: 161.1073
Precursor type: [M+H]+
m/z	relative intensity
35.9995	11
37.0075	31
38.0161	22
39.0233	178
41.039	36
42.0338	17
44.0496	19
50.0154	22
51.0233	65
54.0343	17
61.0092	17
62.0161	53
63.0233	119
65.039	999
77.0383	56
89.0402	36
90.0484	19
91.055	732
103.0529	19
