Mass spectrum: Nicosulfuron; LC-ESI-QTOF; MS2; 110 V
Name: Nicosulfuron
Class: Herbicide
Formula: C15H18N6O6S
Exact mass: 410.1009
SMILES: CN(C)C(=O)C1=C(N=CC=C1)S(=O)(=O)NC(=O)NC2=NC(=CC(=N2)OC)OC
InChI: InChI=1S/C15H18N6O6S/c1-21(2)13(22)9-6-5-7-16-12(9)28(24,25)20-15(23)19-14-17-10(26-3)8-11(18-14)27-4/h5-8H,1-4H3,(H2,17,18,19,20,23)
Instrument: TripleTOF 6600 SCIEX
Instrument type: LC-ESI-QTOF
Ms type: MS2
Ion mode: POSITIVE
Collision energy: 110
Fragmentation mode: CID
Ionization: ESI
Column name: Zorbax Eclipse Plus C18 2.1 mm x 150 mm, 3.5 um, Agilent
Retention time: 8.499 min
Precursor m/z: 411.1081
Precursor type: [M+H]+
m/z	relative intensity
39.0206	15
40.0166	16
41.0235	12
42.0316	11
43.027	22
44.0476	15
50.013	69
51.0207	443
52.0158	11
54.0312	11
55.0266	24
56.0104	56
57.042	31
64.016	34
65.0109	105
65.0359	15
66.0191	16
67.002	29
68.0103	52
68.9946	74
69.0055	89
70.0268	15
71.0588	19
78.0313	999
81.0402	16
82.0261	40
83.0215	563
91.0267	51
93.0061	324
94.0135	22
95.0217	11
100.0376	13
106.0254	40
110.0319	15
138.0268	16
139.0483	30
166.0225	11
