Mass spectrum: 4,4`-Methylenebis(2-chloroaniline); LC-ESI-QTOF; MS2; 130 V
Name: 4,4`-Methylenebis(2-chloroaniline)
Formula: C13H12Cl2N2
Exact mass: 266.0378
SMILES: C1=CC(=C(C=C1CC2=CC(=C(C=C2)N)Cl)Cl)N
InChI: InChI=1S/C13H12Cl2N2/c14-10-6-8(1-3-12(10)16)5-9-2-4-13(17)11(15)7-9/h1-4,6-7H,5,16-17H2
Instrument: TripleTOF 6600 SCIEX
Instrument type: LC-ESI-QTOF
Ms type: MS2
Ion mode: POSITIVE
Collision energy: 130
Fragmentation mode: CID
Ionization: ESI
Column name: Zorbax Eclipse Plus C18 2.1 mm x 150 mm, 3.5 um, Agilent
Retention time: 11.747 min
Precursor m/z: 267.045
Precursor type: [M+H]+
m/z	relative intensity
37.0072	27
39.0241	98
49.0079	38
50.0156	515
51.0237	999
52.0183	82
61.0075	82
62.0148	170
63.0227	406
65.0384	43
72.9836	27
73.0084	43
74.0154	565
75.0234	378
76.0311	115
77.0385	499
78.0341	38
78.0456	27
85.007	76
86.0151	175
87.0232	159
88.0301	38
89.0384	257
98.0149	570
99.0223	186
102.0466	60
104.0487	131
110.0147	49
111.0218	32
113.0383	159
114.0453	38
115.0542	120
122.0142	60
123.0239	21
126.046	164
127.054	21
137.0401	27
138.0479	38
139.0544	515
140.049	104
149.0398	65
150.0463	351
151.0534	148
152.0611	38
164.0499	60
166.0645	43
175.0432	32
176.0537	27
