Mass spectrum: Pindolol; LC-ESI-QTOF; MS2; 60 V
Name: Pindolol
Class: Pharmaceutical
Formula: C14H20N2O2
Exact mass: 248.1525
SMILES: CC(C)NCC(COC1=CC=CC2=C1C=CN2)O
InChI: InChI=1S/C14H20N2O2/c1-10(2)16-8-11(17)9-18-14-5-3-4-13-12(14)6-7-15-13/h3-7,10-11,15-17H,8-9H2,1-2H3
Instrument: TripleTOF 5600 SCIEX
Instrument type: LC-ESI-QTOF
Ms type: MS2
Ion mode: POSITIVE
Collision energy: 60
Fragmentation mode: CID
Ionization: ESI
Column name: Zorbax Eclipse Plus C18 2.1 mm x 150 mm, 3.5 um, Agilent
Retention time: 5.148 min
Precursor m/z: 249.1598
Precursor type: [M+H]+
m/z	relative intensity
44.0589	16
56.0585	598
58.0735	256
65.0461	73
72.0874	183
74.0658	333
77.0443	313
78.0409	59
79.0591	200
80.0556	22
84.0838	28
89.0434	437
90.0506	79
91.0584	745
92.0545	28
98.1014	31
100.1157	73
101.0423	16
102.0371	11
102.0486	22
103.0575	59
104.0529	355
105.0614	67
106.0683	330
106.1059	11
107.0516	335
115.0575	516
116.0522	999
116.1115	84
117.0621	911
118.0676	426
126.0481	19
127.0564	194
128.0464	16
128.0573	62
129.0582	50
130.0669	79
132.0464	50
132.0835	28
133.0541	155
134.0613	333
142.0657	98
143.0748	349
144.053	11
144.082	248
145.0644	14
146.0613	59
154.0656	62
157.0541	22
170.0591	47
171.072	16
