Mass spectrum: (1-Ethoxyvinyl)triphenylphosphonium; LC-ESI-QTOF; MS2; 40 V
Name: (1-Ethoxyvinyl)triphenylphosphonium
Class: Industrial_process
Formula: [C22H22OP]+
Exact mass: 333.1403
SMILES: CCOC(=C)[P+](C1=CC=CC=C1)(C2=CC=CC=C2)C3=CC=CC=C3
InChI: InChI=1S/C22H22OP/c1-3-23-19(2)24(20-13-7-4-8-14-20,21-15-9-5-10-16-21)22-17-11-6-12-18-22/h4-18H,2-3H2,1H3/q+1
Instrument: TripleTOF 6600 SCIEX
Instrument type: LC-ESI-QTOF
Ms type: MS2
Ion mode: POSITIVE
Collision energy: 40
Fragmentation mode: CID
Ionization: ESI
Column name: Zorbax Eclipse Plus C18 2.1 mm x 150 mm, 3.5 um, Agilent
Retention time: 9.296 min
Precursor m/z: 333.1403
Precursor type: [M]+
m/z	relative intensity
183.0361	218
185.0519	125
262.091	91
263.0995	999
305.1098	107
