Mass spectrum: Sunitinib; LC-ESI-QTOF; MS2; 150 V
Name: Sunitinib
Class: Pharmaceutical
Formula: C22H27FN4O2
Exact mass: 398.2118
SMILES: CCN(CC)CCNC(=O)C1=C(NC(=C1C)C=C2C3=C(C=CC(=C3)F)NC2=O)C
InChI: InChI=1S/C22H27FN4O2/c1-5-27(6-2)10-9-24-22(29)20-13(3)19(25-14(20)4)12-17-16-11-15(23)7-8-18(16)26-21(17)28/h7-8,11-12,25H,5-6,9-10H2,1-4H3,(H,24,29)(H,26,28)
Instrument: TripleTOF 5600 SCIEX
Instrument type: LC-ESI-QTOF
Ms type: MS2
Ion mode: POSITIVE
Collision energy: 150
Fragmentation mode: CID
Ionization: ESI
Column name: Zorbax Eclipse Plus C18 2.1 mm x 150 mm, 3.5 um, Agilent
Retention time: 6.516 min
Precursor m/z: 399.2191
Precursor type: [M+H]+
m/z	relative intensity
51.0267	61
51.0369	17
57.0176	58
65.0426	61
65.0554	14
73.009	26
74.0185	270
74.0483	14
75.0264	514
76.0209	29
77.0407	64
78.0368	23
78.0501	14
80.0527	17
81.0169	99
83.0313	188
86.0173	38
87.024	96
88.0199	17
88.032	29
89.0397	94
90.046	11
93.015	52
94.0239	44
95.0295	155
95.0493	11
96.0395	41
97.0078	35
98.0164	361
99.0234	570
100.0192	293
101.0378	99
102.0351	20
102.048	20
104.0481	11
105.0147	41
106.0221	52
107.0297	590
107.0639	23
108.024	20
108.0362	85
109.0467	44
110.0166	38
111.0233	41
112.0284	23
113.0387	70
114.0341	52
114.0589	11
115.0547	44
117.013	17
117.056	23
118.0242	35
119.0279	82
120.0369	91
122.0149	111
122.0393	32
123.0097	102
123.0225	211
124.0186	287
125.0381	176
126.0338	199
127.055	26
129.0468	14
131.0286	308
132.0253	55
132.0364	67
133.0443	481
133.0902	23
134.0403	85
134.0791	11
135.0477	44
136.0287	17
137.0378	158
138.0308	20
138.0455	141
139.0536	123
140.0495	85
141.0224	17
141.0494	20
142.0216	23
143.0281	38
144.0364	208
145.0402	102
146.0143	41
146.0416	158
147.0201	55
147.0486	20
148.027	47
148.0567	35
149.0383	132
150.0313	26
150.0458	173
151.054	108
151.0783	14
152.0603	82
153.0604	14
154.04	47
155.0295	91
156.0369	105
157.0451	999
158.0403	599
158.0665	17
161.0376	102
162.0474	117
163.0535	285
163.0892	14
164.0494	390
165.0556	41
165.0686	26
166.0646	17
167.0282	85
168.0372	282
169.0453	226
169.0672	17
170.0522	326
171.0474	70
172.0286	14
172.0544	41
173.042	32
174.0394	61
175.0422	73
176.0492	41
177.0593	52
178.0672	49
179.0294	32
180.0363	138
181.0444	713
181.0761	20
182.0417	402
183.0546	193
184.0565	423
185.0638	123
186.0556	11
187.04	41
188.0503	226
189.0555	88
190.0645	47
191.0657	32
192.0371	55
193.034	64
194.047	58
195.0483	114
196.0549	94
197.064	58
198.0686	49
199.0414	35
203.057	20
205.0759	11
206.0399	111
207.049	155
208.0553	405
208.0806	11
209.0602	158
210.0604	88
211.0697	29
215.0583	14
219.0489	41
220.0473	23
221.0588	17
222.0482	14
223.0664	67
224.0732	14
233.0513	23
234.0563	55
235.0675	20
236.0792	20
