Mass spectrum: Epoxiconazole; LC-ESI-QTOF; MS2; 30 V
Name: Epoxiconazole
Class: Fungicide
Formula: C17H13ClFN3O
Exact mass: 329.0731
SMILES: C1=CC=C(C(=C1)[C@H]2[C@@](O2)(CN3C=NC=N3)C4=CC=C(C=C4)F)Cl
InChI: InChI=1S/C17H13ClFN3O/c18-15-4-2-1-3-14(15)16-17(23-16,9-22-11-20-10-21-22)12-5-7-13(19)8-6-12/h1-8,10-11,16H,9H2/t16-,17+/m0/s1
Instrument: TripleTOF 5600 SCIEX
Instrument type: LC-ESI-QTOF
Ms type: MS2
Ion mode: POSITIVE
Collision energy: 30
Fragmentation mode: CID
Ionization: ESI
Column name: Zorbax Eclipse Plus C18 2.1 mm x 150 mm, 3.5 um, Agilent
Retention time: 12.465 min
Precursor m/z: 330.0804
Precursor type: [M+H]+
m/z	relative intensity
70.044	138
74.0187	14
75.0261	35
77.0411	11
95.0303	47
101.039	148
113.0148	25
121.0449	999
123.0236	722
129.0443	80
138.994	49
141.0096	331
330.0813	149
