Mass spectrum: Metsulfuron-methyl; LC-ESI-QTOF; MS2; 150 V
Name: Metsulfuron-methyl
Formula: C14H15N5O6S
Exact mass: 381.0743
SMILES: CC1=NC(=NC(=N1)OC)NC(=O)NS(=O)(=O)C2=CC=CC=C2C(=O)OC
Instrument: TripleTOF 6600 SCIEX
Instrument type: LC-ESI-QTOF
Ms type: MS2
Ion mode: POSITIVE
Collision energy: 150
Fragmentation mode: CID
Ionization: ESI
Column name: Zorbax Eclipse Plus C18 2.1 mm x 150 mm, 3.5 um, Agilent
Retention time: 9.15008 min
Precursor m/z: 382.0816
Precursor type: [M+H]+
m/z	relative intensity
37.0066	142
39.022	285
41.0123	142
42.0341	142
43.0291	142
43.0322	0
51.0232	570
56.0504	142
64.0304	285
65.0384	142
68.0271	142
69.007	999
69.014	142
77.0355	285
92.0232	0
