Mass spectrum: Acebutolol; LC-ESI-QTOF; MS2; 110 V
Name: Acebutolol
Class: Pharmaceutical
Formula: C18H28N2O4
Exact mass: 336.2049
SMILES: CCCC(=O)Nc1ccc(OCC(O)CNC(C)C)c(c1)C(C)=O
InChI: InChI=1S/C18H28N2O4/c1-5-6-18(23)20-14-7-8-17(16(9-14)13(4)21)24-11-15(22)10-19-12(2)3/h7-9,12,15,19,22H,5-6,10-11H2,1-4H3,(H,20,23)
Instrument: TripleTOF 5600 SCIEX
Instrument type: LC-ESI-QTOF
Ms type: MS2
Ion mode: POSITIVE
Collision energy: 110
Fragmentation mode: CID
Ionization: ESI
Column name: Zorbax Eclipse Plus C18 2.1 mm x 150 mm, 3.5 um, Agilent
Retention time: 5.965 min
Precursor m/z: 337.2122
Precursor type: [M+H]+
m/z	relative intensity
42.0424	35
43.0247	100
43.0519	30
51.0286	60
56.0555	999
57.0379	30
58.0709	170
65.0431	396
66.0495	50
67.0441	35
72.0844	195
74.0628	145
77.0416	622
77.0796	30
78.0487	50
79.059	95
80.0521	256
89.0414	70
90.0468	20
91.0552	130
92.0518	70
93.0342	65
93.0587	160
94.067	40
102.0477	35
103.0558	105
104.0493	75
106.0651	95
108.0429	40
109.0546	50
110.0592	35
115.0558	105
117.058	85
118.0643	65
119.0733	35
130.0669	75
146.0582	30
