Mass spectrum: 2-(3-Pyridyl)-1H-benzimidazole; LC-ESI-QTOF; MS2; 90 V
Name: 2-(3-Pyridyl)-1H-benzimidazole
Class: Pharmaceutical
Formula: C12H9N3
Exact mass: 195.0796
SMILES: C1=CC=C2C(=C1)NC(=N2)C3=CN=CC=C3
InChI: InChI=1S/C12H9N3/c1-2-6-11-10(5-1)14-12(15-11)9-4-3-7-13-8-9/h1-8H,(H,14,15)
Instrument: TripleTOF 5600 SCIEX
Instrument type: LC-ESI-QTOF
Ms type: MS2
Ion mode: POSITIVE
Collision energy: 90
Fragmentation mode: CID
Ionization: ESI
Column name: Zorbax Eclipse Plus C18 2.1 mm x 150 mm, 3.5 um, Agilent
Retention time: 5.155 min
Precursor m/z: 196.0869
Precursor type: [M+H]+
m/z	relative intensity
35.9993	55
37.0073	231
38.0025	13
38.0152	213
39.0231	999
51.023	275
52.0181	65
52.0307	31
64.031	33
65.0387	793
66.0325	11
74.0148	26
75.0232	37
76.0187	20
77.0381	23
78.0339	44
79.0418	20
88.0313	20
89.0384	30
90.034	11
91.0411	30
92.0489	23
102.0332	18
113.0391	21
115.0513	13
140.0494	23
