Mass spectrum: Cyprodinil; LC-ESI-QTOF; MS2; 90 V
Name: Cyprodinil
Class: Fungicide
Formula: C14H15N3
Exact mass: 225.1266
SMILES: CC1=CC(=NC(=N1)NC2=CC=CC=C2)C3CC3
InChI: InChI=1S/C14H15N3/c1-10-9-13(11-7-8-11)17-14(15-10)16-12-5-3-2-4-6-12/h2-6,9,11H,7-8H2,1H3,(H,15,16,17)
Instrument: TripleTOF 6600 SCIEX
Instrument type: LC-ESI-QTOF
Ms type: MS2
Ion mode: POSITIVE
Collision energy: 90
Fragmentation mode: CID
Ionization: ESI
Column name: Zorbax Eclipse Plus C18 2.1 mm x 150 mm, 3.5 um, Agilent
Retention time: 10.83 min
Precursor m/z: 226.1339
Precursor type: [M+H]+
m/z	relative intensity
37.0075	70
38.015	72
39.0231	393
40.018	10
40.0303	16
41.026	30
41.0384	68
42.0338	146
44.0492	19
49.0071	65
50.0151	409
51.023	999
52.0182	39
52.0305	18
53.0381	59
54.0336	43
61.007	25
62.0148	63
63.0227	203
64.0182	25
64.0303	65
65.0383	581
66.0339	23
66.0461	228
67.0289	59
67.0405	88
68.0493	25
74.0144	39
75.0226	45
76.0177	19
76.0308	25
77.0382	538
78.0337	85
78.0457	16
79.0542	25
80.0489	96
81.0577	12
87.0234	12
88.0305	12
89.0381	90
90.0344	27
91.0424	68
91.0536	88
92.0489	161
93.0566	213
102.0333	25
102.0449	12
104.0484	50
105.0442	23
106.0649	43
107.0755	10
113.0375	36
114.0318	12
114.046	16
115.0538	38
116.0483	10
117.0443	10
117.0551	12
118.0521	18
126.045	16
127.0535	21
128.0478	14
129.0432	19
130.0399	12
131.0597	30
137.0383	14
138.0459	12
139.0536	48
140.0487	54
150.0443	10
151.0535	18
152.0593	18
153.0546	19
155.0602	12
163.0527	10
164.0493	39
165.0575	18
166.062	14
168.0663	10
178.066	12
191.0589	14
192.0684	16
205.075	25
206.0824	10
