Mass spectrum: Fluxapyroxad; LC-ESI-QTOF; MS2; 50 V
Name: Fluxapyroxad
Class: Fungicide
Formula: C18H12F5N3O
Exact mass: 381.0901
SMILES: Cn1cc(c(n1)C(F)F)C(=O)Nc2ccccc2c3cc(c(c(c3)F)F)F
InChI: InChI=1S/C18H12F5N3O/c1-26-8-11(16(25-26)17(22)23)18(27)24-14-5-3-2-4-10(14)9-6-12(19)15(21)13(20)7-9/h2-8,17H,1H3,(H,24,27)
Instrument: TripleTOF 6600 SCIEX
Instrument type: LC-ESI-QTOF
Ms type: MS2
Ion mode: POSITIVE
Collision energy: 50
Fragmentation mode: CID
Ionization: ESI
Column name: Zorbax Eclipse Plus C18 2.1 mm x 150 mm, 3.5 um, Agilent
Retention time: 12.239 min
Precursor m/z: 382.0973
Precursor type: [M+H]+
m/z	relative intensity
42.0336	15
109.0386	101
129.0439	16
134.0337	27
139.03	27
145.0243	15
159.0358	306
187.0348	108
188.0417	46
205.0257	42
206.0333	462
207.0411	169
212.03	77
213.0384	12
214.0459	17
219.0414	42
225.048	20
226.0457	119
231.029	53
232.0371	550
233.052	18
234.0529	831
238.0574	21
239.0613	11
240.0356	32
240.0612	31
243.0405	42
244.0439	25
245.0442	11
245.0581	10
246.0527	121
247.0637	36
250.047	15
251.0548	11
252.0607	47
253.0571	60
254.0658	12
256.0453	12
258.0532	71
259.0518	45
260.0312	68
260.0682	22
265.0553	10
265.065	21
266.0772	44
267.0729	79
268.0558	15
270.0529	107
271.0608	999
272.0563	49
273.0637	108
274.0755	25
277.059	12
279.0604	137
280.0685	17
281.0502	13
282.0436	10
283.0459	25
284.068	46
285.0618	74
286.0778	49
287.0786	34
293.0745	25
294.0842	69
295.0669	17
296.0548	16
297.0619	25
298.0581	39
299.0768	66
300.0883	27
301.0588	55
312.0722	13
314.09	337
315.0725	35
322.0801	65
324.0743	18
325.0831	18
326.0538	15
327.0631	29
340.0693	21
341.0771	15
342.0854	608
