Mass spectrum: Azoxystrobin; LC-ESI-QTOF; MS2; 70 V
Name: Azoxystrobin
Class: Fungicide
Formula: C22H17N3O5
Exact mass: 403.1168
SMILES: COC=C(C1=CC=CC=C1OC2=NC=NC(=C2)OC3=CC=CC=C3C#N)C(=O)OC
InChI: InChI=1S/C22H17N3O5/c1-27-13-17(22(26)28-2)16-8-4-6-10-19(16)30-21-11-20(24-14-25-21)29-18-9-5-3-7-15(18)12-23/h3-11,13-14H,1-2H3
Instrument: TripleTOF 6600 SCIEX
Instrument type: LC-ESI-QTOF
Ms type: MS2
Ion mode: POSITIVE
Collision energy: 70
Fragmentation mode: CID
Ionization: ESI
Column name: Zorbax Eclipse Plus C18 2.1 mm x 150 mm, 3.5 um, Agilent
Retention time: 12.114 min
Precursor m/z: 404.1241
Precursor type: [M+H]+
m/z	relative intensity
68.9956	10
75.0218	13
77.0371	43
89.0367	78
91.0523	10
101.0367	34
102.0322	93
103.0399	19
104.0477	77
105.0315	18
105.0542	24
114.0315	37
115.0392	20
116.0474	86
117.0321	22
117.055	15
118.0386	15
119.0343	19
120.0428	25
127.0397	41
128.0473	52
129.0422	111
130.0363	134
131.053	14
132.042	18
133.0269	18
133.0498	63
134.0578	58
140.047	12
141.0429	32
143.0347	22
143.0578	26
144.0423	126
145.0263	13
145.05	48
146.0213	25
154.0495	13
155.0347	13
155.058	35
156.0429	601
169.0375	18
170.0449	30
171.0531	91
172.0379	999
181.0371	20
182.0451	41
183.0535	81
184.0374	10
190.0629	12
199.0484	79
200.0321	120
205.0731	14
210.0392	39
211.0485	12
217.0745	16
218.0819	15
229.0737	15
232.0761	15
233.0704	23
244.0848	26
245.0691	50
272.08	88
273.0641	33
274.0721	14
275.0796	13
300.0754	93
301.0825	16
328.0704	165
329.0786	16
