Mass spectrum: Carbaryl; LC-ESI-QTOF; MS2; 70 V
Name: Carbaryl
Class: Insecticide
Formula: C12H11NO2
Exact mass: 201.079
SMILES: CNC(=O)Oc1cccc2ccccc12
InChI: InChI=1S/C12H11NO2/c1-13-12(14)15-11-8-4-6-9-5-2-3-7-10(9)11/h2-8H,1H3,(H,13,14)
Instrument: TripleTOF 5600 SCIEX
Instrument type: LC-ESI-QTOF
Ms type: MS2
Ion mode: POSITIVE
Collision energy: 70
Fragmentation mode: CID
Ionization: ESI
Column name: Zorbax Eclipse Plus C18 2.1 mm x 150 mm, 3.5 um, Agilent
Retention time: 10.147 min
Precursor m/z: 202.0863
Precursor type: [M+H]+
m/z	relative intensity
51.028	122
58.0328	43
63.043	11
65.0416	224
74.0172	58
75.0254	195
76.0343	14
77.041	879
87.0259	17
89.0394	113
91.0552	652
91.0853	17
99.0243	17
101.0382	189
102.0482	14
114.0536	17
115.0536	999
116.0605	58
117.0691	32
125.0386	20
126.0452	390
127.0533	553
128.061	17
129.0439	17
144.0543	20
