Mass spectrum: N,N-didesmethyl-venlafaxine; LC-ESI-QTOF; MS2; 30 V
Name: N,N-didesmethyl-venlafaxine
Class: Pharmaceutical; Transformation_product
Formula: C15H23NO2
Exact mass: 249.1729
SMILES: COC1=CC=C(C=C1)C(CN)C2(CCCCC2)O
InChI: InChI=1S/C15H23NO2/c1-18-13-7-5-12(6-8-13)14(11-16)15(17)9-3-2-4-10-15/h5-8,14,17H,2-4,9-11,16H2,1H3
Instrument: TripleTOF 5600 SCIEX
Instrument type: LC-ESI-QTOF
Ms type: MS2
Ion mode: POSITIVE
Collision energy: 30
Fragmentation mode: CID
Ionization: ESI
Column name: Zorbax Eclipse Plus C18 2.1 mm x 150 mm, 3.5 um, Agilent
Retention time: 6.316 min
Precursor m/z: 250.1802
Precursor type: [M+H]+
m/z	relative intensity
69.0734	18
79.0583	32
81.0717	47
91.0546	107
93.0695	23
107.0498	14
107.0857	45
115.053	10
119.0857	18
121.0645	999
132.0553	34
135.0789	74
144.0576	12
145.0633	10
147.0801	653
158.0719	36
159.0789	164
161.0959	21
173.0958	264
183.1169	21
215.1423	279
232.1693	21
