Mass spectrum: Rifaximin; LC-ESI-QTOF; MS2; 70 V
Name: Rifaximin
Class: Pharmaceutical
Formula: C43H51N3O11
Exact mass: 785.3524
SMILES: CC1C=CC=C(C(=O)NC2=C(C3=C(C4=C(C(=C3O)C)OC(C4=O)(OC=CC(C(C(C(C(C(C1O)C)O)C)OC(=O)C)C)OC)C)C5=C2N6C=CC(=CC6=N5)C)O)C
InChI: InChI=1S/C43H51N3O11/c1-19-14-16-46-28(18-19)44-32-29-30-37(50)25(7)40-31(29)41(52)43(9,57-40)55-17-15-27(54-10)22(4)39(56-26(8)47)24(6)36(49)23(5)35(48)20(2)12-11-13-21(3)42(53)45-33(34(32)46)38(30)51/h11-18,20,22-24,27,35-36,39,48-51H,1-10H3,(H,45,53)
Instrument: TripleTOF 6600 SCIEX
Instrument type: LC-ESI-QTOF
Ms type: MS2
Ion mode: POSITIVE
Collision energy: 70
Fragmentation mode: CID
Ionization: ESI
Column name: Zorbax Eclipse Plus C18 2.1 mm x 150 mm, 3.5 um, Agilent
Retention time: 11.765 min
Precursor m/z: 786.3597
Precursor type: [M+H]+
m/z	relative intensity
39.0221	9
41.0379	22
43.017	57
55.0528	24
57.0323	9
65.0376	14
67.0532	112
69.0326	39
69.0683	42
71.0485	12
77.0372	67
79.053	77
81.0688	84
83.0482	27
83.0839	19
85.0265	14
85.0637	24
87.0429	14
91.0527	159
93.0686	182
95.0481	129
95.0655	12
95.0844	492
97.0263	22
97.0633	84
97.0999	12
99.0432	14
103.0528	24
105.0684	229
107.0482	17
107.0842	364
108.0552	29
109.0635	259
109.0997	84
111.0437	12
111.0794	94
113.0585	27
115.0524	32
117.0685	59
119.0588	9
119.0846	169
121.0641	122
121.0999	119
122.072	12
123.0793	497
123.1149	37
125.0594	12
125.0943	87
128.0612	22
129.0692	17
130.0763	44
131.0839	64
133.0628	67
133.0995	169
135.0791	242
135.1149	99
137.058	22
137.0951	67
137.1305	22
139.0748	14
139.1106	12
141.0894	17
142.0771	29
143.0835	64
144.0923	12
145.0628	32
145.1002	272
147.0783	74
147.116	152
148.0871	12
149.0603	12
149.095	72
149.1307	19
151.074	439
151.1109	44
153.0895	77
155.084	37
156.0908	29
157.1004	107
158.0706	14
158.1067	17
159.0782	29
159.1161	79
160.0854	19
161.0951	159
161.1307	34
163.1107	477
165.1262	34
169.1004	14
170.1076	42
171.0805	17
171.1153	49
172.0886	9
173.0947	114
173.1307	84
174.1052	12
175.1114	92
175.1468	32
177.0897	37
177.1262	22
179.1056	49
181.1208	29
183.1159	37
185.0943	29
185.1315	54
186.102	27
186.138	9
187.1113	19
187.1484	14
189.0889	17
189.1267	29
191.1061	109
193.0998	14
193.1217	12
194.106	17
195.0788	9
195.1169	34
197.1317	24
198.1011	12
199.1106	17
199.1478	19
201.1281	54
203.1418	37
207.1153	12
209.0979	12
209.1327	29
211.1117	12
211.1453	24
213.126	47
215.1092	9
217.1218	14
219.1363	14
221.1287	14
223.1103	14
223.1432	12
225.1631	9
227.1446	12
231.1166	12
231.1377	32
235.1477	17
237.1253	9
237.162	12
249.1241	12
251.1797	12
279.1721	19
290.0917	9
291.1099	29
292.1104	19
297.1822	12
302.1048	9
316.1111	12
318.0932	12
319.1071	27
320.1186	14
332.1034	14
333.0881	9
334.1179	47
343.1122	9
344.104	12
345.0859	19
345.1216	12
346.0954	109
347.1025	352
348.1102	117
349.1165	14
357.0967	12
357.13	12
359.1143	24
360.0987	129
361.1055	267
362.115	999
363.1214	127
371.1027	14
372.0984	22
373.1146	32
374.1144	14
385.1085	17
387.1418	17
388.0945	27
389.1054	12
390.1103	22
398.1151	17
399.1196	34
400.1301	39
401.1372	34
404.1172	12
405.1305	9
406.1432	17
412.1312	19
413.1389	34
414.1484	17
418.1512	12
422.1518	22
424.1283	14
425.1382	22
426.1424	42
427.1541	22
432.131	9
436.13	39
437.1373	24
438.1455	47
439.1557	49
440.1634	19
443.149	14
446.1513	42
447.1572	9
448.166	54
449.1701	9
450.1469	57
451.1536	39
452.1614	62
453.1629	12
454.1422	9
456.1583	9
460.1666	19
462.145	14
463.1528	9
464.1581	39
465.1679	74
466.1777	262
467.1831	79
468.1919	84
476.1621	19
478.1783	22
479.1851	17
480.156	17
480.1958	14
482.2096	12
484.1854	17
490.1762	24
492.1896	14
494.1754	72
495.1794	124
496.1851	72
506.2066	29
507.21	12
509.1947	22
510.2045	19
512.1832	12
518.209	12
524.2146	27
538.1968	34
552.2118	17
554.2416	17
604.2787	19
630.2953	14
640.2883	19
658.2905	52
676.3037	59
682.3098	19
690.3274	22
708.3164	14
718.3125	32
736.326	37
