Mass spectrum: Tributylphosphine oxide; LC-ESI-QTOF; MS2; 100 V
Name: Tributylphosphine oxide
Class: Industrial_process
Formula: C12H27OP
Exact mass: 218.18
InChI: InChI=1S/C12H27OP/c1-4-7-10-14(13,11-8-5-2)12-9-6-3/h4-12H2,1-3H3
Instrument: TripleTOF 5600 SCIEX
Instrument type: LC-ESI-QTOF
Ms type: CID
Ion mode: POSITIVE
Collision energy: 100
Ionization: ESI
Column name: Zorbax Eclipse Plus C18 2.1 mm x 150 mm, 3.5 um, Agilent
Retention time: 11.114 min
Precursor m/z: 219.1872
Precursor type: [M+H]+
m/z	relative intensity
43.9874	29
44.9971	212
45.0247	11
51.0284	15
56.9938	80
59.0084	14
63.0047	999
65.0436	20
75.0029	16
77.0173	132
77.0403	45
78.025	64
91.0553	21
115.0531	36
128.061	18
