Mass spectrum: Chlorpyrifos; LC-ESI-QTOF; MS2; 120 V
Name: Chlorpyrifos
Class: Insecticide
Formula: C9H11Cl3NO3PS
Exact mass: 348.9263
SMILES: CCO[P](=S)(OCC)Oc1nc(Cl)c(Cl)cc1Cl
InChI: InChI=1S/C9H11Cl3NO3PS/c1-3-14-17(18,15-4-2)16-9-7(11)5-6(10)8(12)13-9/h5H,3-4H2,1-2H3
Instrument: TripleTOF 5600 SCIEX
Instrument type: LC-ESI-QTOF
Ms type: MS2
Ion mode: POSITIVE
Collision energy: 120
Fragmentation mode: CID
Ionization: ESI
Column name: Zorbax Eclipse Plus C18 2.1 mm x 150 mm, 3.5 um, Agilent
Retention time: 16.34 min
Precursor m/z: 349.9336
Precursor type: [M+H]+
m/z	relative intensity
61.9843	42
64.9827	260
65.006	27
70.9711	19
71.9788	97
75.0117	15
78.9419	365
78.9666	15
82.9455	15
83.977	116
96.9514	606
97.9781	15
106.9449	999
106.9867	15
108.9718	365
109.9791	54
117.937	19
118.9428	66
143.9397	81
144.9452	19
