Mass spectrum: Acridone; LC-ESI-QTOF; MS2; 30 V
Name: Acridone
Class: Metabolite; Pharmaceutical; Transformation_product; Transformation_product-Metabolite
Formula: C13H9NO
Exact mass: 195.0684
SMILES: O=C1c2ccccc2Nc3ccccc13
InChI: InChI=1S/C13H9NO/c15-13-9-5-1-3-7-11(9)14-12-8-4-2-6-10(12)13/h1-8H,(H,14,15)
Instrument: TripleTOF 5600 SCIEX
Instrument type: LC-ESI-QTOF
Ms type: MS2
Ion mode: POSITIVE
Collision energy: 30
Fragmentation mode: CID
Ionization: ESI
Column name: Zorbax Eclipse Plus C18 2.1 mm x 150 mm, 3.5 um, Agilent
Retention time: 8.5 min
Precursor m/z: 196.0757
Precursor type: [M+H]+
m/z	relative intensity
166.0645	11
167.0735	209
168.0814	29
178.0654	21
195.068	73
196.0758	999
