Mass spectrum: Flusilazole; LC-ESI-QTOF; MS2; 100 V
Name: Flusilazole
Class: Fungicide
Formula: C16H15F2N3Si
Exact mass: 315.1003
SMILES: C[Si](CN1C=NC=N1)(C2=CC=C(C=C2)F)C3=CC=C(C=C3)F
InChI: InChI=1S/C16H15F2N3Si/c1-22(12-21-11-19-10-20-21,15-6-2-13(17)3-7-15)16-8-4-14(18)5-9-16/h2-11H,12H2,1H3
Instrument: TripleTOF 6600 SCIEX
Instrument type: LC-ESI-QTOF
Ms type: MS2
Ion mode: POSITIVE
Collision energy: 100
Fragmentation mode: CID
Ionization: ESI
Column name: Zorbax Eclipse Plus C18 2.1 mm x 150 mm, 3.5 um, Agilent
Retention time: 12.729 min
Precursor m/z: 316.1076
Precursor type: [M+H]+
m/z	relative intensity
37.0066	10
38.0143	10
39.0229	82
42.9993	14
46.9744	668
50.0147	45
51.0225	227
52.9847	10
57.0128	120
59.0286	32
61.0064	29
62.0146	54
63.0072	15
63.0222	168
65.0377	159
72.9891	22
74.0141	86
75.022	134
76.0294	28
77.0378	398
78.0449	23
79.0529	12
80.9955	65
81.0116	17
83.0284	652
86.0141	25
87.0217	46
89.0375	247
90.9795	14
91.053	49
95.0273	16
96.0359	13
98.014	42
99.0213	46
100.029	10
101.0374	31
102.0451	50
103.0532	21
105.0146	10
107.0278	50
109.0438	408
110.0147	10
111.0227	15
113.037	65
115.0531	284
120.0361	33
123.005	98
124.0318	11
125.0371	46
126.0454	107
127.0538	12
128.0607	18
131.0283	11
133.0433	176
137.0374	40
138.0452	30
139.053	264
144.035	44
146.0519	32
147.0068	14
149.0363	52
150.0457	303
151.0529	196
152.0611	129
157.043	112
161.038	35
162.0447	124
163.0536	999
164.0614	346
165.0682	220
168.0348	26
169.0432	80
170.0515	110
175.0535	10
176.0606	55
178.0757	12
180.0365	12
181.0437	220
182.0514	132
183.0596	335
201.0494	59
