Mass spectrum: 2,4-Diaminoanisole; LC-ESI-QTOF; MS2; 30 V
Name: 2,4-Diaminoanisole
Formula: C7H10N2O
Exact mass: 138.0793
SMILES: COC1=C(C=C(C=C1)N)N
InChI: InChI=1S/C7H10N2O/c1-10-7-3-2-5(8)4-6(7)9/h2-4H,8-9H2,1H3
Instrument: TripleTOF 6600 SCIEX
Instrument type: LC-ESI-QTOF
Ms type: MS2
Ion mode: POSITIVE
Collision energy: 30
Fragmentation mode: CID
Ionization: ESI
Column name: Zorbax Eclipse Plus C18 2.1 mm x 150 mm, 3.5 um, Agilent
Retention time: 2.235 min
Precursor m/z: 139.0866
Precursor type: [M+H]+
m/z	relative intensity
52.0308	20
63.0223	18
65.0388	88
67.0539	38
77.0386	178
78.0336	20
79.041	219
80.0498	299
81.0568	43
90.032	53
92.0483	71
93.0564	51
94.0645	30
95.0493	18
95.0605	229
96.0679	92
107.036	116
107.0605	266
108.0681	888
122.0575	57
123.0545	313
124.0628	999
139.0875	26
