Mass spectrum: 3-Dimethylaminophenol; LC-ESI-QTOF; MS2; 40 V
Name: 3-Dimethylaminophenol
Formula: C8H11NO
Exact mass: 137.0841
SMILES: CN(C)C1=CC(=CC=C1)O
InChI: InChI=1S/C8H11NO/c1-9(2)7-4-3-5-8(10)6-7/h3-6,10H,1-2H3
Instrument: TripleTOF 6600 SCIEX
Instrument type: LC-ESI-QTOF
Ms type: MS2
Ion mode: POSITIVE
Collision energy: 40
Fragmentation mode: CID
Ionization: ESI
Column name: Zorbax Eclipse Plus C18 2.1 mm x 150 mm, 3.5 um, Agilent
Retention time: 4.073 min
Precursor m/z: 138.0914
Precursor type: [M+H]+
m/z	relative intensity
39.0228	40
65.0383	144
66.046	20
77.0379	40
93.0328	64
94.0415	238
95.0483	38
106.0639	17
122.0596	999
123.0674	311
