Mass spectrum: Dienogest Impurity G; LC-ESI-QTOF; MS2; 110 V
Name: Dienogest Impurity G
Class: Pharmaceutical
Formula: C20H23NO2
Exact mass: 309.1729
SMILES: CC12CC=C3C(C1CCC2(CC#N)O)CCC4=C3C=CC(=C4)O
InChI: InChI=1S/C20H23NO2/c1-19-8-6-16-15-5-3-14(22)12-13(15)2-4-17(16)18(19)7-9-20(19,23)10-11-21/h3,5-6,12,17-18,22-23H,2,4,7-10H2,1H3
Instrument: TripleTOF 6600 SCIEX
Instrument type: LC-ESI-QTOF
Ms type: MS2
Ion mode: POSITIVE
Collision energy: 110
Fragmentation mode: CID
Ionization: ESI
Column name: Zorbax Eclipse Plus C18 2.1 mm x 150 mm, 3.5 um, Agilent
Retention time: 9.956 min
Precursor m/z: 310.1802
Precursor type: [M+H]+
m/z	relative intensity
39.0226	109
41.0382	49
49.0062	24
50.0142	89
51.0222	283
53.0377	39
55.0174	29
62.0136	34
63.0225	104
65.0377	183
66.0455	39
67.054	29
75.0217	29
76.0302	19
77.0376	825
78.0452	64
79.053	129
89.0374	218
91.0529	188
94.0399	29
102.0454	109
103.0536	168
105.0436	24
105.0684	29
107.0469	54
113.0358	24
115.0528	999
116.0595	64
126.0457	54
127.0541	198
128.0609	203
130.0644	24
131.0478	79
139.0528	64
141.0693	49
144.0546	19
150.0456	39
151.0533	69
152.0603	144
153.0682	39
157.0657	24
163.0504	34
164.062	54
165.0694	129
176.0614	54
177.0672	24
178.0786	49
189.0684	54
200.0644	29
202.0762	49
