Mass spectrum: 4-Hydroxy-1H-benzotriazole; LC-ESI-QTOF; MS2; 50 V
Name: 4-Hydroxy-1H-benzotriazole
Class: Industrial_process; Transformation_product
Formula: C6H5N3O
Exact mass: 135.0433
InChI: InChI=1S/C6H5N3O/c10-5-3-1-2-4-6(5)8-9-7-4/h1-3,10H,(H,7,8,9)
Instrument: TripleTOF 5600 SCIEX
Instrument type: LC-ESI-QTOF
Ms type: CID
Ion mode: POSITIVE
Collision energy: 50
Ionization: ESI
Column name: Zorbax Eclipse Plus C18 2.1 mm x 150 mm, 3.5 um, Agilent
Retention time: 5.337 min
Precursor m/z: 136.0505
Precursor type: [M+H]+
m/z	relative intensity
51.0275	177
52.0363	82
53.0435	999
54.037	150
78.0343	177
80.0506	574
81.0349	218
