Mass spectrum: Cyproconazole; LC-ESI-QTOF; MS2; 140 V
Name: Cyproconazole
Class: Fungicide
Formula: C15H18ClN3O
Exact mass: 291.1138
SMILES: CC(C1CC1)C(CN2C=NC=N2)(C3=CC=C(C=C3)Cl)O
InChI: InChI=1S/C15H18ClN3O/c1-11(12-2-3-12)15(20,8-19-10-17-9-18-19)13-4-6-14(16)7-5-13/h4-7,9-12,20H,2-3,8H2,1H3
Instrument: TripleTOF 6600 SCIEX
Instrument type: LC-ESI-QTOF
Ms type: MS2
Ion mode: POSITIVE
Collision energy: 140
Fragmentation mode: CID
Ionization: ESI
Column name: Zorbax Eclipse Plus C18 2.1 mm x 150 mm, 3.5 um, Agilent
Retention time: 11.30515 min
Precursor m/z: 292.1211
Precursor type: [M+H]+
m/z	relative intensity
35.9964	11
37.0039	105
38.0116	107
39.0195	307
41.0348	24
42.0176	74
43.0252	572
46.9639	88
48.9792	165
49.0021	51
50.0104	236
51.0184	126
59.9936	19
60.9783	15
61.0017	220
62.0094	551
63.0172	999
64.025	69
65.0323	13
70.0333	537
72.9772	536
73.0006	53
74.0082	685
75.0161	234
76.0228	9
77.0312	36
84.9766	24
89.0304	633
90.0378	28
96.9748	13
98.9905	88
115.0429	15
