Mass spectrum: (Methoxymethyl)diphenylphosphine oxide; LC-ESI-QTOF; MS2; 90 V
Name: (Methoxymethyl)diphenylphosphine oxide
Class: Industrial_process
Formula: C14H15O2P
Exact mass: 246.081
SMILES: COC[P](=O)(c1ccccc1)c2ccccc2
InChI: InChI=1S/C14H15O2P/c1-16-12-17(15,13-8-4-2-5-9-13)14-10-6-3-7-11-14/h2-11H,12H2,1H3
Instrument: TripleTOF 5600 SCIEX
Instrument type: LC-ESI-QTOF
Ms type: MS2
Ion mode: POSITIVE
Collision energy: 90
Fragmentation mode: CID
Ionization: ESI
Column name: Zorbax Eclipse Plus C18 2.1 mm x 150 mm, 3.5 um, Agilent
Retention time: 8.67 min
Precursor m/z: 247.0882
Precursor type: [M+H]+
m/z	relative intensity
45.0432	573
51.029	76
56.9987	51
65.0431	251
74.0212	25
76.0343	51
77.0419	107
77.0573	25
78.05	35
79.9832	56
80.9909	107
83.0052	25
87.0251	20
89.0414	199
91.0563	194
91.985	30
102.0477	51
102.057	25
103.9799	30
104.9944	30
107.0051	578
109.0216	20
113.0408	71
115.054	353
126.0474	230
128.0616	20
131.0043	61
133.0204	92
139.055	276
144.0242	20
150.0456	117
151.0546	435
152.0623	999
155.0065	30
156.013	81
157.0211	491
179.0104	20
180.0114	71
181.0193	353
183.0367	153
