Mass spectrum: Oxytetracycline; LC-ESI-QTOF; MS2; 90 V
Name: Oxytetracycline
Class: Pharmaceutical
Formula: C22H24N2O9
Exact mass: 460.1482
SMILES: C[C@@]1([C@H]2[C@@H]([C@H]3[C@@H](C(=O)C(=C([C@]3(C(=O)C2=C(C4=C1C=CC=C4O)O)O)O)C(=O)N)N(C)C)O)O
InChI: InChI=1S/C22H24N2O9/c1-21(32)7-5-4-6-8(25)9(7)15(26)10-12(21)17(28)13-14(24(2)3)16(27)11(20(23)31)19(30)22(13,33)18(10)29/h4-6,12-14,17,25-26,28,30,32-33H,1-3H3,(H2,23,31)/t12-,13-,14+,17+,21-,22+/m1/s1
Instrument: TripleTOF 5600 SCIEX
Instrument type: LC-ESI-QTOF
Ms type: MS2
Ion mode: NEGATIVE
Collision energy: 90
Fragmentation mode: CID
Ionization: ESI
Column name: Zorbax Eclipse Plus C18 2.1 mm x 150 mm, 3.5 um, Agilent
Retention time: 5.586 min
Precursor m/z: 459.1409
Precursor type: [M-H]-
m/z	relative intensity
41.0066	78
42.0013	52
55.0194	105
66.0002	52
68.9982	131
79.0192	131
84.0061	52
92.027	315
93.0334	210
95.0138	131
96.0092	52
96.993	131
97.0282	52
108.0219	78
109.0311	131
117.0338	210
121.0316	78
122.0384	78
123.0088	78
124.0143	52
126.057	52
130.0408	78
133.0287	52
134.0229	105
135.0453	999
139.0136	157
143.0522	210
144.0575	262
145.03	236
145.0682	78
149.0278	78
150.0214	105
158.0373	262
159.0458	262
161.023	394
162.0137	78
162.0232	78
163.0338	131
167.0477	52
169.0671	105
171.0438	736
172.0514	657
173.0257	210
173.0613	709
174.034	236
175.0447	52
177.0297	78
178.0178	78
180.0534	52
182.0422	78
183.0412	131
183.0853	157
185.0327	131
185.0633	105
187.0409	315
191.0542	131
193.0708	78
195.0421	52
195.052	78
196.0537	236
197.0624	184
199.041	105
199.0768	131
201.0542	262
203.0334	52
207.0505	105
208.0494	184
209.0605	236
210.0336	105
211.0352	78
211.0429	78
211.076	131
219.0472	78
221.0626	105
222.0697	52
223.0746	131
224.0508	262
224.0642	78
225.0576	578
227.0343	105
233.0636	78
235.047	157
237.0481	78
237.0554	52
239.04	131
240.0387	78
252.053	105
253.052	946
255.0285	210
263.0573	52
267.0253	52
276.0538	105
