Mass spectrum: 2,6-Dichlorobenzamide; LC-ESI-QTOF; MS2; 40 V
Name: 2,6-Dichlorobenzamide
Class: Herbicide; Transformation_product
Formula: C7H5Cl2NO
Exact mass: 188.9748
SMILES: C1=CC(=C(C(=C1)Cl)C(=O)N)Cl
InChI: InChI=1S/C7H5Cl2NO/c8-4-2-1-3-5(9)6(4)7(10)11/h1-3H,(H2,10,11)
Instrument: TripleTOF 6600 SCIEX
Instrument type: LC-ESI-QTOF
Ms type: MS2
Ion mode: POSITIVE
Collision energy: 40
Fragmentation mode: CID
Ionization: ESI
Column name: Zorbax Eclipse Plus C18 2.1 mm x 150 mm, 3.5 um, Agilent
Retention time: 6.197 min
Precursor m/z: 189.9821
Precursor type: [M+H]+
m/z	relative intensity
44.0131	74
63.0227	34
74.0142	183
75.0223	34
90.0338	22
100.0168	91
108.9834	746
109.9887	51
135.9944	40
144.9595	453
164.0002	51
171.9703	45
172.9571	999
173.9586	34
