Mass spectrum: Tebufenozide; LC-ESI-QTOF; MS2; 100 V
Name: Tebufenozide
Class: Insecticide
Formula: C22H28N2O2
Exact mass: 352.2151
InChI: InChI=1S/C22H28N2O2/c1-7-17-8-10-18(11-9-17)20(25)23-24(22(4,5)6)21(26)19-13-15(2)12-16(3)14-19/h8-14H,7H2,1-6H3,(H,23,25)
Instrument: TripleTOF 6600 SCIEX
Instrument type: LC-ESI-QTOF
Ms type: CID
Ion mode: NEGATIVE
Collision energy: 100
Ionization: ESI
Column name: Zorbax Eclipse Plus C18 2.1 mm x 150 mm, 3.5 um, Agilent
Retention time: 13.575 min
Precursor m/z: 351.2078
Precursor type: [M-H]-
m/z	relative intensity
41.9985	999
