Mass spectrum: Heptadecafluoroundecanoic acid; LC-ESI-QTOF; MS2; 140 V
Name: Heptadecafluoroundecanoic acid
Formula: C11H5F17O2
Exact mass: 492.0018
SMILES: C(CC(C(C(C(C(C(C(C(F)(F)F)(F)F)(F)F)(F)F)(F)F)(F)F)(F)F)(F)F)C(=O)O
InChI: InChI=1S/C11H5F17O2/c12-4(13,2-1-3(29)30)5(14,15)6(16,17)7(18,19)8(20,21)9(22,23)10(24,25)11(26,27)28/h1-2H2,(H,29,30)
Instrument: TripleTOF 5600 SCIEX
Instrument type: LC-ESI-QTOF
Ms type: MS2
Ion mode: NEGATIVE
Collision energy: 140
Fragmentation mode: CID
Ionization: ESI
Column name: Zorbax Eclipse Plus C18 2.1 mm x 150 mm, 3.5 um, Agilent
Retention time: 15.293 min
Precursor m/z: 490.9945
Precursor type: [M-H]-
m/z	relative intensity
39.004	333
47.9997	166
62.9877	249
66.9978	166
68.9942	83
92.9948	499
97.997	999
116.9984	166
128.9971	333
147.9949	832
178.9935	83
