Mass spectrum: Dexamethasone; LC-ESI-QTOF; MS2; 130 V
Name: Dexamethasone
Class: Pharmaceutical
Formula: C22H29FO5
Exact mass: 392.1999
SMILES: C[C@@H]1C[C@H]2[C@@H]3CCC4=CC(=O)C=C[C@@]4([C@]3([C@H](C[C@@]2([C@]1(C(=O)CO)O)C)O)F)C
InChI: InChI=1S/C22H29FO5/c1-12-8-16-15-5-4-13-9-14(25)6-7-19(13,2)21(15,23)17(26)10-20(16,3)22(12,28)18(27)11-24/h6-7,9,12,15-17,24,26,28H,4-5,8,10-11H2,1-3H3/t12-,15+,16+,17+,19+,20+,21+,22+/m1/s1
Instrument: TripleTOF 5600 SCIEX
Instrument type: LC-ESI-QTOF
Ms type: MS2
Ion mode: POSITIVE
Collision energy: 130
Fragmentation mode: CID
Ionization: ESI
Column name: Zorbax Eclipse Plus C18 2.1 mm x 150 mm, 3.5 um, Agilent
Retention time: 9.089 min
Precursor m/z: 393.2072
Precursor type: [M+H]+
m/z	relative intensity
43.0275	51
51.0326	160
55.0273	16
65.0456	243
74.0214	19
75.0279	25
76.036	16
77.0441	999
78.0514	115
79.0602	121
89.0431	89
91.0579	742
93.0755	25
94.0448	22
95.0533	19
101.0408	32
102.0487	137
103.0573	211
104.0659	48
105.0746	48
107.0507	57
109.0478	16
115.0565	896
116.0641	57
117.0713	51
121.0675	92
125.0378	16
126.049	80
127.0557	249
128.0632	544
129.0734	76
130.0751	16
131.0507	188
132.0537	28
133.0462	32
139.0551	137
140.0614	22
141.0704	160
142.0795	22
144.0567	38
145.0546	16
145.0689	22
146.0551	19
149.0348	12
150.0476	64
151.0549	179
152.0629	579
153.0693	112
155.0554	32
157.0652	32
162.0504	22
163.0554	108
164.0631	134
165.0702	589
166.0813	19
167.0872	16
171.0743	12
175.0531	28
176.062	240
177.0683	121
178.0776	406
179.0842	44
181.0644	48
187.0534	57
188.0651	67
189.0696	608
190.0761	70
191.0832	54
194.0721	22
195.078	16
200.0612	83
201.0689	99
202.0768	390
203.0833	60
205.0649	41
207.0662	12
213.0701	112
214.0778	19
215.085	156
216.0907	16
218.0724	38
224.0585	25
225.0734	28
226.0773	150
227.0805	22
228.0932	41
231.08	38
237.0738	16
239.0829	48
242.0728	16
245.0834	12
252.0946	16
