Mass spectrum: 1,4-Dimethoxybenzene; LC-ESI-QTOF; MS2; 40 V
Name: 1,4-Dimethoxybenzene
Class: Food_additive
Formula: C8H10O2
Exact mass: 138.0681
SMILES: COc1ccc(OC)cc1
InChI: InChI=1S/C8H10O2/c1-9-7-3-5-8(10-2)6-4-7/h3-6H,1-2H3
Instrument: TripleTOF 5600 SCIEX
Instrument type: LC-ESI-QTOF
Ms type: MS2
Ion mode: POSITIVE
Collision energy: 40
Fragmentation mode: CID
Ionization: ESI
Column name: Zorbax Eclipse Plus C18 2.1 mm x 150 mm, 3.5 um, Agilent
Retention time: 10.084 min
Precursor m/z: 139.0754
Precursor type: [M+H]+
m/z	relative intensity
64.0338	76
65.0424	441
66.0483	76
67.0582	115
77.0418	672
78.0488	499
79.0554	76
81.0366	730
92.0266	422
93.033	115
94.0399	115
94.0509	96
95.0514	96
96.0601	595
107.0504	96
108.0563	595
109.0272	999
124.0526	806
139.0749	230
