Mass spectrum: Levetiracetam acid; LC-ESI-QTOF; MS2; 70 V
Name: Levetiracetam acid
Class: Pharmaceutical; Transformation_product
Formula: C8H13NO3
Exact mass: 171.0895
SMILES: CC[C@@H](C(=O)O)N1CCCC1=O
InChI: InChI=1S/C8H13NO3/c1-2-6(8(11)12)9-5-3-4-7(9)10/h6H,2-5H2,1H3,(H,11,12)/t6-/m0/s1
Instrument: TripleTOF 5600 SCIEX
Instrument type: LC-ESI-QTOF
Ms type: MS2
Ion mode: POSITIVE
Collision energy: 70
Fragmentation mode: CID
Ionization: ESI
Column name: Zorbax Eclipse Plus C18 2.1 mm x 150 mm, 3.5 um, Agilent
Retention time: 5.699 min
Precursor m/z: 172.0968
Precursor type: [M+H]+
m/z	relative intensity
42.0424	666
44.023	333
45.0412	208
56.0552	249
58.0688	416
68.0536	624
69.0366	999
69.0604	249
69.0773	208
82.0671	416
