Mass spectrum: Nevirapine; LC-ESI-QTOF; MS2; 110 V
Name: Nevirapine
Class: Pharmaceutical
Formula: C15H14N4O
Exact mass: 266.1168
SMILES: Cc1ccnc2N(C3CC3)c4ncccc4C(=O)Nc12
InChI: InChI=1S/C15H14N4O/c1-9-6-8-17-14-12(9)18-15(20)11-3-2-7-16-13(11)19(14)10-4-5-10/h2-3,6-8,10H,4-5H2,1H3,(H,18,20)
Instrument: TripleTOF 5600 SCIEX
Instrument type: LC-ESI-QTOF
Ms type: MS2
Ion mode: POSITIVE
Collision energy: 110
Fragmentation mode: CID
Ionization: ESI
Column name: Zorbax Eclipse Plus C18 2.1 mm x 150 mm, 3.5 um, Agilent
Retention time: 7.301 min
Precursor m/z: 267.124
Precursor type: [M+H]+
m/z	relative intensity
40.0273	18
41.0354	37
52.0243	69
52.0364	232
53.0192	32
53.0445	538
54.0411	46
64.0352	69
65.0293	74
65.0411	185
66.0373	162
67.0451	157
68.0531	18
74.0175	111
75.0143	88
75.0255	218
75.0565	23
76.0214	752
77.0284	102
77.0408	334
78.0367	999
79.0331	32
79.0451	255
80.0524	264
86.0176	27
87.0236	51
88.0186	41
88.031	78
89.0406	381
89.0745	27
90.035	213
91.043	83
91.055	23
92.0377	199
92.0505	65
93.0457	185
93.061	41
99.0216	27
100.0181	69
100.0318	27
101.0395	97
102.0347	181
103.0293	408
104.0362	162
104.0503	106
105.0447	190
106.0524	23
113.0382	37
114.0342	250
115.0416	106
115.0528	23
116.0361	32
116.0501	181
117.0443	134
117.0554	97
118.052	55
118.0633	27
119.0539	23
120.0548	23
125.0388	23
126.0335	83
126.0499	23
127.0407	69
128.0492	120
129.0448	130
130.0397	18
130.0641	37
131.0599	69
138.0349	32
139.0458	27
140.0479	102
141.0463	74
142.0539	157
143.0588	78
144.0549	41
145.0743	18
152.0463	32
153.0451	120
154.0412	51
154.0534	18
155.0608	167
156.055	83
157.0568	23
164.0496	23
165.0465	27
166.052	46
167.0501	27
168.0548	116
169.062	74
170.0698	69
171.0732	18
179.0569	37
180.0546	69
181.0613	23
182.072	55
194.0675	27
195.0686	69
206.0699	18
