Mass spectrum: Methylecgonidine; LC-ESI-QTOF; MS2; 60 V
Name: Methylecgonidine
Class: Metabolite
Formula: C10H15NO2
Exact mass: 181.1103
SMILES: CN1C2CCC1C(=CC2)C(=O)OC
InChI: InChI=1S/C10H15NO2/c1-11-7-3-5-8(10(12)13-2)9(11)6-4-7/h5,7,9H,3-4,6H2,1-2H3
Instrument: TripleTOF 6600 SCIEX
Instrument type: LC-ESI-QTOF
Ms type: MS2
Ion mode: POSITIVE
Collision energy: 60
Fragmentation mode: CID
Ionization: ESI
Column name: Zorbax Eclipse Plus C18 2.1 mm x 150 mm, 3.5 um, Agilent
Retention time: 4.43 min
Precursor m/z: 182.1176
Precursor type: [M+H]+
m/z	relative intensity
37.007	37
38.0148	37
39.023	431
41.0385	129
42.0336	141
44.049	49
50.0145	30
51.0226	185
53.0382	98
56.0495	98
59.0128	24
63.0227	49
65.0383	999
66.046	49
67.041	43
67.0537	37
68.0486	30
77.0383	437
78.0333	30
78.0451	24
79.0539	160
80.0488	92
81.0561	30
82.0649	37
89.0381	382
90.0456	400
91.0539	666
92.0486	43
93.0564	37
94.0648	67
103.0516	24
106.0644	277
107.0714	74
118.0403	37
120.0792	37
