Mass spectrum: Opipramol; LC-ESI-QTOF; MS2; 130 V
Name: Opipramol
Class: Pharmaceutical
Formula: C23H29N3O
Exact mass: 363.2311
SMILES: OCCN1CCN(CCCN2c3ccccc3C=Cc4ccccc24)CC1
InChI: InChI=1S/C23H29N3O/c27-19-18-25-16-14-24(15-17-25)12-5-13-26-22-8-3-1-6-20(22)10-11-21-7-2-4-9-23(21)26/h1-4,6-11,27H,5,12-19H2
Instrument: TripleTOF 5600 SCIEX
Instrument type: LC-ESI-QTOF
Ms type: MS2
Ion mode: POSITIVE
Collision energy: 130
Fragmentation mode: CID
Ionization: ESI
Column name: Zorbax Eclipse Plus C18 2.1 mm x 150 mm, 3.5 um, Agilent
Retention time: 7.242 min
Precursor m/z: 364.2383
Precursor type: [M+H]+
m/z	relative intensity
42.0414	240
45.0395	69
45.0497	18
51.0278	64
56.0533	97
58.07	23
68.0526	41
68.0672	18
69.0502	32
70.0677	157
74.0179	55
75.0252	175
77.0406	175
82.0657	41
83.0632	143
89.0395	46
97.0759	120
98.0847	60
100.0777	23
101.0387	124
102.0453	27
113.0362	23
115.053	46
125.0374	41
126.0465	60
127.0533	69
128.05	32
128.0609	41
128.0725	18
139.0524	101
140.0494	55
149.0371	41
150.0463	263
151.0535	689
152.0621	545
153.0563	23
162.0463	37
163.0538	203
164.0598	101
165.0685	92
166.0647	18
174.0466	27
175.0547	92
176.0617	999
177.0677	393
178.076	407
179.0691	32
188.0516	18
189.0676	78
190.0647	148
191.072	64
201.0567	60
202.0647	185
203.072	263
204.0809	411
216.0822	50
