Mass spectrum: Metobromuron; LC-ESI-QTOF; MS2; 120 V
Name: Metobromuron
Class: Herbicide
Formula: C9H11BrN2O2
Exact mass: 258.0004
SMILES: CN(C(=O)NC1=CC=C(C=C1)Br)OC
InChI: InChI=1S/C9H11BrN2O2/c1-12(14-2)9(13)11-8-5-3-7(10)4-6-8/h3-6H,1-2H3,(H,11,13)
Instrument: TripleTOF 6600 SCIEX
Instrument type: LC-ESI-QTOF
Ms type: MS2
Ion mode: POSITIVE
Collision energy: 120
Fragmentation mode: CID
Ionization: ESI
Column name: Zorbax Eclipse Plus C18 2.1 mm x 150 mm, 3.5 um, Agilent
Retention time: 10.623 min
Precursor m/z: 259.0077
Precursor type: [M+H]+
m/z	relative intensity
37.0052	282
38.0129	304
39.0209	738
50.0119	130
51.0203	108
52.0157	195
59.9969	108
61.0044	390
62.0121	629
63.0201	999
64.0281	173
65.0235	108
65.0356	173
74.0117	108
92.9305	195
116.9294	304
