Mass spectrum: Clonazepam; LC-ESI-QTOF; MS2; 100 V
Name: Clonazepam
Class: Pharmaceutical
Formula: C15H10ClN3O3
Exact mass: 315.0411
SMILES: C1C(=O)NC2=C(C=C(C=C2)[N+](=O)[O-])C(=N1)C3=CC=CC=C3Cl
InChI: InChI=1S/C15H10ClN3O3/c16-12-4-2-1-3-10(12)15-11-7-9(19(21)22)5-6-13(11)18-14(20)8-17-15/h1-7H,8H2,(H,18,20)
Instrument: TripleTOF 6600 SCIEX
Instrument type: LC-ESI-QTOF
Ms type: MS2
Ion mode: NEGATIVE
Collision energy: 100
Fragmentation mode: CID
Ionization: ESI
Column name: Zorbax Eclipse Plus C18 2.1 mm x 150 mm, 3.5 um, Agilent
Retention time: 9.867 min
Precursor m/z: 314.0338
Precursor type: [M-H]-
m/z	relative intensity
34.9695	999
41.9985	305
45.9929	157
140.0491	37
164.0523	46
