Mass spectrum: Cyclopropyltriphenylphosphonium; LC-ESI-QTOF; MS2; 110 V
Name: Cyclopropyltriphenylphosphonium
Formula: [C21H20P]+
Exact mass: 303.1297
SMILES: C1CC1[P+](C2=CC=CC=C2)(C3=CC=CC=C3)C4=CC=CC=C4
InChI: InChI=1S/C21H20P/c1-4-10-18(11-5-1)22(21-16-17-21,19-12-6-2-7-13-19)20-14-8-3-9-15-20/h1-15,21H,16-17H2/q+1
Instrument: TripleTOF 6600 SCIEX
Instrument type: LC-ESI-QTOF
Ms type: MS2
Ion mode: POSITIVE
Collision energy: 110
Fragmentation mode: CID
Ionization: ESI
Column name: Zorbax Eclipse Plus C18 2.1 mm x 150 mm, 3.5 um, Agilent
Retention time: 7.786 min
Precursor m/z: 303.1297
Precursor type: [M]+
m/z	relative intensity
56.9929	67
63.0268	92
65.0424	119
77.0416	73
79.9842	110
80.9918	166
89.0409	178
91.0565	91
102.0489	71
107.0071	999
115.0566	454
126.0487	133
131.0064	57
133.0223	88
139.0566	253
150.0482	87
151.0564	295
152.0647	815
157.0223	407
181.022	256
183.0373	172
