Mass spectrum: Proadifen; LC-ESI-QTOF; MS2; 40 V
Name: Proadifen
Formula: C23H31NO2
Exact mass: 353.2355
SMILES: CCCC(C1=CC=CC=C1)(C2=CC=CC=C2)C(=O)OCCN(CC)CC
InChI: InChI=1S/C23H31NO2/c1-4-17-23(20-13-9-7-10-14-20,21-15-11-8-12-16-21)22(25)26-19-18-24(5-2)6-3/h7-16H,4-6,17-19H2,1-3H3
Instrument: TripleTOF 6600 SCIEX
Instrument type: LC-ESI-QTOF
Ms type: MS2
Ion mode: POSITIVE
Collision energy: 40
Fragmentation mode: CID
Ionization: ESI
Column name: Zorbax Eclipse Plus C18 2.1 mm x 150 mm, 3.5 um, Agilent
Retention time: 9.831 min
Precursor m/z: 354.2428
Precursor type: [M+H]+
m/z	relative intensity
44.0486	16
65.0371	15
72.0793	39
73.027	14
77.037	17
79.0523	12
91.0529	805
100.1109	208
103.0522	12
105.0677	794
131.0843	202
149.0583	101
152.0613	53
165.069	63
166.0763	19
167.0848	999
209.1321	178
281.1541	35
354.2442	58
