Mass spectrum: Hydroxyatenolol; LC-ESI-QTOF; MS2; 80 V
Name: Hydroxyatenolol
Class: Pharmaceutical
Formula: C14H22N2O4
Exact mass: 282.158
SMILES: CC(C)NCC(COc1ccc(cc1)C(C(=O)N)O)O
InChI: InChI=1S/C14H22N2O4/c1-9(2)16-7-11(17)8-20-12-5-3-10(4-6-12)13(18)14(15)19/h3-6,9,11,13,16-18H,7-8H2,1-2H3,(H2,15,19)
Instrument: TripleTOF 5600 SCIEX
Instrument type: LC-ESI-QTOF
Ms type: MS2
Ion mode: POSITIVE
Collision energy: 80
Fragmentation mode: CID
Ionization: ESI
Column name: Zorbax Eclipse Plus C18 2.1 mm x 150 mm, 3.5 um, Agilent
Retention time: 3.214 min
Precursor m/z: 283.1652
Precursor type: [M+H]+
m/z	relative intensity
56.0566	518
74.0644	370
77.0415	999
89.0398	148
95.0524	259
104.0521	222
122.0614	148
