Mass spectrum: Diethylamino hydroxybenzoyl hexyl benzoate; LC-ESI-QTOF; MS2; 40 V
Name: Diethylamino hydroxybenzoyl hexyl benzoate
Formula: C24H31NO4
Exact mass: 397.2253
SMILES: CCCCCCOC(=O)C1=CC=CC=C1C(=O)C2=C(C=C(C=C2)N(CC)CC)O
InChI: InChI=1S/C24H31NO4/c1-4-7-8-11-16-29-24(28)20-13-10-9-12-19(20)23(27)21-15-14-18(17-22(21)26)25(5-2)6-3/h9-10,12-15,17,26H,4-8,11,16H2,1-3H3
Instrument: TripleTOF 6600 SCIEX
Instrument type: LC-ESI-QTOF
Ms type: MS2
Ion mode: POSITIVE
Collision energy: 40
Fragmentation mode: CID
Ionization: ESI
Column name: Zorbax Eclipse Plus C18 2.1 mm x 150 mm, 3.5 um, Agilent
Retention time: 17.769 min
Precursor m/z: 398.2326
Precursor type: [M+H]+
m/z	relative intensity
43.0544	11
121.0283	13
138.0908	32
149.0233	999
164.0705	21
224.0697	40
239.0933	68
240.1005	532
250.086	69
252.0655	77
266.0811	207
267.0887	123
268.0969	244
269.1043	32
285.0985	19
296.128	86
314.1377	29
354.1686	27
369.1924	30
398.2323	117
