Mass spectrum: Lisofylline; LC-ESI-QTOF; MS2; 60 V
Name: Lisofylline
Class: Pharmaceutical; Metabolite
Formula: C13H20N4O3
Exact mass: 280.1535
SMILES: CC(O)CCCCN1C(=O)N(C)c2ncn(C)c2C1=O
InChI: InChI=1S/C13H20N4O3/c1-9(18)6-4-5-7-17-12(19)10-11(14-8-15(10)2)16(3)13(17)20/h8-9,18H,4-7H2,1-3H3
Instrument: TripleTOF 5600 SCIEX
Instrument type: LC-ESI-QTOF
Ms type: MS2
Ion mode: POSITIVE
Collision energy: 60
Fragmentation mode: CID
Ionization: ESI
Column name: Zorbax Eclipse Plus C18 2.1 mm x 150 mm, 3.5 um, Agilent
Retention time: 6.425 min
Precursor m/z: 281.1608
Precursor type: [M+H]+
m/z	relative intensity
42.0445	435
54.0404	90
55.0598	195
56.018	217
56.0286	52
56.0373	30
56.0565	120
56.0667	30
66.0399	37
67.0331	938
67.0564	75
68.0398	67
69.0481	585
79.0295	30
81.047	458
82.0544	90
83.0248	37
83.0322	52
83.0628	563
93.0463	82
94.043	97
95.0258	37
95.0468	37
95.0607	105
96.056	135
107.0488	52
108.0558	999
108.0945	52
109.0406	142
110.0714	848
110.1103	30
113.0352	127
120.0551	82
121.0633	307
122.0597	638
123.0421	428
124.0515	52
132.0557	105
135.0652	307
136.05	247
137.082	270
138.0661	908
147.0665	45
148.0395	45
149.0797	37
163.0607	570
163.0797	60
165.0777	157
181.0717	225
181.0891	52
193.0723	75
