Mass spectrum: Amido Black 10B; LC-ESI-QTOF; MS2; 100 V
Name: Amido Black 10B
Formula: C22H16N6O9S2
Exact mass: 572.042
SMILES: C1=CC=C(C=C1)N=NC2=C(C3=C(C(=C(C=C3C=C2S(=O)(=O)O)S(=O)(=O)O)N=NC4=CC=C(C=C4)[N+](=O)[O-])N)O
InChI: InChI=1S/C22H16N6O9S2/c23-19-18-12(11-17(39(35,36)37)21(22(18)29)27-24-13-4-2-1-3-5-13)10-16(38(32,33)34)20(19)26-25-14-6-8-15(9-7-14)28(30)31/h1-11,29H,23H2,(H,32,33,34)(H,35,36,37)
Instrument: TripleTOF 6600 SCIEX
Instrument type: LC-ESI-QTOF
Ms type: MS2
Ion mode: POSITIVE
Collision energy: 100
Fragmentation mode: CID
Ionization: ESI
Column name: Zorbax Eclipse Plus C18 2.1 mm x 150 mm, 3.5 um, Agilent
Retention time: 9.552 min
Precursor m/z: 573.0493
Precursor type: [M+H]+
m/z	relative intensity
39.0232	35
63.0227	13
64.0301	12
65.0384	522
66.046	110
74.0162	12
75.0224	129
77.038	97
78.0335	12
80.0493	29
90.0326	24
92.0268	28
92.0486	331
93.057	999
102.034	26
114.033	35
117.0437	33
129.0448	44
130.0314	14
139.028	15
145.0385	56
150.0303	17
151.0545	10
157.0402	15
173.0322	71
175.0417	11
177.0554	30
178.058	12
179.0615	13
188.0392	11
189.0435	43
190.057	15
191.0621	10
192.0617	24
193.0703	13
203.0623	25
204.0581	41
205.0732	72
206.0759	16
213.0473	12
215.0542	33
216.056	75
217.064	37
218.0716	17
220.0846	19
230.07	75
231.0757	53
232.0863	51
241.0544	10
242.0581	74
243.0694	48
245.062	10
255.0704	15
259.0732	20
260.0818	12
269.0515	12
270.0552	38
271.0619	38
273.0774	12
292.0858	13
306.0935	13
307.0923	16
318.0936	10
319.0958	13
