Mass spectrum: 2-Methylbenzimidazole; LC-ESI-QTOF; MS2; 50 V
Name: 2-Methylbenzimidazole
Formula: C8H8N2
Exact mass: 132.0687
SMILES: CC1=NC2=CC=CC=C2N1
InChI: InChI=1S/C8H8N2/c1-6-9-7-4-2-3-5-8(7)10-6/h2-5H,1H3,(H,9,10)
Instrument: TripleTOF 6600 SCIEX
Instrument type: LC-ESI-QTOF
Ms type: MS2
Ion mode: POSITIVE
Collision energy: 50
Fragmentation mode: CID
Ionization: ESI
Column name: Zorbax Eclipse Plus C18 2.1 mm x 150 mm, 3.5 um, Agilent
Retention time: 4.68 min
Precursor m/z: 133.076
Precursor type: [M+H]+
m/z	relative intensity
35.9991	10
37.007	52
38.0148	49
39.023	456
51.0227	10
52.0176	10
63.0225	19
64.0303	16
65.0384	999
77.0377	18
91.0407	42
92.0489	119
93.0564	10
118.0524	27
131.0599	28
133.0764	12
