Mass spectrum: 3-Alizarinsulfonic acid; LC-ESI-QTOF; MS2; 60 V
Name: 3-Alizarinsulfonic acid
Formula: C14H8O7S
Exact mass: 319.9991
SMILES: C1=CC=C2C(=C1)C(=O)C3=CC(=C(C(=C3C2=O)O)O)S(=O)(=O)O
InChI: InChI=1S/C14H8O7S/c15-11-6-3-1-2-4-7(6)12(16)10-8(11)5-9(22(19,20)21)13(17)14(10)18/h1-5,17-18H,(H,19,20,21)
Instrument: TripleTOF 6600 SCIEX
Instrument type: LC-ESI-QTOF
Ms type: MS2
Ion mode: NEGATIVE
Collision energy: 60
Fragmentation mode: CID
Ionization: ESI
Column name: Zorbax Eclipse Plus C18 2.1 mm x 150 mm, 3.5 um, Agilent
Retention time: 8.229 min
Precursor m/z: 318.9918
Precursor type: [M-H]-
m/z	relative intensity
79.9568	46
80.9648	23
101.0397	40
125.0396	64
127.054	60
143.0477	10
153.0342	56
154.0445	17
155.0493	142
167.0492	217
182.0369	20
183.0448	76
195.0462	27
198.0315	10
210.0313	999
211.0393	516
226.0285	18
238.0251	77
239.0345	477
255.0296	12
