Mass spectrum: Clomazone; LC-ESI-QTOF; MS2; 150 V
Name: Clomazone
Class: Herbicide
Formula: C12H14ClNO2
Exact mass: 239.0713
SMILES: CC1(CON(C1=O)CC2=CC=CC=C2Cl)C
InChI: InChI=1S/C12H14ClNO2/c1-12(2)8-16-14(11(12)15)7-9-5-3-4-6-10(9)13/h3-6H,7-8H2,1-2H3
Instrument: TripleTOF 6600 SCIEX
Instrument type: LC-ESI-QTOF
Ms type: MS2
Ion mode: POSITIVE
Collision energy: 150
Fragmentation mode: CID
Ionization: ESI
Column name: Zorbax Eclipse Plus C18 2.1 mm x 150 mm, 3.5 um, Agilent
Retention time: 11.289 min
Precursor m/z: 240.0786
Precursor type: [M+H]+
m/z	relative intensity
35.9976	110
37.0056	518
38.0007	22
38.0135	369
39.0217	391
46.9667	256
48.9818	204
49.0045	57
50.0129	190
51.0209	52
59.9975	146
61.005	792
62.0129	999
63.0206	803
64.0308	22
72.9813	386
73.0044	44
74.0126	140
75.0202	19
85.0042	19
86.0124	24
89.0363	154
