Mass spectrum: Chloridazone-methyl-desphenyl; LC-ESI-QTOF; MS2; 30 V
Name: Chloridazone-methyl-desphenyl
Class: Herbicide; Transformation_product
Formula: C5H6ClN3O
Exact mass: 159.0199
InChI: InChI=1S/C5H6ClN3O/c1-9-5(10)4(6)3(7)2-8-9/h2H,7H2,1H3
Instrument: TripleTOF 6600 SCIEX
Instrument type: LC-ESI-QTOF
Ms type: CID
Ion mode: NEGATIVE
Collision energy: 30
Ionization: ESI
Column name: Zorbax Eclipse Plus C18 2.1 mm x 150 mm, 3.5 um, Agilent
Retention time: 4.787 min
Precursor m/z: 158.0126
Precursor type: [M-H]-
m/z	relative intensity
34.9695	999
41.9984	83
64.0061	83
65.014	582
73.9788	83
107.0125	749
158.0096	249
