Mass spectrum: 3-Hydroxyacetaminophen; LC-ESI-QTOF; MS2; 90 V
Name: 3-Hydroxyacetaminophen
Class: Pharmaceutical; Transformation_product
Formula: C8H9NO3
Exact mass: 167.0582
SMILES: CC(=O)Nc1ccc(O)c(O)c1
InChI: InChI=1S/C8H9NO3/c1-5(10)9-6-2-3-7(11)8(12)4-6/h2-4,11-12H,1H3,(H,9,10)
Instrument: TripleTOF 5600 SCIEX
Instrument type: LC-ESI-QTOF
Ms type: MS2
Ion mode: POSITIVE
Collision energy: 90
Fragmentation mode: CID
Ionization: ESI
Column name: Zorbax Eclipse Plus C18 2.1 mm x 150 mm, 3.5 um, Agilent
Retention time: 4.471 min
Precursor m/z: 168.0655
Precursor type: [M+H]+
m/z	relative intensity
41.0346	14
42.0418	36
43.0283	999
43.0514	87
43.059	10
44.0209	25
52.0319	134
53.0079	39
54.0403	233
55.0239	118
65.0299	19
68.0164	17
78.0363	31
80.0529	558
81.0348	22
