Mass spectrum: 1-Cyclohexyl-3-(2-methylphenyl)urea; LC-ESI-QTOF; MS2; 50 V
Name: 1-Cyclohexyl-3-(2-methylphenyl)urea
Formula: C14H20N2O
Exact mass: 232.1576
SMILES: O=C(NC1CCCCC1)Nc2ccccc2C
InChI: InChI=1S/C14H20N2O/c1-11-7-5-6-10-13(11)16-14(17)15-12-8-3-2-4-9-12/h5-7,10,12H,2-4,8-9H2,1H3,(H2,15,16,17)
Instrument: TripleTOF 6600 SCIEX
Instrument type: LC-ESI-QTOF
Ms type: MS2
Ion mode: POSITIVE
Collision energy: 50
Fragmentation mode: CID
Ionization: ESI
Column name: Zorbax Eclipse Plus C18 2.1 mm x 150 mm, 3.5 um, Agilent
Retention time: 11.026 min
Precursor m/z: 233.1649
Precursor type: [M+H]+
m/z	relative intensity
39.0222	11
55.0537	212
65.0377	54
66.0452	19
83.0841	11
91.0533	378
93.0565	999
106.0637	48
108.0797	247
