Mass spectrum: Dipyridamole; LC-ESI-QTOF; MS2; 40 V
Name: Dipyridamole
Class: Pharmaceutical
Formula: C24H40N8O4
Exact mass: 504.3173
SMILES: OCCN(CCO)c1nc(N2CCCCC2)c3nc(nc(N4CCCCC4)c3n1)N(CCO)CCO
InChI: InChI=1S/C24H40N8O4/c33-15-11-31(12-16-34)23-26-20-19(21(27-23)29-7-3-1-4-8-29)25-24(32(13-17-35)14-18-36)28-22(20)30-9-5-2-6-10-30/h33-36H,1-18H2
Instrument: TripleTOF 5600 SCIEX
Instrument type: LC-ESI-QTOF
Ms type: MS2
Ion mode: POSITIVE
Collision energy: 40
Fragmentation mode: CID
Ionization: ESI
Column name: Zorbax Eclipse Plus C18 2.1 mm x 150 mm, 3.5 um, Agilent
Retention time: 7.666 min
Precursor m/z: 505.3245
Precursor type: [M+H]+
m/z	relative intensity
385.2454	20
429.2707	23
460.2891	16
487.3143	12
505.3239	999
