Mass spectrum: Prosulfocarb; LC-ESI-QTOF; MS2; 140 V
Name: Prosulfocarb
Class: Herbicide
Formula: C14H21NOS
Exact mass: 251.1344
SMILES: CCCN(CCC)C(=O)SCC1=CC=CC=C1
InChI: InChI=1S/C14H21NOS/c1-3-10-15(11-4-2)14(16)17-12-13-8-6-5-7-9-13/h5-9H,3-4,10-12H2,1-2H3
Instrument: TripleTOF 6600 SCIEX
Instrument type: LC-ESI-QTOF
Ms type: MS2
Ion mode: POSITIVE
Collision energy: 140
Fragmentation mode: CID
Ionization: ESI
Column name: Zorbax Eclipse Plus C18 2.1 mm x 150 mm, 3.5 um, Agilent
Retention time: 15.467 min
Precursor m/z: 252.1417
Precursor type: [M+H]+
m/z	relative intensity
35.9992	63
37.0073	381
38.0149	326
39.0231	999
41.0385	34
49.0071	92
50.0151	384
51.0226	189
59.9991	20
61.007	151
62.015	311
63.0228	216
65.0384	180
74.0143	32
91.0531	13
