Mass spectrum: Lumichrome; LC-ESI-QTOF; MS2; 70 V
Name: Lumichrome
Class: Pharmaceutical
Formula: C12H10N4O2
Exact mass: 242.0804
SMILES: CC1=CC2=C(C=C1C)N=C3C(=N2)C(=O)NC(=O)N3
InChI: InChI=1S/C12H10N4O2/c1-5-3-7-8(4-6(5)2)14-10-9(13-7)11(17)16-12(18)15-10/h3-4H,1-2H3,(H2,14,15,16,17,18)
Instrument: TripleTOF 6600 SCIEX
Instrument type: LC-ESI-QTOF
Ms type: MS2
Ion mode: POSITIVE
Collision energy: 70
Fragmentation mode: CID
Ionization: ESI
Column name: Zorbax Eclipse Plus C18 2.1 mm x 150 mm, 3.5 um, Agilent
Retention time: 7.067 min
Precursor m/z: 243.0877
Precursor type: [M+H]+
m/z	relative intensity
50.0156	41
51.0235	173
52.0187	12
63.0235	27
65.0388	88
75.0235	46
76.0187	15
77.0393	999
78.0471	21
89.0391	160
90.034	18
90.0463	14
91.0547	255
92.051	11
101.0386	40
102.0343	54
102.0466	65
103.0422	13
103.0546	287
104.0498	85
105.046	29
115.042	13
116.0498	284
117.0578	82
118.0656	49
128.0502	34
129.045	51
130.0407	41
130.0647	26
142.0527	26
143.06	15
145.0768	24
153.0455	11
156.0566	62
157.0632	17
170.0715	12
