Mass spectrum: Dehydroepiandrosterone; LC-ESI-QTOF; MS2; 40 V
Name: Dehydroepiandrosterone
Class: Pharmaceutical
Formula: C19H28O2
Exact mass: 288.2089
SMILES: C[C@]12CC[C@H]3[C@@H](CC=C4C[C@@H](O)CC[C@]34C)[C@@H]1CCC2=O
InChI: InChI=1S/C19H28O2/c1-18-9-7-13(20)11-12(18)3-4-14-15-5-6-17(21)19(15,2)10-8-16(14)18/h3,13-16,20H,4-11H2,1-2H3/t13-,14-,15-,16-,18-,19-/m0/s1
Instrument: TripleTOF 5600 SCIEX
Instrument type: LC-ESI-QTOF
Ms type: MS2
Ion mode: POSITIVE
Collision energy: 40
Fragmentation mode: CID
Ionization: ESI
Column name: Zorbax Eclipse Plus C18 2.1 mm x 150 mm, 3.5 um, Agilent
Retention time: 11.589 min
Precursor m/z: 289.2162
Precursor type: [M+H]+
m/z	relative intensity
67.0568	90
79.0567	249
81.0709	340
91.0554	385
93.0681	227
95.0861	113
105.0706	476
107.085	181
117.069	158
119.0858	181
128.0605	136
129.0705	340
131.0836	544
133.0997	590
135.1147	204
142.076	113
143.085	385
145.1003	476
147.1155	227
155.0833	295
156.0924	90
157.1	885
159.1139	476
167.084	90
168.0947	204
169.1002	317
171.1167	794
173.1333	227
182.1117	204
183.1169	363
184.123	136
185.1345	317
197.1333	454
198.1382	113
211.1507	249
213.1625	999
253.1914	90
