Mass spectrum: Candesartan; LC-ESI-QTOF; MS2; 140 V
Name: Candesartan
Class: Pharmaceutical
Formula: C24H20N6O3
Exact mass: 440.1597
SMILES: CCOc1nc2cccc(C(O)=O)c2n1Cc3ccc(cc3)c4ccccc4c5n[nH]nn5
InChI: InChI=1S/C24H20N6O3/c1-2-33-24-25-20-9-5-8-19(23(31)32)21(20)30(24)14-15-10-12-16(13-11-15)17-6-3-4-7-18(17)22-26-28-29-27-22/h3-13H,2,14H2,1H3,(H,31,32)(H,26,27,28,29)
Instrument: TripleTOF 5600 SCIEX
Instrument type: LC-ESI-QTOF
Ms type: MS2
Ion mode: POSITIVE
Collision energy: 140
Fragmentation mode: CID
Ionization: ESI
Column name: Zorbax Eclipse Plus C18 2.1 mm x 150 mm, 3.5 um, Agilent
Retention time: 10.001 min
Precursor m/z: 441.167
Precursor type: [M+H]+
m/z	relative intensity
51.0287	82
65.0429	27
74.0172	30
75.0251	49
75.0369	14
76.0326	24
77.0409	162
78.0357	75
80.052	15
86.0162	12
87.0244	45
88.0327	11
89.0397	106
90.0345	18
90.0476	14
91.056	10
98.0159	22
99.0224	35
100.0312	14
101.0392	45
102.0342	16
102.0462	66
105.0444	97
111.0234	15
113.0382	122
114.0325	31
114.0448	21
115.0536	173
116.0511	15
123.0244	10
124.029	10
125.038	90
126.0465	179
127.0539	135
128.0482	20
128.0613	54
137.0378	96
138.0329	20
138.046	44
139.0538	247
140.0491	204
149.0379	56
150.0458	543
151.0541	999
152.0617	773
153.0572	83
161.0371	31
162.0459	126
163.0538	675
164.0548	517
165.0453	12
165.069	264
166.0633	29
174.0438	15
175.0477	56
176.0607	416
177.0571	292
178.0647	165
179.0666	28
180.0762	10
187.0513	14
188.0486	176
189.0578	125
190.065	339
191.0683	48
192.0718	17
201.0556	10
203.0625	23
205.0753	81
214.0649	12
216.0736	11
218.0835	11
224.0607	10
225.0648	15
226.0717	20
237.0623	10
238.066	22
239.0637	16
249.0544	15
251.072	30
263.0565	11
264.0758	15
265.0747	18
