Mass spectrum: Fluazifop-P-butyl; LC-ESI-QTOF; MS2; 30 V
Name: Fluazifop-P-butyl
Class: Herbicide
Formula: C19H20F3NO4
Exact mass: 383.1344
SMILES: CCCCOC(=O)C(C)OC1=CC=C(C=C1)OC2=NC=C(C=C2)C(F)(F)F
InChI: InChI=1S/C19H20F3NO4/c1-3-4-11-25-18(24)13(2)26-15-6-8-16(9-7-15)27-17-10-5-14(12-23-17)19(20,21)22/h5-10,12-13H,3-4,11H2,1-2H3
Instrument: TripleTOF 6600 SCIEX
Instrument type: LC-ESI-QTOF
Ms type: MS2
Ion mode: POSITIVE
Collision energy: 30
Fragmentation mode: CID
Ionization: ESI
Column name: Zorbax Eclipse Plus C18 2.1 mm x 150 mm, 3.5 um, Agilent
Retention time: 15.933 min
Precursor m/z: 384.1417
Precursor type: [M+H]+
m/z	relative intensity
91.0536	38
119.0485	11
238.0466	22
254.0758	145
255.049	54
256.057	36
282.0734	999
328.0788	312
384.1406	19
