Mass spectrum: 2,6-Dichlorodiphenylamine; LC-ESI-QTOF; MS2; 40 V
Name: 2,6-Dichlorodiphenylamine
Class: Pharmaceutical
Formula: C12H9Cl2N
Exact mass: 237.0112
SMILES: C1=CC=C(C=C1)NC2=C(C=CC=C2Cl)Cl
InChI: InChI=1S/C12H9Cl2N/c13-10-7-4-8-11(14)12(10)15-9-5-2-1-3-6-9/h1-8,15H
Instrument: TripleTOF 5600 SCIEX
Instrument type: LC-ESI-QTOF
Ms type: MS2
Ion mode: POSITIVE
Collision energy: 40
Fragmentation mode: CID
Ionization: ESI
Column name: Zorbax Eclipse Plus C18 2.1 mm x 150 mm, 3.5 um, Agilent
Retention time: 14.125 min
Precursor m/z: 238.0185
Precursor type: [M+H]+
m/z	relative intensity
65.0441	35
66.052	44
77.0443	164
90.0361	97
92.0537	102
93.06	581
99.0007	111
123.9965	115
125.0046	186
126.0141	62
132.9617	386
139.0534	35
140.0525	26
159.9717	927
160.9793	999
166.0659	84
167.0739	528
168.081	688
202.0391	53
203.0496	839
238.0187	470
