Mass spectrum: Cyproterone; LC-ESI-QTOF; MS2; 80 V
Name: Cyproterone
Class: Pharmaceutical
Formula: C22H27ClO3
Exact mass: 374.1649
SMILES: CC(=O)C1(CCC2C1(CCC3C2C=C(C4=CC(=O)C5CC5C34C)Cl)C)O
InChI: InChI=1S/C22H27ClO3/c1-11(24)22(26)7-5-14-12-9-18(23)17-10-19(25)13-8-16(13)21(17,3)15(12)4-6-20(14,22)2/h9-10,12-16,26H,4-8H2,1-3H3
Instrument: TripleTOF 5600 SCIEX
Instrument type: LC-ESI-QTOF
Ms type: MS2
Ion mode: POSITIVE
Collision energy: 80
Fragmentation mode: CID
Ionization: ESI
Column name: Zorbax Eclipse Plus C18 2.1 mm x 150 mm, 3.5 um, Agilent
Retention time: 11.881 min
Precursor m/z: 375.1721
Precursor type: [M+H]+
m/z	relative intensity
41.0398	39
43.0181	391
55.0537	58
59.0499	48
65.038	78
67.054	48
77.0384	470
79.0544	274
83.0499	48
87.0468	39
91.0539	979
93.0708	146
102.0493	39
103.0541	137
104.0609	48
105.0698	519
107.0503	107
107.0854	68
111.0833	39
115.0547	656
116.0622	127
117.0698	215
119.0833	88
125.0132	48
127.0546	323
128.0619	783
129.0699	470
130.076	78
131.0488	146
131.0852	97
133.0638	48
133.1003	68
139.0324	58
139.0539	78
141.0701	832
142.0782	323
143.0864	137
144.0569	107
145.0633	137
151.0535	107
152.0628	401
153.07	558
154.0766	166
155.0851	254
156.096	39
157.0637	156
158.0751	88
162.0261	48
164.0611	48
165.07	999
166.0772	293
167.0852	333
168.0916	48
169.0648	127
169.1026	97
170.0762	48
171.0786	58
176.0627	68
177.0707	117
178.0788	763
179.0843	568
180.0945	156
181.0647	156
181.1014	137
182.0722	58
182.1035	39
183.0816	78
189.0698	313
190.078	352
191.0312	48
191.0861	499
192.0931	303
193.064	39
193.1011	254
194.0755	97
194.1074	58
195.0794	156
201.0637	68
202.0764	450
203.086	470
204.0951	215
205.0411	48
205.1001	303
206.1092	97
207.0803	166
207.1177	117
208.089	176
209.0948	97
215.0854	440
216.0919	107
217.1034	284
218.1088	78
219.0791	107
219.1122	97
220.0887	78
221.0965	146
222.0993	97
227.0825	78
228.0905	68
229.1019	117
230.1102	58
231.0782	88
231.1174	107
232.0943	48
233.1003	137
233.1386	58
234.1252	48
235.1087	48
240.0894	39
245.0962	39
246.1449	48
248.1206	88
249.1247	107
262.0946	48
