Mass spectrum: Octhilinone; LC-ESI-QTOF; MS2; 100 V
Name: Octhilinone
Class: Fungicide; Antimicrobial
Formula: C11H19NOS
Exact mass: 213.1187
SMILES: CCCCCCCCN1C(=O)C=CS1
InChI: InChI=1S/C11H19NOS/c1-2-3-4-5-6-7-9-12-11(13)8-10-14-12/h8,10H,2-7,9H2,1H3
Instrument: TripleTOF 6600 SCIEX
Instrument type: LC-ESI-QTOF
Ms type: CID
Ion mode: POSITIVE
Collision energy: 100
Ionization: ESI
Column name: Zorbax Eclipse Plus C18 2.1 mm x 150 mm, 3.5 um, Agilent
Retention time: 11.855 min
Precursor m/z: 214.126
Precursor type: [M+H]+
m/z	relative intensity
35.9995	78
37.0079	247
38.003	78
38.0155	210
39.0236	908
40.0061	15
40.0181	37
41.0391	281
44.0134	221
44.9797	112
45.9747	22
46.9823	18
47.9906	52
52.0062	22
53.0024	56
53.0137	37
55.9721	22
56.9798	999
57.9874	214
58.9951	131
82.9832	18
83.9904	90
84.9743	48
102.0001	30
