Mass spectrum: Tributyltetradecylphosphonium; LC-ESI-QTOF; MS2; 60 V
Name: Tributyltetradecylphosphonium
Formula: [C26H56P]+
Exact mass: 399.4114
SMILES: CCCCCCCCCCCCCC[P+](CCCC)(CCCC)CCCC
InChI: InChI=1S/C26H56P/c1-5-9-13-14-15-16-17-18-19-20-21-22-26-27(23-10-6-2,24-11-7-3)25-12-8-4/h5-26H2,1-4H3/q+1
Instrument: TripleTOF 5600 SCIEX
Instrument type: LC-ESI-QTOF
Ms type: MS2
Ion mode: POSITIVE
Collision energy: 60
Fragmentation mode: CID
Ionization: ESI
Column name: Zorbax Eclipse Plus C18 2.1 mm x 150 mm, 3.5 um, Agilent
Retention time: 14.891 min
Precursor m/z: 399.4114
Precursor type: [M]+
m/z	relative intensity
76.0433	231
90.0582	79
131.0982	59
173.1464	111
187.1619	75
215.1939	100
229.2088	211
257.2403	52
271.2565	78
285.2719	78
299.288	63
313.3027	74
327.3187	58
343.3497	101
399.4121	999
