Mass spectrum: Esculetin; LC-ESI-QTOF; MS2; 60 V
Name: Esculetin
Class: Pharmaceutical
Formula: C9H6O4
Exact mass: 178.0266
SMILES: Oc1cc2OC(=O)C=Cc2cc1O
InChI: InChI=1S/C9H6O4/c10-6-3-5-1-2-9(12)13-8(5)4-7(6)11/h1-4,10-11H
Instrument: TripleTOF 5600 SCIEX
Instrument type: LC-ESI-QTOF
Ms type: MS2
Ion mode: NEGATIVE
Collision energy: 60
Fragmentation mode: CID
Ionization: ESI
Column name: Zorbax Eclipse Plus C18 2.1 mm x 150 mm, 3.5 um, Agilent
Retention time: 5.732 min
Precursor m/z: 177.0193
Precursor type: [M-H]-
m/z	relative intensity
39.9963	58
41.0029	999
51.0238	235
53.0408	58
65.0028	235
65.0388	293
67.0179	372
75.0225	137
77.0388	254
79.0181	528
81.0334	156
82.0053	137
89.0386	666
93.0338	176
104.0274	58
105.0323	137
119.0125	78
