Mass spectrum: L-Isoleucine; LC-ESI-QTOF; MS2; 100 V
Name: L-Isoleucine
Class: Food_additive; Personal_care_product
Formula: C6H13NO2
Exact mass: 131.0946
SMILES: CCC(C(C(O)=O)N)C
InChI: InChI=1S/C6H13NO2/c1-3-4(2)5(7)6(8)9/h4-5H,3,7H2,1-2H3,(H,8,9)
Instrument: TripleTOF 5600 SCIEX
Instrument type: LC-ESI-QTOF
Ms type: MS2
Ion mode: POSITIVE
Collision energy: 100
Fragmentation mode: CID
Ionization: ESI
Column name: Zorbax Eclipse Plus C18 2.1 mm x 150 mm, 3.5 um, Agilent
Retention time: 2.357 min
Precursor m/z: 132.1019
Precursor type: [M+H]+
m/z	relative intensity
35.9994	134
37.0074	505
38.0155	426
39.0231	999
41.0267	67
41.0379	101
42.0339	224
43.0183	67
44.0498	78
44.9978	179
45.0332	67
56.0492	157
