Mass spectrum: Carbamazepine; LC-ESI-QTOF; MS2; 120 V
Name: Carbamazepine
Class: Pharmaceutical
Formula: C15H12N2O
Exact mass: 236.095
SMILES: NC(=O)N1c2ccccc2C=Cc3ccccc13
InChI: InChI=1S/C15H12N2O/c16-15(18)17-13-7-3-1-5-11(13)9-10-12-6-2-4-8-14(12)17/h1-10H,(H2,16,18)
Instrument: TripleTOF 5600 SCIEX
Instrument type: LC-ESI-QTOF
Ms type: MS2
Ion mode: POSITIVE
Collision energy: 120
Fragmentation mode: CID
Ionization: ESI
Column name: Zorbax Eclipse Plus C18 2.1 mm x 150 mm, 3.5 um, Agilent
Retention time: 8.87 min
Precursor m/z: 237.1022
Precursor type: [M+H]+
m/z	relative intensity
60.0058	39
65.0411	111
73.0106	39
74.0184	483
75.026	375
76.0203	19
76.0331	115
77.0422	151
78.0483	19
85.0096	111
86.0176	259
87.0242	371
88.0279	119
89.04	655
90.0371	23
90.0474	15
91.0565	27
97.0094	31
98.0157	331
99.0236	171
100.0302	71
101.0372	31
101.0463	19
102.0448	99
109.0059	27
110.0127	215
111.0226	139
112.0284	23
113.038	387
114.0334	103
115.054	263
116.0503	23
122.0149	55
123.0183	47
124.0286	27
125.0371	63
126.0469	119
127.0555	31
134.0137	19
137.0379	203
138.0439	103
139.0526	351
140.0491	195
149.0407	67
150.0456	371
151.0525	91
152.0593	27
161.0397	239
162.0451	383
163.0539	999
164.0525	363
165.0689	67
166.0661	23
174.0444	43
175.0454	51
176.0512	51
177.0569	31
187.04	47
188.0509	291
189.0575	243
190.0648	283
191.0733	39
