Mass spectrum: Olmesartan; LC-ESI-QTOF; MS2; 80 V
Name: Olmesartan
Class: Pharmaceutical
Formula: C24H26N6O3
Exact mass: 446.2066
SMILES: CCCc1nc(c(n1Cc2ccc(cc2)c3ccccc3c4n[nH]nn4)C(O)=O)C(C)(C)O
InChI: InChI=1S/C24H26N6O3/c1-4-7-19-25-21(24(2,3)33)20(23(31)32)30(19)14-15-10-12-16(13-11-15)17-8-5-6-9-18(17)22-26-28-29-27-22/h5-6,8-13,33H,4,7,14H2,1-3H3,(H,31,32)(H,26,27,28,29)
Instrument: TripleTOF 5600 SCIEX
Instrument type: LC-ESI-QTOF
Ms type: MS2
Ion mode: POSITIVE
Collision energy: 80
Fragmentation mode: CID
Ionization: ESI
Column name: Zorbax Eclipse Plus C18 2.1 mm x 150 mm, 3.5 um, Agilent
Retention time: 7.356 min
Precursor m/z: 447.2139
Precursor type: [M+H]+
m/z	relative intensity
77.0416	59
80.0523	31
115.0536	24
127.0543	33
128.0614	11
139.0536	21
140.0498	81
150.0475	10
151.0546	145
152.0622	474
153.0698	277
154.0645	19
163.0544	149
164.0609	117
165.068	144
166.0655	39
167.073	34
168.0673	21
176.0615	37
177.0702	32
177.1018	89
178.0772	634
179.0728	172
180.0807	364
181.0761	11
189.057	42
190.0656	999
191.0726	335
192.0683	275
205.0763	499
206.084	172
207.0918	117
