Mass spectrum: Iomeprol; LC-ESI-QTOF; MS2; 90 V
Name: Iomeprol
Class: Pharmaceutical
Formula: C17H22I3N3O8
Exact mass: 776.8541
SMILES: CN(C(=O)CO)c1c(I)c(C(=O)NCC(O)CO)c(I)c(C(=O)NCC(O)CO)c1I
InChI: InChI=1S/C17H22I3N3O8/c1-23(9(29)6-26)15-13(19)10(16(30)21-2-7(27)4-24)12(18)11(14(15)20)17(31)22-3-8(28)5-25/h7-8,24-28H,2-6H2,1H3,(H,21,30)(H,22,31)
Instrument: TripleTOF 5600 SCIEX
Instrument type: LC-ESI-QTOF
Ms type: MS2
Ion mode: POSITIVE
Collision energy: 90
Fragmentation mode: CID
Ionization: ESI
Column name: Zorbax Eclipse Plus C18 2.1 mm x 150 mm, 3.5 um, Agilent
Retention time: 4.596 min
Precursor m/z: 777.8614
Precursor type: [M+H]+
m/z	relative intensity
119.0349	16
132.0437	20
136.0383	12
147.0314	12
148.0389	31
149.0459	20
161.0467	64
162.055	27
164.0341	11
174.0187	16
175.0284	12
176.0332	16
177.042	53
178.0504	11
187.0227	12
204.0283	11
204.0558	11
205.0247	9
206.0454	12
217.9468	11
222.0416	22
245.9381	31
247.073	11
257.9407	51
258.9478	20
261.0877	11
273.9353	116
275.9542	24
277.0839	42
285.9365	14
287.952	999
288.9599	16
300.9496	14
301.931	64
302.9641	12
305.9656	31
313.9295	29
314.9608	14
330.9535	29
331.9416	360
346.9938	24
374.9868	44
386.9864	14
404.995	459
414.8533	11
414.8677	12
