Mass spectrum: Ampicillin; LC-ESI-QTOF; MS2; 40 V
Name: Ampicillin
Class: Pharmaceutical
Formula: C16H19N3O4S
Exact mass: 349.1096
SMILES: CC1(C)S[C@@H]2[C@H](NC(=O)[C@H](N)c3ccccc3)C(=O)N2[C@H]1C(O)=O
InChI: InChI=1S/C16H19N3O4S/c1-16(2)11(15(22)23)19-13(21)10(14(19)24-16)18-12(20)9(17)8-6-4-3-5-7-8/h3-7,9-11,14H,17H2,1-2H3,(H,18,20)(H,22,23)/t9-,10-,11+,14-/m1/s1
Instrument: TripleTOF 5600 SCIEX
Instrument type: LC-ESI-QTOF
Ms type: MS2
Ion mode: POSITIVE
Collision energy: 40
Fragmentation mode: CID
Ionization: ESI
Column name: Zorbax Eclipse Plus C18 2.1 mm x 150 mm, 3.5 um, Agilent
Retention time: 5.367 min
Precursor m/z: 350.1169
Precursor type: [M+H]+
m/z	relative intensity
70.0684	56
74.0089	18
77.0422	12
79.057	84
86.0079	21
87.0288	11
91.0558	63
96.0457	16
106.0663	999
114.001	160
114.0369	114
117.0571	13
118.0652	171
119.0497	15
121.0104	48
122.06	18
128.0497	17
130.0652	20
135.0263	10
137.0435	16
137.0706	33
142.0307	10
146.0595	65
147.0257	41
160.0423	178
162.0361	27
164.0525	113
165.065	66
174.0546	128
190.0309	14
192.0476	75
193.0596	11
211.0719	10
218.0273	14
