Mass spectrum: Bephenium; LC-ESI-QTOF; MS2; 100 V
Name: Bephenium
Class: Pharmaceutical
Formula: [C17H22NO]+
Exact mass: 256.1696
SMILES: C[N+](C)(CCOc1ccccc1)Cc2ccccc2
InChI: InChI=1S/C17H22NO/c1-18(2,15-16-9-5-3-6-10-16)13-14-19-17-11-7-4-8-12-17/h3-12H,13-15H2,1-2H3/q+1
Instrument: TripleTOF 5600 SCIEX
Instrument type: LC-ESI-QTOF
Ms type: MS2
Ion mode: POSITIVE
Collision energy: 100
Fragmentation mode: CID
Ionization: ESI
Column name: Zorbax Eclipse Plus C18 2.1 mm x 150 mm, 3.5 um, Agilent
Retention time: 7.137 min
Precursor m/z: 256.1696
Precursor type: [M]+
m/z	relative intensity
51.0286	76
58.0694	67
65.0429	938
77.04	54
91.0556	999
