Mass spectrum: Amitriptyline; LC-ESI-QTOF; MS2; 110 V
Name: Amitriptyline
Class: Pharmaceutical
Formula: C20H23N
Exact mass: 277.183
SMILES: CN(C)CCC=C1C2=CC=CC=C2CCC3=CC=CC=C31
InChI: InChI=1S/C20H23N/c1-21(2)15-7-12-20-18-10-5-3-8-16(18)13-14-17-9-4-6-11-19(17)20/h3-6,8-12H,7,13-15H2,1-2H3
Instrument: TripleTOF 6600 SCIEX
Instrument type: LC-ESI-QTOF
Ms type: MS2
Ion mode: POSITIVE
Collision energy: 110
Fragmentation mode: CID
Ionization: ESI
Column name: Zorbax Eclipse Plus C18 2.1 mm x 150 mm, 3.5 um, Agilent
Retention time: 8.708 min
Precursor m/z: 278.1903
Precursor type: [M+H]+
m/z	relative intensity
37.0073	27
38.0152	20
39.0232	135
41.0386	15
42.0339	23
49.0071	24
50.0152	138
51.0232	308
58.065	10
61.0071	25
62.0151	68
63.0231	171
65.0388	318
74.015	61
75.0229	58
76.0302	52
77.0387	314
78.0461	62
79.0545	10
86.0152	26
87.0226	41
89.0385	185
91.0541	151
98.0148	33
99.0226	15
100.0303	11
101.0391	21
102.0461	150
103.0539	10
113.0385	40
114.0457	11
115.0543	417
125.0388	23
126.0461	153
127.054	109
128.0619	178
137.0382	17
138.0459	15
139.0544	167
149.0386	48
150.0465	321
151.0544	381
152.0619	354
155.0596	14
161.0377	24
162.0464	63
163.0542	394
164.0624	123
165.0699	169
174.0464	91
175.0542	106
176.0621	366
177.0703	32
178.0779	34
179.0595	14
186.0466	27
187.0546	397
188.0622	225
189.0703	642
190.0783	11
198.0468	31
199.0542	99
200.0622	999
201.0703	396
202.078	388
211.0539	35
212.062	21
213.0705	363
214.0782	37
215.0854	187
