Mass spectrum: Octrizole; LC-ESI-QTOF; MS2; 80 V
Name: Octrizole
Class: Industrial_process
Formula: C20H25N3O
Exact mass: 323.1998
SMILES: CC(C)(C)CC(C)(C)C1=CC(=C(C=C1)O)N2N=C3C=CC=CC3=N2
InChI: InChI=1S/C20H25N3O/c1-19(2,3)13-20(4,5)14-10-11-18(24)17(12-14)23-21-15-8-6-7-9-16(15)22-23/h6-12,24H,13H2,1-5H3
Instrument: TripleTOF 5600 SCIEX
Instrument type: LC-ESI-QTOF
Ms type: MS2
Ion mode: POSITIVE
Collision energy: 80
Fragmentation mode: CID
Ionization: ESI
Column name: Zorbax Eclipse Plus C18 2.1 mm x 150 mm, 3.5 um, Agilent
Retention time: 19.562 min
Precursor m/z: 324.207
Precursor type: [M+H]+
m/z	relative intensity
65.0453	999
77.0437	388
78.0497	50
79.0451	28
79.0591	229
80.0557	64
91.0582	280
92.0527	812
103.0573	150
105.0385	35
105.053	28
105.0726	273
107.0541	50
115.0567	114
117.0616	35
119.0539	129
120.0577	208
127.0562	71
128.067	93
129.0705	50
130.0667	43
133.0655	244
134.0718	50
139.0536	107
140.0497	64
140.0638	28
151.0538	50
152.0628	64
153.0684	43
154.0657	158
155.0596	35
156.0797	43
164.0591	35
165.0691	93
166.0662	107
167.0727	287
180.0798	215
181.0637	43
181.0883	35
182.0611	35
183.0672	100
191.0721	50
192.0806	43
193.0743	28
194.0912	35
196.0742	71
209.0847	71
