Mass spectrum: 3,5-Dichloroaniline; LC-ESI-QTOF; MS2; 70 V
Name: 3,5-Dichloroaniline
Formula: C6H5Cl2N
Exact mass: 160.9799
SMILES: C1=C(C=C(C=C1Cl)Cl)N
InChI: InChI=1S/C6H5Cl2N/c7-4-1-5(8)3-6(9)2-4/h1-3H,9H2
Instrument: TripleTOF X500R SCIEX
Instrument type: LC-ESI-QTOF
Ms type: MS2
Ion mode: POSITIVE
Collision energy: 70
Fragmentation mode: CID
Ionization: ESI
Column name: Zorbax Eclipse Plus C18 2.1 mm x 150 mm, 3.5 um, Agilent
Retention time: 11.205 min
Precursor m/z: 161.9872
Precursor type: [M+H]+
m/z	relative intensity
37.0071	29
38.0151	37
39.0229	187
50.0152	35
52.0175	16
60.9839	17
62.0147	10
63.0231	51
64.0309	12
65.0384	200
72.9842	35
73.007	81
74.0149	999
75.0231	182
83.9762	38
84.9851	19
91.0429	11
92.0496	22
99	29
100.0073	15
107.9762	22
108.9842	70
127.0185	13
