Mass spectrum: Sulpiride; LC-ESI-QTOF; MS2; 50 V
Name: Sulpiride
Class: Pharmaceutical
Formula: C15H23N3O4S
Exact mass: 341.1409
SMILES: CCN1CCCC1CNC(=O)c2cc(ccc2OC)[S](N)(=O)=O
InChI: InChI=1S/C15H23N3O4S/c1-3-18-8-4-5-11(18)10-17-15(19)13-9-12(23(16,20)21)6-7-14(13)22-2/h6-7,9,11H,3-5,8,10H2,1-2H3,(H,17,19)(H2,16,20,21)
Instrument: TripleTOF 5600 SCIEX
Instrument type: LC-ESI-QTOF
Ms type: MS2
Ion mode: POSITIVE
Collision energy: 50
Fragmentation mode: CID
Ionization: ESI
Column name: Zorbax Eclipse Plus C18 2.1 mm x 150 mm, 3.5 um, Agilent
Retention time: 4.958 min
Precursor m/z: 342.1482
Precursor type: [M+H]+
m/z	relative intensity
56.0556	26
58.0714	85
67.0597	12
75.0275	17
82.0678	13
84.0833	240
98.0975	146
107.0377	22
108.0446	29
109.0282	21
110.0958	29
112.112	639
133.0267	22
134.0362	53
138.9845	37
156.0103	18
170.9975	10
184.0165	55
198.9936	23
214.0161	999
