Mass spectrum: Tenamfetamine; LC-ESI-QTOF; MS2; 80 V
Name: Tenamfetamine
Class: Pharmaceutical
Formula: C10H13NO2
Exact mass: 179.0946
SMILES: CC(CC1=CC2=C(C=C1)OCO2)N
InChI: InChI=1S/C10H13NO2/c1-7(11)4-8-2-3-9-10(5-8)13-6-12-9/h2-3,5,7H,4,6,11H2,1H3
Instrument: TripleTOF 6600 SCIEX
Instrument type: LC-ESI-QTOF
Ms type: MS2
Ion mode: POSITIVE
Collision energy: 80
Fragmentation mode: CID
Ionization: ESI
Column name: Zorbax Eclipse Plus C18 2.1 mm x 150 mm, 3.5 um, Agilent
Retention time: 5.295 min
Precursor m/z: 180.1019
Precursor type: [M+H]+
m/z	relative intensity
37.0077	54
38.0146	41
39.0226	201
49.0072	48
50.0144	365
51.0225	999
52.0258	37
53.0378	24
59.9983	10
60.9853	30
61.0069	21
62.0142	65
63.0226	127
64.031	10
65.0379	85
74.0142	32
75.0221	17
77.0379	591
78.0442	56
79.0528	24
89.0371	109
91.0534	15
102.0501	10
103.0527	17
105.0426	10
