Mass spectrum: (4-Carboxybutyl)triphenylphosphonium; LC-ESI-QTOF; MS2; 120 V
Name: (4-Carboxybutyl)triphenylphosphonium
Formula: [C23H24O2P]+
Exact mass: 363.1508
SMILES: C1=CC=C(C=C1)[P+](CCCCC(=O)O)(C2=CC=CC=C2)C3=CC=CC=C3
InChI: InChI=1S/C23H23O2P/c24-23(25)18-10-11-19-26(20-12-4-1-5-13-20,21-14-6-2-7-15-21)22-16-8-3-9-17-22/h1-9,12-17H,10-11,18-19H2/p+1
Instrument: TripleTOF 5600 SCIEX
Instrument type: LC-ESI-QTOF
Ms type: MS2
Ion mode: POSITIVE
Collision energy: 120
Fragmentation mode: CID
Ionization: ESI
Column name: Zorbax Eclipse Plus C18 2.1 mm x 150 mm, 3.5 um, Agilent
Retention time: 7.21 min
Precursor m/z: 363.1508
Precursor type: [M]+
m/z	relative intensity
80.9873	59
89.0365	56
107.003	499
115.0527	264
126.0448	69
133.0189	87
139.0529	232
151.0533	182
152.0615	999
157.0194	507
181.0198	218
183.0358	603
226.0783	69
257.0511	120
