Mass spectrum: Testosterone; LC-ESI-QTOF; MS2; 150 V
Name: Testosterone
Class: Pharmaceutical
Formula: C19H28O2
Exact mass: 288.2089
SMILES: C[C@]12CC[C@H]3[C@@H](CCC4=CC(=O)CC[C@]34C)[C@@H]1CC[C@@H]2O
InChI: InChI=1S/C19H28O2/c1-18-9-7-13(20)11-12(18)3-4-14-15-5-6-17(21)19(15,2)10-8-16(14)18/h11,14-17,21H,3-10H2,1-2H3/t14-,15-,16-,17-,18-,19-/m0/s1
Instrument: TripleTOF 5600 SCIEX
Instrument type: LC-ESI-QTOF
Ms type: MS2
Ion mode: POSITIVE
Collision energy: 150
Fragmentation mode: CID
Ionization: ESI
Column name: Zorbax Eclipse Plus C18 2.1 mm x 150 mm, 3.5 um, Agilent
Retention time: 10.968 min
Precursor m/z: 289.2162
Precursor type: [M+H]+
m/z	relative intensity
43.0373	98
65.0451	351
77.0427	999
78.0519	84
79.058	126
89.0431	98
91.0575	182
102.0483	56
115.0548	112
128.0623	98
