Mass spectrum: Bisoprolol; LC-ESI-QTOF; MS2; 120 V
Name: Bisoprolol
Class: Pharmaceutical
Formula: C18H31NO4
Exact mass: 325.2253
SMILES: CC(C)NCC(COC1=CC=C(C=C1)COCCOC(C)C)O
InChI: InChI=1S/C18H31NO4/c1-14(2)19-11-17(20)13-23-18-7-5-16(6-8-18)12-21-9-10-22-15(3)4/h5-8,14-15,17,19-20H,9-13H2,1-4H3
Instrument: TripleTOF 6600 SCIEX
Instrument type: LC-ESI-QTOF
Ms type: MS2
Ion mode: POSITIVE
Collision energy: 120
Fragmentation mode: CID
Ionization: ESI
Column name: Zorbax Eclipse Plus C18 2.1 mm x 150 mm, 3.5 um, Agilent
Retention time: 7.01 min
Precursor m/z: 326.2326
Precursor type: [M+H]+
m/z	relative intensity
30.0336	159
35.9996	11
37.0068	105
38.002	29
38.0146	83
39.0225	465
41.0381	280
42.0087	13
42.0334	31
43.017	33
43.054	49
44.0486	33
45.0329	135
50.0142	59
51.0225	288
52.0301	11
53.0117	11
53.0375	25
55.0171	33
56.0485	91
58.0644	27
59.9989	45
61.0065	169
62.0142	411
63.0222	999
65.0376	123
77.0374	638
78.0447	43
79.0526	27
81.0313	11
89.0375	272
91.0528	77
105.0441	19
107.0482	69
115.0519	45
