Mass spectrum: Reactive Orange; LC-ESI-QTOF; MS2; 130 V
Name: Reactive Orange
Formula: C20H19N3O11S3
Exact mass: 573.0182
SMILES: CC(=O)NC1=CC2=C(C(=C(C=C2C=C1)S(=O)(=O)O)N=NC3=CC=C(C=C3)S(=O)(=O)CCOS(=O)(=O)O)O
InChI: InChI=1S/C20H19N3O11S3/c1-12(24)21-15-3-2-13-10-18(36(28,29)30)19(20(25)17(13)11-15)23-22-14-4-6-16(7-5-14)35(26,27)9-8-34-37(31,32)33/h2-7,10-11,25H,8-9H2,1H3,(H,21,24)(H,28,29,30)(H,31,32,33)
Instrument: TripleTOF 6600 SCIEX
Instrument type: LC-ESI-QTOF
Ms type: MS2
Ion mode: POSITIVE
Collision energy: 130
Fragmentation mode: CID
Ionization: ESI
Column name: Zorbax Eclipse Plus C18 2.1 mm x 150 mm, 3.5 um, Agilent
Retention time: 5.751 min
Precursor m/z: 574.0255
Precursor type: [M+H]+
m/z	relative intensity
39.0222	13
43.0169	32
44.9784	31
46.9946	27
51.0224	27
53.0379	164
61.0061	10
62.0137	18
63.0219	41
64.0308	12
65.0373	101
68.0124	40
75.0202	17
76.0298	21
77.0376	143
78.0332	22
80.0483	211
81.0326	980
87.0219	12
88.0295	105
89.0375	155
90.0424	21
91.0406	43
92.0485	50
93.0561	40
102.0335	35
102.0465	11
103.0397	60
103.0524	12
104.0486	227
108.0434	217
114.0329	291
115.0413	573
116.0479	128
117.0558	37
128.0501	30
129.0441	222
130.047	21
130.0624	35
131.0594	120
141.0437	59
142.0512	999
143.0585	26
150.0471	10
151.0539	74
152.0587	22
163.0519	17
169.0387	17
170.0452	81
176.06	50
177.0572	51
178.0662	50
179.0634	22
188.048	30
189.0591	18
190.065	21
192.0647	13
203.0587	35
204.0789	41
205.0749	243
206.0812	41
215.0576	27
216.067	38
217.0734	18
218.0865	12
220.0807	10
230.0729	40
231.0786	28
232.0858	74
233.0719	17
233.0953	15
243.077	15
