Mass spectrum: Diatrizoate; LC-ESI-QTOF; MS2; 80 V
Name: Diatrizoate
Class: Pharmaceutical
Formula: C11H9I3N2O4
Exact mass: 613.7697
SMILES: C/C(=N\c1c(c(c(c(c1I)C(=O)O)I)/N=C(/O)\C)I)/O
InChI: InChI=1S/C11H9I3N2O4/c1-3(17)15-9-6(12)5(11(19)20)7(13)10(8(9)14)16-4(2)18/h1-2H3,(H,15,17)(H,16,18)(H,19,20)
Instrument: TripleTOF 5600 SCIEX
Instrument type: LC-ESI-QTOF
Ms type: MS2
Ion mode: POSITIVE
Collision energy: 80
Fragmentation mode: CID
Ionization: ESI
Column name: Zorbax Eclipse Plus C18 2.1 mm x 150 mm, 3.5 um, Agilent
Retention time: 4.549 min
Precursor m/z: 614.7769
Precursor type: [M+H]+
m/z	relative intensity
106.0285	14
107.0373	19
118.0521	31
120.044	53
120.0697	22
145.0377	14
146.0208	14
146.0478	81
147.0308	11
147.0616	19
148.0397	476
148.0619	132
159.0534	56
161.0683	14
165.0402	22
174.0156	11
174.0435	56
187.0495	158
188.0568	59
189.0653	107
191.0591	14
192.0258	14
192.0535	364
205.0584	70
215.0444	53
219.0382	70
231.9292	25
233.0559	999
272.9612	14
300.9508	14
318.9573	73
342.9542	14
360.9709	14
