Mass spectrum: Warfarin; LC-ESI-QTOF; MS2; 110 V
Name: Warfarin
Class: Pesticide
Formula: C19H16O4
Exact mass: 308.1049
SMILES: CC(=O)CC(C1=CC=CC=C1)C2=C(C3=CC=CC=C3OC2=O)O
InChI: InChI=1S/C19H16O4/c1-12(20)11-15(13-7-3-2-4-8-13)17-18(21)14-9-5-6-10-16(14)23-19(17)22/h2-10,15,21H,11H2,1H3
Instrument: TripleTOF 6600 SCIEX
Instrument type: LC-ESI-QTOF
Ms type: MS2
Ion mode: POSITIVE
Collision energy: 110
Fragmentation mode: CID
Ionization: ESI
Column name: Zorbax Eclipse Plus C18 2.1 mm x 150 mm, 3.5 um, Agilent
Retention time: 11.631 min
Precursor m/z: 309.1122
Precursor type: [M+H]+
m/z	relative intensity
35.9993	20
37.0071	133
38.0151	124
39.0232	927
41.0022	11
43.0177	327
49.0085	17
50.0148	154
51.0225	630
53.0027	68
61.0058	20
62.0143	32
63.0226	86
65.0384	924
68.9965	95
73.0064	20
74.0149	139
75.0222	187
76.0296	59
77.0382	999
78.0466	20
86.0148	11
87.0233	14
89.0379	89
91.0535	35
93.0329	65
98.0146	38
99.0229	20
101.0383	41
102.0464	112
103.0533	29
105.045	14
113.0392	23
115.053	101
121.0288	65
122.0165	17
125.0384	26
126.0457	86
127.0516	38
128.0607	133
129.0334	26
139.0537	47
149.0375	17
150.0458	297
151.0527	234
152.0607	208
155.0573	14
162.0452	14
163.0553	92
164.0614	80
165.0689	202
174.045	29
175.0525	53
176.061	300
177.0714	26
179.0607	23
