Mass spectrum: Sildenafil; LC-ESI-QTOF; MS2; 140 V
Name: Sildenafil
Class: Pharmaceutical
Formula: C22H30N6O4S
Exact mass: 474.2049
SMILES: CCCC1=NN(C2=C1NC(=NC2=O)C3=C(C=CC(=C3)S(=O)(=O)N4CCN(CC4)C)OCC)C
InChI: InChI=1S/C22H30N6O4S/c1-5-7-17-19-20(27(4)25-17)22(29)24-21(23-19)16-14-15(8-9-18(16)32-6-2)33(30,31)28-12-10-26(3)11-13-28/h8-9,14H,5-7,10-13H2,1-4H3,(H,23,24,29)
Instrument: TripleTOF 5600 SCIEX
Instrument type: LC-ESI-QTOF
Ms type: MS2
Ion mode: NEGATIVE
Collision energy: 140
Fragmentation mode: CID
Ionization: ESI
Column name: Zorbax Eclipse Plus C18 2.1 mm x 150 mm, 3.5 um, Agilent
Retention time: 7.283 min
Precursor m/z: 473.1976
Precursor type: [M-H]-
m/z	relative intensity
41.9982	173
50.0021	86
65.9982	260
74.0026	86
88.0197	304
89.0266	217
90.0342	738
115.03	651
117.0234	304
118.03	999
126.0359	43
130.0186	43
131.0245	130
139.0285	173
140.0277	173
143.0268	304
153.0434	43
155.0293	43
157.0351	43
171.0297	304
181.0391	86
181.0574	43
182.0374	86
193.0426	43
195.0331	43
209.0472	521
