Mass spectrum: Tolfenamic acid; LC-ESI-QTOF; MS2; 70 V
Name: Tolfenamic acid
Class: Pharmaceutical
Formula: C14H12ClNO2
Exact mass: 261.0557
SMILES: Cc1cc(Nc2ccccc2C(O)=O)ccc1Cl
InChI: InChI=1S/C14H12ClNO2/c1-9-8-10(6-7-12(9)15)16-13-5-3-2-4-11(13)14(17)18/h2-8,16H,1H3,(H,17,18)
Instrument: TripleTOF 5600 SCIEX
Instrument type: LC-ESI-QTOF
Ms type: MS2
Ion mode: POSITIVE
Collision energy: 70
Fragmentation mode: CID
Ionization: ESI
Column name: Zorbax Eclipse Plus C18 2.1 mm x 150 mm, 3.5 um, Agilent
Retention time: 14.052 min
Precursor m/z: 262.0629
Precursor type: [M+H]+
m/z	relative intensity
77.0408	71
89.0398	11
92.0265	12
101.0387	11
111.0003	11
115.053	37
127.0541	44
128.0494	56
138.0441	25
139.053	147
140.0488	199
150.0464	14
151.0528	111
152.0615	381
153.0677	93
154.0634	51
163.0526	14
164.049	61
165.0568	39
166.0647	416
177.0559	23
178.0641	246
179.0723	493
180.0802	999
190.0635	16
194.0595	16
200.0245	14
201.0336	80
207.0666	33
208.0741	179
214.0391	15
229.0275	16
