Mass spectrum: 7-Amino-4-methylcoumarin; LC-ESI-QTOF; MS2; 80 V
Name: 7-Amino-4-methylcoumarin
Formula: C10H9NO2
Exact mass: 175.0633
SMILES: CC1=CC(=O)OC2=C1C=CC(=C2)N
InChI: InChI=1S/C10H9NO2/c1-6-4-10(12)13-9-5-7(11)2-3-8(6)9/h2-5H,11H2,1H3
Instrument: TripleTOF X500R SCIEX
Instrument type: LC-ESI-QTOF
Ms type: MS2
Ion mode: POSITIVE
Collision energy: 80
Fragmentation mode: CID
Ionization: ESI
Column name: Zorbax Eclipse Plus C18 2.1 mm x 150 mm, 3.5 um, Agilent
Retention time: 7.107 min
Precursor m/z: 176.0706
Precursor type: [M+H]+
m/z	relative intensity
37.0073	33
38.0153	47
39.0229	243
40.0182	28
42.0338	38
50.0154	277
51.0232	999
52.0307	52
53.0381	47
54.0341	38
62.0152	76
63.023	167
65.0389	105
66.047	57
68.0137	19
74.0152	76
75.023	47
76.0325	33
77.0386	497
78.0341	23
78.0443	52
80.0507	43
89.0391	62
91.0536	62
92.0489	33
93.0576	57
102.0474	57
103.0547	47
104.0499	114
116.047	19
117.0587	38
118.0655	28
