Mass spectrum: Codeinone; LC-ESI-QTOF; MS2; 50 V
Name: Codeinone
Class: Pharmaceutical
Formula: C18H19NO3
Exact mass: 297.1365
SMILES: CN1CCC23C4C1CC5=C2C(=C(C=C5)OC)OC3C(=O)C=C4
InChI: InChI=1S/C18H19NO3/c1-19-8-7-18-11-4-5-13(20)17(18)22-16-14(21-2)6-3-10(15(16)18)9-12(11)19/h3-6,11-12,17H,7-9H2,1-2H3
Instrument: TripleTOF 5600 SCIEX
Instrument type: LC-ESI-QTOF
Ms type: MS2
Ion mode: POSITIVE
Collision energy: 50
Fragmentation mode: CID
Ionization: ESI
Column name: Zorbax Eclipse Plus C18 2.1 mm x 150 mm, 3.5 um, Agilent
Retention time: 5.057 min
Precursor m/z: 298.1438
Precursor type: [M+H]+
m/z	relative intensity
44.0617	37
55.0278	33
56.058	10
58.0747	181
91.06	24
94.0699	21
103.0571	10
114.0488	10
115.0555	75
116.0638	14
127.0556	67
128.0637	109
129.0725	45
131.0509	22
137.0613	37
139.0538	56
140.0633	155
141.0705	162
142.0792	40
143.051	10
144.0587	61
145.0648	14
146.0735	19
151.0554	63
152.0619	315
153.0709	999
154.0763	90
155.0503	51
155.0873	146
156.0584	37
157.0656	15
158.0699	10
160.0777	14
161.0592	22
164.0594	19
165.0705	566
166.0771	26
167.0858	56
168.0579	487
169.065	135
170.0368	30
170.0737	146
171.0439	26
171.0815	215
172.0503	12
175.0759	10
176.0664	17
177.073	56
178.0793	109
179.0531	14
179.0849	123
180.0573	123
180.0893	22
181.0656	621
182.0735	148
183.0452	77
183.0807	294
184.0556	42
184.0788	12
184.0984	12
185.0594	144
185.0976	60
186.0664	31
187.0735	22
189.0698	77
190.0783	19
191.0888	30
193.067	72
194.0754	31
194.0948	12
195.0446	14
195.08	118
196.0515	183
196.0897	28
197.0594	187
198.069	319
199.0749	225
201.0758	17
205.0647	42
206.0737	28
207.0438	17
207.0825	86
208.0518	195
208.0885	33
208.1117	10
209.0578	127
209.0872	19
210.0696	127
210.0954	12
211.0753	481
212.0803	51
213.0912	144
217.0655	19
218.074	22
219.0803	21
220.0626	10
220.1052	14
221.0543	17
222.0644	10
222.0851	10
223.0381	14
223.0766	181
224.0462	51
224.0833	38
225.0559	105
226.0627	63
227.0963	15
228.1039	12
234.0677	30
235.072	19
236.081	17
236.1078	15
237.0533	95
237.0912	19
238.074	26
238.1146	10
239.0717	374
239.1003	22
240.0781	12
240.0989	15
241.0855	190
248.1026	14
252.0791	14
253.0849	14
254.1155	10
265.096	12
266.115	21
268.0862	12
282.1065	17
283.1204	15
298.1436	86
