Mass spectrum: Fluazifop-P-butyl; LC-ESI-QTOF; MS2; 80 V
Name: Fluazifop-P-butyl
Class: Herbicide
Formula: C19H20F3NO4
Exact mass: 383.1344
SMILES: CCCCOC(=O)C(C)OC1=CC=C(C=C1)OC2=NC=C(C=C2)C(F)(F)F
InChI: InChI=1S/C19H20F3NO4/c1-3-4-11-25-18(24)13(2)26-15-6-8-16(9-7-15)27-17-10-5-14(12-23-17)19(20,21)22/h5-10,12-13H,3-4,11H2,1-2H3
Instrument: TripleTOF 6600 SCIEX
Instrument type: LC-ESI-QTOF
Ms type: MS2
Ion mode: POSITIVE
Collision energy: 80
Fragmentation mode: CID
Ionization: ESI
Column name: Zorbax Eclipse Plus C18 2.1 mm x 150 mm, 3.5 um, Agilent
Retention time: 15.933 min
Precursor m/z: 384.1417
Precursor type: [M+H]+
m/z	relative intensity
37.0076	44
38.015	41
39.0231	315
41.0388	192
43.0179	13
45.0332	16
50.0144	11
51.0231	40
55.017	16
57.0693	16
61.0057	16
62.0138	23
63.0225	96
64.031	45
65.0384	814
66.0457	11
68.9947	33
73.0058	11
74.0151	56
75.0047	182
75.0218	158
76.0173	23
76.0297	17
77.0382	191
78.0337	68
79.0539	18
81.0322	33
88.0301	18
89.0386	30
90.0454	15
91.0541	886
92.0244	59
93.0329	43
94.0406	44
96.0244	25
97.0316	33
99.0035	75
100.0112	69
101.0363	12
102.0458	31
103.0542	121
104.0486	16
107.0154	34
107.0484	16
109.0278	21
110.0355	41
113.0181	16
113.0375	61
114.0452	137
115.0536	54
116.047	17
117.0555	36
119.0093	33
119.0342	50
120.0175	39
120.0437	46
121.0278	22
121.0406	11
123.0224	30
124.0182	16
126.0143	585
127.0218	277
128.0484	44
129.0561	50
130.0646	151
131.0485	386
132.0378	26
133.0257	11
133.0441	145
134.0395	23
135.0294	11
135.0468	11
137.0188	21
139.0374	10
139.0513	20
140.0486	310
141.0566	854
142.0404	38
142.064	22
143.0293	101
144.0246	20
144.0411	14
145.0445	14
146.0204	999
147.0281	412
148.0352	27
148.0562	18
149.0372	16
150.0324	56
151.0335	138
152.0436	44
153.0373	11
154.0663	12
156.0439	15
156.0803	14
157.0252	21
157.0496	30
158.0406	47
158.0584	157
159.0485	91
160.0352	34
160.0526	32
161.0424	17
162.0261	16
163.0345	114
164.0313	263
165.0345	25
166.063	56
167.0721	45
168.0242	11
168.0439	274
169.0251	10
169.0502	144
170.0388	124
171.0433	30
172.0362	56
177.0385	11
177.0566	26
178.0453	95
179.0512	30
180.0377	116
181.0442	20
182.0331	61
183.0409	41
184.0379	105
185.045	159
186.0526	16
187.0418	27
188.0495	139
189.0377	81
190.0453	304
191.042	35
195.0412	16
196.0522	16
197.0433	18
198.0518	383
199.0359	60
200.0347	23
201.0413	14
206.0403	55
207.0478	45
208.0367	33
208.0553	42
209.0437	273
210.0509	88
211.0572	52
212.0313	11
212.0697	16
216.0607	16
218.041	311
222.0556	11
224.0708	11
225.0356	15
226.047	177
227.0559	186
234.0371	121
235.0575	71
236.032	100
237.0376	22
238.0466	612
254.0415	852
256.0593	13
