Mass spectrum: 1-Boc-4-[3-(ethoxycarbonyl)phenyl]piperazine; LC-ESI-QTOF; MS2; 130 V
Name: 1-Boc-4-[3-(ethoxycarbonyl)phenyl]piperazine
Formula: C18H26N2O4
Exact mass: 334.1893
SMILES: CCOC(=O)C1=CC(=CC=C1)N2CCN(CC2)C(=O)OC(C)(C)C
InChI: InChI=1S/C18H26N2O4/c1-5-23-16(21)14-7-6-8-15(13-14)19-9-11-20(12-10-19)17(22)24-18(2,3)4/h6-8,13H,5,9-12H2,1-4H3
Instrument: TripleTOF 6600 SCIEX
Instrument type: LC-ESI-QTOF
Ms type: MS2
Ion mode: POSITIVE
Collision energy: 130
Fragmentation mode: CID
Ionization: ESI
Column name: Zorbax Eclipse Plus C18 2.1 mm x 150 mm, 3.5 um, Agilent
Retention time: 14.611 min
Precursor m/z: 335.1965
Precursor type: [M+H]+
m/z	relative intensity
35.9995	40
37.0074	157
38.0026	30
38.0158	207
39.0234	877
41.0387	167
42.0344	86
44.0497	81
49.0071	81
50.0152	380
51.0231	887
52.0308	40
56.0499	35
61.0073	30
62.015	60
63.0228	167
64.0308	30
65.0386	928
66.0468	45
73.0061	20
74.0147	172
75.0227	299
76.0314	35
77.0385	993
78.0336	86
78.0453	116
79.0542	25
80.0486	30
89.0381	365
90.0463	223
91.0542	999
92.0491	65
93.0576	70
102.0461	20
103.0532	50
104.0495	70
105.0446	40
106.0675	20
115.0543	25
116.0494	65
117.0574	354
118.0647	314
119.074	20
121.029	25
130.0652	40
148.0413	25
