Mass spectrum: Acridone; LC-ESI-QTOF; MS2; 80 V
Name: Acridone
Class: Metabolite; Pharmaceutical; Transformation_product
Formula: C13H9NO
Exact mass: 195.0684
SMILES: O=C1c2ccccc2Nc3ccccc13
InChI: InChI=1S/C13H9NO/c15-13-9-5-1-3-7-11(9)14-12-8-4-2-6-10(12)13/h1-8H,(H,14,15)
Instrument: TripleTOF 5600 SCIEX
Instrument type: LC-ESI-QTOF
Ms type: MS2
Ion mode: NEGATIVE
Collision energy: 80
Fragmentation mode: CID
Ionization: ESI
Column name: Zorbax Eclipse Plus C18 2.1 mm x 150 mm, 3.5 um, Agilent
Retention time: 8.5 min
Precursor m/z: 194.0611
Precursor type: [M-H]-
m/z	relative intensity
41.0051	111
42.0017	92
50.0038	92
63.0121	111
65.0022	333
65.9979	999
73.006	55
74.001	55
88.018	333
89.0259	111
90.0318	111
114.0313	74
115.0381	74
116.0485	74
138.0332	111
139.0414	92
140.0471	111
162.0298	74
164.0477	333
192.0394	166
