Mass spectrum: Thieno[3,2-b]pyridin-7-ol; LC-ESI-QTOF; MS2; 50 V
Name: Thieno[3,2-b]pyridin-7-ol
Formula: C7H5NOS
Exact mass: 151.0092
SMILES: C1=CNC2=C(C1=O)SC=C2
InChI: InChI=1S/C7H5NOS/c9-6-1-3-8-5-2-4-10-7(5)6/h1-4H,(H,8,9)
Instrument: TripleTOF 6600 SCIEX
Instrument type: LC-ESI-QTOF
Ms type: MS2
Ion mode: NEGATIVE
Collision energy: 50
Fragmentation mode: CID
Ionization: ESI
Column name: Zorbax Eclipse Plus C18 2.1 mm x 150 mm, 3.5 um, Agilent
Retention time: 4.72 min
Precursor m/z: 150.0019
Precursor type: [M-H]-
m/z	relative intensity
32.9796	39
38.003	16
41.003	12
49.0078	154
50.0035	242
56.9794	50
57.9746	177
64.0181	13
65.9975	373
68.9785	32
80.9791	289
81.9744	999
83.9906	563
90.0344	122
92.9795	11
93.9872	50
94.9822	13
94.996	85
118.0311	16
120.9982	643
122.0075	81
150.0016	24
