Mass spectrum: Ganciclovir; LC-ESI-QTOF; MS2; 40 V
Name: Ganciclovir
Class: Pharmaceutical
Formula: C9H13N5O4
Exact mass: 255.0968
SMILES: NC1=NC(=O)c2ncn(COC(CO)CO)c2N1
InChI: InChI=1S/C9H13N5O4/c10-9-12-7-6(8(17)13-9)11-3-14(7)4-18-5(1-15)2-16/h3,5,15-16H,1-2,4H2,(H3,10,12,13,17)
Instrument: TripleTOF 5600 SCIEX
Instrument type: LC-ESI-QTOF
Ms type: MS2
Ion mode: NEGATIVE
Collision energy: 40
Fragmentation mode: CID
Ionization: ESI
Column name: Zorbax Eclipse Plus C18 2.1 mm x 150 mm, 3.5 um, Agilent
Retention time: 2.235 min
Precursor m/z: 254.0895
Precursor type: [M-H]-
m/z	relative intensity
65.0164	181
66.0097	272
67.0295	90
92.0249	544
106.0308	90
107.035	272
108.02	454
108.0287	181
119.0094	90
119.038	635
120.0105	272
120.9892	181
121.0065	90
133.0154	999
150.0428	726
150.0575	90
162.0397	90
164.0029	181
