Mass spectrum: Oxycodone; LC-ESI-QTOF; MS2; 30 V
Name: Oxycodone
Class: Pharmaceutical
Formula: C18H21NO4
Exact mass: 315.1471
SMILES: CN1CCC23C4C(=O)CCC2(C1CC5=C3C(=C(C=C5)OC)O4)O
InChI: InChI=1S/C18H21NO4/c1-19-8-7-17-14-10-3-4-12(22-2)15(14)23-16(17)11(20)5-6-18(17,21)13(19)9-10/h3-4,13,16,21H,5-9H2,1-2H3
Instrument: TripleTOF 6600 SCIEX
Instrument type: LC-ESI-QTOF
Ms type: MS2
Ion mode: POSITIVE
Collision energy: 30
Fragmentation mode: CID
Ionization: ESI
Column name: Zorbax Eclipse Plus C18 2.1 mm x 150 mm, 3.5 um, Agilent
Retention time: 5.206 min
Precursor m/z: 316.1543
Precursor type: [M+H]+
m/z	relative intensity
70.0642	14
175.0747	18
181.0633	12
187.0738	48
199.0744	11
213.0906	26
224.1059	21
241.1073	210
255.1034	12
256.133	209
270.1483	11
280.1331	16
283.1198	10
298.1442	999
316.155	121
