Mass spectrum: Remdesivir; LC-ESI-QTOF; MS2; 80 V
Name: Remdesivir
Class: Pharmaceutical
Formula: C27H35N6O8P
Exact mass: 602.2254
SMILES: CCC(CC)COC(=O)C(C)NP(=O)(OCC1C(C(C(O1)(C#N)C2=CC=C3N2N=CN=C3N)O)O)OC4=CC=CC=C4
InChI: InChI=1S/C27H35N6O8P/c1-4-18(5-2)13-38-26(36)17(3)32-42(37,41-19-9-7-6-8-10-19)39-14-21-23(34)24(35)27(15-28,40-21)22-12-11-20-25(29)30-16-31-33(20)22/h6-12,16-18,21,23-24,34-35H,4-5,13-14H2,1-3H3,(H,32,37)(H2,29,30,31)
Instrument: TripleTOF 6600 SCIEX
Instrument type: LC-ESI-QTOF
Ms type: MS2
Ion mode: POSITIVE
Collision energy: 80
Fragmentation mode: CID
Ionization: ESI
Column name: Zorbax Eclipse Plus C18 2.1 mm x 150 mm, 3.5 um, Agilent
Retention time: 9.974 min
Precursor m/z: 603.2327
Precursor type: [M+H]+
m/z	relative intensity
39.0232	12
43.0541	14
44.0495	122
67.0175	29
77.0381	75
78.033	10
79.9895	18
95.0488	81
103.0533	64
105.0444	50
106.0048	76
119.0231	12
119.0596	21
120.0552	10
120.0804	39
121.0645	159
124.0151	15
130.0399	28
131.048	17
132.0544	10
135.0657	41
137.0138	12
146.0707	24
147.0663	279
156.0206	19
159.0662	23
161.0453	34
164.0258	17
165.0099	305
172.061	30
173.0818	61
174.0765	27
175.0155	23
175.0609	70
182.0363	178
183.0203	198
199.0154	23
200.0472	999
201.0763	33
202.0724	70
229.0259	19
229.0721	44
274.0938	14
