Mass spectrum: (S)-N-methyl-pregabalin; LC-ESI-QTOF; MS2; 80 V
Name: (S)-N-methyl-pregabalin
Formula: C9H19NO2
Exact mass: 173.1416
SMILES: CC(C)CC(CC(=O)O)CNC
InChI: InChI=1S/C9H19NO2/c1-7(2)4-8(6-10-3)5-9(11)12/h7-8,10H,4-6H2,1-3H3,(H,11,12)
Instrument: TripleTOF 5600 SCIEX
Instrument type: LC-ESI-QTOF
Ms type: MS2
Ion mode: POSITIVE
Collision energy: 80
Fragmentation mode: CID
Ionization: ESI
Column name: Zorbax Eclipse Plus C18 2.1 mm x 150 mm, 3.5 um, Agilent
Retention time: 4.84 min
Precursor m/z: 174.1489
Precursor type: [M+H]+
m/z	relative intensity
35.9998	47
37.0076	203
38.0029	21
38.0154	160
39.0232	999
41.0389	622
42.0342	60
43.0178	233
43.0547	172
44.0495	311
44.9971	34
45.0332	134
50.016	21
51.0234	34
53.0391	116
54.0335	56
55.0181	190
55.0429	34
55.0545	579
56.0496	34
57.0704	21
58.0282	43
59.0494	172
65.0391	38
67.0417	47
67.0548	30
70.0646	99
77.0394	51
80.0494	34
91.0544	21
94.0644	17
