Mass spectrum: Imazamox; LC-ESI-QTOF; MS2; 110 V
Name: Imazamox
Class: Herbicide
Formula: C15H19N3O4
Exact mass: 305.1376
SMILES: CC(C)C1(C(=O)NC(=N1)C2=C(C=C(C=N2)COC)C(=O)O)C
InChI: InChI=1S/C15H19N3O4/c1-8(2)15(3)14(21)17-12(18-15)11-10(13(19)20)5-9(6-16-11)7-22-4/h5-6,8H,7H2,1-4H3,(H,19,20)(H,17,18,21)
Instrument: TripleTOF 6600 SCIEX
Instrument type: LC-ESI-QTOF
Ms type: MS2
Ion mode: POSITIVE
Collision energy: 110
Fragmentation mode: CID
Ionization: ESI
Column name: Zorbax Eclipse Plus C18 2.1 mm x 150 mm, 3.5 um, Agilent
Retention time: 6.853 min
Precursor m/z: 306.1448
Precursor type: [M+H]+
m/z	relative intensity
37.0062	128
38.0139	113
39.022	870
41.0373	355
42.0328	249
43.0404	83
44.048	37
45.032	113
50.0137	128
51.0213	310
52.0165	257
52.0288	60
53.037	151
56.0479	287
59.9976	45
61.0056	567
62.0133	423
63.0078	30
63.0212	673
64.0162	105
64.0287	181
65.0248	98
65.0368	484
66.0448	60
70.0632	393
71.0716	90
76.0161	158
77.011	68
77.0368	75
78.0315	333
79.0275	45
79.0395	75
80.0474	75
87.0076	105
88.0162	999
89.0242	234
90.0314	204
91.0393	211
92.0344	37
92.0472	121
103.026	45
104.0476	75
105.0425	98
115.0361	30
116.0346	143
117.0429	98
118.0496	128
131.0565	37
