Mass spectrum: 2-N-methyl-lamotrigine; LC-ESI-QTOF; MS2; 140 V
Name: 2-N-methyl-lamotrigine
Class: Metabolite; Pharmaceutical
Formula: C10H9Cl2N5
Exact mass: 269.0235
SMILES: CN1N=C(C2=CC=CC(Cl)=C2Cl)C(N)=NC1=N
InChI: InChI=1S/C10H9Cl2N5/c1-17-10(14)15-9(13)8(16-17)5-3-2-4-6(11)7(5)12/h2-4H,1H3,(H3,13,14,15)
Instrument: TripleTOF 5600 SCIEX
Instrument type: LC-ESI-QTOF
Ms type: MS2
Ion mode: POSITIVE
Collision energy: 140
Fragmentation mode: CID
Ionization: ESI
Column name: Zorbax Eclipse Plus C18 2.1 mm x 150 mm, 3.5 um, Agilent
Retention time: 6.444 min
Precursor m/z: 270.0308
Precursor type: [M+H]+
m/z	relative intensity
43.0367	390
57.0495	764
57.067	69
61.0218	43
72.9869	373
73.0094	373
74.0171	999
75.0129	121
75.0238	138
76.0203	60
76.0318	34
82.9448	34
83.9774	43
83.9987	52
85.0082	95
86.0141	295
87.0234	277
88.0194	86
88.0312	78
96.9831	112
98.0002	43
99.0096	608
100.0187	130
108.9816	34
122.9992	34
