Mass spectrum: Triamterene; LC-ESI-QTOF; MS2; 150 V
Name: Triamterene
Class: Pharmaceutical
Formula: C12H11N7
Exact mass: 253.1076
SMILES: C1=CC=C(C=C1)C2=NC3=C(N=C2N)N=C(N=C3N)N
InChI: InChI=1S/C12H11N7/c13-9-7(6-4-2-1-3-5-6)16-8-10(14)18-12(15)19-11(8)17-9/h1-5H,(H6,13,14,15,17,18,19)
Instrument: TripleTOF 5600 SCIEX
Instrument type: LC-ESI-QTOF
Ms type: MS2
Ion mode: POSITIVE
Collision energy: 150
Fragmentation mode: CID
Ionization: ESI
Column name: Zorbax Eclipse Plus C18 2.1 mm x 150 mm, 3.5 um, Agilent
Retention time: 5.203 min
Precursor m/z: 254.1149
Precursor type: [M+H]+
m/z	relative intensity
38.0144	109
43.0423	530
53.0237	655
55.0424	93
65.021	280
66.0278	109
67.0359	62
68.0309	109
74.0208	312
75.0151	156
75.0254	109
76.0234	187
76.0332	93
77.0432	999
86.0071	62
86.0198	93
87.0225	156
88.0238	171
89.0408	437
98.0181	78
99.0161	78
