Mass spectrum: Hexa(methoxymethyl)melamine; LC-ESI-QTOF; MS2; 80 V
Name: Hexa(methoxymethyl)melamine
Formula: C15H30N6O6
Exact mass: 390.2227
SMILES: COCN(COC)C1=NC(=NC(=N1)N(COC)COC)N(COC)COC
InChI: InChI=1S/C15H30N6O6/c1-22-7-19(8-23-2)13-16-14(20(9-24-3)10-25-4)18-15(17-13)21(11-26-5)12-27-6/h7-12H2,1-6H3
Instrument: TripleTOF 6600 SCIEX
Instrument type: LC-ESI-QTOF
Ms type: MS2
Ion mode: POSITIVE
Collision energy: 80
Fragmentation mode: CID
Ionization: ESI
Column name: Zorbax Eclipse Plus C18 2.1 mm x 150 mm, 3.5 um, Agilent
Retention time: 9.543 min
Precursor m/z: 391.23
Precursor type: [M+H]+
m/z	relative intensity
42.0339	273
45.0336	885
55.0289	77
56.0489	11
68.0237	11
69.0443	999
80.0235	221
82.0391	23
94.0394	53
96.0547	87
107.0341	25
121.0506	21
123.0654	13
136.0595	10
148.0622	11
150.0752	12
177.0867	237
