Mass spectrum: Indoxacarb; LC-ESI-QTOF; MS2; 110 V
Name: Indoxacarb
Class: Insecticide
Formula: C22H17ClF3N3O7
Exact mass: 527.0707
SMILES: COC(=O)[C@]12Cc3cc(ccc3C1=NN(CO2)C(=O)N(c4ccc(cc4)OC(F)(F)F)C(=O)OC)Cl
InChI: InChI=1S/C22H17ClF3N3O7/c1-33-18(30)21-10-12-9-13(23)3-8-16(12)17(21)27-28(11-35-21)19(31)29(20(32)34-2)14-4-6-15(7-5-14)36-22(24,25)26/h3-9H,10-11H2,1-2H3/t21-/m0/s1
Instrument: TripleTOF 5600 SCIEX
Instrument type: LC-ESI-QTOF
Ms type: MS2
Ion mode: POSITIVE
Collision energy: 110
Fragmentation mode: CID
Ionization: ESI
Column name: Zorbax Eclipse Plus C18 2.1 mm x 150 mm, 3.5 um, Agilent
Retention time: 15.019 min
Precursor m/z: 528.078
Precursor type: [M+H]+
m/z	relative intensity
51.0299	35
56.0201	157
59.0179	49
68.9991	164
69.9947	12
72.9866	15
74.0185	22
75.0257	62
77.042	172
78.0375	239
83.0308	14
87.0247	13
88.0201	11
88.0326	17
89.0404	87
90.0352	39
93.0569	11
95.0298	29
96.9847	12
98.016	22
99.0236	140
100.0204	73
101.0392	81
102.0462	65
104.0497	58
106.03	685
109.032	14
110.9992	14
113.0387	105
114.0369	218
115.0543	358
116.0613	78
123.0001	378
124.0067	115
125.0173	13
126.0359	279
127.043	441
128.0614	196
129.0377	17
129.0562	15
132.0446	12
134.0244	999
134.999	76
136.0075	191
137.0162	27
140.0487	54
141.0538	48
142.0646	56
147.0001	65
147.0282	35
148.0057	87
149.0153	280
150.0109	564
151.0187	14
152.0025	140
153.0457	12
154.0401	74
155.0607	40
157.0271	38
161.0032	67
162.0113	269
163.0041	29
164.0023	49
164.0251	26
167.0251	33
175.0068	17
175.0237	83
176.0235	71
177.0335	14
179.0245	10
189.0208	19
190.0476	18
203.019	389
204.0094	13
