Mass spectrum: Paroxetine; LC-ESI-QTOF; MS2; 100 V
Name: Paroxetine
Class: Pharmaceutical
Formula: C19H20FNO3
Exact mass: 329.1427
SMILES: C1CNCC(C1C2=CC=C(C=C2)F)COC3=CC4=C(C=C3)OCO4
InChI: InChI=1S/C19H20FNO3/c20-15-3-1-13(2-4-15)17-7-8-21-10-14(17)11-22-16-5-6-18-19(9-16)24-12-23-18/h1-6,9,14,17,21H,7-8,10-12H2
Instrument: TripleTOF 5600 SCIEX
Instrument type: LC-ESI-QTOF
Ms type: MS2
Ion mode: POSITIVE
Collision energy: 100
Fragmentation mode: CID
Ionization: ESI
Column name: Zorbax Eclipse Plus C18 2.1 mm x 150 mm, 3.5 um, Agilent
Retention time: 7.812 min
Precursor m/z: 330.15
Precursor type: [M+H]+
m/z	relative intensity
37.0069	30
38.0151	22
39.023	181
41.0387	223
42.0341	61
43.0544	15
44.0497	196
51.0225	19
53.0021	15
56.0493	39
57.0139	22
59.0291	11
63.0227	28
65.0388	64
67.0534	13
68.0492	44
70.065	263
74.0151	28
75.0231	70
77.0386	196
80.0493	11
81.0333	35
82.0651	37
83.0291	371
87.0223	11
89.0385	95
91.0545	13
95.0297	33
96.0372	17
97.0461	11
101.038	79
102.0462	24
103.0535	88
107.0272	35
108.0372	22
109.0252	11
109.0449	999
115.0542	601
120.0357	26
121.0455	24
123.0608	39
125.0387	13
126.0469	28
127.0539	70
128.0616	41
129.0419	13
133.0453	512
134.054	26
135.0601	167
137.0256	19
145.047	24
146.0523	236
147.0627	53
148.0616	15
159.0575	15
