Mass spectrum: Hydroxytorasemide; LC-ESI-QTOF; MS2; 130 V
Name: Hydroxytorasemide
Class: Pharmaceutical; Transformation_product
Formula: C16H20N4O4S
Exact mass: 364.1205
SMILES: CC(C)NC(=O)NS(=O)(=O)c1cnccc1Nc2cccc(c2)CO
InChI: InChI=1S/C16H20N4O4S/c1-11(2)18-16(22)20-25(23,24)15-9-17-7-6-14(15)19-13-5-3-4-12(8-13)10-21/h3-9,11,21H,10H2,1-2H3,(H,17,19)(H2,18,20,22)
Instrument: TripleTOF 5600 SCIEX
Instrument type: LC-ESI-QTOF
Ms type: MS2
Ion mode: POSITIVE
Collision energy: 130
Fragmentation mode: CID
Ionization: ESI
Column name: Zorbax Eclipse Plus C18 2.1 mm x 150 mm, 3.5 um, Agilent
Retention time: 5.824 min
Precursor m/z: 365.1278
Precursor type: [M+H]+
m/z	relative intensity
51.0302	101
52.0352	15
65.0426	107
67.0458	17
73.0093	14
74.0179	85
75.0265	190
76.0205	12
76.0328	25
77.0418	417
78.0363	45
79.0437	28
85.0131	11
86.0167	36
87.0244	50
88.0321	172
89.0405	726
90.0479	77
91.0518	22
93.0431	14
98.0152	22
99.0222	38
100.0185	11
100.031	22
101.0393	220
102.0432	99
103.0341	14
103.0536	26
104.0496	28
113.0385	367
114.0455	410
115.0539	999
116.0493	123
117.0562	130
118.0517	26
125.0372	50
126.0461	168
127.0538	339
128.0496	364
129.0464	109
130.0403	20
130.0616	11
137.0191	9
138.0359	17
139.0418	47
140.0494	756
141.056	176
142.0557	103
151.0452	11
152.049	134
153.0556	155
154.0645	247
155.0595	115
161.0163	11
165.0479	20
166.0533	79
167.0614	91
168.068	242
169.0753	117
179.0607	196
180.0716	74
181.0759	711
182.0824	63
187.0299	14
197.0701	31
