Mass spectrum: Mebendazole; LC-ESI-QTOF; MS2; 140 V
Name: Mebendazole
Class: Pharmaceutical
Formula: C16H13N3O3
Exact mass: 295.0957
SMILES: COC(=O)Nc1[nH]c2cc(ccc2n1)C(=O)c3ccccc3
InChI: InChI=1S/C16H13N3O3/c1-22-16(21)19-15-17-12-8-7-11(9-13(12)18-15)14(20)10-5-3-2-4-6-10/h2-9H,1H3,(H2,17,18,19,21)
Instrument: TripleTOF 5600 SCIEX
Instrument type: LC-ESI-QTOF
Ms type: MS2
Ion mode: POSITIVE
Collision energy: 140
Fragmentation mode: CID
Ionization: ESI
Column name: Zorbax Eclipse Plus C18 2.1 mm x 150 mm, 3.5 um, Agilent
Retention time: 8.672 min
Precursor m/z: 296.103
Precursor type: [M+H]+
m/z	relative intensity
49.029	65
52.0232	197
69.0124	179
74.0192	103
75.012	245
75.0259	122
76.0209	999
77.0292	235
77.041	933
78.0361	348
87.024	65
88.0199	65
89.0416	103
98.0163	56
104.0373	47
105.0445	94
113.0375	75
114.0323	37
139.0547	37
164.0482	75
