Mass spectrum: Triisopropanolamine; LC-ESI-QTOF; MS2; 40 V
Name: Triisopropanolamine
Formula: C9H21NO3
Exact mass: 191.1521
SMILES: CC(CN(CC(C)O)CC(C)O)O
InChI: InChI=1S/C9H21NO3/c1-7(11)4-10(5-8(2)12)6-9(3)13/h7-9,11-13H,4-6H2,1-3H3
Instrument: TripleTOF 6600 SCIEX
Instrument type: LC-ESI-QTOF
Ms type: MS2
Ion mode: POSITIVE
Collision energy: 40
Fragmentation mode: CID
Ionization: ESI
Column name: Zorbax Eclipse Plus C18 2.1 mm x 150 mm, 3.5 um, Agilent
Retention time: 2.182 min
Precursor m/z: 192.1594
Precursor type: [M+H]+
m/z	relative intensity
31.0185	157
37.0076	21
38.0152	21
39.0233	278
41.0393	717
42.0344	138
43.0189	30
43.0546	114
44.0498	16
53.0385	12
55.0546	60
56.0497	153
58.0656	78
59.0495	440
68.0495	73
69.0691	33
70.0654	255
72.0811	16
77.0382	27
79.054	109
80.0483	10
81.0573	10
81.0701	127
82.0648	42
83.0728	15
84.0797	13
94.0643	27
96.0808	75
98.0963	999
108.0811	24
114.0908	43
116.1064	81
156.1372	49
174.1481	103
192.1606	13
