Mass spectrum: 4-Carboxy-9-acridanone; LC-ESI-QTOF; MS2; 120 V
Name: 4-Carboxy-9-acridanone
Class: Pharmaceutical; Antimicrobial
Formula: C14H9NO3
Exact mass: 239.0582
SMILES: c1ccc2c(c1)c(=O)c3cccc(c3[nH]2)C(=O)O
InChI: InChI=1S/C14H9NO3/c16-13-8-4-1-2-7-11(8)15-12-9(13)5-3-6-10(12)14(17)18/h1-7H,(H,15,16)(H,17,18)
Instrument: TripleTOF 5600 SCIEX
Instrument type: LC-ESI-QTOF
Ms type: MS2
Ion mode: POSITIVE
Collision energy: 120
Fragmentation mode: CID
Ionization: ESI
Column name: Zorbax Eclipse Plus C18 2.1 mm x 150 mm, 3.5 um, Agilent
Retention time: 8.816 min
Precursor m/z: 240.0655
Precursor type: [M+H]+
m/z	relative intensity
51.0284	99
62.0554	83
65.0426	133
73.0102	99
74.0183	732
75.024	249
76.0349	183
85.0091	333
86.016	932
87.0238	999
88.0202	216
88.0288	166
89.0404	566
89.0551	66
98.0156	316
99.0102	83
99.022	83
110.015	283
111.0176	66
113.0373	382
113.0496	99
114.0322	133
115.0539	99
137.0368	249
138.04	99
139.0524	116
