Mass spectrum: Enalaprilat; LC-ESI-QTOF; MS2; 60 V
Name: Enalaprilat
Class: Pharmaceutical; Metabolite; Transformation_product
Formula: C18H24N2O5
Exact mass: 348.1685
SMILES: C[C@@H](C(=O)N1CCC[C@H]1C(=O)O)N[C@@H](CCC2=CC=CC=C2)C(=O)O
InChI: InChI=1S/C18H24N2O5/c1-12(16(21)20-11-5-8-15(20)18(24)25)19-14(17(22)23)10-9-13-6-3-2-4-7-13/h2-4,6-7,12,14-15,19H,5,8-11H2,1H3,(H,22,23)(H,24,25)/t12-,14-,15-/m0/s1
Instrument: TripleTOF 5600 SCIEX
Instrument type: LC-ESI-QTOF
Ms type: MS2
Ion mode: POSITIVE
Collision energy: 60
Fragmentation mode: CID
Ionization: ESI
Column name: Zorbax Eclipse Plus C18 2.1 mm x 150 mm, 3.5 um, Agilent
Retention time: 5.842 min
Precursor m/z: 349.1758
Precursor type: [M+H]+
m/z	relative intensity
56.0563	141
65.0416	11
70.0681	77
91.0557	999
102.0552	165
105.071	23
115.0543	159
116.0692	35
117.0692	752
128.0593	15
134.0955	59
143.0854	13
160.1106	97
