Mass spectrum: Trihexyltetradecylphosphonium; LC-ESI-QTOF; MS2; 90 V
Name: Trihexyltetradecylphosphonium
Formula: [C32H68P]+
Exact mass: 483.5053
SMILES: CCCCCCCCCCCCCC[P+](CCCCCC)(CCCCCC)CCCCCC
InChI: InChI=1S/C32H68P/c1-5-9-13-17-18-19-20-21-22-23-24-28-32-33(29-25-14-10-6-2,30-26-15-11-7-3)31-27-16-12-8-4/h5-32H2,1-4H3/q+1
Instrument: TripleTOF 5600 SCIEX
Instrument type: LC-ESI-QTOF
Ms type: MS2
Ion mode: POSITIVE
Collision energy: 90
Fragmentation mode: CID
Ionization: ESI
Column name: Zorbax Eclipse Plus C18 2.1 mm x 150 mm, 3.5 um, Agilent
Retention time: 17.125 min
Precursor m/z: 483.5053
Precursor type: [M]+
m/z	relative intensity
41.0391	51
43.0549	71
45.9972	68
48.0129	50
55.055	83
56.9887	51
59.0046	67
61.0205	184
62.0283	452
69.0696	62
75.0358	347
76.0434	999
88.0425	74
89.0505	233
90.0582	398
101.0508	65
102.0591	61
103.0666	279
104.0738	62
115.0661	93
116.0744	50
117.0825	347
129.0827	83
131.0982	303
143.0985	74
145.1143	353
157.1154	51
159.1306	530
171.1277	74
173.1461	378
185.1447	79
187.1619	509
199.1604	61
201.1774	526
213.1788	65
215.1927	335
227.1946	56
229.2091	753
243.2248	379
257.24	425
271.256	773
285.2718	433
299.2866	245
313.3033	698
327.3193	196
341.3337	283
355.3514	202
369.3648	218
383.3802	269
397.3982	167
411.4157	82
425.4221	102
483.4999	73
