Mass spectrum: Tris(4-isopropylphenyl) phosphate; LC-ESI-QTOF; MS2; 150 V
Name: Tris(4-isopropylphenyl) phosphate
Class: Industrial_process
Formula: C27H33O4P
Exact mass: 452.2116
SMILES: CC(C)C1=CC=C(C=C1)OP(=O)(OC2=CC=C(C=C2)C(C)C)OC3=CC=C(C=C3)C(C)C
InChI: InChI=1S/C27H33O4P/c1-19(2)22-7-13-25(14-8-22)29-32(28,30-26-15-9-23(10-16-26)20(3)4)31-27-17-11-24(12-18-27)21(5)6/h7-21H,1-6H3
Instrument: TripleTOF 6600 SCIEX
Instrument type: LC-ESI-QTOF
Ms type: MS2
Ion mode: POSITIVE
Collision energy: 150
Fragmentation mode: CID
Ionization: ESI
Column name: Zorbax Eclipse Plus C18 2.1 mm x 150 mm, 3.5 um, Agilent
Retention time: 18.874 min
Precursor m/z: 453.2189
Precursor type: [M+H]+
m/z	relative intensity
39.0226	374
51.022	686
65.0378	686
77.0374	999
91.0523	312
139.0529	499
150.045	374
151.0532	437
152.061	999
