Mass spectrum: (Ethoxycarbonylmethyl)triphenylphosphonium; LC-ESI-QTOF; MS2; 60 V
Name: (Ethoxycarbonylmethyl)triphenylphosphonium
Formula: [C22H22O2P]+
Exact mass: 349.1352
SMILES: CCOC(=O)C[P+](C1=CC=CC=C1)(C2=CC=CC=C2)C3=CC=CC=C3
InChI: InChI=1S/C22H22O2P/c1-2-24-22(23)18-25(19-12-6-3-7-13-19,20-14-8-4-9-15-20)21-16-10-5-11-17-21/h3-17H,2,18H2,1H3/q+1
Instrument: TripleTOF 6600 SCIEX
Instrument type: LC-ESI-QTOF
Ms type: MS2
Ion mode: POSITIVE
Collision energy: 60
Fragmentation mode: CID
Ionization: ESI
Column name: Zorbax Eclipse Plus C18 2.1 mm x 150 mm, 3.5 um, Agilent
Retention time: 8 min
Precursor m/z: 349.1352
Precursor type: [M]+
m/z	relative intensity
107.0012	125
108.0091	331
183.0341	999
184.0416	66
185.0495	124
201.0447	118
261.0813	348
262.089	139
275.097	110
277.1128	52
303.092	227
321.1024	67
