Mass spectrum: Fenpropidin; LC-ESI-QTOF; MS2; 150 V
Name: Fenpropidin
Class: Fungicide
Formula: C19H31N
Exact mass: 273.2456
SMILES: CC(CC1=CC=C(C=C1)C(C)(C)C)CN2CCCCC2
InChI: InChI=1S/C19H31N/c1-16(15-20-12-6-5-7-13-20)14-17-8-10-18(11-9-17)19(2,3)4/h8-11,16H,5-7,12-15H2,1-4H3
Instrument: TripleTOF 6600 SCIEX
Instrument type: LC-ESI-QTOF
Ms type: MS2
Ion mode: POSITIVE
Collision energy: 150
Fragmentation mode: CID
Ionization: ESI
Column name: Zorbax Eclipse Plus C18 2.1 mm x 150 mm, 3.5 um, Agilent
Retention time: 9.471 min
Precursor m/z: 274.2529
Precursor type: [M+H]+
m/z	relative intensity
30.0334	27
35.9994	50
37.0077	321
38.0054	18
38.0155	239
39.0234	999
41.0387	87
42.0338	30
49.0068	40
50.0152	293
51.0232	475
52.0307	41
56.0499	24
59.9987	29
61.0073	127
62.0146	218
63.0231	426
65.0386	674
73.0065	18
74.0143	123
75.0223	66
76.0303	44
77.0383	278
78.0457	78
79.0542	12
86.0153	23
87.0218	24
89.0382	298
91.054	428
102.0465	65
103.0544	34
114.0458	13
115.0538	605
116.0618	19
126.0454	10
127.0536	19
128.0605	29
