Mass spectrum: 2-Benzyl-4-chlorophenol; LC-ESI-QTOF; MS2; 150 V
Name: 2-Benzyl-4-chlorophenol
Class: Personal_care_product; Fungicide
Formula: C13H11ClO
Exact mass: 218.0498
SMILES: C1=CC=C(C=C1)CC2=C(C=CC(=C2)Cl)O
InChI: InChI=1S/C13H11ClO/c14-12-6-7-13(15)11(9-12)8-10-4-2-1-3-5-10/h1-7,9,15H,8H2
Instrument: TripleTOF 5600 SCIEX
Instrument type: LC-ESI-QTOF
Ms type: MS2
Ion mode: NEGATIVE
Collision energy: 150
Fragmentation mode: CID
Ionization: ESI
Column name: Zorbax Eclipse Plus C18 2.1 mm x 150 mm, 3.5 um, Agilent
Retention time: 13.141 min
Precursor m/z: 217.0426
Precursor type: [M-H]-
m/z	relative intensity
34.9698	999
41.0037	76
