Mass spectrum: Triphenylphosphine oxide; LC-ESI-QTOF; MS2; 140 V
Name: Triphenylphosphine oxide
Class: Industrial_process
Formula: C18H15OP
Exact mass: 278.0861
SMILES: O=[P](c1ccccc1)(c2ccccc2)c3ccccc3
InChI: InChI=1S/C18H15OP/c19-20(16-10-4-1-5-11-16,17-12-6-2-7-13-17)18-14-8-3-9-15-18/h1-15H
Instrument: TripleTOF 5600 SCIEX
Instrument type: LC-ESI-QTOF
Ms type: MS2
Ion mode: POSITIVE
Collision energy: 140
Fragmentation mode: CID
Ionization: ESI
Column name: Zorbax Eclipse Plus C18 2.1 mm x 150 mm, 3.5 um, Agilent
Retention time: 10.458 min
Precursor m/z: 279.0933
Precursor type: [M+H]+
m/z	relative intensity
51.0305	999
52.0367	14
65.0448	22
67.9844	107
68.9918	90
74.019	124
75.0275	42
76.0339	42
77.0413	180
78.0495	28
79.9825	42
80.9926	53
86.0171	25
87.0243	39
89.0413	47
91.983	31
98.0178	33
99.0238	16
100.033	19
101.0401	11
102.0476	42
103.9797	16
107.0054	76
113.0425	14
115.0546	31
125.0356	19
126.0466	79
127.0524	16
131.0033	14
139.0547	14
150.0449	73
151.0541	84
152.0605	50
157.0192	16
168.0133	19
179.0042	14
181.0198	28
