Mass spectrum: Moxidectin; LC-ESI-QTOF; MS2; 30 V
Name: Moxidectin
Class: Pharmaceutical; Insecticide
Formula: C37H53NO8
Exact mass: 639.3771
SMILES: CO\N=C\1C[C@]2(C[C@@H]3C[C@@H](C\C=C(/C)C[C@@H](C)/C=C/C=C/4CO[C@@H]5[C@H](O)C(=C[C@@H](C(=O)O3)[C@]45O)C)O2)OC([C@H]1C)C(/C)=C/C(C)C
InChI: InChI=1S/C37H53NO8/c1-21(2)14-25(6)33-26(7)31(38-42-8)19-36(46-33)18-29-17-28(45-36)13-12-23(4)15-22(3)10-9-11-27-20-43-34-32(39)24(5)16-30(35(40)44-29)37(27,34)41/h9-12,14,16,21-22,26,28-30,32-34,39,41H,13,15,17-20H2,1-8H3/b10-9+,23-12+,25-14+,27-11+,38-31+/t22-,26-,28+,29-,30-,32+,33?,34+,36-,37+/m0/s1
Instrument: TripleTOF 5600 SCIEX
Instrument type: LC-ESI-QTOF
Ms type: MS2
Ion mode: POSITIVE
Collision energy: 30
Fragmentation mode: CID
Ionization: ESI
Column name: Zorbax Eclipse Plus C18 2.1 mm x 150 mm, 3.5 um, Agilent
Retention time: 18.457 min
Precursor m/z: 640.3844
Precursor type: [M+H]+
m/z	relative intensity
123.1158	74
127.1099	74
145.065	166
145.0983	74
148.0748	74
159.0815	74
159.114	148
164.1429	74
166.1587	166
171.0809	74
171.1139	129
196.1657	92
199.1109	592
218.1543	259
219.1629	129
416.2565	721
418.2729	481
434.2689	388
435.2751	166
436.2827	296
448.2828	554
460.2419	166
466.3034	74
478.2571	592
479.2671	148
496.2679	554
497.2805	166
498.2833	999
510.2923	185
528.298	481
528.3501	92
560.382	259
590.3506	92
622.3751	425
640.3796	296
