Mass spectrum: 1-Palmitoyl-2-glutaryl-sn-glycero-3-phosphocholine; LC-ESI-QTOF; MS2; 130 V
Name: 1-Palmitoyl-2-glutaryl-sn-glycero-3-phosphocholine
Formula: C29H56NO10P
Exact mass: 609.3642
SMILES: CCCCCCCCCCCCCCCC(=O)OCC(COP(=O)([O-])OCC[N+](C)(C)C)OC(=O)CCCC(=O)O
InChI: InChI=1S/C29H56NO10P/c1-5-6-7-8-9-10-11-12-13-14-15-16-17-20-28(33)37-24-26(40-29(34)21-18-19-27(31)32)25-39-41(35,36)38-23-22-30(2,3)4/h26H,5-25H2,1-4H3,(H-,31,32,35,36)
Instrument: TripleTOF 6600 SCIEX
Instrument type: LC-ESI-QTOF
Ms type: MS2
Ion mode: POSITIVE
Collision energy: 130
Fragmentation mode: CID
Ionization: ESI
Column name: Zorbax Eclipse Plus C18 2.1 mm x 150 mm, 3.5 um, Agilent
Retention time: 15.246 min
Precursor m/z: 610.3715
Precursor type: [M+H]+
m/z	relative intensity
41.04	14
42.0351	17
43.019	19
43.0425	19
44.0507	25
45.0341	182
56.0501	185
58.0654	79
59.0731	17
60.0815	125
62.9637	39
70.0665	42
71.0734	637
80.974	318
86.0969	532
87.0434	14
98.9845	999
104.1063	62
124.9996	341
166.0621	17
