Mass spectrum: 5-Aminosalicylic acid; LC-ESI-QTOF; MS2; 100 V
Name: 5-Aminosalicylic acid
Class: Pharmaceutical
Formula: C7H7NO3
Exact mass: 153.0426
SMILES: C1=CC(=C(C=C1N)C(=O)O)O
InChI: InChI=1S/C7H7NO3/c8-4-1-2-6(9)5(3-4)7(10)11/h1-3,9H,8H2,(H,10,11)
Instrument: TripleTOF 6600 SCIEX
Instrument type: LC-ESI-QTOF
Ms type: MS2
Ion mode: POSITIVE
Collision energy: 100
Fragmentation mode: CID
Ionization: ESI
Column name: Zorbax Eclipse Plus C18 2.1 mm x 150 mm, 3.5 um, Agilent
Retention time: 2.181 min
Precursor m/z: 154.0499
Precursor type: [M+H]+
m/z	relative intensity
35.9994	202
37.0072	750
38.0028	115
38.015	490
39.0228	571
40.0183	40
41.0027	23
41.0255	34
44.9968	28
49.007	86
50.0148	329
51.0097	28
51.0225	161
52.0062	34
52.0174	173
53.0019	386
53.0125	23
53.0384	150
54.0333	109
59.9996	121
61.0067	999
62.0147	871
63.0222	167
73.0066	103
74.0145	317
