Mass spectrum: 3-Dimethylaminophenol; LC-ESI-QTOF; MS2; 150 V
Name: 3-Dimethylaminophenol
Formula: C8H11NO
Exact mass: 137.0841
SMILES: CN(C)C1=CC(=CC=C1)O
InChI: InChI=1S/C8H11NO/c1-9(2)7-4-3-5-8(10)6-7/h3-6,10H,1-2H3
Instrument: TripleTOF 6600 SCIEX
Instrument type: LC-ESI-QTOF
Ms type: MS2
Ion mode: POSITIVE
Collision energy: 150
Fragmentation mode: CID
Ionization: ESI
Column name: Zorbax Eclipse Plus C18 2.1 mm x 150 mm, 3.5 um, Agilent
Retention time: 4.073 min
Precursor m/z: 138.0914
Precursor type: [M+H]+
m/z	relative intensity
35.9986	461
37.0065	999
38.0016	185
38.0142	286
39.0093	21
39.0222	65
40.0168	18
49.0063	257
50.0136	178
51.0087	43
52.0169	18
53.0003	32
59.9981	90
61.006	207
62.0144	47
73.0058	36
74.0117	18
