Mass spectrum: Foramsulfuron; LC-ESI-QTOF; MS2; 50 V
Name: Foramsulfuron
Class: Herbicide
Formula: C17H20N6O7S
Exact mass: 452.1114
InChI: InChI=1S/C17H20N6O7S/c1-23(2)15(25)11-6-5-10(18-9-24)7-12(11)31(27,28)22-17(26)21-16-19-13(29-3)8-14(20-16)30-4/h5-9H,1-4H3,(H,18,24)(H2,19,20,21,22,26)
Instrument: TripleTOF 6600 SCIEX
Instrument type: LC-ESI-QTOF
Ms type: CID
Ion mode: NEGATIVE
Collision energy: 50
Ionization: ESI
Column name: Zorbax Eclipse Plus C18 2.1 mm x 150 mm, 3.5 um, Agilent
Retention time: 8.823 min
Precursor m/z: 451.1041
Precursor type: [M-H]-
m/z	relative intensity
41.9992	61
105.9606	31
118.0313	13
122.0346	17
139.0399	14
154.0632	86
160.0039	15
161.0738	13
176.0853	14
197.0053	14
205.0638	50
222.9796	13
224.0495	10
224.9982	68
252.0428	75
268.04	999
