Mass spectrum: Ampicillin; LC-ESI-QTOF; MS2; 110 V
Name: Ampicillin
Class: Pharmaceutical
Formula: C16H19N3O4S
Exact mass: 349.1096
SMILES: CC1(C)S[C@@H]2[C@H](NC(=O)[C@H](N)c3ccccc3)C(=O)N2[C@H]1C(O)=O
InChI: InChI=1S/C16H19N3O4S/c1-16(2)11(15(22)23)19-13(21)10(14(19)24-16)18-12(20)9(17)8-6-4-3-5-7-8/h3-7,9-11,14H,17H2,1-2H3,(H,18,20)(H,22,23)/t9-,10-,11+,14-/m1/s1
Instrument: TripleTOF 5600 SCIEX
Instrument type: LC-ESI-QTOF
Ms type: MS2
Ion mode: POSITIVE
Collision energy: 110
Fragmentation mode: CID
Ionization: ESI
Column name: Zorbax Eclipse Plus C18 2.1 mm x 150 mm, 3.5 um, Agilent
Retention time: 5.367 min
Precursor m/z: 350.1169
Precursor type: [M+H]+
m/z	relative intensity
43.0258	40
51.0291	35
53.0426	29
58.9994	70
65.0425	333
68.016	29
70.068	70
75.0259	35
77.0412	882
77.0746	29
78.0499	23
79.0567	911
86.008	140
87.0281	58
89.0401	368
90.0477	245
91.0555	999
101.0404	29
103.056	81
106.0651	736
114.0356	58
115.0532	46
116.049	35
117.058	274
118.0634	70
121.0104	216
128.0489	29
130.065	87
