Mass spectrum: Levetiracetam acid; LC-ESI-QTOF; MS2; 40 V
Name: Levetiracetam acid
Class: Pharmaceutical; Transformation_product
Formula: C8H13NO3
Exact mass: 171.0895
SMILES: CC[C@@H](C(=O)O)N1CCCC1=O
InChI: InChI=1S/C8H13NO3/c1-2-6(8(11)12)9-5-3-4-7(9)10/h6H,2-5H2,1H3,(H,11,12)/t6-/m0/s1
Instrument: TripleTOF 5600 SCIEX
Instrument type: LC-ESI-QTOF
Ms type: MS2
Ion mode: POSITIVE
Collision energy: 40
Fragmentation mode: CID
Ionization: ESI
Column name: Zorbax Eclipse Plus C18 2.1 mm x 150 mm, 3.5 um, Agilent
Retention time: 5.699 min
Precursor m/z: 172.0968
Precursor type: [M+H]+
m/z	relative intensity
42.0426	21
55.0607	36
56.0539	38
58.0709	185
68.0527	40
69.0379	999
69.072	40
70.0687	59
81.0722	12
83.0755	10
83.087	14
86.0622	14
96.082	12
98.0606	32
98.0976	157
108.0805	12
126.0916	540
