Mass spectrum: Flufenacet; LC-ESI-QTOF; MS2; 150 V
Name: Flufenacet
Class: Herbicide; Fungicide
Formula: C14H13F4N3O2S
Exact mass: 363.0665
SMILES: CC(C)N(C1=CC=C(C=C1)F)C(=O)COC2=NN=C(S2)C(F)(F)F
InChI: InChI=1S/C14H13F4N3O2S/c1-8(2)21(10-5-3-9(15)4-6-10)11(22)7-23-13-20-19-12(24-13)14(16,17)18/h3-6,8H,7H2,1-2H3
Instrument: TripleTOF 6600 SCIEX
Instrument type: LC-ESI-QTOF
Ms type: MS2
Ion mode: POSITIVE
Collision energy: 150
Fragmentation mode: CID
Ionization: ESI
Column name: Zorbax Eclipse Plus C18 2.1 mm x 150 mm, 3.5 um, Agilent
Retention time: 13.345 min
Precursor m/z: 364.0738
Precursor type: [M+H]+
m/z	relative intensity
30.9977	14
37.0074	22
38.0149	17
39.023	66
41.0387	17
49.0073	69
50.0152	342
51.023	567
52.0181	13
57.0136	395
59.0288	17
61.0073	36
62.0149	62
63.0229	101
69.0132	69
70.0214	71
73.0074	66
74.0154	999
75.0231	835
76.0181	32
77.0386	243
78.0335	14
81.0134	72
83.0293	158
89.0379	13
95.0292	176
96.0367	91
97.0444	10
107.0292	81
108.0369	10
109.0445	36
122.0399	19
123.0351	34
