Mass spectrum: 4-Acetamidoantipyrine; LC-ESI-QTOF; MS2; 60 V
Name: 4-Acetamidoantipyrine
Class: Pharmaceutical; Metabolite; Transformation_product; Transformation_product-Metabolite
Formula: C13H15N3O2
Exact mass: 245.1164
SMILES: CN1N(C(=O)C(=C1C)NC(C)=O)c2ccccc2
InChI: InChI=1S/C13H15N3O2/c1-9-12(14-10(2)17)13(18)16(15(9)3)11-7-5-4-6-8-11/h4-8H,1-3H3,(H,14,17)
Instrument: TripleTOF 5600 SCIEX
Instrument type: LC-ESI-QTOF
Ms type: MS2
Ion mode: POSITIVE
Collision energy: 60
Fragmentation mode: CID
Ionization: ESI
Column name: Zorbax Eclipse Plus C18 2.1 mm x 150 mm, 3.5 um, Agilent
Retention time: 5.586 min
Precursor m/z: 246.1237
Precursor type: [M+H]+
m/z	relative intensity
42.0417	24
43.0258	46
51.0289	13
56.0562	417
65.0431	10
77.0426	620
81.0475	38
83.064	999
90.0352	14
91.0554	15
92.0511	11
94.0665	69
104.0505	174
115.0539	10
117.0574	20
118.0628	11
119.0607	13
128.0498	23
130.0647	29
131.0617	10
132.0803	23
143.0608	23
144.0788	23
171.0551	17
