Mass spectrum: Ranitidine; LC-ESI-QTOF; MS2; 50 V
Name: Ranitidine
Class: Pharmaceutical
Formula: C13H22N4O3S
Exact mass: 314.1413
SMILES: CNC(=C[N+](=O)[O-])NCCSCC1=CC=C(O1)CN(C)C
InChI: InChI=1S/C13H22N4O3S/c1-14-13(9-17(18)19)15-6-7-21-10-12-5-4-11(20-12)8-16(2)3/h4-5,9,14-15H,6-8,10H2,1-3H3
Instrument: TripleTOF 5600 SCIEX
Instrument type: LC-ESI-QTOF
Ms type: MS2
Ion mode: NEGATIVE
Collision energy: 50
Fragmentation mode: CID
Ionization: ESI
Column name: Zorbax Eclipse Plus C18 2.1 mm x 150 mm, 3.5 um, Agilent
Retention time: 4.832 min
Precursor m/z: 313.134
Precursor type: [M-H]-
m/z	relative intensity
45.9966	151
60.0103	278
85.0048	58
97.0137	58
110.992	69
111.9983	999
116.0465	302
125.0051	81
140.0169	69
142.0651	139
155.0415	69
170.0627	81
