Mass spectrum: 6alpha-Methylprednisolone; LC-ESI-QTOF; MS2; 30 V
Name: 6alpha-Methylprednisolone
Class: Pharmaceutical
Formula: C22H30O5
Exact mass: 374.2093
SMILES: C[C@H]1C[C@H]2[C@@H]3CC[C@](O)(C(=O)CO)[C@@]3(C)C[C@H](O)[C@@H]2[C@@]4(C)C=CC(=O)C=C14
InChI: InChI=1S/C22H30O5/c1-12-8-14-15-5-7-22(27,18(26)11-23)21(15,3)10-17(25)19(14)20(2)6-4-13(24)9-16(12)20/h4,6,9,12,14-15,17,19,23,25,27H,5,7-8,10-11H2,1-3H3/t12-,14-,15-,17-,19+,20-,21-,22-/m0/s1
Instrument: TripleTOF 5600 SCIEX
Instrument type: LC-ESI-QTOF
Ms type: MS2
Ion mode: POSITIVE
Collision energy: 30
Fragmentation mode: CID
Ionization: ESI
Column name: Zorbax Eclipse Plus C18 2.1 mm x 150 mm, 3.5 um, Agilent
Retention time: 9.016 min
Precursor m/z: 375.2166
Precursor type: [M+H]+
m/z	relative intensity
77.0447	14
81.0749	21
91.0557	28
93.0702	32
95.0859	28
97.0641	25
105.0675	42
107.0846	75
109.0653	25
109.1008	42
119.0836	53
121.0633	200
121.1	25
123.0789	28
125.0592	28
127.074	17
131.0822	25
133.0628	14
133.1017	64
135.0794	562
137.0961	32
139.0729	28
143.0843	50
145.0632	28
145.0991	42
147.0786	96
147.1139	21
149.0962	75
151.0728	14
157.0983	21
159.0793	200
159.1147	28
161.0557	14
161.0952	999
165.0887	64
171.081	46
171.1166	35
173.0955	168
175.11	85
177.0903	68
183.1121	32
185.0945	701
187.1106	526
189.0906	78
189.1286	35
193.0978	32
195.0852	21
196.0905	25
197.0956	53
199.1103	132
201.1264	68
205.1188	17
208.0883	25
209.0941	82
210.1025	39
211.1106	440
212.1175	17
213.0894	21
213.1266	218
215.1088	17
215.1403	42
219.1189	17
219.1404	17
221.1261	14
222.1024	42
223.1113	128
223.145	21
224.1176	39
225.124	164
227.101	14
227.1404	96
231.1366	107
233.1275	21
235.1104	71
235.1437	32
236.12	53
237.1253	354
238.1337	50
239.1433	186
240.1512	17
241.1238	25
241.1577	53
243.1279	25
246.0968	28
247.1145	35
247.15	14
248.1185	32
249.1246	139
250.1329	35
251.1032	21
251.1419	436
253.1246	28
253.1571	952
255.1724	89
259.1134	17
260.1205	25
261.1257	114
262.1335	50
263.1414	139
263.1782	32
264.1492	39
265.1581	179
267.135	107
269.1528	39
273.1298	32
274.1345	50
275.1461	46
277.1561	189
278.1682	60
279.1373	164
279.1724	404
280.1539	25
280.1816	397
281.1876	132
288.1506	85
291.1728	114
293.1533	60
293.1881	264
295.1664	53
297.1468	111
297.1834	42
299.1995	32
303.1716	350
306.1591	32
309.1843	114
311.1677	25
311.1944	42
315.1554	39
321.1838	325
339.1945	264
357.2069	411
375.218	21
