Mass spectrum: Erlotinib; LC-ESI-QTOF; MS2; 40 V
Name: Erlotinib
Class: Pharmaceutical
Formula: C22H23N3O4
Exact mass: 393.1689
SMILES: COCCOC1=C(C=C2C(=C1)C(=NC=N2)NC3=CC=CC(=C3)C#C)OCCOC
InChI: InChI=1S/C22H23N3O4/c1-4-16-6-5-7-17(12-16)25-22-18-13-20(28-10-8-26-2)21(29-11-9-27-3)14-19(18)23-15-24-22/h1,5-7,12-15H,8-11H2,2-3H3,(H,23,24,25)
Instrument: TripleTOF 5600 SCIEX
Instrument type: LC-ESI-QTOF
Ms type: MS2
Ion mode: POSITIVE
Collision energy: 40
Fragmentation mode: CID
Ionization: ESI
Column name: Zorbax Eclipse Plus C18 2.1 mm x 150 mm, 3.5 um, Agilent
Retention time: 7.429 min
Precursor m/z: 394.1761
Precursor type: [M+H]+
m/z	relative intensity
59.0491	10
118.0651	13
143.0611	11
151.0526	10
161.0354	25
195.0913	11
205.0775	15
206.0613	23
207.0799	19
220.0876	20
222.1036	15
231.0797	21
232.0878	16
235.0766	10
237.0675	17
238.0729	10
248.0826	37
250.0985	115
251.0829	18
259.0741	10
260.083	40
261.0671	18
276.0782	180
277.0855	76
278.0931	999
290.0927	23
292.1087	49
304.1087	169
336.1348	369
394.1765	292
