Mass spectrum: 4-Methoxycinnamaldehyde; LC-ESI-QTOF; MS2; 20 V
Name: 4-Methoxycinnamaldehyde
Formula: C10H10O2
Exact mass: 162.0681
SMILES: COC1=CC=C(C=C1)C=CC=O
InChI: InChI=1S/C10H10O2/c1-12-10-6-4-9(5-7-10)3-2-8-11/h2-8H,1H3
Instrument: TripleTOF 6600 SCIEX
Instrument type: LC-ESI-QTOF
Ms type: MS2
Ion mode: POSITIVE
Collision energy: 20
Fragmentation mode: CID
Ionization: ESI
Column name: Zorbax Eclipse Plus C18 2.1 mm x 150 mm, 3.5 um, Agilent
Retention time: 9.471 min
Precursor m/z: 163.0754
Precursor type: [M+H]+
m/z	relative intensity
55.0183	436
56.0217	17
77.0396	50
79.0544	58
91.0542	86
102.0471	42
103.0554	76
104.0591	10
105.0347	39
105.0718	188
106.0739	17
107.0494	73
115.0554	45
119.0502	19
120.0593	50
121.0661	126
130.0435	64
131.0499	25
132.0576	16
133.0684	36
134.0735	39
135.0824	147
145.067	999
146.0694	161
147.0494	13
148.05	22
163.0777	426
164.082	101
