Mass spectrum: Oxfendazole; LC-ESI-QTOF; MS2; 80 V
Name: Oxfendazole
Class: Pharmaceutical
Formula: C15H13N3O3S
Exact mass: 315.0678
SMILES: COC(=O)Nc1[nH]c2cc(ccc2n1)[S](=O)c3ccccc3
InChI: InChI=1S/C15H13N3O3S/c1-21-15(19)18-14-16-12-8-7-11(9-13(12)17-14)22(20)10-5-3-2-4-6-10/h2-9H,1H3,(H2,16,17,18,19)
Instrument: TripleTOF 5600 SCIEX
Instrument type: LC-ESI-QTOF
Ms type: MS2
Ion mode: POSITIVE
Collision energy: 80
Fragmentation mode: CID
Ionization: ESI
Column name: Zorbax Eclipse Plus C18 2.1 mm x 150 mm, 3.5 um, Agilent
Retention time: 6.579 min
Precursor m/z: 316.075
Precursor type: [M+H]+
m/z	relative intensity
64.0347	14
75.0158	9
76.0201	83
77.0279	589
78.0353	37
79.0433	17
89.0255	10
90.0335	17
91.0415	29
92.0365	26
103.0273	15
103.0408	65
104.0371	999
104.0798	10
105.0438	124
116.0362	47
118.0513	32
119.0585	17
122.0058	28
130.0388	69
131.0476	755
139.0541	10
140.0505	17
146.0359	9
146.0692	10
152.048	10
153.0548	12
159.0428	901
171.0262	59
183.0169	12
190.0064	20
196.0195	51
197.0305	10
210.0245	25
211.033	59
224.0393	28
238.0437	26
265.0335	26
266.0388	14
