Mass spectrum: Picolinafen; LC-ESI-QTOF; MS2; 100 V
Name: Picolinafen
Class: Herbicide
Formula: C19H12F4N2O2
Exact mass: 376.0835
SMILES: C1=CC(=CC(=C1)OC2=CC=CC(=N2)C(=O)NC3=CC=C(C=C3)F)C(F)(F)F
InChI: InChI=1S/C19H12F4N2O2/c20-13-7-9-14(10-8-13)24-18(26)16-5-2-6-17(25-16)27-15-4-1-3-12(11-15)19(21,22)23/h1-11H,(H,24,26)
Instrument: TripleTOF 6600 SCIEX
Instrument type: LC-ESI-QTOF
Ms type: MS2
Ion mode: POSITIVE
Collision energy: 100
Fragmentation mode: CID
Ionization: ESI
Column name: Zorbax Eclipse Plus C18 2.1 mm x 150 mm, 3.5 um, Agilent
Retention time: 15.501 min
Precursor m/z: 377.0908
Precursor type: [M+H]+
m/z	relative intensity
35.9974	12
37.0063	50
38.014	48
39.0221	281
51.003	32
57.012	18
68.9926	68
73.0066	24
74.013	257
75.0032	110
75.021	650
81.0117	28
88.0277	10
95.0094	26
95.0271	876
99.0025	56
101.0168	14
105.0112	12
107.0274	14
113.0364	54
114.0416	30
119.0068	72
123.0319	175
124.0157	18
125.0181	412
133.0412	60
140.0474	70
141.0556	16
143.0255	48
145.0243	999
150.0328	14
162.0261	10
163.0322	28
170.0376	16
171.033	10
182.0323	36
189.0394	22
238.0425	20
