Mass spectrum: Paroxetine; LC-ESI-QTOF; MS2; 40 V
Name: Paroxetine
Class: Pharmaceutical
Formula: C19H20FNO3
Exact mass: 329.1427
SMILES: C1CNCC(C1C2=CC=C(C=C2)F)COC3=CC4=C(C=C3)OCO4
InChI: InChI=1S/C19H20FNO3/c20-15-3-1-13(2-4-15)17-7-8-21-10-14(17)11-22-16-5-6-18-19(9-16)24-12-23-18/h1-6,9,14,17,21H,7-8,10-12H2
Instrument: TripleTOF 5600 SCIEX
Instrument type: LC-ESI-QTOF
Ms type: MS2
Ion mode: POSITIVE
Collision energy: 40
Fragmentation mode: CID
Ionization: ESI
Column name: Zorbax Eclipse Plus C18 2.1 mm x 150 mm, 3.5 um, Agilent
Retention time: 7.812 min
Precursor m/z: 330.15
Precursor type: [M+H]+
m/z	relative intensity
39.0227	13
41.0384	32
42.0336	15
43.054	11
44.0491	152
56.049	32
68.049	41
70.0649	784
71.0712	10
77.0402	11
82.0656	41
83.0724	9
84.0805	20
86.059	14
93.0323	43
96.0808	15
97.0876	34
103.0534	45
109.0446	258
115.0532	40
121.0286	11
121.0426	10
123.06	285
127.0522	11
133.0445	35
135.0599	309
136.068	62
137.0751	26
138.0696	22
139.0369	21
146.0521	28
147.0594	77
148.0661	63
149.0768	32
150.0718	71
151.0384	288
161.075	132
163.0915	221
164.0872	51
175.0394	13
175.091	21
176.0997	41
178.102	160
190.104	10
192.118	868
193.1254	49
313.1196	22
330.1491	999
