Mass spectrum: Etrimfos; LC-ESI-QTOF; MS2; 30 V
Name: Etrimfos
Class: Insecticide
Formula: C10H17N2O4PS
Exact mass: 292.0647
InChI: InChI=1S/C10H17N2O4PS/c1-5-8-11-9(15-6-2)7-10(12-8)16-17(18,13-3)14-4/h7H,5-6H2,1-4H3
Instrument: TripleTOF 6600 SCIEX
Instrument type: LC-ESI-QTOF
Ms type: CID
Ion mode: POSITIVE
Collision energy: 30
Ionization: ESI
Column name: Zorbax Eclipse Plus C18 2.1 mm x 150 mm, 3.5 um, Agilent
Retention time: 14.241 min
Precursor m/z: 293.072
Precursor type: [M+H]+
m/z	relative intensity
56.049	27
68.0121	23
78.9933	48
84.0797	32
109.0038	85
110.9648	19
123.0541	71
124.9821	999
127.0138	16
142.9914	187
155.0804	36
164.0461	131
177.9708	19
181.0723	50
233.0138	211
261.0442	18
265.0401	665
293.0715	84
