Mass spectrum: Mefenpyr-diethyl; LC-ESI-QTOF; MS2; 140 V
Name: Mefenpyr-diethyl
Class: Herbicide
Formula: C16H18Cl2N2O4
Exact mass: 372.0644
SMILES: CCOC(=O)C1=NN(C(C1)(C)C(=O)OCC)C2=C(C=C(C=C2)Cl)Cl
InChI: InChI=1S/C16H18Cl2N2O4/c1-4-23-14(21)12-9-16(3,15(22)24-5-2)20(19-12)13-7-6-10(17)8-11(13)18/h6-8H,4-5,9H2,1-3H3
Instrument: TripleTOF 5600 SCIEX
Instrument type: LC-ESI-QTOF
Ms type: MS2
Ion mode: POSITIVE
Collision energy: 140
Fragmentation mode: CID
Ionization: ESI
Column name: Zorbax Eclipse Plus C18 2.1 mm x 150 mm, 3.5 um, Agilent
Retention time: 14.581 min
Precursor m/z: 373.0716
Precursor type: [M+H]+
m/z	relative intensity
48.9938	22
71.9838	16
72.9905	305
73.012	79
74.0216	999
75.0287	161
77.0422	23
82.9498	281
83.9804	18
84.9889	29
87.0258	10
88.0232	25
89.0442	26
90.0386	28
96.9871	68
97.9905	22
98.0187	15
99.0063	18
99.0257	29
100.0207	52
101.0411	26
102.0427	30
106.9472	81
108.9859	336
109.9942	24
111.0039	11
114.0351	15
123.9967	10
125.0042	26
126.035	21
127.0435	28
128.0517	16
129.0575	16
130.0652	11
132.9622	151
144.962	22
154.0464	11
