Mass spectrum: Thiamine Disulfide; LC-ESI-QTOF; MS2; 90 V
Name: Thiamine Disulfide
Class: Pharmaceutical
Formula: C24H34N8O4S2
Exact mass: 562.2144
SMILES: CC1=NC=C(C(=N1)N)CN(C=O)C(=C(CCO)SSC(=C(C)N(CC2=CN=C(N=C2N)C)C=O)CCO)C
InChI: InChI=1S/C24H34N8O4S2/c1-15(31(13-35)11-19-9-27-17(3)29-23(19)25)21(5-7-33)37-38-22(6-8-34)16(2)32(14-36)12-20-10-28-18(4)30-24(20)26/h9-10,13-14,33-34H,5-8,11-12H2,1-4H3,(H2,25,27,29)(H2,26,28,30)
Instrument: TripleTOF 6600 SCIEX
Instrument type: LC-ESI-QTOF
Ms type: MS2
Ion mode: POSITIVE
Collision energy: 90
Fragmentation mode: CID
Ionization: ESI
Column name: Zorbax Eclipse Plus C18 2.1 mm x 150 mm, 3.5 um, Agilent
Retention time: 4.48 min
Precursor m/z: 563.2217
Precursor type: [M+H]+
m/z	relative intensity
42.0331	31
54.0328	53
55.0407	94
66.0327	40
69.0436	82
80.0486	10
81.0439	184
82.0516	239
83.059	37
85.0638	10
93.0444	47
95.0597	12
96.055	51
102.0353	11
107.0595	98
108.0547	30
109.0631	17
110.0706	730
112.0212	12
113.029	32
114.0359	15
115.0217	14
122.0703	177
123.0784	999
124.0862	481
126.036	38
134.0701	13
135.0659	12
137.0812	49
139.0973	15
144.0472	172
145.0766	23
147.0751	15
148.0858	22
149.0812	23
154.0422	15
160.0854	23
162.0888	17
163.0902	23
173.0952	35
174.1032	25
175.1002	10
186.1021	17
189.1132	22
192.058	10
199.0977	24
204.114	47
216.0581	10
221.14	10
232.0775	10
233.0859	25
263.0955	24
