Mass spectrum: Malachite green cation; LC-ESI-QTOF; MS2; 130 V
Name: Malachite green cation
Class: Industrial_process; Pigment; Antimicrobial; Fungicide
Formula: [C23H25N2]+
Exact mass: 329.2012
SMILES: CN(C)C1=CC=C(C=C1)C(=C2C=CC(=[N+](C)C)C=C2)C3=CC=CC=C3
InChI: InChI=1S/C23H25N2/c1-24(2)21-14-10-19(11-15-21)23(18-8-6-5-7-9-18)20-12-16-22(17-13-20)25(3)4/h5-17H,1-4H3/q+1
Instrument: TripleTOF 5600 SCIEX
Instrument type: LC-ESI-QTOF
Ms type: MS2
Ion mode: POSITIVE
Collision energy: 130
Fragmentation mode: CID
Ionization: ESI
Column name: Zorbax Eclipse Plus C18 2.1 mm x 150 mm, 3.5 um, Agilent
Retention time: 9.29 min
Precursor m/z: 329.2012
Precursor type: [M]+
m/z	relative intensity
89.0362	55
115.0542	111
139.0526	144
151.0511	77
152.0631	77
162.0483	55
163.0527	488
164.0602	244
165.0697	222
176.0681	99
187.0536	99
188.0647	77
189.0683	155
190.0624	122
200.0646	122
201.0676	77
202.0766	77
211.0579	99
213.0689	310
215.087	99
224.0633	199
225.0676	133
226.0792	333
236.0617	99
237.0706	821
238.0782	255
239.0851	999
251.0716	66
