Mass spectrum: Methabenzthiazuron; LC-ESI-QTOF; MS2; 90 V
Name: Methabenzthiazuron
Class: Herbicide
Formula: C10H11N3OS
Exact mass: 221.0623
SMILES: CNC(=O)N(C)c1sc2ccccc2n1
InChI: InChI=1S/C10H11N3OS/c1-11-9(14)13(2)10-12-7-5-3-4-6-8(7)15-10/h3-6H,1-2H3,(H,11,14)
Instrument: TripleTOF 5600 SCIEX
Instrument type: LC-ESI-QTOF
Ms type: MS2
Ion mode: POSITIVE
Collision energy: 90
Fragmentation mode: CID
Ionization: ESI
Column name: Zorbax Eclipse Plus C18 2.1 mm x 150 mm, 3.5 um, Agilent
Retention time: 9.783 min
Precursor m/z: 222.0696
Precursor type: [M+H]+
m/z	relative intensity
51.0293	35
52.0373	43
53.0433	30
58.034	62
64.0343	14
65.0417	92
67.9755	10
68.9831	350
69.9912	407
77.0393	42
78.0385	39
79.0437	55
80.0506	107
81.9887	45
91.0427	46
92.9803	17
94.9955	486
96.004	999
97.0126	16
105.0435	37
106.0546	17
108.0016	31
109.009	21
118.0511	43
122.0055	184
123.0128	98
150.0242	33
