Mass spectrum: Hexazinone; LC-ESI-QTOF; MS2; 80 V
Name: Hexazinone
Class: Herbicide
Formula: C12H20N4O2
Exact mass: 252.1586
SMILES: CN1C(=NC(=O)N(C1=O)C2CCCCC2)N(C)C
InChI: InChI=1S/C12H20N4O2/c1-14(2)10-13-11(17)16(12(18)15(10)3)9-7-5-4-6-8-9/h9H,4-8H2,1-3H3
Instrument: TripleTOF 6600 SCIEX
Instrument type: LC-ESI-QTOF
Ms type: MS2
Ion mode: POSITIVE
Collision energy: 80
Fragmentation mode: CID
Ionization: ESI
Column name: Zorbax Eclipse Plus C18 2.1 mm x 150 mm, 3.5 um, Agilent
Retention time: 8.427 min
Precursor m/z: 253.1659
Precursor type: [M+H]+
m/z	relative intensity
30.0335	13
39.0224	54
41.038	37
42.0334	160
44.0491	133
46.0644	10
55.0293	198
55.0532	44
56.0126	10
56.0366	193
58.0285	33
58.0645	124
69.0082	49
69.044	562
69.9916	65
70.052	193
71.0598	999
72.0434	22
83.0232	122
85.0754	320
96.0555	12
