Mass spectrum: Voriconazole-N-oxide; LC-ESI-QTOF; MS2; 100 V
Name: Voriconazole-N-oxide
Class: Metabolite; Pharmaceutical
Formula: C16H14F3N5O2
Exact mass: 365.11
SMILES: CC(C1=NC=[N+](C=C1F)[O-])C(CN2C=NC=N2)(C3=C(C=C(C=C3)F)F)O
InChI: InChI=1S/C16H14F3N5O2/c1-10(15-14(19)5-24(26)9-21-15)16(25,6-23-8-20-7-22-23)12-3-2-11(17)4-13(12)18/h2-5,7-10,25H,6H2,1H3
Instrument: TripleTOF 5600 SCIEX
Instrument type: LC-ESI-QTOF
Ms type: MS2
Ion mode: POSITIVE
Collision energy: 100
Fragmentation mode: CID
Ionization: ESI
Column name: Zorbax Eclipse Plus C18 2.1 mm x 150 mm, 3.5 um, Agilent
Retention time: 7.739 min
Precursor m/z: 366.1172
Precursor type: [M+H]+
m/z	relative intensity
51.0286	19
55.0337	19
57.0174	19
68.0537	24
70.0101	19
70.0442	19
71.0191	33
71.0303	13
75.0062	33
77.0226	49
77.0404	80
78.0366	44
81.0156	58
82.0431	30
83.0321	22
95.0303	11
95.062	24
97.0214	27
98.0335	149
98.0537	13
99.0352	33
101.0201	503
105.0426	22
107.0289	384
113.0188	33
125.0183	13
125.0504	749
126.0582	71
127.0355	999
127.0681	13
141.0153	13
