Mass spectrum: Rifaximin; LC-ESI-QTOF; MS2; 70 V
Name: Rifaximin
Class: Pharmaceutical
Formula: C43H51N3O11
Exact mass: 785.3524
SMILES: CC1C=CC=C(C(=O)NC2=C(C3=C(C4=C(C(=C3O)C)OC(C4=O)(OC=CC(C(C(C(C(C(C1O)C)O)C)OC(=O)C)C)OC)C)C5=C2N6C=CC(=CC6=N5)C)O)C
InChI: InChI=1S/C43H51N3O11/c1-19-14-16-46-28(18-19)44-32-29-30-37(50)25(7)40-31(29)41(52)43(9,57-40)55-17-15-27(54-10)22(4)39(56-26(8)47)24(6)36(49)23(5)35(48)20(2)12-11-13-21(3)42(53)45-33(34(32)46)38(30)51/h11-18,20,22-24,27,35-36,39,48-51H,1-10H3,(H,45,53)
Instrument: TripleTOF 6600 SCIEX
Instrument type: LC-ESI-QTOF
Ms type: MS2
Ion mode: NEGATIVE
Collision energy: 70
Fragmentation mode: CID
Ionization: ESI
Column name: Zorbax Eclipse Plus C18 2.1 mm x 150 mm, 3.5 um, Agilent
Retention time: 11.765 min
Precursor m/z: 784.3451
Precursor type: [M-H]-
m/z	relative intensity
123.0789	18
277.0805	14
291.0953	11
305.0749	20
306.0839	33
307.0894	20
308.098	38
332.0973	40
333.0753	36
333.1053	32
334.078	21
344.0745	12
345.0813	16
346.0867	16
347.0984	452
358.0771	12
359.0857	185
360.0944	999
361.1014	281
362.1091	146
371.107	18
373.0997	27
374.1083	14
386.0725	52
387.0815	66
388.0881	63
402.1034	35
403.1093	18
439.1603	13
440.1883	17
441.1252	18
454.1335	161
464.1539	17
467.1419	14
468.1823	18
482.1639	142
483.1728	22
484.1777	21
510.1567	20
512.1752	43
516.2067	13
544.2	12
634.2442	14
638.2764	15
692.2839	52
694.3	12
724.3128	58
784.3348	12
