Mass spectrum: Trioctylphosphine oxide; LC-ESI-QTOF; MS2; 90 V
Name: Trioctylphosphine oxide
Class: Industrial_process
Formula: C24H51OP
Exact mass: 386.3678
SMILES: CCCCCCCCP(=O)(CCCCCCCC)CCCCCCCC
InChI: InChI=1S/C24H51OP/c1-4-7-10-13-16-19-22-26(25,23-20-17-14-11-8-5-2)24-21-18-15-12-9-6-3/h4-24H2,1-3H3
Instrument: TripleTOF 5600 SCIEX
Instrument type: LC-ESI-QTOF
Ms type: MS2
Ion mode: POSITIVE
Collision energy: 90
Fragmentation mode: CID
Ionization: ESI
Column name: Zorbax Eclipse Plus C18 2.1 mm x 150 mm, 3.5 um, Agilent
Retention time: 22.9 min
Precursor m/z: 387.375
Precursor type: [M+H]+
m/z	relative intensity
45.0009	37
50.0009	10
56.9979	12
59.013	13
61.0293	12
63.0074	999
64.015	304
65.0228	21
67.06	16
69.0764	165
71.0103	12
72.018	31
73.0263	83
75.0048	59
75.0435	10
77.0211	764
78.0287	850
79.0351	18
83.09	15
85.0234	18
87.04	41
89.0197	27
90.0276	46
91.0353	249
92.0428	353
99.039	16
101.0551	28
103.0342	49
104.043	45
105.0498	182
107.0673	11
115.0697	15
117.0494	110
118.0603	18
119.0649	144
131.0639	68
133.0798	136
145.0789	71
147.0947	86
159.0935	47
161.109	61
163.1252	12
173.1108	11
175.1272	31
187.1235	12
189.1401	120
203.1579	71
215.1583	47
217.1714	41
231.1869	71
245.2059	46
301.2669	30
