Mass spectrum: Venlafaxine-N-oxide; LC-ESI-QTOF; MS2; 140 V
Name: Venlafaxine-N-oxide
Class: Pharmaceutical; Metabolite; Transformation_product
Formula: C17H27NO3
Exact mass: 293.1991
SMILES: C[N+](C)(CC(c1ccc(cc1)OC)C2(CCCCC2)O)[O-]
InChI: InChI=1S/C17H27NO3/c1-18(2,20)13-16(17(19)11-5-4-6-12-17)14-7-9-15(21-3)10-8-14/h7-10,16,19H,4-6,11-13H2,1-3H3
Instrument: TripleTOF 5600 SCIEX
Instrument type: LC-ESI-QTOF
Ms type: MS2
Ion mode: POSITIVE
Collision energy: 140
Fragmentation mode: CID
Ionization: ESI
Column name: Zorbax Eclipse Plus C18 2.1 mm x 150 mm, 3.5 um, Agilent
Retention time: 7.246 min
Precursor m/z: 294.2064
Precursor type: [M+H]+
m/z	relative intensity
42.0436	25
44.0584	18
53.0445	30
58.0703	36
60.0507	23
65.0432	203
66.0497	12
75.0273	12
76.0352	56
77.0417	517
78.0495	999
79.0566	90
81.0724	38
89.0398	48
91.0559	141
102.0479	23
103.0534	12
107.0484	18
115.0534	54
121.0648	23
128.0591	20
