Mass spectrum: 2-(5-Chloro-2-methoxyphenyl)-1H-benzimidazole; LC-ESI-QTOF; MS2; 140 V
Name: 2-(5-Chloro-2-methoxyphenyl)-1H-benzimidazole
Class: Pharmaceutical
Formula: C14H11ClN2O
Exact mass: 258.056
SMILES: COc1ccc(cc1c2[nH]c3ccccc3n2)Cl
InChI: InChI=1S/C14H11ClN2O/c1-18-13-7-6-9(15)8-10(13)14-16-11-4-2-3-5-12(11)17-14/h2-8H,1H3,(H,16,17)
Instrument: TripleTOF 5600 SCIEX
Instrument type: LC-ESI-QTOF
Ms type: MS2
Ion mode: POSITIVE
Collision energy: 140
Fragmentation mode: CID
Ionization: ESI
Column name: Zorbax Eclipse Plus C18 2.1 mm x 150 mm, 3.5 um, Agilent
Retention time: 7.374 min
Precursor m/z: 259.0633
Precursor type: [M+H]+
m/z	relative intensity
52.0235	107
60.0058	80
61.0292	62
64.0321	142
65.0438	294
66.0388	62
72.9866	53
73.01	124
74.0178	999
75.0266	749
76.021	294
76.0337	142
77.0407	276
87.0294	53
89.0412	62
98.0158	169
99.0091	35
99.0234	124
100.02	44
101.038	35
102.0344	71
103.0402	35
114.0334	53
125.0408	62
126.0464	80
127.0568	44
151.043	71
152.0479	71
