Mass spectrum: Cyprodinil; LC-ESI-QTOF; MS2; 80 V
Name: Cyprodinil
Class: Fungicide
Formula: C14H15N3
Exact mass: 225.1266
SMILES: CC1=CC(=NC(=N1)NC2=CC=CC=C2)C3CC3
InChI: InChI=1S/C14H15N3/c1-10-9-13(11-7-8-11)17-14(15-10)16-12-5-3-2-4-6-12/h2-6,9,11H,7-8H2,1H3,(H,15,16,17)
Instrument: TripleTOF 6600 SCIEX
Instrument type: LC-ESI-QTOF
Ms type: MS2
Ion mode: POSITIVE
Collision energy: 80
Fragmentation mode: CID
Ionization: ESI
Column name: Zorbax Eclipse Plus C18 2.1 mm x 150 mm, 3.5 um, Agilent
Retention time: 10.83 min
Precursor m/z: 226.1339
Precursor type: [M+H]+
m/z	relative intensity
37.007	41
38.015	52
39.023	352
40.0179	9
40.0307	10
41.0263	20
41.0382	80
42.0338	190
44.0494	26
49.0067	54
50.0146	265
51.0229	927
52.0176	26
52.0299	13
53.0384	89
54.0335	37
61.0068	12
62.0148	35
63.0226	178
64.0181	29
64.0302	69
65.0383	707
66.0334	13
66.046	362
67.0288	86
67.0413	155
67.0523	15
68.0492	34
74.0144	15
75.0228	49
76.0172	13
76.0305	27
77.0383	999
78.0333	124
78.0461	17
79.0537	60
80.0491	150
81.0569	17
87.022	9
88.0301	9
89.0378	116
90.0329	31
90.0453	20
91.0415	97
91.0532	215
92.0488	304
93.0567	456
94.0645	21
102.0321	23
103.0416	24
104.0486	83
105.0434	38
106.0649	83
107.0592	10
107.0724	13
113.0382	27
114.046	12
115.0534	80
116.0485	23
117.0446	21
117.0564	15
118.0515	68
126.0444	18
127.0533	37
128.0486	18
129.0445	20
130.0396	17
131.0595	99
138.0456	23
139.0524	119
140.0483	83
141.0563	18
143.0629	13
151.0526	13
152.0605	17
153.057	15
154.0632	26
155.058	26
163.0549	12
164.0491	49
165.0564	29
166.0633	48
167.0726	12
168.0689	20
169.0743	13
178.065	12
179.0648	17
180.0804	17
181.0748	20
182.0698	12
183.0779	17
190.063	10
191.0602	23
192.0673	54
193.0756	17
205.0744	54
206.0819	23
207.0926	12
