Mass spectrum: Carbadox; LC-ESI-QTOF; MS2; 80 V
Name: Carbadox
Class: Antimicrobial; Pharmaceutical
Formula: C11H10N4O4
Exact mass: 262.0702
SMILES: COC(=O)N=NC=C1C=[N+]([O-])c2ccccc2N1O
InChI: InChI=1S/C11H10N4O4/c1-19-11(16)13-12-6-8-7-14(17)9-4-2-3-5-10(9)15(8)18/h2-7,18H,1H3
Instrument: TripleTOF 5600 SCIEX
Instrument type: LC-ESI-QTOF
Ms type: MS2
Ion mode: POSITIVE
Collision energy: 80
Fragmentation mode: CID
Ionization: ESI
Column name: Zorbax Eclipse Plus C18 2.1 mm x 150 mm, 3.5 um, Agilent
Retention time: 5.823 min
Precursor m/z: 263.0775
Precursor type: [M+H]+
m/z	relative intensity
51.0287	364
52.0217	38
52.0344	20
63.0667	17
65.0286	24
65.0425	58
69.0106	24
73.0109	17
74.0173	173
75.025	662
76.0207	107
76.0325	537
76.0582	17
77.0402	461
77.0664	31
78.0345	58
88.0174	17
88.0305	17
89.0256	83
89.0383	55
90.0345	277
90.0582	13
91.042	97
101.0379	34
102.0335	999
103.0406	388
104.0496	31
105.0441	24
114.032	27
115.0386	27
116.0355	176
118.0497	17
128.0494	31
129.0426	97
130.039	149
142.0501	24
143.047	27
155.0455	24
