Mass spectrum: Linezolid; LC-ESI-QTOF; MS2; 120 V
Name: Linezolid
Class: Pharmaceutical
Formula: C16H20FN3O4
Exact mass: 337.1438
SMILES: CC(=O)NCC1CN(C(=O)O1)C2=CC(=C(C=C2)N3CCOCC3)F
InChI: InChI=1S/C16H20FN3O4/c1-11(21)18-9-13-10-20(16(22)24-13)12-2-3-15(14(17)8-12)19-4-6-23-7-5-19/h2-3,8,13H,4-7,9-10H2,1H3,(H,18,21)
Instrument: TripleTOF 5600 SCIEX
Instrument type: LC-ESI-QTOF
Ms type: MS2
Ion mode: POSITIVE
Collision energy: 120
Fragmentation mode: CID
Ionization: ESI
Column name: Zorbax Eclipse Plus C18 2.1 mm x 150 mm, 3.5 um, Agilent
Retention time: 6.936 min
Precursor m/z: 338.1511
Precursor type: [M+H]+
m/z	relative intensity
43.0183	84
50.0159	65
51.0239	141
56.0493	216
57.014	141
62.0159	84
63.0238	273
65.0383	47
70.022	47
73.0092	47
74.0159	292
75.023	631
76.0186	65
76.0314	65
77.0381	376
78.0332	94
81.014	179
82.0212	103
83.0296	405
84.0366	84
88.0312	94
89.0391	442
90.0346	84
90.047	65
91.0539	103
94.0225	84
95.03	490
96.0358	113
98.0414	56
100.0186	56
101.0385	424
102.0339	141
103.0557	56
104.0521	113
107.0292	999
108.0232	65
108.0366	395
109.0451	480
110.0402	103
111.0483	65
113.0394	47
114.0338	94
115.0527	245
116.0491	75
117.0548	122
118.0667	47
120.0389	141
122.0419	216
123.046	56
126.0359	84
128.0502	169
129.0491	75
130.0631	84
131.0638	47
133.0451	122
134.04	84
135.048	226
136.0563	122
140.0507	65
141.0587	65
142.0653	56
146.0407	160
148.0556	442
149.0518	47
154.0581	37
