Mass spectrum: Losartan; LC-ESI-QTOF; MS2; 50 V
Name: Losartan
Class: Pharmaceutical
Formula: C22H23ClN6O
Exact mass: 422.1622
SMILES: CCCCc1nc(c(n1Cc2ccc(cc2)c3ccccc3c4n[nH]nn4)CO)Cl
InChI: InChI=1S/C22H23ClN6O/c1-2-3-8-20-24-21(23)19(14-30)29(20)13-15-9-11-16(12-10-15)17-6-4-5-7-18(17)22-25-27-28-26-22/h4-7,9-12,30H,2-3,8,13-14H2,1H3,(H,25,26,27,28)
Instrument: TripleTOF 5600 SCIEX
Instrument type: LC-ESI-QTOF
Ms type: MS2
Ion mode: POSITIVE
Collision energy: 50
Fragmentation mode: CID
Ionization: ESI
Column name: Zorbax Eclipse Plus C18 2.1 mm x 150 mm, 3.5 um, Agilent
Retention time: 9.819 min
Precursor m/z: 423.1695
Precursor type: [M+H]+
m/z	relative intensity
77.0411	16
79.057	11
80.0518	16
129.0227	17
129.0442	16
135.0914	12
140.0501	19
142.0285	63
151.0541	36
152.0626	58
153.0697	90
163.0535	21
165.0694	59
166.0698	21
167.0724	30
171.0682	134
178.0667	156
179.0731	131
180.0807	648
190.0651	235
191.0723	55
192.0754	335
205.0765	280
206.0841	486
207.0916	999
214.065	28
216.0816	14
231.0914	12
241.0756	77
242.0831	13
243.0915	18
258.103	37
281.094	25
282.1005	11
