Mass spectrum: Repaglinide; LC-ESI-QTOF; MS2; 130 V
Name: Repaglinide
Class: Pharmaceutical
Formula: C27H36N2O4
Exact mass: 452.2675
SMILES: CCOc1cc(CC(=O)N[C@@H](CC(C)C)c2ccccc2N3CCCCC3)ccc1C(O)=O
InChI: InChI=1S/C27H36N2O4/c1-4-33-25-17-20(12-13-22(25)27(31)32)18-26(30)28-23(16-19(2)3)21-10-6-7-11-24(21)29-14-8-5-9-15-29/h6-7,10-13,17,19,23H,4-5,8-9,14-16,18H2,1-3H3,(H,28,30)(H,31,32)/t23-/m0/s1
Instrument: TripleTOF 5600 SCIEX
Instrument type: LC-ESI-QTOF
Ms type: MS2
Ion mode: POSITIVE
Collision energy: 130
Fragmentation mode: CID
Ionization: ESI
Column name: Zorbax Eclipse Plus C18 2.1 mm x 150 mm, 3.5 um, Agilent
Retention time: 10.348 min
Precursor m/z: 453.2748
Precursor type: [M+H]+
m/z	relative intensity
44.0573	19
65.0435	102
77.0421	199
79.0572	33
86.0983	13
89.0405	82
90.0484	116
91.057	419
93.0577	11
102.0474	11
103.055	118
104.05	12
105.0336	18
105.0705	19
106.0658	66
115.0546	117
116.0556	32
117.0588	410
118.0656	152
120.0806	10
127.0541	37
128.052	75
129.0648	25
130.0661	999
131.0732	92
132.0808	37
142.0653	25
143.0733	161
144.0813	357
146.0962	11
156.0809	28
157.0882	28
158.0971	113
170.0969	25
172.1128	71
