Mass spectrum: Tiapride; LC-ESI-QTOF; MS2; 30 V
Name: Tiapride
Class: Pharmaceutical
Formula: C15H24N2O4S
Exact mass: 328.1457
SMILES: CCN(CC)CCNC(=O)C1=C(C=CC(=C1)S(=O)(=O)C)OC
InChI: InChI=1S/C15H24N2O4S/c1-5-17(6-2)10-9-16-15(18)13-11-12(22(4,19)20)7-8-14(13)21-3/h7-8,11H,5-6,9-10H2,1-4H3,(H,16,18)
Instrument: TripleTOF 5600 SCIEX
Instrument type: LC-ESI-QTOF
Ms type: MS2
Ion mode: POSITIVE
Collision energy: 30
Fragmentation mode: CID
Ionization: ESI
Column name: Zorbax Eclipse Plus C18 2.1 mm x 150 mm, 3.5 um, Agilent
Retention time: 4.856 min
Precursor m/z: 329.153
Precursor type: [M+H]+
m/z	relative intensity
74.1023	18
100.1138	17
177.079	25
212.0382	123
213.022	179
241.0406	16
256.0639	999
329.1539	166
