Mass spectrum: Chloridazon; LC-ESI-QTOF; MS2; 150 V
Name: Chloridazon
Class: Herbicide
Formula: C10H8ClN3O
Exact mass: 221.0356
SMILES: C1=CC=C(C=C1)N2C(=O)C(=C(C=N2)N)Cl
InChI: InChI=1S/C10H8ClN3O/c11-9-8(12)6-13-14(10(9)15)7-4-2-1-3-5-7/h1-6H,12H2
Instrument: TripleTOF 6600 SCIEX
Instrument type: LC-ESI-QTOF
Ms type: MS2
Ion mode: POSITIVE
Collision energy: 150
Fragmentation mode: CID
Ionization: ESI
Column name: Zorbax Eclipse Plus C18 2.1 mm x 150 mm, 3.5 um, Agilent
Retention time: 6.924 min
Precursor m/z: 222.0429
Precursor type: [M+H]+
m/z	relative intensity
35.9994	26
37.0074	105
38.0026	26
38.015	52
39.0105	30
39.023	64
41.0254	15
46.9685	45
47.9758	15
49.0072	380
50.0151	999
51.0103	41
51.0228	309
52.0183	116
53.0123	15
61.0071	64
62.0157	56
63.0232	37
66.0211	18
73.0079	26
74.0144	60
