Mass spectrum: Benzophenone-3; LC-ESI-QTOF; MS2; 80 V
Name: Benzophenone-3
Class: Personal_care_product; Industrial_process
Formula: C14H12O3
Exact mass: 228.0786
SMILES: COc1ccc(c(O)c1)C(=O)c2ccccc2
InChI: InChI=1S/C14H12O3/c1-17-11-7-8-12(13(15)9-11)14(16)10-5-3-2-4-6-10/h2-9,15H,1H3
Instrument: TripleTOF 5600 SCIEX
Instrument type: LC-ESI-QTOF
Ms type: MS2
Ion mode: POSITIVE
Collision energy: 80
Fragmentation mode: CID
Ionization: ESI
Column name: Zorbax Eclipse Plus C18 2.1 mm x 150 mm, 3.5 um, Agilent
Retention time: 13.504 min
Precursor m/z: 229.0859
Precursor type: [M+H]+
m/z	relative intensity
53.0089	22
55.0223	13
65.0429	129
67.0582	10
69.0005	74
77.0419	999
79.0207	19
80.0284	127
88.034	13
89.0405	26
95.051	43
105.0327	19
108.021	111
113.0388	33
114.0467	17
126.0464	13
139.0542	209
151.0544	12
