Mass spectrum: Venlafaxine; LC-ESI-QTOF; MS2; 30 V
Name: Venlafaxine
Class: Pharmaceutical
Formula: C17H27NO2
Exact mass: 277.2042
SMILES: CN(C)CC(c1ccc(cc1)OC)C2(CCCCC2)O
InChI: InChI=1S/C17H27NO2/c1-18(2)13-16(17(19)11-5-4-6-12-17)14-7-9-15(20-3)10-8-14/h7-10,16,19H,4-6,11-13H2,1-3H3
Instrument: TripleTOF 5600 SCIEX
Instrument type: LC-ESI-QTOF
Ms type: MS2
Ion mode: POSITIVE
Collision energy: 30
Fragmentation mode: CID
Ionization: ESI
Column name: Zorbax Eclipse Plus C18 2.1 mm x 150 mm, 3.5 um, Agilent
Retention time: 6.626 min
Precursor m/z: 278.2115
Precursor type: [M+H]+
m/z	relative intensity
58.0722	999
81.0726	11
91.0563	25
107.085	13
121.0654	406
132.0569	11
135.0801	26
147.0808	220
159.0811	57
173.0971	87
178.1231	11
215.1434	164
260.2023	64
278.2125	14
