Mass spectrum: 2-Hydroxycarbamazepine; LC-ESI-QTOF; MS2; 50 V
Name: 2-Hydroxycarbamazepine
Class: Pharmaceutical; Metabolite; Transformation_product-Metabolite
Formula: C15H12N2O2
Exact mass: 252.0899
SMILES: NC(=O)N1c2ccccc2C=Cc3cc(O)ccc13
InChI: InChI=1S/C15H12N2O2/c16-15(19)17-13-4-2-1-3-10(13)5-6-11-9-12(18)7-8-14(11)17/h1-9,18H,(H2,16,19)
Instrument: TripleTOF 5600 SCIEX
Instrument type: LC-ESI-QTOF
Ms type: MS2
Ion mode: POSITIVE
Collision energy: 50
Fragmentation mode: CID
Ionization: ESI
Column name: Zorbax Eclipse Plus C18 2.1 mm x 150 mm, 3.5 um, Agilent
Retention time: 7.476 min
Precursor m/z: 253.0972
Precursor type: [M+H]+
m/z	relative intensity
77.0403	22
89.0397	11
104.0493	9
115.0538	29
117.0564	47
127.0541	15
128.0494	12
129.0695	10
139.0541	33
140.057	39
141.068	16
151.0534	35
152.0616	129
153.0696	129
154.0651	41
155.0808	13
163.0534	21
164.0615	26
165.0695	229
166.065	175
167.0732	999
177.0563	10
178.0646	54
179.072	58
180.0809	557
181.0702	28
181.0876	219
182.068	11
182.0962	193
183.0676	34
189.0563	9
190.0648	187
191.0729	131
192.0803	81
193.0881	119
194.0639	23
195.0678	404
206.0594	35
207.0671	117
208.0754	497
209.0836	421
210.0907	282
