Mass spectrum: Salicylamide; LC-ESI-QTOF; MS2; 40 V
Name: Salicylamide
Formula: C7H7NO2
Exact mass: 137.0477
SMILES: C1=CC=C(C(=C1)C(=O)N)O
InChI: InChI=1S/C7H7NO2/c8-7(10)5-3-1-2-4-6(5)9/h1-4,9H,(H2,8,10)
Instrument: TripleTOF X500R SCIEX
Instrument type: LC-ESI-QTOF
Ms type: MS2
Ion mode: POSITIVE
Collision energy: 40
Fragmentation mode: CID
Ionization: ESI
Column name: Zorbax Eclipse Plus C18 2.1 mm x 150 mm, 3.5 um, Agilent
Retention time: 6.236 min
Precursor m/z: 138.055
Precursor type: [M+H]+
m/z	relative intensity
37.007	38
38.0154	34
39.023	421
44.0133	41
51.0235	45
65.0387	932
75.0239	17
77.0392	87
93.034	344
95.0496	27
102.0337	31
121.029	999
138.0575	17
