Mass spectrum: Hydrocodone; LC-ESI-QTOF; MS2; 80 V
Name: Hydrocodone
Class: Pharmaceutical
Formula: C18H21NO3
Exact mass: 299.1521
SMILES: CN1CCC23C4C1CC5=C2C(=C(C=C5)OC)OC3C(=O)CC4
InChI: InChI=1S/C18H21NO3/c1-19-8-7-18-11-4-5-13(20)17(18)22-16-14(21-2)6-3-10(15(16)18)9-12(11)19/h3,6,11-12,17H,4-5,7-9H2,1-2H3
Instrument: TripleTOF 6600 SCIEX
Instrument type: LC-ESI-QTOF
Ms type: MS2
Ion mode: POSITIVE
Collision energy: 80
Fragmentation mode: CID
Ionization: ESI
Column name: Zorbax Eclipse Plus C18 2.1 mm x 150 mm, 3.5 um, Agilent
Retention time: 5.331 min
Precursor m/z: 300.1594
Precursor type: [M+H]+
m/z	relative intensity
44.0487	24
55.0173	12
77.0373	77
78.0447	30
88.0297	10
89.0373	22
91.0526	34
101.0369	19
102.0451	97
103.0533	15
113.0374	32
114.0452	132
115.0533	590
116.0612	27
126.0448	59
127.0527	434
128.0612	999
129.0678	47
131.0492	19
139.0533	90
140.0595	40
141.0332	10
141.0684	290
142.039	26
142.0758	27
143.0462	30
144.0559	26
145.0625	11
150.0469	12
151.0525	85
152.0607	564
153.0687	218
154.077	26
155.0486	299
156.0552	67
157.0623	13
163.0531	18
164.0606	38
165.0684	148
168.0559	36
169.027	27
169.0625	65
170.0351	114
170.0712	17
171.0423	14
171.0788	49
178.077	12
181.0638	60
183.0429	240
184.0486	25
185.058	53
189.069	11
197.0577	16
198.0659	24
199.0733	19
