Mass spectrum: Sethoxydim; LC-ESI-QTOF; MS2; 50 V
Name: Sethoxydim
Class: Herbicide
Formula: C17H29NO3S
Exact mass: 327.1868
SMILES: CCCC(=C1C(=O)CC(CC1=O)CC(C)SCC)NOCC
InChI: InChI=1S/C17H29NO3S/c1-5-8-14(18-21-6-2)17-15(19)10-13(11-16(17)20)9-12(4)22-7-3/h12-13,18H,5-11H2,1-4H3
Instrument: TripleTOF 5600 SCIEX
Instrument type: LC-ESI-QTOF
Ms type: MS2
Ion mode: POSITIVE
Collision energy: 50
Fragmentation mode: CID
Ionization: ESI
Column name: Zorbax Eclipse Plus C18 2.1 mm x 150 mm, 3.5 um, Agilent
Retention time: 16.132 min
Precursor m/z: 328.1941
Precursor type: [M+H]+
m/z	relative intensity
67.0565	214
79.0571	214
82.0682	214
91.0543	249
105.068	428
107.0485	642
110.0598	499
112.0758	392
115.0531	285
122.0939	214
133.0653	285
136.0744	214
150.0898	285
161.0585	392
163.0743	428
178.0854	713
180.1004	999
