Mass spectrum: 2-isopropyl-5,6-dimethyl-1H-benzimidazole; LC-ESI-QTOF; MS2; 140 V
Name: 2-isopropyl-5,6-dimethyl-1H-benzimidazole
Formula: C12H16N2
Exact mass: 188.1313
SMILES: CC1=CC2=C(C=C1C)N=C(N2)C(C)C
InChI: InChI=1S/C12H16N2/c1-7(2)12-13-10-5-8(3)9(4)6-11(10)14-12/h5-7H,1-4H3,(H,13,14)
Instrument: TripleTOF 6600 SCIEX
Instrument type: LC-ESI-QTOF
Ms type: MS2
Ion mode: POSITIVE
Collision energy: 140
Fragmentation mode: CID
Ionization: ESI
Column name: Zorbax Eclipse Plus C18 2.1 mm x 150 mm, 3.5 um, Agilent
Retention time: 6.482 min
Precursor m/z: 189.1386
Precursor type: [M+H]+
m/z	relative intensity
35.9992	35
37.0068	195
38.0021	17
38.0145	144
39.0225	359
41.0382	15
49.0066	162
50.0148	999
51.0226	852
52.0172	67
52.0301	15
59.9992	17
61.0063	106
62.014	169
63.0221	159
64.0171	10
65.0372	44
73.0061	30
74.0139	153
75.0086	30
75.0217	28
76.017	30
77.0371	103
78.0335	10
89.0358	38
91.0521	15
