Mass spectrum: Oxytetracycline; LC-ESI-QTOF; MS2; 40 V
Name: Oxytetracycline
Class: Pharmaceutical
Formula: C22H24N2O9
Exact mass: 460.1482
SMILES: CC1(C2C(C3C(C(=O)C(=C(C3(C(=O)C2=C(C4=C1C=CC=C4O)O)O)O)C(=O)N)N(C)C)O)O
InChI: InChI=1S/C22H24N2O9/c1-21(32)7-5-4-6-8(25)9(7)15(26)10-12(21)17(28)13-14(24(2)3)16(27)11(20(23)31)19(30)22(13,33)18(10)29/h4-6,12-14,17,25-26,28,30,32-33H,1-3H3,(H2,23,31)
Instrument: TripleTOF 5600 SCIEX
Instrument type: LC-ESI-QTOF
Ms type: MS2
Ion mode: POSITIVE
Collision energy: 40
Fragmentation mode: CID
Ionization: ESI
Column name: Zorbax Eclipse Plus C18 2.1 mm x 150 mm, 3.5 um, Agilent
Retention time: 5.586 min
Precursor m/z: 461.1555
Precursor type: [M+H]+
m/z	relative intensity
86.0618	17
98.0587	64
126.053	45
151	13
152.0691	11
154.0486	196
173.0588	10
180.0652	29
187.0744	17
196.0602	19
198.0758	41
201.0533	407
208.0577	95
211.0752	10
212.049	14
213.0528	74
226.0701	164
239.0686	62
242.0571	13
251.0695	10
255.062	13
257.0414	26
258.0523	17
263.0687	29
266.0541	16
267.0629	95
268.032	30
269.0799	10
273.0737	46
279.0639	39
281.0762	11
283.058	316
285.0727	36
291.0607	45
295.0589	27
297.0855	32
307.0593	111
309.0718	32
312.1181	58
317.0437	27
319.0585	39
321.0494	10
322.0478	45
325.0652	21
334.1052	14
335.0516	171
337.069	613
350.0407	193
350.0985	14
353.0648	41
362.1031	21
363.0472	115
365.0639	509
376.0822	14
380.1115	52
381.0588	410
390.0962	30
393.0869	19
408.1035	158
426.1165	999
444.1245	41
