Mass spectrum: 2-Amino-5-methyl-1,3,4-thiadiazole; LC-ESI-QTOF; MS2; 90 V
Name: 2-Amino-5-methyl-1,3,4-thiadiazole
Class: Industrial_process
Formula: C3H5N3S
Exact mass: 115.0204
SMILES: CC1=NN=C(S1)N
InChI: InChI=1S/C3H5N3S/c1-2-5-6-3(4)7-2/h1H3,(H2,4,6)
Instrument: TripleTOF 6600 SCIEX
Instrument type: LC-ESI-QTOF
Ms type: MS2
Ion mode: POSITIVE
Collision energy: 90
Fragmentation mode: CID
Ionization: ESI
Column name: Zorbax Eclipse Plus C18 2.1 mm x 150 mm, 3.5 um, Agilent
Retention time: 2.467 min
Precursor m/z: 116.0277
Precursor type: [M+H]+
m/z	relative intensity
31.9706	157
32.9784	48
41.0126	19
42.0205	133
42.0327	37
43.0285	999
43.9706	52
44.9784	36
45.9736	148
46.9814	96
47.9891	66
57.9731	19
57.9864	30
58.9813	37
58.9937	29
59.9892	256
