Mass spectrum: Metolachlor OA; LC-ESI-QTOF; MS2; 40 V
Name: Metolachlor OA
Class: Herbicide; Transformation_product-Metabolite
Formula: C15H21NO4
Exact mass: 279.1471
SMILES: CCC1=CC=CC(=C1N(C(C)COC)C(=O)C(=O)O)C
InChI: InChI=1S/C15H21NO4/c1-5-12-8-6-7-10(2)13(12)16(11(3)9-20-4)14(17)15(18)19/h6-8,11H,5,9H2,1-4H3,(H,18,19)
Instrument: TripleTOF 5600 SCIEX
Instrument type: LC-ESI-QTOF
Ms type: MS2
Ion mode: POSITIVE
Collision energy: 40
Fragmentation mode: CID
Ionization: ESI
Column name: Zorbax Eclipse Plus C18 2.1 mm x 150 mm, 3.5 um, Agilent
Retention time: 9.915 min
Precursor m/z: 280.1543
Precursor type: [M+H]+
m/z	relative intensity
73.0686	209
77.0427	59
91.0563	369
93.0722	89
103.0573	39
104.0607	49
105.0715	79
106.065	89
108.0816	39
115.0532	39
117.0688	229
118.0667	199
119.0847	249
120.0801	99
129.0687	99
130.064	219
131.0737	839
132.0818	329
133.0889	329
134.0959	409
142.065	89
144.0805	649
145.0894	159
146.0962	999
147.104	99
148.1122	679
158.0961	39
159.1041	59
160.0746	49
160.1111	209
162.0929	119
174.1261	59
176.144	289
184.1087	49
202.1225	109
220.1327	109
248.1281	509
