Mass spectrum: 16alpha-hydroxyestrone; LC-ESI-QTOF; MS2; 40 V
Name: 16alpha-hydroxyestrone
Class: Pharmaceutical; Metabolite
Formula: C18H22O3
Exact mass: 286.1569
SMILES: C[C@]12CC[C@@H]3[C@H](CCc4cc(O)ccc34)[C@H]1C[C@@H](O)C2=O
InChI: InChI=1S/C18H22O3/c1-18-7-6-13-12-5-3-11(19)8-10(12)2-4-14(13)15(18)9-16(20)17(18)21/h3,5,8,13-16,19-20H,2,4,6-7,9H2,1H3/t13-,14-,15+,16+,18-/m0/s1
Instrument: TripleTOF 5600 SCIEX
Instrument type: LC-ESI-QTOF
Ms type: MS2
Ion mode: POSITIVE
Collision energy: 40
Fragmentation mode: CID
Ionization: ESI
Column name: Zorbax Eclipse Plus C18 2.1 mm x 150 mm, 3.5 um, Agilent
Retention time: 8.67 min
Precursor m/z: 287.1642
Precursor type: [M+H]+
m/z	relative intensity
43.027	25
55.0598	15
57.0385	33
67.0586	50
69.073	16
75.0461	10
77.0419	67
79.0573	90
81.0723	61
91.056	101
93.0709	25
95.0862	34
97.0657	16
103.0549	49
105.0706	249
107.0498	239
107.0828	21
109.0646	33
115.0546	105
116.0618	44
117.0694	31
119.085	20
121.0643	58
123.08	27
127.0541	73
128.0621	76
129.0696	83
131.0498	69
131.0834	111
132.057	19
133.0647	999
141.0699	198
142.0776	11
143.0848	26
144.0572	236
145.0648	216
147.0799	64
152.0619	38
153.0694	59
154.0766	16
155.0845	29
157.0647	861
158.0722	54
159.08	767
161.0953	12
165.0696	105
166.0774	36
167.0851	88
169.0674	52
169.099	14
170.072	31
171.0802	159
171.1119	10
172.0876	29
173.0951	58
175.0735	12
176.0624	12
177.0695	58
178.0773	68
179.0853	164
181.065	125
181.0979	32
182.0726	109
183.0801	145
184.0883	65
185.0956	137
189.0708	11
190.0779	14
191.0858	42
193.1008	28
194.0732	110
195.0806	236
196.0883	96
197.0961	277
198.1037	36
199.1117	470
201.1264	10
203.0856	13
205.1005	13
207.0815	46
208.0884	59
209.0961	215
210.1044	33
211.1115	101
213.1271	228
215.1051	11
221.096	69
222.1039	68
223.1111	61
225.1267	103
227.1421	24
233.1315	11
235.1114	20
236.1194	67
241.1574	16
249.1256	15
251.1423	262
269.1511	63
287.1631	24
