Mass spectrum: N-desmethyl-diphenhydramine; LC-ESI-QTOF; MS2; 100 V
Name: N-desmethyl-diphenhydramine
Class: Pharmaceutical; Metabolite; Transformation_product-Metabolite
Formula: C16H19NO
Exact mass: 241.1467
SMILES: CNCCOC(c1ccccc1)c2ccccc2
InChI: InChI=1S/C16H19NO/c1-17-12-13-18-16(14-8-4-2-5-9-14)15-10-6-3-7-11-15/h2-11,16-17H,12-13H2,1H3
Instrument: TripleTOF 5600 SCIEX
Instrument type: LC-ESI-QTOF
Ms type: MS2
Ion mode: POSITIVE
Collision energy: 100
Fragmentation mode: CID
Ionization: ESI
Column name: Zorbax Eclipse Plus C18 2.1 mm x 150 mm, 3.5 um, Agilent
Retention time: 7.557 min
Precursor m/z: 242.1539
Precursor type: [M+H]+
m/z	relative intensity
51.0285	29
65.0435	122
74.0184	96
75.0256	57
76.0338	122
77.0413	120
78.0498	97
86.0182	43
87.0248	71
88.0356	9
89.0404	308
91.0561	46
98.0157	46
99.0229	27
100.0315	21
101.0401	20
102.0472	247
111.0234	13
113.0395	75
114.047	15
115.0543	813
125.0389	48
126.0461	317
127.0547	96
128.0628	156
137.0378	29
138.0461	29
139.0539	487
141.0725	12
149.0366	27
150.047	381
151.0546	442
152.062	315
161.038	12
162.0444	77
163.0544	887
164.062	666
165.0698	999
