Mass spectrum: Oxazepam; LC-ESI-QTOF; MS2; 150 V
Name: Oxazepam
Class: Pharmaceutical
Formula: C15H11ClN2O2
Exact mass: 286.0509
SMILES: C1=CC=C(C=C1)C2=NC(C(=O)NC3=C2C=C(C=C3)Cl)O
InChI: InChI=1S/C15H11ClN2O2/c16-10-6-7-12-11(8-10)13(9-4-2-1-3-5-9)18-15(20)14(19)17-12/h1-8,15,20H,(H,17,19)
Instrument: TripleTOF 6600 SCIEX
Instrument type: LC-ESI-QTOF
Ms type: MS2
Ion mode: POSITIVE
Collision energy: 150
Fragmentation mode: CID
Ionization: ESI
Column name: Zorbax Eclipse Plus C18 2.1 mm x 150 mm, 3.5 um, Agilent
Retention time: 9.314 min
Precursor m/z: 287.0582
Precursor type: [M+H]+
m/z	relative intensity
37.0075	61
38.0146	42
39.0231	78
46.9676	27
48.9836	25
49.007	197
50.0151	955
51.023	999
52.018	51
52.0304	13
59.9992	17
60.9836	12
61.0072	115
61.9785	31
62.0151	187
63.0227	304
64.0179	51
64.0301	23
65.0253	14
65.0381	77
66.0455	19
71.9988	17
72.9841	116
73.0067	205
74.0149	687
75.0106	72
75.0222	171
76.0174	32
76.0305	43
77.0384	125
84.9836	17
85.0065	38
86.0152	101
87.0218	78
88.0179	25
88.0286	20
89.0387	67
90.0332	21
91.0407	17
97.0073	24
98.0149	191
99.0103	424
100.0051	20
100.0179	57
100.0307	14
102.0451	13
109.0064	21
110.0144	44
111.022	21
113.0381	70
114.0337	20
115.0543	16
122.0148	61
123.0091	10
123.0215	23
124.0296	17
125.0391	14
126.0473	27
137.038	35
138.0444	29
139.053	62
140.0494	48
149.0384	25
150.0461	82
151.0529	13
164.0498	53
165.0481	17
175.0421	10
176.0501	10
191.0604	10
