Mass spectrum: 2-(3-Hydroxyquinolin-2-yl)indene-1,3-dione; LC-ESI-QTOF; MS2; 120 V
Name: 2-(3-Hydroxyquinolin-2-yl)indene-1,3-dione
Class: Industrial_process; Personal_care_product; Pigment
Formula: C18H11NO3
Exact mass: 289.0739
SMILES: C1=CC=C2C(=C1)C=C(C(=N2)C3C(=O)C4=CC=CC=C4C3=O)O
InChI: InChI=1S/C18H11NO3/c20-14-9-10-5-1-4-8-13(10)19-16(14)15-17(21)11-6-2-3-7-12(11)18(15)22/h1-9,15,20H
Instrument: TripleTOF 6600 SCIEX
Instrument type: LC-ESI-QTOF
Ms type: MS2
Ion mode: POSITIVE
Collision energy: 120
Fragmentation mode: CID
Ionization: ESI
Column name: Zorbax Eclipse Plus C18 2.1 mm x 150 mm, 3.5 um, Agilent
Retention time: 14.718 min
Precursor m/z: 290.0812
Precursor type: [M+H]+
m/z	relative intensity
39.023	161
50.0156	386
51.0235	902
61.0073	257
62.0144	451
63.0235	999
74.0157	386
75.0227	322
77.0382	644
86.0147	193
87.0233	322
89.0386	708
98.0147	354
102.0463	128
103.0554	128
110.0163	161
111.0228	128
113.039	354
137.0373	225
139.0551	193
149.0389	161
150.0467	290
151.0542	322
161.0381	418
162.0447	257
163.0535	547
174.0427	128
175.0517	225
176.0623	483
185.0402	418
186.0459	676
187.0534	934
188.0492	418
201.0584	161
212.0501	515
213.0574	354
214.066	322
