Mass spectrum: 4'-O-Demethyl pantoprazole sulfide; LC-ESI-QTOF; MS2; 120 V
Name: 4'-O-Demethyl pantoprazole sulfide
Class: Pharmaceutical; Transformation_product-Metabolite
Formula: C15H13F2N3O3S
Exact mass: 353.0646
SMILES: COC1=C(NC=CC1=O)CSC2=NC3=C(N2)C=C(C=C3)OC(F)F
InChI: InChI=1S/C15H13F2N3O3S/c1-22-13-11(18-5-4-12(13)21)7-24-15-19-9-3-2-8(23-14(16)17)6-10(9)20-15/h2-6,14H,7H2,1H3,(H,18,21)(H,19,20)
Instrument: TripleTOF 6600 SCIEX
Instrument type: LC-ESI-QTOF
Ms type: MS2
Ion mode: POSITIVE
Collision energy: 120
Fragmentation mode: CID
Ionization: ESI
Column name: Zorbax Eclipse Plus C18 2.1 mm x 150 mm, 3.5 um, Agilent
Retention time: 7.57 min
Precursor m/z: 354.0719
Precursor type: [M+H]+
m/z	relative intensity
35.9993	13
37.0068	181
38.0145	178
39.0224	833
40.0183	13
40.0305	11
41.0251	189
41.0375	16
42.0333	313
43.0173	68
44.0122	44
44.9783	22
50.0147	24
51.0224	115
52.017	110
52.0287	33
53.0016	151
53.0378	999
54.0326	85
55.0172	93
57.9865	19
61.006	22
62.0141	63
63.0218	388
64.0167	121
64.0278	13
65.0375	145
66.0086	396
66.0317	112
66.0438	22
67.0168	261
67.0402	302
68.0116	148
68.0491	16
68.9774	13
70.0285	71
70.9942	88
72.001	19
76.0174	16
78.032	90
79.0404	60
80.0105	22
80.0484	357
81.032	121
82.0274	27
83.0353	63
86.0027	35
90.0326	79
91.0415	57
92.0488	118
93.0551	13
94.0274	195
95.0344	88
96.0428	74
98.0045	35
99.0115	22
105.0422	11
106.0539	13
107.0599	22
108.0447	44
109.051	16
110.0595	13
111.0304	19
117.0431	55
118.0493	71
120.0425	13
125.9998	233
134.0439	19
135.0507	19
136.0379	77
137.0208	11
159.0525	16
