Mass spectrum: Dimethachlor; LC-ESI-QTOF; MS2; 60 V
Name: Dimethachlor
Class: Herbicide
Formula: C13H18ClNO2
Exact mass: 255.1026
SMILES: CC1=C(C(=CC=C1)C)N(CCOC)C(=O)CCl
InChI: InChI=1S/C13H18ClNO2/c1-10-5-4-6-11(2)13(10)15(7-8-17-3)12(16)9-14/h4-6H,7-9H2,1-3H3
Instrument: TripleTOF 6600 SCIEX
Instrument type: LC-ESI-QTOF
Ms type: MS2
Ion mode: POSITIVE
Collision energy: 60
Fragmentation mode: CID
Ionization: ESI
Column name: Zorbax Eclipse Plus C18 2.1 mm x 150 mm, 3.5 um, Agilent
Retention time: 10.992 min
Precursor m/z: 256.1099
Precursor type: [M+H]+
m/z	relative intensity
46.9686	29
48.9843	328
50.0159	29
51.0233	128
59.0498	11
65.0386	32
76.9788	32
77.039	999
78.047	29
79.0544	624
89.0404	13
90.0476	29
91.0544	330
93.0695	32
102.0471	16
103.0544	440
104.0615	25
105.0464	34
105.07	606
106.0654	43
106.0769	34
107.0723	48
107.0841	25
115.0546	57
116.0618	45
117.0573	507
118.0653	330
119.0729	16
119.0855	36
120.0801	75
121.0631	11
121.0871	11
122.097	16
128.06	11
129.0699	11
130.0647	149
131.0728	186
132.0446	11
132.0806	537
133.0882	149
134.0957	34
144.081	50
146.096	96
147.0678	13
148.1119	153
158.0935	13
174.0907	11
