Mass spectrum: Indigo; LC-ESI-QTOF; MS2; 40 V
Name: Indigo
Formula: C16H10N2O2
Exact mass: 262.0742
SMILES: C1=CC=C2C(=C1)C(=C(N2)C3=NC4=CC=CC=C4C3=O)O
InChI: InChI=1S/C16H10N2O2/c19-15-9-5-1-3-7-11(9)17-13(15)14-16(20)10-6-2-4-8-12(10)18-14/h1-8,17,19H
Instrument: TripleTOF X500R SCIEX
Instrument type: LC-ESI-QTOF
Ms type: MS2
Ion mode: POSITIVE
Collision energy: 40
Fragmentation mode: CID
Ionization: ESI
Column name: Zorbax Eclipse Plus C18 2.1 mm x 150 mm, 3.5 um, Agilent
Retention time: 11.892 min
Precursor m/z: 263.0815
Precursor type: [M+H]+
m/z	relative intensity
51.0236	15
77.0385	70
89.0379	17
102.0334	14
104.0495	47
105.0344	28
116.0499	26
117.0581	15
130.0291	14
131.0313	10
132.0448	192
144.0455	15
152.063	33
157.0429	10
158.0457	12
164.0572	12
165.0698	24
178.0649	10
179.0746	47
180.0814	114
181.0673	10
190.0659	156
191.0733	12
205.0766	118
206.084	278
207.0918	52
208.0767	102
216.0679	38
217.0768	135
218.0598	10
218.0855	75
219.0924	359
233.0721	14
234.0796	211
235.0869	445
236.0712	21
245.0702	21
246.0803	17
262.0748	278
263.0815	999
