Mass spectrum: Bicalutamide; LC-ESI-QTOF; MS2; 110 V
Name: Bicalutamide
Class: Pharmaceutical
Formula: C18H14F4N2O4S
Exact mass: 430.061
SMILES: CC(O)(C[S](=O)(=O)c1ccc(F)cc1)C(=O)Nc2ccc(C#N)c(c2)C(F)(F)F
InChI: InChI=1S/C18H14F4N2O4S/c1-17(26,10-29(27,28)14-6-3-12(19)4-7-14)16(25)24-13-5-2-11(9-23)15(8-13)18(20,21)22/h2-8,26H,10H2,1H3,(H,24,25)
Instrument: TripleTOF 5600 SCIEX
Instrument type: LC-ESI-QTOF
Ms type: MS2
Ion mode: POSITIVE
Collision energy: 110
Fragmentation mode: CID
Ionization: ESI
Column name: Zorbax Eclipse Plus C18 2.1 mm x 150 mm, 3.5 um, Agilent
Retention time: 11.644 min
Precursor m/z: 431.0683
Precursor type: [M+H]+
m/z	relative intensity
43.0261	31
73.0106	27
74.0176	290
75.0257	753
90.0346	31
95.0302	999
95.058	27
100.018	45
113.018	22
115.0002	63
117.043	27
118.0514	31
120.0237	22
123.0357	113
140.0308	22
142.9956	54
150.0132	49
167.0418	140
