Mass spectrum: Carbadox; LC-ESI-QTOF; MS2; 40 V
Name: Carbadox
Class: Antimicrobial; Pharmaceutical
Formula: C11H10N4O4
Exact mass: 262.0702
SMILES: COC(=O)N=NC=C1C=[N+]([O-])c2ccccc2N1O
InChI: InChI=1S/C11H10N4O4/c1-19-11(16)13-12-6-8-7-14(17)9-4-2-3-5-10(9)15(8)18/h2-7,18H,1H3
Instrument: TripleTOF 5600 SCIEX
Instrument type: LC-ESI-QTOF
Ms type: MS2
Ion mode: POSITIVE
Collision energy: 40
Fragmentation mode: CID
Ionization: ESI
Column name: Zorbax Eclipse Plus C18 2.1 mm x 150 mm, 3.5 um, Agilent
Retention time: 5.823 min
Precursor m/z: 263.0775
Precursor type: [M+H]+
m/z	relative intensity
64.0322	14
65.0422	56
74.0162	10
75.0254	56
76.0214	12
76.0323	82
77.0406	350
77.0679	12
78.0354	76
89.0274	16
89.0392	24
90.0356	896
91.0422	54
92.0509	38
102.0338	396
103.0417	539
104.0493	302
105.0439	30
115.0426	20
116.036	138
117.045	30
118.0531	32
119.0605	14
121.0386	12
128.0492	34
129.0445	999
130.0517	678
131.0604	302
142.0521	58
143.048	205
144.0472	18
144.0672	24
145.0394	364
145.0706	30
146.0458	20
147.0558	30
155.0479	78
156.0577	16
157.0633	22
159.0547	159
163.0486	12
170.0585	30
171.0422	286
171.0802	16
172.0495	52
173.0328	12
173.0705	42
175.0487	86
183.068	10
184.0745	14
185.0804	24
187.062	26
188.0451	56
197.0461	165
203.0553	24
229.0715	243
231.0506	265
263.0774	42
