Mass spectrum: Flusilazole; LC-ESI-QTOF; MS2; 90 V
Name: Flusilazole
Class: Fungicide
Formula: C16H15F2N3Si
Exact mass: 315.1003
SMILES: C[Si](CN1C=NC=N1)(C2=CC=C(C=C2)F)C3=CC=C(C=C3)F
InChI: InChI=1S/C16H15F2N3Si/c1-22(12-21-11-19-10-20-21,15-6-2-13(17)3-7-15)16-8-4-14(18)5-9-16/h2-11H,12H2,1H3
Instrument: TripleTOF 6600 SCIEX
Instrument type: LC-ESI-QTOF
Ms type: MS2
Ion mode: POSITIVE
Collision energy: 90
Fragmentation mode: CID
Ionization: ESI
Column name: Zorbax Eclipse Plus C18 2.1 mm x 150 mm, 3.5 um, Agilent
Retention time: 12.729 min
Precursor m/z: 316.1076
Precursor type: [M+H]+
m/z	relative intensity
37.0068	10
39.0224	70
42.9998	13
46.9744	658
50.0142	38
51.0225	217
57.0128	75
59.0286	25
61.0073	23
62.0143	39
63.0057	25
63.0216	135
65.0377	251
72.9892	28
74.014	47
75.0218	116
76.0286	28
77.0379	576
78.0463	17
78.9995	15
79.0527	26
80.9953	98
83.0283	649
86.0135	14
87.0212	29
89.0372	244
90.9803	16
91.0533	103
95.0282	23
96.0361	11
98.0144	21
99.0051	22
99.022	31
101.0376	32
102.0449	57
103.0529	44
105.0135	18
107.0277	31
109.0436	695
113.0367	60
114.0434	12
115.0528	368
120.0347	33
123.0051	184
125.0204	17
125.0368	63
126.0449	120
127.0528	31
128.0598	30
129.0428	12
133.0436	229
137.0375	23
138.0446	29
139.0531	373
144.0354	39
146.0518	58
147.0038	18
149.0196	14
149.0363	37
150.0448	398
151.053	340
152.0607	254
157.0432	101
159.0575	13
161.0372	14
162.0449	87
163.0532	999
164.0606	629
165.0691	628
167.011	11
168.0344	24
169.0434	102
170.0516	226
176.0606	64
177.066	24
178.0764	27
179.0573	13
181.0435	170
182.0511	149
183.059	610
196.0655	23
201.0485	65
