Mass spectrum: Reactive Orange; LC-ESI-QTOF; MS2; 110 V
Name: Reactive Orange
Formula: C20H19N3O11S3
Exact mass: 573.0182
SMILES: CC(=O)NC1=CC2=C(C(=C(C=C2C=C1)S(=O)(=O)O)N=NC3=CC=C(C=C3)S(=O)(=O)CCOS(=O)(=O)O)O
InChI: InChI=1S/C20H19N3O11S3/c1-12(24)21-15-3-2-13-10-18(36(28,29)30)19(20(25)17(13)11-15)23-22-14-4-6-16(7-5-14)35(26,27)9-8-34-37(31,32)33/h2-7,10-11,25H,8-9H2,1H3,(H,21,24)(H,28,29,30)(H,31,32,33)
Instrument: TripleTOF 6600 SCIEX
Instrument type: LC-ESI-QTOF
Ms type: MS2
Ion mode: POSITIVE
Collision energy: 110
Fragmentation mode: CID
Ionization: ESI
Column name: Zorbax Eclipse Plus C18 2.1 mm x 150 mm, 3.5 um, Agilent
Retention time: 5.751 min
Precursor m/z: 574.0255
Precursor type: [M+H]+
m/z	relative intensity
43.0178	14
44.979	15
45.987	10
46.9942	28
53.0379	66
63.0212	15
65.0379	56
68.0127	46
74.9877	12
77.0371	61
80.0488	187
81.0326	841
88.0296	36
89.0385	47
91.0397	29
92.049	77
93.0558	30
102.0306	12
103.04	47
104.0485	146
108.0434	478
114.0327	107
115.0403	226
116.0477	121
117.0551	42
128.0495	20
129.0441	226
130.0523	102
131.0606	169
141.0441	12
142.052	999
143.0575	81
151.0526	30
170.0472	379
171.0555	25
172.0395	17
176.0623	18
177.057	27
178.0653	28
179.0731	12
180.0794	10
188.0494	10
189.0559	11
190.0614	18
193.0776	13
203.0683	20
204.0792	53
205.0745	224
206.0827	67
215.0608	31
216.0661	35
217.0748	25
218.0793	13
220.0864	26
221.0677	11
230.0709	12
231.0774	33
232.0859	152
233.0729	29
233.0933	88
243.0804	14
244.0869	21
260.08	27
261.0883	14
