Mass spectrum: Clopyralid; LC-ESI-QTOF; MS2; 130 V
Name: Clopyralid
Class: Herbicide
Formula: C6H3Cl2NO2
Exact mass: 190.9541
SMILES: C1=CC(=NC(=C1Cl)C(=O)O)Cl
InChI: InChI=1S/C6H3Cl2NO2/c7-3-1-2-4(8)9-5(3)6(10)11/h1-2H,(H,10,11)
Instrument: TripleTOF 6600 SCIEX
Instrument type: LC-ESI-QTOF
Ms type: MS2
Ion mode: POSITIVE
Collision energy: 130
Fragmentation mode: CID
Ionization: ESI
Column name: Zorbax Eclipse Plus C18 2.1 mm x 150 mm, 3.5 um, Agilent
Retention time: 5.727 min
Precursor m/z: 191.9614
Precursor type: [M+H]+
m/z	relative intensity
49.007	482
50.0153	206
61.9783	241
74.001	413
75.0091	999
76.0147	137
83.9748	482
