Mass spectrum: Thioridazine; LC-ESI-QTOF; MS2; 90 V
Name: Thioridazine
Class: Pharmaceutical
Formula: C21H26N2S2
Exact mass: 370.1537
SMILES: CN1CCCCC1CCN2C3=CC=CC=C3SC4=C2C=C(C=C4)SC
InChI: InChI=1S/C21H26N2S2/c1-22-13-6-5-7-16(22)12-14-23-18-8-3-4-9-20(18)25-21-11-10-17(24-2)15-19(21)23/h3-4,8-11,15-16H,5-7,12-14H2,1-2H3
Instrument: TripleTOF 5600 SCIEX
Instrument type: LC-ESI-QTOF
Ms type: MS2
Ion mode: POSITIVE
Collision energy: 90
Fragmentation mode: CID
Ionization: ESI
Column name: Zorbax Eclipse Plus C18 2.1 mm x 150 mm, 3.5 um, Agilent
Retention time: 9.472 min
Precursor m/z: 371.161
Precursor type: [M+H]+
m/z	relative intensity
42.0441	133
44.0578	25
55.0599	71
57.0638	10
58.0717	150
67.058	20
68.0537	69
70.0702	653
82.0676	32
83.075	28
84.0834	48
96.0822	37
98.0989	999
115.0534	14
126.1282	68
139.0543	73
140.0499	19
150.0473	16
151.0549	58
152.0581	32
153.0578	56
154.0639	28
166.0656	150
167.0737	703
171.0248	15
177.0577	34
178.0653	175
179.0727	106
180.0797	10
183.026	23
184.0327	13
185.0274	13
186.0367	64
197.031	22
198.0371	45
199.0458	62
204.0798	27
209.0309	62
210.037	132
211.045	195
223.0445	12
226.0666	14
242.0088	22
