Mass spectrum: Bromacil; LC-ESI-QTOF; MS2; 40 V
Name: Bromacil
Class: Herbicide
Formula: C9H13BrN2O2
Exact mass: 260.016
SMILES: CCC(C)N1C(=O)C(=C(NC1=O)C)Br
InChI: InChI=1S/C9H13BrN2O2/c1-4-5(2)12-8(13)7(10)6(3)11-9(12)14/h5H,4H2,1-3H3,(H,11,14)
Instrument: TripleTOF 6600 SCIEX
Instrument type: LC-ESI-QTOF
Ms type: MS2
Ion mode: POSITIVE
Collision energy: 40
Fragmentation mode: CID
Ionization: ESI
Column name: Zorbax Eclipse Plus C18 2.1 mm x 150 mm, 3.5 um, Agilent
Retention time: 8.493 min
Precursor m/z: 261.0233
Precursor type: [M+H]+
m/z	relative intensity
42.0325	11
52.0166	15
54.0328	79
55.0408	19
69.0065	26
69.991	15
83.0343	33
92.9305	13
97.0384	13
98.0456	19
104.9306	24
105.9275	11
106.9466	33
118.9469	13
131.9423	320
133.9579	61
143.9421	15
161.9525	316
186.9479	134
187.9323	629
204.9594	999
