Mass spectrum: Estrone 3-methyl ether; LC-ESI-QTOF; MS2; 40 V
Name: Estrone 3-methyl ether
Class: Pharmaceutical
Formula: C19H24O2
Exact mass: 284.1776
SMILES: C[C@]12CC[C@@H]3c4ccc(cc4CC[C@H]3[C@@H]1CCC2=O)OC
InChI: InChI=1S/C19H24O2/c1-19-10-9-15-14-6-4-13(21-2)11-12(14)3-5-16(15)17(19)7-8-18(19)20/h4,6,11,15-17H,3,5,7-10H2,1-2H3/t15-,16-,17+,19+/m1/s1
Instrument: TripleTOF 5600 SCIEX
Instrument type: LC-ESI-QTOF
Ms type: MS2
Ion mode: POSITIVE
Collision energy: 40
Fragmentation mode: CID
Ionization: ESI
Column name: Zorbax Eclipse Plus C18 2.1 mm x 150 mm, 3.5 um, Agilent
Retention time: 10.549 min
Precursor m/z: 285.1849
Precursor type: [M+H]+
m/z	relative intensity
65.044	24
77.043	36
79.0573	64
81.0724	64
91.0562	380
93.0695	32
95.0863	60
105.0708	36
107.0492	60
107.0867	36
109.101	24
115.055	165
116.0606	20
117.071	93
119.0849	52
121.0656	97
127.0559	36
128.0611	194
129.0701	44
131.0501	44
132.057	56
135.0808	36
141.0708	72
142.0793	36
143.0823	20
144.0564	72
145.0658	76
146.0754	36
147.0809	999
147.1076	20
152.0624	28
153.0719	56
154.0797	28
155.0881	16
156.0578	32
158.0727	323
159.0799	194
159.1189	32
161.0941	52
165.0709	84
166.0777	24
167.0879	40
168.0906	24
169.0644	24
170.0755	28
171.0804	833
172.092	20
173.0965	578
178.0779	32
179.0872	84
181.068	44
181.1022	40
182.0744	48
183.0803	48
184.0881	40
185.0962	137
186.1028	24
187.1123	40
193.1014	36
194.072	16
195.0804	32
196.0882	76
197.0965	194
198.1034	28
199.1127	129
209.0954	16
210.104	44
211.1119	270
212.1203	84
215.1414	36
225.1264	109
226.1301	28
227.1415	76
238.1383	20
239.1438	20
241.1584	279
267.1751	283
285.183	52
