Mass spectrum: Flumioxazin; LC-ESI-QTOF; MS2; 120 V
Name: Flumioxazin
Class: Herbicide
Formula: C19H15FN2O4
Exact mass: 354.1016
SMILES: C#CCN1c2cc(c(cc2OCC1=O)F)N3C(=O)C4=C(C3=O)CCCC4
InChI: InChI=1S/C19H15FN2O4/c1-2-7-21-15-9-14(13(20)8-16(15)26-10-17(21)23)22-18(24)11-5-3-4-6-12(11)19(22)25/h1,8-9H,3-7,10H2
Instrument: TripleTOF 6600 SCIEX
Instrument type: LC-ESI-QTOF
Ms type: MS2
Ion mode: POSITIVE
Collision energy: 120
Fragmentation mode: CID
Ionization: ESI
Column name: Zorbax Eclipse Plus C18 2.1 mm x 150 mm, 3.5 um, Agilent
Retention time: 11.704 min
Precursor m/z: 355.1089
Precursor type: [M+H]+
m/z	relative intensity
51.022	999
52.0165	99
57.0131	199
65.0347	99
73.0071	99
74.0142	199
75.0087	99
75.0224	799
76.0166	299
76.0278	99
77.0371	999
79.0533	299
81.0132	299
88.0166	99
89.0366	199
96.0228	99
98.0386	99
99.0082	99
99.0195	199
100.0204	99
101.0363	499
107.0272	399
108.0232	99
113.0273	99
116.0466	99
120.0345	99
123.0353	99
124.0204	199
135.0488	99
141.0532	199
145.0435	99
147.0273	199
152.0153	99
164.0559	99
177.0581	199
