Mass spectrum: Losartan carboxylic acid; LC-ESI-QTOF; MS2; 150 V
Name: Losartan carboxylic acid
Class: Pharmaceutical
Formula: C22H21ClN6O2
Exact mass: 436.1415
SMILES: CCCCc1nc(Cl)c(n1Cc2ccc(cc2)c3ccccc3c4n[nH]nn4)C(O)=O
InChI: InChI=1S/C22H21ClN6O2/c1-2-3-8-18-24-20(23)19(22(30)31)29(18)13-14-9-11-15(12-10-14)16-6-4-5-7-17(16)21-25-27-28-26-21/h4-7,9-12H,2-3,8,13H2,1H3,(H,30,31)(H,25,26,27,28)
Instrument: TripleTOF 5600 SCIEX
Instrument type: LC-ESI-QTOF
Ms type: MS2
Ion mode: POSITIVE
Collision energy: 150
Fragmentation mode: CID
Ionization: ESI
Column name: Zorbax Eclipse Plus C18 2.1 mm x 150 mm, 3.5 um, Agilent
Retention time: 10.786 min
Precursor m/z: 437.1487
Precursor type: [M+H]+
m/z	relative intensity
65.0433	18
74.0174	47
75.0255	91
76.0333	39
77.0416	240
78.0488	37
86.0166	33
87.025	61
88.0196	11
88.0331	42
89.04	102
98.0162	44
99.0229	63
100.032	18
101.0389	55
102.0471	102
111.021	25
113.0386	167
114.0341	41
114.0443	42
115.0539	118
125.0386	116
126.0463	256
127.0538	118
128.0483	11
128.0615	61
137.039	131
138.0417	66
139.054	170
140.0502	159
149.0386	69
150.0466	714
151.0545	999
152.0618	692
153.058	45
154.0654	15
161.0378	61
162.0468	128
163.0541	404
164.051	354
165.0697	83
166.0624	11
175.0526	58
176.0618	366
177.0572	222
178.0649	118
179.0607	15
187.0449	17
188.0499	169
189.056	41
190.0645	107
203.0606	20
204.072	17
205.0738	45
