Mass spectrum: 2-Phenylbenzimidazole-5-sulfonic acid; LC-ESI-QTOF; MS2; 80 V
Name: 2-Phenylbenzimidazole-5-sulfonic acid
Class: Personal_care_product
Formula: C13H10N2O3S
Exact mass: 274.0412
SMILES: C1=CC=C(C=C1)C2=NC3=C(N2)C=C(C=C3)S(=O)(=O)O
InChI: InChI=1S/C13H10N2O3S/c16-19(17,18)10-6-7-11-12(8-10)15-13(14-11)9-4-2-1-3-5-9/h1-8H,(H,14,15)(H,16,17,18)
Instrument: TripleTOF 5600 SCIEX
Instrument type: LC-ESI-QTOF
Ms type: MS2
Ion mode: POSITIVE
Collision energy: 80
Fragmentation mode: CID
Ionization: ESI
Column name: Zorbax Eclipse Plus C18 2.1 mm x 150 mm, 3.5 um, Agilent
Retention time: 5.039 min
Precursor m/z: 275.0485
Precursor type: [M+H]+
m/z	relative intensity
52.0278	61
52.0376	38
64.0372	366
65.031	68
65.0436	175
66.0538	30
77.0437	274
81.0361	61
89.043	610
90.0361	68
90.0507	343
91.0465	205
92.0531	38
104.0528	266
113.0397	30
115.0552	144
116.0508	38
117.0568	53
127.0551	106
138.0501	76
139.0552	808
140.0522	533
154.0652	99
164.0503	129
165.0584	152
166.0655	999
167.071	274
168.0754	45
191.0631	137
192.0682	899
193.0748	785
194.0855	61
