Mass spectrum: Picolinafen; LC-ESI-QTOF; MS2; 130 V
Name: Picolinafen
Class: Herbicide
Formula: C19H12F4N2O2
Exact mass: 376.0835
SMILES: C1=CC(=CC(=C1)OC2=CC=CC(=N2)C(=O)NC3=CC=C(C=C3)F)C(F)(F)F
InChI: InChI=1S/C19H12F4N2O2/c20-13-7-9-14(10-8-13)24-18(26)16-5-2-6-17(25-16)27-15-4-1-3-12(11-15)19(21,22)23/h1-11H,(H,24,26)
Instrument: TripleTOF 6600 SCIEX
Instrument type: LC-ESI-QTOF
Ms type: MS2
Ion mode: POSITIVE
Collision energy: 130
Fragmentation mode: CID
Ionization: ESI
Column name: Zorbax Eclipse Plus C18 2.1 mm x 150 mm, 3.5 um, Agilent
Retention time: 15.501 min
Precursor m/z: 377.0908
Precursor type: [M+H]+
m/z	relative intensity
30.9974	11
35.9992	11
37.0064	58
38.0139	40
39.0216	168
50.0133	17
51.0026	74
51.0221	11
57.013	35
61.0061	11
62.0125	11
63.0218	17
68.9928	150
69.0126	47
73.0059	67
74.0137	666
75.0045	211
75.0208	999
81.0104	29
83.0269	17
87.0217	15
92.992	13
95.0092	20
95.0268	300
98.0132	11
99.0021	87
105.0114	17
107.0275	22
113.0374	29
119.0091	29
122.0139	29
123.0292	71
125.017	139
133.0418	20
140.0481	22
145.0257	78
162.0243	22
