Mass spectrum: Food Yellow 3 free acid; LC-ESI-QTOF; MS2; 40 V
Name: Food Yellow 3 free acid
Formula: C16H12N2O7S2
Exact mass: 408.0086
SMILES: C1=CC(=CC=C1N=NC2=C(C=CC3=C2C=CC(=C3)S(=O)(=O)O)O)S(=O)(=O)O
InChI: InChI=1S/C16H12N2O7S2/c19-15-8-1-10-9-13(27(23,24)25)6-7-14(10)16(15)18-17-11-2-4-12(5-3-11)26(20,21)22/h1-9,19H,(H,20,21,22)(H,23,24,25)
Instrument: TripleTOF 6600 SCIEX
Instrument type: LC-ESI-QTOF
Ms type: MS2
Ion mode: NEGATIVE
Collision energy: 40
Fragmentation mode: CID
Ionization: ESI
Column name: Zorbax Eclipse Plus C18 2.1 mm x 150 mm, 3.5 um, Agilent
Retention time: 5.59 min
Precursor m/z: 202.9969
Precursor type: [M-2H]2-
m/z	relative intensity
50.0036	1
63.9619	17
64.0189	2
65.9976	2
79.7095	3
79.957	871
80.9645	13
88.0185	3
89.0264	23
90.0341	21
92.0271	1
93.0334	3
106.7032	2
107.0371	437
108.0401	0
113.0253	0
113.0383	3
113.6795	1
114.0342	317
115.0414	54
116.0127	2
116.0485	1
117.0212	63
118.0286	0
126.0338	1
129.0339	1
130.0412	17
131.0377	1
141.5836	3
142.0292	847
143.036	22
143.9879	16
144.0448	4
145.0283	1
155.4994	0
155.9879	153
156.9958	2
157.5425	0
158.0364	91
159.0307	5
169.9914	1
170.4612	2
170.9988	627
171.9998	0
172.0394	19
179.9869	8
180.4135	2
180.9831	626
181.9865	1
192.9943	2
194.0036	9
205.3427	3
205.9908	999
206.9988	243
220.9901	0
221.9983	2
234.9938	1
236.0019	4
296.0148	0
