Mass spectrum: Flurtamone; LC-ESI-QTOF; MS2; 120 V
Name: Flurtamone
Class: Herbicide
Formula: C18H14F3NO2
Exact mass: 333.0977
SMILES: CNC1=C(C(=O)C(O1)C2=CC=CC=C2)C3=CC(=CC=C3)C(F)(F)F
InChI: InChI=1S/C18H14F3NO2/c1-22-17-14(12-8-5-9-13(10-12)18(19,20)21)15(23)16(24-17)11-6-3-2-4-7-11/h2-10,16,22H,1H3
Instrument: TripleTOF 6600 SCIEX
Instrument type: LC-ESI-QTOF
Ms type: MS2
Ion mode: POSITIVE
Collision energy: 120
Fragmentation mode: CID
Ionization: ESI
Column name: Zorbax Eclipse Plus C18 2.1 mm x 150 mm, 3.5 um, Agilent
Retention time: 11.864 min
Precursor m/z: 334.105
Precursor type: [M+H]+
m/z	relative intensity
42.0338	19
49.0069	23
50.0151	126
51.0228	297
57.0132	10
58.0285	12
62.015	16
63.0228	44
65.0382	17
68.9945	11
74.015	87
75.0222	98
76.0307	49
77.0386	266
78.0461	25
83.0285	11
86.0152	21
87.0226	35
89.0384	65
95.0287	10
98.0151	86
99.0224	56
100.0305	15
101.0384	15
102.0466	93
107.0288	16
110.0147	15
111.0229	16
113.0381	24
115.054	37
122.0145	16
123.0228	15
125.0381	65
126.0469	186
127.054	48
128.0619	65
131.0292	11
133.0449	13
137.0387	27
138.0461	13
139.0543	69
149.0386	76
150.0472	724
151.0545	756
152.0624	284
155.0294	10
157.0445	17
161.0384	26
162.047	24
163.0546	56
168.0371	22
169.0458	20
170.0528	27
174.0469	93
175.0541	154
176.0631	999
177.0699	56
178.0781	27
179.0309	26
179.0604	23
180.0375	26
181.0453	72
185.0393	18
186.0458	24
187.0549	58
194.053	40
196.0679	12
199.0357	33
201.0517	15
203.0298	10
204.0378	27
205.0459	223
206.053	35
207.0613	38
223.0362	38
224.0433	17
225.0516	57
