Mass spectrum: Acridine; LC-ESI-QTOF; MS2; 50 V
Name: Acridine
Class: Industrial_process
Formula: C13H9N
Exact mass: 179.0735
SMILES: c1ccc2nc3ccccc3cc2c1
InChI: InChI=1S/C13H9N/c1-3-7-12-10(5-1)9-11-6-2-4-8-13(11)14-12/h1-9H
Instrument: TripleTOF 5600 SCIEX
Instrument type: LC-ESI-QTOF
Ms type: MS2
Ion mode: POSITIVE
Collision energy: 50
Fragmentation mode: CID
Ionization: ESI
Column name: Zorbax Eclipse Plus C18 2.1 mm x 150 mm, 3.5 um, Agilent
Retention time: 5.776 min
Precursor m/z: 180.0808
Precursor type: [M+H]+
m/z	relative intensity
75.026	19
77.0416	87
101.0395	70
125.0381	18
126.0463	32
127.0547	169
128.0501	177
129.046	17
140.0501	30
141.057	19
150.0465	49
151.0549	390
152.0625	999
153.0629	139
154.0648	53
177.0575	112
178.0658	706
179.0735	832
180.0813	643
