Mass spectrum: Oxazepam; LC-ESI-QTOF; MS2; 110 V
Name: Oxazepam
Class: Pharmaceutical
Formula: C15H11ClN2O2
Exact mass: 286.0509
SMILES: C1=CC=C(C=C1)C2=NC(C(=O)NC3=C2C=C(C=C3)Cl)O
InChI: InChI=1S/C15H11ClN2O2/c16-10-6-7-12-11(8-10)13(9-4-2-1-3-5-9)18-15(20)14(19)17-12/h1-8,15,20H,(H,17,19)
Instrument: TripleTOF 6600 SCIEX
Instrument type: LC-ESI-QTOF
Ms type: MS2
Ion mode: POSITIVE
Collision energy: 110
Fragmentation mode: CID
Ionization: ESI
Column name: Zorbax Eclipse Plus C18 2.1 mm x 150 mm, 3.5 um, Agilent
Retention time: 9.314 min
Precursor m/z: 287.0582
Precursor type: [M+H]+
m/z	relative intensity
37.0076	19
38.0151	13
39.023	43
46.9686	11
48.9836	20
49.0072	90
50.0152	418
51.0231	999
52.0186	33
61.0077	27
61.9794	24
62.0152	56
63.023	211
64.018	38
64.0304	57
65.026	18
65.0384	108
66.0465	121
72.9842	174
73.0071	104
74.0151	405
75.0108	21
75.0229	323
76.0175	24
76.0303	42
77.0386	741
78.0339	16
78.0456	11
84.984	52
86.0146	11
87.0224	24
89.038	41
90.0333	75
91.0416	114
92.0495	35
93.0573	71
98.0143	57
99.0103	487
100.0182	425
101.0378	19
102.0338	15
102.046	32
104.0487	25
105.0439	16
108.9836	19
110.0139	16
110.9986	24
113.0379	50
114.045	20
115.0542	47
116.0379	14
117.0442	11
118.0527	28
123.0229	15
123.9947	31
124.0308	15
125.0015	14
125.039	61
126.0457	74
127.0418	11
127.0532	22
128.0488	16
129.0441	11
137.0394	16
138.0477	23
139.0538	144
140.0496	140
149.038	61
150.0464	374
151.0532	228
152.0613	72
153.057	13
163.0543	17
164.0018	11
164.0515	78
165.0572	42
166.0653	103
167.0732	51
168.068	14
175.042	30
176.0491	43
177.0572	123
178.0661	28
179.0609	13
191.0604	22
192.068	92
193.0761	25
204.0551	14
