Mass spectrum: Tetrapropylammonium; LC-ESI-QTOF; MS2; 10 V
Name: Tetrapropylammonium
Class: Industrial_process
Formula: [C12H28N]+
Exact mass: 186.2216
SMILES: CCC[N+](CCC)(CCC)CCC
InChI: InChI=1S/C12H28N/c1-5-9-13(10-6-2,11-7-3)12-8-4/h5-12H2,1-4H3/q+1
Instrument: TripleTOF 5600 SCIEX
Instrument type: LC-ESI-QTOF
Ms type: MS2
Ion mode: POSITIVE
Collision energy: 10
Fragmentation mode: CID
Ionization: ESI
Column name: Zorbax Eclipse Plus C18 2.1 mm x 150 mm, 3.5 um, Agilent
Retention time: 5.568 min
Precursor m/z: 186.2216
Precursor type: [M]+
m/z	relative intensity
114.128	224
142.1591	52
144.1746	108
186.2226	999
