Mass spectrum: Ampicillin; LC-ESI-QTOF; MS2; 60 V
Name: Ampicillin
Class: Pharmaceutical
Formula: C16H19N3O4S
Exact mass: 349.1096
SMILES: CC1(C)S[C@@H]2[C@H](NC(=O)[C@H](N)c3ccccc3)C(=O)N2[C@H]1C(O)=O
InChI: InChI=1S/C16H19N3O4S/c1-16(2)11(15(22)23)19-13(21)10(14(19)24-16)18-12(20)9(17)8-6-4-3-5-7-8/h3-7,9-11,14H,17H2,1-2H3,(H,18,20)(H,22,23)/t9-,10-,11+,14-/m1/s1
Instrument: TripleTOF 5600 SCIEX
Instrument type: LC-ESI-QTOF
Ms type: MS2
Ion mode: POSITIVE
Collision energy: 60
Fragmentation mode: CID
Ionization: ESI
Column name: Zorbax Eclipse Plus C18 2.1 mm x 150 mm, 3.5 um, Agilent
Retention time: 5.367 min
Precursor m/z: 350.1169
Precursor type: [M+H]+
m/z	relative intensity
68.017	33
70.068	71
74.008	22
77.0411	53
79.0569	329
86.0076	88
87.0277	68
90.0476	30
91.0557	247
94.0668	16
96.0448	24
103.0546	49
106.0656	999
114.0008	57
114.0371	247
115.0532	15
117.0566	88
118.042	23
118.0647	279
119.0484	10
120.0815	11
121.01	125
122.0593	20
128.0489	48
130.0647	48
131.0721	10
135.0258	22
137.0425	24
137.0711	17
142.0315	12
146.0593	60
147.0256	47
160.0419	43
162.0356	14
164.0512	17
173.0287	11
174.0539	16
