Mass spectrum: Norgestrel; LC-ESI-QTOF; MS2; 130 V
Name: Norgestrel
Class: Pharmaceutical
Formula: C21H28O2
Exact mass: 312.2089
SMILES: CCC12CCC3C(C1CCC2(C#C)O)CCC4=CC(=O)CCC34
InChI: InChI=1S/C21H28O2/c1-3-20-11-9-17-16-8-6-15(22)13-14(16)5-7-18(17)19(20)10-12-21(20,23)4-2/h2,13,16-19,23H,3,5-12H2,1H3
Instrument: TripleTOF 5600 SCIEX
Instrument type: LC-ESI-QTOF
Ms type: MS2
Ion mode: POSITIVE
Collision energy: 130
Fragmentation mode: CID
Ionization: ESI
Column name: Zorbax Eclipse Plus C18 2.1 mm x 150 mm, 3.5 um, Agilent
Retention time: 12.063 min
Precursor m/z: 313.2162
Precursor type: [M+H]+
m/z	relative intensity
53.012	22
55.0273	22
65.0456	413
75.0302	35
76.0379	35
77.0448	999
78.0532	118
79.0604	193
81.0767	35
83.0543	52
87.0259	22
89.042	136
91.0588	448
94.045	26
101.0418	17
102.0498	202
103.0573	70
107.0542	22
115.0577	660
126.0491	96
127.0564	149
128.0644	374
129.0716	26
139.0551	30
141.0704	44
150.0457	44
151.0594	74
152.0635	132
153.0713	30
163.0559	44
164.0601	48
165.0734	52
176.0615	35
178.0792	22
189.0688	26
