Mass spectrum: Amitriptyline; LC-ESI-QTOF; MS2; 30 V
Name: Amitriptyline
Class: Pharmaceutical
Formula: C20H23N
Exact mass: 277.183
SMILES: CN(C)CCC=C1C2=CC=CC=C2CCC3=CC=CC=C31
InChI: InChI=1S/C20H23N/c1-21(2)15-7-12-20-18-10-5-3-8-16(18)13-14-17-9-4-6-11-19(17)20/h3-6,8-12H,7,13-15H2,1-2H3
Instrument: TripleTOF 6600 SCIEX
Instrument type: LC-ESI-QTOF
Ms type: MS2
Ion mode: POSITIVE
Collision energy: 30
Fragmentation mode: CID
Ionization: ESI
Column name: Zorbax Eclipse Plus C18 2.1 mm x 150 mm, 3.5 um, Agilent
Retention time: 8.708 min
Precursor m/z: 278.1903
Precursor type: [M+H]+
m/z	relative intensity
58.0652	43
84.081	147
85.0887	9
91.0546	665
103.0539	11
105.0703	624
115.0541	31
117.0703	627
129.0699	97
141.0697	36
155.0858	246
178.0781	123
179.0859	150
190.078	10
191.0862	627
192.0935	41
193.1012	74
203.086	74
204.0938	113
205.1017	325
207.117	37
217.1014	17
218.1099	409
231.1175	31
233.1336	999
278.1915	435
