Mass spectrum: Quinmerac; LC-ESI-QTOF; MS2; 150 V
Name: Quinmerac
Class: Herbicide
Formula: C11H8ClNO2
Exact mass: 221.0244
SMILES: Cc1cc2ccc(c(c2nc1)C(=O)O)Cl
InChI: InChI=1S/C11H8ClNO2/c1-6-4-7-2-3-8(12)9(11(14)15)10(7)13-5-6/h2-5H,1H3,(H,14,15)
Instrument: TripleTOF 6600 SCIEX
Instrument type: LC-ESI-QTOF
Ms type: MS2
Ion mode: POSITIVE
Collision energy: 150
Fragmentation mode: CID
Ionization: ESI
Column name: Zorbax Eclipse Plus C18 2.1 mm x 150 mm, 3.5 um, Agilent
Retention time: 7.013 min
Precursor m/z: 222.0316
Precursor type: [M+H]+
m/z	relative intensity
35.9992	69
37.0071	167
38.0152	121
39.0232	121
46.9679	92
48.9853	28
49.0076	132
50.0152	213
51.0235	86
52.019	23
59.9992	202
61.007	999
62.0148	773
63.0227	358
64.0185	34
72.984	57
73.007	184
74.0149	329
75.0098	69
76.0178	46
83.9992	144
85.007	438
86.0026	63
86.0153	392
87.0107	57
87.0228	109
88.0174	69
97.0074	75
98.0149	103
99.0106	86
