Mass spectrum: Bis(2,4,4-trimethylpentyl)phosphinic acid; LC-ESI-QTOF; MS2; 140 V
Name: Bis(2,4,4-trimethylpentyl)phosphinic acid
Class: Industrial_process
Formula: C16H35O2P
Exact mass: 290.2375
SMILES: CC(CC(C)(C)C)CP(=O)(CC(C)CC(C)(C)C)O
InChI: InChI=1S/C16H35O2P/c1-13(9-15(3,4)5)11-19(17,18)12-14(2)10-16(6,7)8/h13-14H,9-12H2,1-8H3,(H,17,18)
Instrument: TripleTOF 6600 SCIEX
Instrument type: LC-ESI-QTOF
Ms type: MS2
Ion mode: POSITIVE
Collision energy: 140
Fragmentation mode: CID
Ionization: ESI
Column name: Zorbax Eclipse Plus C18 2.1 mm x 150 mm, 3.5 um, Agilent
Retention time: 14.45 min
Precursor m/z: 291.2448
Precursor type: [M+H]+
m/z	relative intensity
30.9725	19
35.9987	14
37.0068	74
38.0028	17
38.0146	67
39.0225	265
41.0383	63
43.98	12
44.9882	33
46.9677	999
47.9748	38
48.9831	28
53.0124	14
56.988	10
60.9828	31
64.9777	97
78.9935	31
