Mass spectrum: (Vinylbenzyl)trimethyl ammonium; LC-ESI-QTOF; MS2; 70 V
Name: (Vinylbenzyl)trimethyl ammonium
Class: Industrial_process
Formula: [C12H18N]+
Exact mass: 176.1434
SMILES: C[N+](C)(C)Cc1ccc(cc1)C=C
InChI: InChI=1S/C12H18N/c1-5-11-6-8-12(9-7-11)10-13(2,3)4/h5-9H,1,10H2,2-4H3/q+1
Instrument: TripleTOF 5600 SCIEX
Instrument type: LC-ESI-QTOF
Ms type: MS2
Ion mode: POSITIVE
Collision energy: 70
Fragmentation mode: CID
Ionization: ESI
Column name: Zorbax Eclipse Plus C18 2.1 mm x 150 mm, 3.5 um, Agilent
Retention time: 5.404 min
Precursor m/z: 176.1434
Precursor type: [M]+
m/z	relative intensity
65.0428	798
74.0177	59
75.025	76
76.0329	76
77.0409	128
78.0485	104
89.039	533
91.0548	974
102.0464	174
115.054	999
116.062	71
117.0698	50
