Mass spectrum: Methyl 3-hydroxybenzoate; LC-ESI-QTOF; MS2; 30 V
Name: Methyl 3-hydroxybenzoate
Class: Pharmaceutical
Formula: C8H8O3
Exact mass: 152.0473
SMILES: COC(=O)C1=CC(=CC=C1)O
InChI: InChI=1S/C8H8O3/c1-11-8(10)6-3-2-4-7(9)5-6/h2-5,9H,1H3
Instrument: TripleTOF 5600 SCIEX
Instrument type: LC-ESI-QTOF
Ms type: MS2
Ion mode: POSITIVE
Collision energy: 30
Fragmentation mode: CID
Ionization: ESI
Column name: Zorbax Eclipse Plus C18 2.1 mm x 150 mm, 3.5 um, Agilent
Retention time: 7.88 min
Precursor m/z: 153.0546
Precursor type: [M+H]+
m/z	relative intensity
38.0166	16
39.0213	32
39.0258	16
41.0395	16
43.0297	32
51.0247	16
53.039	32
59.0124	435
65.0379	563
66.0469	80
77.0375	193
79.0537	177
81.0691	161
91.0535	338
93.0326	644
94.0411	999
107.0471	177
109.0635	64
121.0269	708
121.0422	32
