Mass spectrum: Olmesartan-d6; LC-ESI-QTOF; MS2; 120 V
Name: Olmesartan-d6
Class: Surrogate_standard
Formula: C24H20N6O3 2H6
Exact mass: 452.2443
SMILES: [2H]C([2H])([2H])C(C1=C(N(C(=N1)CCC)CC2=CC=C(C=C2)C3=CC=CC=C3C4=NNN=N4)C(=O)O)(C([2H])([2H])[2H])O
InChI: InChI=1S/C24H26N6O3/c1-4-7-19-25-21(24(2,3)33)20(23(31)32)30(19)14-15-10-12-16(13-11-15)17-8-5-6-9-18(17)22-26-28-29-27-22/h5-6,8-13,33H,4,7,14H2,1-3H3,(H,31,32)(H,26,27,28,29)/i2D3,3D3
Instrument: TripleTOF 5600 SCIEX
Instrument type: LC-ESI-QTOF
Ms type: MS2
Ion mode: POSITIVE
Collision energy: 120
Fragmentation mode: CID
Ionization: ESI
Column name: Zorbax Eclipse Plus C18 2.1 mm x 150 mm, 3.5 um, Agilent
Retention time: 7.306 min
Precursor m/z: 453.2527
Precursor type: [M+H]+
m/z	relative intensity
77.0428	53
89.0408	32
98.0164	13
101.0405	18
102.0483	15
113.04	59
114.0358	18
114.0464	18
115.0553	75
125.0411	42
126.047	71
127.055	139
128.0618	80
129.0489	10
137.0394	44
138.0469	55
139.0545	118
140.0507	174
141.061	19
149.0393	17
150.0464	196
151.0546	606
152.0624	999
153.0674	145
154.068	19
155.0617	10
161.0362	19
162.0473	65
163.0545	445
164.0538	375
165.0685	214
166.0655	48
167.0742	13
175.0531	18
176.0616	339
177.0642	254
178.0701	362
179.071	106
180.0806	32
188.0494	121
189.0574	127
190.0656	748
191.069	101
192.0663	49
203.0611	13
204.0686	10
205.0759	279
206.083	46
