Mass spectrum: 2-Morpholin-4-yl-benzothiazole; LC-ESI-QTOF; MS2; 150 V
Name: 2-Morpholin-4-yl-benzothiazole
Class: Industrial_process
Formula: C11H12N2OS
Exact mass: 220.067
SMILES: c1ccc2c(c1)nc(s2)N3CCOCC3
InChI: InChI=1S/C11H12N2OS/c1-2-4-10-9(3-1)12-11(15-10)13-5-7-14-8-6-13/h1-4H,5-8H2
Instrument: TripleTOF 5600 SCIEX
Instrument type: LC-ESI-QTOF
Ms type: MS2
Ion mode: POSITIVE
Collision energy: 150
Fragmentation mode: CID
Ionization: ESI
Column name: Zorbax Eclipse Plus C18 2.1 mm x 150 mm, 3.5 um, Agilent
Retention time: 9.363 min
Precursor m/z: 221.0743
Precursor type: [M+H]+
m/z	relative intensity
45.0407	9
51.0278	91
52.0256	17
57.9918	14
60.0015	27
65.0424	27
67.9756	166
68.9834	999
69.9902	14
73.0096	22
74.0176	69
75.0243	14
77.0444	17
80.981	32
81.9889	54
89.0409	12
91.9738	27
92.9803	72
94.996	14
