Mass spectrum: 6alpha-Methylprednisolone; LC-ESI-QTOF; MS2; 110 V
Name: 6alpha-Methylprednisolone
Class: Pharmaceutical
Formula: C22H30O5
Exact mass: 374.2093
SMILES: C[C@H]1C[C@H]2[C@@H]3CC[C@](O)(C(=O)CO)[C@@]3(C)C[C@H](O)[C@@H]2[C@@]4(C)C=CC(=O)C=C14
InChI: InChI=1S/C22H30O5/c1-12-8-14-15-5-7-22(27,18(26)11-23)21(15,3)10-17(25)19(14)20(2)6-4-13(24)9-16(12)20/h4,6,9,12,14-15,17,19,23,25,27H,5,7-8,10-11H2,1-3H3/t12-,14-,15-,17-,19+,20-,21-,22-/m0/s1
Instrument: TripleTOF 5600 SCIEX
Instrument type: LC-ESI-QTOF
Ms type: MS2
Ion mode: POSITIVE
Collision energy: 110
Fragmentation mode: CID
Ionization: ESI
Column name: Zorbax Eclipse Plus C18 2.1 mm x 150 mm, 3.5 um, Agilent
Retention time: 9.016 min
Precursor m/z: 375.2166
Precursor type: [M+H]+
m/z	relative intensity
51.0281	56
65.0426	237
77.0411	643
78.0492	49
79.0568	156
89.041	56
91.0556	955
102.0461	93
103.0537	131
104.0619	31
105.0695	212
115.0537	999
116.062	87
117.0684	106
121.0655	112
126.0459	37
127.0532	318
128.0619	511
128.0914	37
129.0704	143
131.048	149
135.081	43
139.054	62
141.0694	324
142.0765	31
144.0579	62
145.064	93
146.0729	31
151.0528	106
151.0775	37
152.0613	499
153.0696	187
155.054	31
157.064	87
163.0551	31
164.0613	56
165.0705	649
166.0776	49
168.0531	43
176.0624	106
177.0709	93
178.0778	405
179.0844	68
181.0657	137
183.0796	24
189.0699	299
190.0761	56
191.0845	112
192.0956	24
194.0726	87
195.08	49
200.0618	24
201.0721	43
202.0778	237
203.0844	112
205.0632	62
206.0735	31
207.0808	62
213.0688	37
215.0838	156
218.0731	37
219.08	68
226.0754	62
231.082	37
