Mass spectrum: Flubendazole; LC-ESI-QTOF; MS2; 110 V
Name: Flubendazole
Class: Pharmaceutical
Formula: C16H12FN3O3
Exact mass: 313.0863
SMILES: COC(=O)Nc1[nH]c2cc(ccc2n1)C(=O)c3ccc(F)cc3
InChI: InChI=1S/C16H12FN3O3/c1-23-16(22)20-15-18-12-7-4-10(8-13(12)19-15)14(21)9-2-5-11(17)6-3-9/h2-8H,1H3,(H2,18,19,20,22)
Instrument: TripleTOF 5600 SCIEX
Instrument type: LC-ESI-QTOF
Ms type: MS2
Ion mode: POSITIVE
Collision energy: 110
Fragmentation mode: CID
Ionization: ESI
Column name: Zorbax Eclipse Plus C18 2.1 mm x 150 mm, 3.5 um, Agilent
Retention time: 9.113 min
Precursor m/z: 314.0935
Precursor type: [M+H]+
m/z	relative intensity
51.0282	28
69.016	47
73.0104	59
74.0194	604
75.027	999
76.0211	117
77.0293	203
78.0359	89
95.0308	504
99.0235	15
103.0293	28
104.0369	87
105.0452	83
107.0293	11
123.0352	20
125.0381	19
130.039	19
131.0296	16
131.0487	17
133.0435	20
146.0515	13
157.0446	33
158.0397	20
182.0399	10
