Mass spectrum: 2-Ethylhexyl diphenyl phosphate; LC-ESI-QTOF; MS2; 60 V
Name: 2-Ethylhexyl diphenyl phosphate
Class: Industrial_process
Formula: C20H27O4P
Exact mass: 362.1647
SMILES: CCCCC(CC)COP(=O)(OC1=CC=CC=C1)OC2=CC=CC=C2
InChI: InChI=1S/C20H27O4P/c1-3-5-12-18(4-2)17-22-25(21,23-19-13-8-6-9-14-19)24-20-15-10-7-11-16-20/h6-11,13-16,18H,3-5,12,17H2,1-2H3
Instrument: TripleTOF 5600 SCIEX
Instrument type: LC-ESI-QTOF
Ms type: MS2
Ion mode: POSITIVE
Collision energy: 60
Fragmentation mode: CID
Ionization: ESI
Column name: Zorbax Eclipse Plus C18 2.1 mm x 150 mm, 3.5 um, Agilent
Retention time: 16.989 min
Precursor m/z: 363.172
Precursor type: [M+H]+
m/z	relative intensity
43.0553	11
51.0237	49
57.0715	18
77.0399	999
95.0506	165
127.0538	16
129.0121	11
138.9967	18
151.0559	127
152.0638	660
153.0716	258
157.0065	49
168.0594	151
171.0865	11
175.0168	310
187.0298	14
187.038	14
215.0282	276
233.0375	71
251.046	198
