Mass spectrum: 5-Methyl-1H-benzotriazole; LC-ESI-QTOF; MS2; 70 V
Name: 5-Methyl-1H-benzotriazole
Class: Industrial_process
Formula: C7H7N3
Exact mass: 133.064
SMILES: Cc1ccc2n[nH]nc2c1
InChI: InChI=1S/C7H7N3/c1-5-2-3-6-7(4-5)9-10-8-6/h2-4H,1H3,(H,8,9,10)
Instrument: TripleTOF 5600 SCIEX
Instrument type: LC-ESI-QTOF
Ms type: MS2
Ion mode: POSITIVE
Collision energy: 70
Fragmentation mode: CID
Ionization: ESI
Column name: Zorbax Eclipse Plus C18 2.1 mm x 150 mm, 3.5 um, Agilent
Retention time: 7.021 min
Precursor m/z: 134.0713
Precursor type: [M+H]+
m/z	relative intensity
41.0426	22
52.0233	80
52.0341	63
53.0428	103
60.0031	22
64.0333	68
65.0303	51
65.0409	34
66.0395	22
67.0449	40
74.0178	57
75.0243	28
77.0409	999
78.0488	34
91.0451	28
104.0475	34
