Mass spectrum: Tolfenamic acid; LC-ESI-QTOF; MS2; 60 V
Name: Tolfenamic acid
Class: Pharmaceutical
Formula: C14H12ClNO2
Exact mass: 261.0557
SMILES: Cc1cc(Nc2ccccc2C(O)=O)ccc1Cl
InChI: InChI=1S/C14H12ClNO2/c1-9-8-10(6-7-12(9)15)16-13-5-3-2-4-11(13)14(17)18/h2-8,16H,1H3,(H,17,18)
Instrument: TripleTOF 5600 SCIEX
Instrument type: LC-ESI-QTOF
Ms type: MS2
Ion mode: POSITIVE
Collision energy: 60
Fragmentation mode: CID
Ionization: ESI
Column name: Zorbax Eclipse Plus C18 2.1 mm x 150 mm, 3.5 um, Agilent
Retention time: 14.052 min
Precursor m/z: 262.0629
Precursor type: [M+H]+
m/z	relative intensity
77.04	25
92.0264	11
127.0534	11
128.0503	17
139.053	43
140.0482	63
151.0526	38
152.061	154
153.0676	45
154.064	21
164.0497	20
165.0569	33
166.0643	329
178.0643	93
179.0721	255
180.0807	999
181.0879	28
183.0656	17
194.0587	35
200.0247	12
201.0331	167
207.0674	38
208.075	369
209.0824	117
214.0396	22
229.0279	83
