Mass spectrum: Candesartan; LC-ESI-QTOF; MS2; 100 V
Name: Candesartan
Class: Pharmaceutical
Formula: C24H20N6O3
Exact mass: 440.1597
SMILES: CCOc1nc2cccc(C(O)=O)c2n1Cc3ccc(cc3)c4ccccc4c5n[nH]nn5
InChI: InChI=1S/C24H20N6O3/c1-2-33-24-25-20-9-5-8-19(23(31)32)21(20)30(24)14-15-10-12-16(13-11-15)17-6-3-4-7-18(17)22-26-28-29-27-22/h3-13H,2,14H2,1H3,(H,31,32)(H,26,27,28,29)
Instrument: TripleTOF 5600 SCIEX
Instrument type: LC-ESI-QTOF
Ms type: MS2
Ion mode: POSITIVE
Collision energy: 100
Fragmentation mode: CID
Ionization: ESI
Column name: Zorbax Eclipse Plus C18 2.1 mm x 150 mm, 3.5 um, Agilent
Retention time: 10.001 min
Precursor m/z: 441.167
Precursor type: [M+H]+
m/z	relative intensity
65.0431	14
77.0412	92
78.0357	25
80.0505	11
89.0398	22
90.0345	41
91.0552	12
102.0453	11
105.0445	134
113.0383	29
114.0448	17
115.0536	85
116.0497	12
125.038	16
126.046	29
127.0537	103
128.0612	58
133.0386	36
138.0451	40
139.054	93
140.0494	146
141.0591	19
150.0465	92
151.0541	487
152.062	999
153.0687	172
154.0647	18
161.0349	62
162.0463	25
163.054	354
164.0588	417
165.0695	715
166.0645	84
167.0716	28
168.067	14
175.0502	12
176.0615	227
177.0612	377
178.0711	515
179.0734	138
180.0793	113
188.0497	48
189.0588	109
190.0652	807
191.0713	176
192.0726	176
193.089	28
203.0684	13
204.0695	20
205.0761	491
206.0834	34
216.0807	23
217.0818	14
218.0821	37
219.09	25
226.0771	10
238.0657	16
239.084	10
240.0803	12
251.0726	26
252.0789	15
253.0879	34
254.0951	15
264.0817	18
265.076	38
266.0844	32
267.0943	13
277.0777	12
278.0842	14
279.0927	35
280.0977	13
281.1066	16
291.0825	10
292.0868	12
293.0907	30
294.0823	15
294.1086	10
304.0839	12
