Mass spectrum: Fenbendazole; LC-ESI-QTOF; MS2; 80 V
Name: Fenbendazole
Class: Pharmaceutical
Formula: C15H13N3O2S
Exact mass: 299.0728
SMILES: COC(=O)Nc1[nH]c2cc(Sc3ccccc3)ccc2n1
InChI: InChI=1S/C15H13N3O2S/c1-20-15(19)18-14-16-12-8-7-11(9-13(12)17-14)21-10-5-3-2-4-6-10/h2-9H,1H3,(H2,16,17,18,19)
Instrument: TripleTOF 5600 SCIEX
Instrument type: LC-ESI-QTOF
Ms type: MS2
Ion mode: NEGATIVE
Collision energy: 80
Fragmentation mode: CID
Ionization: ESI
Column name: Zorbax Eclipse Plus C18 2.1 mm x 150 mm, 3.5 um, Agilent
Retention time: 9.947 min
Precursor m/z: 298.0656
Precursor type: [M-H]-
m/z	relative intensity
57.9762	788
65.0139	99
81.9744	166
106.9805	66
108.986	77
132.9861	133
133.9928	166
135.0008	77
156.0204	122
159.9961	999
161.0028	199
188.9953	144
