Mass spectrum: Sulfadiazine; LC-ESI-QTOF; MS2; 90 V
Name: Sulfadiazine
Class: Antimicrobial; Pharmaceutical
Formula: C10H10N4O2S
Exact mass: 250.0524
InChI: InChI=1S/C10H10N4O2S/c11-8-2-4-9(5-3-8)17(15,16)14-10-12-6-1-7-13-10/h1-7H,11H2,(H,12,13,14)
Instrument: TripleTOF 5600 SCIEX
Instrument type: LC-ESI-QTOF
Ms type: CID
Ion mode: POSITIVE
Collision energy: 90
Ionization: ESI
Column name: Zorbax Eclipse Plus C18 2.1 mm x 150 mm, 3.5 um, Agilent
Retention time: 5.24 min
Precursor m/z: 251.0597
Precursor type: [M+H]+
m/z	relative intensity
53.0223	14
65.0461	999
66.0428	74
68.04	11
69.0499	26
77.0425	11
79.0344	197
80.054	490
92.0523	158
93.061	17
96.0586	116
108.0456	62
