Mass spectrum: Norethynodrel; LC-ESI-QTOF; MS2; 70 V
Name: Norethynodrel
Class: Pharmaceutical
Formula: C20H26O2
Exact mass: 298.1933
SMILES: C[C@]12CC[C@H]3[C@@H](CCC4=C3CCC(=O)C4)[C@@H]1CC[C@@]2(O)C#C
InChI: InChI=1S/C20H26O2/c1-3-20(22)11-9-18-17-6-4-13-12-14(21)5-7-15(13)16(17)8-10-19(18,20)2/h1,16-18,22H,4-12H2,2H3/t16-,17-,18+,19+,20+/m1/s1
Instrument: TripleTOF 5600 SCIEX
Instrument type: LC-ESI-QTOF
Ms type: MS2
Ion mode: POSITIVE
Collision energy: 70
Fragmentation mode: CID
Ionization: ESI
Column name: Zorbax Eclipse Plus C18 2.1 mm x 150 mm, 3.5 um, Agilent
Retention time: 11.133 min
Precursor m/z: 299.2006
Precursor type: [M+H]+
m/z	relative intensity
43.0251	14
55.0227	28
55.0601	107
65.0432	193
66.0498	11
67.0582	119
77.042	739
78.0485	18
79.0575	618
81.0371	13
81.0727	253
83.0515	249
89.0391	19
91.0563	999
93.0716	94
94.0423	17
95.0509	10
95.0875	25
102.0477	17
103.0538	122
104.0619	23
105.0702	254
107.0496	110
107.0825	14
109.065	248
109.0989	16
115.0544	504
116.0614	109
117.0702	151
119.0848	66
121.0637	12
127.0547	121
128.0618	500
129.0694	209
130.0773	40
131.0483	19
131.0834	66
133.0641	23
135.0798	20
141.0692	268
142.0781	74
143.0839	51
145.1016	16
152.0614	73
153.0691	116
154.0768	33
155.085	59
157.1026	10
165.069	144
166.0758	24
167.086	40
178.0773	63
179.0866	36
181.0996	11
190.0768	12
191.0837	28
202.0769	11
203.0844	10
