Mass spectrum: Aspartame; LC-ESI-QTOF; MS2; 30 V
Name: Aspartame
Class: Food_additive
Formula: C14H18N2O5
Exact mass: 294.1216
SMILES: COC(=O)C(Cc1ccccc1)NC(=O)C(N)CC(O)=O
InChI: InChI=1S/C14H18N2O5/c1-21-14(20)11(7-9-5-3-2-4-6-9)16-13(19)10(15)8-12(17)18/h2-6,10-11H,7-8,15H2,1H3,(H,16,19)(H,17,18)
Instrument: TripleTOF 5600 SCIEX
Instrument type: LC-ESI-QTOF
Ms type: MS2
Ion mode: POSITIVE
Collision energy: 30
Fragmentation mode: CID
Ionization: ESI
Column name: Zorbax Eclipse Plus C18 2.1 mm x 150 mm, 3.5 um, Agilent
Retention time: 5.761 min
Precursor m/z: 295.1288
Precursor type: [M+H]+
m/z	relative intensity
70.0321	40
88.041	79
91.0558	62
103.0548	23
120.0813	999
121.0647	70
130.0649	60
131.0485	32
144.08	14
147.0899	10
157.0643	17
163.0747	45
172.0749	49
175.0862	234
180.1017	278
182.0591	36
189.1011	10
190.0857	45
200.0701	194
217.0963	23
218.0804	19
235.1072	106
260.0911	15
