Mass spectrum: Codeine; LC-ESI-QTOF; MS2; 70 V
Name: Codeine
Formula: C18H21NO3
Exact mass: 299.1521
SMILES: CN1CCC23C4C1CC5=C2C(=C(C=C5)OC)OC3C(C=C4)O
InChI: InChI=1S/C18H21NO3/c1-19-8-7-18-11-4-5-13(20)17(18)22-16-14(21-2)6-3-10(15(16)18)9-12(11)19/h3-6,11-13,17,20H,7-9H2,1-2H3
Instrument: TripleTOF 6600 SCIEX
Instrument type: LC-ESI-QTOF
Ms type: MS2
Ion mode: POSITIVE
Collision energy: 70
Fragmentation mode: CID
Ionization: ESI
Column name: Zorbax Eclipse Plus C18 2.1 mm x 150 mm, 3.5 um, Agilent
Retention time: 5.043 min
Precursor m/z: 300.1594
Precursor type: [M+H]+
m/z	relative intensity
42.0329	13
44.049	55
55.0172	13
58.0643	15
65.0373	15
77.0371	120
78.0444	13
79.0526	16
89.0371	28
90.0453	12
91.0526	76
94.0391	23
101.0361	10
102.0458	44
103.0525	61
105.0695	10
114.0459	31
115.0531	605
116.0603	61
117.0658	17
118.0397	55
121.0635	10
122.034	15
126.044	44
127.0531	304
128.0605	637
129.0678	125
131.0469	74
132.0546	11
139.0523	142
140.0604	58
141.0684	324
142.041	11
142.0761	29
143.0478	41
144.055	107
145.0632	26
146.0348	20
150.0446	19
151.0525	173
152.0607	999
153.0685	546
154.0749	77
155.0488	252
155.0841	44
156.0557	73
157.0633	66
158.0716	22
159.0434	22
161.0574	39
163.0527	54
164.0604	109
165.0686	773
166.0745	44
167.0807	24
168.0566	136
169.0622	129
170.0353	58
170.0705	32
171.044	35
171.079	81
172.0492	11
172.0873	10
176.0611	39
177.0695	20
178.0767	124
179.0552	12
179.0829	27
180.0561	43
181.0631	254
182.0704	37
183.0427	225
183.0787	17
184.0508	48
185.0591	67
189.0691	123
190.0758	31
191.0857	29
192.0561	10
193.0634	56
194.0681	32
195.08	17
197.0586	86
198.0659	43
199.0733	22
200.0618	12
201.0707	15
202.0779	19
205.0632	34
207.0763	21
208.0496	14
209.0606	41
210.065	14
211.0747	16
219.0913	16
220.1126	10
221.061	20
223.0721	19
