Mass spectrum: Loratadine; LC-ESI-QTOF; MS2; 50 V
Name: Loratadine
Class: Pharmaceutical
Formula: C22H23ClN2O2
Exact mass: 382.1448
SMILES: CCOC(=O)N1CCC(=C2C3=C(CCC4=C2N=CC=C4)C=C(C=C3)Cl)CC1
InChI: InChI=1S/C22H23ClN2O2/c1-2-27-22(26)25-12-9-15(10-13-25)20-19-8-7-18(23)14-17(19)6-5-16-4-3-11-24-21(16)20/h3-4,7-8,11,14H,2,5-6,9-10,12-13H2,1H3
Instrument: TripleTOF 6600 SCIEX
Instrument type: LC-ESI-QTOF
Ms type: MS2
Ion mode: POSITIVE
Collision energy: 50
Fragmentation mode: CID
Ionization: ESI
Column name: Zorbax Eclipse Plus C18 2.1 mm x 150 mm, 3.5 um, Agilent
Retention time: 9.41 min
Precursor m/z: 383.1521
Precursor type: [M+H]+
m/z	relative intensity
82.0646	11
193.0879	17
214.0415	90
217.0884	19
218.0964	16
219.1042	10
227.0499	10
228.0568	70
229.0648	49
230.0957	38
231.104	122
232.111	51
233.1198	22
242.0963	19
243.104	105
244.1114	111
245.1192	78
246.127	103
247.1349	36
248.0931	11
251.0506	21
252.0575	205
253.0654	126
256.1115	23
257.1199	31
258.1274	405
259.1353	527
264.0564	19
265.0648	31
266.0731	579
267.0806	999
268.0883	12
270.0539	20
277.0656	22
278.0717	90
279.0809	284
280.0884	484
281.0964	345
282.1039	143
283.0629	20
292.0886	107
294.104	205
302.1412	25
322.0857	44
337.11	157
339.1615	22
