Mass spectrum: Fluazifop-P-butyl; LC-ESI-QTOF; MS2; 150 V
Name: Fluazifop-P-butyl
Class: Herbicide
Formula: C19H20F3NO4
Exact mass: 383.1344
SMILES: CCCCOC(=O)C(C)OC1=CC=C(C=C1)OC2=NC=C(C=C2)C(F)(F)F
InChI: InChI=1S/C19H20F3NO4/c1-3-4-11-25-18(24)13(2)26-15-6-8-16(9-7-15)27-17-10-5-14(12-23-17)19(20,21)22/h5-10,12-13H,3-4,11H2,1-2H3
Instrument: TripleTOF 6600 SCIEX
Instrument type: LC-ESI-QTOF
Ms type: MS2
Ion mode: POSITIVE
Collision energy: 150
Fragmentation mode: CID
Ionization: ESI
Column name: Zorbax Eclipse Plus C18 2.1 mm x 150 mm, 3.5 um, Agilent
Retention time: 15.933 min
Precursor m/z: 384.1417
Precursor type: [M+H]+
m/z	relative intensity
30.9974	25
35.9991	53
37.0075	279
38.0025	32
38.015	257
39.023	999
41.0386	114
43.0173	14
45.0335	12
49.0079	76
50.015	329
51.0045	32
51.0226	578
52.0175	35
52.0303	14
53.0013	12
53.014	10
53.0382	17
55.0163	12
57.0129	60
59.9991	35
61.0062	123
62.0142	241
63.0224	486
64.0164	19
64.0299	30
65.038	204
68.9943	431
69.0128	25
70.0205	96
73.0059	69
74.0144	435
75.0043	981
75.0214	114
76.0176	259
77.0377	284
78.0331	118
78.9982	16
79.0429	14
80.0043	21
81.0127	59
81.0323	26
83.0282	32
83.9973	14
85.0064	39
86.0141	116
87.0213	164
88.0159	39
88.0291	91
89.0379	89
90.0336	14
91.0406	12
91.0518	25
92.9921	32
93.0125	23
94.0186	12
96.0233	25
97.0064	16
97.0352	12
98.0139	73
99.0042	252
99.0217	25
99.9989	42
100.0118	59
101.0181	42
101.0382	41
102.0455	68
103.052	25
104.0497	10
105.012	30
106.0081	17
106.0201	35
107.0292	69
110.0129	19
111.0224	25
112.0173	12
113.0179	10
113.0369	236
114.0312	46
114.0432	53
115.0397	14
115.0516	23
117.0134	21
119.0095	53
120.033	10
121.0047	12
122.0142	153
123.0069	25
123.0192	59
124.0168	17
125.0183	41
126.0144	84
126.0443	10
127.0238	19
128.0483	32
129.0429	16
129.0561	10
131.0287	82
131.0494	14
132.0195	10
132.0361	28
133.0449	42
138.0308	32
139.0447	35
140.0476	103
141.0142	10
141.0559	17
143.0289	16
146.0202	25
147.0305	10
151.0337	71
156.0168	12
158.0374	37
159.0446	19
162.0264	17
163.0301	10
164.0277	12
164.0452	16
169.0257	16
170.0341	12
177.0461	12
