Mass spectrum: 2,6-Dichlorodiphenylamine; LC-ESI-QTOF; MS2; 50 V
Name: 2,6-Dichlorodiphenylamine
Class: Pharmaceutical
Formula: C12H9Cl2N
Exact mass: 237.0112
SMILES: C1=CC=C(C=C1)NC2=C(C=CC=C2Cl)Cl
InChI: InChI=1S/C12H9Cl2N/c13-10-7-4-8-11(14)12(10)15-9-5-2-1-3-6-9/h1-8,15H
Instrument: TripleTOF 5600 SCIEX
Instrument type: LC-ESI-QTOF
Ms type: MS2
Ion mode: POSITIVE
Collision energy: 50
Fragmentation mode: CID
Ionization: ESI
Column name: Zorbax Eclipse Plus C18 2.1 mm x 150 mm, 3.5 um, Agilent
Retention time: 14.125 min
Precursor m/z: 238.0185
Precursor type: [M+H]+
m/z	relative intensity
65.0454	50
72.9896	57
77.0433	202
82.9496	20
90.0366	121
92.0521	43
93.0603	610
96.9862	23
97.9955	27
99.0008	138
106.9493	16
123.997	121
125.0035	307
126.0118	91
132.9602	556
133.9698	27
139.0559	57
140.0595	20
141.07	30
159.9714	145
160.98	999
166.0659	138
167.0731	799
168.081	418
202.0421	47
203.0474	77
