Mass spectrum: Loratadine; LC-ESI-QTOF; MS2; 120 V
Name: Loratadine
Class: Pharmaceutical
Formula: C22H23ClN2O2
Exact mass: 382.1448
SMILES: CCOC(=O)N1CCC(=C2C3=C(CCC4=C2N=CC=C4)C=C(C=C3)Cl)CC1
InChI: InChI=1S/C22H23ClN2O2/c1-2-27-22(26)25-12-9-15(10-13-25)20-19-8-7-18(23)14-17(19)6-5-16-4-3-11-24-21(16)20/h3-4,7-8,11,14H,2,5-6,9-10,12-13H2,1H3
Instrument: TripleTOF 6600 SCIEX
Instrument type: LC-ESI-QTOF
Ms type: MS2
Ion mode: POSITIVE
Collision energy: 120
Fragmentation mode: CID
Ionization: ESI
Column name: Zorbax Eclipse Plus C18 2.1 mm x 150 mm, 3.5 um, Agilent
Retention time: 9.41 min
Precursor m/z: 383.1521
Precursor type: [M+H]+
m/z	relative intensity
77.0374	17
78.0335	11
80.0489	12
89.0374	17
115.0543	23
117.0564	9
127.0525	12
128.0616	20
139.0543	29
150.045	35
151.0526	71
152.0611	95
154.0644	13
163.0528	98
164.0603	40
165.0682	102
166.0632	22
167.0721	17
175.0528	34
176.0612	99
177.0578	46
178.0637	63
179.0708	75
187.0526	48
188.0611	82
189.0685	338
190.0639	142
191.0718	128
192.0798	80
193.0875	23
200.0609	95
201.0685	120
202.0767	411
203.0719	135
204.0785	116
205.0894	12
212.0572	11
213.0329	13
213.069	80
214.0644	221
215.0726	269
216.0794	639
217.0876	176
218.0951	26
223.029	16
226.0414	11
226.0651	38
227.0714	151
228.0798	842
229.0873	410
230.0955	339
231.1038	27
238.04	15
238.0627	24
239.0713	45
240.0797	473
241.0873	999
242.095	415
243.1027	157
244.1102	82
250.04	116
251.0472	102
252.0807	20
253.0876	16
254.0948	171
255.104	22
256.1102	53
262.0409	27
263.0472	11
264.0571	87
275.0498	20
276.0542	13
277.0625	15
278.0708	23
288.0543	13
