Mass spectrum: Carbadox; LC-ESI-QTOF; MS2; 30 V
Name: Carbadox
Class: Antimicrobial; Pharmaceutical
Formula: C11H10N4O4
Exact mass: 262.0702
SMILES: COC(=O)N=NC=C1C=[N+]([O-])c2ccccc2N1O
InChI: InChI=1S/C11H10N4O4/c1-19-11(16)13-12-6-8-7-14(17)9-4-2-3-5-10(9)15(8)18/h2-7,18H,1H3
Instrument: TripleTOF 5600 SCIEX
Instrument type: LC-ESI-QTOF
Ms type: MS2
Ion mode: POSITIVE
Collision energy: 30
Fragmentation mode: CID
Ionization: ESI
Column name: Zorbax Eclipse Plus C18 2.1 mm x 150 mm, 3.5 um, Agilent
Retention time: 5.823 min
Precursor m/z: 263.0775
Precursor type: [M+H]+
m/z	relative intensity
65.0426	59
75.0256	11
77.0406	228
78.0374	27
90.035	541
91.0423	19
92.0498	55
102.0334	80
103.0412	236
104.0491	442
105.0437	29
116.0388	19
117.0443	18
118.0504	11
119.0593	12
121.0387	21
128.0472	14
129.0442	559
130.0518	811
131.0594	471
142.052	48
143.0479	92
144.0659	28
145.0388	739
146.0474	25
147.0542	66
155.0462	18
157.0625	23
159.0547	338
163.0491	23
170.0581	45
171.0413	288
172.0491	83
173.0336	33
173.0707	61
175.049	284
183.0655	18
184.0732	32
185.0818	38
186.0648	20
187.0603	72
187.079	11
188.0437	136
197.0447	306
203.0539	84
229.0707	644
231.0501	999
263.0763	55
