Mass spectrum: 2-Aminobenzimidazole; LC-ESI-QTOF; MS2; 30 V
Name: 2-Aminobenzimidazole
Class: Transformation_product; Fungicide; Transformation_product-Metabolite
Formula: C7H7N3
Exact mass: 133.064
SMILES: C1=CC=C2C(=C1)NC(=N2)N
InChI: InChI=1S/C7H7N3/c8-7-9-5-3-1-2-4-6(5)10-7/h1-4H,(H3,8,9,10)
Instrument: TripleTOF 6600 SCIEX
Instrument type: LC-ESI-QTOF
Ms type: MS2
Ion mode: POSITIVE
Collision energy: 30
Fragmentation mode: CID
Ionization: ESI
Column name: Zorbax Eclipse Plus C18 2.1 mm x 150 mm, 3.5 um, Agilent
Retention time: 4.787 min
Precursor m/z: 134.0713
Precursor type: [M+H]+
m/z	relative intensity
39.0227	18
65.0383	260
80.0491	65
92.0494	608
93.0569	124
107.06	116
117.044	31
133.0628	30
134.0713	999
