Mass spectrum: Tetrabutylphosphonium; LC-ESI-QTOF; MS2; 100 V
Name: Tetrabutylphosphonium
Class: Industrial_process
Formula: C16H36P
Exact mass: 259.2549
InChI: InChI=1S/C16H36P/c1-5-9-13-17(14-10-6-2,15-11-7-3)16-12-8-4/h5-16H2,1-4H3/q+1
Instrument: TripleTOF 5600 SCIEX
Instrument type: LC-ESI-QTOF
Ms type: CID
Ion mode: POSITIVE
Collision energy: 100
Ionization: ESI
Column name: Zorbax Eclipse Plus C18 2.1 mm x 150 mm, 3.5 um, Agilent
Retention time: 9.655 min
Precursor m/z: 259.2549
Precursor type: [M]+
m/z	relative intensity
55.9873	86
56.9949	999
59.0099	780
61.0253	864
62.0328	270
73.0245	59
75.0386	255
76.0465	278
