Mass spectrum: Norfloxacin; LC-ESI-QTOF; MS2; 40 V
Name: Norfloxacin
Class: Antimicrobial; Pharmaceutical
Formula: C16H18FN3O3
Exact mass: 319.1332
SMILES: CCN1C=C(C(=O)C2=CC(=C(C=C21)N3CCNCC3)F)C(=O)O
InChI: InChI=1S/C16H18FN3O3/c1-2-19-9-11(16(22)23)15(21)10-7-12(17)14(8-13(10)19)20-5-3-18-4-6-20/h7-9,18H,2-6H2,1H3,(H,22,23)
Instrument: TripleTOF 5600 SCIEX
Instrument type: LC-ESI-QTOF
Ms type: MS2
Ion mode: POSITIVE
Collision energy: 40
Fragmentation mode: CID
Ionization: ESI
Column name: Zorbax Eclipse Plus C18 2.1 mm x 150 mm, 3.5 um, Agilent
Retention time: 5.167 min
Precursor m/z: 320.1405
Precursor type: [M+H]+
m/z	relative intensity
136.0591	14
161.0511	14
163.0673	17
174.0592	11
175.0674	14
176.074	57
187.0649	14
189.0822	72
190.0581	20
191.0521	11
191.0652	11
198.1036	26
203.0622	66
204.1038	83
205.0766	89
207.0914	17
211.1166	20
217.0797	14
219.0909	37
225.0905	20
226.1005	23
226.1367	14
227.1095	20
231.0554	333
233.1052	182
245.0686	14
246.1394	20
253.0902	20
254.0939	86
254.1342	26
256.1437	52
274.0972	52
276.147	194
282.1216	185
302.1293	999
320.1392	118
