Mass spectrum: Flavanone; LC-ESI-QTOF; MS2; 80 V
Name: Flavanone
Class: Personal_care_product
Formula: C15H12O2
Exact mass: 224.0837
SMILES: C1C(OC2=CC=CC=C2C1=O)C3=CC=CC=C3
InChI: InChI=1S/C15H12O2/c16-13-10-15(11-6-2-1-3-7-11)17-14-9-5-4-8-12(13)14/h1-9,15H,10H2
Instrument: TripleTOF 5600 SCIEX
Instrument type: LC-ESI-QTOF
Ms type: MS2
Ion mode: POSITIVE
Collision energy: 80
Fragmentation mode: CID
Ionization: ESI
Column name: Zorbax Eclipse Plus C18 2.1 mm x 150 mm, 3.5 um, Agilent
Retention time: 12.61 min
Precursor m/z: 225.091
Precursor type: [M+H]+
m/z	relative intensity
37.0072	33
38.0147	33
39.0226	183
50.0155	54
51.0226	271
53.002	16
63.0242	29
65.0384	522
74.0138	25
75.0228	45
77.0383	999
79.0549	25
91.0543	29
93.0328	50
102.0462	66
103.0535	121
115.0545	37
121.0291	29
126.0471	37
127.0531	29
128.0603	16
139.0528	29
150.0477	96
151.054	208
152.0621	217
163.0549	29
176.0619	221
177.0685	54
178.0727	29
