Mass spectrum: N-desmethyl-citalopram; LC-ESI-QTOF; MS2; 35 V
Name: N-desmethyl-citalopram
Class: Metabolite; Pharmaceutical; Transformation_product-Metabolite
Formula: C19H19FN2O
Exact mass: 310.1481
SMILES: CNCCCC1(C2=C(CO1)C=C(C=C2)C#N)C3=CC=C(C=C3)F
InChI: InChI=1S/C19H19FN2O/c1-22-10-2-9-19(16-4-6-17(20)7-5-16)18-8-3-14(12-21)11-15(18)13-23-19/h3-8,11,22H,2,9-10,13H2,1H3
Instrument: TripleTOF 5600 SCIEX
Instrument type: LC-ESI-QTOF
Ms type: MS2
Ion mode: POSITIVE
Collision energy: 35
Fragmentation mode: CID
Ionization: ESI
Column name: Zorbax Eclipse Plus C18 2.1 mm x 150 mm, 3.5 um, Agilent
Retention time: 7.73 min
Precursor m/z: 311.1555
Precursor type: [M+H]+
m/z	relative intensity
56.0473	0
57.0296	2
58.0607	1
59.0229	0
68.0446	0
70.0595	5
71.0684	0
83.0231	5
89.0323	3
90.0263	0
95.0274	0
97.0383	1
101.0361	0
103.0481	2
107.0303	0
109.0418	999
109.1008	0
109.1519	0
110.0427	9
110.098	0
113.033	1
115.0514	2
116.043	176
117.047	2
118.0553	0
121.0398	6
122.036	0
123.0155	7
125.0365	2
126.0321	0
127.0486	2
128.0564	2
129.0639	9
130.0625	6
130.996	1
133.0335	5
134.0342	0
134.9949	0
135.0518	2
136.0513	1
137.0677	1
138.0657	0
139.0496	2
140.0459	16
141.0458	1
142.0581	6
143.0652	0
144.035	7
145.0445	0
146.0484	3
147.0511	4
151.0548	0
152.0421	0
153.0559	1
154.059	17
155.056	1
156.0751	18
157.0739	3
158.0617	1
159.0526	5
161.0771	1
162.0677	1
164.0582	0
166.0609	67
167.0716	1
168.0268	0
168.0805	4
169.068	1
170.0486	1
171.091	0
173.1013	0
187.0488	0
191.0661	0
196.0581	2
201.0558	0
202.0715	4
210.065	0
211.0593	0
215.0823	25
216.0719	3
220.0584	16
221.0593	66
222.0681	32
223.0848	2
225.0631	1
226.064	3
227.0671	49
230.0955	0
233.075	13
234.0705	190
235.0854	33
236.091	13
238.0679	14
240.0763	14
241.0866	14
242.0932	38
243.0902	1
245.0666	12
246.0756	29
247.0747	117
250.1023	17
260.0783	20
261.0933	22
262.1042	152
265.118	0
273.1352	0
293.1396	28
294.1526	1
311.1555	2
