Mass spectrum: N-[4-(1H-benzimidazol-2-yl)phenyl]-N,N-dimethylamine; LC-ESI-QTOF; MS2; 110 V
Name: N-[4-(1H-benzimidazol-2-yl)phenyl]-N,N-dimethylamine
Class: Pharmaceutical
Formula: C15H15N3
Exact mass: 237.1266
SMILES: CN(C)C1=CC=C(C=C1)C2=NC3=CC=CC=C3N2
InChI: InChI=1S/C15H15N3/c1-18(2)12-9-7-11(8-10-12)15-16-13-5-3-4-6-14(13)17-15/h3-10H,1-2H3,(H,16,17)
Instrument: TripleTOF 5600 SCIEX
Instrument type: LC-ESI-QTOF
Ms type: MS2
Ion mode: POSITIVE
Collision energy: 110
Fragmentation mode: CID
Ionization: ESI
Column name: Zorbax Eclipse Plus C18 2.1 mm x 150 mm, 3.5 um, Agilent
Retention time: 6.517 min
Precursor m/z: 238.1339
Precursor type: [M+H]+
m/z	relative intensity
41.0415	19
52.0278	83
60.0057	23
64.0383	269
65.0461	999
66.0507	11
74.0214	83
75.028	146
76.0241	101
77.0439	329
78.0413	21
86.0194	19
87.0254	42
88.0359	40
89.0422	534
90.0426	134
91.0441	154
92.0523	140
98.0192	17
99.0228	17
101.0407	25
102.036	179
103.0429	37
104.0511	46
112.0326	11
113.0402	158
114.0396	64
115.0545	120
116.0498	54
117.0555	21
118.0542	44
119.0616	11
125.0407	13
126.0457	29
127.0509	25
128.0526	29
129.044	44
130.0399	33
137.0404	111
138.0448	165
139.0549	511
140.0502	396
141.0536	15
142.0526	23
143.061	78
150.0459	15
152.0469	21
153.0475	21
154.0653	11
163.0406	15
164.0496	556
165.0571	236
166.0643	267
167.0696	113
168.0676	23
179.0591	11
190.0546	33
191.0593	228
192.0675	538
193.0752	163
194.0797	13
