Mass spectrum: Ranitidine-N-oxide; LC-ESI-QTOF; MS2; 150 V
Name: Ranitidine-N-oxide
Class: Pharmaceutical; Transformation_product
Formula: C13H22N4O4S
Exact mass: 330.1362
SMILES: CNC(/NCCSCc1oc(C[N+](C)(C)[O-])cc1)=C\[N+]([O-])=O
InChI: InChI=1S/C13H22N4O4S/c1-14-13(8-16(18)19)15-6-7-22-10-12-5-4-11(21-12)9-17(2,3)20/h4-5,8,14-15H,6-7,9-10H2,1-3H3/b13-8+
Instrument: TripleTOF 5600 SCIEX
Instrument type: LC-ESI-QTOF
Ms type: MS2
Ion mode: POSITIVE
Collision energy: 150
Fragmentation mode: CID
Ionization: ESI
Column name: Zorbax Eclipse Plus C18 2.1 mm x 150 mm, 3.5 um, Agilent
Retention time: 4.879 min
Precursor m/z: 331.1435
Precursor type: [M+H]+
m/z	relative intensity
39.0305	199
43.0245	99
51.0296	799
53.0426	624
54.0401	349
55.0473	199
56.0539	599
57.0496	374
58.9995	324
65.0421	374
67.043	99
68.0537	174
68.9825	124
77.0403	999
78.0376	124
80.0508	249
81.0349	174
81.0446	349
82.0565	249
89.0416	199
91.056	124
96.0693	149
97.01	199
97.0774	199
102.037	99
