Mass spectrum: Hydroxytorasemide; LC-ESI-QTOF; MS2; 80 V
Name: Hydroxytorasemide
Class: Pharmaceutical; Transformation_product; Transformation_product-Metabolite
Formula: C16H20N4O4S
Exact mass: 364.1205
SMILES: CC(C)NC(=O)NS(=O)(=O)c1cnccc1Nc2cccc(c2)CO
InChI: InChI=1S/C16H20N4O4S/c1-11(2)18-16(22)20-25(23,24)15-9-17-7-6-14(15)19-13-5-3-4-12(8-13)10-21/h3-9,11,21H,10H2,1-2H3,(H,17,19)(H2,18,20,22)
Instrument: TripleTOF 5600 SCIEX
Instrument type: LC-ESI-QTOF
Ms type: MS2
Ion mode: POSITIVE
Collision energy: 80
Fragmentation mode: CID
Ionization: ESI
Column name: Zorbax Eclipse Plus C18 2.1 mm x 150 mm, 3.5 um, Agilent
Retention time: 5.824 min
Precursor m/z: 365.1278
Precursor type: [M+H]+
m/z	relative intensity
67.0449	20
75.0246	14
77.0421	84
78.037	12
79.0427	17
81.0465	29
89.0395	83
90.0464	17
98.0074	24
101.0392	46
103.0559	19
113.0387	17
114.046	87
115.0541	999
116.0495	92
117.0573	81
124.01	20
125.0155	31
125.0337	10
126.0473	24
127.0533	185
128.0488	238
129.0523	51
130.0643	33
137.0166	32
140.0497	233
141.0574	175
142.0638	215
143.0618	22
150.0251	14
152.0031	12
152.0491	39
153.0565	86
154.0644	196
155.0604	113
156.0667	57
157.0771	27
161.0184	10
166.0525	16
167.0602	119
168.0678	934
169.0758	918
175.0323	13
179.0602	112
180.0679	104
181.0761	781
182.0839	268
183.0562	15
184.0626	47
185.0701	43
187.0327	79
189.0479	13
197.0702	139
198.0756	15
199.0865	227
200.0408	11
215.0839	12
216.0357	10
