Mass spectrum: Norfloxacin; LC-ESI-QTOF; MS2; 120 V
Name: Norfloxacin
Class: Antimicrobial; Pharmaceutical
Formula: C16H18FN3O3
Exact mass: 319.1332
SMILES: CCN1C=C(C(=O)C2=CC(=C(C=C21)N3CCNCC3)F)C(=O)O
InChI: InChI=1S/C16H18FN3O3/c1-2-19-9-11(16(22)23)15(21)10-7-12(17)14(8-13(10)19)20-5-3-18-4-6-20/h7-9,18H,2-6H2,1H3,(H,22,23)
Instrument: TripleTOF 5600 SCIEX
Instrument type: LC-ESI-QTOF
Ms type: MS2
Ion mode: POSITIVE
Collision energy: 120
Fragmentation mode: CID
Ionization: ESI
Column name: Zorbax Eclipse Plus C18 2.1 mm x 150 mm, 3.5 um, Agilent
Retention time: 5.167 min
Precursor m/z: 320.1405
Precursor type: [M+H]+
m/z	relative intensity
74.0199	214
75.0266	606
77.0418	178
87.0243	178
89.0428	178
94.022	178
95.0328	249
99.0257	285
100.0216	214
101.0418	356
102.0372	178
105.0127	463
106.0182	321
107.031	749
114.0346	356
126.0347	214
132.0231	999
133.0344	606
134.0415	249
135.0449	285
139.0321	249
146.0414	249
173.0538	178
