Mass spectrum: Fluometuron; LC-ESI-QTOF; MS2; 50 V
Name: Fluometuron
Class: Herbicide
Formula: C10H11F3N2O
Exact mass: 232.0823
InChI: InChI=1S/C10H11F3N2O/c1-15(2)9(16)14-8-5-3-4-7(6-8)10(11,12)13/h3-6H,1-2H3,(H,14,16)
Instrument: TripleTOF 5600 SCIEX
Instrument type: LC-ESI-QTOF
Ms type: CID
Ion mode: POSITIVE
Collision energy: 50
Ionization: ESI
Column name: Zorbax Eclipse Plus C18 2.1 mm x 150 mm, 3.5 um, Agilent
Retention time: 9.983 min
Precursor m/z: 233.0896
Precursor type: [M+H]+
m/z	relative intensity
72.0487	999
140.0291	56
145.0253	154
160.0393	84
