Mass spectrum: Morantel; LC-ESI-QTOF; MS2; 120 V
Name: Morantel
Class: Pharmaceutical
Formula: C12H16N2S
Exact mass: 220.1034
SMILES: CN1CCCN=C1/C=C/c2sccc2C
InChI: InChI=1S/C12H16N2S/c1-10-6-9-15-11(10)4-5-12-13-7-3-8-14(12)2/h4-6,9H,3,7-8H2,1-2H3/b5-4+
Instrument: TripleTOF 5600 SCIEX
Instrument type: LC-ESI-QTOF
Ms type: MS2
Ion mode: POSITIVE
Collision energy: 120
Fragmentation mode: CID
Ionization: ESI
Column name: Zorbax Eclipse Plus C18 2.1 mm x 150 mm, 3.5 um, Agilent
Retention time: 6.042 min
Precursor m/z: 221.1107
Precursor type: [M+H]+
m/z	relative intensity
44.0588	33
45.0118	33
45.0259	26
51.0294	701
52.0361	46
53.0449	72
57.9912	52
60.0042	26
64.0361	33
65.0427	92
68.9833	410
69.9902	33
70.9988	33
74.018	52
75.0261	39
77.0414	999
77.0763	33
78.0487	218
79.0577	46
81.9916	33
84.0028	33
89.041	218
90.0449	33
91.0544	26
92.9794	66
94.9956	72
96.006	39
97.0104	99
104.0495	33
108.0037	33
121.0098	284
122.0205	26
