Mass spectrum: 3-Desmethyl-trimethoprim; LC-ESI-QTOF; MS2; 100 V
Name: 3-Desmethyl-trimethoprim
Class: Pharmaceutical; Transformation_product
Formula: C13H16N4O3
Exact mass: 276.1222
SMILES: OC1=CC(CC2=CN=C(N=C2N)N)=CC(OC)=C1OC
InChI: InChI=1S/C13H16N4O3/c1-19-10-5-7(4-9(18)11(10)20-2)3-8-6-16-13(15)17-12(8)14/h4-6,18H,3H2,1-2H3,(H4,14,15,16,17)
Instrument: TripleTOF 5600 SCIEX
Instrument type: LC-ESI-QTOF
Ms type: MS2
Ion mode: POSITIVE
Collision energy: 100
Fragmentation mode: CID
Ionization: ESI
Column name: Zorbax Eclipse Plus C18 2.1 mm x 150 mm, 3.5 um, Agilent
Retention time: 5.021 min
Precursor m/z: 277.1295
Precursor type: [M+H]+
m/z	relative intensity
41.0399	64
43.0424	192
52.027	222
53.0107	24
53.021	44
53.0387	29
54.0431	395
55.0315	29
55.0465	24
65.0451	331
66.0377	34
66.0509	29
67.0358	49
67.0486	74
67.0603	34
68.0313	39
68.0427	93
69.002	19
69.0522	69
70.0548	39
74.0213	59
75.0273	237
76.0219	59
76.0367	49
77.0437	999
78.0388	276
79.0363	168
79.0463	64
79.0553	59
80.017	29
80.0549	148
81.0489	420
83.0526	54
87.0253	24
88.0214	54
89.0418	361
90.0377	128
91.044	34
91.0573	163
92.0518	148
93.0481	79
93.0585	69
94.0428	24
94.0551	192
94.0685	74
96.0586	49
99.0255	34
100.021	24
101.0394	158
102.0354	301
103.0327	138
103.0541	44
104.0502	341
105.0465	296
106.0528	128
107.0468	29
107.0587	44
108.0573	24
109.0521	89
110.0575	39
114.0354	123
115.0424	39
116.051	212
117.0452	69
117.0565	89
118.0557	187
119.0614	98
120.0567	222
121.0273	29
123.0664	64
126.0333	34
127.0432	24
128.0515	103
129.0458	153
130.0409	93
131.0558	29
131.0631	49
132.0523	54
133.0603	39
134.0613	29
135.0637	24
140.0407	24
141.0443	54
142.0507	59
143.0499	34
143.0644	19
144.0566	108
145.0747	29
146.0734	19
147.0661	306
148.075	64
149.0277	24
153.0455	39
156.0498	49
159.0686	24
160.0478	19
161.0848	59
185.0833	19
