Mass spectrum: 1-Oxo-ibuprofen; LC-ESI-QTOF; MS2; 130 V
Name: 1-Oxo-ibuprofen
Class: Pharmaceutical; Transformation_product
Formula: C13H16O3
Exact mass: 220.1099
SMILES: CC(C)C(=O)C1=CC=C(C=C1)C(C)C(=O)O
InChI: InChI=1S/C13H16O3/c1-8(2)12(14)11-6-4-10(5-7-11)9(3)13(15)16/h4-9H,1-3H3,(H,15,16)
Instrument: TripleTOF 5600 SCIEX
Instrument type: LC-ESI-QTOF
Ms type: MS2
Ion mode: POSITIVE
Collision energy: 130
Fragmentation mode: CID
Ionization: ESI
Column name: Zorbax Eclipse Plus C18 2.1 mm x 150 mm, 3.5 um, Agilent
Retention time: 10.239 min
Precursor m/z: 221.1172
Precursor type: [M+H]+
m/z	relative intensity
43.0267	708
65.0426	644
74.0192	322
75.0246	193
77.0405	999
86.0176	161
89.0394	386
91.0551	225
115.053	290
