Mass spectrum: (3-Carboxypropyl)triphenylphosphonium; LC-ESI-QTOF; MS2; 150 V
Name: (3-Carboxypropyl)triphenylphosphonium
Class: Pharmaceutical
Formula: [C22H22O2P]+
Exact mass: 349.1352
SMILES: c1ccc(cc1)[P+](CCCC(=O)O)(c2ccccc2)c3ccccc3
InChI: InChI=1S/C22H21O2P/c23-22(24)17-10-18-25(19-11-4-1-5-12-19,20-13-6-2-7-14-20)21-15-8-3-9-16-21/h1-9,11-16H,10,17-18H2/p+1
Instrument: TripleTOF 5600 SCIEX
Instrument type: LC-ESI-QTOF
Ms type: MS2
Ion mode: POSITIVE
Collision energy: 150
Fragmentation mode: CID
Ionization: ESI
Column name: Zorbax Eclipse Plus C18 2.1 mm x 150 mm, 3.5 um, Agilent
Retention time: 7.192 min
Precursor m/z: 349.1352
Precursor type: [M]+
m/z	relative intensity
56.9934	116
65.0411	114
79.9818	209
80.9896	317
89.0388	369
102.046	150
107.0043	999
113.0378	107
115.0538	379
126.0463	338
131.0033	126
133.0191	71
139.0532	293
150.0452	352
151.054	746
152.0617	793
155.0034	71
156.013	119
157.0198	424
180.0123	116
181.0198	424
183.0369	61
226.079	64
