Mass spectrum: Theophylline; LC-ESI-QTOF; MS2; 40 V
Name: Theophylline
Class: Pharmaceutical
Formula: C7H8N4O2
Exact mass: 180.0647
SMILES: CN1C2=C(C(=O)N(C1=O)C)NC=N2
InChI: InChI=1S/C7H8N4O2/c1-10-5-4(8-3-9-5)6(12)11(2)7(10)13/h3H,1-2H3,(H,8,9)
Instrument: TripleTOF 5600 SCIEX
Instrument type: LC-ESI-QTOF
Ms type: MS2
Ion mode: POSITIVE
Collision energy: 40
Fragmentation mode: CID
Ionization: ESI
Column name: Zorbax Eclipse Plus C18 2.1 mm x 150 mm, 3.5 um, Agilent
Retention time: 4.936 min
Precursor m/z: 181.072
Precursor type: [M+H]+
m/z	relative intensity
42.0431	966
54.0254	20
54.0396	16
55.0361	28
67.0325	48
68.0412	30
69.0483	917
81.0461	36
83.0266	65
93.0462	16
94.0393	116
95.0252	30
96.0561	738
97.0391	40
108.0547	26
109.026	150
110.0708	16
120.056	16
121.0487	30
122.0347	30
122.0586	26
124.0502	999
137.0805	12
181.0697	36
