Mass spectrum: Levamisole; LC-ESI-QTOF; MS2; 90 V
Name: Levamisole
Class: Pharmaceutical
Formula: C11H12N2S
Exact mass: 204.0721
SMILES: c1ccc(cc1)[C@H]2CN3CCSC3=N2
InChI: InChI=1S/C11H12N2S/c1-2-4-9(5-3-1)10-8-13-6-7-14-11(13)12-10/h1-5,10H,6-8H2/t10-/m1/s1
Instrument: TripleTOF 5600 SCIEX
Instrument type: LC-ESI-QTOF
Ms type: MS2
Ion mode: POSITIVE
Collision energy: 90
Fragmentation mode: CID
Ionization: ESI
Column name: Zorbax Eclipse Plus C18 2.1 mm x 150 mm, 3.5 um, Agilent
Retention time: 5.021 min
Precursor m/z: 205.0794
Precursor type: [M+H]+
m/z	relative intensity
42.0433	11
51.0304	498
52.0381	13
57.9923	15
58.9993	47
59.9951	136
64.0357	17
65.0439	793
71.9938	15
74.0184	51
75.0261	69
76.0341	38
77.042	999
78.0492	149
79.0565	15
89.0403	285
90.0482	57
91.056	665
101.0399	21
102.0467	115
103.0357	11
103.0542	180
115.0536	116
117.0568	44
126.0471	23
127.0547	49
128.0616	80
130.0647	78
