Mass spectrum: Etoricoxib; LC-ESI-QTOF; MS2; 140 V
Name: Etoricoxib
Class: Pharmaceutical
Formula: C18H15ClN2O2S
Exact mass: 358.0543
SMILES: CC1=NC=C(C=C1)C2=NC=C(C=C2C3=CC=C(C=C3)S(=O)(=O)C)Cl
InChI: InChI=1S/C18H15ClN2O2S/c1-12-3-4-14(10-20-12)18-17(9-15(19)11-21-18)13-5-7-16(8-6-13)24(2,22)23/h3-11H,1-2H3
Instrument: TripleTOF 5600 SCIEX
Instrument type: LC-ESI-QTOF
Ms type: MS2
Ion mode: POSITIVE
Collision energy: 140
Fragmentation mode: CID
Ionization: ESI
Column name: Zorbax Eclipse Plus C18 2.1 mm x 150 mm, 3.5 um, Agilent
Retention time: 6.991 min
Precursor m/z: 359.0616
Precursor type: [M+H]+
m/z	relative intensity
65.0443	13
74.0191	80
75.0277	88
76.0347	47
77.043	74
78.0461	18
85.0123	14
86.018	39
87.0266	68
88.0344	17
89.0418	55
97.0081	10
98.017	160
99.0245	144
100.0277	68
101.0393	31
102.0469	52
110.0156	31
111.0227	46
112.021	12
113.0391	83
114.0384	46
115.0554	54
116.05	11
121.0057	11
122.0157	92
123.0234	150
124.0284	101
125.0394	96
126.0463	167
127.0436	53
128.0546	12
134.0135	13
135.0227	14
136.0253	13
137.0387	99
138.0429	84
139.0537	237
140.0503	168
141.0564	21
142.0639	11
146.0149	20
147.0203	39
148.0278	82
149.0388	437
150.0459	644
151.0498	280
152.0548	155
153.0559	52
161.0384	101
162.0448	132
163.0539	520
164.0498	281
165.0546	100
166.0652	111
167.0705	26
172.0303	15
173.039	109
174.0456	871
175.0476	631
176.0527	340
177.0546	195
178.053	43
179.0607	14
185.0401	43
186.0464	118
187.0534	961
188.0534	627
189.0664	396
190.0644	210
191.0603	69
192.0685	31
193.0758	13
198.0442	45
199.0424	253
200.0496	218
201.0566	720
202.0621	123
203.0669	42
204.0591	17
211.0393	14
212.0481	310
213.0224	15
213.0561	273
214.0643	999
215.0682	237
216.0754	112
217.0771	14
223.03	10
224.0269	19
225.0531	37
226.0282	12
226.0526	88
227.0596	125
228.065	27
239.0591	110
240.0682	123
241.0748	190
242.0815	50
250.0414	21
275.0409	19
276.0406	17
