Mass spectrum: 2-(5-Chloro-2-methoxyphenyl)-1H-benzimidazole; LC-ESI-QTOF; MS2; 100 V
Name: 2-(5-Chloro-2-methoxyphenyl)-1H-benzimidazole
Class: Pharmaceutical
Formula: C14H11ClN2O
Exact mass: 258.056
SMILES: COc1ccc(cc1c2[nH]c3ccccc3n2)Cl
InChI: InChI=1S/C14H11ClN2O/c1-18-13-7-6-9(15)8-10(13)14-16-11-4-2-3-5-12(11)17-14/h2-8H,1H3,(H,16,17)
Instrument: TripleTOF 5600 SCIEX
Instrument type: LC-ESI-QTOF
Ms type: MS2
Ion mode: POSITIVE
Collision energy: 100
Fragmentation mode: CID
Ionization: ESI
Column name: Zorbax Eclipse Plus C18 2.1 mm x 150 mm, 3.5 um, Agilent
Retention time: 7.374 min
Precursor m/z: 259.0633
Precursor type: [M+H]+
m/z	relative intensity
52.0239	30
53.0434	56
63.0615	39
64.034	109
65.043	709
72.9899	21
74.0196	109
75.0257	389
75.0523	21
76.0216	92
76.0328	87
77.0419	999
78.0355	48
78.0474	21
89.0384	61
90.0343	271
91.043	109
91.0589	21
92.051	118
99.0224	65
100.0186	26
100.0322	35
101.0382	258
102.0337	495
103.042	127
103.0581	26
104.0503	52
113.0398	21
114.0338	39
114.0469	21
115.0407	39
115.0505	35
118.0528	43
119.0586	17
125.0369	140
126.0323	48
126.0458	324
127.053	573
128.0504	354
129.0476	192
130.0398	78
131.0592	48
140.0487	56
141.0497	30
142.0529	83
143.064	26
151.0419	21
152.0497	297
153.0559	276
154.0632	105
154.0779	39
155.0586	87
166.0551	21
178.0552	26
179.059	556
180.0673	127
181.0749	52
