Mass spectrum: Dimethomorph; LC-ESI-QTOF; MS2; 90 V
Name: Dimethomorph
Class: Fungicide
Formula: C21H22ClNO4
Exact mass: 387.1237
SMILES: COc1ccc(cc1OC)/C(=C\C(=O)N2CCOCC2)/c3ccc(cc3)Cl
InChI: InChI=1S/C21H22ClNO4/c1-25-19-8-5-16(13-20(19)26-2)18(15-3-6-17(22)7-4-15)14-21(24)23-9-11-27-12-10-23/h3-8,13-14H,9-12H2,1-2H3/b18-14-
Instrument: TripleTOF 5600 SCIEX
Instrument type: LC-ESI-QTOF
Ms type: MS2
Ion mode: POSITIVE
Collision energy: 90
Fragmentation mode: CID
Ionization: ESI
Column name: Zorbax Eclipse Plus C18 2.1 mm x 150 mm, 3.5 um, Agilent
Retention time: 11.552 min
Precursor m/z: 388.131
Precursor type: [M+H]+
m/z	relative intensity
42.0419	20
65.0428	20
66.0507	57
70.0326	48
74.017	12
75.0261	53
77.0416	166
79.0564	36
89.0402	47
90.0469	16
92.027	23
94.0426	50
99.0007	25
101.0378	10
102.0462	19
107.0124	27
110.9998	236
115.0543	21
121.0287	85
122.0361	60
125.015	84
126.0467	21
137.0592	19
138.9955	50
139.0535	21
141.0701	14
149.0149	23
150.0462	27
151.0546	156
152.0627	999
153.0709	10
162.9954	15
163.0545	210
164.0622	357
165.0698	637
166.077	91
167.0852	30
173.0161	15
175.0544	11
176.0622	260
177.0695	70
178.0779	173
180.0565	63
181.0647	11
186.0227	21
187.0303	42
189.0697	10
192.056	34
193.0646	15
194.0723	72
195.0793	24
198.0243	16
199.0308	568
205.0626	18
212.0376	53
215.0248	50
227.0252	106
228.0313	10
241.0391	15
242.0489	14
243.0209	24
