Mass spectrum: Salicylamide; LC-ESI-QTOF; MS2; 70 V
Name: Salicylamide
Formula: C7H7NO2
Exact mass: 137.0477
SMILES: C1=CC=C(C(=C1)C(=O)N)O
InChI: InChI=1S/C7H7NO2/c8-7(10)5-3-1-2-4-6(5)9/h1-4,9H,(H2,8,10)
Instrument: TripleTOF X500R SCIEX
Instrument type: LC-ESI-QTOF
Ms type: MS2
Ion mode: POSITIVE
Collision energy: 70
Fragmentation mode: CID
Ionization: ESI
Column name: Zorbax Eclipse Plus C18 2.1 mm x 150 mm, 3.5 um, Agilent
Retention time: 6.236 min
Precursor m/z: 138.055
Precursor type: [M+H]+
m/z	relative intensity
37.0073	222
38.0155	248
39.0231	999
44.0131	179
50.0146	100
51.0232	148
53.0018	84
63.0254	31
65.0397	52
74.0158	79
75.0107	26
