Mass spectrum: Terfenadine; LC-ESI-QTOF; MS2; 80 V
Name: Terfenadine
Class: Pharmaceutical
Formula: C32H41NO2
Exact mass: 471.3137
SMILES: CC(C)(C)C1=CC=C(C=C1)C(CCCN2CCC(CC2)C(C3=CC=CC=C3)(C4=CC=CC=C4)O)O
InChI: InChI=1S/C32H41NO2/c1-31(2,3)26-18-16-25(17-19-26)30(34)15-10-22-33-23-20-29(21-24-33)32(35,27-11-6-4-7-12-27)28-13-8-5-9-14-28/h4-9,11-14,16-19,29-30,34-35H,10,15,20-24H2,1-3H3
Instrument: TripleTOF 6600 SCIEX
Instrument type: LC-ESI-QTOF
Ms type: MS2
Ion mode: POSITIVE
Collision energy: 80
Fragmentation mode: CID
Ionization: ESI
Column name: Zorbax Eclipse Plus C18 2.1 mm x 150 mm, 3.5 um, Agilent
Retention time: 10.223 min
Precursor m/z: 472.321
Precursor type: [M+H]+
m/z	relative intensity
39.0218	65
41.0371	195
56.0474	32
57.068	999
65.0368	58
68.0481	97
69.0554	32
70.0631	45
77.0359	32
79.0517	58
80.0467	78
81.0677	32
82.0627	169
83.0707	52
84.0795	26
91.052	881
94.0632	45
96.0784	143
98.0943	150
103.0512	65
105.0677	182
110.0937	32
115.0518	169
116.0592	45
117.0673	287
118.0765	32
119.0828	124
120.0773	58
122.0944	39
124.1088	71
127.0513	52
128.0593	293
129.0669	378
131.0824	280
132.0898	176
141.0668	52
143.0822	52
145.1001	32
146.0697	65
147.1141	163
152.0585	58
155.0588	32
161.0932	319
165.0666	84
166.0743	39
167.0825	39
170.0931	39
178.0756	45
184.1095	39
190.0745	32
191.0832	65
202.074	39
203.0827	150
204.0897	117
205.101	39
215.0827	78
216.0907	45
217.0988	65
218.1065	45
219.1051	39
