Mass spectrum: Pentaethyleneglycol dimethyl ether-candidate; LC-ESI-QTOF; MS2; 40 V
Name: Pentaethyleneglycol dimethyl ether-candidate
Class: Industrial_process
Formula: C12H26O6
Exact mass: 266.1729
SMILES: COCCOCCOCCOCCOCCOC
InChI: InChI=1S/C12H26O6/c1-13-3-5-15-7-9-17-11-12-18-10-8-16-6-4-14-2/h3-12H2,1-2H3
Instrument: TripleTOF 6600 SCIEX
Instrument type: LC-ESI-QTOF
Ms type: MS2
Ion mode: POSITIVE
Collision energy: 40
Fragmentation mode: CID
Ionization: ESI
Column name: Zorbax Eclipse Plus C18 2.1 mm x 150 mm, 3.5 um, Agilent
Retention time: 6.36 min
Precursor m/z: 267.1794
Precursor type: [M+H]+
m/z	relative intensity
41.0374	23
43.0164	38
45.0323	35
59.0471	999
79.0511	24
91.0509	87
93.0669	40
98.9768	29
103.0716	235
105.0664	85
107.0814	24
109.0598	26
115.0506	38
117.0646	35
119.0829	82
121.0596	36
123.0283	25
129.0661	53
131.0817	31
133.0656	32
133.0978	45
135.0257	24
137.0586	55
142.0737	25
143.0787	32
145.0969	27
147.0778	67
147.1169	36
149.0575	52
151.0373	21
153.0547	21
156.8854	23
157.0968	45
158.0635	23
159.0734	23
159.111	20
160.0859	22
161.0478	25
161.0936	54
164.1116	22
165.0017	31
165.0628	75
167.067	35
175.0376	23
179.0346	31
179.0888	31
187.0591	22
189.078	53
193.07	24
199.0055	35
203.0186	24
203.0919	42
204.0893	24
207.0753	22
220.071	25
221.116	25
267.1004	41
