Mass spectrum: Doxepin; LC-ESI-QTOF; MS2; 60 V
Name: Doxepin
Class: Pharmaceutical
Formula: C19H21NO
Exact mass: 279.1623
SMILES: CN(C)CCC=C1C2=CC=CC=C2COC3=CC=CC=C31
InChI: InChI=1S/C19H21NO/c1-20(2)13-7-11-17-16-9-4-3-8-15(16)14-21-19-12-6-5-10-18(17)19/h3-6,8-12H,7,13-14H2,1-2H3
Instrument: TripleTOF 5600 SCIEX
Instrument type: LC-ESI-QTOF
Ms type: MS2
Ion mode: POSITIVE
Collision energy: 60
Fragmentation mode: CID
Ionization: ESI
Column name: Zorbax Eclipse Plus C18 2.1 mm x 150 mm, 3.5 um, Agilent
Retention time: 7.447 min
Precursor m/z: 280.1696
Precursor type: [M+H]+
m/z	relative intensity
42.0474	33
55.0256	12
58.0735	111
65.0456	66
70.0714	72
77.0443	721
79.0598	305
82.0709	13
84.0859	133
89.043	25
91.0584	479
103.0575	51
105.0731	22
107.0522	507
115.0568	790
116.0652	21
117.0722	165
127.0564	96
128.0639	271
129.072	104
131.051	89
139.055	19
141.0712	338
142.078	39
151.0554	39
152.0628	266
153.0717	18
163.0539	16
164.0629	35
165.0703	999
166.0777	160
167.0857	78
168.0573	44
176.0625	82
177.0693	94
178.0778	672
179.0855	94
181.0654	25
189.0703	229
190.0779	175
191.0854	558
192.0925	102
193.0639	48
194.0723	157
200.0604	56
201.0696	236
202.0772	769
203.0844	92
205.064	75
207.0793	42
213.0695	20
214.0791	11
215.0851	325
216.0922	21
218.0717	91
219.0792	227
220.0872	100
