Mass spectrum: 6-Methylthioguanine; LC-ESI-QTOF; MS2; 80 V
Name: 6-Methylthioguanine
Class: Metabolite; Pharmaceutical
Formula: C6H7N5S
Exact mass: 181.0422
SMILES: CSc1nc(N)nc2nc[nH]c12
InChI: InChI=1S/C6H7N5S/c1-12-5-3-4(9-2-8-3)10-6(7)11-5/h2H,1H3,(H3,7,8,9,10,11)
Instrument: TripleTOF 5600 SCIEX
Instrument type: LC-ESI-QTOF
Ms type: MS2
Ion mode: POSITIVE
Collision energy: 80
Fragmentation mode: CID
Ionization: ESI
Column name: Zorbax Eclipse Plus C18 2.1 mm x 150 mm, 3.5 um, Agilent
Retention time: 4.912 min
Precursor m/z: 182.0495
Precursor type: [M+H]+
m/z	relative intensity
38.0107	52
40.029	70
53.0193	885
53.0428	43
54.0278	262
55.035	166
55.9756	131
56.9834	52
65.0174	560
66.0255	148
67.0344	52
68.0278	762
68.0473	35
69.978	306
70.9865	999
71.9941	35
80.0268	166
80.0463	35
81.0349	157
81.9767	175
82.9847	622
84.9863	61
92.0267	52
95.9778	35
97.9947	52
99.0007	43
108.0419	52
