Mass spectrum: Metolachlor; LC-ESI-QTOF; MS2; 120 V
Name: Metolachlor
Class: Herbicide
Formula: C15H22ClNO2
Exact mass: 283.1339
SMILES: CCc1cccc(C)c1N(C(C)COC)C(=O)CCl
InChI: InChI=1S/C15H22ClNO2/c1-5-13-8-6-7-11(2)15(13)17(14(18)9-16)12(3)10-19-4/h6-8,12H,5,9-10H2,1-4H3
Instrument: TripleTOF 5600 SCIEX
Instrument type: LC-ESI-QTOF
Ms type: MS2
Ion mode: POSITIVE
Collision energy: 120
Fragmentation mode: CID
Ionization: ESI
Column name: Zorbax Eclipse Plus C18 2.1 mm x 150 mm, 3.5 um, Agilent
Retention time: 13.304 min
Precursor m/z: 284.1412
Precursor type: [M+H]+
m/z	relative intensity
43.0292	17
45.0408	203
48.9903	180
52.036	15
64.0351	15
65.0421	667
66.0494	75
67.0467	10
73.0677	20
74.0169	27
75.026	55
76.0332	30
77.0413	999
78.0349	25
78.0487	133
79.0558	65
80.053	20
89.0399	381
89.0793	17
90.0472	138
90.0629	12
91.0551	630
92.051	32
93.058	148
93.0706	15
101.0393	30
102.0465	100
103.054	273
103.0753	15
104.05	72
105.0679	32
106.0663	133
115.0538	424
116.0489	27
116.0602	20
117.0573	258
118.0649	82
127.0531	25
128.0523	82
129.0557	25
130.0652	527
130.0886	15
131.0726	17
132.0814	25
141.0568	25
142.0645	50
143.0724	77
144.08	70
154.0631	12
