Mass spectrum: N-desmethyl-venlafaxine; LC-ESI-QTOF; MS2; 40 V
Name: N-desmethyl-venlafaxine
Class: Pharmaceutical; Metabolite; Transformation_product-Metabolite
Formula: C16H25NO2
Exact mass: 263.1885
SMILES: CNCC(c1ccc(cc1)OC)C2(CCCCC2)O
InChI: InChI=1S/C16H25NO2/c1-17-12-15(16(18)10-4-3-5-11-16)13-6-8-14(19-2)9-7-13/h6-9,15,17-18H,3-5,10-12H2,1-2H3
Instrument: TripleTOF 5600 SCIEX
Instrument type: LC-ESI-QTOF
Ms type: MS2
Ion mode: POSITIVE
Collision energy: 40
Fragmentation mode: CID
Ionization: ESI
Column name: Zorbax Eclipse Plus C18 2.1 mm x 150 mm, 3.5 um, Agilent
Retention time: 6.444 min
Precursor m/z: 264.1958
Precursor type: [M+H]+
m/z	relative intensity
44.0584	544
69.0734	21
77.0415	38
78.0486	13
79.0561	47
81.0716	61
91.0555	299
93.0702	32
105.0704	20
107.0483	28
107.0862	30
115.053	36
117.0695	41
119.0512	9
119.0861	26
121.0653	999
127.0529	10
128.0622	16
129.0702	21
131.0482	20
132.0568	69
135.0806	56
141.0702	20
144.0579	36
145.0629	27
146.078	10
147.0806	443
148.0766	15
149.0834	50
158.0721	91
159.0802	135
161.0952	19
163.1	9
164.1078	21
173.0964	160
183.1158	10
215.1446	16
