Mass spectrum: Sotalol; LC-ESI-QTOF; MS2; 110 V
Name: Sotalol
Class: Pharmaceutical
Formula: C12H20N2O3S
Exact mass: 272.1195
SMILES: CC(C)NCC(C1=CC=C(C=C1)NS(=O)(=O)C)O
InChI: InChI=1S/C12H20N2O3S/c1-9(2)13-8-12(15)10-4-6-11(7-5-10)14-18(3,16)17/h4-7,9,12-15H,8H2,1-3H3
Instrument: TripleTOF 5600 SCIEX
Instrument type: LC-ESI-QTOF
Ms type: MS2
Ion mode: POSITIVE
Collision energy: 110
Fragmentation mode: CID
Ionization: ESI
Column name: Zorbax Eclipse Plus C18 2.1 mm x 150 mm, 3.5 um, Agilent
Retention time: 4.583 min
Precursor m/z: 273.1267
Precursor type: [M+H]+
m/z	relative intensity
53.0479	57
65.0452	137
67.0494	80
77.0432	999
78.0382	103
79.0589	390
80.055	269
89.0419	315
90.0484	91
91.0555	80
92.0541	45
93.0607	22
104.05	91
105.0587	34
106.0669	453
116.0496	97
117.0589	149
118.0557	40
131.0608	74
132.0678	63
