Mass spectrum: p-Phenetidine; LC-ESI-QTOF; MS2; 110 V
Name: p-Phenetidine
Formula: C8H11NO
Exact mass: 137.0841
SMILES: CCOC1=CC=C(C=C1)N
InChI: InChI=1S/C8H11NO/c1-2-10-8-5-3-7(9)4-6-8/h3-6H,2,9H2,1H3
Instrument: TripleTOF 6600 SCIEX
Instrument type: LC-ESI-QTOF
Ms type: MS2
Ion mode: POSITIVE
Collision energy: 110
Fragmentation mode: CID
Ionization: ESI
Column name: Zorbax Eclipse Plus C18 2.1 mm x 150 mm, 3.5 um, Agilent
Retention time: 4.84 min
Precursor m/z: 138.0914
Precursor type: [M+H]+
m/z	relative intensity
36.0004	275
37.0085	999
38.0036	94
38.0161	558
39.0237	330
49.008	267
50.0159	377
51.0248	39
53.0035	31
60.0013	94
61.0082	770
62.0162	684
63.0227	235
73.0082	86
74.0174	102
