Mass spectrum: Azo Rubin S; LC-ESI-QTOF; MS2; 90 V
Name: Azo Rubin S
Formula: C20H14N2O7S2
Exact mass: 458.0242
SMILES: C1=CC=C2C(=C1)C(=CC=C2S(=O)(=O)O)N=NC3=C(C4=CC=CC=C4C(=C3)S(=O)(=O)O)O
InChI: InChI=1S/C20H14N2O7S2/c23-20-15-8-4-3-7-14(15)19(31(27,28)29)11-17(20)22-21-16-9-10-18(30(24,25)26)13-6-2-1-5-12(13)16/h1-11,23H,(H,24,25,26)(H,27,28,29)
Instrument: TripleTOF 6600 SCIEX
Instrument type: LC-ESI-QTOF
Ms type: MS2
Ion mode: POSITIVE
Collision energy: 90
Fragmentation mode: CID
Ionization: ESI
Column name: Zorbax Eclipse Plus C18 2.1 mm x 150 mm, 3.5 um, Agilent
Retention time: 7.286 min
Precursor m/z: 459.0315
Precursor type: [M+H]+
m/z	relative intensity
52.0179	34
64.9687	14
77.0379	187
80.0125	151
89.0379	87
101.0377	11
102.0452	21
103.0536	444
104.049	28
105.032	40
114.0447	17
115.0534	368
116.0487	108
126.0325	23
128.0498	17
129.042	12
130.0644	999
131.0476	27
140.0484	108
141.0561	10
142.0643	116
143.0734	51
158.0588	257
240.0801	20
251.0711	30
252.0771	16
266.0847	64
267.0901	38
268.0981	20
278.0878	26
279.089	51
280.0997	12
