Mass spectrum: Malachite green cation; LC-ESI-QTOF; MS2; 80 V
Name: Malachite green cation
Class: Industrial_process; Pigment
Formula: [C23H25N2]+
Exact mass: 329.2012
SMILES: CN(C)C1=CC=C(C=C1)C(=C2C=CC(=[N+](C)C)C=C2)C3=CC=CC=C3
InChI: InChI=1S/C23H25N2/c1-24(2)21-14-10-19(11-15-21)23(18-8-6-5-7-9-18)20-12-16-22(17-13-20)25(3)4/h5-17H,1-4H3/q+1
Instrument: TripleTOF 5600 SCIEX
Instrument type: LC-ESI-QTOF
Ms type: MS2
Ion mode: POSITIVE
Collision energy: 80
Fragmentation mode: CID
Ionization: ESI
Column name: Zorbax Eclipse Plus C18 2.1 mm x 150 mm, 3.5 um, Agilent
Retention time: 9.29 min
Precursor m/z: 329.2012
Precursor type: [M]+
m/z	relative intensity
91.052	58
118.0639	50
152.0579	75
163.0529	83
164.062	285
165.0693	999
166.0773	75
189.0742	67
190.0689	75
191.0735	125
192.0798	545
193.0896	125
194.0914	67
202.0772	117
207.1108	83
208.1089	243
213.0714	50
215.0843	277
219.0883	58
221.1027	92
226.0782	277
227.0863	75
228.0901	176
229.0995	58
235.1205	58
239.0852	898
240.0927	310
241.1003	856
242.1083	100
254.0909	176
255.0998	50
255.1103	50
256.1122	67
267.1008	117
268.1106	402
269.1197	193
270.127	83
284.1432	268
297.1342	193
311.1536	50
313.1602	92
