Mass spectrum: Iohexol; LC-ESI-QTOF; MS2; 50 V
Name: Iohexol
Class: Pharmaceutical
Formula: C19H26I3N3O9
Exact mass: 820.8803
SMILES: CC(=O)N(CC(O)CO)c1c(I)c(C(=O)NCC(O)CO)c(I)c(C(=O)NCC(O)CO)c1I
InChI: InChI=1S/C19H26I3N3O9/c1-8(29)25(4-11(32)7-28)17-15(21)12(18(33)23-2-9(30)5-26)14(20)13(16(17)22)19(34)24-3-10(31)6-27/h9-11,26-28,30-32H,2-7H2,1H3,(H,23,33)(H,24,34)
Instrument: TripleTOF 5600 SCIEX
Instrument type: LC-ESI-QTOF
Ms type: MS2
Ion mode: POSITIVE
Collision energy: 50
Fragmentation mode: CID
Ionization: ESI
Column name: Zorbax Eclipse Plus C18 2.1 mm x 150 mm, 3.5 um, Agilent
Retention time: 4.533 min
Precursor m/z: 821.8876
Precursor type: [M+H]+
m/z	relative intensity
285.9384	18
301.9292	37
307.0912	37
321.1102	93
329.9665	14
345.9634	14
350.987	44
357.9588	111
362.9828	52
374.9851	492
384.9385	14
386.9797	26
389.0002	37
398.9896	29
399.1685	44
400.9655	18
403.0143	55
407.0025	14
410.8212	26
413.0043	22
413.8079	14
416.995	52
425.8101	18
425.8499	22
431.0117	156
435.0047	160
437.0206	52
439.8197	22
442.8449	14
448.0369	85
449.0248	309
451.8297	223
452.8378	14
458.8781	22
458.9963	14
466.047	141
469.8432	41
484.8622	100
486.8866	18
498.8596	29
500.8845	249
501.892	268
510.8551	14
510.887	26
512.8864	74
514.8576	18
524.8838	119
526.0731	33
528.879	387
542.8936	395
557.9248	93
560.9029	342
565.726	63
573.9435	18
575.9277	137
579.7446	26
583.7421	41
591.9422	219
602.9137	443
602.9638	14
626.7807	443
639.7646	145
640.7958	70
652.7973	141
652.9789	44
656.7891	544
670.808	41
670.8246	18
712.8112	41
717.8417	22
730.8381	67
803.882	999
