Mass spectrum: Rifaximin; LC-ESI-QTOF; MS2; 130 V
Name: Rifaximin
Class: Pharmaceutical
Formula: C43H51N3O11
Exact mass: 785.3524
SMILES: CC1C=CC=C(C(=O)NC2=C(C3=C(C4=C(C(=C3O)C)OC(C4=O)(OC=CC(C(C(C(C(C(C1O)C)O)C)OC(=O)C)C)OC)C)C5=C2N6C=CC(=CC6=N5)C)O)C
InChI: InChI=1S/C43H51N3O11/c1-19-14-16-46-28(18-19)44-32-29-30-37(50)25(7)40-31(29)41(52)43(9,57-40)55-17-15-27(54-10)22(4)39(56-26(8)47)24(6)36(49)23(5)35(48)20(2)12-11-13-21(3)42(53)45-33(34(32)46)38(30)51/h11-18,20,22-24,27,35-36,39,48-51H,1-10H3,(H,45,53)
Instrument: TripleTOF 6600 SCIEX
Instrument type: LC-ESI-QTOF
Ms type: MS2
Ion mode: NEGATIVE
Collision energy: 130
Fragmentation mode: CID
Ionization: ESI
Column name: Zorbax Eclipse Plus C18 2.1 mm x 150 mm, 3.5 um, Agilent
Retention time: 11.765 min
Precursor m/z: 784.3451
Precursor type: [M-H]-
m/z	relative intensity
41.9967	18
59.0111	39
107.0471	11
108.0435	16
121.0638	16
155.0338	9
156.0513	39
169.0338	14
171.0396	11
193.0691	11
197.0352	16
205.0743	11
217.0692	11
223.0532	9
223.0838	11
231.0868	14
233.0662	28
233.093	9
234.0683	16
235.0789	60
236.0858	11
241.0565	25
244.0863	11
245.0695	14
246.0734	28
246.0989	11
247.0835	51
248.0837	46
249.0616	16
249.0875	95
250.092	49
251.0364	11
257.0831	9
258.069	14
258.1011	30
259.0692	16
259.0831	44
260.0775	49
260.1084	11
261.0625	28
261.0899	86
262.0721	112
262.0951	126
263.0667	102
267.0351	11
271.0748	30
272.0532	16
272.0813	44
273.0606	16
273.0849	25
273.0983	11
274.0668	21
274.0949	28
275.0774	77
275.1013	9
276.0846	269
276.1095	18
277.0818	311
278.0664	28
278.0886	114
279.0738	49
284.0788	16
285.0854	44
286.0683	18
286.0942	147
287.0728	79
288.0733	109
288.1095	21
289.0581	16
289.0834	121
290.0642	23
290.0889	161
291.0733	30
291.0951	44
292.0745	18
292.1015	30
293.0505	18
293.0855	11
298.0692	9
299.0737	14
300.0739	67
301.0503	21
301.0761	21
301.0901	81
302.0882	88
303.0698	56
303.0939	51
304.0723	91
304.1036	243
305.0512	11
305.0878	159
306.0845	257
307.0914	11
308.0732	11
308.0978	16
312.0716	11
313.08	37
314.06	21
314.0876	133
315.0719	156
316.0705	170
317.053	11
317.0794	102
318.0878	56
319.0621	30
319.1032	72
320.071	14
326.0984	11
328.0724	44
328.1079	11
329.0853	95
330.0545	14
330.0822	999
331.0691	170
332.0989	278
333.0823	128
333.1023	14
334.0778	84
334.1108	35
338.0959	18
340.0675	9
340.1097	18
341.0818	21
341.1082	14
342.0827	39
343.0651	39
343.0914	112
344.0705	74
344.1045	16
345.0812	222
346.0772	77
346.1143	9
347.0976	131
351.1116	11
353.1072	11
354.081	23
356.0963	14
357.0684	18
358.0777	154
359.0845	294
360.0563	18
360.0922	416
361.0969	25
362.1087	42
364.1471	14
365.1115	14
366.0911	23
366.1223	16
367.1064	11
368.0999	14
369.0879	21
370.0758	21
371.1007	39
372.091	44
373.099	16
374.1089	14
378.1225	14
380.1009	14
381.1136	46
382.1098	11
383.0998	16
384.0966	25
384.1253	9
385.1067	18
386.072	44
386.1125	16
388.0873	16
393.1088	16
395.1211	18
396.0946	21
397.1139	16
398.1083	21
408.1001	28
409.112	16
410.1099	18
411.1257	23
420.0937	23
421.111	18
422.1556	21
424.1197	21
436.1302	11
438.1001	18
452.1146	11
454.1294	16
