Mass spectrum: 1-Hydroxybenzotriazol; LC-ESI-QTOF; MS2; 70 V
Name: 1-Hydroxybenzotriazol
Class: Pharmaceutical; Industrial_process; Transformation_product
Formula: C6H5N3O
Exact mass: 135.0433
SMILES: c1ccc2c(c1)nnn2O
InChI: InChI=1S/C6H5N3O/c10-9-6-4-2-1-3-5(6)7-8-9/h1-4,10H
Instrument: TripleTOF 5600 SCIEX
Instrument type: LC-ESI-QTOF
Ms type: MS2
Ion mode: POSITIVE
Collision energy: 70
Fragmentation mode: CID
Ionization: ESI
Column name: Zorbax Eclipse Plus C18 2.1 mm x 150 mm, 3.5 um, Agilent
Retention time: 5.24 min
Precursor m/z: 136.0505
Precursor type: [M+H]+
m/z	relative intensity
50.0192	27
51.0161	17
51.0276	27
52.0241	204
60.0051	29
61.0127	223
62.0202	483
63.0278	999
64.0223	19
64.0345	61
65.0287	70
75.014	17
76.0203	53
