Mass spectrum: Cyclohexyldiethanolamine; LC-ESI-QTOF; MS2; 40 V
Name: Cyclohexyldiethanolamine
Formula: C10H21NO2
Exact mass: 187.1572
SMILES: C1CCC(CC1)N(CCO)CCO
InChI: InChI=1S/C10H21NO2/c12-8-6-11(7-9-13)10-4-2-1-3-5-10/h10,12-13H,1-9H2
Instrument: TripleTOF 6600 SCIEX
Instrument type: LC-ESI-QTOF
Ms type: MS2
Ion mode: POSITIVE
Collision energy: 40
Fragmentation mode: CID
Ionization: ESI
Column name: Zorbax Eclipse Plus C18 2.1 mm x 150 mm, 3.5 um, Agilent
Retention time: 4.323 min
Precursor m/z: 188.1645
Precursor type: [M+H]+
m/z	relative intensity
39.0223	92
41.0384	136
42.0337	186
43.0534	16
44.0493	205
45.0333	146
53.0376	14
55.0539	999
56.0574	12
68.0508	26
70.0648	765
83.0841	299
88.075	733
106.0859	418
188.1679	42
