Mass spectrum: Tributylphosphine oxide; LC-ESI-QTOF; MS2; 110 V
Name: Tributylphosphine oxide
Class: Industrial_process
Formula: C12H27OP
Exact mass: 218.18
SMILES: CCCC[P](=O)(CCCC)CCCC
InChI: InChI=1S/C12H27OP/c1-4-7-10-14(13,11-8-5-2)12-9-6-3/h4-12H2,1-3H3
Instrument: TripleTOF 5600 SCIEX
Instrument type: LC-ESI-QTOF
Ms type: MS2
Ion mode: POSITIVE
Collision energy: 110
Fragmentation mode: CID
Ionization: ESI
Column name: Zorbax Eclipse Plus C18 2.1 mm x 150 mm, 3.5 um, Agilent
Retention time: 11.114 min
Precursor m/z: 219.1872
Precursor type: [M+H]+
m/z	relative intensity
43.9882	48
44.997	326
45.021	13
45.0349	11
47.0108	20
55.986	13
56.9937	106
59.0085	21
61.0224	13
63.0042	999
65.0428	28
75.0023	10
77.0177	103
77.0417	31
78.0251	31
78.0478	11
89.041	13
91.0543	20
115.0536	35
128.062	18
