Mass spectrum: 2,6-Dichlorodiphenylamine; LC-ESI-QTOF; MS2; 30 V
Name: 2,6-Dichlorodiphenylamine
Class: Pharmaceutical
Formula: C12H9Cl2N
Exact mass: 237.0112
SMILES: C1=CC=C(C=C1)NC2=C(C=CC=C2Cl)Cl
InChI: InChI=1S/C12H9Cl2N/c13-10-7-4-8-11(14)12(10)15-9-5-2-1-3-6-9/h1-8,15H
Instrument: TripleTOF 5600 SCIEX
Instrument type: LC-ESI-QTOF
Ms type: MS2
Ion mode: POSITIVE
Collision energy: 30
Fragmentation mode: CID
Ionization: ESI
Column name: Zorbax Eclipse Plus C18 2.1 mm x 150 mm, 3.5 um, Agilent
Retention time: 14.125 min
Precursor m/z: 238.0185
Precursor type: [M+H]+
m/z	relative intensity
77.0434	37
90.0372	20
92.052	62
93.06	207
99.0008	17
123.9981	17
125.0048	22
126.0156	13
132.9605	100
159.9711	907
160.9788	363
167.0717	103
168.08	267
202.0433	38
203.0491	999
238.018	563
