Mass spectrum: Sulfamethazine; LC-ESI-QTOF; MS2; 90 V
Name: Sulfamethazine
Class: Antimicrobial; Pharmaceutical
Formula: C12H14N4O2S
Exact mass: 278.0837
SMILES: CC1=CC(=NC(=N1)NS(=O)(=O)C2=CC=C(C=C2)N)C
InChI: InChI=1S/C12H14N4O2S/c1-8-7-9(2)15-12(14-8)16-19(17,18)11-5-3-10(13)4-6-11/h3-7H,13H2,1-2H3,(H,14,15,16)
Instrument: TripleTOF 5600 SCIEX
Instrument type: LC-ESI-QTOF
Ms type: MS2
Ion mode: POSITIVE
Collision energy: 90
Fragmentation mode: CID
Ionization: ESI
Column name: Zorbax Eclipse Plus C18 2.1 mm x 150 mm, 3.5 um, Agilent
Retention time: 6.115 min
Precursor m/z: 279.091
Precursor type: [M+H]+
m/z	relative intensity
42.0475	56
51.0323	10
54.0421	21
65.0466	999
66.0406	147
67.0372	291
68.0572	22
77.0449	12
78.0394	29
80.0555	547
82.0711	61
83.0666	14
92.0544	210
93.0625	40
95.0654	152
96.0738	24
105.0493	15
107.0643	93
108.048	158
123.0825	12
124.0902	77
