Mass spectrum: Nicosulfuron; LC-ESI-QTOF; MS2; 130 V
Name: Nicosulfuron
Class: Herbicide
Formula: C15H18N6O6S
Exact mass: 410.1009
SMILES: CN(C)C(=O)C1=C(N=CC=C1)S(=O)(=O)NC(=O)NC2=NC(=CC(=N2)OC)OC
InChI: InChI=1S/C15H18N6O6S/c1-21(2)13(22)9-6-5-7-16-12(9)28(24,25)20-15(23)19-14-17-10(26-3)8-11(18-14)27-4/h5-8H,1-4H3,(H2,17,18,19,20,23)
Instrument: TripleTOF 6600 SCIEX
Instrument type: LC-ESI-QTOF
Ms type: MS2
Ion mode: POSITIVE
Collision energy: 130
Fragmentation mode: CID
Ionization: ESI
Column name: Zorbax Eclipse Plus C18 2.1 mm x 150 mm, 3.5 um, Agilent
Retention time: 8.499 min
Precursor m/z: 411.1081
Precursor type: [M+H]+
m/z	relative intensity
37.0051	16
38.0004	24
38.0128	10
39.0205	40
40.0162	38
40.9997	16
41.0244	35
42.0306	19
43.0267	43
44.0467	19
49.0056	30
50.0132	237
51.0209	848
52.0159	35
52.9996	24
53.0117	10
54.0321	13
55.0265	43
56.0106	84
57.0427	40
64.0154	65
65.011	177
65.0365	19
66.0186	21
66.032	10
67.0025	43
67.026	10
68.0108	106
68.9963	111
69.0058	158
70.0273	24
71.0577	21
76.0158	19
78.0316	999
80.0487	16
82.0258	27
83.0219	477
91.0264	51
93.0052	292
94.0137	19
110.0324	19
138.027	16
140.045	10
