Mass spectrum: Bosentan; LC-ESI-QTOF; MS2; 130 V
Name: Bosentan
Class: Pharmaceutical
Formula: C27H29N5O6S
Exact mass: 551.1839
SMILES: CC(C)(C)C1=CC=C(C=C1)S(=O)(=O)NC2=C(C(=NC(=N2)C3=NC=CC=N3)OCCO)OC4=CC=CC=C4OC
InChI: InChI=1S/C27H29N5O6S/c1-27(2,3)18-10-12-19(13-11-18)39(34,35)32-23-22(38-21-9-6-5-8-20(21)36-4)26(37-17-16-33)31-25(30-23)24-28-14-7-15-29-24/h5-15,33H,16-17H2,1-4H3,(H,30,31,32)
Instrument: TripleTOF 5600 SCIEX
Instrument type: LC-ESI-QTOF
Ms type: MS2
Ion mode: POSITIVE
Collision energy: 130
Fragmentation mode: CID
Ionization: ESI
Column name: Zorbax Eclipse Plus C18 2.1 mm x 150 mm, 3.5 um, Agilent
Retention time: 12.118 min
Precursor m/z: 552.1911
Precursor type: [M+H]+
m/z	relative intensity
43.0411	10
52.0286	52
53.0353	49
54.0436	10
65.046	175
75.0273	19
76.0347	15
77.0436	224
78.0498	63
79.034	723
80.0169	12
80.0418	578
81.0452	26
89.0409	37
90.0425	33
91.0426	19
91.0578	89
92.03	29
92.0521	71
93.0361	141
95.0513	19
97.0427	19
102.0352	66
103.0453	10
103.0558	19
104.0507	127
105.0651	40
106.0419	999
107.05	29
108.0566	23
114.0383	18
115.0524	41
116.0505	88
117.0694	35
118.0465	14
118.0572	16
119.0369	12
119.0616	71
120.045	250
121.0302	63
129.0437	10
130.0277	10
130.0431	14
131.0593	60
132.045	24
132.0674	12
133.0538	16
134.0451	21
134.0601	10
135.0531	20
143.0595	16
144.0442	23
147.0645	48
157.0522	21
197.0825	12
