Mass spectrum: 4,4`-Methylenebis(2-chloroaniline); LC-ESI-QTOF; MS2; 40 V
Name: 4,4`-Methylenebis(2-chloroaniline)
Formula: C13H12Cl2N2
Exact mass: 266.0378
SMILES: C1=CC(=C(C=C1CC2=CC(=C(C=C2)N)Cl)Cl)N
InChI: InChI=1S/C13H12Cl2N2/c14-10-6-8(1-3-12(10)16)5-9-2-4-13(17)11(15)7-9/h1-4,6-7H,5,16-17H2
Instrument: TripleTOF 6600 SCIEX
Instrument type: LC-ESI-QTOF
Ms type: MS2
Ion mode: POSITIVE
Collision energy: 40
Fragmentation mode: CID
Ionization: ESI
Column name: Zorbax Eclipse Plus C18 2.1 mm x 150 mm, 3.5 um, Agilent
Retention time: 11.747 min
Precursor m/z: 267.045
Precursor type: [M+H]+
m/z	relative intensity
77.0384	77
104.0488	391
105.056	13
115.0535	16
140.0259	813
141.0694	42
143.0746	15
151.0548	134
152.0602	55
153.0204	13
153.0591	18
154.0648	28
164.0272	20
166.0628	12
167.0729	158
168.08	327
169.0885	33
177.0566	22
178.0654	135
179.0693	116
180.0805	250
181.0776	11
190.0428	11
193.0776	30
194.0853	74
195.0916	999
196.0992	245
214.0414	147
216.0447	22
229.0522	10
231.0683	576
267.0457	436
