Mass spectrum: 11alpha-Hydroxyprogesterone; LC-ESI-QTOF; MS2; 80 V
Name: 11alpha-Hydroxyprogesterone
Class: Pharmaceutical; Metabolite
Formula: C21H30O3
Exact mass: 330.2195
SMILES: CC(=O)C1CC[C@H]2[C@@H]3CCC4=CC(=O)CC[C@]4(C)[C@H]3[C@H](O)C[C@]12C
InChI: InChI=1S/C21H30O3/c1-12(22)16-6-7-17-15-5-4-13-10-14(23)8-9-20(13,2)19(15)18(24)11-21(16,17)3/h10,15-19,24H,4-9,11H2,1-3H3/t15-,16?,17-,18+,19+,20-,21+/m0/s1
Instrument: TripleTOF 5600 SCIEX
Instrument type: LC-ESI-QTOF
Ms type: MS2
Ion mode: POSITIVE
Collision energy: 80
Fragmentation mode: CID
Ionization: ESI
Column name: Zorbax Eclipse Plus C18 2.1 mm x 150 mm, 3.5 um, Agilent
Retention time: 10.293 min
Precursor m/z: 331.2268
Precursor type: [M+H]+
m/z	relative intensity
43.0271	365
43.0498	36
53.0439	26
55.0231	63
55.0599	116
65.0417	116
67.0578	209
69.039	16
69.0732	16
71.0531	33
77.0413	809
77.074	13
78.0466	13
79.0568	408
81.0351	13
81.0706	155
83.0503	92
83.0641	36
89.0394	16
91.0559	999
91.0885	26
93.0701	195
94.0417	43
95.0504	23
95.0857	96
97.065	139
103.0541	149
104.0606	16
105.0691	428
107.0488	43
107.0864	39
108.0578	16
109.0641	63
115.0531	355
116.0603	82
117.0691	179
118.0763	16
119.0858	92
121.0634	195
123.0796	99
127.0535	106
128.0612	375
129.0696	252
130.0773	76
131.0467	29
131.085	69
132.0555	23
133.0633	39
133.1019	26
141.0683	242
142.076	92
143.0862	96
144.0964	19
145.0633	23
145.1019	43
146.0703	19
147.0802	43
148.0875	26
152.0611	63
153.0679	139
154.0751	56
155.0841	96
156.0887	19
157.102	26
165.0699	169
166.0786	29
167.0844	66
168.0889	13
169.0983	26
178.0783	36
179.0834	53
181.0989	13
189.0685	19
190.073	13
191.0841	26
193.1011	16
205.1004	16
