Mass spectrum: Morantel; LC-ESI-QTOF; MS2; 110 V
Name: Morantel
Class: Pharmaceutical
Formula: C12H16N2S
Exact mass: 220.1034
SMILES: CN1CCCN=C1/C=C/c2sccc2C
InChI: InChI=1S/C12H16N2S/c1-10-6-9-15-11(10)4-5-12-13-7-3-8-14(12)2/h4-6,9H,3,7-8H2,1-2H3/b5-4+
Instrument: TripleTOF 5600 SCIEX
Instrument type: LC-ESI-QTOF
Ms type: MS2
Ion mode: POSITIVE
Collision energy: 110
Fragmentation mode: CID
Ionization: ESI
Column name: Zorbax Eclipse Plus C18 2.1 mm x 150 mm, 3.5 um, Agilent
Retention time: 6.042 min
Precursor m/z: 221.1107
Precursor type: [M+H]+
m/z	relative intensity
51.0292	484
52.0387	41
53.0428	63
57.992	30
58.999	15
65.0417	82
68.0557	18
68.0656	15
68.9833	247
69.9892	41
70.9967	41
74.0188	30
75.0264	26
77.0416	999
77.0699	30
78.0357	26
78.0487	195
79.0574	56
80.05	15
81.99	26
84.0041	22
89.0396	187
90.0458	33
91.0535	41
92.9791	18
94.9946	52
96.0027	37
97.011	108
104.05	26
108.0026	22
115.0541	18
121.01	236
122.0054	15
122.0213	22
134.0159	15
