Mass spectrum: Meperidine; LC-ESI-QTOF; MS2; 100 V
Name: Meperidine
Class: Pharmaceutical
Formula: C15H21NO2
Exact mass: 247.1572
SMILES: CCOC(=O)C1(CCN(CC1)C)C2=CC=CC=C2
InChI: InChI=1S/C15H21NO2/c1-3-18-14(17)15(9-11-16(2)12-10-15)13-7-5-4-6-8-13/h4-8H,3,9-12H2,1-2H3
Instrument: TripleTOF 6600 SCIEX
Instrument type: LC-ESI-QTOF
Ms type: MS2
Ion mode: POSITIVE
Collision energy: 100
Fragmentation mode: CID
Ionization: ESI
Column name: Zorbax Eclipse Plus C18 2.1 mm x 150 mm, 3.5 um, Agilent
Retention time: 6.573 min
Precursor m/z: 248.1645
Precursor type: [M+H]+
m/z	relative intensity
37.0071	45
38.0151	46
39.0225	268
41.0259	17
41.0379	48
42.0338	601
43.0408	30
44.0493	397
50.0151	115
51.0226	480
53.0384	32
56.0495	10
61.0063	21
62.014	43
63.0223	157
65.0383	567
67.0404	31
68.05	10
70.064	43
74.0144	29
75.0226	32
76.0307	25
77.038	999
78.0462	48
79.0534	21
80.0487	57
81.0565	19
82.0643	43
89.0381	218
91.0535	523
94.0633	13
96.0791	12
101.0385	11
102.0451	122
103.0532	101
105.0448	18
114.046	13
115.0539	768
116.0621	26
126.0461	29
127.0539	87
128.0617	195
139.0554	10
155.0591	12
