Mass spectrum: 2-Aminobenzimidazole; LC-ESI-QTOF; MS2; 80 V
Name: 2-Aminobenzimidazole
Class: Transformation_product; Fungicide; Transformation_product-Metabolite
Formula: C7H7N3
Exact mass: 133.064
SMILES: C1=CC=C2C(=C1)NC(=N2)N
InChI: InChI=1S/C7H7N3/c8-7-9-5-3-1-2-4-6(5)10-7/h1-4H,(H3,8,9,10)
Instrument: TripleTOF 6600 SCIEX
Instrument type: LC-ESI-QTOF
Ms type: MS2
Ion mode: POSITIVE
Collision energy: 80
Fragmentation mode: CID
Ionization: ESI
Column name: Zorbax Eclipse Plus C18 2.1 mm x 150 mm, 3.5 um, Agilent
Retention time: 4.787 min
Precursor m/z: 134.0713
Precursor type: [M+H]+
m/z	relative intensity
35.9995	75
37.0073	400
38.0027	16
38.0151	341
39.023	999
40.0177	18
41.0261	10
43.0292	100
49.0072	15
50.0152	75
51.0226	71
52.0182	57
52.0305	13
53.0384	28
54.0336	13
61.0076	31
62.0153	57
63.0224	93
64.0177	36
65.0382	107
66.0456	12
80.0491	12
