Mass spectrum: 4-Desmethyl-trimethoprim; LC-ESI-QTOF; MS2; 30 V
Name: 4-Desmethyl-trimethoprim
Class: Pharmaceutical
Formula: C13H16N4O3
Exact mass: 276.1222
SMILES: COC1=CC(=CC(=C1O)OC)CC2=CN=C(N=C2N)N
InChI: InChI=1S/C13H16N4O3/c1-19-9-4-7(5-10(20-2)11(9)18)3-8-6-16-13(15)17-12(8)14/h4-6,18H,3H2,1-2H3,(H4,14,15,16,17)
Instrument: TripleTOF 5600 SCIEX
Instrument type: LC-ESI-QTOF
Ms type: MS2
Ion mode: POSITIVE
Collision energy: 30
Fragmentation mode: CID
Ionization: ESI
Column name: Zorbax Eclipse Plus C18 2.1 mm x 150 mm, 3.5 um, Agilent
Retention time: 4.783 min
Precursor m/z: 277.1295
Precursor type: [M+H]+
m/z	relative intensity
81.0465	25
123.0658	337
167.0678	19
187.0967	18
188.1039	15
216.0985	103
219.0867	33
232.0931	47
233.1013	106
243.0872	12
244.0937	33
245.1027	22
247.0816	50
261.0973	999
262.1057	934
277.1287	912
