Mass spectrum: Lomefloxacin; LC-ESI-QTOF; MS2; 90 V
Name: Lomefloxacin
Class: Pharmaceutical; Antimicrobial
Formula: C17H19F2N3O3
Exact mass: 351.1394
SMILES: CCn1cc(c(=O)c2c1c(c(c(c2)F)N3CCNC(C3)C)F)C(=O)O
InChI: InChI=1S/C17H19F2N3O3/c1-3-21-8-11(17(24)25)16(23)10-6-12(18)15(13(19)14(10)21)22-5-4-20-9(2)7-22/h6,8-9,20H,3-5,7H2,1-2H3,(H,24,25)
Instrument: TripleTOF 5600 SCIEX
Instrument type: LC-ESI-QTOF
Ms type: MS2
Ion mode: POSITIVE
Collision energy: 90
Fragmentation mode: CID
Ionization: ESI
Column name: Zorbax Eclipse Plus C18 2.1 mm x 150 mm, 3.5 um, Agilent
Retention time: 5.44 min
Precursor m/z: 352.1467
Precursor type: [M+H]+
m/z	relative intensity
75.0261	108
99.0237	161
101.0356	188
107.0279	269
112.0105	161
119.0278	242
120.0376	216
122.0386	134
124.018	108
125.0189	404
126.0286	485
127.0418	216
132.0231	297
133.0361	458
134.0387	377
138.026	297
139.0222	864
140.0284	269
140.0499	188
145.0395	161
146.0382	404
147.0455	594
148.0559	216
150.0132	188
150.0319	108
151.0234	323
152.0307	485
153.038	432
154.0495	134
155.0565	188
157.0171	161
165.0361	297
166.0423	999
166.0672	108
167.0404	216
168.0655	242
169.0325	161
173.0496	351
174.0389	108
174.0569	297
175.0665	134
176.0495	432
178.0334	242
179.0409	323
180.0461	242
181.0307	242
187.0659	297
191.0445	108
193.0162	108
194.039	161
194.0636	242
195.0473	432
203.061	134
205.0211	242
