Mass spectrum: Flazasulfuron; LC-ESI-QTOF; MS2; 60 V
Name: Flazasulfuron
Class: Herbicide
Formula: C13H12F3N5O5S
Exact mass: 407.0511
SMILES: COC1=CC(=NC(=N1)NC(=O)NS(=O)(=O)C2=C(C=CC=N2)C(F)(F)F)OC
InChI: InChI=1S/C13H12F3N5O5S/c1-25-8-6-9(26-2)19-11(18-8)20-12(22)21-27(23,24)10-7(13(14,15)16)4-3-5-17-10/h3-6H,1-2H3,(H2,18,19,20,21,22)
Instrument: TripleTOF 6600 SCIEX
Instrument type: LC-ESI-QTOF
Ms type: MS2
Ion mode: NEGATIVE
Collision energy: 60
Fragmentation mode: CID
Ionization: ESI
Column name: Zorbax Eclipse Plus C18 2.1 mm x 150 mm, 3.5 um, Agilent
Retention time: 11.145 min
Precursor m/z: 406.0438
Precursor type: [M-H]-
m/z	relative intensity
40.0061	21
41.0125	48
41.9972	284
50.0011	14
64.0051	23
65.0124	325
65.9969	547
74.0015	37
77.9636	16
82.0148	47
87.9973	40
89.0127	11
90.0077	53
91.0274	21
94.0066	13
97.0364	27
98.0256	10
101.0145	10
107.0107	583
108.0199	40
109.0245	37
111.0645	15
114.0155	25
121.019	158
122.0343	955
124.0495	97
139.0129	40
139.0368	534
141.026	52
142.0098	96
154.0616	999
159.0156	13
161.0311	188
162.016	207
163.0253	11
164.0337	48
