Mass spectrum: 3,5-bis(hexanoylamino)-2,4,6-triiodobenzoic acid; LC-ESI-QTOF; MS2; 120 V
Name: 3,5-bis(hexanoylamino)-2,4,6-triiodobenzoic acid
Class: Pharmaceutical; Transformation_product
Formula: C19H25I3N2O4
Exact mass: 725.8949
SMILES: CCCCCC(=O)Nc1c(I)c(NC(=O)CCCCC)c(I)c(C(O)=O)c1I
InChI: InChI=1S/C19H25I3N2O4/c1-3-5-7-9-11(25)23-17-14(20)13(19(27)28)15(21)18(16(17)22)24-12(26)10-8-6-4-2/h3-10H2,1-2H3,(H,23,25)(H,24,26)(H,27,28)
Instrument: TripleTOF 5600 SCIEX
Instrument type: LC-ESI-QTOF
Ms type: MS2
Ion mode: POSITIVE
Collision energy: 120
Fragmentation mode: CID
Ionization: ESI
Column name: Zorbax Eclipse Plus C18 2.1 mm x 150 mm, 3.5 um, Agilent
Retention time: 11.575 min
Precursor m/z: 726.9021
Precursor type: [M+H]+
m/z	relative intensity
77.0386	36
78.0365	72
79.0516	127
80.0527	81
90.035	54
91.0436	99
91.0541	54
92.0497	63
93.0472	45
94.0547	45
103.0408	36
104.05	81
105.044	54
105.0575	36
106.0283	136
106.0577	54
107.0125	72
107.0372	90
108.0442	154
115.0555	45
117.0449	172
117.0694	36
118.0331	36
118.0525	236
119.0411	36
119.061	63
120.0442	127
123.0547	72
129.0458	45
131.0344	45
131.0579	45
132.0429	118
132.0681	54
133.0502	36
134.0238	72
134.0479	45
143.0592	36
144.0414	45
145.0124	45
145.0391	190
145.0759	72
146.0236	336
146.0474	227
147.0296	99
147.0536	245
148.0392	181
148.0622	326
158.0481	90
159.0552	154
159.0918	36
160.0387	172
160.0665	81
161.0471	190
161.071	999
162.0553	90
163.0511	54
171.0556	54
172.0244	45
172.0613	108
173.0339	90
173.0722	63
174.0415	217
175.0495	36
175.0861	54
185.0325	163
185.0699	54
186.041	336
187.0509	535
188.0578	363
188.1066	54
189.0258	45
189.0664	72
191.0449	154
192.0545	236
198.0457	36
199.0502	63
199.0882	45
200.0228	63
200.0576	299
200.0965	54
201.0314	54
201.0657	254
202.1093	90
203.0874	54
203.1196	45
203.9303	108
204.102	454
204.125	63
205.0609	99
213.0285	163
213.064	154
214.0368	118
214.0731	72
215.0809	45
218.0347	45
219.0355	63
227.0815	81
228.0553	99
231.041	54
231.1129	54
231.923	54
232.0472	136
243.1155	63
243.9491	181
244.1227	127
245.0578	90
246.0616	54
247.073	45
248.1144	163
249.1218	81
250.1062	36
256.12	127
257.1289	99
271.9432	190
273.9578	45
275.1019	136
275.1425	36
288.1099	136
289.1195	81
299.9409	99
301.1203	90
301.1841	36
303.1329	145
317.9489	99
