Mass spectrum: Metaflumizone; LC-ESI-QTOF; MS2; 60 V
Name: Metaflumizone
Class: Insecticide; Pharmaceutical
Formula: C24H16F6N4O2
Exact mass: 506.1177
SMILES: C1=CC(=CC(=C1)C(F)(F)F)C(=NNC(=O)NC2=CC=C(C=C2)OC(F)(F)F)CC3=CC=C(C=C3)C#N
InChI: InChI=1S/C24H16F6N4O2/c25-23(26,27)18-3-1-2-17(13-18)21(12-15-4-6-16(14-31)7-5-15)33-34-22(35)32-19-8-10-20(11-9-19)36-24(28,29)30/h1-11,13H,12H2,(H2,32,34,35)
Instrument: TripleTOF 6600 SCIEX
Instrument type: LC-ESI-QTOF
Ms type: MS2
Ion mode: NEGATIVE
Collision energy: 60
Fragmentation mode: CID
Ionization: ESI
Column name: Zorbax Eclipse Plus C18 2.1 mm x 150 mm, 3.5 um, Agilent
Retention time: 15.496 min
Precursor m/z: 505.1105
Precursor type: [M-H]-
m/z	relative intensity
84.9895	10
102.0338	250
115.0294	61
116.0384	332
117.0454	484
126.0335	12
131.0603	16
137.0199	20
141.0454	327
145.0255	32
157.0257	16
171.0415	29
179.0415	23
199.0483	64
214.0653	73
232.0571	22
234.0722	42
240.0505	15
242.0717	56
252.0625	24
254.078	17
258.0528	12
272.0679	43
274.0837	39
275.0798	20
285.0643	999
300.0754	46
302.0905	288
