Mass spectrum: Cortisone; LC-ESI-QTOF; MS2; 30 V
Name: Cortisone
Class: Pharmaceutical
Formula: C21H28O5
Exact mass: 360.1937
SMILES: C[C@]12CCC(=O)C=C1CC[C@H]3[C@@H]4CC[C@](O)(C(=O)CO)[C@@]4(C)CC(=O)[C@H]23
InChI: InChI=1S/C21H28O5/c1-19-7-5-13(23)9-12(19)3-4-14-15-6-8-21(26,17(25)11-22)20(15,2)10-16(24)18(14)19/h9,14-15,18,22,26H,3-8,10-11H2,1-2H3/t14-,15-,18+,19-,20-,21-/m0/s1
Instrument: TripleTOF 5600 SCIEX
Instrument type: LC-ESI-QTOF
Ms type: MS2
Ion mode: POSITIVE
Collision energy: 30
Fragmentation mode: CID
Ionization: ESI
Column name: Zorbax Eclipse Plus C18 2.1 mm x 150 mm, 3.5 um, Agilent
Retention time: 8.396 min
Precursor m/z: 361.201
Precursor type: [M+H]+
m/z	relative intensity
81.075	14
93.0729	25
95.0899	11
97.068	20
105.0728	40
107.0883	31
119.089	29
121.0673	112
121.1042	25
123.0825	20
131.0883	21
133.0679	10
133.1041	19
135.0828	33
135.1204	25
137.0992	11
139.0786	27
143.0893	17
145.0677	10
145.1035	69
147.0825	45
147.1203	11
149.1003	18
157.1039	14
159.0828	19
159.1189	13
161.0994	34
163.1158	635
169.1063	15
171.0827	14
171.1212	24
173.1	29
175.1153	13
177.0937	13
181.1056	16
183.121	22
185.1027	16
187.1153	16
189.0932	27
189.1311	16
191.1102	14
195.121	15
197.1372	17
199.1154	26
201.1318	14
207.1179	17
209.1346	15
211.115	12
211.152	11
213.1304	15
221.1354	23
223.116	20
223.1532	20
225.1326	31
225.1649	16
227.1481	23
229.1269	14
235.1515	12
237.1322	20
237.1683	18
239.1469	45
241.1294	29
241.1638	42
243.1421	14
243.1784	20
247.1518	19
249.1328	11
253.162	15
255.1438	18
255.1796	25
257.1579	29
257.1937	17
258.1668	36
261.1643	15
263.1475	12
265.1636	84
267.1421	19
267.1792	89
269.1578	14
271.1765	12
277.1615	12
279.1806	38
281.1585	14
283.1743	102
284.1827	42
285.1522	17
285.1899	41
289.1648	14
295.1739	37
297.1908	34
299.1702	112
300.178	23
301.1851	120
307.1756	61
313.1854	59
315.2015	14
317.1803	14
325.1857	83
343.1962	159
361.2087	999
