Mass spectrum: Imazamox; LC-ESI-QTOF; MS2; 40 V
Name: Imazamox
Class: Herbicide
Formula: C15H19N3O4
Exact mass: 305.1376
SMILES: CC(C)C1(C(=O)NC(=N1)C2=C(C=C(C=N2)COC)C(=O)O)C
InChI: InChI=1S/C15H19N3O4/c1-8(2)15(3)14(21)17-12(18-15)11-10(13(19)20)5-9(6-16-11)7-22-4/h5-6,8H,7H2,1-4H3,(H,19,20)(H,17,18,21)
Instrument: TripleTOF 6600 SCIEX
Instrument type: LC-ESI-QTOF
Ms type: MS2
Ion mode: POSITIVE
Collision energy: 40
Fragmentation mode: CID
Ionization: ESI
Column name: Zorbax Eclipse Plus C18 2.1 mm x 150 mm, 3.5 um, Agilent
Retention time: 6.853 min
Precursor m/z: 306.1448
Precursor type: [M+H]+
m/z	relative intensity
39.0217	23
41.0375	107
69.0685	509
70.0636	12
71.0712	18
86.0948	571
92.0469	18
97.0621	11
107.0585	15
117.0425	11
118.0499	11
119.0583	19
122.0574	38
123.0653	16
145.0372	57
147.0529	25
148.0608	73
149.0684	103
150.0529	16
159.0521	13
160.0486	17
161.0681	79
162.0394	27
162.0624	11
163.0483	651
175.048	202
176.0549	12
177.063	44
187.0732	24
188.0817	18
189.0994	14
191.0795	375
192.0749	328
193.0592	999
212.0916	10
215.0664	38
216.0746	23
217.082	22
217.1313	37
218.0905	598
219.11	47
220.1012	27
235.0923	34
243.1109	122
245.0764	28
246.0856	632
260.1372	34
261.1214	194
263.0871	15
264.0955	56
306.1449	10
