Mass spectrum: 2-Morpholin-4-yl-benzothiazole; LC-ESI-QTOF; MS2; 110 V
Name: 2-Morpholin-4-yl-benzothiazole
Class: Industrial_process
Formula: C11H12N2OS
Exact mass: 220.067
SMILES: c1ccc2c(c1)nc(s2)N3CCOCC3
InChI: InChI=1S/C11H12N2OS/c1-2-4-10-9(3-1)12-11(15-10)13-5-7-14-8-6-13/h1-4H,5-8H2
Instrument: TripleTOF 5600 SCIEX
Instrument type: LC-ESI-QTOF
Ms type: MS2
Ion mode: POSITIVE
Collision energy: 110
Fragmentation mode: CID
Ionization: ESI
Column name: Zorbax Eclipse Plus C18 2.1 mm x 150 mm, 3.5 um, Agilent
Retention time: 9.363 min
Precursor m/z: 221.0743
Precursor type: [M+H]+
m/z	relative intensity
51.0293	147
52.0351	13
53.0437	17
57.9925	41
64.0348	25
64.0476	9
65.0432	293
67.9747	51
68.9837	999
69.0289	17
69.9896	96
74.0185	35
75.0254	17
76.0204	11
77.0411	124
78.0368	21
80.0531	37
80.982	31
81.9895	157
82.9971	11
89.0402	82
90.0357	21
90.0463	15
91.0423	13
91.0536	29
92.9807	96
93.9768	9
94.9959	106
96.0038	51
106.993	19
108.003	98
109.011	35
121.0167	11
122.0066	19
