Mass spectrum: Erlotinib; LC-ESI-QTOF; MS2; 120 V
Name: Erlotinib
Class: Pharmaceutical
Formula: C22H23N3O4
Exact mass: 393.1689
SMILES: COCCOC1=C(C=C2C(=C1)C(=NC=N2)NC3=CC=CC(=C3)C#C)OCCOC
InChI: InChI=1S/C22H23N3O4/c1-4-16-6-5-7-17(12-16)25-22-18-13-20(28-10-8-26-2)21(29-11-9-27-3)14-19(18)23-15-24-22/h1,5-7,12-15H,8-11H2,2-3H3,(H,23,24,25)
Instrument: TripleTOF 5600 SCIEX
Instrument type: LC-ESI-QTOF
Ms type: MS2
Ion mode: NEGATIVE
Collision energy: 120
Fragmentation mode: CID
Ionization: ESI
Column name: Zorbax Eclipse Plus C18 2.1 mm x 150 mm, 3.5 um, Agilent
Retention time: 7.429 min
Precursor m/z: 392.1616
Precursor type: [M-H]-
m/z	relative intensity
64.0084	83
65.9976	166
89.0134	83
91.0283	166
105.0225	249
114.0345	166
116.0144	83
141.0448	832
144.0185	83
163.0323	166
164.0527	249
165.0457	999
188.0345	166
189.0467	999
190.0441	416
191.0599	249
192.0415	416
214.0395	249
216.0564	749
244.0506	416
273.0461	166
