Mass spectrum: Aripiprazole; LC-ESI-QTOF; MS2; 80 V
Name: Aripiprazole
Class: Pharmaceutical
Formula: C23H27Cl2N3O2
Exact mass: 447.148
SMILES: Clc1cccc(N2CCN(CCCCOc3ccc4CCC(=O)Nc4c3)CC2)c1Cl
InChI: InChI=1S/C23H27Cl2N3O2/c24-19-4-3-5-21(23(19)25)28-13-11-27(12-14-28)10-1-2-15-30-18-8-6-17-7-9-22(29)26-20(17)16-18/h3-6,8,16H,1-2,7,9-15H2,(H,26,29)
Instrument: TripleTOF 5600 SCIEX
Instrument type: LC-ESI-QTOF
Ms type: MS2
Ion mode: POSITIVE
Collision energy: 80
Fragmentation mode: CID
Ionization: ESI
Column name: Zorbax Eclipse Plus C18 2.1 mm x 150 mm, 3.5 um, Agilent
Retention time: 8.305 min
Precursor m/z: 448.1553
Precursor type: [M+H]+
m/z	relative intensity
42.0414	20
55.0223	30
55.059	70
56.0538	115
65.0421	25
69.0732	35
70.0679	180
77.0405	120
79.0563	50
82.0674	20
84.0823	105
89.0405	55
90.0478	25
91.0548	451
92.0501	20
93.0711	25
94.0656	35
96.08	25
98.0964	286
103.0538	70
104.0481	140
105.0696	25
106.065	65
108.986	25
110.0591	40
111.0049	20
116.0496	50
117.057	612
118.0646	999
120.0802	190
120.1035	25
122.0598	135
125.0164	20
128.0469	25
130.0642	45
132.9596	25
133.0516	30
134.0601	75
135.9926	25
138.0086	35
138.0224	25
144.9616	125
145.965	35
146.0593	632
148.075	135
151.0182	55
152.0252	692
153.0334	326
158.0576	20
158.975	30
160.9773	25
164.0003	30
164.0249	65
164.0701	80
165.026	50
166.0409	50
171.9703	552
172.9669	55
173.986	85
176.0696	135
188.0016	286
193.0519	50
200.0011	100
212.9979	55
227.0073	30
228.0201	145
285.0886	35
