Mass spectrum: 17alpha-Methyltestosterone; LC-ESI-QTOF; MS2; 20 V
Name: 17alpha-Methyltestosterone
Class: Pharmaceutical
Formula: C20H30O2
Exact mass: 302.2246
SMILES: C[C@]1(O)CC[C@H]2[C@@H]3CCC4=CC(=O)CC[C@]4(C)[C@H]3CC[C@]12C
InChI: InChI=1S/C20H30O2/c1-18-9-6-14(21)12-13(18)4-5-15-16(18)7-10-19(2)17(15)8-11-20(19,3)22/h12,15-17,22H,4-11H2,1-3H3/t15-,16+,17+,18+,19+,20+/m1/s1
Instrument: TripleTOF 5600 SCIEX
Instrument type: LC-ESI-QTOF
Ms type: MS2
Ion mode: POSITIVE
Collision energy: 20
Fragmentation mode: CID
Ionization: ESI
Column name: Zorbax Eclipse Plus C18 2.1 mm x 150 mm, 3.5 um, Agilent
Retention time: 11.57 min
Precursor m/z: 303.2319
Precursor type: [M+H]+
m/z	relative intensity
97.066	69
109.0648	49
177.1622	13
189.1631	31
211.1471	10
227.1784	28
245.1891	20
267.2099	66
285.2207	160
303.2312	999
