Mass spectrum: 5`-Deoxy-5`-(methylthio)adenosine; LC-ESI-QTOF; MS2; 130 V
Name: 5`-Deoxy-5`-(methylthio)adenosine
Class: Metabolite
Formula: C11H15N5O3S
Exact mass: 297.0896
SMILES: NC1=NC=NC2=C1N=CN2C3C(O)C(O)C(CSC)O3
InChI: InChI=1S/C11H15N5O3S/c1-20-2-5-7(17)8(18)11(19-5)16-4-15-6-9(12)13-3-14-10(6)16/h3-5,7-8,11,17-18H,2H2,1H3,(H2,12,13,14)
Instrument: TripleTOF 5600 SCIEX
Instrument type: LC-ESI-QTOF
Ms type: MS2
Ion mode: POSITIVE
Collision energy: 130
Fragmentation mode: CID
Ionization: ESI
Column name: Zorbax Eclipse Plus C18 2.1 mm x 150 mm, 3.5 um, Agilent
Retention time: 4.785 min
Precursor m/z: 298.0969
Precursor type: [M+H]+
m/z	relative intensity
34.9953	23
38.0031	61
39.0235	45
40.0188	108
41.0393	28
43.0294	28
44.9799	151
45.9876	108
46.9956	82
49.0112	34
53.014	44
55.0296	115
57.0339	14
57.9869	17
58.9954	70
60.0029	30
61.0113	373
65.0143	999
66.0218	29
67.0298	222
69.0339	10
71.0126	16
75.0266	85
77.0142	96
82.0401	13
92.025	470
94.0404	37
109.0504	12
119.0358	273
