Mass spectrum: Atenolol; LC-ESI-QTOF; MS2; 40 V
Name: Atenolol
Class: Pharmaceutical
Formula: C14H22N2O3
Exact mass: 266.163
SMILES: CC(C)NCC(O)COc1ccc(CC(N)=O)cc1
InChI: InChI=1S/C14H22N2O3/c1-10(2)16-8-12(17)9-19-13-5-3-11(4-6-13)7-14(15)18/h3-6,10,12,16-17H,7-9H2,1-2H3,(H2,15,18)
Instrument: TripleTOF 5600 SCIEX
Instrument type: LC-ESI-QTOF
Ms type: MS2
Ion mode: POSITIVE
Collision energy: 40
Fragmentation mode: CID
Ionization: ESI
Column name: Zorbax Eclipse Plus C18 2.1 mm x 150 mm, 3.5 um, Agilent
Retention time: 4.619 min
Precursor m/z: 267.1703
Precursor type: [M+H]+
m/z	relative intensity
56.0547	198
58.0718	35
72.0838	110
74.0623	286
77.041	66
79.0572	52
89.0394	101
91.0558	180
91.0787	17
93.0713	61
98.0966	44
103.0556	22
105.0698	61
106.065	66
107.0492	202
115.0536	193
116.0497	48
116.1061	184
117.0337	17
117.0702	114
119.0494	101
119.0901	22
121.0634	83
127.0542	39
131.0504	22
133.0639	343
134.0591	74
144.0566	26
145.0648	999
147.0444	39
162.0672	17
162.0912	83
163.0718	17
164.069	52
173.0584	61
178.087	96
180.1018	39
190.0843	255
208.0951	79
225.1233	88
267.17	264
