Mass spectrum: Oseltamivir; LC-ESI-QTOF; MS2; 40 V
Name: Oseltamivir
Class: Pharmaceutical
Formula: C16H28N2O4
Exact mass: 312.2049
SMILES: CCC(CC)O[C@@H]1C=C(C[C@@H]([C@H]1/N=C(\C)/O)N)C(=O)OCC
InChI: InChI=1S/C16H28N2O4/c1-5-12(6-2)22-14-9-11(16(20)21-7-3)8-13(17)15(14)18-10(4)19/h9,12-15H,5-8,17H2,1-4H3,(H,18,19)/t13-,14+,15+/m0/s1
Instrument: TripleTOF 5600 SCIEX
Instrument type: LC-ESI-QTOF
Ms type: MS2
Ion mode: POSITIVE
Collision energy: 40
Fragmentation mode: CID
Ionization: ESI
Column name: Zorbax Eclipse Plus C18 2.1 mm x 150 mm, 3.5 um, Agilent
Retention time: 6.973 min
Precursor m/z: 313.2122
Precursor type: [M+H]+
m/z	relative intensity
65.0425	34
67.058	37
68.0534	15
77.0412	35
80.0517	16
82.0679	12
92.0508	113
93.0353	86
93.0576	61
94.0667	463
95.0499	20
109.0763	114
110.0597	24
111.0437	40
112.0394	10
119.0601	24
120.045	988
121.0285	13
122.0961	20
123.0802	11
134.0595	20
136.075	56
137.0709	262
138.0553	235
138.0888	15
139.038	17
139.0754	13
161.0703	22
162.0546	68
166.0865	999
179.0813	15
180.0647	18
183.1133	11
