Mass spectrum: Morantel; LC-ESI-QTOF; MS2; 40 V
Name: Morantel
Class: Pharmaceutical
Formula: C12H16N2S
Exact mass: 220.1034
SMILES: CN1CCCN=C1/C=C/c2sccc2C
InChI: InChI=1S/C12H16N2S/c1-10-6-9-15-11(10)4-5-12-13-7-3-8-14(12)2/h4-6,9H,3,7-8H2,1-2H3/b5-4+
Instrument: TripleTOF 5600 SCIEX
Instrument type: LC-ESI-QTOF
Ms type: MS2
Ion mode: POSITIVE
Collision energy: 40
Fragmentation mode: CID
Ionization: ESI
Column name: Zorbax Eclipse Plus C18 2.1 mm x 150 mm, 3.5 um, Agilent
Retention time: 6.042 min
Precursor m/z: 221.1107
Precursor type: [M+H]+
m/z	relative intensity
42.0449	10
55.0589	28
57.0738	20
67.0581	45
69.0481	60
69.0728	10
70.0675	33
72.084	35
77.0414	108
78.0508	11
79.057	178
81.072	34
83.0868	10
89.0403	14
90.0475	11
91.0551	71
93.0705	13
97.0108	39
103.0544	16
104.05	16
105.07	35
106.0654	69
107.0852	23
109.1004	37
110.0195	11
111.0266	329
111.0812	17
111.0916	19
117.0575	117
118.0649	12
119.0846	30
121.0117	17
121.0656	36
122.0046	18
122.0182	69
123.0268	598
123.0923	12
124.0327	10
130.0666	16
131.0735	20
133.0097	37
133.1003	13
134.0179	16
135.0133	15
135.0237	13
135.0878	15
136.0992	28
137.0425	23
137.0943	14
138.0362	30
145.0776	13
148.0224	20
149.0297	182
150.037	347
159.0912	20
161.1073	9
163.0438	28
164.053	432
166.0682	10
173.1075	91
177.0478	24
187.1229	67
188.1313	92
189.1397	12
191.0648	25
192.0705	15
193.079	15
205.0798	78
206.087	46
221.1109	999
