Mass spectrum: Acephate; LC-ESI-QTOF; MS2; 40 V
Name: Acephate
Class: Insecticide
Formula: C4H10NO3PS
Exact mass: 183.0119
SMILES: CC(=O)NP(=O)(OC)SC
InChI: InChI=1S/C4H10NO3PS/c1-4(6)5-9(7,8-2)10-3/h1-3H3,(H,5,6,7)
Instrument: TripleTOF 6600 SCIEX
Instrument type: LC-ESI-QTOF
Ms type: MS2
Ion mode: NEGATIVE
Collision energy: 40
Fragmentation mode: CID
Ionization: ESI
Column name: Zorbax Eclipse Plus C18 2.1 mm x 150 mm, 3.5 um, Agilent
Retention time: 4.502 min
Precursor m/z: 182.0046
Precursor type: [M-H]-
m/z	relative intensity
41.9975	105
46.9949	332
58.0283	284
62.9622	113
78.9572	999
