Mass spectrum: Amitriptyline; LC-ESI-QTOF; MS2; 90 V
Name: Amitriptyline
Class: Pharmaceutical
Formula: C20H23N
Exact mass: 277.183
SMILES: CN(C)CCC=C1C2=CC=CC=C2CCC3=CC=CC=C31
InChI: InChI=1S/C20H23N/c1-21(2)15-7-12-20-18-10-5-3-8-16(18)13-14-17-9-4-6-11-19(17)20/h3-6,8-12H,7,13-15H2,1-2H3
Instrument: TripleTOF 6600 SCIEX
Instrument type: LC-ESI-QTOF
Ms type: MS2
Ion mode: POSITIVE
Collision energy: 90
Fragmentation mode: CID
Ionization: ESI
Column name: Zorbax Eclipse Plus C18 2.1 mm x 150 mm, 3.5 um, Agilent
Retention time: 8.708 min
Precursor m/z: 278.1903
Precursor type: [M+H]+
m/z	relative intensity
39.0231	42
42.0339	14
50.0149	30
51.0232	100
58.065	14
62.0149	10
63.023	36
65.0388	241
75.0228	13
77.0389	265
78.0462	17
79.0541	26
89.0386	62
91.0545	297
101.0383	11
102.0462	47
103.0538	24
115.0545	404
116.062	10
126.0466	47
127.054	85
128.0621	226
139.0542	64
141.0693	18
150.0464	38
151.0544	117
152.0622	254
153.0695	17
155.0609	12
163.0541	86
164.0616	74
165.0701	238
175.0538	18
176.0623	198
177.0702	70
178.078	158
187.0548	50
188.0629	70
189.0706	700
190.0776	43
191.0854	37
200.0628	198
201.0705	271
202.0784	999
203.0859	33
213.0707	80
214.0779	19
215.0862	331
216.0932	10
