Mass spectrum: Crystal Violet Cation; LC-ESI-QTOF; MS2; 100 V
Name: Crystal Violet Cation
Formula: [C25H30N3]+
Exact mass: 372.2434
SMILES: CN(C)C1=CC=C(C=C1)C(=C2C=CC(=[N+](C)C)C=C2)C3=CC=C(C=C3)N(C)C
InChI: InChI=1S/C25H30N3/c1-26(2)22-13-7-19(8-14-22)25(20-9-15-23(16-10-20)27(3)4)21-11-17-24(18-12-21)28(5)6/h7-18H,1-6H3/q+1
Instrument: TripleTOF 6600 SCIEX
Instrument type: LC-ESI-QTOF
Ms type: MS2
Ion mode: POSITIVE
Collision energy: 100
Fragmentation mode: CID
Ionization: ESI
Column name: Zorbax Eclipse Plus C18 2.1 mm x 150 mm, 3.5 um, Agilent
Retention time: 11.587 min
Precursor m/z: 372.2434
Precursor type: [M]+
m/z	relative intensity
118.0619	56
164.0594	82
165.0682	417
190.0637	119
191.0705	204
192.0791	361
202.0762	55
207.1015	78
208.1097	149
215.0828	201
219.089	265
220.0986	73
226.0761	147
227.0822	76
228.0911	135
235.1215	268
239.0842	894
240.0915	401
241.0991	424
242.0972	86
252.0893	69
253.0896	84
254.0953	144
255.1012	96
256.1097	50
266.0952	91
267.1025	268
268.1103	999
269.1167	98
281.1063	63
282.1185	88
283.1299	63
284.1421	190
295.1209	338
296.1295	189
297.1369	127
311.1527	400
324.1489	285
340.1793	188
