Mass spectrum: Cyanazine; LC-ESI-QTOF; MS2; 110 V
Name: Cyanazine
Class: Herbicide
Formula: C9H13ClN6
Exact mass: 240.089
InChI: InChI=1S/C9H13ClN6/c1-4-12-7-13-6(10)14-8(15-7)16-9(2,3)5-11/h4H2,1-3H3,(H2,12,13,14,15,16)
Instrument: TripleTOF 5600 SCIEX
Instrument type: LC-ESI-QTOF
Ms type: CID
Ion mode: POSITIVE
Collision energy: 110
Ionization: ESI
Column name: Zorbax Eclipse Plus C18 2.1 mm x 150 mm, 3.5 um, Agilent
Retention time: 9.107 min
Precursor m/z: 241.0963
Precursor type: [M+H]+
m/z	relative intensity
43.0384	442
43.0557	85
61.984	999
68.0274	870
68.0482	99
68.0677	42
86.974	35
