Mass spectrum: Epirubicin; LC-ESI-QTOF; MS2; 60 V
Name: Epirubicin
Class: Pharmaceutical
Formula: C27H29NO11
Exact mass: 543.1741
SMILES: CC1C(C(CC(O1)OC2CC(CC3=C(C4=C(C(=C23)O)C(=O)C5=C(C4=O)C=CC=C5OC)O)(C(=O)CO)O)N)O
InChI: InChI=1S/C27H29NO11/c1-10-22(31)13(28)6-17(38-10)39-15-8-27(36,16(30)9-29)7-12-19(15)26(35)21-20(24(12)33)23(32)11-4-3-5-14(37-2)18(11)25(21)34/h3-5,10,13,15,17,22,29,31,33,35-36H,6-9,28H2,1-2H3
Instrument: TripleTOF 5600 SCIEX
Instrument type: LC-ESI-QTOF
Ms type: MS2
Ion mode: POSITIVE
Collision energy: 60
Fragmentation mode: CID
Ionization: ESI
Column name: Zorbax Eclipse Plus C18 2.1 mm x 150 mm, 3.5 um, Agilent
Retention time: 7.492 min
Precursor m/z: 544.1813
Precursor type: [M+H]+
m/z	relative intensity
58.0686	18
60.0497	24
68.052	13
69.0364	37
71.0511	26
72.0473	61
86.0611	221
95.0502	34
112.0748	48
113.0598	74
113.0776	13
121.0641	32
130.086	74
135.0431	48
145.0278	24
163.0361	13
202.0824	13
203.0851	10
231.0755	13
232.0536	10
234.0736	10
247.0758	13
249.0995	16
259.0758	24
261.0558	16
262.0639	10
275.0684	24
277.0506	10
277.0881	16
287.0722	88
289.0466	29
290.0559	53
293.0833	32
301.0528	18
303.0677	48
305.0842	74
306.0524	403
307.057	13
309.078	16
315.068	45
317.0468	16
318.0454	16
319.0601	24
320.0719	13
321.078	470
323.0943	21
329.0416	18
332.0727	16
333.0769	104
336.07	24
337.0705	24
343.0612	34
344.9629	13
346.0484	999
351.0891	13
361.0704	208
364.0606	16
