Mass spectrum: Epirubicin; LC-ESI-QTOF; MS2; 90 V
Name: Epirubicin
Class: Pharmaceutical
Formula: C27H29NO11
Exact mass: 543.1741
SMILES: CC1C(C(CC(O1)OC2CC(CC3=C(C4=C(C(=C23)O)C(=O)C5=C(C4=O)C=CC=C5OC)O)(C(=O)CO)O)N)O
InChI: InChI=1S/C27H29NO11/c1-10-22(31)13(28)6-17(38-10)39-15-8-27(36,16(30)9-29)7-12-19(15)26(35)21-20(24(12)33)23(32)11-4-3-5-14(37-2)18(11)25(21)34/h3-5,10,13,15,17,22,29,31,33,35-36H,6-9,28H2,1-2H3
Instrument: TripleTOF 5600 SCIEX
Instrument type: LC-ESI-QTOF
Ms type: MS2
Ion mode: NEGATIVE
Collision energy: 90
Fragmentation mode: CID
Ionization: ESI
Column name: Zorbax Eclipse Plus C18 2.1 mm x 150 mm, 3.5 um, Agilent
Retention time: 7.492 min
Precursor m/z: 542.1668
Precursor type: [M-H]-
m/z	relative intensity
173.0268	47
208.0511	54
221.0627	81
223.0446	54
232.0521	67
233.0594	61
235.042	95
237.0587	108
247.0442	203
248.0491	265
249.0531	101
251.0349	95
252.0484	54
260.0508	67
261.057	108
263.0391	129
264.0456	210
265.0521	414
266.062	115
275.0334	108
276.0448	414
277.0513	237
279.0313	156
289.055	88
291.0331	169
292.0392	366
293.0493	999
294.057	122
304.0406	142
305.0501	244
308.0354	74
320.0363	319
321.0445	360
