Mass spectrum: Hydroxytorasemide; LC-ESI-QTOF; MS2; 90 V
Name: Hydroxytorasemide
Class: Pharmaceutical; Transformation_product
Formula: C16H20N4O4S
Exact mass: 364.1205
SMILES: CC(C)NC(=O)NS(=O)(=O)c1cnccc1Nc2cccc(c2)CO
InChI: InChI=1S/C16H20N4O4S/c1-11(2)18-16(22)20-25(23,24)15-9-17-7-6-14(15)19-13-5-3-4-12(8-13)10-21/h3-9,11,21H,10H2,1-2H3,(H,17,19)(H2,18,20,22)
Instrument: TripleTOF 5600 SCIEX
Instrument type: LC-ESI-QTOF
Ms type: MS2
Ion mode: NEGATIVE
Collision energy: 90
Fragmentation mode: CID
Ionization: ESI
Column name: Zorbax Eclipse Plus C18 2.1 mm x 150 mm, 3.5 um, Agilent
Retention time: 5.824 min
Precursor m/z: 363.1132
Precursor type: [M-H]-
m/z	relative intensity
47.9685	58
48.978	51
57.9764	71
61.9716	97
63.9631	123
65.0155	84
77.9658	999
78.9737	116
90.0361	90
91.0307	369
92.0382	116
93.0455	856
107.0487	84
108.0337	259
108.0564	317
165.0435	58
166.0524	84
167.0603	330
168.0587	155
169.0774	84
178.0544	207
179.0616	408
180.069	84
181.0661	155
182.0718	194
192.0551	415
194.0729	116
195.0579	123
197.0731	116
210.0651	58
