Mass spectrum: 4-Aminoantipyrine; LC-ESI-QTOF; MS2; 130 V
Name: 4-Aminoantipyrine
Class: Transformation_product
Formula: C11H13N3O
Exact mass: 203.1059
InChI: InChI=1S/C11H13N3O/c1-8-10(12)11(15)14(13(8)2)9-6-4-3-5-7-9/h3-7H,12H2,1-2H3
Instrument: TripleTOF 5600 SCIEX
Instrument type: LC-ESI-QTOF
Ms type: CID
Ion mode: POSITIVE
Collision energy: 130
Ionization: ESI
Column name: Zorbax Eclipse Plus C18 2.1 mm x 150 mm, 3.5 um, Agilent
Retention time: 4.783 min
Precursor m/z: 204.1131
Precursor type: [M+H]+
m/z	relative intensity
37.0071	64
38.0164	51
39.0233	129
41.0262	220
42.0342	376
49.0076	194
50.0154	999
51.0232	921
56.0498	869
61.0072	77
62.0159	64
63.0234	64
65.0394	64
73.0082	51
74.0148	142
77.0387	77
