Mass spectrum: Octrizole; LC-ESI-QTOF; MS2; 60 V
Name: Octrizole
Class: Industrial_process
Formula: C20H25N3O
Exact mass: 323.1998
SMILES: CC(C)(C)CC(C)(C)C1=CC(=C(C=C1)O)N2N=C3C=CC=CC3=N2
InChI: InChI=1S/C20H25N3O/c1-19(2,3)13-20(4,5)14-10-11-18(24)17(12-14)23-21-15-8-6-7-9-16(15)22-23/h6-12,24H,13H2,1-5H3
Instrument: TripleTOF 5600 SCIEX
Instrument type: LC-ESI-QTOF
Ms type: MS2
Ion mode: POSITIVE
Collision energy: 60
Fragmentation mode: CID
Ionization: ESI
Column name: Zorbax Eclipse Plus C18 2.1 mm x 150 mm, 3.5 um, Agilent
Retention time: 19.562 min
Precursor m/z: 324.207
Precursor type: [M+H]+
m/z	relative intensity
65.0455	289
77.0439	78
79.0582	84
80.0544	31
91.0573	189
92.0536	999
93.036	36
103.0574	63
105.0503	31
105.0728	220
106.0811	42
107.0527	94
115.0562	26
117.0584	31
119.0547	136
120.0566	157
121.0702	21
128.0644	47
129.0735	36
133.0649	304
134.0749	178
139.0557	31
140.0456	31
153.0788	26
154.0666	78
155.0735	52
156.0797	31
165.0703	63
166.0635	42
167.0722	157
168.0745	78
179.0887	26
180.0807	84
181.0634	47
181.0833	42
182.0965	52
183.0689	152
184.0757	36
191.0737	57
192.0769	52
193.086	47
196.0755	115
196.1132	21
208.0694	36
208.1151	36
209.0833	110
210.0905	184
211.0755	52
212.0807	47
223.0995	36
224.1087	84
238.0958	94
252.1142	178
253.1176	21
