Mass spectrum: Medroxyprogesterone-17-acetate; LC-ESI-QTOF; MS2; 30 V
Name: Medroxyprogesterone-17-acetate
Class: Pharmaceutical
Formula: C24H34O4
Exact mass: 386.2457
SMILES: CC1CC2C(CCC3(C2CCC3(C(=O)C)OC(=O)C)C)C4(C1=CC(=O)CC4)C
InChI: InChI=1S/C24H34O4/c1-14-12-18-19(22(4)9-6-17(27)13-21(14)22)7-10-23(5)20(18)8-11-24(23,15(2)25)28-16(3)26/h13-14,18-20H,6-12H2,1-5H3
Instrument: TripleTOF 5600 SCIEX
Instrument type: LC-ESI-QTOF
Ms type: MS2
Ion mode: POSITIVE
Collision energy: 30
Fragmentation mode: CID
Ionization: ESI
Column name: Zorbax Eclipse Plus C18 2.1 mm x 150 mm, 3.5 um, Agilent
Retention time: 13.723 min
Precursor m/z: 387.253
Precursor type: [M+H]+
m/z	relative intensity
43.0181	29
67.0541	23
77.039	12
79.0542	26
81.0697	22
83.0486	39
91.0547	28
93.0694	54
95.0482	12
95.085	72
97.0648	428
105.0695	78
107.0491	10
107.0851	43
109.065	25
109.101	31
111.0803	24
117.0693	13
119.0852	80
121.0653	15
121.1008	36
123.0806	999
129.0698	16
131.0858	58
133.1012	66
135.0802	23
135.1162	25
137.0961	128
143.0855	43
145.1009	134
147.1167	124
149.0966	13
149.1326	12
155.084	17
156.0939	19
157.1012	62
159.1169	77
161.0959	15
161.1319	81
163.1106	18
163.1493	16
169.0998	42
171.1165	94
173.1326	137
175.1135	15
175.148	180
177.1259	35
181.0998	13
183.1168	43
185.1321	48
187.1114	13
187.1477	56
189.1262	33
189.1658	11
191.1414	22
195.1134	23
197.132	65
199.1485	64
201.1634	23
203.1421	16
205.1564	13
209.1331	23
210.1416	10
211.1462	46
213.1291	13
213.1628	33
214.135	229
215.1426	59
217.1591	11
223.1466	26
225.1641	52
227.178	56
235.1455	11
237.1632	17
239.1798	15
251.1815	62
257.1515	18
265.1979	19
266.2023	65
267.211	106
269.1893	55
283.2061	21
284.2145	45
285.2204	87
309.2187	20
327.2289	11
