Mass spectrum: N-desmethyl-venlafaxine; LC-ESI-QTOF; MS2; 140 V
Name: N-desmethyl-venlafaxine
Class: Pharmaceutical; Metabolite
Formula: C16H25NO2
Exact mass: 263.1885
SMILES: CNCC(c1ccc(cc1)OC)C2(CCCCC2)O
InChI: InChI=1S/C16H25NO2/c1-17-12-15(16(18)10-4-3-5-11-16)13-6-8-14(19-2)9-7-13/h6-9,15,17-18H,3-5,10-12H2,1-2H3
Instrument: TripleTOF 5600 SCIEX
Instrument type: LC-ESI-QTOF
Ms type: MS2
Ion mode: POSITIVE
Collision energy: 140
Fragmentation mode: CID
Ionization: ESI
Column name: Zorbax Eclipse Plus C18 2.1 mm x 150 mm, 3.5 um, Agilent
Retention time: 6.444 min
Precursor m/z: 264.1958
Precursor type: [M+H]+
m/z	relative intensity
44.0572	999
51.0289	441
52.035	131
65.0415	325
74.0185	38
75.028	46
76.034	61
77.0403	619
77.0623	30
78.0486	425
78.0684	61
79.0581	61
89.0402	116
91.0548	100
102.0479	61
115.0526	154
127.0519	38
