Mass spectrum: 1-Methylguanine; LC-ESI-QTOF; MS2; 10 V
Name: 1-Methylguanine
Class: Natural_product
Formula: C6H7N5O
Exact mass: 165.0651
SMILES: CN1C(=Nc2nc[nH]c2C1=O)N
InChI: InChI=1S/C6H7N5O/c1-11-5(12)3-4(9-2-8-3)10-6(11)7/h2H,1H3,(H2,7,10)(H,8,9)
Instrument: TripleTOF 5600 SCIEX
Instrument type: LC-ESI-QTOF
Ms type: MS2
Ion mode: POSITIVE
Collision energy: 10
Fragmentation mode: CID
Ionization: ESI
Column name: Zorbax Eclipse Plus C18 2.1 mm x 150 mm, 3.5 um, Agilent
Retention time: 2.342 min
Precursor m/z: 166.0723
Precursor type: [M+H]+
m/z	relative intensity
149.0451	10
166.0728	999
