Mass spectrum: Metachrome Yellow free acid; LC-ESI-QTOF; MS2; 40 V
Name: Metachrome Yellow free acid
Formula: C13H9N3O5
Exact mass: 287.0542
SMILES: C1=CC(=CC(=C1)[N+](=O)[O-])N=NC2=CC(=C(C=C2)O)C(=O)O
InChI: InChI=1S/C13H9N3O5/c17-12-5-4-9(7-11(12)13(18)19)15-14-8-2-1-3-10(6-8)16(20)21/h1-7,17H,(H,18,19)
Instrument: TripleTOF 6600 SCIEX
Instrument type: LC-ESI-QTOF
Ms type: MS2
Ion mode: NEGATIVE
Collision energy: 40
Fragmentation mode: CID
Ionization: ESI
Column name: Zorbax Eclipse Plus C18 2.1 mm x 150 mm, 3.5 um, Agilent
Retention time: 11.919 min
Precursor m/z: 286.0469
Precursor type: [M-H]-
m/z	relative intensity
41.0033	10
45.9936	170
90.0339	20
91.0187	68
92.0269	999
122.0247	149
155.0495	23
156.0589	158
167.0508	108
168.0582	199
183.0455	38
184.053	76
196.0647	103
242.0566	80
