Mass spectrum: Carbaryl; LC-ESI-QTOF; MS2; 80 V
Name: Carbaryl
Class: Insecticide
Formula: C12H11NO2
Exact mass: 201.079
SMILES: CNC(=O)Oc1cccc2ccccc12
InChI: InChI=1S/C12H11NO2/c1-13-12(14)15-11-8-4-6-9-5-2-3-7-10(9)11/h2-8H,1H3,(H,13,14)
Instrument: TripleTOF 5600 SCIEX
Instrument type: LC-ESI-QTOF
Ms type: MS2
Ion mode: POSITIVE
Collision energy: 80
Fragmentation mode: CID
Ionization: ESI
Column name: Zorbax Eclipse Plus C18 2.1 mm x 150 mm, 3.5 um, Agilent
Retention time: 10.147 min
Precursor m/z: 202.0863
Precursor type: [M+H]+
m/z	relative intensity
58.0334	41
58.042	20
65.0423	331
74.0177	120
75.0261	394
76.0346	20
77.0415	801
87.0254	20
89.0405	190
91.0557	418
91.0839	17
98.0154	17
99.024	34
100.0316	24
101.0396	152
102.047	34
114.0465	17
115.0548	999
116.0609	31
125.0437	17
126.0461	324
127.0547	176
128.062	24
