Mass spectrum: Methiocarb; LC-ESI-QTOF; MS2; 90 V
Name: Methiocarb
Class: Acaricide; Insecticide
Formula: C11H15NO2S
Exact mass: 225.0823
SMILES: Cc1cc(cc(c1SC)C)OC(=O)NC
InChI: InChI=1S/C11H15NO2S/c1-7-5-9(14-11(13)12-3)6-8(2)10(7)15-4/h5-6H,1-4H3,(H,12,13)
Instrument: TripleTOF 6600 SCIEX
Instrument type: LC-ESI-QTOF
Ms type: MS2
Ion mode: POSITIVE
Collision energy: 90
Fragmentation mode: CID
Ionization: ESI
Column name: Zorbax Eclipse Plus C18 2.1 mm x 150 mm, 3.5 um, Agilent
Retention time: 11.34614 min
Precursor m/z: 226.0896
Precursor type: [M+H]+
m/z	relative intensity
37.0058	41
38.0129	28
39.0206	165
41.0361	34
44.9772	54
49.0046	19
50.0128	175
51.0207	668
52.028	26
53.0366	60
55.0158	28
61.0063	10
62.0124	15
63.0204	39
65.0363	206
67.0534	19
68.9758	19
74.0129	13
77.0358	999
78.0443	106
79.0519	78
81.032	23
89.0364	21
91.0514	217
103.0514	30
105.0411	23
107.0463	106
121.0095	10
121.0623	26
134.0147	23
135.0232	13
