Mass spectrum: Oseltamivir; LC-ESI-QTOF; MS2; 80 V
Name: Oseltamivir
Class: Pharmaceutical
Formula: C16H28N2O4
Exact mass: 312.2049
SMILES: CCC(CC)O[C@@H]1C=C(C[C@@H]([C@H]1NC(=O)C)N)C(=O)OCC
InChI: InChI=1S/C16H28N2O4/c1-5-12(6-2)22-14-9-11(16(20)21-7-3)8-13(17)15(14)18-10(4)19/h9,12-15H,5-8,17H2,1-4H3,(H,18,19)/t13-,14+,15+/m0/s1
Instrument: TripleTOF 5600 SCIEX
Instrument type: LC-ESI-QTOF
Ms type: MS2
Ion mode: POSITIVE
Collision energy: 80
Fragmentation mode: CID
Ionization: ESI
Column name: Zorbax Eclipse Plus C18 2.1 mm x 150 mm, 3.5 um, Agilent
Retention time: 6.973 min
Precursor m/z: 313.2122
Precursor type: [M+H]+
m/z	relative intensity
43.0252	45
53.0431	11
55.0593	15
65.0434	999
66.0499	83
67.0577	176
68.0535	32
77.0416	585
78.0368	26
80.0516	329
81.0598	19
82.0674	156
83.0511	10
92.0511	878
93.0579	448
94.0284	10
94.0662	368
106.0657	15
108.0439	32
108.0661	26
109.0526	17
109.0758	63
110.0592	42
111.0346	14
119.0597	53
120.0443	479
133.0756	10
137.047	41
137.0706	22
138.0542	42
