Mass spectrum: Spinosad A; LC-ESI-QTOF; MS2; 90 V
Name: Spinosad A
Class: Insecticide
Formula: C41H65NO10
Exact mass: 731.4608
SMILES: CCC1CCCC(C(C(=O)C2=CC3C4CC(CC4C=CC3C2CC(=O)O1)OC5C(C(C(C(O5)C)OC)OC)OC)C)OC6CCC(C(O6)C)N(C)C
InChI: InChI=1S/C41H65NO10/c1-10-26-12-11-13-34(52-36-17-16-33(42(5)6)23(3)48-36)22(2)37(44)32-20-30-28(31(32)21-35(43)50-26)15-14-25-18-27(19-29(25)30)51-41-40(47-9)39(46-8)38(45-7)24(4)49-41/h14-15,20,22-31,33-34,36,38-41H,10-13,16-19,21H2,1-9H3
Instrument: TripleTOF 6600 SCIEX
Instrument type: LC-ESI-QTOF
Ms type: MS2
Ion mode: POSITIVE
Collision energy: 90
Fragmentation mode: CID
Ionization: ESI
Column name: Zorbax Eclipse Plus C18 2.1 mm x 150 mm, 3.5 um, Agilent
Retention time: 10.391 min
Precursor m/z: 732.4681
Precursor type: [M+H]+
m/z	relative intensity
39.0223	21
41.0378	52
42.0333	11
43.0172	36
44.0486	18
45.0328	18
46.0646	15
47.0482	13
55.0169	10
55.0532	41
56.0486	30
57.0325	27
59.0482	35
65.0375	12
67.0529	55
69.0321	11
69.0689	100
70.0643	28
71.0482	66
72.0433	55
72.0799	40
73.0641	11
74.0349	23
75.0432	89
77.0371	24
79.0531	57
81.0321	19
81.0692	20
82.0406	18
83.0479	13
83.084	30
84.08	23
85.0639	32
85.0875	28
86.0954	13
89.0585	27
91.0532	17
95.0845	25
97.0638	313
98.035	12
98.0959	999
99.0429	117
99.0603	10
99.0795	82
99.0995	10
101.0584	126
113.0585	27
115.054	30
115.0742	27
117.0686	13
124.1113	48
125.0586	70
127.0521	13
128.061	28
129.0688	66
129.0901	20
141.0684	61
142.1219	695
143.0846	12
145.0851	21
152.0606	20
153.0688	77
154.0765	46
155.0848	155
157.0852	16
157.1002	26
160.1329	22
165.0682	14
167.0852	25
169.1001	65
171.0797	19
178.0775	12
179.0846	30
181.0639	13
181.101	11
183.0787	34
193.1	11
195.0788	13
197.0955	54
199.0757	17
201.0901	17
225.0899	17
