Mass spectrum: Amido Black 10B; LC-ESI-QTOF; MS2; 60 V
Name: Amido Black 10B
Formula: C22H16N6O9S2
Exact mass: 572.042
SMILES: C1=CC=C(C=C1)N=NC2=C(C3=C(C(=C(C=C3C=C2S(=O)(=O)O)S(=O)(=O)O)N=NC4=CC=C(C=C4)[N+](=O)[O-])N)O
InChI: InChI=1S/C22H16N6O9S2/c23-19-18-12(11-17(39(35,36)37)21(22(18)29)27-24-13-4-2-1-3-5-13)10-16(38(32,33)34)20(19)26-25-14-6-8-15(9-7-14)28(30)31/h1-11,29H,23H2,(H,32,33,34)(H,35,36,37)
Instrument: TripleTOF 6600 SCIEX
Instrument type: LC-ESI-QTOF
Ms type: MS2
Ion mode: POSITIVE
Collision energy: 60
Fragmentation mode: CID
Ionization: ESI
Column name: Zorbax Eclipse Plus C18 2.1 mm x 150 mm, 3.5 um, Agilent
Retention time: 9.552 min
Precursor m/z: 573.0493
Precursor type: [M+H]+
m/z	relative intensity
65.0382	175
66.0455	30
75.0226	16
77.0382	32
80.049	18
92.0245	11
92.0492	598
93.0571	999
108.0442	21
122.0237	86
150.0285	129
157.0387	19
167.0223	10
169.0424	13
173.0331	125
185.0334	20
201.0299	72
205.0733	24
216.0588	18
230.0641	12
231.0752	44
232.0857	115
242.059	21
243.0676	24
244.0658	14
249.0908	13
251.0111	11
259.0695	45
260.0779	85
261.0894	49
270.0544	102
271.0613	216
272.0692	27
273.0792	16
275.0419	11
275.0908	13
276.0957	26
287.0564	89
288.0686	11
300.0528	12
301.0594	141
306.0678	10
306.0982	16
307.0999	9
308.1069	16
312.0388	13
313.0436	19
316.0453	106
317.0554	96
319.0956	19
320.1046	27
334.1006	27
334.119	10
335.1123	29
336.1033	19
337.1112	13
340.0396	101
341.0461	115
345.1011	9
346.1072	109
347.1149	28
352.0267	38
356.9908	16
362.1035	115
363.1026	19
363.1207	16
364.1165	29
365.1273	12
370.0316	9
381.1236	11
382.0239	28
398.0213	22
402.9812	118
426.0661	28
427.0716	24
444.0834	28
