Mass spectrum: 3,5-Diiodothyronine; LC-ESI-QTOF; MS2; 80 V
Name: 3,5-Diiodothyronine
Class: Pharmaceutical
Formula: C15H13I2NO4
Exact mass: 524.8934
SMILES: NC(Cc1cc(I)c(Oc2ccc(O)cc2)c(I)c1)C(O)=O
InChI: InChI=1S/C15H13I2NO4/c16-11-5-8(7-13(18)15(20)21)6-12(17)14(11)22-10-3-1-9(19)2-4-10/h1-6,13,19H,7,18H2,(H,20,21)
Instrument: TripleTOF 5600 SCIEX
Instrument type: LC-ESI-QTOF
Ms type: MS2
Ion mode: POSITIVE
Collision energy: 80
Fragmentation mode: CID
Ionization: ESI
Column name: Zorbax Eclipse Plus C18 2.1 mm x 150 mm, 3.5 um, Agilent
Retention time: 7.539 min
Precursor m/z: 525.9007
Precursor type: [M+H]+
m/z	relative intensity
65.0436	86
66.0518	10
76.0348	10
77.0412	92
78.0492	35
79.0441	21
81.0358	76
89.0402	69
90.0483	126
91.0193	12
91.0548	35
92.029	14
93.035	61
94.043	103
102.0459	29
103.0539	19
104.0498	175
105.0347	42
105.0575	177
106.0414	35
107.0495	35
109.0282	82
110.0357	10
115.0551	149
116.0493	16
116.0614	16
117.0316	12
117.0574	335
118.0427	10
118.065	59
119.0127	25
127.054	181
128.0622	591
129.0702	103
131.0493	80
131.0691	10
132.0453	33
133.0294	23
133.0522	21
139.0542	181
140.0634	14
141.0703	392
142.0775	209
143.0854	48
144.0567	14
151.0543	97
152.0628	542
153.07	557
154.0734	40
155.0499	86
155.0901	14
156.0572	84
157.065	259
161.025	23
163.0541	25
164.0625	16
165.069	124
167.0499	80
167.0677	12
168.0575	86
168.0798	38
169.065	219
170.0725	380
171.0798	139
179.0467	10
180.0576	46
180.0809	73
181.0651	745
182.072	63
183.044	25
183.066	52
183.08	16
184.0523	990
185.0593	52
189.9256	10
193.0556	16
194.0698	19
195.0463	25
196.0539	27
196.0766	105
197.0603	999
198.067	333
198.0909	10
199.0752	160
202.9344	14
206.059	10
207.0686	21
208.0523	23
208.0759	29
209.0584	103
209.0826	27
210.0663	179
211.0401	29
212.0484	16
216.9179	12
216.9498	109
217.9203	92
219.9372	57
223.0678	31
224.0711	293
225.0781	204
226.0638	12
226.0881	14
231.9369	16
231.9595	16
232.9465	130
237.0537	48
242.9603	52
243.9649	14
244.9095	92
245.9157	19
245.9414	19
253.0508	23
259.9565	382
296.9769	59
310.9552	12
322.9527	23
324.9722	365
325.9742	19
335.965	14
336.9675	16
338.9496	86
351.9811	12
352.9712	25
352.9917	38
364.9689	16
380.9576	10
