Mass spectrum: Sudan III; LC-ESI-QTOF; MS2; 70 V
Name: Sudan III
Formula: C22H16N4O
Exact mass: 352.1324
SMILES: C1=CC=C(C=C1)N=NC2=CC=C(C=C2)N=NC3=C(C=CC4=CC=CC=C43)O
InChI: InChI=1S/C22H16N4O/c27-21-15-10-16-6-4-5-9-20(16)22(21)26-25-19-13-11-18(12-14-19)24-23-17-7-2-1-3-8-17/h1-15,27H
Instrument: TripleTOF X500R SCIEX
Instrument type: LC-ESI-QTOF
Ms type: MS2
Ion mode: POSITIVE
Collision energy: 70
Fragmentation mode: CID
Ionization: ESI
Column name: Zorbax Eclipse Plus C18 2.1 mm x 150 mm, 3.5 um, Agilent
Retention time: 19.216 min
Precursor m/z: 353.1397
Precursor type: [M+H]+
m/z	relative intensity
39.0232	52
51.0233	348
59.0315	143
60.0334	45
63.024	37
64.0309	75
65.0388	333
75.0243	30
77.0391	999
89.0402	68
91.0424	189
92.0497	423
93.0583	37
101.0388	560
102.0348	68
115.0551	703
127.0538	45
128.0496	597
129.0437	83
140.0497	37
141.0702	60
143.05	143
152.0536	68
154.0678	75
155.0625	60
166.0655	45
167.0753	113
168.0697	105
169.077	211
170.0728	68
179.0602	68
181.0757	75
196.0889	370
197.0942	30
205.0803	68
229.0789	90
231.0807	30
