Mass spectrum: Solway Green G; LC-ESI-QTOF; MS2; 50 V
Name: Solway Green G
Formula: C28H22N2O8S2
Exact mass: 578.0818
SMILES: CC1=CC(=C(C=C1)NC2=C3C(=C(C=C2)NC4=C(C=C(C=C4)C)S(=O)(=O)O)C(=O)C5=CC=CC=C5C3=O)S(=O)(=O)O
InChI: InChI=1S/C28H22N2O8S2/c1-15-7-9-19(23(13-15)39(33,34)35)29-21-11-12-22(30-20-10-8-16(2)14-24(20)40(36,37)38)26-25(21)27(31)17-5-3-4-6-18(17)28(26)32/h3-14,29-30H,1-2H3,(H,33,34,35)(H,36,37,38)
Instrument: TripleTOF 6600 SCIEX
Instrument type: LC-ESI-QTOF
Ms type: MS2
Ion mode: NEGATIVE
Collision energy: 50
Fragmentation mode: CID
Ionization: ESI
Column name: Zorbax Eclipse Plus C18 2.1 mm x 150 mm, 3.5 um, Agilent
Retention time: 10.62 min
Precursor m/z: 288.0336
Precursor type: [M-2H]2-
m/z	relative intensity
79.9569	999
80.9642	77
121.0521	7
122.0602	7
132.044	19
184.0076	39
185.0142	12
186.0215	15
192.0437	7
296.087	10
297.0774	13
298.0862	23
310.0903	12
324.0882	12
398.0963	9
