Mass spectrum: 2-Piperidin-3-yl-benzothiazole; LC-ESI-QTOF; MS2; 40 V
Name: 2-Piperidin-3-yl-benzothiazole
Formula: C12H14N2S
Exact mass: 218.0878
SMILES: C1CC(CNC1)C2=NC3=CC=CC=C3S2
InChI: InChI=1S/C12H14N2S/c1-2-6-11-10(5-1)14-12(15-11)9-4-3-7-13-8-9/h1-2,5-6,9,13H,3-4,7-8H2
Instrument: TripleTOF 5600 SCIEX
Instrument type: LC-ESI-QTOF
Ms type: MS2
Ion mode: POSITIVE
Collision energy: 40
Fragmentation mode: CID
Ionization: ESI
Column name: Zorbax Eclipse Plus C18 2.1 mm x 150 mm, 3.5 um, Agilent
Retention time: 5.623 min
Precursor m/z: 219.095
Precursor type: [M+H]+
m/z	relative intensity
44.0499	35
44.9796	31
65.0386	13
70.0653	89
77.0386	10
104.0496	82
108.0029	64
109.0105	126
117.0583	31
121.0108	35
130.0648	15
136.0221	34
148.0223	765
149.0299	657
150.0369	53
160.0259	10
162.038	268
173.0303	18
174.0378	49
175.0461	89
176.0536	159
186.0405	12
190.0698	999
202.0711	13
219.0958	129
