Mass spectrum: Difenoconazole; LC-ESI-QTOF; MS2; 10 V
Name: Difenoconazole
Class: Fungicide
Formula: C19H17Cl2N3O3
Exact mass: 405.0647
SMILES: CC1COC(Cn2cncn2)(O1)c3ccc(Oc4ccc(Cl)cc4)cc3Cl
InChI: InChI=1S/C19H17Cl2N3O3/c1-13-9-25-19(27-13,10-24-12-22-11-23-24)17-7-6-16(8-18(17)21)26-15-4-2-14(20)3-5-15/h2-8,11-13H,9-10H2,1H3
Instrument: TripleTOF 6600 SCIEX
Instrument type: LC-ESI-QTOF
Ms type: MS2
Ion mode: POSITIVE
Collision energy: 10
Fragmentation mode: CID
Ionization: ESI
Column name: Zorbax Eclipse Plus C18 2.1 mm x 150 mm, 3.5 um, Agilent
Retention time: 13.755 min
Precursor m/z: 406.072
Precursor type: [M+H]+
m/z	relative intensity
406.0729	999
