Mass spectrum: (Methoxymethyl)diphenylphosphine oxide; LC-ESI-QTOF; MS2; 60 V
Name: (Methoxymethyl)diphenylphosphine oxide
Class: Industrial_process
Formula: C14H15O2P
Exact mass: 246.081
SMILES: COC[P](=O)(c1ccccc1)c2ccccc2
InChI: InChI=1S/C14H15O2P/c1-16-12-17(15,13-8-4-2-5-9-13)14-10-6-3-7-11-14/h2-11H,12H2,1H3
Instrument: TripleTOF 5600 SCIEX
Instrument type: LC-ESI-QTOF
Ms type: MS2
Ion mode: POSITIVE
Collision energy: 60
Fragmentation mode: CID
Ionization: ESI
Column name: Zorbax Eclipse Plus C18 2.1 mm x 150 mm, 3.5 um, Agilent
Retention time: 8.67 min
Precursor m/z: 247.0882
Precursor type: [M+H]+
m/z	relative intensity
45.0435	130
65.0428	32
77.0416	40
91.0562	103
107.0055	30
109.0209	33
115.0552	75
133.0211	38
139.0542	33
141.0703	24
151.055	15
152.0627	327
157.0211	137
170.0284	28
181.0203	29
182.0274	13
183.0364	999
