Mass spectrum: Spirodiclofen-enol; LC-ESI-QTOF; MS2; 100 V
Name: Spirodiclofen-enol
Formula: C15H14Cl2O3
Exact mass: 312.032
SMILES: C1CCC2(CC1)C(=C(C(=O)O2)C3=C(C=C(C=C3)Cl)Cl)O
InChI: InChI=1S/C15H14Cl2O3/c16-9-4-5-10(11(17)8-9)12-13(18)15(20-14(12)19)6-2-1-3-7-15/h4-5,8,18H,1-3,6-7H2
Instrument: TripleTOF 6600 SCIEX
Instrument type: LC-ESI-QTOF
Ms type: MS2
Ion mode: POSITIVE
Collision energy: 100
Fragmentation mode: CID
Ionization: ESI
Column name: Zorbax Eclipse Plus C18 2.1 mm x 150 mm, 3.5 um, Agilent
Retention time: 12.261 min
Precursor m/z: 313.0393
Precursor type: [M+H]+
m/z	relative intensity
37.0079	15
38.015	26
39.0231	87
41.0385	59
46.9674	15
50.015	21
51.0228	72
61.0062	52
62.0156	118
62.9626	17
63.0227	131
65.0382	30
67.0537	19
71.9758	65
72.9836	828
73.006	19
74.0151	428
75.0231	504
76.03	24
77.0385	255
78.0463	10
79.0529	17
82.9441	137
84.9834	39
85.0059	45
86.0151	153
87.0224	649
88.0294	48
89.0385	443
95.9751	37
96.9837	524
98.0139	50
98.9984	74
99.0221	96
100.03	19
101.0374	50
102.0454	59
103.0534	28
106.9443	577
108.9833	133
110.9988	122
112.0069	21
113.0382	203
114.0447	50
115.0534	375
120.9836	37
121.9914	454
122.9993	150
124.0051	37
126.0462	124
127.0533	122
128.0608	76
129.0452	26
130.9433	76
132.9595	32
136.0074	67
137.0375	10
138.046	15
139.0025	21
139.054	236
141.0707	19
144.9608	17
148.0059	34
149.0147	80
150.045	85
151.0539	220
152.0612	406
153.0673	26
155.0581	21
156.9603	999
158.9725	30
162.0192	19
163.0533	172
164.0609	76
165.0697	236
172.964	13
173.0148	10
175.0538	13
176.0621	247
177.0674	107
178.0765	338
179.0572	17
182.9747	10
199.0312	15
