Mass spectrum: Nifedipine; LC-ESI-QTOF; MS2; 110 V
Name: Nifedipine
Class: Pharmaceutical
Formula: C17H18N2O6
Exact mass: 346.1165
SMILES: CC1=C(C(C(=C(N1)C)C(=O)OC)C2=CC=CC=C2[N+](=O)[O-])C(=O)OC
InChI: InChI=1S/C17H18N2O6/c1-9-13(16(20)24-3)15(14(10(2)18-9)17(21)25-4)11-7-5-6-8-12(11)19(22)23/h5-8,15,18H,1-4H3
Instrument: TripleTOF 5600 SCIEX
Instrument type: LC-ESI-QTOF
Ms type: MS2
Ion mode: POSITIVE
Collision energy: 110
Fragmentation mode: CID
Ionization: ESI
Column name: Zorbax Eclipse Plus C18 2.1 mm x 150 mm, 3.5 um, Agilent
Retention time: 10.896 min
Precursor m/z: 347.1238
Precursor type: [M+H]+
m/z	relative intensity
42.0464	21
50.0241	20
62.0217	21
63.0303	85
65.0449	55
67.0245	12
74.0208	64
75.0287	182
76.035	62
77.0442	393
78.0397	14
78.0521	41
86.0197	17
87.0262	42
88.0348	69
89.0428	368
90.038	10
90.0508	51
91.0577	47
92.0537	13
93.0598	15
98.0189	42
99.0266	148
100.0243	37
101.0422	209
102.0491	165
103.0447	14
103.0562	25
104.053	14
106.0682	12
113.0412	282
114.0459	218
115.0567	800
116.0522	96
117.0591	64
125.0409	236
126.0477	316
127.0556	587
128.0579	498
129.057	73
130.0665	35
137.0398	31
138.0468	92
139.0554	999
140.0514	830
141.0637	139
142.0591	51
143.0717	24
149.0389	13
150.0477	111
151.0545	213
152.0581	572
153.0582	227
154.0409	11
154.0658	259
155.0612	63
163.0548	30
164.0495	224
165.0576	141
166.0654	696
167.0733	674
168.0765	127
169.0741	24
176.0502	13
177.0571	45
178.0646	47
179.061	201
180.0793	75
181.0766	66
191.0598	138
192.068	323
193.0754	90
194.0843	25
195.0913	20
196.0725	11
