Mass spectrum: 3,4,5-Trimethoxybenzoic acid; LC-ESI-QTOF; MS2; 40 V
Name: 3,4,5-Trimethoxybenzoic acid
Class: Pharmaceutical; Industrial_process; Metabolite
Formula: C10H12O5
Exact mass: 212.0685
SMILES: COc1cc(cc(OC)c1OC)C(O)=O
InChI: InChI=1S/C10H12O5/c1-13-7-4-6(10(11)12)5-8(14-2)9(7)15-3/h4-5H,1-3H3,(H,11,12)
Instrument: TripleTOF 5600 SCIEX
Instrument type: LC-ESI-QTOF
Ms type: MS2
Ion mode: POSITIVE
Collision energy: 40
Fragmentation mode: CID
Ionization: ESI
Column name: Zorbax Eclipse Plus C18 2.1 mm x 150 mm, 3.5 um, Agilent
Retention time: 7.633 min
Precursor m/z: 213.0757
Precursor type: [M+H]+
m/z	relative intensity
51.0285	25
53.0441	25
55.023	29
55.0603	29
65.0422	381
66.0503	33
67.0571	33
68.0283	58
69.0007	29
77.0404	134
78.0495	67
79.0209	25
79.0578	25
81.0361	100
82.0435	20
83.0518	88
91.0551	20
92.0259	20
93.0345	306
94.0421	62
95.0151	54
95.0493	188
96.0214	151
96.0599	29
107.0122	62
107.0488	20
108.0568	33
109.0281	83
109.0655	75
110.035	33
111.0438	386
121.0276	37
122.0351	33
123.0437	314
124.0524	71
125.0601	96
137.0232	41
138.0674	285
139.0385	747
139.074	29
151.0396	37
152.0464	37
153.0537	50
154.0623	999
169.086	54
195.0651	50
