Mass spectrum: Nifedipine; LC-ESI-QTOF; MS2; 30 V
Name: Nifedipine
Class: Pharmaceutical
Formula: C17H18N2O6
Exact mass: 346.1165
SMILES: CC1=C(C(C(=C(N1)C)C(=O)OC)C2=CC=CC=C2[N+](=O)[O-])C(=O)OC
InChI: InChI=1S/C17H18N2O6/c1-9-13(16(20)24-3)15(14(10(2)18-9)17(21)25-4)11-7-5-6-8-12(11)19(22)23/h5-8,15,18H,1-4H3
Instrument: TripleTOF 5600 SCIEX
Instrument type: LC-ESI-QTOF
Ms type: MS2
Ion mode: POSITIVE
Collision energy: 30
Fragmentation mode: CID
Ionization: ESI
Column name: Zorbax Eclipse Plus C18 2.1 mm x 150 mm, 3.5 um, Agilent
Retention time: 10.896 min
Precursor m/z: 347.1238
Precursor type: [M+H]+
m/z	relative intensity
122.0261	42
142.0667	23
154.066	62
166.0658	10
167.072	19
168.0816	63
169.0772	13
170.0609	53
178.0658	32
180.069	39
181.0758	45
182.0844	76
183.0921	90
193.0763	33
194.0837	174
195.0917	286
196.0993	113
197.1069	39
209.0715	101
210.0873	26
211.0859	288
212.0943	79
214.05	96
218.081	13
221.0712	33
222.078	116
223.0866	160
224.0589	14
226.0855	109
227.081	16
228.0889	28
238.0722	10
239.0812	349
241.0968	101
246.0755	19
253.0973	376
254.1039	999
255.0761	20
256.0824	30
268.0946	21
270.076	83
271.1068	50
284.0915	37
315.0978	13
