Mass spectrum: Methyl-tris(4-fluorophenyl)phosphonium; LC-ESI-QTOF; MS2; 150 V
Name: Methyl-tris(4-fluorophenyl)phosphonium
Class: Industrial_process
Formula: [C19H15F3P]+
Exact mass: 331.0858
SMILES: C[P+](c1ccc(F)cc1)(c2ccc(F)cc2)c3ccc(F)cc3
InChI: InChI=1S/C19H15F3P/c1-23(17-8-2-14(20)3-9-17,18-10-4-15(21)5-11-18)19-12-6-16(22)7-13-19/h2-13H,1H3/q+1
Instrument: TripleTOF 5600 SCIEX
Instrument type: LC-ESI-QTOF
Ms type: MS2
Ion mode: POSITIVE
Collision energy: 150
Fragmentation mode: CID
Ionization: ESI
Column name: Zorbax Eclipse Plus C18 2.1 mm x 150 mm, 3.5 um, Agilent
Retention time: 7.52 min
Precursor m/z: 331.0858
Precursor type: [M]+
m/z	relative intensity
57.0193	270
68.9742	139
74.0176	999
74.9818	573
75.0251	376
78.9749	319
79.9835	565
81.0149	155
83.0308	90
85.0089	65
86.0152	122
87.0229	122
91.9823	98
92.9941	65
94.0226	106
98.0151	933
98.9798	605
99.0227	294
103.9815	163
104.9901	65
107.0294	122
110.0149	155
111.0215	106
120.0354	114
122.0146	507
122.981	147
123.0225	343
124.9946	949
127.9822	114
133.0417	49
144.0365	212
148.0303	57
149.039	245
150.0468	262
157.0418	98
162.0261	57
167.0285	155
168.0364	712
169.043	131
179.0036	147
186.0292	98
187.0388	73
188.0432	98
196.996	139
198.0027	90
199.0094	131
