Mass spectrum: Propyphenazone; LC-ESI-QTOF; MS2; 150 V
Name: Propyphenazone
Class: Pharmaceutical
Formula: C14H18N2O
Exact mass: 230.1419
SMILES: CC1=C(C(=O)N(N1C)C2=CC=CC=C2)C(C)C
InChI: InChI=1S/C14H18N2O/c1-10(2)13-11(3)15(4)16(14(13)17)12-8-6-5-7-9-12/h5-10H,1-4H3
Instrument: TripleTOF 5600 SCIEX
Instrument type: LC-ESI-QTOF
Ms type: MS2
Ion mode: POSITIVE
Collision energy: 150
Fragmentation mode: CID
Ionization: ESI
Column name: Zorbax Eclipse Plus C18 2.1 mm x 150 mm, 3.5 um, Agilent
Retention time: 9.545 min
Precursor m/z: 231.1492
Precursor type: [M+H]+
m/z	relative intensity
37.0072	148
38.0153	69
39.0233	257
41.0268	79
42.0341	79
49.0076	207
50.0156	999
51.0233	771
52.0183	118
53.0395	59
56.0494	286
62.0148	89
63.023	128
67.0422	108
74.0155	168
77.0383	98
80.0491	79
