Mass spectrum: 4-Carboxy-9-acridanone; LC-ESI-QTOF; MS2; 90 V
Name: 4-Carboxy-9-acridanone
Class: Pharmaceutical; Antimicrobial
Formula: C14H9NO3
Exact mass: 239.0582
SMILES: c1ccc2c(c1)c(=O)c3cccc(c3[nH]2)C(=O)O
InChI: InChI=1S/C14H9NO3/c16-13-8-4-1-2-7-11(8)15-12-9(13)5-3-6-10(12)14(17)18/h1-7H,(H,15,16)(H,17,18)
Instrument: TripleTOF 5600 SCIEX
Instrument type: LC-ESI-QTOF
Ms type: MS2
Ion mode: POSITIVE
Collision energy: 90
Fragmentation mode: CID
Ionization: ESI
Column name: Zorbax Eclipse Plus C18 2.1 mm x 150 mm, 3.5 um, Agilent
Retention time: 8.816 min
Precursor m/z: 240.0655
Precursor type: [M+H]+
m/z	relative intensity
51.0289	22
64.0312	15
65.0429	108
74.0179	41
75.0266	31
76.0336	187
86.0162	82
87.0244	225
87.0416	28
88.0193	50
88.0316	50
89.0402	499
89.0684	25
90.035	69
98.0176	31
99.0217	19
102.0452	22
104.0321	15
110.0182	22
111.023	15
112.0321	25
113.0386	999
114.0336	200
115.0531	289
116.0475	63
126.0461	25
137.0366	92
138.0445	120
139.0535	553
140.0486	652
164.0482	152
165.0581	25
