Mass spectrum: Formononetin; LC-ESI-QTOF; MS2; 70 V
Name: Formononetin
Class: Metabolite; Metabolite; Pharmaceutical
Formula: C16H12O4
Exact mass: 268.0736
SMILES: COc1ccc(cc1)C2=COc3cc(O)ccc3C2=O
InChI: InChI=1S/C16H12O4/c1-19-12-5-2-10(3-6-12)14-9-20-15-8-11(17)4-7-13(15)16(14)18/h2-9,17H,1H3
Instrument: TripleTOF 5600 SCIEX
Instrument type: LC-ESI-QTOF
Ms type: MS2
Ion mode: POSITIVE
Collision energy: 70
Fragmentation mode: CID
Ionization: ESI
Column name: Zorbax Eclipse Plus C18 2.1 mm x 150 mm, 3.5 um, Agilent
Retention time: 10.093 min
Precursor m/z: 269.0808
Precursor type: [M+H]+
m/z	relative intensity
52.0363	26
53.0436	11
64.0354	25
65.0436	34
69.0014	76
74.0224	11
75.0277	21
77.0423	223
79.0571	22
80.0281	49
81.0361	80
89.0417	743
90.0489	407
91.0558	65
92.0283	67
101.0394	16
102.047	46
103.0546	38
105.0351	29
107.0505	13
108.0199	61
115.0553	915
116.0622	30
118.0416	165
126.0464	28
127.0549	185
128.0626	249
129.0706	48
131.0492	43
136.0138	10
137.023	86
139.0554	148
140.0622	37
141.0707	999
142.0399	16
142.0786	11
144.0565	66
150.0458	49
151.055	256
152.0624	647
153.0699	161
155.0492	94
156.0556	13
157.0645	21
163.0538	21
165.0709	24
168.0573	200
169.0656	550
170.0727	32
171.0463	38
172.0518	16
179.0488	59
180.0595	10
181.0653	235
183.0453	12
195.046	19
196.0522	110
197.0604	911
198.0654	13
200.0464	31
209.0597	15
211.0377	17
224.0487	31
225.0542	218
237.0533	41
253.0522	70
