Mass spectrum: Perfluorooctanoic acid; LC-ESI-QTOF; MS2; 40 V
Name: Perfluorooctanoic acid
Class: Industrial_process; PFAS
Formula: C8HF15O2
Exact mass: 413.9737
SMILES: C(=O)(C(C(C(C(C(C(C(F)(F)F)(F)F)(F)F)(F)F)(F)F)(F)F)(F)F)O
InChI: InChI=1S/C8HF15O2/c9-2(10,1(24)25)3(11,12)4(13,14)5(15,16)6(17,18)7(19,20)8(21,22)23/h(H,24,25)
Instrument: TripleTOF 5600 SCIEX
Instrument type: LC-ESI-QTOF
Ms type: MS2
Ion mode: NEGATIVE
Collision energy: 40
Fragmentation mode: CID
Ionization: ESI
Column name: Zorbax Eclipse Plus C18 2.1 mm x 150 mm, 3.5 um, Agilent
Retention time: 14.87 min
Precursor m/z: 412.9664
Precursor type: [M-H]-
m/z	relative intensity
118.9934	211
168.9891	999
218.9869	249
368.9738	347
