Mass spectrum: 4,4`-Thiodianiline; LC-ESI-QTOF; MS2; 80 V
Name: 4,4`-Thiodianiline
Formula: C12H12N2S
Exact mass: 216.0721
SMILES: C1=CC(=CC=C1N)SC2=CC=C(C=C2)N
InChI: InChI=1S/C12H12N2S/c13-9-1-5-11(6-2-9)15-12-7-3-10(14)4-8-12/h1-8H,13-14H2
Instrument: TripleTOF 6600 SCIEX
Instrument type: LC-ESI-QTOF
Ms type: MS2
Ion mode: POSITIVE
Collision energy: 80
Fragmentation mode: CID
Ionization: ESI
Column name: Zorbax Eclipse Plus C18 2.1 mm x 150 mm, 3.5 um, Agilent
Retention time: 6.429 min
Precursor m/z: 217.0794
Precursor type: [M+H]+
m/z	relative intensity
39.0229	41
44.9792	26
50.0143	146
51.0228	30
53.0379	296
62.0146	22
63.0218	82
65.0373	52
66.0461	33
67.0404	18
68.9781	56
74.0146	26
75.022	30
76.0298	75
77.0386	112
78.0357	37
79.0402	22
80.0483	999
81.0506	15
81.9856	26
86.0139	18
87.022	52
88.0308	18
89.0375	120
91.0398	26
92.0471	18
92.9774	15
93.0573	30
96.0013	45
97.0093	63
101.0397	15
102.0455	37
113.0367	97
114.044	48
115.0532	67
117.0524	15
122.0053	18
123.0115	214
124.0213	63
126.0455	63
127.0523	206
128.0606	101
130.065	18
134.0242	18
137.0376	41
138.0435	71
139.0534	454
140.0516	67
141.0583	15
145.0091	22
146.0115	15
150.0473	30
152.0575	37
154.064	26
155.0692	18
166.0617	30
167.0707	26
171.0251	180
172.0292	15
