Mass spectrum: N,N-Dimethyldecanamide; LC-ESI-QTOF; MS2; 100 V
Name: N,N-Dimethyldecanamide
Class: Industrial_process
Formula: C12H25NO
Exact mass: 199.1936
SMILES: CCCCCCCCCC(=O)N(C)C
InChI: InChI=1S/C12H25NO/c1-4-5-6-7-8-9-10-11-12(14)13(2)3/h4-11H2,1-3H3
Instrument: TripleTOF 6600 SCIEX
Instrument type: LC-ESI-QTOF
Ms type: MS2
Ion mode: POSITIVE
Collision energy: 100
Fragmentation mode: CID
Ionization: ESI
Column name: Zorbax Eclipse Plus C18 2.1 mm x 150 mm, 3.5 um, Agilent
Retention time: 13.577 min
Precursor m/z: 200.2009
Precursor type: [M+H]+
m/z	relative intensity
30.0337	42
37.0068	88
38.0026	36
38.0143	79
39.0227	445
41.038	101
42.0332	58
43.0174	185
44.0493	999
46.0646	47
53.0127	16
54.0331	11
55.0174	27
56.012	16
58.0277	73
72.0428	27
