Mass spectrum: Candesartan; LC-ESI-QTOF; MS2; 120 V
Name: Candesartan
Class: Pharmaceutical
Formula: C24H20N6O3
Exact mass: 440.1597
SMILES: CCOc1nc2cccc(C(O)=O)c2n1Cc3ccc(cc3)c4ccccc4c5n[nH]nn5
InChI: InChI=1S/C24H20N6O3/c1-2-33-24-25-20-9-5-8-19(23(31)32)21(20)30(24)14-15-10-12-16(13-11-15)17-6-3-4-7-18(17)22-26-28-29-27-22/h3-13H,2,14H2,1H3,(H,31,32)(H,26,27,28,29)
Instrument: TripleTOF 5600 SCIEX
Instrument type: LC-ESI-QTOF
Ms type: MS2
Ion mode: POSITIVE
Collision energy: 120
Fragmentation mode: CID
Ionization: ESI
Column name: Zorbax Eclipse Plus C18 2.1 mm x 150 mm, 3.5 um, Agilent
Retention time: 10.001 min
Precursor m/z: 441.167
Precursor type: [M+H]+
m/z	relative intensity
65.0415	17
75.0245	28
77.0406	122
78.0366	61
87.024	14
89.0395	39
90.0339	35
91.0548	15
99.0233	12
101.038	26
102.0341	10
102.045	29
105.0448	134
113.0377	60
114.0444	22
115.0541	126
116.0485	18
125.0381	33
126.0463	81
127.0537	129
128.0486	14
128.0615	60
133.0378	13
137.0378	40
138.0456	52
139.0544	130
140.0488	210
149.0379	23
150.046	273
151.0539	757
152.0615	999
153.0602	104
154.0633	14
161.0359	15
162.0456	69
163.0537	514
164.0561	487
165.0693	446
166.0641	38
167.0704	14
168.0683	11
175.0496	25
176.0612	348
177.059	358
178.0657	326
179.0699	75
180.0792	23
188.0491	105
189.0575	118
190.0649	540
191.0704	106
192.073	52
203.064	16
204.0698	29
205.0752	232
214.0611	12
216.0784	14
218.0829	23
224.06	10
225.0703	10
231.0913	10
238.0643	21
239.0794	13
240.0805	19
251.0731	36
252.0789	13
253.0837	21
262.0647	11
264.0799	22
265.0745	29
266.0861	18
276.07	13
277.0746	13
278.0871	12
279.0919	17
