Mass spectrum: Isorhamnetin; LC-ESI-QTOF; MS2; 90 V
Name: Isorhamnetin
Class: Pharmaceutical; Metabolite
Formula: C16H12O7
Exact mass: 316.0583
SMILES: COc1cc(ccc1O)C2=C(O)C(=O)c3c(O)cc(O)cc3O2
InChI: InChI=1S/C16H12O7/c1-22-11-4-7(2-3-9(11)18)16-15(21)14(20)13-10(19)5-8(17)6-12(13)23-16/h2-6,17-19,21H,1H3
Instrument: TripleTOF 5600 SCIEX
Instrument type: LC-ESI-QTOF
Ms type: MS2
Ion mode: NEGATIVE
Collision energy: 90
Fragmentation mode: CID
Ionization: ESI
Column name: Zorbax Eclipse Plus C18 2.1 mm x 150 mm, 3.5 um, Agilent
Retention time: 9.418 min
Precursor m/z: 315.051
Precursor type: [M-H]-
m/z	relative intensity
41.0032	317
65.0027	999
68.9981	68
79.0169	68
83.0135	136
89.0017	45
89.0391	68
91.0184	136
93.0331	90
95.0126	136
107.0133	113
108.0209	363
109.0293	113
117.0337	181
119.0138	68
129.0332	68
132.0234	45
133.0298	113
135.0066	136
141.0342	113
143.0516	113
145.0284	158
147.0065	68
154.0431	45
163.0065	113
169.0304	136
171.0452	68
