Mass spectrum: Cocaethylene; LC-ESI-QTOF; MS2; 90 V
Name: Cocaethylene
Class: Metabolite
Formula: C18H23NO4
Exact mass: 317.1627
SMILES: CCOC(=O)C1C2CCC(N2C)CC1OC(=O)C3=CC=CC=C3
InChI: InChI=1S/C18H23NO4/c1-3-22-18(21)16-14-10-9-13(19(14)2)11-15(16)23-17(20)12-7-5-4-6-8-12/h4-8,13-16H,3,9-11H2,1-2H3
Instrument: TripleTOF 6600 SCIEX
Instrument type: LC-ESI-QTOF
Ms type: MS2
Ion mode: POSITIVE
Collision energy: 90
Fragmentation mode: CID
Ionization: ESI
Column name: Zorbax Eclipse Plus C18 2.1 mm x 150 mm, 3.5 um, Agilent
Retention time: 7.013 min
Precursor m/z: 318.17
Precursor type: [M+H]+
m/z	relative intensity
39.0241	52
41.0398	54
42.035	52
44.0498	9
49.0077	11
50.0161	73
51.0242	285
53.0396	13
55.0188	17
55.0552	48
56.0501	17
57.0588	11
65.0396	160
67.0427	217
67.0542	38
68.0505	135
70.0654	11
77.0398	999
79.0549	30
80.0501	57
81.0584	13
82.0663	406
83.0506	17
83.0729	21
91.0549	142
93.0579	15
94.0658	148
105.0343	25
105.0447	30
106.0657	21
108.0813	15
