Mass spectrum: Chlormethiazole; LC-ESI-QTOF; MS2; 110 V
Name: Chlormethiazole
Class: Pharmaceutical
Formula: C6H8ClNS
Exact mass: 161.0066
SMILES: CC1=C(SC=N1)CCCl
InChI: InChI=1S/C6H8ClNS/c1-5-6(2-3-7)9-4-8-5/h4H,2-3H2,1H3
Instrument: TripleTOF 6600 SCIEX
Instrument type: LC-ESI-QTOF
Ms type: MS2
Ion mode: POSITIVE
Collision energy: 110
Fragmentation mode: CID
Ionization: ESI
Column name: Zorbax Eclipse Plus C18 2.1 mm x 150 mm, 3.5 um, Agilent
Retention time: 7.946 min
Precursor m/z: 162.0139
Precursor type: [M+H]+
m/z	relative intensity
35.9994	53
37.0078	180
38.0031	42
38.0151	148
39.023	297
42.0341	191
43.9713	116
44.9793	999
45.9743	63
49.007	53
50.015	148
51.0227	63
56.978	74
57.9864	85
58.9948	95
68.9789	74
70.9947	180
