Mass spectrum: Pentoxifylline; LC-ESI-QTOF; MS2; 60 V
Name: Pentoxifylline
Class: Pharmaceutical
Formula: C13H18N4O3
Exact mass: 278.1379
SMILES: Cn1cnc2N(C)C(=O)N(CCCCC(C)=O)C(=O)c12
InChI: InChI=1S/C13H18N4O3/c1-9(18)6-4-5-7-17-12(19)10-11(14-8-15(10)2)16(3)13(17)20/h8H,4-7H2,1-3H3
Instrument: TripleTOF 5600 SCIEX
Instrument type: LC-ESI-QTOF
Ms type: MS2
Ion mode: POSITIVE
Collision energy: 60
Fragmentation mode: CID
Ionization: ESI
Column name: Zorbax Eclipse Plus C18 2.1 mm x 150 mm, 3.5 um, Agilent
Retention time: 6.772 min
Precursor m/z: 279.1452
Precursor type: [M+H]+
m/z	relative intensity
42.0432	715
43.0269	725
53.019	23
54.0383	29
56.0548	158
67.0333	646
68.04	69
68.0521	26
69.0483	527
79.0314	19
81.0466	141
82.0545	65
83.063	695
85.0412	36
93.0323	13
93.0461	19
94.0424	52
95.0497	39
96.0563	65
97.0405	36
99.0812	59
108.0556	425
109.0394	181
110.0716	877
111.0547	36
113.034	138
122.058	286
123.0427	471
123.0665	19
135.066	227
136.0504	42
137.0829	128
138.0662	999
148.0361	23
163.062	349
181.0718	194
181.0908	16
193.072	13
