Mass spectrum: Octyl hydrogen sulfate; LC-ESI-QTOF; MS2; 120 V
Name: Octyl hydrogen sulfate
Formula: C8H18O4S
Exact mass: 210.0926
SMILES: CCCCCCCCOS(=O)(=O)O
InChI: InChI=1S/C8H18O4S/c1-2-3-4-5-6-7-8-12-13(9,10)11/h2-8H2,1H3,(H,9,10,11)
Instrument: TripleTOF 6600 SCIEX
Instrument type: LC-ESI-QTOF
Ms type: MS2
Ion mode: NEGATIVE
Collision energy: 120
Fragmentation mode: CID
Ionization: ESI
Column name: Zorbax Eclipse Plus C18 2.1 mm x 150 mm, 3.5 um, Agilent
Retention time: 10.41 min
Precursor m/z: 209.0853
Precursor type: [M-H]-
m/z	relative intensity
63.9626	75
79.9578	999
95.9524	44
96.9603	13
