Mass spectrum: 4,4`-Methylenebis(2-methylaniline); LC-ESI-QTOF; MS2; 90 V
Name: 4,4`-Methylenebis(2-methylaniline)
Formula: C15H18N2
Exact mass: 226.147
SMILES: CC1=C(C=CC(=C1)CC2=CC(=C(C=C2)N)C)N
InChI: InChI=1S/C15H18N2/c1-10-7-12(3-5-14(10)16)9-13-4-6-15(17)11(2)8-13/h3-8H,9,16-17H2,1-2H3
Instrument: TripleTOF 6600 SCIEX
Instrument type: LC-ESI-QTOF
Ms type: MS2
Ion mode: POSITIVE
Collision energy: 90
Fragmentation mode: CID
Ionization: ESI
Column name: Zorbax Eclipse Plus C18 2.1 mm x 150 mm, 3.5 um, Agilent
Retention time: 5.215 min
Precursor m/z: 227.1543
Precursor type: [M+H]+
m/z	relative intensity
39.022	84
50.015	54
51.0213	367
63.0207	42
65.0375	132
66.0447	30
75.0206	42
76.0297	24
77.037	999
78.0324	30
78.0454	90
79.0492	24
80.0468	102
89.0384	72
91.0526	355
92.0522	30
93.0566	54
102.0455	108
103.0515	30
104.0473	294
105.056	30
115.0525	108
117.056	66
118.0621	132
120.0797	72
126.0444	102
127.0525	84
128.0603	78
139.0502	114
140.0479	36
150.044	300
151.0535	288
152.0611	391
153.0674	30
163.0517	78
164.0612	78
165.0682	246
166.0718	60
175.051	36
176.0578	186
177.062	36
189.0704	24
190.0653	36
191.0744	54
