Mass spectrum: 2-Morpholin-4-yl-benzothiazole; LC-ESI-QTOF; MS2; 140 V
Name: 2-Morpholin-4-yl-benzothiazole
Class: Industrial_process
Formula: C11H12N2OS
Exact mass: 220.067
SMILES: c1ccc2c(c1)nc(s2)N3CCOCC3
InChI: InChI=1S/C11H12N2OS/c1-2-4-10-9(3-1)12-11(15-10)13-5-7-14-8-6-13/h1-4H,5-8H2
Instrument: TripleTOF 5600 SCIEX
Instrument type: LC-ESI-QTOF
Ms type: MS2
Ion mode: POSITIVE
Collision energy: 140
Fragmentation mode: CID
Ionization: ESI
Column name: Zorbax Eclipse Plus C18 2.1 mm x 150 mm, 3.5 um, Agilent
Retention time: 9.363 min
Precursor m/z: 221.0743
Precursor type: [M+H]+
m/z	relative intensity
51.0291	134
56.9832	10
57.992	25
60.0037	17
65.0424	38
67.9749	134
68.9833	999
69.0352	12
69.99	21
73.0125	10
74.0181	56
75.0247	15
77.0419	25
80.9812	32
81.9883	80
89.0413	17
91.972	21
92.9803	99
94.9966	49
108.0048	10
