Mass spectrum: Ipconazole; LC-ESI-QTOF; MS2; 100 V
Name: Ipconazole
Class: Fungicide
Formula: C18H24ClN3O
Exact mass: 333.1608
SMILES: CC(C)C1CCC(C1(CN2C=NC=N2)O)CC3=CC=C(C=C3)Cl
InChI: InChI=1S/C18H24ClN3O/c1-13(2)17-8-5-15(9-14-3-6-16(19)7-4-14)18(17,23)10-22-12-20-11-21-22/h3-4,6-7,11-13,15,17,23H,5,8-10H2,1-2H3
Instrument: TripleTOF 6600 SCIEX
Instrument type: LC-ESI-QTOF
Ms type: MS2
Ion mode: POSITIVE
Collision energy: 100
Fragmentation mode: CID
Ionization: ESI
Column name: Zorbax Eclipse Plus C18 2.1 mm x 150 mm, 3.5 um, Agilent
Retention time: 13.862 min
Precursor m/z: 334.1681
Precursor type: [M+H]+
m/z	relative intensity
43.029	147
63.0222	37
65.0378	11
70.0398	999
72.9829	24
77.0376	14
89.0378	143
90.045	43
98.9986	79
115.0527	46
125.0141	70
128.0605	24
141.0688	10
