Mass spectrum: Betaxolol; LC-ESI-QTOF; MS2; 50 V
Name: Betaxolol
Class: Pharmaceutical
Formula: C18H29NO3
Exact mass: 307.2147
SMILES: CC(C)NCC(COC1=CC=C(C=C1)CCOCC2CC2)O
InChI: InChI=1S/C18H29NO3/c1-14(2)19-11-17(20)13-22-18-7-5-15(6-8-18)9-10-21-12-16-3-4-16/h5-8,14,16-17,19-20H,3-4,9-13H2,1-2H3
Instrument: TripleTOF 5600 SCIEX
Instrument type: LC-ESI-QTOF
Ms type: MS2
Ion mode: POSITIVE
Collision energy: 50
Fragmentation mode: CID
Ionization: ESI
Column name: Zorbax Eclipse Plus C18 2.1 mm x 150 mm, 3.5 um, Agilent
Retention time: 7.064 min
Precursor m/z: 308.222
Precursor type: [M+H]+
m/z	relative intensity
43.0304	66
44.0607	30
55.0245	13
55.0316	19
56.059	915
57.0419	16
58.0735	132
65.0459	30
67.0615	105
70.0719	13
72.0873	628
74.0661	918
77.0441	401
78.0561	16
79.0597	326
81.0751	74
84.0851	149
86.0645	30
91.059	960
93.0744	260
98.1001	337
100.1154	152
103.0576	470
104.0675	88
105.0355	13
105.0734	860
107.0532	88
107.0895	33
109.0659	13
110.0988	35
115.0568	240
116.0643	80
116.1096	437
117.0718	237
119.0512	41
119.0882	113
120.06	30
121.0672	999
127.0572	88
128.064	265
129.0711	224
130.0794	47
131.0518	88
131.0871	246
132.0593	35
133.0667	677
135.0819	47
141.0718	199
142.0792	69
143.0845	35
144.0581	204
144.0918	16
145.0658	94
146.0613	13
146.0732	33
147.0812	141
148.0762	116
149.0646	24
151.0757	41
152.0621	13
153.0713	24
154.0772	24
155.0868	33
157.0674	80
157.1018	19
158.0741	63
159.0815	213
161.095	80
165.0668	11
167.0887	16
169.0635	33
170.0729	16
171.0822	58
172.0905	52
175.0812	11
175.1138	22
177.0951	69
183.0829	35
185.0982	16
