Mass spectrum: Indigo; LC-ESI-QTOF; MS2; 40 V
Name: Indigo
Formula: C16H10N2O2
Exact mass: 262.0742
SMILES: C1=CC=C2C(=C1)C(=C(N2)C3=NC4=CC=CC=C4C3=O)O
InChI: InChI=1S/C16H10N2O2/c19-15-9-5-1-3-7-11(9)17-13(15)14-16(20)10-6-2-4-8-12(10)18-14/h1-8,17,19H
Instrument: TripleTOF X500R SCIEX
Instrument type: LC-ESI-QTOF
Ms type: MS2
Ion mode: POSITIVE
Collision energy: 40
Fragmentation mode: CID
Ionization: ESI
Column name: Zorbax Eclipse Plus C18 2.1 mm x 150 mm, 3.5 um, Agilent
Retention time: 11.892 min
Precursor m/z: 263.0815
Precursor type: [M+H]+
m/z	relative intensity
77.0384	157
89.0382	26
102.0335	32
103.0439	16
104.0274	26
104.0498	108
105.0324	52
105.0465	13
116.0508	75
117.0591	22
120.0445	32
130.03	55
132.0445	556
144.0442	29
152.0622	39
153.0696	36
157.041	39
158.049	65
165.0711	75
179.0737	101
180.0807	307
181.0635	42
190.0661	402
191.0725	29
192.0752	49
205.078	131
206.0844	769
207.0918	140
208.0769	288
216.0695	104
217.0762	357
218.0592	52
218.0833	160
219.0925	645
233.0707	39
234.0793	707
235.0874	989
236.0729	52
245.0698	49
246.0783	55
262.0745	815
263.0824	999
