Mass spectrum: 4,4`-Thiodianiline; LC-ESI-QTOF; MS2; 70 V
Name: 4,4`-Thiodianiline
Formula: C12H12N2S
Exact mass: 216.0721
SMILES: C1=CC(=CC=C1N)SC2=CC=C(C=C2)N
InChI: InChI=1S/C12H12N2S/c13-9-1-5-11(6-2-9)15-12-7-3-10(14)4-8-12/h1-8H,13-14H2
Instrument: TripleTOF 6600 SCIEX
Instrument type: LC-ESI-QTOF
Ms type: MS2
Ion mode: POSITIVE
Collision energy: 70
Fragmentation mode: CID
Ionization: ESI
Column name: Zorbax Eclipse Plus C18 2.1 mm x 150 mm, 3.5 um, Agilent
Retention time: 6.429 min
Precursor m/z: 217.0794
Precursor type: [M+H]+
m/z	relative intensity
39.0222	10
50.0144	63
53.038	129
63.0223	21
65.0363	20
66.0447	29
67.0411	12
68.9782	18
75.0227	12
76.0294	78
77.0388	18
78.0337	10
79.0409	12
80.0489	999
81.0521	14
87.0228	12
89.0359	65
90.0417	10
91.0403	12
92.0477	14
93.0557	60
96.0007	16
97.0094	80
102.0452	25
103.0528	12
113.0372	58
114.0466	14
115.0528	47
117.0551	18
123.0108	144
124.0201	180
126.0447	18
127.0526	83
128.0597	87
129.0619	21
130.0658	20
134.0129	14
137.0359	14
138.0459	29
139.0526	490
140.0477	76
145.0062	10
150.0447	16
151.0531	18
152.0615	49
154.0636	32
155.0623	14
156.0782	18
157.0778	10
166.0638	23
167.0704	29
171.0239	282
172.0334	10
182.0153	20
182.0826	10
198.0367	20
