Mass spectrum: Ranitidine; LC-ESI-QTOF; MS2; 40 V
Name: Ranitidine
Class: Pharmaceutical
Formula: C13H22N4O3S
Exact mass: 314.1413
SMILES: CNC(=C[N+](=O)[O-])NCCSCC1=CC=C(O1)CN(C)C
InChI: InChI=1S/C13H22N4O3S/c1-14-13(9-17(18)19)15-6-7-21-10-12-5-4-11(20-12)8-16(2)3/h4-5,9,14-15H,6-8,10H2,1-3H3
Instrument: TripleTOF 5600 SCIEX
Instrument type: LC-ESI-QTOF
Ms type: MS2
Ion mode: POSITIVE
Collision energy: 40
Fragmentation mode: CID
Ionization: ESI
Column name: Zorbax Eclipse Plus C18 2.1 mm x 150 mm, 3.5 um, Agilent
Retention time: 4.832 min
Precursor m/z: 315.1485
Precursor type: [M+H]+
m/z	relative intensity
55.05	15
56.0553	24
68.0555	17
79.0591	13
81.0355	309
82.0692	13
83.0613	38
84.0692	41
85.0422	10
88.0223	49
94.0666	23
95.0497	68
95.0725	10
97.0117	15
97.0767	275
98.0848	411
101.0298	32
102.0378	870
104.0499	15
106.0649	12
107.0493	105
108.0795	24
109.0751	10
110.06	30
110.0952	74
114.079	17
115.0324	18
117.048	38
118.0319	29
118.0656	17
121.0759	83
123.026	10
124.0751	146
125.0058	926
126.0139	13
129.048	52
130.0562	999
131.0638	18
132.0444	35
132.0779	10
133.0519	38
133.0732	10
135.0278	23
135.0913	132
138.0913	46
140.0537	10
144.077	74
145.0438	10
146.0547	13
147.0691	18
147.0899	20
148.0758	188
149.0713	43
150.0361	12
151.0214	23
153.0375	58
159.0438	13
160.0776	10
163.0873	72
164.0952	51
165.1031	137
167.0634	55
170.0636	71
176.0495	743
177.1028	134
178.0332	63
178.1112	23
181.0806	95
191.1183	184
192.0477	49
193.0565	49
194.0622	15
195.0745	15
209.0729	20
223.0937	18
224.0983	137
270.092	49
315.1488	44
