Mass spectrum: Dicloxacillin; LC-ESI-QTOF; MS2; 80 V
Name: Dicloxacillin
Formula: C19H17Cl2N3O5S
Exact mass: 469.0266
SMILES: CC1=C(C(=NO1)C2=C(C=CC=C2Cl)Cl)C(=O)NC3C4N(C3=O)C(C(S4)(C)C)C(=O)O
InChI: InChI=1S/C19H17Cl2N3O5S/c1-7-10(12(23-29-7)11-8(20)5-4-6-9(11)21)15(25)22-13-16(26)24-14(18(27)28)19(2,3)30-17(13)24/h4-6,13-14,17H,1-3H3,(H,22,25)(H,27,28)
Instrument: TripleTOF 6600 SCIEX
Instrument type: LC-ESI-QTOF
Ms type: MS2
Ion mode: POSITIVE
Collision energy: 80
Fragmentation mode: CID
Ionization: ESI
Column name: Zorbax Eclipse Plus C18 2.1 mm x 150 mm, 3.5 um, Agilent
Retention time: 11.23 min
Precursor m/z: 470.0339
Precursor type: [M+H]+
m/z	relative intensity
43.0141	89
44.9749	32
53.0362	38
70.0594	83
74.0084	38
87.0181	461
108.9747	64
114.027	999
123.9841	25
135.9949	70
144.9475	236
147.9814	76
148.991	44
156.9468	384
160.0297	25
170.962	57
171.9564	70
172.9513	204
183.9558	486
185.9712	70
195.9554	192
197.9705	236
209.9711	70
211.9484	262
213.9656	57
