Mass spectrum: 6`-Hydroxymethyl Simvastatin; LC-ESI-QTOF; MS2; 150 V
Name: 6`-Hydroxymethyl Simvastatin
Class: Metabolite; Pharmaceutical
Formula: C25H38O6
Exact mass: 434.2668
SMILES: CCC(C)(C)C(=O)OC1CC(C=C2C1C(C(C=C2)C)CCC3CC(CC(=O)O3)O)CO
InChI: InChI=1S/C25H38O6/c1-5-25(3,4)24(29)31-21-11-16(14-26)10-17-7-6-15(2)20(23(17)21)9-8-19-12-18(27)13-22(28)30-19/h6-7,10,15-16,18-21,23,26-27H,5,8-9,11-14H2,1-4H3
Instrument: TripleTOF 5600 SCIEX
Instrument type: LC-ESI-QTOF
Ms type: MS2
Ion mode: POSITIVE
Collision energy: 150
Fragmentation mode: CID
Ionization: ESI
Column name: Zorbax Eclipse Plus C18 2.1 mm x 150 mm, 3.5 um, Agilent
Retention time: 10.786 min
Precursor m/z: 435.2741
Precursor type: [M+H]+
m/z	relative intensity
77.0423	259
91.0582	179
115.0564	999
127.0539	219
128.0641	619
129.0678	179
139.0542	99
141.0708	719
152.0627	659
153.0705	259
164.0596	119
165.068	439
177.0745	119
178.0791	159
189.0671	79
202.0765	139
