Mass spectrum: Oxymetazoline; LC-ESI-QTOF; MS2; 90 V
Name: Oxymetazoline
Class: Pharmaceutical
Formula: C16H24N2O
Exact mass: 260.1889
SMILES: Cc1cc(c(c(c1CC2=NCCN2)C)O)C(C)(C)C
InChI: InChI=1S/C16H24N2O/c1-10-8-13(16(3,4)5)15(19)11(2)12(10)9-14-17-6-7-18-14/h8,19H,6-7,9H2,1-5H3,(H,17,18)
Instrument: TripleTOF 5600 SCIEX
Instrument type: LC-ESI-QTOF
Ms type: MS2
Ion mode: POSITIVE
Collision energy: 90
Fragmentation mode: CID
Ionization: ESI
Column name: Zorbax Eclipse Plus C18 2.1 mm x 150 mm, 3.5 um, Agilent
Retention time: 7.429 min
Precursor m/z: 261.1961
Precursor type: [M+H]+
m/z	relative intensity
54.0418	15
55.0489	15
57.0764	13
65.0438	262
67.0587	17
71.0635	18
77.0423	828
78.0504	55
79.0575	235
84.0699	23
89.0405	30
90.0496	10
91.0572	999
91.0924	10
92.0618	14
93.0716	44
101.0381	13
102.0475	54
103.055	272
104.0508	15
104.063	38
105.0707	317
107.0488	44
107.0848	10
115.0545	546
115.0796	13
116.049	15
116.063	52
117.0702	278
118.0757	32
119.0543	10
119.0853	77
121.0659	77
126.0454	15
127.0546	148
128.0625	541
129.0695	63
130.0652	55
131.0488	121
131.0855	39
132.0555	11
133.0635	15
133.1005	55
135.0815	19
141.0697	114
142.0633	17
142.078	25
143.0818	47
144.0579	17
144.0813	26
145.0651	101
146.0592	15
146.0712	32
147.0791	11
152.0614	14
154.0661	13
155.0619	14
156.0777	10
158.0884	18
159.0848	25
160.0843	14
161.0969	11
167.074	17
168.081	21
171.0901	21
185.107	17
187.086	21
