Mass spectrum: Iobitridol; LC-ESI-QTOF; MS2; 70 V
Name: Iobitridol
Class: Pharmaceutical
Formula: C20H28I3N3O9
Exact mass: 834.896
SMILES: CN(CC(O)CO)C(=O)c1c(I)c(NC(=O)C(CO)CO)c(I)c(c1I)C(=O)N(C)CC(O)CO
InChI: InChI=1S/C20H28I3N3O9/c1-25(3-10(31)7-29)19(34)12-14(21)13(20(35)26(2)4-11(32)8-30)16(23)17(15(12)22)24-18(33)9(5-27)6-28/h9-11,27-32H,3-8H2,1-2H3,(H,24,33)
Instrument: TripleTOF 6600 SCIEX
Instrument type: LC-ESI-QTOF
Ms type: MS2
Ion mode: POSITIVE
Collision energy: 70
Fragmentation mode: CID
Ionization: ESI
Column name: Zorbax Eclipse Plus C18 2.1 mm x 150 mm, 3.5 um, Agilent
Retention time: 4.58 min
Precursor m/z: 835.9033
Precursor type: [M+H]+
m/z	relative intensity
218.0522	58
296.9187	88
303.0925	58
317.9601	88
321.1073	176
325.9339	117
326.9417	73
339.926	73
343.9339	264
343.9527	102
344.9457	146
369.9229	220
387.9415	367
400.9992	543
413.8027	146
425.8107	88
426.9726	117
430.999	117
439.7858	396
449.0151	117
451.8399	88
467.8311	146
470.8316	117
497.7284	132
497.832	808
499.8427	117
500.8818	73
515.8055	132
515.8487	73
528.8572	73
554.8861	999
584.8798	73
584.9144	132
602.8806	102
602.9184	396
