Mass spectrum: Methyl-N-(3-amino-2-methylphenyl)carbamate; LC-ESI-QTOF; MS2; 40 V
Name: Methyl-N-(3-amino-2-methylphenyl)carbamate
Formula: C9H12N2O2
Exact mass: 180.0899
SMILES: COC(=O)NC1=CC=CC(=C1C)N
InChI: InChI=1S/C9H12N2O2/c1-6-7(10)4-3-5-8(6)11-9(12)13-2/h3-5H,10H2,1-2H3,(H,11,12)
Instrument: TripleTOF 5600 SCIEX
Instrument type: LC-ESI-QTOF
Ms type: MS2
Ion mode: POSITIVE
Collision energy: 40
Fragmentation mode: CID
Ionization: ESI
Column name: Zorbax Eclipse Plus C18 2.1 mm x 150 mm, 3.5 um, Agilent
Retention time: 4.424 min
Precursor m/z: 181.0972
Precursor type: [M+H]+
m/z	relative intensity
59.0219	12
66.0517	28
67.0499	10
77.0444	659
78.0398	48
79.0597	813
80.0553	33
89.0455	10
91.058	12
93.0633	28
94.0692	100
104.0527	92
105.0491	41
106.068	999
107.0757	87
121.0783	185
122.0852	20
132.0493	28
134.0493	442
149.0469	15
149.073	115
