Mass spectrum: Metsulfuron-methyl; LC-ESI-QTOF; MS2; 50 V
Name: Metsulfuron-methyl
Formula: C14H15N5O6S
Exact mass: 381.0743
SMILES: CC1=NC(=NC(=N1)OC)NC(=O)NS(=O)(=O)C2=CC=CC=C2C(=O)OC
InChI: InChI=1S/C14H15N5O6S/c1-8-15-12(18-14(16-8)25-3)17-13(21)19-26(22,23)10-7-5-4-6-9(10)11(20)24-2/h4-7H,1-3H3,(H2,15,16,17,18,19,21)
Instrument: TripleTOF 6600 SCIEX
Instrument type: LC-ESI-QTOF
Ms type: MS2
Ion mode: POSITIVE
Collision energy: 50
Fragmentation mode: CID
Ionization: ESI
Column name: Zorbax Eclipse Plus C18 2.1 mm x 150 mm, 3.5 um, Agilent
Retention time: 9.15008 min
Precursor m/z: 382.0816
Precursor type: [M+H]+
m/z	relative intensity
42.0341	56
43.0287	9
56.0491	130
57.0447	37
58.0285	65
68.0225	9
69.0082	74
77.0387	196
79.0537	28
83.024	205
85.0396	9
90.0331	56
92.0235	37
120.0432	9
135.0432	280
141.0763	149
146.0231	46
167.0564	999
199.011	112
209.9817	56
