Mass spectrum: N-Desmethyltramadol; LC-ESI-QTOF; MS2; 140 V
Name: N-Desmethyltramadol
Class: Transformation_product; Metabolite
Formula: C15H23NO2
Exact mass: 249.1729
SMILES: CNCC1CCCCC1(C2=CC(=CC=C2)OC)O
InChI: InChI=1S/C15H23NO2/c1-16-11-13-6-3-4-9-15(13,17)12-7-5-8-14(10-12)18-2/h5,7-8,10,13,16-17H,3-4,6,9,11H2,1-2H3
Instrument: TripleTOF 6600 SCIEX
Instrument type: LC-ESI-QTOF
Ms type: MS2
Ion mode: POSITIVE
Collision energy: 140
Fragmentation mode: CID
Ionization: ESI
Column name: Zorbax Eclipse Plus C18 2.1 mm x 150 mm, 3.5 um, Agilent
Retention time: 6.246 min
Precursor m/z: 250.1802
Precursor type: [M+H]+
m/z	relative intensity
30.0338	44
35.9994	22
37.0075	99
38.015	110
39.0232	275
41.0256	18
41.039	22
42.034	337
43.0415	77
44.0498	999
49.0071	84
50.0151	370
51.0231	378
52.0304	55
54.0346	18
59.9986	18
61.0069	113
62.015	257
63.0228	506
64.0303	18
65.0381	91
74.0149	69
75.0226	33
76.0305	33
77.0385	84
78.046	44
89.0381	69
102.0472	29
115.0536	47
127.0514	18
