Mass spectrum: Cyproconazole; LC-ESI-QTOF; MS2; 130 V
Name: Cyproconazole
Class: Fungicide
Formula: C15H18ClN3O
Exact mass: 291.1138
SMILES: CC(C1CC1)C(CN2C=NC=N2)(C3=CC=C(C=C3)Cl)O
InChI: InChI=1S/C15H18ClN3O/c1-11(12-2-3-12)15(20,8-19-10-17-9-18-19)13-4-6-14(16)7-5-13/h4-7,9-12,20H,2-3,8H2,1H3
Instrument: TripleTOF 6600 SCIEX
Instrument type: LC-ESI-QTOF
Ms type: MS2
Ion mode: POSITIVE
Collision energy: 130
Fragmentation mode: CID
Ionization: ESI
Column name: Zorbax Eclipse Plus C18 2.1 mm x 150 mm, 3.5 um, Agilent
Retention time: 11.30515 min
Precursor m/z: 292.1211
Precursor type: [M+H]+
m/z	relative intensity
35.997	12
37.0043	96
38.0117	94
39.0196	326
41.035	18
42.0176	70
43.0253	684
46.9641	78
48.9795	174
49.0031	38
50.0106	186
51.0181	112
59.9942	22
61.0017	182
62.0095	514
63.0173	999
64.0246	112
65.0326	30
70.0338	748
72.9772	698
73.0	32
74.0084	566
74.9929	16
75.016	250
76.0236	20
77.0315	26
84.9761	46
89.0305	938
90.0377	84
98.9908	134
115.0446	18
128.0504	12
