Mass spectrum: Meperidine; LC-ESI-QTOF; MS2; 140 V
Name: Meperidine
Class: Pharmaceutical
Formula: C15H21NO2
Exact mass: 247.1572
SMILES: CCOC(=O)C1(CCN(CC1)C)C2=CC=CC=C2
InChI: InChI=1S/C15H21NO2/c1-3-18-14(17)15(9-11-16(2)12-10-15)13-7-5-4-6-8-13/h4-8H,3,9-12H2,1-2H3
Instrument: TripleTOF 6600 SCIEX
Instrument type: LC-ESI-QTOF
Ms type: MS2
Ion mode: POSITIVE
Collision energy: 140
Fragmentation mode: CID
Ionization: ESI
Column name: Zorbax Eclipse Plus C18 2.1 mm x 150 mm, 3.5 um, Agilent
Retention time: 6.573 min
Precursor m/z: 248.1645
Precursor type: [M+H]+
m/z	relative intensity
30.0335	25
35.9991	35
37.0069	175
38.0021	23
38.0149	139
39.0226	554
40.018	22
41.0257	85
41.0377	40
42.0337	579
43.041	28
44.0492	310
49.0067	84
50.015	578
51.0226	999
52.0299	25
53.039	18
54.0346	19
59.9985	27
61.0058	97
62.0146	211
63.0222	302
65.038	218
67.0408	20
68.0505	10
73.0069	22
74.0141	151
75.0229	80
76.0301	45
77.038	246
78.0454	20
80.0484	40
85.0074	16
86.0142	29
87.0221	19
89.0375	148
91.0536	32
102.0462	49
113.0373	10
115.0533	136
126.0446	18
127.053	29
128.0619	27
