Mass spectrum: Cyprodinil; LC-ESI-QTOF; MS2; 50 V
Name: Cyprodinil
Class: Fungicide
Formula: C14H15N3
Exact mass: 225.1266
SMILES: CC1=CC(=NC(=N1)NC2=CC=CC=C2)C3CC3
InChI: InChI=1S/C14H15N3/c1-10-9-13(11-7-8-11)17-14(15-10)16-12-5-3-2-4-6-12/h2-6,9,11H,7-8H2,1H3,(H,15,16,17)
Instrument: TripleTOF 6600 SCIEX
Instrument type: LC-ESI-QTOF
Ms type: MS2
Ion mode: POSITIVE
Collision energy: 50
Fragmentation mode: CID
Ionization: ESI
Column name: Zorbax Eclipse Plus C18 2.1 mm x 150 mm, 3.5 um, Agilent
Retention time: 10.83 min
Precursor m/z: 226.1339
Precursor type: [M+H]+
m/z	relative intensity
39.0228	35
41.0386	31
42.0338	54
44.0491	11
50.0151	20
51.0227	68
53.0382	34
63.0224	14
65.0383	298
66.0459	89
67.0298	26
67.0415	47
67.0528	29
68.0491	50
77.0385	590
78.0337	35
78.0457	10
79.054	184
80.0491	83
81.0571	11
81.0692	56
82.0646	29
84.0805	12
89.0379	64
90.0333	10
90.046	11
91.0533	388
92.0492	229
93.0573	999
94.0646	57
102.0332	17
104.0493	51
105.044	26
106.0644	153
107.0602	10
107.0719	31
108.0796	160
109.0751	13
115.0531	36
116.0486	72
117.0446	13
117.0568	59
118.0524	293
119.0598	116
127.0537	14
128.0489	12
130.0395	13
130.0643	14
131.0599	145
132.0672	84
133.0748	34
139.0538	15
140.049	33
142.0642	14
143.0609	58
144.0802	16
145.0751	25
154.0637	14
156.0668	23
157.075	18
159.0919	11
165.0684	20
166.0644	49
167.0718	106
168.0688	53
169.074	44
170.0829	10
180.0792	14
181.0745	43
182.08	40
183.0854	43
184.0865	30
191.0718	14
192.069	30
193.0754	127
194.0824	42
196.0856	11
197.0944	14
198.1008	19
206.0828	25
207.0911	84
208.0971	20
209.106	10
210.102	99
224.1173	34
226.1335	43
