Mass spectrum: Celiprolol; LC-ESI-QTOF; MS2; 40 V
Name: Celiprolol
Class: Pharmaceutical
Formula: C20H33N3O4
Exact mass: 379.2471
SMILES: CCN(CC)C(=O)NC1=CC(=C(C=C1)OCC(CNC(C)(C)C)O)C(=O)C
InChI: InChI=1S/C20H33N3O4/c1-7-23(8-2)19(26)22-15-9-10-18(17(11-15)14(3)24)27-13-16(25)12-21-20(4,5)6/h9-11,16,21,25H,7-8,12-13H2,1-6H3,(H,22,26)
Instrument: TripleTOF 5600 SCIEX
Instrument type: LC-ESI-QTOF
Ms type: MS2
Ion mode: POSITIVE
Collision energy: 40
Fragmentation mode: CID
Ionization: ESI
Column name: Zorbax Eclipse Plus C18 2.1 mm x 150 mm, 3.5 um, Agilent
Retention time: 6.532 min
Precursor m/z: 380.2544
Precursor type: [M+H]+
m/z	relative intensity
43.0251	11
56.0566	450
57.0752	42
72.0484	95
72.0841	18
74.0646	762
74.0985	96
100.0773	398
130.1232	33
148.0404	76
150.0549	11
172.0393	17
174.0555	26
176.071	93
178.0508	49
186.0561	99
189.066	21
190.0488	17
198.0566	11
204.0666	578
209.1292	22
215.0828	12
216.0665	712
233.0931	853
247.1432	28
251.1221	999
262.1553	12
263.1397	51
264.1714	12
277.1555	123
282.1802	35
289.1556	117
306.1825	179
307.1668	286
324.1921	103
