Mass spectrum: 3-Methylxanthine; LC-ESI-QTOF; MS2; 40 V
Name: 3-Methylxanthine
Class: Pharmaceutical
Formula: C6H6N4O2
Exact mass: 166.0491
SMILES: CN1C(=O)NC(=O)c2[nH]cnc12
InChI: InChI=1S/C6H6N4O2/c1-10-4-3(7-2-8-4)5(11)9-6(10)12/h2H,1H3,(H,7,8)(H,9,11,12)
Instrument: TripleTOF 5600 SCIEX
Instrument type: LC-ESI-QTOF
Ms type: MS2
Ion mode: POSITIVE
Collision energy: 40
Fragmentation mode: CID
Ionization: ESI
Column name: Zorbax Eclipse Plus C18 2.1 mm x 150 mm, 3.5 um, Agilent
Retention time: 4.502 min
Precursor m/z: 167.0564
Precursor type: [M+H]+
m/z	relative intensity
53.0178	111
69.0474	999
80.0258	88
94.0406	399
96.0559	932
108.0456	244
109.0269	177
121.0493	155
124.0502	599
149.0475	399
