Mass spectrum: Fluquinconazole; LC-ESI-QTOF; MS2; 140 V
Name: Fluquinconazole
Class: Fungicide
Formula: C16H8Cl2FN5O
Exact mass: 375.009
SMILES: C1=CC2=C(C=C1F)C(=O)N(C(=N2)N3C=NC=N3)C4=C(C=C(C=C4)Cl)Cl
InChI: InChI=1S/C16H8Cl2FN5O/c17-9-1-4-14(12(18)5-9)24-15(25)11-6-10(19)2-3-13(11)22-16(24)23-8-20-7-21-23/h1-8H
Instrument: TripleTOF 6600 SCIEX
Instrument type: LC-ESI-QTOF
Ms type: MS2
Ion mode: POSITIVE
Collision energy: 140
Fragmentation mode: CID
Ionization: ESI
Column name: Zorbax Eclipse Plus C18 2.1 mm x 150 mm, 3.5 um, Agilent
Retention time: 12.549 min
Precursor m/z: 376.0163
Precursor type: [M+H]+
m/z	relative intensity
30.9972	223
33.0131	83
37.0067	78
38.0157	17
39.0231	17
46.9674	43
48.9831	61
50.0142	39
57.0129	950
58.0078	52
59.9992	26
61.0072	153
62.0014	21
62.0142	78
63.0217	43
64.0177	227
68.0049	35
72.983	223
73.0056	153
73.9769	21
74.0143	674
75.0082	21
75.0216	83
76.0157	26
81.0122	324
82.0079	999
82.9428	48
83.9739	30
84.9807	26
87.0091	39
88.0165	105
94.0199	48
96.9835	35
97.9768	21
99.0088	297
100.0165	262
106.0082	30
108.0224	249
108.9827	87
123.9969	21
131.0326	21
132.9591	21
155.0272	56
156.023	30
162.0327	17
180.0228	52
182.0353	26
