Mass spectrum: 2-(2-Hydroxyphenyl)-1H-benzimidazole; LC-ESI-QTOF; MS2; 100 V
Name: 2-(2-Hydroxyphenyl)-1H-benzimidazole
Class: Industrial_process; Pharmaceutical
Formula: C13H10N2O
Exact mass: 210.0793
SMILES: C1=CC=C2C(=C1)NC(=C3C=CC=CC3=O)N2
InChI: InChI=1S/C13H10N2O/c16-12-8-4-1-5-9(12)13-14-10-6-2-3-7-11(10)15-13/h1-8,14-15H
Instrument: TripleTOF 5600 SCIEX
Instrument type: LC-ESI-QTOF
Ms type: MS2
Ion mode: POSITIVE
Collision energy: 100
Fragmentation mode: CID
Ionization: ESI
Column name: Zorbax Eclipse Plus C18 2.1 mm x 150 mm, 3.5 um, Agilent
Retention time: 6.225 min
Precursor m/z: 211.0866
Precursor type: [M+H]+
m/z	relative intensity
52.0279	49
64.0376	73
65.0462	999
66.041	24
73.0151	20
74.0209	208
75.028	266
76.0249	135
76.0354	85
77.0438	405
78.0435	45
85.0084	24
86.0184	69
87.0258	98
88.0235	45
88.0353	36
89.0429	85
90.0387	28
91.0455	122
92.0525	77
98.0196	28
99.024	24
101.039	61
102.0374	135
103.0429	65
104.0557	28
110.0133	20
111.0244	36
112.0192	32
113.0395	98
114.035	77
115.0547	28
118.057	28
125.0393	20
126.0469	49
127.0561	69
128.0531	53
129.0469	45
130.0386	32
131.0611	24
137.038	81
138.0328	65
139.0534	28
140.0519	57
143.0595	20
152.0485	24
153.0612	16
154.0636	20
155.0624	20
164.0501	94
179.0597	49
180.0638	28
181.0742	16
