Mass spectrum: Proquinazid; LC-ESI-QTOF; MS2; 120 V
Name: Proquinazid
Class: Fungicide
Formula: C14H17IN2O2
Exact mass: 372.0335
SMILES: CCCN1C(=O)C2=C(C=CC(=C2)I)N=C1OCCC
InChI: InChI=1S/C14H17IN2O2/c1-3-7-17-13(18)11-9-10(15)5-6-12(11)16-14(17)19-8-4-2/h5-6,9H,3-4,7-8H2,1-2H3
Instrument: TripleTOF 6600 SCIEX
Instrument type: LC-ESI-QTOF
Ms type: MS2
Ion mode: POSITIVE
Collision energy: 120
Fragmentation mode: CID
Ionization: ESI
Column name: Zorbax Eclipse Plus C18 2.1 mm x 150 mm, 3.5 um, Agilent
Retention time: 17.121 min
Precursor m/z: 373.0408
Precursor type: [M+H]+
m/z	relative intensity
37.0112	34
38.0188	66
39.0266	56
41.0423	43
52.0216	21
60.0024	69
61.0109	312
62.019	999
63.0245	163
64.0229	12
64.0342	56
65.0298	53
66.0139	74
75.0135	26
87.0132	34
88.0216	334
89.0296	520
90.0371	36
91.0452	41
92.0289	55
101.0284	9
116.0395	59
117.0237	185
140.9207	51
145.0175	37
164.9209	114
188.9186	32
189.9135	12
215.931	300
