Mass spectrum: Tadalafil; LC-ESI-QTOF; MS2; 120 V
Name: Tadalafil
Class: Pharmaceutical; Personal_care_product
Formula: C22H19N3O4
Exact mass: 389.1376
SMILES: CN1CC(=O)N2C(C1=O)CC3=C(C2C4=CC5=C(C=C4)OCO5)NC6=CC=CC=C36
InChI: InChI=1S/C22H19N3O4/c1-24-10-19(26)25-16(22(24)27)9-14-13-4-2-3-5-15(13)23-20(14)21(25)12-6-7-17-18(8-12)29-11-28-17/h2-8,16,21,23H,9-11H2,1H3
Instrument: TripleTOF 5600 SCIEX
Instrument type: LC-ESI-QTOF
Ms type: MS2
Ion mode: POSITIVE
Collision energy: 120
Fragmentation mode: CID
Ionization: ESI
Column name: Zorbax Eclipse Plus C18 2.1 mm x 150 mm, 3.5 um, Agilent
Retention time: 9.801 min
Precursor m/z: 390.1448
Precursor type: [M+H]+
m/z	relative intensity
51.0222	88
75.0231	29
76.0272	23
77.0384	282
89.0374	88
101.0405	29
102.0487	29
114.0471	52
115.0536	411
125.0392	29
126.0431	35
127.0521	29
128.0493	52
130.0635	58
135.0427	35
139.0526	52
140.0498	99
141.0571	35
142.0645	47
150.0472	158
151.0557	381
152.062	105
153.06	35
163.0533	111
164.0572	94
165.0697	47
166.0642	47
167.0678	41
168.0694	82
169.0789	35
174.0521	29
175.0557	135
176.0628	634
177.0589	323
178.0713	76
187.0569	99
188.0593	64
189.0674	111
190.0659	158
191.0744	111
192.078	35
201.0598	94
202.0643	423
203.0736	999
204.0817	852
214.0665	76
215.0712	29
216.0836	35
217.0878	23
232.0753	29
