Mass spectrum: Fenpropimorph; LC-ESI-QTOF; MS2; 120 V
Name: Fenpropimorph
Class: Pharmaceutical; Fungicide
Formula: C20H33NO
Exact mass: 303.2562
SMILES: CC(CN1C[C@H](C)O[C@H](C)C1)Cc2ccc(cc2)C(C)(C)C
InChI: InChI=1S/C20H33NO/c1-15(12-21-13-16(2)22-17(3)14-21)11-18-7-9-19(10-8-18)20(4,5)6/h7-10,15-17H,11-14H2,1-6H3/t15?,16-,17+
Instrument: TripleTOF 5600 SCIEX
Instrument type: LC-ESI-QTOF
Ms type: MS2
Ion mode: POSITIVE
Collision energy: 120
Fragmentation mode: CID
Ionization: ESI
Column name: Zorbax Eclipse Plus C18 2.1 mm x 150 mm, 3.5 um, Agilent
Retention time: 9.527 min
Precursor m/z: 304.2635
Precursor type: [M+H]+
m/z	relative intensity
65.0435	196
77.0417	191
78.049	66
79.0569	27
89.0401	67
91.0566	999
102.0467	38
103.0546	72
104.0623	25
105.0696	21
115.0551	950
116.0619	88
117.0702	278
128.0615	23
129.0699	11
