Mass spectrum: Enrofloxacin; LC-ESI-QTOF; MS2; 120 V
Name: Enrofloxacin
Class: Pharmaceutical; Antimicrobial
Formula: C19H22FN3O3
Exact mass: 359.1645
SMILES: CCN1CCN(CC1)c2cc3N(C=C(C(O)=O)C(=O)c3cc2F)C4CC4
InChI: InChI=1S/C19H22FN3O3/c1-2-21-5-7-22(8-6-21)17-10-16-13(9-15(17)20)18(24)14(19(25)26)11-23(16)12-3-4-12/h9-12H,2-8H2,1H3,(H,25,26)
Instrument: TripleTOF 5600 SCIEX
Instrument type: LC-ESI-QTOF
Ms type: MS2
Ion mode: POSITIVE
Collision energy: 120
Fragmentation mode: CID
Ionization: ESI
Column name: Zorbax Eclipse Plus C18 2.1 mm x 150 mm, 3.5 um, Agilent
Retention time: 5.696 min
Precursor m/z: 360.1718
Precursor type: [M+H]+
m/z	relative intensity
42.0422	510
44.0634	127
53.0089	212
73.0117	85
74.0204	318
75.0267	403
77.0415	297
81.0198	170
83.0312	170
85.0127	106
88.0313	106
89.041	148
93.0153	212
94.0251	170
95.032	106
96.0373	127
98.0167	127
99.0251	403
100.0186	403
101.0412	425
103.0484	106
105.0169	255
106.0186	191
107.0293	999
108.0345	233
113.038	340
114.0351	403
115.0541	148
116.0495	85
120.0378	255
121.0368	191
125.038	148
126.0332	340
127.0547	233
128.0493	361
129.0465	127
131.0288	148
132.0249	935
133.0321	212
133.0444	340
134.0405	340
135.0498	191
139.0308	127
139.0431	106
140.0504	318
141.0579	106
145.0424	127
146.0413	255
146.0522	148
147.0468	255
148.0569	403
152.0481	106
153.0601	106
154.0407	127
154.0649	233
155.0595	106
158.0446	212
160.0423	106
160.0569	106
161.0506	85
172.0568	382
173.0593	212
174.0356	106
184.0536	106
