Mass spectrum: Doxycycline; LC-ESI-QTOF; MS2; 40 V
Name: Doxycycline
Class: Antimicrobial; Pharmaceutical
Formula: C22H24N2O8
Exact mass: 444.1533
SMILES: CC1C2C(C3C(C(=O)C(=C(C3(C(=O)C2=C(C4=C1C=CC=C4O)O)O)O)C(=O)N)N(C)C)O
InChI: InChI=1S/C22H24N2O8/c1-7-8-5-4-6-9(25)11(8)16(26)12-10(7)17(27)14-15(24(2)3)18(28)13(21(23)31)20(30)22(14,32)19(12)29/h4-7,10,14-15,17,25-27,30,32H,1-3H3,(H2,23,31)
Instrument: TripleTOF 5600 SCIEX
Instrument type: LC-ESI-QTOF
Ms type: MS2
Ion mode: POSITIVE
Collision energy: 40
Fragmentation mode: CID
Ionization: ESI
Column name: Zorbax Eclipse Plus C18 2.1 mm x 150 mm, 3.5 um, Agilent
Retention time: 6.499 min
Precursor m/z: 445.1605
Precursor type: [M+H]+
m/z	relative intensity
84.0496	9
98.0632	55
100.0786	11
126.0567	55
154.0509	167
165.0127	9
175.0743	28
181.0647	9
182.0486	11
182.0808	11
187.0744	23
192.0664	23
195.0776	13
201.0535	94
210.0779	26
211.07	15
213.0919	28
215.0641	11
225.0887	21
239.0654	24
241.0864	53
243.086	11
247.0663	9
251.0659	19
252.0385	21
253.084	15
255.0624	24
257.0751	17
259.0812	11
263.0684	9
265.083	24
267.0661	224
269.0803	105
275.0698	13
278.0573	26
279.0656	38
281.0836	15
281.1072	11
283.0848	11
285.0796	36
291.0581	11
293.0827	128
295.0543	9
295.0911	19
296.1281	24
297.0779	24
303.0651	34
306.0527	26
309.0743	21
311.0897	15
314.1387	21
319.0598	42
321.0736	365
332.1428	13
332.1586	11
334.0485	30
336.1269	21
337.0684	53
339.0853	282
347.0544	15
349.0697	113
364.1071	36
365.0659	19
367.082	84
382.122	46
392.1086	90
410.122	391
428.1339	999
