Mass spectrum: Hydroxyatenolol; LC-ESI-QTOF; MS2; 40 V
Name: Hydroxyatenolol
Class: Pharmaceutical
Formula: C14H22N2O4
Exact mass: 282.158
InChI: InChI=1S/C14H22N2O4/c1-9(2)16-7-11(17)8-20-12-5-3-10(4-6-12)13(18)14(15)19/h3-6,9,11,13,16-18H,7-8H2,1-2H3,(H2,15,19)
Instrument: TripleTOF 5600 SCIEX
Instrument type: LC-ESI-QTOF
Ms type: CID
Ion mode: POSITIVE
Collision energy: 40
Ionization: ESI
Column name: Zorbax Eclipse Plus C18 2.1 mm x 150 mm, 3.5 um, Agilent
Retention time: 3.214 min
Precursor m/z: 283.1652
Precursor type: [M+H]+
m/z	relative intensity
56.0554	412
72.0833	189
74.0628	982
74.0824	107
95.0502	49
98.0975	90
105.0692	49
106.0633	41
116.1063	999
122.0598	264
133.0587	115
145.0298	66
148.0778	90
150.0532	74
160.0725	90
162.0586	49
