Mass spectrum: Quinmerac; LC-ESI-QTOF; MS2; 10 V
Name: Quinmerac
Class: Herbicide
Formula: C11H8ClNO2
Exact mass: 221.0244
SMILES: Cc1cc2ccc(c(c2nc1)C(=O)O)Cl
InChI: InChI=1S/C11H8ClNO2/c1-6-4-7-2-3-8(12)9(11(14)15)10(7)13-5-6/h2-5H,1H3,(H,14,15)
Instrument: TripleTOF 6600 SCIEX
Instrument type: LC-ESI-QTOF
Ms type: MS2
Ion mode: POSITIVE
Collision energy: 10
Fragmentation mode: CID
Ionization: ESI
Column name: Zorbax Eclipse Plus C18 2.1 mm x 150 mm, 3.5 um, Agilent
Retention time: 7.013 min
Precursor m/z: 222.0316
Precursor type: [M+H]+
m/z	relative intensity
204.0213	263
222.0324	999
