Mass spectrum: Pindolol; LC-ESI-QTOF; MS2; 70 V
Name: Pindolol
Class: Pharmaceutical
Formula: C14H20N2O2
Exact mass: 248.1525
SMILES: CC(C)NCC(COC1=CC=CC2=C1C=CN2)O
InChI: InChI=1S/C14H20N2O2/c1-10(2)16-8-11(17)9-18-14-5-3-4-13-12(14)6-7-15-13/h3-7,10-11,15-17H,8-9H2,1-2H3
Instrument: TripleTOF 5600 SCIEX
Instrument type: LC-ESI-QTOF
Ms type: MS2
Ion mode: POSITIVE
Collision energy: 70
Fragmentation mode: CID
Ionization: ESI
Column name: Zorbax Eclipse Plus C18 2.1 mm x 150 mm, 3.5 um, Agilent
Retention time: 5.148 min
Precursor m/z: 249.1598
Precursor type: [M+H]+
m/z	relative intensity
44.0615	22
56.0584	458
58.0739	229
65.0456	169
72.0875	112
74.0668	236
75.0302	15
77.0446	600
78.0392	146
79.06	285
80.0542	37
84.0844	18
89.0431	897
90.051	191
91.0586	920
92.0542	41
100.1159	56
101.0431	22
102.0505	56
103.0577	67
104.0528	435
105.0602	108
106.0689	277
107.052	338
114.0486	15
115.0572	687
116.0527	999
117.0607	991
118.0672	206
126.0511	41
127.0559	161
128.053	67
129.0609	48
130.0668	71
132.0464	30
133.0536	135
134.0615	131
141.0599	22
142.0672	138
143.0742	259
144.0819	63
154.068	45
170.0603	33
