Mass spectrum: 3-(Diethylcarbamoyl)benzoic acid; LC-ESI-QTOF; MS2; 60 V
Name: 3-(Diethylcarbamoyl)benzoic acid
Formula: C12H15NO3
Exact mass: 221.1052
SMILES: CCN(CC)C(=O)C1=CC(=CC=C1)C(=O)O
InChI: InChI=1S/C12H15NO3/c1-3-13(4-2)11(14)9-6-5-7-10(8-9)12(15)16/h5-8H,3-4H2,1-2H3,(H,15,16)
Instrument: TripleTOF 5600 SCIEX
Instrument type: LC-ESI-QTOF
Ms type: MS2
Ion mode: POSITIVE
Collision energy: 60
Fragmentation mode: CID
Ionization: ESI
Column name: Zorbax Eclipse Plus C18 2.1 mm x 150 mm, 3.5 um, Agilent
Retention time: 7.356 min
Precursor m/z: 222.1125
Precursor type: [M+H]+
m/z	relative intensity
37.007	11
38.0152	9
39.0225	65
44.0128	30
65.0385	999
74.015	17
75.0227	155
77.0382	111
79.0547	19
93.0331	61
102.0334	32
103.0176	44
121.029	177
148.04	38
149.0268	28
