Mass spectrum: Hydroxytorasemide; LC-ESI-QTOF; MS2; 50 V
Name: Hydroxytorasemide
Class: Pharmaceutical; Transformation_product
Formula: C16H20N4O4S
Exact mass: 364.1205
SMILES: CC(C)NC(=O)NS(=O)(=O)c1cnccc1Nc2cccc(c2)CO
InChI: InChI=1S/C16H20N4O4S/c1-11(2)18-16(22)20-25(23,24)15-9-17-7-6-14(15)19-13-5-3-4-12(8-13)10-21/h3-9,11,21H,10H2,1-2H3,(H,17,19)(H2,18,20,22)
Instrument: TripleTOF 5600 SCIEX
Instrument type: LC-ESI-QTOF
Ms type: MS2
Ion mode: NEGATIVE
Collision energy: 50
Fragmentation mode: CID
Ionization: ESI
Column name: Zorbax Eclipse Plus C18 2.1 mm x 150 mm, 3.5 um, Agilent
Retention time: 5.824 min
Precursor m/z: 363.1132
Precursor type: [M-H]-
m/z	relative intensity
77.9658	78
92.0382	143
93.0458	64
108.0327	224
121.0534	67
150.9973	51
156.0008	92
181.0646	78
182.0725	108
184.0882	124
193.0652	57
194.0731	404
197.0713	100
199.089	57
211.0757	240
212.0829	118
278.0613	999
