Mass spectrum: Metolachlor ESA; LC-ESI-QTOF; MS2; 130 V
Name: Metolachlor ESA
Class: Herbicide
Formula: C15H23NO5S
Exact mass: 329.1297
SMILES: CCC1=CC=CC(=C1N(C(C)COC)C(=O)CS(=O)(=O)O)C
InChI: InChI=1S/C15H23NO5S/c1-5-13-8-6-7-11(2)15(13)16(12(3)9-21-4)14(17)10-22(18,19)20/h6-8,12H,5,9-10H2,1-4H3,(H,18,19,20)
Instrument: TripleTOF 5600 SCIEX
Instrument type: LC-ESI-QTOF
Ms type: MS2
Ion mode: POSITIVE
Collision energy: 130
Fragmentation mode: CID
Ionization: ESI
Column name: Zorbax Eclipse Plus C18 2.1 mm x 150 mm, 3.5 um, Agilent
Retention time: 8.247 min
Precursor m/z: 330.137
Precursor type: [M+H]+
m/z	relative intensity
45.043	128
65.043	386
77.0415	999
78.0489	96
79.0568	128
89.0401	435
90.0482	241
91.0557	950
102.0475	145
103.0539	515
104.0494	96
106.0663	128
115.0548	757
116.0508	145
117.0584	354
118.0646	145
127.0499	128
128.0524	273
129.0623	112
130.0653	982
131.0679	96
141.0577	64
142.0625	241
143.0727	386
144.0802	628
