Mass spectrum: Bezafibrate; LC-ESI-QTOF; MS2; 150 V
Name: Bezafibrate
Class: Pharmaceutical
Formula: C19H20ClNO4
Exact mass: 361.1081
SMILES: CC(C)(Oc1ccc(CCNC(=O)c2ccc(Cl)cc2)cc1)C(O)=O
InChI: InChI=1S/C19H20ClNO4/c1-19(2,18(23)24)25-16-9-3-13(4-10-16)11-12-21-17(22)14-5-7-15(20)8-6-14/h3-10H,11-12H2,1-2H3,(H,21,22)(H,23,24)
Instrument: TripleTOF 5600 SCIEX
Instrument type: LC-ESI-QTOF
Ms type: MS2
Ion mode: POSITIVE
Collision energy: 150
Fragmentation mode: CID
Ionization: ESI
Column name: Zorbax Eclipse Plus C18 2.1 mm x 150 mm, 3.5 um, Agilent
Retention time: 11.033 min
Precursor m/z: 362.1154
Precursor type: [M+H]+
m/z	relative intensity
65.0432	159
66.0517	17
73.0115	59
74.0191	970
75.0267	999
75.0645	11
76.0346	48
77.0421	826
77.0778	19
78.0491	35
84.9864	150
91.0558	205
94.0411	33
102.0477	30
103.0538	28
103.0657	11
110.9999	194
119.0484	11
139.0085	13
