Mass spectrum: Temazepam; LC-ESI-QTOF; MS2; 100 V
Name: Temazepam
Class: Pharmaceutical
Formula: C16H13ClN2O2
Exact mass: 300.0666
SMILES: CN1C2=C(C=C(C=C2)Cl)C(=NC(C1=O)O)C3=CC=CC=C3
InChI: InChI=1S/C16H13ClN2O2/c1-19-13-8-7-11(17)9-12(13)14(18-15(20)16(19)21)10-5-3-2-4-6-10/h2-9,15,20H,1H3
Instrument: TripleTOF 6600 SCIEX
Instrument type: LC-ESI-QTOF
Ms type: MS2
Ion mode: POSITIVE
Collision energy: 100
Fragmentation mode: CID
Ionization: ESI
Column name: Zorbax Eclipse Plus C18 2.1 mm x 150 mm, 3.5 um, Agilent
Retention time: 10.497 min
Precursor m/z: 301.0738
Precursor type: [M+H]+
m/z	relative intensity
37.0058	17
38.0134	17
39.0219	82
48.9823	21
50.0141	68
51.0217	265
61.0052	67
61.9778	11
62.0133	114
63.0214	345
64.0161	11
64.0285	34
65.0363	131
66.0452	51
72.9817	231
73.005	29
74.0129	215
74.9996	10
75.0212	292
76.0161	16
76.0288	32
77.0369	489
78.0441	23
84.9815	26
86.0151	11
87.0216	30
88.0162	32
88.0292	44
89.0365	819
90.0445	170
91.0518	36
92.0467	20
96.9815	38
97.9816	10
98.0123	27
99.0028	336
100.016	391
101.037	22
102.0322	21
102.0445	32
104.0475	73
105.0437	10
106.0624	29
108.9828	24
109.9882	21
110.9979	58
113.0364	48
114.0313	76
115.0523	234
116.0373	41
117.0558	45
122.0129	14
122.9968	90
123.0197	42
123.9919	96
124.0276	16
125.0132	28
125.0365	116
126.0441	90
127.0174	28
127.0518	80
128.0559	37
131.0584	18
135.9935	26
137.0359	15
138.0438	31
139.0033	14
139.0525	286
140.0482	142
141.0541	11
148.0263	10
149.0362	215
150.0448	979
151.052	782
152.06	317
153.0571	44
154.0623	11
162.0463	22
163.0521	368
163.9998	18
164.0594	403
165.0683	700
166.0635	243
167.0723	55
168.0662	17
174.0398	11
175.0402	192
176.047	462
177.0559	999
178.0646	170
179.0686	63
180.0797	46
185.013	15
189.0546	15
190.0639	125
191.0705	109
192.068	154
193.0751	107
194.0818	33
200.0283	17
202.0519	113
203.056	107
204.0591	130
205.0771	40
211.0171	36
217.0759	10
227.0361	14
228.0433	19
239.0347	66
