Mass spectrum: Oseltamivir; LC-ESI-QTOF; MS2; 120 V
Name: Oseltamivir
Class: Pharmaceutical
Formula: C16H28N2O4
Exact mass: 312.2049
SMILES: CCC(CC)O[C@@H]1C=C(C[C@@H]([C@H]1/N=C(\C)/O)N)C(=O)OCC
InChI: InChI=1S/C16H28N2O4/c1-5-12(6-2)22-14-9-11(16(20)21-7-3)8-13(17)15(14)18-10(4)19/h9,12-15H,5-8,17H2,1-4H3,(H,18,19)/t13-,14+,15+/m0/s1
Instrument: TripleTOF 5600 SCIEX
Instrument type: LC-ESI-QTOF
Ms type: MS2
Ion mode: POSITIVE
Collision energy: 120
Fragmentation mode: CID
Ionization: ESI
Column name: Zorbax Eclipse Plus C18 2.1 mm x 150 mm, 3.5 um, Agilent
Retention time: 6.973 min
Precursor m/z: 313.2122
Precursor type: [M+H]+
m/z	relative intensity
42.0431	17
43.0255	125
51.0288	291
53.0428	85
54.0378	22
55.0579	26
65.043	999
66.0494	120
67.0445	215
77.0409	452
78.0354	40
79.0575	22
80.0512	456
81.0585	22
82.067	76
91.0435	40
92.0502	434
92.074	17
93.0382	31
93.059	246
94.0651	80
102.0354	26
110.0574	22
120.0449	67
