Mass spectrum: Tylosin; LC-ESI-QTOF; MS2; 60 V
Name: Tylosin
Class: Pharmaceutical
Formula: C46H77NO17
Exact mass: 915.5192
SMILES: CCC1C(C=C(C=CC(=O)C(CC(C(C(C(CC(=O)O1)O)C)OC2C(C(C(C(O2)C)OC3CC(C(C(O3)C)O)(C)O)N(C)C)O)CC=O)C)C)COC4C(C(C(C(O4)C)O)OC)OC
InChI: InChI=1S/C46H77NO17/c1-13-33-30(22-58-45-42(57-12)41(56-11)37(52)26(5)60-45)18-23(2)14-15-31(49)24(3)19-29(16-17-48)39(25(4)32(50)20-34(51)62-33)64-44-38(53)36(47(9)10)40(27(6)61-44)63-35-21-46(8,55)43(54)28(7)59-35/h14-15,17-18,24-30,32-33,35-45,50,52-55H,13,16,19-22H2,1-12H3
Instrument: TripleTOF 6600 SCIEX
Instrument type: LC-ESI-QTOF
Ms type: MS2
Ion mode: POSITIVE
Collision energy: 60
Fragmentation mode: CID
Ionization: ESI
Column name: Zorbax Eclipse Plus C18 2.1 mm x 150 mm, 3.5 um, Agilent
Retention time: 8.178 min
Precursor m/z: 916.5264
Precursor type: [M+H]+
m/z	relative intensity
43.0179	28
83.0494	99
84.081	15
87.0444	10
88.0759	65
98.0973	49
99.0449	10
100.0755	21
101.0603	170
101.0826	12
114.0924	18
115.1002	14
116.0707	59
127.0755	66
132.1022	88
143.0705	11
145.0874	68
156.1031	100
174.1138	999
232.1578	13
276.186	10
389.2371	11
598.3626	15
772.4546	52
916.5296	17
