Mass spectrum: 4-Methoxycinnamaldehyde; LC-ESI-QTOF; MS2; 40 V
Name: 4-Methoxycinnamaldehyde
Formula: C10H10O2
Exact mass: 162.0681
SMILES: COC1=CC=C(C=C1)C=CC=O
InChI: InChI=1S/C10H10O2/c1-12-10-6-4-9(5-7-10)3-2-8-11/h2-8H,1H3
Instrument: TripleTOF 6600 SCIEX
Instrument type: LC-ESI-QTOF
Ms type: MS2
Ion mode: POSITIVE
Collision energy: 40
Fragmentation mode: CID
Ionization: ESI
Column name: Zorbax Eclipse Plus C18 2.1 mm x 150 mm, 3.5 um, Agilent
Retention time: 9.471 min
Precursor m/z: 163.0754
Precursor type: [M+H]+
m/z	relative intensity
51.0237	30
55.0182	135
63.0221	15
65.0385	92
77.0389	491
78.0454	86
79.0548	101
80.0579	21
89.039	36
90.0462	49
91.0549	999
92.0266	18
92.0596	184
94.043	24
102.047	387
103.053	209
104.0598	39
105.0351	27
105.0469	27
105.0702	55
115.0563	61
116.0607	18
119.0505	95
120.0559	55
121.0639	27
130.0415	64
131.0493	39
132.0481	18
133.0655	27
134.0707	21
135.0812	21
145.0655	67
146.0686	18
147.0469	39
148.0464	21
