Mass spectrum: Theophylline; LC-ESI-QTOF; MS2; 40 V
Name: Theophylline
Class: Pharmaceutical
Formula: C7H8N4O2
Exact mass: 180.0647
SMILES: CN1C2=C(C(=O)N(C1=O)C)NC=N2
InChI: InChI=1S/C7H8N4O2/c1-10-5-4(8-3-9-5)6(12)11(2)7(10)13/h3H,1-2H3,(H,8,9)
Instrument: TripleTOF 5600 SCIEX
Instrument type: LC-ESI-QTOF
Ms type: MS2
Ion mode: NEGATIVE
Collision energy: 40
Fragmentation mode: CID
Ionization: ESI
Column name: Zorbax Eclipse Plus C18 2.1 mm x 150 mm, 3.5 um, Agilent
Retention time: 4.936 min
Precursor m/z: 179.0574
Precursor type: [M-H]-
m/z	relative intensity
44.998	75
65.9985	361
67.03	74
79.0175	578
90.9983	56
92.0256	102
94.0414	522
107.013	481
120.0209	54
122.037	766
135.0091	398
135.032	473
136.0403	75
164.0355	999
179.0591	107
