Mass spectrum: 4-[(4-Aminophenyl)(4-iminocyclohexa-2,5-dien-1-ylidene)methyl]-2-methylaniline; LC-ESI-QTOF; MS2; 60 V
Name: 4-[(4-Aminophenyl)(4-iminocyclohexa-2,5-dien-1-ylidene)methyl]-2-methylaniline
Formula: C20H19N3
Exact mass: 301.1579
SMILES: CC1=CC(=C(C2=CC=C(C=C2)N)C3=CC=C(C=C3)N)C=CC1=N
InChI: InChI=1S/C20H19N3/c1-13-12-16(6-11-19(13)23)20(14-2-7-17(21)8-3-14)15-4-9-18(22)10-5-15/h2-12,23H,21-22H2,1H3
Instrument: TripleTOF X500R SCIEX
Instrument type: LC-ESI-QTOF
Ms type: MS2
Ion mode: POSITIVE
Collision energy: 60
Fragmentation mode: CID
Ionization: ESI
Column name: Zorbax Eclipse Plus C18 2.1 mm x 150 mm, 3.5 um, Agilent
Retention time: 7.598 min
Precursor m/z: 302.1652
Precursor type: [M+H]+
m/z	relative intensity
77.0384	26
79.0541	11
91.0545	14
93.0579	14
103.0544	17
106.0646	163
113.0403	14
115.0549	99
116.0635	11
117.0593	37
118.0652	34
125.0394	14
126.0461	26
127.0548	64
128.0593	46
130.0667	58
139.0552	96
140.0549	72
141.0707	136
142.066	34
143.0732	133
150.0466	96
151.0548	530
152.0625	157
153.0658	99
154.0662	96
155.0617	34
156.0805	26
163.0544	40
164.0623	107
165.0704	789
166.0669	233
167.0739	923
168.0812	439
169.0791	55
175.0532	17
176.0569	61
177.0576	148
178.0654	369
179.0688	131
180.0819	451
181.088	227
182.0949	122
189.0712	17
190.0669	133
191.0734	320
192.0805	471
193.085	850
194.0846	454
195.0926	999
200.0651	26
201.0705	52
202.0774	84
203.082	52
204.0823	72
205.0828	34
206.0875	49
207.093	160
208.1004	699
209.1078	885
213.0712	64
214.0755	26
215.0873	110
216.0819	58
216.0975	14
217.0892	163
218.0973	84
219.093	58
221.1086	37
225.0696	29
226.0775	168
227.0834	93
228.0841	81
229.0805	46
229.1032	11
230.0976	227
231.0987	72
232.0999	49
233.107	43
234.1173	17
235.1287	29
237.068	17
238.0701	23
239.0854	104
240.0845	87
241.0899	265
242.095	177
243.1049	212
244.1104	107
245.1079	326
246.1092	40
247.1186	20
248.0711	17
250.0768	49
251.0775	90
252.0846	183
253.0891	166
254.0972	431
255.0948	198
256.1044	136
257.109	69
258.1163	142
259.1238	128
260.1246	26
265.0864	34
266.097	87
267.1045	221
268.1056	221
268.1371	32
269.1084	897
270.1111	262
271.1232	707
272.12	131
273.1252	11
281.1097	11
282.1145	90
283.124	131
284.1233	142
284.1582	20
285.1388	314
286.1347	905
287.1387	55
298.1382	11
300.1498	93
302.1678	49
