Mass spectrum: Clozapine; LC-ESI-QTOF; MS2; 130 V
Name: Clozapine
Class: Pharmaceutical
Formula: C18H19ClN4
Exact mass: 326.1298
SMILES: CN1CCN(CC1)C2=NC3=C(C=CC(=C3)Cl)NC4=CC=CC=C42
InChI: InChI=1S/C18H19ClN4/c1-22-8-10-23(11-9-22)18-14-4-2-3-5-15(14)20-16-7-6-13(19)12-17(16)21-18/h2-7,12,20H,8-11H2,1H3
Instrument: TripleTOF 6600 SCIEX
Instrument type: LC-ESI-QTOF
Ms type: MS2
Ion mode: POSITIVE
Collision energy: 130
Fragmentation mode: CID
Ionization: ESI
Column name: Zorbax Eclipse Plus C18 2.1 mm x 150 mm, 3.5 um, Agilent
Retention time: 6.951 min
Precursor m/z: 327.1371
Precursor type: [M+H]+
m/z	relative intensity
37.0069	27
38.0147	11
39.0226	50
42.0341	38
43.0421	10
50.0145	17
51.0232	30
59.9992	19
61.0072	82
62.0148	126
63.0223	211
64.0174	46
65.038	26
72.9836	59
73.0075	11
74.0145	76
75.0228	58
76.0171	14
76.0291	16
77.0377	24
85.007	61
86.0142	156
87.022	269
88.0194	127
88.0297	97
89.0375	128
90.0323	24
98.0144	60
99.009	14
99.0218	41
100.0176	28
101.0393	11
102.0341	11
109.0045	17
110.0141	50
111.0212	131
112.0169	82
112.0286	30
113.0377	203
114.0332	232
115.0392	11
115.0524	13
116.0497	10
123.0089	29
125.0385	16
126.0405	22
127.0397	17
136.0286	16
137.0376	612
138.0339	420
139.0409	34
139.0522	66
140.0483	126
141.0446	11
150.0438	41
151.0522	36
152.0467	12
152.06	11
162.0327	71
163.0408	104
164.0489	999
165.0446	164
175.0404	14
176.0474	16
177.055	26
178.0647	25
179.061	12
188.0501	19
189.0432	57
190.0531	40
191.0596	65
203.0578	13
