Mass spectrum: Clodinafop-Propargyl; LC-ESI-QTOF; MS2; 80 V
Name: Clodinafop-Propargyl
Class: Herbicide
Formula: C17H13ClFNO4
Exact mass: 349.0517
SMILES: CC(C(=O)OCC#C)OC1=CC=C(C=C1)OC2=C(C=C(C=N2)Cl)F
InChI: InChI=1S/C17H13ClFNO4/c1-3-8-22-17(21)11(2)23-13-4-6-14(7-5-13)24-16-15(19)9-12(18)10-20-16/h1,4-7,9-11H,8H2,2H3
Instrument: TripleTOF 6600 SCIEX
Instrument type: LC-ESI-QTOF
Ms type: MS2
Ion mode: POSITIVE
Collision energy: 80
Fragmentation mode: CID
Ionization: ESI
Column name: Zorbax Eclipse Plus C18 2.1 mm x 150 mm, 3.5 um, Agilent
Retention time: 13.951 min
Precursor m/z: 350.059
Precursor type: [M+H]+
m/z	relative intensity
39.0211	192
50.013	70
51.0213	157
62.0135	87
63.0211	368
64.0291	192
65.0369	876
74.0137	157
75.0082	122
75.021	578
76.0293	70
77.0367	578
81.0318	122
91.0521	999
92.0229	87
96.0228	87
101.0364	87
102.0441	140
103.0525	87
103.9802	105
106.0195	157
109.9766	595
115.0499	87
120.0391	140
128.0467	175
129.0431	87
129.9827	508
131.0269	210
132.035	385
133.0356	105
134.0383	140
139.0389	210
140.0477	122
143.9994	70
147.0466	122
148.0518	70
149.0374	333
156.0427	140
158.0376	841
159.0452	630
167.0035	105
167.9985	87
176.0469	122
182.0133	105
184.0528	105
187.0419	87
238.0039	262
