Mass spectrum: Theophylline; LC-ESI-QTOF; MS2; 50 V
Name: Theophylline
Class: Pharmaceutical; Natural_product
Formula: C7H8N4O2
Exact mass: 180.0647
SMILES: CN1C2=C(C(=O)N(C1=O)C)NC=N2
InChI: InChI=1S/C7H8N4O2/c1-10-5-4(8-3-9-5)6(12)11(2)7(10)13/h3H,1-2H3,(H,8,9)
Instrument: TripleTOF 5600 SCIEX
Instrument type: LC-ESI-QTOF
Ms type: MS2
Ion mode: POSITIVE
Collision energy: 50
Fragmentation mode: CID
Ionization: ESI
Column name: Zorbax Eclipse Plus C18 2.1 mm x 150 mm, 3.5 um, Agilent
Retention time: 4.936 min
Precursor m/z: 181.072
Precursor type: [M+H]+
m/z	relative intensity
40.0289	10
42.0436	999
54.0262	63
54.039	33
55.0363	29
67.0329	65
68.0398	29
69.0487	586
81.0485	23
83.0267	16
93.0441	12
94.0411	126
95.0255	21
96.0566	143
96.0708	19
109.0273	156
121.0509	38
124.0505	101
