Mass spectrum: Amethopterin; LC-ESI-QTOF; MS2; 140 V
Name: Amethopterin
Class: Pharmaceutical
Formula: C20H22N8O5
Exact mass: 454.1713
SMILES: CN(Cc1cnc2nc(N)nc(N)c2n1)c3ccc(cc3)C(=O)NC(CCC(O)=O)C(O)=O
InChI: InChI=1S/C20H22N8O5/c1-28(9-11-8-23-17-15(24-11)16(21)26-20(22)27-17)12-4-2-10(3-5-12)18(31)25-13(19(32)33)6-7-14(29)30/h2-5,8,13H,6-7,9H2,1H3,(H,25,31)(H,29,30)(H,32,33)(H4,21,22,23,26,27)
Instrument: TripleTOF 5600 SCIEX
Instrument type: LC-ESI-QTOF
Ms type: MS2
Ion mode: POSITIVE
Collision energy: 140
Fragmentation mode: CID
Ionization: ESI
Column name: Zorbax Eclipse Plus C18 2.1 mm x 150 mm, 3.5 um, Agilent
Retention time: 5.057 min
Precursor m/z: 455.1786
Precursor type: [M+H]+
m/z	relative intensity
42.034	104
43.0292	187
52.0186	145
53.0132	104
53.0265	145
54.0341	145
65.0382	208
66.0216	249
67.0291	166
77.0395	499
78.0213	83
79.0292	457
79.0546	145
80.0246	312
80.036	104
91.0185	104
94.0388	83
104.0256	104
106.0399	999
106.0641	83
107.0461	145
121.0511	124
131.0353	104
133.0493	291
134.058	83
159.0567	104
