Mass spectrum: Solvent Yellow 124; LC-ESI-QTOF; MS2; 60 V
Name: Solvent Yellow 124
Formula: C22H31N3O2
Exact mass: 369.2416
SMILES: CCN(CCOC(C)OCC(C)C)C1=CC=C(C=C1)N=NC2=CC=CC=C2
InChI: InChI=1S/C22H31N3O2/c1-5-25(15-16-26-19(4)27-17-18(2)3)22-13-11-21(12-14-22)24-23-20-9-7-6-8-10-20/h6-14,18-19H,5,15-17H2,1-4H3
Instrument: TripleTOF X500R SCIEX
Instrument type: LC-ESI-QTOF
Ms type: MS2
Ion mode: POSITIVE
Collision energy: 60
Fragmentation mode: CID
Ionization: ESI
Column name: Zorbax Eclipse Plus C18 2.1 mm x 150 mm, 3.5 um, Agilent
Retention time: 18.347 min
Precursor m/z: 370.2489
Precursor type: [M+H]+
m/z	relative intensity
41.0387	25
45.0338	43
51.0234	46
57.0703	63
77.039	999
79.0545	11
91.0543	25
92.0499	43
93.068	11
95.0492	46
104.049	43
105.0458	124
106.0656	300
117.0573	49
118.0647	66
119.0606	109
120.082	77
130.0673	20
131.0729	23
132.081	256
133.0868	57
134.0967	664
136.0766	72
145.076	138
146.0863	40
147.0965	395
154.077	23
163.0881	14
177.1026	23
178.1096	28
181.0759	20
182.0927	40
196.0964	28
210.1031	944
224.1171	17
239.1421	69
252.1519	17
270.1609	89
270.1908	20
