Mass spectrum: Flumequin; LC-ESI-QTOF; MS2; 110 V
Name: Flumequin
Class: Pharmaceutical; Antimicrobial
Formula: C14H12FNO3
Exact mass: 261.0801
SMILES: CC1CCc2cc(F)cc3C(=O)C(=CN1c23)C(O)=O
InChI: InChI=1S/C14H12FNO3/c1-7-2-3-8-4-9(15)5-10-12(8)16(7)6-11(13(10)17)14(18)19/h4-7H,2-3H2,1H3,(H,18,19)
Instrument: TripleTOF 5600 SCIEX
Instrument type: LC-ESI-QTOF
Ms type: MS2
Ion mode: POSITIVE
Collision energy: 110
Fragmentation mode: CID
Ionization: ESI
Column name: Zorbax Eclipse Plus C18 2.1 mm x 150 mm, 3.5 um, Agilent
Retention time: 9.545 min
Precursor m/z: 262.0874
Precursor type: [M+H]+
m/z	relative intensity
51.0292	35
53.0088	79
57.0178	22
68.0081	12
73.01	79
74.0178	325
75.012	35
75.0249	284
76.0206	44
81.0164	28
83.0302	19
85.0096	15
86.0184	22
87.0242	15
92.0049	22
93.0139	114
94.0211	51
95.0308	25
96.0383	15
97.0068	41
98.0156	999
98.0447	25
99.0223	670
99.0589	12
100.0183	446
105.0124	22
107.0289	31
118.0208	15
119.0289	19
120.0253	12
120.0382	31
123.0163	12
125.0383	25
126.033	28
131.0281	31
133.0457	12
145.032	15
146.0414	28
172.0532	15
