Mass spectrum: Methiocarb; LC-ESI-QTOF; MS2; 140 V
Name: Methiocarb
Formula: C11H15NO2S
Exact mass: 225.0823
SMILES: Cc1cc(cc(c1SC)C)OC(=O)NC
InChI: InChI=1S/C11H15NO2S/c1-7-5-9(14-11(13)12-3)6-8(2)10(7)15-4/h5-6H,1-4H3,(H,12,13)
Instrument: TripleTOF 6600 SCIEX
Instrument type: LC-ESI-QTOF
Ms type: MS2
Ion mode: POSITIVE
Collision energy: 140
Fragmentation mode: CID
Ionization: ESI
Column name: Zorbax Eclipse Plus C18 2.1 mm x 150 mm, 3.5 um, Agilent
Retention time: 11.34614 min
Precursor m/z: 226.0896
Precursor type: [M+H]+
m/z	relative intensity
35.9973	41
37.0051	263
38.001	27
38.0131	215
39.0212	561
43.9696	55
44.977	187
49.0048	194
50.0128	999
51.0205	790
53.0366	27
58.9927	27
59.997	34
61.0045	159
62.0122	145
63.0206	124
65.037	90
67.9675	34
68.9767	104
74.0122	104
75.0207	27
77.0362	111
89.0353	41
91.0513	41
92.9757	34
