Mass spectrum: Bosentan; LC-ESI-QTOF; MS2; 70 V
Name: Bosentan
Class: Pharmaceutical
Formula: C27H29N5O6S
Exact mass: 551.1839
SMILES: CC(C)(C)C1=CC=C(C=C1)S(=O)(=O)NC2=C(C(=NC(=N2)C3=NC=CC=N3)OCCO)OC4=CC=CC=C4OC
InChI: InChI=1S/C27H29N5O6S/c1-27(2,3)18-10-12-19(13-11-18)39(34,35)32-23-22(38-21-9-6-5-8-20(21)36-4)26(37-17-16-33)31-25(30-23)24-28-14-7-15-29-24/h5-15,33H,16-17H2,1-4H3,(H,30,31,32)
Instrument: TripleTOF 5600 SCIEX
Instrument type: LC-ESI-QTOF
Ms type: MS2
Ion mode: NEGATIVE
Collision energy: 70
Fragmentation mode: CID
Ionization: ESI
Column name: Zorbax Eclipse Plus C18 2.1 mm x 150 mm, 3.5 um, Agilent
Retention time: 12.118 min
Precursor m/z: 550.1766
Precursor type: [M-H]-
m/z	relative intensity
41.998	49
63.9616	289
118.03	99
133.1024	624
134.0247	69
149.0982	139
158.0368	74
173.0367	144
181.033	49
197.0647	999
201.0415	69
248.0612	54
249.0637	79
277.0615	319
278.068	204
280.085	64
458.0891	234
474.1183	194
