Mass spectrum: 2-Morpholin-4-yl-benzothiazole; LC-ESI-QTOF; MS2; 80 V
Name: 2-Morpholin-4-yl-benzothiazole
Class: Industrial_process
Formula: C11H12N2OS
Exact mass: 220.067
SMILES: c1ccc2c(c1)nc(s2)N3CCOCC3
InChI: InChI=1S/C11H12N2OS/c1-2-4-10-9(3-1)12-11(15-10)13-5-7-14-8-6-13/h1-4H,5-8H2
Instrument: TripleTOF 5600 SCIEX
Instrument type: LC-ESI-QTOF
Ms type: MS2
Ion mode: POSITIVE
Collision energy: 80
Fragmentation mode: CID
Ionization: ESI
Column name: Zorbax Eclipse Plus C18 2.1 mm x 150 mm, 3.5 um, Agilent
Retention time: 9.363 min
Precursor m/z: 221.0743
Precursor type: [M+H]+
m/z	relative intensity
37.0148	19
42.0434	20
51.0283	68
53.0443	24
57.9929	22
64.0318	11
64.0396	11
64.0555	9
65.0434	999
68.9833	490
69.9908	68
75.0262	12
76.0313	11
77.041	282
78.0369	32
79.0563	36
80.0516	229
81.9894	141
82.9959	19
89.0395	149
90.0426	158
91.0433	57
91.0535	76
92.0506	11
92.9804	30
94.9961	70
96.0035	267
97.0099	20
103.0535	12
104.0493	16
105.0446	33
105.0689	12
106.0639	12
106.9949	32
108.0026	431
109.0105	673
115.052	25
116.0492	16
117.0566	80
118.0517	32
121.0099	17
122.0046	51
123.0122	51
124.0219	28
128.0593	11
132.9975	11
134.0054	46
135.0132	48
136.0203	80
148.0204	27
149.0293	16
150.0243	27
175.031	20
