Mass spectrum: 2-[(4-hydroxy-9,10-dioxoanthracen-1-yl)amino]-5-methylbenzenesulfonic acid; LC-ESI-QTOF; MS2; 60 V
Name: 2-[(4-hydroxy-9,10-dioxoanthracen-1-yl)amino]-5-methylbenzenesulfonic acid
Formula: C21H15NO6S
Exact mass: 409.062
SMILES: CC1=CC(=C(C=C1)NC2=C3C(=C(C=C2)O)C(=O)C4=CC=CC=C4C3=O)S(=O)(=O)O
InChI: InChI=1S/C21H15NO6S/c1-11-6-7-14(17(10-11)29(26,27)28)22-15-8-9-16(23)19-18(15)20(24)12-4-2-3-5-13(12)21(19)25/h2-10,22-23H,1H3,(H,26,27,28)
Instrument: TripleTOF X500R SCIEX
Instrument type: LC-ESI-QTOF
Ms type: MS2
Ion mode: POSITIVE
Collision energy: 60
Fragmentation mode: CID
Ionization: ESI
Column name: Zorbax Eclipse Plus C18 2.1 mm x 150 mm, 3.5 um, Agilent
Retention time: 11.683 min
Precursor m/z: 410.0693
Precursor type: [M+H]+
m/z	relative intensity
152.0629	28
153.07	28
180.0828	38
201.0768	23
202.077	104
215.0922	23
226.0778	52
227.0793	61
228.0829	261
229.0885	228
230.0705	28
239.065	47
240.0821	23
241.0908	161
242.0948	19
243.1078	28
244.1115	156
251.0721	23
252.0812	33
253.0898	80
254.0958	256
256.0768	176
257.0846	228
270.0917	23
271.1023	28
272.1073	42
281.0836	28
282.0925	180
283.1006	38
284.0705	114
284.1133	23
285.0791	399
286.0858	52
298.0875	57
299.0936	38
300.103	128
310.0859	47
312.0351	23
312.0664	218
312.0963	19
313.0741	999
314.0855	23
326.0845	61
327.0886	99
328.098	66
328.1268	19
329.1051	28
342.0751	156
343.0847	95
