Mass spectrum: Azoxystrobin; LC-ESI-QTOF; MS2; 150 V
Name: Azoxystrobin
Class: Fungicide
Formula: C22H17N3O5
Exact mass: 403.1168
SMILES: COC=C(C1=CC=CC=C1OC2=NC=NC(=C2)OC3=CC=CC=C3C#N)C(=O)OC
InChI: InChI=1S/C22H17N3O5/c1-27-13-17(22(26)28-2)16-8-4-6-10-19(16)30-21-11-20(24-14-25-21)29-18-9-5-3-7-15(18)12-23/h3-11,13-14H,1-2H3
Instrument: TripleTOF 6600 SCIEX
Instrument type: LC-ESI-QTOF
Ms type: MS2
Ion mode: POSITIVE
Collision energy: 150
Fragmentation mode: CID
Ionization: ESI
Column name: Zorbax Eclipse Plus C18 2.1 mm x 150 mm, 3.5 um, Agilent
Retention time: 12.114 min
Precursor m/z: 404.1241
Precursor type: [M+H]+
m/z	relative intensity
37.0062	29
38.0145	16
39.0221	69
49.0062	107
50.014	467
51.0219	999
52.017	53
52.0291	16
53.0008	53
61.0054	64
62.0136	153
63.0217	402
64.0167	21
64.0288	26
65.0374	88
68.9949	21
73.0052	32
74.0135	343
75.0093	32
75.0212	469
76.0169	163
76.0284	110
77.037	448
78.0319	18
78.0448	32
86.0134	26
87.021	29
88.0158	34
88.0293	18
89.0369	375
90.0324	16
90.043	10
91.0397	29
98.0131	13
99.0094	18
99.0205	18
100.0156	21
100.0291	16
101.0361	24
102.032	99
102.0441	21
103.0412	13
104.0468	26
105.0424	18
113.0363	18
114.0316	53
115.0381	10
116.0478	26
126.0352	13
127.0401	10
128.0478	18
129.0423	13
130.0376	26
144.0411	24
150.0451	10
163.05	24
164.0467	18
187.0524	13
188.0471	24
190.0643	13
214.052	18
215.0593	16
