Mass spectrum: Clozapine; LC-ESI-QTOF; MS2; 90 V
Name: Clozapine
Class: Pharmaceutical
Formula: C18H19ClN4
Exact mass: 326.1298
SMILES: CN1CCN(CC1)C2=NC3=C(C=CC(=C3)Cl)NC4=CC=CC=C42
InChI: InChI=1S/C18H19ClN4/c1-22-8-10-23(11-9-22)18-14-4-2-3-5-15(14)20-16-7-6-13(19)12-17(16)21-18/h2-7,12,20H,8-11H2,1H3
Instrument: TripleTOF 6600 SCIEX
Instrument type: LC-ESI-QTOF
Ms type: MS2
Ion mode: POSITIVE
Collision energy: 90
Fragmentation mode: CID
Ionization: ESI
Column name: Zorbax Eclipse Plus C18 2.1 mm x 150 mm, 3.5 um, Agilent
Retention time: 6.951 min
Precursor m/z: 327.1371
Precursor type: [M+H]+
m/z	relative intensity
42.0338	22
63.0226	13
72.9834	19
88.0296	11
90.0335	17
98.9985	12
113.0377	13
114.0361	17
114.046	11
123.9931	16
137.0378	74
138.0452	252
139.05	57
140.0487	61
151.0538	13
153.0465	10
163.0415	19
164.0491	999
165.0539	391
166.0624	48
177.0567	16
178.064	27
179.0647	29
189.046	14
190.0575	33
191.06	489
192.0679	482
193.0759	11
205.0737	23
213.0336	12
216.0692	15
217.0765	24
218.0843	21
226.0283	29
239.0364	10
