Mass spectrum: Proadifen; LC-ESI-QTOF; MS2; 90 V
Name: Proadifen
Formula: C23H31NO2
Exact mass: 353.2355
SMILES: CCCC(C1=CC=CC=C1)(C2=CC=CC=C2)C(=O)OCCN(CC)CC
InChI: InChI=1S/C23H31NO2/c1-4-17-23(20-13-9-7-10-14-20,21-15-11-8-12-16-21)22(25)26-19-18-24(5-2)6-3/h7-16H,4-6,17-19H2,1-3H3
Instrument: TripleTOF 6600 SCIEX
Instrument type: LC-ESI-QTOF
Ms type: MS2
Ion mode: POSITIVE
Collision energy: 90
Fragmentation mode: CID
Ionization: ESI
Column name: Zorbax Eclipse Plus C18 2.1 mm x 150 mm, 3.5 um, Agilent
Retention time: 9.831 min
Precursor m/z: 354.2428
Precursor type: [M+H]+
m/z	relative intensity
39.0217	37
41.0375	10
44.0485	41
51.0215	28
63.0211	13
65.0373	286
77.0371	345
79.0529	102
91.0528	999
102.0449	11
103.0525	94
105.0343	40
105.0681	114
115.0525	101
116.0601	14
128.0603	84
139.0521	18
141.0684	44
150.0431	11
151.0523	72
152.061	587
163.0526	15
164.0604	65
165.069	947
166.0759	81
167.0845	24
178.0767	25
