Mass spectrum: O-desmethyl-tramadol; LC-ESI-QTOF; MS2; 10 V
Name: O-desmethyl-tramadol
Class: Transformation_product; Pharmaceutical; Metabolite
Formula: C15H23NO2
Exact mass: 249.1729
SMILES: CN(C)CC1CCCCC1(O)c2cccc(O)c2
InChI: InChI=1S/C15H23NO2/c1-16(2)11-13-6-3-4-9-15(13,18)12-7-5-8-14(17)10-12/h5,7-8,10,13,17-18H,3-4,6,9,11H2,1-2H3
Instrument: TripleTOF 5600 SCIEX
Instrument type: LC-ESI-QTOF
Ms type: MS2
Ion mode: POSITIVE
Collision energy: 10
Fragmentation mode: CID
Ionization: ESI
Column name: Zorbax Eclipse Plus C18 2.1 mm x 150 mm, 3.5 um, Agilent
Retention time: 5.386 min
Precursor m/z: 250.1802
Precursor type: [M+H]+
m/z	relative intensity
58.071	70
250.1799	999
