Mass spectrum: Ambroxol; LC-ESI-QTOF; MS2; 120 V
Name: Ambroxol
Class: Pharmaceutical
Formula: C13H18Br2N2O
Exact mass: 375.9786
SMILES: Nc1c(Br)cc(Br)cc1CNC2CCC(O)CC2
InChI: InChI=1S/C13H18Br2N2O/c14-9-5-8(13(16)12(15)6-9)7-17-10-1-3-11(18)4-2-10/h5-6,10-11,17-18H,1-4,7,16H2
Instrument: TripleTOF 5600 SCIEX
Instrument type: LC-ESI-QTOF
Ms type: MS2
Ion mode: POSITIVE
Collision energy: 120
Fragmentation mode: CID
Ionization: ESI
Column name: Zorbax Eclipse Plus C18 2.1 mm x 150 mm, 3.5 um, Agilent
Retention time: 6.498 min
Precursor m/z: 376.9859
Precursor type: [M+H]+
m/z	relative intensity
52.0255	25
74.0197	48
75.0258	111
76.0209	29
76.0334	214
77.0417	999
77.0848	18
78.0365	192
79.0576	48
81.0723	66
102.0334	140
103.0424	270
104.0496	532
130.0409	14
154.9486	114
155.9572	55
181.9592	273
182.9636	29
