Mass spectrum: Clonazepam; LC-ESI-QTOF; MS2; 40 V
Name: Clonazepam
Class: Pharmaceutical
Formula: C15H10ClN3O3
Exact mass: 315.0411
SMILES: C1C(=O)NC2=C(C=C(C=C2)[N+](=O)[O-])C(=N1)C3=CC=CC=C3Cl
InChI: InChI=1S/C15H10ClN3O3/c16-12-4-2-1-3-10(12)15-11-7-9(19(21)22)5-6-13(11)18-14(20)8-17-15/h1-7H,8H2,(H,18,20)
Instrument: TripleTOF 6600 SCIEX
Instrument type: LC-ESI-QTOF
Ms type: MS2
Ion mode: NEGATIVE
Collision energy: 40
Fragmentation mode: CID
Ionization: ESI
Column name: Zorbax Eclipse Plus C18 2.1 mm x 150 mm, 3.5 um, Agilent
Retention time: 9.867 min
Precursor m/z: 314.0338
Precursor type: [M-H]-
m/z	relative intensity
34.9694	489
41.9978	65
45.9922	26
118.032	15
140.049	34
146.0219	30
177.0558	19
189.057	22
191.0596	61
192.0439	34
193.0375	19
193.0516	22
203.0578	22
204.0681	65
205.0534	133
219.0565	463
220.0637	153
221.0463	38
231.0541	283
232.0627	746
234.0501	15
238.0267	19
240.0206	30
241.0259	22
247.0498	956
248.0569	734
250.0221	15
250.0394	15
251.0426	225
256.0138	26
261.0531	103
266.0227	19
271.0252	34
277.044	22
278.0548	999
286.0137	677
287.0247	80
314.0333	53
