Mass spectrum: Lorazepam; LC-ESI-QTOF; MS2; 80 V
Name: Lorazepam
Class: Pharmaceutical
Formula: C15H10Cl2N2O2
Exact mass: 320.0119
SMILES: OC1N=C(c2ccccc2Cl)c3cc(Cl)ccc3NC1=O
InChI: InChI=1S/C15H10Cl2N2O2/c16-8-5-6-12-10(7-8)13(19-15(21)14(20)18-12)9-3-1-2-4-11(9)17/h1-7,15,21H,(H,18,20)
Instrument: TripleTOF 5600 SCIEX
Instrument type: LC-ESI-QTOF
Ms type: MS2
Ion mode: POSITIVE
Collision energy: 80
Fragmentation mode: CID
Ionization: ESI
Column name: Zorbax Eclipse Plus C18 2.1 mm x 150 mm, 3.5 um, Agilent
Retention time: 9.538 min
Precursor m/z: 321.0192
Precursor type: [M+H]+
m/z	relative intensity
75.0247	333
93.0584	523
100.0186	570
102.0337	999
110.999	333
135.9945	475
166.0657	856
167.0733	333
168.0674	570
177.0586	618
192.0652	475
193.0762	951
194.0835	713
228.051	190
239.0368	333
