Mass spectrum: Hexazinone; LC-ESI-QTOF; MS2; 150 V
Name: Hexazinone
Class: Herbicide
Formula: C12H20N4O2
Exact mass: 252.1586
SMILES: CN1C(=NC(=O)N(C1=O)C2CCCCC2)N(C)C
InChI: InChI=1S/C12H20N4O2/c1-14(2)10-13-11(17)16(12(18)15(10)3)9-7-5-4-6-8-9/h9H,4-8H2,1-3H3
Instrument: TripleTOF 6600 SCIEX
Instrument type: LC-ESI-QTOF
Ms type: MS2
Ion mode: POSITIVE
Collision energy: 150
Fragmentation mode: CID
Ionization: ESI
Column name: Zorbax Eclipse Plus C18 2.1 mm x 150 mm, 3.5 um, Agilent
Retention time: 8.427 min
Precursor m/z: 253.1659
Precursor type: [M+H]+
m/z	relative intensity
36.0001	76
37.0073	385
38.0025	50
38.0149	324
39.0227	841
41.0133	30
41.0273	25
41.0383	55
41.9969	35
42.0334	344
44.0124	157
44.0487	30
53.0132	40
55.0286	999
56.0358	126
57.0442	30
60.985	50
69.0076	70
69.044	791
69.9911	131
71.0584	30
