Mass spectrum: Didesmethyl-citalopram; LC-ESI-QTOF; MS2; 60 V
Name: Didesmethyl-citalopram
Class: Pharmaceutical; Metabolite; Transformation_product-Metabolite
Formula: C18H17FN2O
Exact mass: 296.1325
SMILES: c1cc(ccc1C2(c3ccc(cc3CO2)C#N)CCCN)F
InChI: InChI=1S/C18H17FN2O/c19-16-5-3-15(4-6-16)18(8-1-9-20)17-7-2-13(11-21)10-14(17)12-22-18/h2-7,10H,1,8-9,12,20H2
Instrument: TripleTOF 5600 SCIEX
Instrument type: LC-ESI-QTOF
Ms type: MS2
Ion mode: POSITIVE
Collision energy: 60
Fragmentation mode: CID
Ionization: ESI
Column name: Zorbax Eclipse Plus C18 2.1 mm x 150 mm, 3.5 um, Agilent
Retention time: 7.575 min
Precursor m/z: 297.1398
Precursor type: [M+H]+
m/z	relative intensity
57.0186	17
83.0314	254
89.0403	146
101.0387	16
109.0446	999
113.0383	12
115.0544	39
116.0492	160
127.0535	21
128.0598	17
133.0442	31
139.053	41
140.0489	151
142.0544	25
146.0516	14
155.0604	11
166.0645	52
175.0544	12
183.0601	30
189.0681	17
190.0646	42
194.0515	27
195.0582	32
196.0667	10
199.0542	21
200.0596	49
201.0616	25
202.073	38
203.073	13
206.0501	10
207.0593	118
208.0561	160
213.0686	40
214.0655	102
215.085	59
218.0528	24
219.0574	102
220.066	149
221.0636	225
222.0718	10
225.0603	20
226.0647	109
227.0725	271
228.0798	19
232.0554	99
233.074	137
234.0717	126
235.0797	28
238.0639	11
240.0804	164
241.0873	21
244.0637	50
245.0629	273
246.0716	391
247.0783	120
258.0698	43
259.0797	38
260.086	40
261.0895	13
