Mass spectrum: Fluopyram; LC-ESI-QTOF; MS2; 120 V
Name: Fluopyram
Class: Fungicide
Formula: C16H11ClF6N2O
Exact mass: 396.0464
SMILES: C1=CC=C(C(=C1)C(=O)NCCC2=C(C=C(C=N2)C(F)(F)F)Cl)C(F)(F)F
InChI: InChI=1S/C16H11ClF6N2O/c17-12-7-9(15(18,19)20)8-25-13(12)5-6-24-14(26)10-3-1-2-4-11(10)16(21,22)23/h1-4,7-8H,5-6H2,(H,24,26)
Instrument: TripleTOF 6600 SCIEX
Instrument type: LC-ESI-QTOF
Ms type: MS2
Ion mode: POSITIVE
Collision energy: 120
Fragmentation mode: CID
Ionization: ESI
Column name: Zorbax Eclipse Plus C18 2.1 mm x 150 mm, 3.5 um, Agilent
Retention time: 12.765 min
Precursor m/z: 397.0537
Precursor type: [M+H]+
m/z	relative intensity
50.0158	10
51.0047	41
51.0216	12
57.0133	27
68.9946	110
69.0129	15
73.007	29
74.015	278
75.0211	999
76.0184	14
81.0129	30
95.0288	564
99.0036	69
102.0338	29
105.0126	12
108.9644	11
109.9779	15
119.0103	52
123.035	83
125.0193	250
126.0152	30
145.0253	380
146.02	12
152.0293	14
