Mass spectrum: Nilotinib; LC-ESI-QTOF; MS2; 80 V
Name: Nilotinib
Class: Pharmaceutical
Formula: C28H22F3N7O
Exact mass: 529.1838
SMILES: Cc1cn(cn1)c2cc(NC(=O)c3ccc(C)c(Nc4nccc(n4)c5cccnc5)c3)cc(c2)C(F)(F)F
InChI: InChI=1S/C28H22F3N7O/c1-17-5-6-19(10-25(17)37-27-33-9-7-24(36-27)20-4-3-8-32-14-20)26(39)35-22-11-21(28(29,30)31)12-23(13-22)38-15-18(2)34-16-38/h3-16H,1-2H3,(H,35,39)(H,33,36,37)
Instrument: TripleTOF 5600 SCIEX
Instrument type: LC-ESI-QTOF
Ms type: MS2
Ion mode: POSITIVE
Collision energy: 80
Fragmentation mode: CID
Ionization: ESI
Column name: Zorbax Eclipse Plus C18 2.1 mm x 150 mm, 3.5 um, Agilent
Retention time: 8.404 min
Precursor m/z: 530.1911
Precursor type: [M+H]+
m/z	relative intensity
104.0492	17
131.0616	21
142.0504	10
156.0575	23
158.0701	10
171.0797	10
193.0663	14
194.0668	9
198.0523	10
207.089	12
208.0881	13
214.0695	21
219.0867	15
220.0872	15
221.0971	10
225.0612	11
233.0938	15
234.1022	72
241.081	9
243.0773	15
244.0781	48
245.0832	107
246.0909	197
247.0971	15
259.0988	999
260.1073	77
261.1145	306
263.1298	9
268.0678	9
289.1058	9
