Mass spectrum: Metolachlor OA; LC-ESI-QTOF; MS2; 50 V
Name: Metolachlor OA
Class: Herbicide; Transformation_product-Metabolite
Formula: C15H21NO4
Exact mass: 279.1471
SMILES: CCC1=CC=CC(=C1N(C(C)COC)C(=O)C(=O)O)C
InChI: InChI=1S/C15H21NO4/c1-5-12-8-6-7-10(2)13(12)16(11(3)9-20-4)14(17)15(18)19/h6-8,11H,5,9H2,1-4H3,(H,18,19)
Instrument: TripleTOF 5600 SCIEX
Instrument type: LC-ESI-QTOF
Ms type: MS2
Ion mode: NEGATIVE
Collision energy: 50
Fragmentation mode: CID
Ionization: ESI
Column name: Zorbax Eclipse Plus C18 2.1 mm x 150 mm, 3.5 um, Agilent
Retention time: 9.915 min
Precursor m/z: 278.1398
Precursor type: [M-H]-
m/z	relative intensity
129.059	118
134.0958	63
143.0745	348
144.0821	999
156.0824	237
157.0897	166
158.0977	959
160.1163	142
170.0981	95
172.1135	245
