Mass spectrum: 4`-Methylacetanilide; LC-ESI-QTOF; MS2; 30 V
Name: 4`-Methylacetanilide
Class: Industrial_process
Formula: C9H11NO
Exact mass: 149.0841
SMILES: CC(=O)Nc1ccc(C)cc1
InChI: InChI=1S/C9H11NO/c1-7-3-5-9(6-4-7)10-8(2)11/h3-6H,1-2H3,(H,10,11)
Instrument: TripleTOF 5600 SCIEX
Instrument type: LC-ESI-QTOF
Ms type: MS2
Ion mode: POSITIVE
Collision energy: 30
Fragmentation mode: CID
Ionization: ESI
Column name: Zorbax Eclipse Plus C18 2.1 mm x 150 mm, 3.5 um, Agilent
Retention time: 7.709 min
Precursor m/z: 150.0913
Precursor type: [M+H]+
m/z	relative intensity
43.026	41
91.0551	113
93.0583	999
108.0804	971
150.0922	30
