Mass spectrum: Pindolol; LC-ESI-QTOF; MS2; 140 V
Name: Pindolol
Class: Pharmaceutical
Formula: C14H20N2O2
Exact mass: 248.1525
SMILES: CC(C)NCC(COC1=CC=CC2=C1C=CN2)O
InChI: InChI=1S/C14H20N2O2/c1-10(2)16-8-11(17)9-18-14-5-3-4-13-12(14)6-7-15-13/h3-7,10-11,15-17H,8-9H2,1-2H3
Instrument: TripleTOF 5600 SCIEX
Instrument type: LC-ESI-QTOF
Ms type: MS2
Ion mode: POSITIVE
Collision energy: 140
Fragmentation mode: CID
Ionization: ESI
Column name: Zorbax Eclipse Plus C18 2.1 mm x 150 mm, 3.5 um, Agilent
Retention time: 5.148 min
Precursor m/z: 249.1598
Precursor type: [M+H]+
m/z	relative intensity
44.0615	345
56.0568	90
64.0374	108
73.0148	72
74.0221	381
75.0299	181
76.0251	72
77.0452	563
78.0399	163
87.0259	90
88.0381	90
89.0435	999
115.0585	72
