Mass spectrum: Cyproterone; LC-ESI-QTOF; MS2; 110 V
Name: Cyproterone
Class: Pharmaceutical
Formula: C22H27ClO3
Exact mass: 374.1649
SMILES: CC(=O)C1(CCC2C1(CCC3C2C=C(C4=CC(=O)C5CC5C34C)Cl)C)O
InChI: InChI=1S/C22H27ClO3/c1-11(24)22(26)7-5-14-12-9-18(23)17-10-19(25)13-8-16(13)21(17,3)15(12)4-6-20(14,22)2/h9-10,12-16,26H,4-8H2,1-3H3
Instrument: TripleTOF 5600 SCIEX
Instrument type: LC-ESI-QTOF
Ms type: MS2
Ion mode: POSITIVE
Collision energy: 110
Fragmentation mode: CID
Ionization: ESI
Column name: Zorbax Eclipse Plus C18 2.1 mm x 150 mm, 3.5 um, Agilent
Retention time: 11.881 min
Precursor m/z: 375.1721
Precursor type: [M+H]+
m/z	relative intensity
39.0229	44
43.018	312
51.023	35
65.0385	160
76.0321	44
77.0384	597
78.0467	44
79.0538	142
89.0384	98
91.0545	677
93.0691	44
102.0451	80
103.0544	160
105.0684	151
115.0544	981
116.0612	80
117.0694	89
126.0475	71
127.0552	312
128.0615	776
129.0696	160
131.047	71
139.055	107
140.0624	44
141.0697	597
142.0782	44
151.0534	196
152.0615	758
153.071	231
154.0725	35
155.0858	62
157.0628	35
163.0535	62
164.0622	124
165.0695	999
166.0775	89
167.0869	44
176.0619	205
177.0693	133
178.0773	731
179.0852	205
181.0651	62
188.0661	62
189.0691	686
190.0768	214
191.0871	196
192.0878	44
194.073	44
201.0685	133
202.076	570
203.0857	196
204.0909	71
205.0607	44
207.0832	44
213.0669	80
214.0775	35
215.0853	321
216.0971	62
218.0745	53
226.0743	71
227.0832	53
228.0962	71
229.1023	53
231.0815	107
245.1002	35
