Mass spectrum: Pyrimethanil; LC-ESI-QTOF; MS2; 40 V
Name: Pyrimethanil
Class: Fungicide
Formula: C12H13N3
Exact mass: 199.1109
SMILES: CC1=CC(=NC(=N1)NC2=CC=CC=C2)C
InChI: InChI=1S/C12H13N3/c1-9-8-10(2)14-12(13-9)15-11-6-4-3-5-7-11/h3-8H,1-2H3,(H,13,14,15)
Instrument: TripleTOF 6600 SCIEX
Instrument type: LC-ESI-QTOF
Ms type: MS2
Ion mode: POSITIVE
Collision energy: 40
Fragmentation mode: CID
Ionization: ESI
Column name: Zorbax Eclipse Plus C18 2.1 mm x 150 mm, 3.5 um, Agilent
Retention time: 9.225 min
Precursor m/z: 200.1182
Precursor type: [M+H]+
m/z	relative intensity
39.0226	26
42.0339	495
51.0226	27
53.0383	160
55.0539	30
65.0383	125
66.0333	128
67.0293	101
67.0387	157
77.038	355
78.0456	18
80.0491	537
82.0649	751
83.0596	70
91.0534	34
92.0367	13
92.0487	166
93.0564	125
94.0643	16
104.0472	12
105.043	13
107.0599	924
108.0669	19
114.0451	20
115.0529	81
116.0479	28
117.0559	35
118.0525	43
118.0628	84
119.0594	153
127.0519	11
128.0486	31
128.0605	11
129.0684	47
131.0591	54
132.0793	10
139.0529	27
140.048	60
141.0555	70
142.064	123
143.0597	277
154.0638	23
155.0587	12
155.0698	10
156.0775	118
157.0739	17
158.0832	19
158.0954	13
159.0905	72
166.0635	69
167.0714	91
168.0673	807
181.0747	316
182.0828	848
183.0906	625
184.0847	24
185.0936	37
198.1007	41
200.1177	999
