Mass spectrum: 3-Methylxanthine; LC-ESI-QTOF; MS2; 50 V
Name: 3-Methylxanthine
Class: Pharmaceutical
Formula: C6H6N4O2
Exact mass: 166.0491
InChI: InChI=1S/C6H6N4O2/c1-10-4-3(7-2-8-4)5(11)9-6(10)12/h2H,1H3,(H,7,8)(H,9,11,12)
Instrument: TripleTOF 5600 SCIEX
Instrument type: LC-ESI-QTOF
Ms type: CID
Ion mode: POSITIVE
Collision energy: 50
Ionization: ESI
Column name: Zorbax Eclipse Plus C18 2.1 mm x 150 mm, 3.5 um, Agilent
Retention time: 4.502 min
Precursor m/z: 167.0564
Precursor type: [M+H]+
m/z	relative intensity
53.0184	217
55.0327	260
67.0317	173
69.0476	999
81.0106	217
96.0558	304
108.0421	217
109.027	260
