Mass spectrum: 6-Methylthioguanine; LC-ESI-QTOF; MS2; 130 V
Name: 6-Methylthioguanine
Class: Metabolite; Pharmaceutical
Formula: C6H7N5S
Exact mass: 181.0422
SMILES: CSc1nc(N)nc2nc[nH]c12
InChI: InChI=1S/C6H7N5S/c1-12-5-3-4(9-2-8-3)10-6(7)11-5/h2H,1H3,(H3,7,8,9,10,11)
Instrument: TripleTOF 5600 SCIEX
Instrument type: LC-ESI-QTOF
Ms type: MS2
Ion mode: POSITIVE
Collision energy: 130
Fragmentation mode: CID
Ionization: ESI
Column name: Zorbax Eclipse Plus C18 2.1 mm x 150 mm, 3.5 um, Agilent
Retention time: 4.912 min
Precursor m/z: 182.0495
Precursor type: [M+H]+
m/z	relative intensity
38.0117	166
53.0186	999
53.0372	166
55.9762	532
57.9813	199
68.027	233
69.9769	799
70.9861	266
81.9745	133
82.9839	133
