Mass spectrum: Crystal Violet Cation; LC-ESI-QTOF; MS2; 110 V
Name: Crystal Violet Cation
Formula: [C25H30N3]+
Exact mass: 372.2434
SMILES: CN(C)C1=CC=C(C=C1)C(=C2C=CC(=[N+](C)C)C=C2)C3=CC=C(C=C3)N(C)C
InChI: InChI=1S/C25H30N3/c1-26(2)22-13-7-19(8-14-22)25(20-9-15-23(16-10-20)27(3)4)21-11-17-24(18-12-21)28(5)6/h7-18H,1-6H3/q+1
Instrument: TripleTOF 6600 SCIEX
Instrument type: LC-ESI-QTOF
Ms type: MS2
Ion mode: POSITIVE
Collision energy: 110
Fragmentation mode: CID
Ionization: ESI
Column name: Zorbax Eclipse Plus C18 2.1 mm x 150 mm, 3.5 um, Agilent
Retention time: 11.587 min
Precursor m/z: 372.2434
Precursor type: [M]+
m/z	relative intensity
163.0516	60
164.0602	85
165.0679	331
190.0641	122
191.0711	144
192.0794	183
202.0756	59
215.0836	163
219.09	128
226.0752	180
227.0826	71
228.0917	99
239.0848	999
240.0905	253
241.0992	238
252.085	68
253.0872	84
254.0958	98
255.1016	53
266.0944	94
267.1019	174
268.1111	564
295.1222	225
296.1293	62
311.1542	94
324.1482	55
