Mass spectrum: 1-Methylguanine; LC-ESI-QTOF; MS2; 30 V
Name: 1-Methylguanine
Class: Natural_product
Formula: C6H7N5O
Exact mass: 165.0651
SMILES: CN1C(=Nc2nc[nH]c2C1=O)N
InChI: InChI=1S/C6H7N5O/c1-11-5(12)3-4(9-2-8-3)10-6(11)7/h2H,1H3,(H2,7,10)(H,8,9)
Instrument: TripleTOF 5600 SCIEX
Instrument type: LC-ESI-QTOF
Ms type: MS2
Ion mode: POSITIVE
Collision energy: 30
Fragmentation mode: CID
Ionization: ESI
Column name: Zorbax Eclipse Plus C18 2.1 mm x 150 mm, 3.5 um, Agilent
Retention time: 2.342 min
Precursor m/z: 166.0723
Precursor type: [M+H]+
m/z	relative intensity
43.0377	53
55.0329	28
57.049	20
67.0324	49
80.0276	12
82.0411	47
93.0089	18
94.04	37
109.0511	232
110.0343	407
121.0494	63
134.0447	69
135.0295	999
149.0453	820
151.0467	24
166.0717	703
