Mass spectrum: 2-(2-Hydroxyphenyl)-1H-benzimidazole; LC-ESI-QTOF; MS2; 50 V
Name: 2-(2-Hydroxyphenyl)-1H-benzimidazole
Class: Industrial_process; Pharmaceutical
Formula: C13H10N2O
Exact mass: 210.0793
SMILES: C1=CC=C2C(=C1)NC(=C3C=CC=CC3=O)N2
InChI: InChI=1S/C13H10N2O/c16-12-8-4-1-5-9(12)13-14-10-6-2-3-7-11(10)15-13/h1-8,14-15H
Instrument: TripleTOF 5600 SCIEX
Instrument type: LC-ESI-QTOF
Ms type: MS2
Ion mode: POSITIVE
Collision energy: 50
Fragmentation mode: CID
Ionization: ESI
Column name: Zorbax Eclipse Plus C18 2.1 mm x 150 mm, 3.5 um, Agilent
Retention time: 6.225 min
Precursor m/z: 211.0866
Precursor type: [M+H]+
m/z	relative intensity
77.0451	51
80.0541	22
90.0387	17
91.0463	24
92.0532	619
93.0608	15
102.0358	19
103.0431	17
104.0525	40
115.0569	15
117.0581	38
118.0543	157
119.0623	22
120.0463	28
127.0549	12
128.0572	33
129.0616	59
131.0615	138
132.0695	29
138.0497	10
139.0555	55
140.0503	53
141.0573	20
142.0544	18
143.062	61
154.0658	41
155.0617	72
156.0698	222
157.0758	27
164.051	24
165.0568	18
166.0653	70
167.068	64
168.0692	464
169.0773	34
180.0686	14
181.077	801
182.0842	999
183.092	793
191.0604	28
192.0688	173
193.0747	11
210.0811	21
211.0865	201
