Mass spectrum: Tetrabutylphosphonium; LC-ESI-QTOF; MS2; 80 V
Name: Tetrabutylphosphonium
Class: Industrial_process
Formula: [C16H36P]+
Exact mass: 259.2549
SMILES: CCCC[P+](CCCC)(CCCC)CCCC
InChI: InChI=1S/C16H36P/c1-5-9-13-17(14-10-6-2,15-11-7-3)16-12-8-4/h5-16H2,1-4H3/q+1
Instrument: TripleTOF 5600 SCIEX
Instrument type: LC-ESI-QTOF
Ms type: MS2
Ion mode: POSITIVE
Collision energy: 80
Fragmentation mode: CID
Ionization: ESI
Column name: Zorbax Eclipse Plus C18 2.1 mm x 150 mm, 3.5 um, Agilent
Retention time: 9.655 min
Precursor m/z: 259.2549
Precursor type: [M]+
m/z	relative intensity
56.9948	563
59.0101	535
61.0257	999
62.033	381
73.0222	72
75.0387	463
76.0468	698
89.052	67
90.0588	60
