Mass spectrum: Clindamycin; LC-ESI-QTOF; MS2; 90 V
Name: Clindamycin
Class: Antimicrobial; Pharmaceutical
Formula: C18H33ClN2O5S
Exact mass: 424.1799
SMILES: CCCC1CC(N(C1)C)C(=O)NC(C2C(C(C(C(O2)SC)O)O)O)C(C)Cl
InChI: InChI=1S/C18H33ClN2O5S/c1-5-6-10-7-11(21(3)8-10)17(25)20-12(9(2)19)16-14(23)13(22)15(24)18(26-16)27-4/h9-16,18,22-24H,5-8H2,1-4H3,(H,20,25)
Instrument: TripleTOF 5600 SCIEX
Instrument type: LC-ESI-QTOF
Ms type: MS2
Ion mode: POSITIVE
Collision energy: 90
Fragmentation mode: CID
Ionization: ESI
Column name: Zorbax Eclipse Plus C18 2.1 mm x 150 mm, 3.5 um, Agilent
Retention time: 6.261 min
Precursor m/z: 425.1871
Precursor type: [M+H]+
m/z	relative intensity
42.049	49
44.0618	15
58.0731	18
67.0583	27
68.0553	56
69.0759	65
70.0711	129
82.0691	187
83.0768	139
84.0844	46
95.0878	21
96.0827	35
97.091	17
124.1122	40
126.1283	999
