Mass spectrum: Epirubicin; LC-ESI-QTOF; MS2; 40 V
Name: Epirubicin
Class: Pharmaceutical
Formula: C27H29NO11
Exact mass: 543.1741
SMILES: CC1C(C(CC(O1)OC2CC(CC3=C(C4=C(C(=C23)O)C(=O)C5=C(C4=O)C=CC=C5OC)O)(C(=O)CO)O)N)O
InChI: InChI=1S/C27H29NO11/c1-10-22(31)13(28)6-17(38-10)39-15-8-27(36,16(30)9-29)7-12-19(15)26(35)21-20(24(12)33)23(32)11-4-3-5-14(37-2)18(11)25(21)34/h3-5,10,13,15,17,22,29,31,33,35-36H,6-9,28H2,1-2H3
Instrument: TripleTOF 5600 SCIEX
Instrument type: LC-ESI-QTOF
Ms type: MS2
Ion mode: NEGATIVE
Collision energy: 40
Fragmentation mode: CID
Ionization: ESI
Column name: Zorbax Eclipse Plus C18 2.1 mm x 150 mm, 3.5 um, Agilent
Retention time: 7.492 min
Precursor m/z: 542.1668
Precursor type: [M-H]-
m/z	relative intensity
283.0626	100
291.0676	93
292.0374	93
293.0495	150
294.0553	201
295.0669	57
303.0652	50
304.0417	122
305.0485	136
306.0568	344
307.0663	186
308.0366	57
309.0791	618
318.0544	93
319.0672	237
320.0312	114
321.0473	416
321.0808	287
322.0508	179
323.0614	122
333.0412	100
333.0852	107
334.0557	237
335.0587	524
336.0669	287
337.0765	424
344.0313	50
347.0596	136
349.0747	646
350.0476	165
351.0524	186
352.0679	64
359.0583	122
362.0564	172
363.0549	79
365.0696	689
366.0789	179
377.0721	632
395.0802	999
412.0828	107
542.1686	208
