Mass spectrum: Bosentan; LC-ESI-QTOF; MS2; 110 V
Name: Bosentan
Class: Pharmaceutical
Formula: C27H29N5O6S
Exact mass: 551.1839
SMILES: CC(C)(C)C1=CC=C(C=C1)S(=O)(=O)NC2=C(C(=NC(=N2)C3=NC=CC=N3)OCCO)OC4=CC=CC=C4OC
InChI: InChI=1S/C27H29N5O6S/c1-27(2,3)18-10-12-19(13-11-18)39(34,35)32-23-22(38-21-9-6-5-8-20(21)36-4)26(37-17-16-33)31-25(30-23)24-28-14-7-15-29-24/h5-15,33H,16-17H2,1-4H3,(H,30,31,32)
Instrument: TripleTOF 5600 SCIEX
Instrument type: LC-ESI-QTOF
Ms type: MS2
Ion mode: POSITIVE
Collision energy: 110
Fragmentation mode: CID
Ionization: ESI
Column name: Zorbax Eclipse Plus C18 2.1 mm x 150 mm, 3.5 um, Agilent
Retention time: 12.118 min
Precursor m/z: 552.1911
Precursor type: [M+H]+
m/z	relative intensity
52.0267	29
53.0357	14
65.0453	77
67.0383	10
69.052	10
77.043	150
78.0504	62
79.0339	338
79.0572	21
80.0159	18
80.0416	472
81.0479	23
89.0409	16
90.0458	12
91.0573	82
92.0286	16
92.0525	41
93.037	113
95.0516	19
97.0416	28
102.0342	44
103.0553	22
104.0518	93
105.0382	10
105.0566	30
105.0706	41
106.0416	999
107.0258	15
107.0483	49
108.0583	46
109.0312	17
109.0543	11
115.0535	25
116.0513	67
117.068	39
118.0505	21
118.0769	10
119.0404	10
119.0619	64
120.0453	357
121.0298	58
122.0598	31
123.0672	21
129.0463	13
130.0362	31
131.0591	67
132.0444	55
132.069	24
133.0516	24
134.0525	46
135.0384	13
135.0572	26
143.0608	12
144.0455	42
147.0629	143
149.0467	14
157.0493	27
171.0535	10
172.0514	11
174.0786	19
175.0592	27
197.0821	24
207.0656	16
209.0847	15
224.0959	13
250.0757	10
263.0593	34
280.079	38
