Mass spectrum: Clopyralid; LC-ESI-QTOF; MS2; 40 V
Name: Clopyralid
Class: Herbicide
Formula: C6H3Cl2NO2
Exact mass: 190.9541
SMILES: C1=CC(=NC(=C1Cl)C(=O)O)Cl
InChI: InChI=1S/C6H3Cl2NO2/c7-3-1-2-4(8)9-5(3)6(10)11/h1-2H,(H,10,11)
Instrument: TripleTOF 6600 SCIEX
Instrument type: LC-ESI-QTOF
Ms type: MS2
Ion mode: POSITIVE
Collision energy: 40
Fragmentation mode: CID
Ionization: ESI
Column name: Zorbax Eclipse Plus C18 2.1 mm x 150 mm, 3.5 um, Agilent
Retention time: 5.727 min
Precursor m/z: 191.9614
Precursor type: [M+H]+
m/z	relative intensity
61.978	42
74.0015	15
75.0094	117
83.9743	18
84.9823	18
109.9784	999
118.9438	12
145.9549	817
