Mass spectrum: Fenofibrate; LC-ESI-QTOF; MS2; 100 V
Name: Fenofibrate
Class: Pharmaceutical
Formula: C20H21ClO4
Exact mass: 360.1128
SMILES: CC(C)OC(=O)C(C)(C)Oc1ccc(cc1)C(=O)c2ccc(Cl)cc2
InChI: InChI=1S/C20H21ClO4/c1-13(2)24-19(23)20(3,4)25-17-11-7-15(8-12-17)18(22)14-5-9-16(21)10-6-14/h5-13H,1-4H3
Instrument: TripleTOF 5600 SCIEX
Instrument type: LC-ESI-QTOF
Ms type: MS2
Ion mode: POSITIVE
Collision energy: 100
Fragmentation mode: CID
Ionization: ESI
Column name: Zorbax Eclipse Plus C18 2.1 mm x 150 mm, 3.5 um, Agilent
Retention time: 16.296 min
Precursor m/z: 361.1201
Precursor type: [M+H]+
m/z	relative intensity
65.0433	165
73.0109	13
74.0191	150
75.027	581
84.986	47
93.0348	82
111.0004	999
121.0288	58
139.002	117
