Mass spectrum: (3-Benzyloxypropyl)triphenylphosphonium; LC-ESI-QTOF; MS2; 140 V
Name: (3-Benzyloxypropyl)triphenylphosphonium
Formula: [C28H28OP]+
Exact mass: 411.1872
SMILES: C1=CC=C(C=C1)COCCC[P+](C2=CC=CC=C2)(C3=CC=CC=C3)C4=CC=CC=C4
InChI: InChI=1S/C28H28OP/c1-5-14-25(15-6-1)24-29-22-13-23-30(26-16-7-2-8-17-26,27-18-9-3-10-19-27)28-20-11-4-12-21-28/h1-12,14-21H,13,22-24H2/q+1
Instrument: TripleTOF 5600 SCIEX
Instrument type: LC-ESI-QTOF
Ms type: MS2
Ion mode: POSITIVE
Collision energy: 140
Fragmentation mode: CID
Ionization: ESI
Column name: Zorbax Eclipse Plus C18 2.1 mm x 150 mm, 3.5 um, Agilent
Retention time: 9.728 min
Precursor m/z: 411.1872
Precursor type: [M]+
m/z	relative intensity
65.0383	181
80.9875	60
89.0369	56
91.0527	183
107.0033	571
115.053	264
126.0454	66
133.0192	74
139.0535	215
151.0535	165
152.0615	999
157.0201	477
181.0204	202
183.0359	519
257.0507	61
