Mass spectrum: Pantothenic acid; LC-ESI-QTOF; MS2; 30 V
Name: Pantothenic acid
Formula: C9H17NO5
Exact mass: 219.1107
SMILES: CC(C)(CO)C(C(=O)NCCC(=O)O)O
InChI: InChI=1S/C9H17NO5/c1-9(2,5-11)7(14)8(15)10-4-3-6(12)13/h7,11,14H,3-5H2,1-2H3,(H,10,15)(H,12,13)
Instrument: TripleTOF 6600 SCIEX
Instrument type: LC-ESI-QTOF
Ms type: MS2
Ion mode: POSITIVE
Collision energy: 30
Fragmentation mode: CID
Ionization: ESI
Column name: Zorbax Eclipse Plus C18 2.1 mm x 150 mm, 3.5 um, Agilent
Retention time: 4.792 min
Precursor m/z: 220.118
Precursor type: [M+H]+
m/z	relative intensity
30.0342	121
31.0178	9
39.0229	16
41.0386	66
42.0336	11
43.0178	339
45.033	47
55.0174	14
55.0543	16
56.0127	9
57.0699	109
59.0489	78
65.0378	19
67.0533	207
69.0693	83
70.0283	317
72.0439	511
73.0279	76
74.0227	40
81.0709	16
83.0497	23
85.0641	289
86.0954	26
87.0789	9
90.0545	999
95.048	255
96.08	90
98.0229	645
100.0379	35
103.0745	100
112.075	26
113.0589	114
116.0331	62
124.075	714
142.0861	219
156.1008	16
160.0948	21
174.1134	9
184.0958	95
202.1056	83
