Mass spectrum: Mesosulfuron-methyl; LC-ESI-QTOF; MS2; 70 V
Name: Mesosulfuron-methyl
Class: Herbicide
Formula: C17H21N5O9S2
Exact mass: 503.0781
SMILES: COC(=O)c1ccc(CN[S](C)(=O)=O)cc1[S](=O)(=O)NC(=O)Nc2nc(OC)cc(OC)n2
InChI: InChI=1S/C17H21N5O9S2/c1-29-13-8-14(30-2)20-16(19-13)21-17(24)22-33(27,28)12-7-10(9-18-32(4,25)26)5-6-11(12)15(23)31-3/h5-8,18H,9H2,1-4H3,(H2,19,20,21,22,24)
Instrument: TripleTOF 5600 SCIEX
Instrument type: LC-ESI-QTOF
Ms type: MS2
Ion mode: POSITIVE
Collision energy: 70
Fragmentation mode: CID
Ionization: ESI
Column name: Zorbax Eclipse Plus C18 2.1 mm x 150 mm, 3.5 um, Agilent
Retention time: 10.025 min
Precursor m/z: 504.0853
Precursor type: [M+H]+
m/z	relative intensity
56.0193	10
68.0167	14
69.0007	10
71.0641	33
77.0398	20
79.0565	18
82.0316	27
83.0263	640
83.0744	10
92.0266	10
93.0104	45
100.0401	70
104.0497	77
109.039	20
118.0294	10
119.0395	14
124.0498	16
132.0437	16
134.0592	20
135.044	39
139.0504	959
141.053	12
147.0329	10
156.0766	106
157.0601	12
162.0551	364
173.0352	16
182.056	999
242.0439	10
