Mass spectrum: Budesonide; LC-ESI-QTOF; MS2; 20 V
Name: Budesonide
Class: Pharmaceutical
Formula: C25H34O6
Exact mass: 430.2355
SMILES: CCC[C@@H]1O[C@@H]2C[C@H]3[C@@H]4CCC5=CC(=O)C=C[C@]5(C)[C@H]4[C@@H](O)C[C@]3(C)[C@@]2(O1)C(=O)CO
InChI: InChI=1S/C25H34O6/c1-4-5-21-30-20-11-17-16-7-6-14-10-15(27)8-9-23(14,2)22(16)18(28)12-24(17,3)25(20,31-21)19(29)13-26/h8-10,16-18,20-22,26,28H,4-7,11-13H2,1-3H3/t16-,17-,18-,20+,21+,22+,23-,24-,25+/m0/s1
Instrument: TripleTOF 5600 SCIEX
Instrument type: LC-ESI-QTOF
Ms type: MS2
Ion mode: POSITIVE
Collision energy: 20
Fragmentation mode: CID
Ionization: ESI
Column name: Zorbax Eclipse Plus C18 2.1 mm x 150 mm, 3.5 um, Agilent
Retention time: 11.041 min
Precursor m/z: 431.2428
Precursor type: [M+H]+
m/z	relative intensity
147.0794	43
171.0794	16
173.0949	56
223.1136	19
225.1256	55
227.1427	39
237.1254	21
239.1425	13
249.1242	15
251.1426	9
261.1265	11
263.1425	48
265.1596	40
267.1729	16
275.1421	10
277.1578	67
279.1386	14
279.1722	18
281.1512	26
283.1665	18
287.1404	21
289.1595	22
293.1555	26
295.1692	64
305.1528	113
307.1692	64
313.1785	17
321.1461	10
323.1634	322
325.179	62
339.1584	20
341.1756	123
343.1918	26
377.2137	16
395.2202	48
413.2322	999
431.2426	109
