Mass spectrum: Nicosulfuron; LC-ESI-QTOF; MS2; 80 V
Name: Nicosulfuron
Class: Herbicide
Formula: C15H18N6O6S
Exact mass: 410.1009
SMILES: CN(C)C(=O)C1=C(N=CC=C1)S(=O)(=O)NC(=O)NC2=NC(=CC(=N2)OC)OC
InChI: InChI=1S/C15H18N6O6S/c1-21(2)13(22)9-6-5-7-16-12(9)28(24,25)20-15(23)19-14-17-10(26-3)8-11(18-14)27-4/h5-8H,1-4H3,(H2,17,18,19,20,23)
Instrument: TripleTOF 6600 SCIEX
Instrument type: LC-ESI-QTOF
Ms type: MS2
Ion mode: POSITIVE
Collision energy: 80
Fragmentation mode: CID
Ionization: ESI
Column name: Zorbax Eclipse Plus C18 2.1 mm x 150 mm, 3.5 um, Agilent
Retention time: 8.499 min
Precursor m/z: 411.1081
Precursor type: [M+H]+
m/z	relative intensity
44.0481	11
45.0313	20
50.0121	11
51.0205	76
56.011	26
57.0426	26
65.0107	15
65.0352	15
68.0105	32
68.9943	54
69.0051	17
71.0577	61
78.0311	999
81.0418	29
82.0257	55
83.0213	732
91.0263	40
92.0468	11
93.0053	156
94.0132	13
100.0363	53
106.0257	270
109.0363	44
112.0478	14
119.0208	13
124.0473	15
138.0279	24
139.0474	377
140.0416	23
156.075	10
166.0233	16
182.0536	57
