Mass spectrum: Atrazine; LC-ESI-QTOF; MS2; 120 V
Name: Atrazine
Class: Herbicide
Formula: C8H14ClN5
Exact mass: 215.0938
SMILES: CCNc1nc(Cl)nc(NC(C)C)n1
InChI: InChI=1S/C8H14ClN5/c1-4-10-7-12-6(9)13-8(14-7)11-5(2)3/h5H,4H2,1-3H3,(H2,10,11,12,13,14)
Instrument: TripleTOF 5600 SCIEX
Instrument type: LC-ESI-QTOF
Ms type: MS2
Ion mode: POSITIVE
Collision energy: 120
Fragmentation mode: CID
Ionization: ESI
Column name: Zorbax Eclipse Plus C18 2.1 mm x 150 mm, 3.5 um, Agilent
Retention time: 10.312 min
Precursor m/z: 216.101
Precursor type: [M+H]+
m/z	relative intensity
41.0222	38
41.0298	9
42.0299	36
42.044	9
43.0386	543
53.0196	26
61.9847	999
62.0322	12
68.0289	557
68.0545	31
86.9757	21
