Mass spectrum: Bupropion; LC-ESI-QTOF; MS2; 120 V
Name: Bupropion
Class: Pharmaceutical
Formula: C13H18ClNO
Exact mass: 239.1077
SMILES: CC(C(=O)C1=CC(=CC=C1)Cl)NC(C)(C)C
InChI: InChI=1S/C13H18ClNO/c1-9(15-13(2,3)4)12(16)10-6-5-7-11(14)8-10/h5-9,15H,1-4H3
Instrument: TripleTOF 5600 SCIEX
Instrument type: LC-ESI-QTOF
Ms type: MS2
Ion mode: POSITIVE
Collision energy: 120
Fragmentation mode: CID
Ionization: ESI
Column name: Zorbax Eclipse Plus C18 2.1 mm x 150 mm, 3.5 um, Agilent
Retention time: 6.717 min
Precursor m/z: 240.115
Precursor type: [M+H]+
m/z	relative intensity
44.0569	47
57.073	127
58.07	53
63.0444	31
73.0108	37
74.0172	472
74.0417	47
75.0259	239
76.0351	37
77.0407	999
78.0488	42
84.984	53
89.0389	154
102.0461	74
103.0549	138
128.0482	26
130.0651	95
