Mass spectrum: Meperidine; LC-ESI-QTOF; MS2; 130 V
Name: Meperidine
Class: Pharmaceutical
Formula: C15H21NO2
Exact mass: 247.1572
SMILES: CCOC(=O)C1(CCN(CC1)C)C2=CC=CC=C2
InChI: InChI=1S/C15H21NO2/c1-3-18-14(17)15(9-11-16(2)12-10-15)13-7-5-4-6-8-13/h4-8H,3,9-12H2,1-2H3
Instrument: TripleTOF 6600 SCIEX
Instrument type: LC-ESI-QTOF
Ms type: MS2
Ion mode: POSITIVE
Collision energy: 130
Fragmentation mode: CID
Ionization: ESI
Column name: Zorbax Eclipse Plus C18 2.1 mm x 150 mm, 3.5 um, Agilent
Retention time: 6.573 min
Precursor m/z: 248.1645
Precursor type: [M+H]+
m/z	relative intensity
30.0337	14
35.9985	24
37.0071	142
38.0031	15
38.0144	121
39.0225	540
40.0183	15
41.0259	52
41.0389	58
42.0336	636
43.0414	29
44.0493	379
49.0064	53
50.0146	440
51.0226	999
52.03	17
53.0378	20
54.034	17
59.9985	18
61.0064	103
62.0146	207
63.0225	328
65.0376	351
67.0419	29
73.0059	23
74.0146	148
75.0226	70
76.0307	50
77.0379	435
78.046	48
80.0488	47
82.0641	12
85.0065	13
86.0131	32
87.0213	37
89.0379	211
91.0537	87
102.0449	67
103.0533	10
113.0378	10
115.0529	243
126.0449	24
127.0539	34
128.0609	50
