Mass spectrum: 3-Hydroxycarbamazepine; LC-ESI-QTOF; MS2; 40 V
Name: 3-Hydroxycarbamazepine
Class: Pharmaceutical
Formula: C15H12N2O2
Exact mass: 252.0899
SMILES: NC(=O)N1c2ccccc2C=Cc3ccc(O)cc13
InChI: InChI=1S/C15H12N2O2/c16-15(19)17-13-4-2-1-3-10(13)5-6-11-7-8-12(18)9-14(11)17/h1-9,18H,(H2,16,19)
Instrument: TripleTOF 5600 SCIEX
Instrument type: LC-ESI-QTOF
Ms type: MS2
Ion mode: POSITIVE
Collision energy: 40
Fragmentation mode: CID
Ionization: ESI
Column name: Zorbax Eclipse Plus C18 2.1 mm x 150 mm, 3.5 um, Agilent
Retention time: 7.917 min
Precursor m/z: 253.0972
Precursor type: [M+H]+
m/z	relative intensity
77.0401	10
115.0536	34
117.0564	60
139.0535	24
140.0482	11
140.06	10
141.0695	27
151.0527	22
152.0613	83
153.0692	65
154.0648	20
164.0616	16
165.0694	157
166.0644	87
167.0727	612
168.079	14
177.0571	11
178.0637	29
179.0715	30
180.0804	370
181.0683	42
181.0862	147
182.0961	312
183.0732	34
190.0647	72
191.0724	67
192.0802	68
193.0876	44
194.067	15
195.0669	145
206.0582	15
207.0665	72
208.0756	680
209.083	312
210.0911	999
236.0701	10
253.0971	59
