Mass spectrum: Metaflumizone; LC-ESI-QTOF; MS2; 130 V
Name: Metaflumizone
Class: Insecticide; Pharmaceutical
Formula: C24H16F6N4O2
Exact mass: 506.1177
SMILES: C1=CC(=CC(=C1)C(F)(F)F)C(=NNC(=O)NC2=CC=C(C=C2)OC(F)(F)F)CC3=CC=C(C=C3)C#N
InChI: InChI=1S/C24H16F6N4O2/c25-23(26,27)18-3-1-2-17(13-18)21(12-15-4-6-16(14-31)7-5-15)33-34-22(35)32-19-8-10-20(11-9-19)36-24(28,29)30/h1-11,13H,12H2,(H2,32,34,35)
Instrument: TripleTOF 6600 SCIEX
Instrument type: LC-ESI-QTOF
Ms type: MS2
Ion mode: NEGATIVE
Collision energy: 130
Fragmentation mode: CID
Ionization: ESI
Column name: Zorbax Eclipse Plus C18 2.1 mm x 150 mm, 3.5 um, Agilent
Retention time: 15.496 min
Precursor m/z: 505.1105
Precursor type: [M-H]-
m/z	relative intensity
41.9973	117
64.0177	132
73.0061	58
84.989	161
88.0194	88
90.0341	132
97.0066	220
102.0329	117
114.033	102
115.0294	705
116.0491	102
117.045	646
127.0294	132
139.0302	88
141.0452	999
165.0459	205
198.0342	146
212.0514	73
213.0533	73
215.0591	190
225.0449	308
244.0471	73
245.0509	205
285.0634	190
