Mass spectrum: Warfarin; LC-ESI-QTOF; MS2; 60 V
Name: Warfarin
Class: Pesticide
Formula: C19H16O4
Exact mass: 308.1049
SMILES: CC(=O)CC(C1=CC=CC=C1)C2=C(C3=CC=CC=C3OC2=O)O
InChI: InChI=1S/C19H16O4/c1-12(20)11-15(13-7-3-2-4-8-13)17-18(21)14-9-5-6-10-16(14)23-19(17)22/h2-10,15,21H,11H2,1H3
Instrument: TripleTOF 6600 SCIEX
Instrument type: LC-ESI-QTOF
Ms type: MS2
Ion mode: POSITIVE
Collision energy: 60
Fragmentation mode: CID
Ionization: ESI
Column name: Zorbax Eclipse Plus C18 2.1 mm x 150 mm, 3.5 um, Agilent
Retention time: 11.631 min
Precursor m/z: 309.1122
Precursor type: [M+H]+
m/z	relative intensity
39.0229	14
43.0179	155
51.0228	18
65.0385	222
68.9968	47
77.0382	368
79.0534	15
89.0374	21
91.0539	88
93.0327	198
95.0485	41
101.0386	17
102.0459	17
103.0535	171
105.0389	23
115.0534	24
119.0481	11
121.0282	999
127.0524	17
128.0615	54
129.0335	45
129.0694	44
131.0487	42
145.0286	20
151.0538	25
152.0612	110
153.0689	59
154.0771	34
155.0848	182
157.0279	23
163.0389	189
165.0689	135
166.076	16
167.0849	71
173.0232	141
176.0607	48
177.0682	40
178.0776	173
183.0791	26
205.0626	67
223.0733	47
233.0596	20
249.0529	13
251.0696	12
