Mass spectrum: Omeprazole; LC-ESI-QTOF; MS2; 100 V
Name: Omeprazole
Class: Pharmaceutical
Formula: C17H19N3O3S
Exact mass: 345.1147
SMILES: COc1ccc2nc([nH]c2c1)[S](=O)Cc3ncc(C)c(OC)c3C
InChI: InChI=1S/C17H19N3O3S/c1-10-8-18-15(11(2)16(10)23-4)9-24(21)17-19-13-6-5-12(22-3)7-14(13)20-17/h5-8H,9H2,1-4H3,(H,19,20)
Instrument: TripleTOF 5600 SCIEX
Instrument type: LC-ESI-QTOF
Ms type: MS2
Ion mode: POSITIVE
Collision energy: 100
Fragmentation mode: CID
Ionization: ESI
Column name: Zorbax Eclipse Plus C18 2.1 mm x 150 mm, 3.5 um, Agilent
Retention time: 6.462 min
Precursor m/z: 346.122
Precursor type: [M+H]+
m/z	relative intensity
42.0486	18
53.0475	36
65.0448	119
66.0527	42
67.047	12
67.0599	70
77.0435	460
78.0374	65
79.0585	388
80.0542	85
81.0715	62
81.9905	17
91.057	109
92.0521	229
93.061	236
94.0667	75
103.0571	22
104.0499	48
105.0552	56
106.0657	660
107.0741	222
108.0817	999
108.9983	76
110.0069	25
117.0557	15
118.0652	34
119.0731	19
120.0814	755
121.0892	330
122.0972	545
123.0135	18
134.0034	14
134.0482	87
134.0987	14
136.0209	99
136.0763	517
136.9933	17
137.0286	26
138.0359	11
149.0703	11
150.0376	12
150.0919	164
152.0159	24
164.0171	52
165.0254	110
166.0321	68
180.0499	39
