Mass spectrum: Disperse orange 3; LC-ESI-QTOF; MS2; 30 V
Name: Disperse orange 3
Formula: C12H10N4O2
Exact mass: 242.0804
SMILES: C1=CC(=CC=C1N)N=NC2=CC=C(C=C2)[N+](=O)[O-]
InChI: InChI=1S/C12H10N4O2/c13-9-1-3-10(4-2-9)14-15-11-5-7-12(8-6-11)16(17)18/h1-8H,13H2
Instrument: TripleTOF 6600 SCIEX
Instrument type: LC-ESI-QTOF
Ms type: MS2
Ion mode: POSITIVE
Collision energy: 30
Fragmentation mode: CID
Ionization: ESI
Column name: Zorbax Eclipse Plus C18 2.1 mm x 150 mm, 3.5 um, Agilent
Retention time: 12.729 min
Precursor m/z: 243.0877
Precursor type: [M+H]+
m/z	relative intensity
39.0218	11
51.0212	11
63.0215	38
64.0296	43
66.045	10
74.0144	26
75.0216	428
76.0291	183
92.0253	747
93.0558	389
104.0347	21
105.0429	12
106.0501	64
120.0539	144
122.0222	534
140.0321	41
150.0282	999
168.0777	12
169.0856	12
196.0843	18
197.0934	578
226.0829	96
243.0859	137
