Mass spectrum: N-ethyl-4-menthane-3-carboxamide; LC-ESI-QTOF; MS2; 90 V
Name: N-ethyl-4-menthane-3-carboxamide
Class: Food_additive; Personal_care_product
Formula: C13H25NO
Exact mass: 211.1936
SMILES: CCNC(=O)C1CC(CCC1C(C)C)C
InChI: InChI=1S/C13H25NO/c1-5-14-13(15)12-8-10(4)6-7-11(12)9(2)3/h9-12H,5-8H2,1-4H3,(H,14,15)
Instrument: TripleTOF 6600 SCIEX
Instrument type: LC-ESI-QTOF
Ms type: MS2
Ion mode: POSITIVE
Collision energy: 90
Fragmentation mode: CID
Ionization: ESI
Column name: Zorbax Eclipse Plus C18 2.1 mm x 150 mm, 3.5 um, Agilent
Retention time: 11.775 min
Precursor m/z: 212.2009
Precursor type: [M+H]+
m/z	relative intensity
35.9989	29
37.0068	126
38.0023	59
38.0146	104
39.0228	560
40.005	10
41.0384	275
42.0332	44
43.0176	40
43.0537	14
44.013	999
44.0492	23
46.0281	34
50.015	23
51.0224	77
52.0051	14
53.0128	25
53.0382	119
54.0334	42
55.0177	162
55.0542	126
65.0381	53
67.0406	14
67.0545	32
77.038	94
79.0531	32
80.0495	32
81.0343	12
91.0541	29
93.0578	10
94.0645	14
