Mass spectrum: Lamotrigine; LC-ESI-QTOF; MS2; 140 V
Name: Lamotrigine
Class: Pharmaceutical
Formula: C9H7Cl2N5
Exact mass: 255.0079
SMILES: Nc1nnc(c(N)n1)c2cccc(Cl)c2Cl
InChI: InChI=1S/C9H7Cl2N5/c10-5-3-1-2-4(6(5)11)7-8(12)14-9(13)16-15-7/h1-3H,(H4,12,13,14,16)
Instrument: TripleTOF 5600 SCIEX
Instrument type: LC-ESI-QTOF
Ms type: MS2
Ion mode: POSITIVE
Collision energy: 140
Fragmentation mode: CID
Ionization: ESI
Column name: Zorbax Eclipse Plus C18 2.1 mm x 150 mm, 3.5 um, Agilent
Retention time: 6.024 min
Precursor m/z: 256.0151
Precursor type: [M+H]+
m/z	relative intensity
42.0293	80
43.0378	999
62.0365	21
63.0387	42
71.9779	32
72.9869	102
73.011	392
74.0181	972
74.0507	26
75.0244	193
83.9779	75
85.01	64
86.0164	91
87.0247	37
88.0302	21
89.0384	32
95.9797	21
98.0152	26
99.0105	402
100.0182	48
123.0087	26
