Mass spectrum: Tryptamine; LC-ESI-QTOF; MS2; 30 V
Name: Tryptamine
Class: Metabolite
Formula: C10H12N2
Exact mass: 160.1
SMILES: C1=CC=C2C(=C1)C(=CN2)CCN
InChI: InChI=1S/C10H12N2/c11-6-5-8-7-12-10-4-2-1-3-9(8)10/h1-4,7,12H,5-6,11H2
Instrument: TripleTOF 5600 SCIEX
Instrument type: LC-ESI-QTOF
Ms type: MS2
Ion mode: POSITIVE
Collision energy: 30
Fragmentation mode: CID
Ionization: ESI
Column name: Zorbax Eclipse Plus C18 2.1 mm x 150 mm, 3.5 um, Agilent
Retention time: 4.966 min
Precursor m/z: 161.1073
Precursor type: [M+H]+
m/z	relative intensity
77.0388	14
91.0544	36
103.0554	13
115.0542	118
116.0559	23
117.0692	276
118.0654	10
127.0544	152
128.0498	49
129.0563	10
142.0642	16
143.0732	256
144.0812	999
