Mass spectrum: Food Yellow 3 free acid; LC-ESI-QTOF; MS2; 80 V
Name: Food Yellow 3 free acid
Formula: C16H12N2O7S2
Exact mass: 408.0086
SMILES: C1=CC(=CC=C1N=NC2=C(C=CC3=C2C=CC(=C3)S(=O)(=O)O)O)S(=O)(=O)O
InChI: InChI=1S/C16H12N2O7S2/c19-15-8-1-10-9-13(27(23,24)25)6-7-14(10)16(15)18-17-11-2-4-12(5-3-11)26(20,21)22/h1-9,19H,(H,20,21,22)(H,23,24,25)
Instrument: TripleTOF 6600 SCIEX
Instrument type: LC-ESI-QTOF
Ms type: MS2
Ion mode: POSITIVE
Collision energy: 80
Fragmentation mode: CID
Ionization: ESI
Column name: Zorbax Eclipse Plus C18 2.1 mm x 150 mm, 3.5 um, Agilent
Retention time: 5.59 min
Precursor m/z: 409.0159
Precursor type: [M+H]+
m/z	relative intensity
39.0231	14
51.0233	12
53.0383	59
62.0153	10
63.0223	81
64.9689	23
65.0385	111
74.0147	80
75.0223	52
76.0297	51
77.038	59
80.0494	999
81.0334	55
88.0299	12
89.0383	611
90.0337	20
92.0492	186
98.0147	10
99.0219	90
100.0295	273
101.0372	77
102.0376	11
108.0441	770
109.0518	65
114.0334	19
115.04	39
115.0527	10
116.0485	109
117.0318	10
126.0334	192
127.0415	958
128.0495	55
129.0547	39
144.044	24
154.0387	41
156.011	21
173.0139	38
190.0655	25
191.0687	13
201.0572	20
202.0654	16
203.0699	17
208.0085	32
216.0656	22
217.0758	61
218.0812	76
219.0925	10
228.0666	17
229.0759	234
230.0831	70
245.0699	15
246.0794	23
247.087	10
310.0381	11
