Mass spectrum: Sertaconazole; LC-ESI-QTOF; MS2; 90 V
Name: Sertaconazole
Class: Fungicide; Pharmaceutical; Antimicrobial
Formula: C20H15Cl3N2OS
Exact mass: 435.9971
SMILES: C1=CC2=C(C(=C1)Cl)SC=C2COC(CN3C=CN=C3)C4=C(C=C(C=C4)Cl)Cl
InChI: InChI=1S/C20H15Cl3N2OS/c21-14-4-5-16(18(23)8-14)19(9-25-7-6-24-12-25)26-10-13-11-27-20-15(13)2-1-3-17(20)22/h1-8,11-12,19H,9-10H2
Instrument: TripleTOF 5600 SCIEX
Instrument type: LC-ESI-QTOF
Ms type: MS2
Ion mode: POSITIVE
Collision energy: 90
Fragmentation mode: CID
Ionization: ESI
Column name: Zorbax Eclipse Plus C18 2.1 mm x 150 mm, 3.5 um, Agilent
Retention time: 10.403 min
Precursor m/z: 437.0043
Precursor type: [M+H]+
m/z	relative intensity
68.983	54
69.0482	33
75.0256	18
81.0466	23
101.0393	71
102.047	269
123.0	11
136.008	11
137.0154	80
145.011	546
146.0186	362
149.0152	125
154.9713	34
158.9755	22
180.9882	999
234.0503	23
268.0121	15
