Mass spectrum: Trimethoprim; LC-ESI-QTOF; MS2; 120 V
Name: Trimethoprim
Class: Pharmaceutical
Formula: C14H18N4O3
Exact mass: 290.1379
SMILES: COC1=CC(=CC(=C1OC)OC)CC2=CN=C(N=C2N)N
InChI: InChI=1S/C14H18N4O3/c1-19-10-5-8(6-11(20-2)12(10)21-3)4-9-7-17-14(16)18-13(9)15/h5-7H,4H2,1-3H3,(H4,15,16,17,18)
Instrument: TripleTOF 5600 SCIEX
Instrument type: LC-ESI-QTOF
Ms type: MS2
Ion mode: POSITIVE
Collision energy: 120
Fragmentation mode: CID
Ionization: ESI
Column name: Zorbax Eclipse Plus C18 2.1 mm x 150 mm, 3.5 um, Agilent
Retention time: 5.112 min
Precursor m/z: 291.1452
Precursor type: [M+H]+
m/z	relative intensity
37.0076	37
38.0154	30
39.0228	143
41.0258	136
43.0292	370
50.0149	227
51.0229	567
52.0183	295
52.0312	37
53.0132	52
53.025	45
53.039	52
54.034	446
55.041	75
61.0064	52
62.0151	143
63.0226	529
64.0173	174
64.0301	60
65.0385	537
66.0327	68
66.0457	68
67.0284	52
67.0408	90
68.0231	68
68.0367	60
68.9974	75
69.044	45
74.0151	174
75.0101	37
75.0225	438
76.0177	227
76.0309	113
77.0385	999
78.0334	317
79.0293	113
79.042	52
79.0534	45
80.0373	30
80.0494	174
81.0446	340
83.046	45
87.0237	52
88.0176	60
88.0298	52
89.0383	522
90.0341	544
91.0305	105
91.0412	105
91.0534	204
92.0346	45
92.0489	234
93.0444	45
93.0571	75
94.0435	60
96.0551	83
100.0175	75
101.0378	121
102.0341	507
103.0295	181
104.0489	227
105.044	189
106.0512	37
107.0479	30
107.0588	68
108.0559	68
109.0514	90
113.0397	90
114.0337	196
115.054	174
116.0497	143
117.0441	507
118.041	363
119.06	151
120.0548	121
123.0713	30
126.033	60
127.0413	45
128.052	83
129.0448	83
130.0383	105
130.0673	37
131.0621	52
132.0551	60
134.0698	30
135.0669	121
140.0455	90
141.0488	60
142.0537	52
143.0581	30
144.0571	280
147.0621	105
156.0552	60
157.0562	30
160.0686	52
161.0811	90
