Mass spectrum: Topramezone; LC-ESI-QTOF; MS2; 60 V
Name: Topramezone
Class: Herbicide
Formula: C16H17N3O5S
Exact mass: 363.0889
SMILES: CC1=C(C=CC(=C1C2=NOCC2)S(=O)(=O)C)C(=O)C3=CNN(C3=O)C
InChI: InChI=1S/C16H17N3O5S/c1-9-10(15(20)11-8-17-19(2)16(11)21)4-5-13(25(3,22)23)14(9)12-6-7-24-18-12/h4-5,8,17H,6-7H2,1-3H3
Instrument: TripleTOF 6600 SCIEX
Instrument type: LC-ESI-QTOF
Ms type: MS2
Ion mode: NEGATIVE
Collision energy: 60
Fragmentation mode: CID
Ionization: ESI
Column name: Zorbax Eclipse Plus C18 2.1 mm x 150 mm, 3.5 um, Agilent
Retention time: 6.915 min
Precursor m/z: 362.0816
Precursor type: [M-H]-
m/z	relative intensity
41.9974	90
63.9607	326
65.9966	71
78.9839	548
82.0155	161
97.0386	488
102.0347	18
103.0444	15
114.0351	56
115.0424	999
116.0501	247
116.0638	52
124.0238	18
128.0515	26
129.0592	157
130.0653	443
131.0371	443
132.0565	26
137.0105	15
140.0343	30
140.0488	48
141.0414	22
144.0407	15
145.0492	26
149.0068	18
151.0178	15
155.0343	15
155.0506	15
156.0402	26
158.0595	71
163.0226	71
165.0516	22
166.0324	22
167.0261	15
167.0515	18
168.0428	105
179.0019	112
179.0163	311
180.0237	48
181.0364	56
181.0496	18
182.0226	22
182.0512	22
183.0207	22
183.0354	37
183.0601	22
184.0301	15
184.0464	26
194.0285	225
195.0532	15
197.0329	45
198.0744	18
209.0375	22
210.0239	97
210.0644	60
211.0458	33
212.0296	18
212.0601	22
223.0388	56
224.0547	18
225.0676	48
226.06	48
226.0816	18
228.1007	15
236.0518	15
237.0507	22
238.0607	259
239.0315	22
239.0685	446
240.0626	22
240.0831	33
253.1003	22
254.0594	135
255.0663	105
318.0678	18
334.044	75
