Mass spectrum: Sotalol; LC-ESI-QTOF; MS2; 90 V
Name: Sotalol
Class: Pharmaceutical
Formula: C12H20N2O3S
Exact mass: 272.1195
SMILES: CC(C)NCC(C1=CC=C(C=C1)NS(=O)(=O)C)O
InChI: InChI=1S/C12H20N2O3S/c1-9(2)13-8-12(15)10-4-6-11(7-5-10)14-18(3,16)17/h4-7,9,12-15H,8H2,1-3H3
Instrument: TripleTOF 5600 SCIEX
Instrument type: LC-ESI-QTOF
Ms type: MS2
Ion mode: POSITIVE
Collision energy: 90
Fragmentation mode: CID
Ionization: ESI
Column name: Zorbax Eclipse Plus C18 2.1 mm x 150 mm, 3.5 um, Agilent
Retention time: 4.583 min
Precursor m/z: 273.1267
Precursor type: [M+H]+
m/z	relative intensity
53.0479	40
65.0449	115
66.0479	26
66.0547	22
67.0472	66
77.0437	735
78.0383	80
79.059	517
80.0531	325
81.0615	44
89.0419	307
90.0492	93
91.0557	165
92.0526	71
93.059	49
104.0511	66
106.0667	999
107.0746	40
116.0517	173
117.0592	267
118.058	89
119.059	22
131.0605	89
132.0698	173
133.0765	107
