Mass spectrum: Spirodiclofen-enol; LC-ESI-QTOF; MS2; 60 V
Name: Spirodiclofen-enol
Formula: C15H14Cl2O3
Exact mass: 312.032
SMILES: C1CCC2(CC1)C(=C(C(=O)O2)C3=C(C=C(C=C3)Cl)Cl)O
InChI: InChI=1S/C15H14Cl2O3/c16-9-4-5-10(11(17)8-9)12-13(18)15(20-14(12)19)6-2-1-3-7-15/h4-5,8,18H,1-3,6-7H2
Instrument: TripleTOF 6600 SCIEX
Instrument type: LC-ESI-QTOF
Ms type: MS2
Ion mode: POSITIVE
Collision energy: 60
Fragmentation mode: CID
Ionization: ESI
Column name: Zorbax Eclipse Plus C18 2.1 mm x 150 mm, 3.5 um, Agilent
Retention time: 12.261 min
Precursor m/z: 313.0393
Precursor type: [M+H]+
m/z	relative intensity
67.0544	18
77.0384	18
79.0536	11
81.0692	10
96.9832	11
106.9442	10
110.9989	59
115.0525	16
122.9985	35
124.0056	10
136.0064	14
139.0018	38
141.0686	11
146.9753	10
149.014	14
152.0604	14
156.9597	999
158.9753	199
162.0219	30
165.069	18
172.9573	24
174.9693	12
178.0767	109
179.0849	85
182.9751	27
184.9544	98
186.0212	11
199.0292	20
204.0312	11
