Mass spectrum: Sulcotrione; LC-ESI-QTOF; MS2; 150 V
Name: Sulcotrione
Class: Herbicide
Formula: C14H13ClO5S
Exact mass: 328.0172
SMILES: CS(=O)(=O)C1=CC(=C(C=C1)C(=O)C2C(=O)CCCC2=O)Cl
InChI: InChI=1S/C14H13ClO5S/c1-21(19,20)8-5-6-9(10(15)7-8)14(18)13-11(16)3-2-4-12(13)17/h5-7,13H,2-4H2,1H3
Instrument: TripleTOF 6600 SCIEX
Instrument type: LC-ESI-QTOF
Ms type: MS2
Ion mode: POSITIVE
Collision energy: 150
Fragmentation mode: CID
Ionization: ESI
Column name: Zorbax Eclipse Plus C18 2.1 mm x 150 mm, 3.5 um, Agilent
Retention time: 9.651 min
Precursor m/z: 329.0245
Precursor type: [M+H]+
m/z	relative intensity
37.0075	43
38.0145	43
39.0229	86
41.0026	557
49.0076	50
50.0155	79
51.0231	57
61.0061	65
62.0148	94
63.0236	115
68.9973	999
72.9828	86
73.007	101
74.0149	238
75.0232	130
77.0022	115
83.9759	86
85.0073	43
86.0135	137
87.022	43
89.0384	28
97.0052	28
98.0147	231
99.0248	36
107.9757	79
139.0573	28
