Mass spectrum: Anagrelide; LC-ESI-QTOF; MS2; 150 V
Name: Anagrelide
Class: Pharmaceutical
Formula: C10H7Cl2N3O
Exact mass: 254.9966
SMILES: c1cc(c(c2c1NC3=NC(=O)CN3C2)Cl)Cl
InChI: InChI=1S/C10H7Cl2N3O/c11-6-1-2-7-5(9(6)12)3-15-4-8(16)14-10(15)13-7/h1-2H,3-4H2,(H,13,14,16)
Instrument: TripleTOF 5600 SCIEX
Instrument type: LC-ESI-QTOF
Ms type: MS2
Ion mode: POSITIVE
Collision energy: 150
Fragmentation mode: CID
Ionization: ESI
Column name: Zorbax Eclipse Plus C18 2.1 mm x 150 mm, 3.5 um, Agilent
Retention time: 7.666 min
Precursor m/z: 256.0039
Precursor type: [M+H]+
m/z	relative intensity
51.028	57
61.9852	49
72.0034	49
72.9913	57
73.0102	349
73.0302	42
73.0581	28
74.0184	999
74.0512	42
75.0182	463
76.0222	135
83.9791	57
99.0107	442
99.0336	49
100.017	28
