Mass spectrum: Haloperidol; LC-ESI-QTOF; MS2; 150 V
Name: Haloperidol
Class: Pharmaceutical
Formula: C21H23ClFNO2
Exact mass: 375.1401
InChI: InChI=1S/C21H23ClFNO2/c22-18-7-5-17(6-8-18)21(26)11-14-24(15-12-21)13-1-2-20(25)16-3-9-19(23)10-4-16/h3-10,26H,1-2,11-15H2
Instrument: TripleTOF 5600 SCIEX
Instrument type: LC-ESI-QTOF
Ms type: CID
Ion mode: POSITIVE
Collision energy: 150
Ionization: ESI
Column name: Zorbax Eclipse Plus C18 2.1 mm x 150 mm, 3.5 um, Agilent
Retention time: 8.031 min
Precursor m/z: 376.1474
Precursor type: [M+H]+
m/z	relative intensity
69.0178	52
73.0117	70
74.0203	825
75.0283	999
75.0681	10
95.0314	543
123.0349	43
