Mass spectrum: 2,2,4-Trimethyl-1,2-dihydroquinoline; LC-ESI-QTOF; MS2; 40 V
Name: 2,2,4-Trimethyl-1,2-dihydroquinoline
Class: Industrial_process
Formula: C12H15N
Exact mass: 173.1204
SMILES: CC1=CC(NC2=CC=CC=C12)(C)C
InChI: InChI=1S/C12H15N/c1-9-8-12(2,3)13-11-7-5-4-6-10(9)11/h4-8,13H,1-3H3
Instrument: TripleTOF 6600 SCIEX
Instrument type: LC-ESI-QTOF
Ms type: MS2
Ion mode: POSITIVE
Collision energy: 40
Fragmentation mode: CID
Ionization: ESI
Column name: Zorbax Eclipse Plus C18 2.1 mm x 150 mm, 3.5 um, Agilent
Retention time: 12.497 min
Precursor m/z: 174.1277
Precursor type: [M+H]+
m/z	relative intensity
39.0225	19
41.0381	33
43.0534	10
65.0376	44
77.0376	146
79.0531	47
90.045	18
91.0535	639
93.0557	11
103.0529	29
105.0685	34
106.0641	212
115.053	75
117.0568	556
118.0641	193
120.0797	16
127.0531	64
128.0595	15
130.0643	601
131.0721	69
132.0793	126
141.0686	33
142.0756	26
143.0719	111
144.0799	999
145.0875	51
155.0587	12
157.0875	12
158.0953	405
159.103	28
