Mass spectrum: Amido Black 10B; LC-ESI-QTOF; MS2; 40 V
Name: Amido Black 10B
Formula: C22H16N6O9S2
Exact mass: 572.042
SMILES: C1=CC=C(C=C1)N=NC2=C(C3=C(C(=C(C=C3C=C2S(=O)(=O)O)S(=O)(=O)O)N=NC4=CC=C(C=C4)[N+](=O)[O-])N)O
InChI: InChI=1S/C22H16N6O9S2/c23-19-18-12(11-17(39(35,36)37)21(22(18)29)27-24-13-4-2-1-3-5-13)10-16(38(32,33)34)20(19)26-25-14-6-8-15(9-7-14)28(30)31/h1-11,29H,23H2,(H,32,33,34)(H,35,36,37)
Instrument: TripleTOF 6600 SCIEX
Instrument type: LC-ESI-QTOF
Ms type: MS2
Ion mode: POSITIVE
Collision energy: 40
Fragmentation mode: CID
Ionization: ESI
Column name: Zorbax Eclipse Plus C18 2.1 mm x 150 mm, 3.5 um, Agilent
Retention time: 9.552 min
Precursor m/z: 573.0493
Precursor type: [M+H]+
m/z	relative intensity
65.0382	19
92.0492	209
93.0568	262
108.0435	14
122.0247	14
150.0282	43
201.0294	20
260.0787	26
261.0909	14
271.0611	10
277.0005	12
301.0575	37
306.0778	13
316.0441	16
317.0529	93
335.1097	10
341.0469	46
355.0461	13
362.1041	24
363.1105	28
364.1171	21
382.0219	90
391.0942	13
392.1036	15
398.0191	165
399.0227	77
400.0309	31
402.9777	61
409.1048	16
411.1191	11
426.0665	22
427.0967	66
429.9935	18
444.0785	64
445.0834	45
448.0014	62
450.9984	20
456.0627	22
473.0629	42
474.0664	21
479.9854	12
490.0675	13
491.0735	51
537.0296	17
555.0379	368
573.049	999
