Mass spectrum: Omeprazole sulfide 5-carboxylic acid; LC-ESI-QTOF; MS2; 140 V
Name: Omeprazole sulfide 5-carboxylic acid
Class: Metabolite; Pharmaceutical
Formula: C17H17N3O4S
Exact mass: 359.094
SMILES: CC1=C(C(=CN=C1CSC2=NC3=C(N2)C=C(C=C3)OC)C(=O)O)OC
InChI: InChI=1S/C17H17N3O4S/c1-9-14(18-7-11(16(21)22)15(9)24-3)8-25-17-19-12-5-4-10(23-2)6-13(12)20-17/h4-7H,8H2,1-3H3,(H,19,20)(H,21,22)
Instrument: TripleTOF 5600 SCIEX
Instrument type: LC-ESI-QTOF
Ms type: MS2
Ion mode: POSITIVE
Collision energy: 140
Fragmentation mode: CID
Ionization: ESI
Column name: Zorbax Eclipse Plus C18 2.1 mm x 150 mm, 3.5 um, Agilent
Retention time: 5.75 min
Precursor m/z: 360.1013
Precursor type: [M+H]+
m/z	relative intensity
42.0456	88
43.03	44
50.0245	161
51.032	426
52.0247	24
52.0383	381
53.0116	93
53.0472	200
54.0452	29
55.024	19
62.0213	29
63.0295	166
64.0357	53
65.0447	362
66.0398	220
67.0497	83
68.0187	24
68.9863	93
69.9958	34
74.0227	24
75.0298	29
76.0238	24
77.0435	656
78.0384	489
79.0248	48
79.0473	925
80.0171	83
80.0545	293
81.9917	19
82.9982	73
84.003	29
89.0421	48
90.0395	48
91.0462	83
92.0527	190
93.0499	205
94.065	34
94.9996	63
96.0064	58
97.0144	93
104.0527	58
105.0462	220
106.0657	999
107.0758	53
108.0814	19
110.0082	83
122.0061	39
123.0137	24
134.007	29
134.0536	39
137.0172	171
140.0528	34
167.0537	24
