Mass spectrum: Propiconazole; LC-ESI-QTOF; MS2; 100 V
Name: Propiconazole
Class: Fungicide; Biocide
Formula: C15H17Cl2N3O2
Exact mass: 341.0698
SMILES: CCCC1COC(Cn2cncn2)(O1)c3ccc(Cl)cc3Cl
InChI: InChI=1S/C15H17Cl2N3O2/c1-2-3-12-7-21-15(22-12,8-20-10-18-9-19-20)13-5-4-11(16)6-14(13)17/h4-6,9-10,12H,2-3,7-8H2,1H3
Instrument: TripleTOF 5600 SCIEX
Instrument type: LC-ESI-QTOF
Ms type: MS2
Ion mode: POSITIVE
Collision energy: 100
Fragmentation mode: CID
Ionization: ESI
Column name: Zorbax Eclipse Plus C18 2.1 mm x 150 mm, 3.5 um, Agilent
Retention time: 13.45 min
Precursor m/z: 342.0771
Precursor type: [M+H]+
m/z	relative intensity
69.0734	26
70.0425	41
72.9877	286
74.0184	139
75.0261	23
82.9467	23
87.024	14
88.0325	55
89.0414	999
96.9845	129
99.0004	292
106.9453	10
108.9841	329
123.0001	729
124.0071	230
132.9605	158
144.9605	153
158.9764	469
172.9653	50
