Mass spectrum: Febantel; LC-ESI-QTOF; MS2; 150 V
Name: Febantel
Class: Pharmaceutical
Formula: C20H22N4O6S
Exact mass: 446.126
SMILES: COCC(=O)Nc1cc(Sc2ccccc2)ccc1NC(NC(=O)OC)=NC(=O)OC
InChI: InChI=1S/C20H22N4O6S/c1-28-12-17(25)21-16-11-14(31-13-7-5-4-6-8-13)9-10-15(16)22-18(23-19(26)29-2)24-20(27)30-3/h4-11H,12H2,1-3H3,(H,21,25)(H2,22,23,24,26,27)
Instrument: TripleTOF 5600 SCIEX
Instrument type: LC-ESI-QTOF
Ms type: MS2
Ion mode: POSITIVE
Collision energy: 150
Fragmentation mode: CID
Ionization: ESI
Column name: Zorbax Eclipse Plus C18 2.1 mm x 150 mm, 3.5 um, Agilent
Retention time: 13.085 min
Precursor m/z: 447.1333
Precursor type: [M+H]+
m/z	relative intensity
45.0427	455
45.067	21
51.0309	159
52.025	49
52.0384	43
56.0196	21
61.0216	32
65.0306	109
65.0431	345
66.0516	38
68.984	318
69.0089	32
69.9949	60
74.0179	43
75.0134	54
75.0267	126
76.0224	466
76.0697	27
77.0361	999
77.0755	21
78.0374	307
79.0451	87
80.0535	60
81.9917	43
83.0278	65
88.021	93
88.0366	32
89.0276	192
89.0407	109
90.0363	175
91.045	499
91.0649	27
92.0386	38
92.0522	76
92.98	71
93.0588	49
94.07	21
94.9965	120
95.9923	21
96.0049	21
101.0389	115
102.034	93
102.0465	93
103.0321	175
104.0375	356
104.0566	49
105.0445	225
106.0529	49
107.0634	32
108.0049	38
109.0102	65
113.0395	137
114.0488	71
115.0306	43
115.0538	175
116.0373	323
117.0443	87
117.0608	21
118.0532	225
119.0605	54
119.9896	54
120.9993	21
122.006	126
125.0399	98
126.0478	192
127.0548	428
128.0607	65
129.0446	71
130.0413	109
131.0466	54
131.0589	115
134.0172	65
137.038	104
138.0465	159
139.0544	730
139.0998	27
140.0501	362
143.048	38
145.0119	65
145.069	21
146.0206	32
146.0709	27
147.0002	49
149.0407	32
150.046	175
151.0529	131
152.0589	257
153.0572	60
154.064	60
158.019	104
159.0155	54
159.0414	65
163.0396	38
164.0495	329
165.0445	32
165.0558	60
166.0642	54
169.0099	115
170.0178	137
171.027	537
172.0288	27
172.0483	49
176.0498	43
177.0572	153
178.0574	32
179.058	32
182.0193	71
183.0177	98
183.0328	27
184.022	21
184.0364	43
186.0324	38
191.0646	32
194.003	27
195.021	43
196.0217	521
197.0256	54
207.0132	32
208.0209	54
209.0283	54
210.026	43
211.0316	32
224.0369	27
