Mass spectrum: Chlorothiazide; LC-ESI-QTOF; MS2; 100 V
Name: Chlorothiazide
Class: Pharmaceutical
Formula: C7H6ClN3O4S2
Exact mass: 294.9488
SMILES: N[S](=O)(=O)c1cc2c(NC=N[S]2(=O)=O)cc1Cl
InChI: InChI=1S/C7H6ClN3O4S2/c8-4-1-5-7(2-6(4)16(9,12)13)17(14,15)11-3-10-5/h1-3H,(H,10,11)(H2,9,12,13)
Instrument: TripleTOF 5600 SCIEX
Instrument type: LC-ESI-QTOF
Ms type: CID
Ion mode: NEGATIVE
Collision energy: 100
Ionization: ESI
Column name: Zorbax Eclipse Plus C18 2.1 mm x 150 mm, 3.5 um, Agilent
Retention time: 5.43 min
Precursor m/z: 293.9415
Precursor type: [M-H]-
m/z	relative intensity
34.972	169
50.004	219
60.0002	49
61.97	59
62.0026	59
64.0059	139
65.0135	489
77.9653	49
86.0007	199
87.0085	289
88.0167	499
89.0129	179
101.9626	59
113.0122	499
114.0188	259
115.0283	999
116.0289	69
178.9891	759
179.9888	89
