Mass spectrum: 3-Hydroxycarbamazepine; LC-ESI-QTOF; MS2; 80 V
Name: 3-Hydroxycarbamazepine
Class: Pharmaceutical; Transformation_product-Metabolite
Formula: C15H12N2O2
Exact mass: 252.0899
SMILES: NC(=O)N1c2ccccc2C=Cc3ccc(O)cc13
InChI: InChI=1S/C15H12N2O2/c16-15(19)17-13-4-2-1-3-10(13)5-6-11-7-8-12(18)9-14(11)17/h1-9,18H,(H2,16,19)
Instrument: TripleTOF 5600 SCIEX
Instrument type: LC-ESI-QTOF
Ms type: MS2
Ion mode: POSITIVE
Collision energy: 80
Fragmentation mode: CID
Ionization: ESI
Column name: Zorbax Eclipse Plus C18 2.1 mm x 150 mm, 3.5 um, Agilent
Retention time: 7.917 min
Precursor m/z: 253.0972
Precursor type: [M+H]+
m/z	relative intensity
65.0421	28
74.0178	12
75.0256	38
77.0412	169
78.049	13
87.0234	10
89.0403	229
90.0482	63
91.055	22
101.039	67
102.0462	32
103.0559	12
104.0491	15
105.0342	10
113.0384	74
114.0456	35
115.0544	302
116.0497	43
117.0565	52
125.04	22
126.0457	47
127.0535	225
128.051	167
129.0565	17
130.0655	12
137.0388	13
138.0464	28
139.0542	708
140.0502	451
141.0565	20
141.0694	9
150.0465	80
151.0541	330
152.0621	999
153.0684	171
154.0652	127
155.0694	11
162.0456	26
163.054	217
164.0573	164
165.0688	190
166.065	675
167.0726	352
176.0519	15
177.058	59
178.0649	386
179.0723	208
180.0807	647
181.0638	79
181.0875	37
182.0585	21
183.0677	12
188.0484	28
189.0568	43
190.0648	180
191.0727	123
192.0821	18
206.059	37
207.0681	65
208.076	51
209.0832	13
