Mass spectrum: Thioxanthen-9-one; LC-ESI-QTOF; MS2; 110 V
Name: Thioxanthen-9-one
Formula: C13H8OS
Exact mass: 212.0296
SMILES: C1=CC=C2C(=C1)C(=O)C3=CC=CC=C3S2
InChI: InChI=1S/C13H8OS/c14-13-9-5-1-3-7-11(9)15-12-8-4-2-6-10(12)13/h1-8H
Instrument: TripleTOF 6600 SCIEX
Instrument type: LC-ESI-QTOF
Ms type: MS2
Ion mode: POSITIVE
Collision energy: 110
Fragmentation mode: CID
Ionization: ESI
Column name: Zorbax Eclipse Plus C18 2.1 mm x 150 mm, 3.5 um, Agilent
Retention time: 13.479 min
Precursor m/z: 213.0369
Precursor type: [M+H]+
m/z	relative intensity
37.0072	64
38.0153	49
39.0231	160
44.9791	106
49.0073	68
50.0152	442
51.0229	320
57.9873	34
59.999	53
61.0075	278
62.015	476
63.0231	823
65.0378	95
67.9714	106
68.9796	999
73.0067	99
74.0152	739
75.0226	236
76.0309	167
77.0387	91
78.0446	19
80.9785	30
81.9877	99
84.0005	38
85.0072	236
86.0151	537
87.0228	518
88.031	190
89.0385	869
90.0453	34
91.971	41
92.9787	251
97.0063	57
98.015	503
99.0219	194
100.0319	26
102.047	83
108.0018	34
109.0071	49
110.0158	202
111.0226	87
112.0321	22
113.0382	545
114.0451	38
115.054	122
116.9793	53
122.0144	76
125.0388	49
126.0477	156
134.0163	38
137.0378	251
138.0459	202
139.0539	697
149.0386	22
150.0467	400
151.0541	129
152.0634	22
182.0191	19
