Mass spectrum: Cyclohexyldiethanolamine; LC-ESI-QTOF; MS2; 140 V
Name: Cyclohexyldiethanolamine
Formula: C10H21NO2
Exact mass: 187.1572
SMILES: C1CCC(CC1)N(CCO)CCO
InChI: InChI=1S/C10H21NO2/c12-8-6-11(7-9-13)10-4-2-1-3-5-10/h10,12-13H,1-9H2
Instrument: TripleTOF 6600 SCIEX
Instrument type: LC-ESI-QTOF
Ms type: MS2
Ion mode: POSITIVE
Collision energy: 140
Fragmentation mode: CID
Ionization: ESI
Column name: Zorbax Eclipse Plus C18 2.1 mm x 150 mm, 3.5 um, Agilent
Retention time: 4.323 min
Precursor m/z: 188.1645
Precursor type: [M+H]+
m/z	relative intensity
35.9992	89
37.0071	550
38.0031	64
38.0146	576
39.0227	999
42.0341	76
43.0178	64
