Mass spectrum: Lamotrigine; LC-ESI-QTOF; MS2; 100 V
Name: Lamotrigine
Class: Pharmaceutical
Formula: C9H7Cl2N5
Exact mass: 255.0079
SMILES: Nc1nnc(c(N)n1)c2cccc(Cl)c2Cl
InChI: InChI=1S/C9H7Cl2N5/c10-5-3-1-2-4(6(5)11)7-8(12)14-9(13)16-15-7/h1-3H,(H4,12,13,14,16)
Instrument: TripleTOF 5600 SCIEX
Instrument type: LC-ESI-QTOF
Ms type: MS2
Ion mode: POSITIVE
Collision energy: 100
Fragmentation mode: CID
Ionization: ESI
Column name: Zorbax Eclipse Plus C18 2.1 mm x 150 mm, 3.5 um, Agilent
Retention time: 6.024 min
Precursor m/z: 256.0151
Precursor type: [M+H]+
m/z	relative intensity
42.0292	26
43.0381	592
44.0445	29
58.0463	42
61.9833	19
63.043	13
68.0272	32
72.9874	199
73.0106	117
74.0191	999
74.056	16
75.0128	19
75.0258	163
77.0419	29
82.9477	26
83.9784	29
84.9863	36
86.0173	29
87.0242	78
88.0208	32
88.0306	29
89.0404	144
90.0364	32
96.9862	68
98.0162	29
99.0117	196
100.0194	291
102.0334	22
106.9451	45
108.9846	193
109.9919	16
111.0007	26
114.0351	32
121.9923	29
123.0049	101
123.9959	19
124.017	36
125.0036	29
132.9605	22
135.9985	19
156.9596	13
