Mass spectrum: Inabenfide; LC-ESI-QTOF; MS2; 110 V
Name: Inabenfide
Formula: C19H15ClN2O2
Exact mass: 338.0822
SMILES: C1=CC=C(C=C1)C(C2=C(C=CC(=C2)Cl)NC(=O)C3=CC=NC=C3)O
InChI: InChI=1S/C19H15ClN2O2/c20-15-6-7-17(22-19(24)14-8-10-21-11-9-14)16(12-15)18(23)13-4-2-1-3-5-13/h1-12,18,23H,(H,22,24)
Instrument: TripleTOF 6600 SCIEX
Instrument type: LC-ESI-QTOF
Ms type: MS2
Ion mode: POSITIVE
Collision energy: 110
Fragmentation mode: CID
Ionization: ESI
Column name: Zorbax Eclipse Plus C18 2.1 mm x 150 mm, 3.5 um, Agilent
Retention time: 10.231 min
Precursor m/z: 339.0895
Precursor type: [M+H]+
m/z	relative intensity
39.0221	22
49.0065	79
50.0141	448
51.0221	414
52.0182	96
52.03	964
53.0377	192
63.0226	45
65.0374	28
74.0138	51
75.022	96
76.0172	22
76.0297	28
77.0379	153
78.0324	130
79.0405	999
80.0483	476
89.0375	73
91.0527	28
98.0135	45
99.0215	79
100.0283	28
101.0373	51
102.0463	39
105.0431	56
113.0378	62
115.0533	164
123.0232	34
125.0379	119
126.0456	210
127.04	51
127.0529	227
128.0473	79
129.0543	34
137.0372	28
139.0533	368
140.0487	85
140.0605	56
141.0678	51
149.0374	73
150.0452	454
151.0531	692
152.0617	516
153.0565	192
154.0373	22
154.0637	113
155.0603	39
162.0091	68
162.0453	79
163.0528	334
164.061	198
165.069	391
166.0642	136
167.072	244
168.0787	39
175.0413	39
175.0516	34
176.0483	45
176.0591	79
177.0563	368
178.064	295
179.0597	175
179.0722	90
180.066	28
181.074	28
187.0535	124
188.0508	56
188.0614	34
189.0691	90
190.0677	96
199.0515	39
200.0621	175
201.0555	39
201.0678	136
202.0756	136
203.0721	79
204.0793	28
206.0585	79
211.0537	79
212.0566	62
213.0684	278
214.0648	164
215.0372	28
215.084	102
216.0796	56
225.0626	28
226.0655	90
227.0729	164
228.0791	136
238.0643	113
239.0708	56
240.0793	192
241.0885	119
242.0939	28
243.1024	22
252.069	22
253.0749	102
254.0828	51
255.0907	102
266.0827	22
