Mass spectrum: 4-Aminoantipyrine; LC-ESI-QTOF; MS2; 70 V
Name: 4-Aminoantipyrine
Class: Transformation_product; Pharmaceutical; Transformation_product-Metabolite
Formula: C11H13N3O
Exact mass: 203.1059
SMILES: CC1=C(C(=O)N(N1C)C2=CC=CC=C2)N
InChI: InChI=1S/C11H13N3O/c1-8-10(12)11(15)14(13(8)2)9-6-4-3-5-7-9/h3-7H,12H2,1-2H3
Instrument: TripleTOF 5600 SCIEX
Instrument type: LC-ESI-QTOF
Ms type: MS2
Ion mode: POSITIVE
Collision energy: 70
Fragmentation mode: CID
Ionization: ESI
Column name: Zorbax Eclipse Plus C18 2.1 mm x 150 mm, 3.5 um, Agilent
Retention time: 4.783 min
Precursor m/z: 204.1131
Precursor type: [M+H]+
m/z	relative intensity
39.0228	12
41.0259	21
42.0343	54
50.0152	27
51.0232	116
56.0499	999
58.0651	14
65.0392	45
66.0477	17
68.0501	9
75.0233	17
77.039	441
83.0602	50
89.0384	19
90.0461	16
92.0499	14
93.0583	35
94.0654	46
104.0499	11
117.0567	16
130.0659	14
