Mass spectrum: Erlotinib; LC-ESI-QTOF; MS2; 70 V
Name: Erlotinib
Class: Pharmaceutical
Formula: C22H23N3O4
Exact mass: 393.1689
SMILES: COCCOC1=C(C=C2C(=C1)C(=NC=N2)NC3=CC=CC(=C3)C#C)OCCOC
InChI: InChI=1S/C22H23N3O4/c1-4-16-6-5-7-17(12-16)25-22-18-13-20(28-10-8-26-2)21(29-11-9-27-3)14-19(18)23-15-24-22/h1,5-7,12-15H,8-11H2,2-3H3,(H,23,24,25)
Instrument: TripleTOF 5600 SCIEX
Instrument type: LC-ESI-QTOF
Ms type: MS2
Ion mode: NEGATIVE
Collision energy: 70
Fragmentation mode: CID
Ionization: ESI
Column name: Zorbax Eclipse Plus C18 2.1 mm x 150 mm, 3.5 um, Agilent
Retention time: 7.429 min
Precursor m/z: 392.1616
Precursor type: [M-H]-
m/z	relative intensity
118.0304	53
134.0252	185
141.0452	119
164.0524	53
165.0454	65
167.0613	53
190.0539	197
191.0619	484
192.0587	137
201.048	143
204.0544	53
216.0568	173
217.0662	83
218.0714	723
219.056	173
220.0513	161
227.0485	59
228.0574	388
229.0618	233
230.075	101
244.0517	466
245.0596	466
246.0667	580
257.0569	185
258.0653	466
260.0836	71
273.0555	161
274.0618	999
276.0768	227
