Mass spectrum: Octhilinone; LC-ESI-QTOF; MS2; 90 V
Name: Octhilinone
Class: Fungicide; Antimicrobial; Biocide
Formula: C11H19NOS
Exact mass: 213.1187
SMILES: CCCCCCCCN1C(=O)C=CS1
InChI: InChI=1S/C11H19NOS/c1-2-3-4-5-6-7-9-12-11(13)8-10-14-12/h8,10H,2-7,9H2,1H3
Instrument: TripleTOF 6600 SCIEX
Instrument type: LC-ESI-QTOF
Ms type: MS2
Ion mode: POSITIVE
Collision energy: 90
Fragmentation mode: CID
Ionization: ESI
Column name: Zorbax Eclipse Plus C18 2.1 mm x 150 mm, 3.5 um, Agilent
Retention time: 11.855 min
Precursor m/z: 214.126
Precursor type: [M+H]+
m/z	relative intensity
35.9996	59
37.0074	171
38.0026	85
38.0155	145
39.0234	758
40.0063	17
40.0188	11
41.039	367
43.0544	41
44.0133	166
44.9795	74
45.9749	17
46.9825	14
47.991	44
52.0059	14
53.002	32
53.0141	29
55.0184	14
55.9717	14
56.9797	999
57.9875	166
58.9954	133
82.9823	20
83.9901	166
84.9743	71
102.0004	53
