Mass spectrum: Ethyl-2-cyano-3.3-diphenylacrylate; LC-ESI-QTOF; MS2; 120 V
Name: Ethyl-2-cyano-3.3-diphenylacrylate
Class: Industrial_process; Personal_care_product
Formula: C18H15NO2
Exact mass: 277.1103
SMILES: CCOC(=O)C(=C(C1=CC=CC=C1)C2=CC=CC=C2)C#N
InChI: InChI=1S/C18H15NO2/c1-2-21-18(20)16(13-19)17(14-9-5-3-6-10-14)15-11-7-4-8-12-15/h3-12H,2H2,1H3
Instrument: TripleTOF 5600 SCIEX
Instrument type: LC-ESI-QTOF
Ms type: MS2
Ion mode: POSITIVE
Collision energy: 120
Fragmentation mode: CID
Ionization: ESI
Column name: Zorbax Eclipse Plus C18 2.1 mm x 150 mm, 3.5 um, Agilent
Retention time: 13.596 min
Precursor m/z: 278.1176
Precursor type: [M+H]+
m/z	relative intensity
74.0194	344
75.0272	266
76.0366	172
77.0432	620
86.016	34
87.0261	77
89.0414	51
98.0174	266
99.0261	189
100.0335	68
102.0474	155
110.0157	51
122.0151	129
123.0224	129
124.0312	77
125.0411	86
126.0462	223
127.0431	60
137.0405	43
148.032	43
149.0388	310
150.0468	999
151.0536	292
152.0598	94
162.046	51
163.0539	51
173.042	34
174.0458	439
175.0478	301
176.0495	43
176.0615	189
177.0539	43
187.0505	34
199.0453	51
201.0517	68
