Mass spectrum: Oseltamivir; LC-ESI-QTOF; MS2; 100 V
Name: Oseltamivir
Class: Pharmaceutical
Formula: C16H28N2O4
Exact mass: 312.2049
SMILES: CCC(CC)O[C@@H]1C=C(C[C@@H]([C@H]1/N=C(\C)/O)N)C(=O)OCC
InChI: InChI=1S/C16H28N2O4/c1-5-12(6-2)22-14-9-11(16(20)21-7-3)8-13(17)15(14)18-10(4)19/h9,12-15H,5-8,17H2,1-4H3,(H,18,19)/t13-,14+,15+/m0/s1
Instrument: TripleTOF 5600 SCIEX
Instrument type: LC-ESI-QTOF
Ms type: MS2
Ion mode: POSITIVE
Collision energy: 100
Fragmentation mode: CID
Ionization: ESI
Column name: Zorbax Eclipse Plus C18 2.1 mm x 150 mm, 3.5 um, Agilent
Retention time: 6.973 min
Precursor m/z: 313.2122
Precursor type: [M+H]+
m/z	relative intensity
43.0248	46
55.0588	21
65.0437	999
66.0372	10
66.0498	113
67.0461	118
67.0563	124
68.0528	21
77.0418	524
78.0367	25
80.0525	355
81.0608	20
82.0676	133
83.0616	17
92.0516	493
92.0758	13
93.0331	12
93.0448	9
93.0585	206
94.0663	136
102.0338	17
108.0435	17
108.0691	15
109.0754	19
110.0601	9
119.0603	23
120.0446	113
