Mass spectrum: Tramadol-N-oxide; LC-ESI-QTOF; MS2; 70 V
Name: Tramadol-N-oxide
Class: Pharmaceutical
Formula: C16H25NO3
Exact mass: 279.1834
SMILES: [O-][N+](C)(C)C[C@H]2CCCC[C@]2(O)c1cc(OC)ccc1
InChI: InChI=1S/C16H25NO3/c1-17(2,19)12-14-7-4-5-10-16(14,18)13-8-6-9-15(11-13)20-3/h6,8-9,11,14,18H,4-5,7,10,12H2,1-3H3/t14-,16+/m1/s1
Instrument: TripleTOF 5600 SCIEX
Instrument type: LC-ESI-QTOF
Ms type: MS2
Ion mode: POSITIVE
Collision energy: 70
Fragmentation mode: CID
Ionization: ESI
Column name: Zorbax Eclipse Plus C18 2.1 mm x 150 mm, 3.5 um, Agilent
Retention time: 6.334 min
Precursor m/z: 280.1907
Precursor type: [M+H]+
m/z	relative intensity
42.0447	34
43.0264	12
44.0582	15
55.0597	36
56.0561	28
58.0715	320
64.0359	101
65.043	125
66.0521	10
67.0579	21
70.069	13
77.0419	999
78.0495	135
79.0576	77
80.0531	11
82.0692	14
84.0834	32
89.0401	17
91.0564	455
92.0276	502
93.0717	17
94.0443	59
94.0662	37
102.0468	30
103.0549	65
104.0619	11
105.0438	11
105.0709	21
106.0408	37
107.0495	223
109.0656	25
115.0543	331
116.0618	109
117.0696	59
121.0651	253
127.0542	106
128.062	162
129.0698	79
130.0407	10
130.0777	13
131.0493	51
132.0548	10
135.0454	76
135.0791	11
141.0696	32
144.0572	122
145.0641	46
146.0735	11
157.0629	17
158.0735	29
159.0809	50
171.0808	18
