Mass spectrum: Trioctylphosphine oxide; LC-ESI-QTOF; MS2; 130 V
Name: Trioctylphosphine oxide
Class: Industrial_process
Formula: C24H51OP
Exact mass: 386.3678
SMILES: CCCCCCCCP(=O)(CCCCCCCC)CCCCCCCC
InChI: InChI=1S/C24H51OP/c1-4-7-10-13-16-19-22-26(25,23-20-17-14-11-8-5-2)24-21-18-15-12-9-6-3/h4-24H2,1-3H3
Instrument: TripleTOF 5600 SCIEX
Instrument type: LC-ESI-QTOF
Ms type: MS2
Ion mode: POSITIVE
Collision energy: 130
Fragmentation mode: CID
Ionization: ESI
Column name: Zorbax Eclipse Plus C18 2.1 mm x 150 mm, 3.5 um, Agilent
Retention time: 22.9 min
Precursor m/z: 387.375
Precursor type: [M+H]+
m/z	relative intensity
37.0216	14
43.9934	12
45.0016	114
50.0036	14
56.997	36
59.0118	17
63.008	999
64.0152	119
69.0767	11
71.0113	15
72.0182	22
73.0262	30
75.0046	80
77.0213	398
78.029	155
85.0252	12
89.0201	15
90.0264	14
91.0365	42
92.0429	36
103.0352	22
105.0515	27
117.0493	30
