Mass spectrum: Methiocarb; LC-ESI-QTOF; MS2; 40 V
Name: Methiocarb
Class: Acaricide; Insecticide
Formula: C11H15NO2S
Exact mass: 225.0823
SMILES: Cc1cc(cc(c1SC)C)OC(=O)NC
InChI: InChI=1S/C11H15NO2S/c1-7-5-9(14-11(13)12-3)6-8(2)10(7)15-4/h5-6H,1-4H3,(H,12,13)
Instrument: TripleTOF 6600 SCIEX
Instrument type: LC-ESI-QTOF
Ms type: MS2
Ion mode: POSITIVE
Collision energy: 40
Fragmentation mode: CID
Ionization: ESI
Column name: Zorbax Eclipse Plus C18 2.1 mm x 150 mm, 3.5 um, Agilent
Retention time: 11.34614 min
Precursor m/z: 226.0896
Precursor type: [M+H]+
m/z	relative intensity
44.9765	14
51.0201	11
65.0359	22
67.0515	22
77.0359	768
78.044	25
79.052	64
91.0515	607
93.0672	444
94.0753	20
103.0513	37
104.0588	21
105.0417	24
107.0465	720
109.0616	16
111.023	10
121.0622	999
122.0699	813
123.0776	27
153.0344	14
154.0417	61
