Mass spectrum: Clarithromycin; LC-ESI-QTOF; MS2; 90 V
Name: Clarithromycin
Class: Pharmaceutical; Transformation_product-Metabolite
Formula: C38H69NO13
Exact mass: 747.4769
SMILES: CC[C@H]1OC(=O)[C@H](C)[C@@H](O[C@H]2C[C@@](C)(OC)[C@@H](O)[C@H](C)O2)[C@H](C)[C@@H](O[C@@H]3O[C@H](C)C[C@@H]([C@H]3O)N(C)C)[C@@](C)(C[C@@H](C)C(=O)[C@H](C)[C@@H](O)[C@]1(C)O)OC
InChI: InChI=1S/C38H69NO13/c1-15-26-38(10,45)31(42)21(4)28(40)19(2)17-37(9,47-14)33(52-35-29(41)25(39(11)12)16-20(3)48-35)22(5)30(23(6)34(44)50-26)51-27-18-36(8,46-13)32(43)24(7)49-27/h19-27,29-33,35,41-43,45H,15-18H2,1-14H3/t19-,20-,21+,22+,23-,24+,25+,26-,27+,29-,30+,31-,32+,33-,35+,36-,37-,38-/m1/s1
Instrument: TripleTOF 5600 SCIEX
Instrument type: LC-ESI-QTOF
Ms type: MS2
Ion mode: POSITIVE
Collision energy: 90
Fragmentation mode: CID
Ionization: ESI
Column name: Zorbax Eclipse Plus C18 2.1 mm x 150 mm, 3.5 um, Agilent
Retention time: 8.861 min
Precursor m/z: 748.4842
Precursor type: [M+H]+
m/z	relative intensity
43.0257	10
45.0383	13
55.0597	72
59.0518	29
70.0704	13
72.0836	279
81.0718	26
83.0512	999
83.0819	16
84.0827	61
87.0447	196
87.0669	10
88.0766	142
95.0499	16
98.0593	16
98.0963	443
99.1038	16
100.0753	32
113.0592	56
114.0901	26
115.0743	24
116.0694	384
116.1063	190
121.0994	16
123.0803	21
127.0741	18
158.1164	271
