Mass spectrum: Food Yellow 3 free acid; LC-ESI-QTOF; MS2; 40 V
Name: Food Yellow 3 free acid
Formula: C16H12N2O7S2
Exact mass: 408.0086
SMILES: C1=CC(=CC=C1N=NC2=C(C=CC3=C2C=CC(=C3)S(=O)(=O)O)O)S(=O)(=O)O
InChI: InChI=1S/C16H12N2O7S2/c19-15-8-1-10-9-13(27(23,24)25)6-7-14(10)16(15)18-17-11-2-4-12(5-3-11)26(20,21)22/h1-9,19H,(H,20,21,22)(H,23,24,25)
Instrument: TripleTOF 6600 SCIEX
Instrument type: LC-ESI-QTOF
Ms type: MS2
Ion mode: NEGATIVE
Collision energy: 40
Fragmentation mode: CID
Ionization: ESI
Column name: Zorbax Eclipse Plus C18 2.1 mm x 150 mm, 3.5 um, Agilent
Retention time: 5.59 min
Precursor m/z: 202.9969
Precursor type: [M-2H]2-
m/z	relative intensity
50.0029	0
63.0103	0
63.0242	0
63.9619	15
64.0187	0
65.9977	2
74.0032	0
79.7096	3
79.9572	830
80.9646	10
88.0188	2
89.0264	25
90.0343	18
91.0438	0
92.0263	1
93.0337	3
101.0385	0
106.7034	1
107.0371	332
108.0389	0
113.0387	4
113.6794	1
114.0345	295
115.0178	0
115.0415	24
116.0134	2
116.0499	0
116.6541	0
117.0212	73
118.028	0
126.0333	2
129.0344	1
130.0416	15
131.0356	0
141.5847	4
142.0295	999
143.0354	6
143.9874	15
144.0448	5
144.4955	0
145.0273	1
155.0358	0
155.4964	0
155.9879	107
156.9933	1
158.0361	48
159.0331	1
169.9896	0
170.4591	0
170.9988	217
172.0397	11
179.9875	6
180.4136	1
180.9835	482
181.9856	1
192.994	0
194.0026	3
205.3415	2
205.9913	659
206.9983	29
236.0019	0
