Mass spectrum: Demeclocycline; LC-ESI-QTOF; MS2; 60 V
Name: Demeclocycline
Class: Antimicrobial; Pharmaceutical
Formula: C21H21ClN2O8
Exact mass: 464.0986
SMILES: CN(C)C1C2CC3C(C4=C(C=CC(=C4C(=C3C(=O)C2(C(=C(C1=O)C(=O)N)O)O)O)O)Cl)O
InChI: InChI=1S/C21H21ClN2O8/c1-24(2)14-7-5-6-10(16(27)12-9(25)4-3-8(22)11(12)15(6)26)18(29)21(7,32)19(30)13(17(14)28)20(23)31/h3-4,6-7,14-15,25-27,30,32H,5H2,1-2H3,(H2,23,31)
Instrument: TripleTOF 5600 SCIEX
Instrument type: LC-ESI-QTOF
Ms type: MS2
Ion mode: POSITIVE
Collision energy: 60
Fragmentation mode: CID
Ionization: ESI
Column name: Zorbax Eclipse Plus C18 2.1 mm x 150 mm, 3.5 um, Agilent
Retention time: 5.787 min
Precursor m/z: 465.1059
Precursor type: [M+H]+
m/z	relative intensity
98.0633	423
126.0559	79
139.0267	47
152.062	39
154.05	183
166.0508	55
168.0534	39
180.0579	55
197.0613	39
198.0662	151
210.0699	79
215.0263	111
224.0499	55
225.0514	47
226.064	239
231.0194	247
233.0378	175
241.0079	31
243.0245	103
245.0346	103
247.0161	47
250.0644	95
252.0412	199
255.0127	39
255.0261	63
259.0161	351
261.0304	999
267.0127	39
271.0121	175
273.0336	167
276.0311	31
277.0293	47
278.0497	39
278.0662	39
283.0175	79
285.03	39
287.0129	303
289.0244	567
299.0059	47
301.0265	31
311.0108	95
313.0252	287
316.0795	47
317.0154	47
334.0489	47
339.0056	135
341.0247	103
