Mass spectrum: Amido Black 10B; LC-ESI-QTOF; MS2; 50 V
Name: Amido Black 10B
Formula: C22H16N6O9S2
Exact mass: 572.042
SMILES: C1=CC=C(C=C1)N=NC2=C(C3=C(C(=C(C=C3C=C2S(=O)(=O)O)S(=O)(=O)O)N=NC4=CC=C(C=C4)[N+](=O)[O-])N)O
InChI: InChI=1S/C22H16N6O9S2/c23-19-18-12(11-17(39(35,36)37)21(22(18)29)27-24-13-4-2-1-3-5-13)10-16(38(32,33)34)20(19)26-25-14-6-8-15(9-7-14)28(30)31/h1-11,29H,23H2,(H,32,33,34)(H,35,36,37)
Instrument: TripleTOF 6600 SCIEX
Instrument type: LC-ESI-QTOF
Ms type: MS2
Ion mode: NEGATIVE
Collision energy: 50
Fragmentation mode: CID
Ionization: ESI
Column name: Zorbax Eclipse Plus C18 2.1 mm x 150 mm, 3.5 um, Agilent
Retention time: 9.552 min
Precursor m/z: 285.0137
Precursor type: [M-2H]2-
m/z	relative intensity
45.993	24
50.0031	8
63.9614	12
64.0184	5
65.9979	21
74.0023	9
79.9568	999
80.9646	309
88.0181	11
89.0136	6
89.9978	6
92.05	20
100.0183	5
107.0359	6
108.0205	6
109.9967	12
112.0179	29
113.013	9
113.025	5
114.0216	13
114.0325	17
115.0288	15
116.0128	6
125.0127	14
126.0331	25
127.0294	29
128.0125	16
128.0362	8
129.0208	13
131.0357	13
132.0206	36
136.0267	7
137.034	28
138.0201	20
139.0291	353
140.0365	153
141.0122	23
141.0442	7
142.0285	52
143.0244	41
144.0082	14
144.0312	16
145.0047	8
146.0231	16
152.0233	9
153.0305	8
154.0161	46
155.0244	45
156.0315	162
157.0163	16
158.0228	13
159.0294	13
167.0235	196
167.9887	22
168.0297	117
169.0029	37
169.0248	22
171.021	49
172.026	21
179.01	18
180.0189	23
181.0264	38
182.0096	32
182.0325	12
183.0184	169
184.0254	21
194.9979	82
195.9834	9
196.0128	26
197.0214	9
203.0609	5
206.9972	11
217.0503	12
218.0587	22
219.0549	8
219.9926	6
221.9847	30
222.9918	34
230.053	30
231.0564	19
232.0588	6
233.0471	13
234.0536	13
234.9935	15
235.0553	5
235.9886	10
242.047	9
246.0511	25
246.9792	56
247.0511	8
248.0549	7
258.0419	16
259.0493	42
260.0543	19
260.984	9
274.0359	6
275.0455	6
276.0487	8
310.0148	13
