Mass spectrum: Fluazifop; LC-ESI-QTOF; MS2; 90 V
Name: Fluazifop
Class: Herbicide; Transformation_product
Formula: C15H12F3NO4
Exact mass: 327.0718
SMILES: CC(C(=O)O)Oc1ccc(cc1)Oc2ccc(cn2)C(F)(F)F
InChI: InChI=1S/C15H12F3NO4/c1-9(14(20)21)22-11-3-5-12(6-4-11)23-13-7-2-10(8-19-13)15(16,17)18/h2-9H,1H3,(H,20,21)
Instrument: TripleTOF 6600 SCIEX
Instrument type: LC-ESI-QTOF
Ms type: MS2
Ion mode: NEGATIVE
Collision energy: 90
Fragmentation mode: CID
Ionization: ESI
Column name: Zorbax Eclipse Plus C18 2.1 mm x 150 mm, 3.5 um, Agilent
Retention time: 11.668 min
Precursor m/z: 326.0646
Precursor type: [M-H]-
m/z	relative intensity
41.0028	47
41.9975	47
49.0076	39
50.0029	71
64.0176	31
66.9972	295
68.9938	95
73.0062	39
74.0017	351
76.0174	47
78.9973	39
86.0015	47
87.004	47
88.0183	55
94.9921	223
97.0068	79
98.0027	47
101.0416	39
106.0075	47
108.02	999
111.0098	71
111.0219	95
112.0182	79
114.9986	399
118.0287	63
122.0041	167
123.0213	31
124.0173	79
131.0234	71
132.0241	143
136.0171	39
137.027	63
138.0334	327
142.0098	255
150.0351	31
156.0236	79
158.0407	135
162.0166	175
166.03	55
186.0351	39
