Mass spectrum: Mitomycin A; LC-ESI-QTOF; MS2; 110 V
Name: Mitomycin A
Class: Pharmaceutical
Formula: C16H19N3O6
Exact mass: 349.1274
SMILES: COC1=C(C)C(=O)C2=C([C@H](COC(N)=O)[C@]3(OC)[C@@H]4N[C@@H]4CN23)C1=O
InChI: InChI=1S/C16H19N3O6/c1-6-11(20)10-9(12(21)13(6)23-2)7(5-25-15(17)22)16(24-3)14-8(18-14)4-19(10)16/h7-8,14,18H,4-5H2,1-3H3,(H2,17,22)/t7-,8+,14+,16-/m0/s1
Instrument: TripleTOF 5600 SCIEX
Instrument type: LC-ESI-QTOF
Ms type: MS2
Ion mode: POSITIVE
Collision energy: 110
Fragmentation mode: CID
Ionization: ESI
Column name: Zorbax Eclipse Plus C18 2.1 mm x 150 mm, 3.5 um, Agilent
Retention time: 7.046 min
Precursor m/z: 350.1347
Precursor type: [M+H]+
m/z	relative intensity
65.0427	196
66.0404	31
67.0429	39
74.018	47
75.026	86
75.0395	39
76.0201	39
76.0352	70
77.0416	999
78.0361	243
78.047	78
78.0602	39
79.0445	62
79.0608	47
80.0524	62
88.0309	62
89.04	582
90.0352	39
90.0487	149
91.0557	322
92.0491	86
93.0597	47
101.0398	117
102.0344	94
102.0452	173
103.0426	47
103.0537	188
104.0492	456
105.0456	31
105.0573	55
106.0649	39
113.0391	78
114.0456	78
115.0407	102
115.0536	479
115.0719	70
116.0485	235
117.057	409
117.073	47
118.0642	110
120.0455	55
127.0531	141
128.0487	283
129.055	173
130.0651	338
131.0597	306
132.0428	39
132.0766	55
134.0604	39
139.0531	39
140.0489	173
141.0574	283
142.0599	275
143.0633	141
152.0453	31
153.0575	39
154.0655	94
155.0597	605
156.0667	432
157.0768	173
158.0596	55
167.0618	62
168.0679	157
169.0757	212
171.06	39
181.0772	86
183.057	39
184.0616	39
197.0689	86
227.0955	31
