Mass spectrum: Omeprazole 4-desmethylthioether; LC-ESI-QTOF; MS2; 110 V
Name: Omeprazole 4-desmethylthioether
Class: Metabolite; Pharmaceutical
Formula: C16H17N3O2S
Exact mass: 315.1041
SMILES: Cc1cnc(c(c1O)C)CSc2[nH]c3ccc(cc3n2)OC
InChI: InChI=1S/C16H17N3O2S/c1-9-7-17-14(10(2)15(9)20)8-22-16-18-12-5-4-11(21-3)6-13(12)19-16/h4-7H,8H2,1-3H3,(H,17,20)(H,18,19)
Instrument: TripleTOF 5600 SCIEX
Instrument type: LC-ESI-QTOF
Ms type: MS2
Ion mode: POSITIVE
Collision energy: 110
Fragmentation mode: CID
Ionization: ESI
Column name: Zorbax Eclipse Plus C18 2.1 mm x 150 mm, 3.5 um, Agilent
Retention time: 6.17 min
Precursor m/z: 316.1114
Precursor type: [M+H]+
m/z	relative intensity
42.0428	73
43.0297	60
51.0294	97
52.0357	73
53.0448	73
65.0429	426
66.0503	146
67.0463	60
67.0562	170
77.0411	389
77.0524	109
77.0753	48
78.0369	134
79.0448	438
79.0572	194
80.0523	292
81.0596	60
81.0696	85
91.0541	158
92.0505	280
93.058	767
94.0663	694
105.0462	121
106.0511	609
107.0727	97
108.0426	60
108.0807	999
109.0505	73
110.0049	48
122.0599	73
134.0469	109
134.0597	60
136.0758	109
137.0171	121
166.0329	134
