Mass spectrum: 1-Hydroxybenzotriazol; LC-ESI-QTOF; MS2; 30 V
Name: 1-Hydroxybenzotriazol
Class: Pharmaceutical; Industrial_process; Transformation_product
Formula: C6H5N3O
Exact mass: 135.0433
SMILES: c1ccc2c(c1)nnn2O
InChI: InChI=1S/C6H5N3O/c10-9-6-4-2-1-3-5(6)7-8-9/h1-4,10H
Instrument: TripleTOF 5600 SCIEX
Instrument type: LC-ESI-QTOF
Ms type: MS2
Ion mode: POSITIVE
Collision energy: 30
Fragmentation mode: CID
Ionization: ESI
Column name: Zorbax Eclipse Plus C18 2.1 mm x 150 mm, 3.5 um, Agilent
Retention time: 5.24 min
Precursor m/z: 136.0505
Precursor type: [M+H]+
m/z	relative intensity
41.0348	11
52.0249	30
62.0197	15
63.0278	147
64.0356	229
65.0309	56
77.0418	53
78.049	47
80.0527	30
91.0441	999
119.0488	176
136.0509	215
