Mass spectrum: Cytidine; LC-ESI-QTOF; MS2; 60 V
Name: Cytidine
Formula: C9H13N3O5
Exact mass: 243.0855
SMILES: OCC(C(O)C1O)OC1N2C(N=C(N)C=C2)=O
InChI: InChI=1S/C9H13N3O5/c10-5-1-2-12(9(16)11-5)8-7(15)6(14)4(3-13)17-8/h1-2,4,6-8,13-15H,3H2,(H2,10,11,16)
Instrument: TripleTOF 6600 SCIEX
Instrument type: LC-ESI-QTOF
Ms type: MS2
Ion mode: POSITIVE
Collision energy: 60
Fragmentation mode: CID
Ionization: ESI
Column name: Zorbax Eclipse Plus C18 2.1 mm x 150 mm, 3.5 um, Agilent
Retention time: 2.2 min
Precursor m/z: 244.0928
Precursor type: [M+H]+
m/z	relative intensity
40.0172	36
42.0337	46
43.017	18
52.0174	68
67.0272	111
68.0117	126
69.0435	158
71.0112	21
94.0384	216
95.0232	999
112.0499	544
