Mass spectrum: 19-Nortestosterone; LC-ESI-QTOF; MS2; 100 V
Name: 19-Nortestosterone
Class: Pharmaceutical
Formula: C18H26O2
Exact mass: 274.1933
SMILES: C[C@]12CC[C@H]3[C@@H](CCC4=CC(=O)CC[C@H]34)[C@@H]1CC[C@@H]2O
InChI: InChI=1S/C18H26O2/c1-18-9-8-14-13-5-3-12(19)10-11(13)2-4-15(14)16(18)6-7-17(18)20/h10,13-17,20H,2-9H2,1H3/t13-,14+,15+,16-,17-,18-/m0/s1
Instrument: TripleTOF 5600 SCIEX
Instrument type: LC-ESI-QTOF
Ms type: MS2
Ion mode: POSITIVE
Collision energy: 100
Fragmentation mode: CID
Ionization: ESI
Column name: Zorbax Eclipse Plus C18 2.1 mm x 150 mm, 3.5 um, Agilent
Retention time: 10.421 min
Precursor m/z: 275.2006
Precursor type: [M+H]+
m/z	relative intensity
43.0256	24
55.0232	24
55.0585	81
65.0434	331
66.051	32
67.0593	61
77.0416	999
78.0484	40
79.0573	327
81.0382	20
81.071	65
83.053	90
83.0707	24
89.0398	36
91.0559	503
91.0827	32
93.0721	16
94.0431	28
102.0469	32
103.0524	36
105.0729	40
109.0654	32
115.0539	290
116.0612	28
117.0689	16
127.0534	85
128.0614	196
129.0713	24
131.0542	16
141.0705	40
152.061	36
153.0723	32
165.0662	24
