Mass spectrum: 6-Thioxanthine; LC-ESI-QTOF; MS2; 10 V
Name: 6-Thioxanthine
Class: Metabolite; Pharmaceutical
Formula: C5H4N4OS
Exact mass: 168.0106
SMILES: C1=NC2=C(N1)C(=S)NC(=O)N2
InChI: InChI=1S/C5H4N4OS/c10-5-8-3-2(4(11)9-5)6-1-7-3/h1H,(H3,6,7,8,9,10,11)
Instrument: TripleTOF 5600 SCIEX
Instrument type: LC-ESI-QTOF
Ms type: MS2
Ion mode: POSITIVE
Collision energy: 10
Fragmentation mode: CID
Ionization: ESI
Column name: Zorbax Eclipse Plus C18 2.1 mm x 150 mm, 3.5 um, Agilent
Retention time: 4.02 min
Precursor m/z: 169.0179
Precursor type: [M+H]+
m/z	relative intensity
151.9929	82
169.0189	999
