Mass spectrum: Benzotriazole; LC-ESI-QTOF; MS2; 40 V
Name: Benzotriazole
Class: Industrial_process; Industrial_process; Industrial_process; Antimicrobial; Personal_care_product
Formula: C6H5N3
Exact mass: 119.0483
SMILES: C1=CC2=NNN=C2C=C1
InChI: InChI=1S/C6H5N3/c1-2-4-6-5(3-1)7-9-8-6/h1-4H,(H,7,8,9)
Instrument: TripleTOF 6600 SCIEX
Instrument type: LC-ESI-QTOF
Ms type: MS2
Ion mode: POSITIVE
Collision energy: 40
Fragmentation mode: CID
Ionization: ESI
Column name: Zorbax Eclipse Plus C18 2.1 mm x 150 mm, 3.5 um, Agilent
Retention time: 5.876 min
Precursor m/z: 120.0556
Precursor type: [M+H]+
m/z	relative intensity
35.9997	19
37.0074	96
38.015	87
39.0232	794
40.0183	10
42.0337	10
43.0296	14
50.0152	15
51.0227	43
52.0184	18
63.0227	19
64.0306	15
65.0385	999
66.0337	53
91.0415	14
92.049	53
120.0551	63
