Mass spectrum: Ethisterone; LC-ESI-QTOF; MS2; 40 V
Name: Ethisterone
Class: Pharmaceutical; Metabolite
Formula: C21H28O2
Exact mass: 312.2089
SMILES: C[C@]12CCC(=O)C=C1CC[C@@H]3[C@@H]2CC[C@@]4(C)[C@H]3CC[C@@]4(O)C#C
InChI: InChI=1S/C21H28O2/c1-4-21(23)12-9-18-16-6-5-14-13-15(22)7-10-19(14,2)17(16)8-11-20(18,21)3/h1,13,16-18,23H,5-12H2,2-3H3/t16-,17+,18+,19+,20+,21+/m1/s1
Instrument: TripleTOF 5600 SCIEX
Instrument type: LC-ESI-QTOF
Ms type: MS2
Ion mode: POSITIVE
Collision energy: 40
Fragmentation mode: CID
Ionization: ESI
Column name: Zorbax Eclipse Plus C18 2.1 mm x 150 mm, 3.5 um, Agilent
Retention time: 11.662 min
Precursor m/z: 313.2162
Precursor type: [M+H]+
m/z	relative intensity
67.0585	30
69.0736	19
77.0412	29
79.0572	111
81.0722	95
83.0515	44
91.0561	76
93.0709	35
95.0861	32
97.0668	900
105.0704	67
107.0854	29
109.066	999
115.054	15
117.0692	33
119.086	51
121.065	16
121.1	13
123.0807	105
128.0619	24
129.0703	40
130.078	10
131.0856	48
133.1005	29
141.0686	23
142.0789	20
143.0852	60
145.1011	54
147.1175	12
149.0966	12
155.0849	25
156.0936	12
157.1005	43
159.1176	25
167.0858	11
169.1006	28
171.116	43
173.1328	12
181.1	13
183.1168	20
185.1333	28
187.1468	10
195.1159	13
199.1492	12
227.1787	16
