Mass spectrum: Progesterone; LC-ESI-QTOF; MS2; 100 V
Name: Progesterone
Class: Pharmaceutical
Formula: C21H30O2
Exact mass: 314.2246
SMILES: CC(=O)[C@H]1CC[C@H]2[C@@H]3CCC4=CC(=O)CC[C@]4(C)[C@H]3CC[C@]12C
InChI: InChI=1S/C21H30O2/c1-13(22)17-6-7-18-16-5-4-14-12-15(23)8-10-20(14,2)19(16)9-11-21(17,18)3/h12,16-19H,4-11H2,1-3H3/t16-,17+,18-,19-,20-,21+/m0/s1
Instrument: TripleTOF 5600 SCIEX
Instrument type: LC-ESI-QTOF
Ms type: MS2
Ion mode: POSITIVE
Collision energy: 100
Fragmentation mode: CID
Ionization: ESI
Column name: Zorbax Eclipse Plus C18 2.1 mm x 150 mm, 3.5 um, Agilent
Retention time: 13.796 min
Precursor m/z: 315.2319
Precursor type: [M+H]+
m/z	relative intensity
43.0269	320
43.0573	25
55.0227	119
55.0498	14
57.0391	32
65.0429	259
66.0495	28
67.0585	137
69.0373	14
69.0741	68
77.0421	999
78.0491	21
79.0577	703
80.0629	18
81.0395	36
81.0724	183
82.0462	25
83.0591	21
91.0564	414
91.0743	36
93.0705	32
94.0426	36
95.0594	14
95.0855	43
97.0656	407
103.0554	54
105.0713	79
107.0494	39
109.0646	238
115.054	151
116.0631	21
117.0699	25
123.0811	28
127.0535	32
128.0618	158
129.0682	46
141.0687	50
142.0786	14
152.0615	36
153.0684	18
165.0715	43
