Mass spectrum: Codeine; LC-ESI-QTOF; MS2; 60 V
Name: Codeine
Formula: C18H21NO3
Exact mass: 299.1521
SMILES: CN1CCC23C4C1CC5=C2C(=C(C=C5)OC)OC3C(C=C4)O
InChI: InChI=1S/C18H21NO3/c1-19-8-7-18-11-4-5-13(20)17(18)22-16-14(21-2)6-3-10(15(16)18)9-12(11)19/h3-6,11-13,17,20H,7-9H2,1-2H3
Instrument: TripleTOF 6600 SCIEX
Instrument type: LC-ESI-QTOF
Ms type: MS2
Ion mode: POSITIVE
Collision energy: 60
Fragmentation mode: CID
Ionization: ESI
Column name: Zorbax Eclipse Plus C18 2.1 mm x 150 mm, 3.5 um, Agilent
Retention time: 5.043 min
Precursor m/z: 300.1594
Precursor type: [M+H]+
m/z	relative intensity
41.0378	10
42.0333	10
44.0484	91
55.0168	24
57.0324	12
58.064	44
69.0326	12
77.037	74
79.0528	20
89.0372	14
91.0532	80
94.0388	19
102.0449	16
103.0529	52
105.0684	15
107.0473	12
115.0526	348
116.0608	61
117.0688	19
118.04	26
121.0641	18
122.0357	23
126.0444	11
127.0523	168
128.0607	475
129.068	140
131.0474	64
132.0565	12
137.0587	47
139.0525	71
140.0607	40
141.0686	337
142.0768	47
143.0483	53
143.0837	16
144.056	187
145.0628	32
146.0349	39
151.0524	79
152.0604	667
153.0684	755
154.0757	129
155.049	174
155.0831	141
156.0559	122
157.0645	95
158.0715	79
159.0423	41
159.0793	33
160.0504	12
160.0745	14
161.0584	152
163.0546	18
164.0606	68
165.0689	999
166.0759	94
167.0845	48
168.0552	164
169.0641	172
170.0359	43
170.0706	64
171.0439	72
171.0793	257
172.0511	39
172.0854	36
173.0925	10
174.0673	14
175.0725	25
176.0625	35
177.0691	28
178.0763	143
179.0843	60
180.0561	52
180.0901	11
181.0638	403
182.0717	149
183.0435	266
183.0758	64
184.0504	91
184.0834	20
185.058	152
185.0905	19
186.0675	18
187.075	22
189.0679	109
190.0755	68
191.0835	55
193.0638	118
194.0711	106
195.0769	46
196.0494	14
197.0583	160
197.0914	16
198.0665	157
199.0746	125
200.079	35
201.0688	25
202.0764	32
205.0631	29
207.0798	38
208.0517	45
208.087	14
209.0582	83
210.0659	67
211.0743	46
212.079	32
213.0915	22
215.1034	12
218.0715	13
219.0794	22
220.0813	10
220.1122	33
221.0595	41
223.0752	61
224.081	12
225.0883	29
226.0627	12
234.0897	12
235.0739	12
236.0863	17
241.0851	13
248.1086	18
266.1168	20
