Mass spectrum: Doxycycline; LC-ESI-QTOF; MS2; 80 V
Name: Doxycycline
Class: Antimicrobial; Pharmaceutical
Formula: C22H24N2O8
Exact mass: 444.1533
SMILES: CC1C2C(C3C(C(=O)C(=C(C3(C(=O)C2=C(C4=C1C=CC=C4O)O)O)O)C(=O)N)N(C)C)O
InChI: InChI=1S/C22H24N2O8/c1-7-8-5-4-6-9(25)11(8)16(26)12-10(7)17(27)14-15(24(2)3)18(28)13(21(23)31)20(30)22(14,32)19(12)29/h4-7,10,14-15,17,25-27,30,32H,1-3H3,(H2,23,31)
Instrument: TripleTOF 5600 SCIEX
Instrument type: LC-ESI-QTOF
Ms type: MS2
Ion mode: POSITIVE
Collision energy: 80
Fragmentation mode: CID
Ionization: ESI
Column name: Zorbax Eclipse Plus C18 2.1 mm x 150 mm, 3.5 um, Agilent
Retention time: 6.499 min
Precursor m/z: 445.1605
Precursor type: [M+H]+
m/z	relative intensity
58.0727	148
70.0728	129
72.0512	92
91.0599	111
98.0626	684
103.0572	92
115.0576	277
117.0718	222
121.0318	74
127.0554	962
128.0628	240
129.0714	203
131.0519	111
139.0546	129
140.0621	129
141.0704	277
144.059	185
145.0662	610
147.0803	92
151.0545	92
152.0631	462
153.0704	240
155.0466	296
155.0862	148
157.0651	203
159.0837	92
160.0528	129
165.0712	869
166.0778	111
167.0872	185
168.0563	999
169.0653	148
170.0736	111
171.0815	259
173.0611	148
174.0683	74
175.0751	111
176.0636	129
177.0748	240
178.0779	277
179.087	259
180.0567	185
181.0626	333
182.0744	203
183.081	296
184.0541	129
185.0982	92
187.0755	240
189.0702	185
190.0761	92
191.0912	111
192.0603	92
193.0656	166
194.0742	240
195.0805	370
196.05	795
197.0602	277
198.0675	333
199.0746	92
201.0527	573
204.0568	92
205.0643	92
207.0761	185
210.0681	259
211.0754	647
213.0551	74
213.0869	129
219.0747	203
221.0572	222
221.0746	74
222.0697	203
223.0755	148
224.0444	536
225.0546	111
226.0611	610
227.0654	185
234.0706	148
235.0706	92
236.0412	92
236.0803	92
238.0593	129
239.0664	185
241.0888	92
247.076	129
249.0548	92
250.0615	388
251.066	111
252.0413	850
252.0815	92
263.0682	129
267.0603	185
275.0728	92
278.0581	203
306.0514	240
