Mass spectrum: 1-Boc-4-[3-(ethoxycarbonyl)phenyl]piperazine; LC-ESI-QTOF; MS2; 90 V
Name: 1-Boc-4-[3-(ethoxycarbonyl)phenyl]piperazine
Formula: C18H26N2O4
Exact mass: 334.1893
SMILES: CCOC(=O)C1=CC(=CC=C1)N2CCN(CC2)C(=O)OC(C)(C)C
InChI: InChI=1S/C18H26N2O4/c1-5-23-16(21)14-7-6-8-15(13-14)19-9-11-20(12-10-19)17(22)24-18(2,3)4/h6-8,13H,5,9-12H2,1-4H3
Instrument: TripleTOF 6600 SCIEX
Instrument type: LC-ESI-QTOF
Ms type: MS2
Ion mode: POSITIVE
Collision energy: 90
Fragmentation mode: CID
Ionization: ESI
Column name: Zorbax Eclipse Plus C18 2.1 mm x 150 mm, 3.5 um, Agilent
Retention time: 14.611 min
Precursor m/z: 335.1965
Precursor type: [M+H]+
m/z	relative intensity
37.007	21
38.0022	14
38.0148	17
39.0231	153
41.0387	116
42.034	42
44.0498	123
50.0148	38
51.0229	132
56.0495	49
57.0699	66
58.0653	11
63.0228	15
65.0387	432
66.0469	15
70.0647	11
75.0232	48
77.0387	878
78.0342	34
78.0465	85
79.0542	76
80.05	37
89.0388	58
90.0467	64
91.0542	764
92.0494	75
92.0604	25
93.0329	14
93.0573	155
94.065	41
102.046	14
103.0543	142
104.0493	118
105.0445	31
105.057	28
106.065	25
115.0534	32
116.049	46
117.0572	455
118.0652	999
119.0728	105
120.0459	19
120.0807	162
121.0284	76
128.0499	29
130.0645	79
131.0604	11
131.0725	21
132.0798	32
142.0652	9
143.0737	18
144.0446	18
144.0799	18
145.0762	42
146.0599	41
148.0394	54
149.0472	22
150.0548	74
159.092	11
164.0708	98
