Mass spectrum: Fexofenadinone; LC-ESI-QTOF; MS2; 60 V
Name: Fexofenadinone
Class: Pharmaceutical
Formula: C32H37NO4
Exact mass: 499.2723
InChI: InChI=1S/C32H37NO4/c1-31(2,30(35)36)25-19-17-24(18-20-25)29(34)16-10-22-33-21-9-15-28(23-33)32(37,26-11-5-3-6-12-26)27-13-7-4-8-14-27/h3-8,11-14,17-20,28,37H,9-10,15-16,21-23H2,1-2H3,(H,35,36)
Instrument: TripleTOF 5600 SCIEX
Instrument type: LC-ESI-QTOF
Ms type: CID
Ion mode: POSITIVE
Collision energy: 60
Ionization: ESI
Column name: Zorbax Eclipse Plus C18 2.1 mm x 150 mm, 3.5 um, Agilent
Retention time: 8.706 min
Precursor m/z: 500.2795
Precursor type: [M+H]+
m/z	relative intensity
91.0546	18
115.0546	18
117.0694	48
118.0776	28
119.0851	10
121.0277	21
132.0925	15
146.0722	76
147.0794	11
163.0759	10
173.0951	12
188.1194	59
191.0707	999
233.1176	506
