Mass spectrum: 6-Bromo-2-benzothiazolinone; LC-ESI-QTOF; MS2; 50 V
Name: 6-Bromo-2-benzothiazolinone
Class: Industrial_process; Pharmaceutical
Formula: C7H4BrNOS
Exact mass: 228.9197
SMILES: C1=CC2=C(C=C1Br)SC(=O)N2
InChI: InChI=1S/C7H4BrNOS/c8-4-1-2-5-6(3-4)11-7(10)9-5/h1-3H,(H,9,10)
Instrument: TripleTOF 5600 SCIEX
Instrument type: LC-ESI-QTOF
Ms type: MS2
Ion mode: POSITIVE
Collision energy: 50
Fragmentation mode: CID
Ionization: ESI
Column name: Zorbax Eclipse Plus C18 2.1 mm x 150 mm, 3.5 um, Agilent
Retention time: 10.02 min
Precursor m/z: 229.927
Precursor type: [M+H]+
m/z	relative intensity
68.9857	38
69.9942	82
79.05	33
91.046	38
94.9975	55
96.0052	999
108.0038	38
122.0075	143
123.0152	756
132.9954	44
151.0094	629
157.9614	209
201.9309	82
229.9253	110
