Mass spectrum: Ethofumesate; LC-ESI-QTOF; MS2; 30 V
Name: Ethofumesate
Class: Herbicide
Formula: C13H18O5S
Exact mass: 286.0875
SMILES: CCOC1C(c2cc(ccc2O1)OS(=O)(=O)C)(C)C
InChI: InChI=1S/C13H18O5S/c1-5-16-12-13(2,3)10-8-9(18-19(4,14)15)6-7-11(10)17-12/h6-8,12H,5H2,1-4H3
Instrument: TripleTOF 6600 SCIEX
Instrument type: LC-ESI-QTOF
Ms type: MS2
Ion mode: POSITIVE
Collision energy: 30
Fragmentation mode: CID
Ionization: ESI
Column name: Zorbax Eclipse Plus C18 2.1 mm x 150 mm, 3.5 um, Agilent
Retention time: 12.56 min
Precursor m/z: 287.0948
Precursor type: [M+H]+
m/z	relative intensity
43.0174	28
77.0391	14
91.0524	14
93.069	57
105.0686	86
107.0481	14
109.0646	28
115.0547	14
117.0716	28
119.0517	14
121.0641	999
133.064	173
134.0709	57
135.0796	28
137.0585	159
145.0644	72
147.0461	14
149.0945	43
161.0455	14
161.0593	622
162.0663	173
163.0741	72
179.0692	159
180.0753	43
241.0507	43
