Mass spectrum: Dimethenamid; LC-ESI-QTOF; MS2; 40 V
Name: Dimethenamid
Class: Herbicide
Formula: C12H18ClNO2S
Exact mass: 275.0747
SMILES: CC1=CSC(=C1N(C(C)COC)C(=O)CCl)C
InChI: InChI=1S/C12H18ClNO2S/c1-8-7-17-10(3)12(8)14(11(15)5-13)9(2)6-16-4/h7,9H,5-6H2,1-4H3
Instrument: TripleTOF 6600 SCIEX
Instrument type: LC-ESI-QTOF
Ms type: MS2
Ion mode: POSITIVE
Collision energy: 40
Fragmentation mode: CID
Ionization: ESI
Column name: Zorbax Eclipse Plus C18 2.1 mm x 150 mm, 3.5 um, Agilent
Retention time: 11.971 min
Precursor m/z: 276.082
Precursor type: [M+H]+
m/z	relative intensity
41.0393	22
45.034	28
48.9845	47
56.0503	11
58.9956	20
67.0548	17
73.0653	48
76.9793	52
77.0393	20
79.0554	17
91.0543	14
93.0701	33
94.0655	28
95.0736	52
97.0109	12
99.0266	23
101.0427	12
105.0575	12
106.0647	10
108.0809	26
111.0268	494
112.0344	38
113.0295	15
113.0416	43
114.0371	10
117.0702	20
118.0648	13
119.072	15
120.0817	45
122.0974	12
123.0271	13
124.0341	29
125.0417	77
126.0377	294
127.0215	21
127.0452	35
127.057	29
128.0535	86
129.0364	23
133.0884	12
134.0964	47
135.0266	12
135.1043	95
136.0235	22
137.0297	59
138.0378	145
139.0561	11
140.0531	34
149.0415	20
150.0372	86
151.0572	114
152.0179	71
152.0528	209
153.0246	115
153.0605	50
154.0319	33
154.0682	20
159.0025	10
166.0318	36
166.0688	47
167.0765	102
168.0848	999
174.0135	10
186.0142	78
202.0072	19
203.0166	48
204.026	22
244.0561	333
