Mass spectrum: Codeinone; LC-ESI-QTOF; MS2; 40 V
Name: Codeinone
Class: Pharmaceutical
Formula: C18H19NO3
Exact mass: 297.1365
SMILES: CN1CCC23C4C1CC5=C2C(=C(C=C5)OC)OC3C(=O)C=C4
InChI: InChI=1S/C18H19NO3/c1-19-8-7-18-11-4-5-13(20)17(18)22-16-14(21-2)6-3-10(15(16)18)9-12(11)19/h3-6,11-12,17H,7-9H2,1-2H3
Instrument: TripleTOF 5600 SCIEX
Instrument type: LC-ESI-QTOF
Ms type: MS2
Ion mode: POSITIVE
Collision energy: 40
Fragmentation mode: CID
Ionization: ESI
Column name: Zorbax Eclipse Plus C18 2.1 mm x 150 mm, 3.5 um, Agilent
Retention time: 5.057 min
Precursor m/z: 298.1438
Precursor type: [M+H]+
m/z	relative intensity
58.0743	121
115.0566	20
127.0514	14
128.0624	31
129.0716	18
137.0598	25
139.0539	27
140.0624	47
141.0715	41
144.0591	18
145.0727	10
151.0554	22
152.0631	125
153.0696	243
154.0783	27
155.0508	14
155.0856	45
156.057	12
157.0676	12
160.0765	14
165.07	158
166.0778	10
167.0861	24
168.0565	148
169.0659	33
170.0357	12
170.0719	44
171.08	58
175.0743	10
177.0681	18
178.0783	28
179.0507	10
179.0847	48
180.0559	25
181.065	309
182.0714	33
183.0432	51
183.0803	91
184.048	13
185.0605	51
185.0963	47
186.0675	16
187.0747	20
189.0688	25
191.0854	10
193.0655	31
194.0765	18
195.0795	72
196.0504	54
196.0845	18
197.0597	44
198.0652	112
199.0748	123
201.0808	10
205.0691	13
206.0703	18
207.0777	50
208.0532	64
208.0836	18
209.0608	79
209.0963	12
210.0702	62
211.0747	206
212.0796	14
213.0895	155
218.0723	14
221.0572	10
223.039	13
223.072	160
224.0409	14
224.0843	14
225.0534	36
226.0634	33
227.106	12
228.0955	10
234.0719	16
235.0744	27
236.079	10
237.0538	47
237.0877	29
239.0686	310
240.0744	20
241.084	400
248.1086	13
252.0863	16
253.088	12
254.0902	17
255.1316	10
266.1128	13
267.097	22
282.1124	10
283.1231	25
298.1427	999
