Mass spectrum: 1-Boc-4-[3-(ethoxycarbonyl)phenyl]piperazine; LC-ESI-QTOF; MS2; 40 V
Name: 1-Boc-4-[3-(ethoxycarbonyl)phenyl]piperazine
Formula: C18H26N2O4
Exact mass: 334.1893
SMILES: CCOC(=O)C1=CC(=CC=C1)N2CCN(CC2)C(=O)OC(C)(C)C
InChI: InChI=1S/C18H26N2O4/c1-5-23-16(21)14-7-6-8-15(13-14)19-9-11-20(12-10-19)17(22)24-18(2,3)4/h6-8,13H,5,9-12H2,1-4H3
Instrument: TripleTOF 6600 SCIEX
Instrument type: LC-ESI-QTOF
Ms type: MS2
Ion mode: POSITIVE
Collision energy: 40
Fragmentation mode: CID
Ionization: ESI
Column name: Zorbax Eclipse Plus C18 2.1 mm x 150 mm, 3.5 um, Agilent
Retention time: 14.611 min
Precursor m/z: 335.1965
Precursor type: [M+H]+
m/z	relative intensity
41.0389	17
44.0498	39
56.0498	11
57.0703	336
70.065	14
91.0541	11
103.0544	10
106.0649	11
117.0568	11
118.0652	98
119.0732	85
120.0809	250
132.0809	38
133.0762	20
144.081	25
146.06	42
150.0542	16
159.0919	18
161.1075	166
162.1154	38
164.0714	999
176.0709	11
178.0871	29
189.1029	226
190.087	51
192.1026	614
204.1006	15
205.0975	140
206.1058	22
207.1136	422
233.0934	215
233.1256	53
235.1453	982
