Mass spectrum: 2,2,6,6-Tetramethylpiperidin-1-oxyl; LC-ESI-QTOF; MS2; 20 V
Name: 2,2,6,6-Tetramethylpiperidin-1-oxyl
Formula: C9H18NO
Exact mass: 156.1388
SMILES: CC1(CCCC(N1[O])(C)C)C
InChI: InChI=1S/C9H18NO/c1-8(2)6-5-7-9(3,4)10(8)11/h5-7H2,1-4H3
Instrument: TripleTOF 5600 SCIEX
Instrument type: LC-ESI-QTOF
Ms type: MS2
Ion mode: POSITIVE
Collision energy: 20
Fragmentation mode: CID
Ionization: ESI
Column name: Zorbax Eclipse Plus C18 2.1 mm x 150 mm, 3.5 um, Agilent
Retention time: 10.403 min
Precursor m/z: 157.1461
Precursor type: [M+H]+
m/z	relative intensity
69.0694	32
81.0688	16
82.0736	21
86.0582	21
109.1011	69
124.1205	58
142.1225	999
157.1359	16
157.1472	26
