Mass spectrum: Flecainide; LC-ESI-QTOF; MS2; 70 V
Name: Flecainide
Class: Pharmaceutical
Formula: C17H20F6N2O3
Exact mass: 414.1378
SMILES: FC(F)(F)COc1ccc(OCC(F)(F)F)c(c1)C(=O)NCC2CCCCN2
InChI: InChI=1S/C17H20F6N2O3/c18-16(19,20)9-27-12-4-5-14(28-10-17(21,22)23)13(7-12)15(26)25-8-11-3-1-2-6-24-11/h4-5,7,11,24H,1-3,6,8-10H2,(H,25,26)
Instrument: TripleTOF 5600 SCIEX
Instrument type: LC-ESI-QTOF
Ms type: MS2
Ion mode: POSITIVE
Collision energy: 70
Fragmentation mode: CID
Ionization: ESI
Column name: Zorbax Eclipse Plus C18 2.1 mm x 150 mm, 3.5 um, Agilent
Retention time: 7.983 min
Precursor m/z: 415.1451
Precursor type: [M+H]+
m/z	relative intensity
44.058	57
51.0289	11
53.0441	16
55.0594	21
56.0549	30
69.0733	16
70.0682	20
77.0407	44
79.0208	94
79.057	158
81.0727	210
82.0674	88
83.0125	79
83.0301	25
84.0832	91
92.0273	38
96.0816	13
97.0894	31
98.0975	213
99.0247	40
101.0194	16
107.0137	449
111.0238	24
114.0277	36
127.0196	171
129.0148	20
135.0086	762
142.0226	25
170.0183	16
171.0261	32
175.0362	19
181.0273	87
187.0363	22
189.0532	18
190.0243	155
203.0326	31
204.1024	21
207.0434	18
209.0232	999
215.0316	17
218.0195	626
219.0265	82
225.0345	308
231.0272	27
232.0977	277
237.0176	210
246.0389	12
253.0291	181
254.0366	39
281.0234	80
298.1074	26
301.0305	308
314.1002	14
