Mass spectrum: Aripiprazole; LC-ESI-QTOF; MS2; 120 V
Name: Aripiprazole
Class: Pharmaceutical
Formula: C23H27Cl2N3O2
Exact mass: 447.148
SMILES: Clc1cccc(N2CCN(CCCCOc3ccc4CCC(=O)Nc4c3)CC2)c1Cl
InChI: InChI=1S/C23H27Cl2N3O2/c24-19-4-3-5-21(23(19)25)28-13-11-27(12-14-28)10-1-2-15-30-18-8-6-17-7-9-22(29)26-20(17)16-18/h3-6,8,16H,1-2,7,9-15H2,(H,26,29)
Instrument: TripleTOF 5600 SCIEX
Instrument type: LC-ESI-QTOF
Ms type: MS2
Ion mode: POSITIVE
Collision energy: 120
Fragmentation mode: CID
Ionization: ESI
Column name: Zorbax Eclipse Plus C18 2.1 mm x 150 mm, 3.5 um, Agilent
Retention time: 8.305 min
Precursor m/z: 448.1553
Precursor type: [M+H]+
m/z	relative intensity
55.0221	24
56.0541	83
65.0428	117
70.0695	24
74.0171	83
74.0342	24
75.0255	63
77.0407	337
77.0756	24
78.0369	39
79.0558	34
80.0517	29
84.0816	48
89.0409	186
90.0486	137
91.0557	543
102.0333	34
102.0472	19
103.0561	48
104.0489	122
108.9841	220
111.0003	83
115.0537	24
116.0502	83
117.0572	999
118.065	210
120.0795	24
125.0151	34
130.0643	29
132.961	29
138.0083	44
144.961	279
145.9672	19
151.0188	44
151.0401	34
152.0251	195
158.9782	39
160.9797	29
164.026	58
171.9716	137
172.9699	97
188.0022	29
