Mass spectrum: 2-Phenyl-1H-benzimidazol-4-amine; LC-ESI-QTOF; MS2; 40 V
Name: 2-Phenyl-1H-benzimidazol-4-amine
Class: Pharmaceutical
Formula: C13H11N3
Exact mass: 209.0953
SMILES: C1=CC=C(C=C1)C2=NC3=C(N2)C=CC=C3N
InChI: InChI=1S/C13H11N3/c14-10-7-4-8-11-12(10)16-13(15-11)9-5-2-1-3-6-9/h1-8H,14H2,(H,15,16)
Instrument: TripleTOF 5600 SCIEX
Instrument type: LC-ESI-QTOF
Ms type: MS2
Ion mode: POSITIVE
Collision energy: 40
Fragmentation mode: CID
Ionization: ESI
Column name: Zorbax Eclipse Plus C18 2.1 mm x 150 mm, 3.5 um, Agilent
Retention time: 5.276 min
Precursor m/z: 210.1026
Precursor type: [M+H]+
m/z	relative intensity
67.0495	16
77.0438	30
78.0434	13
79.0464	21
80.0549	948
90.0376	74
104.0516	87
105.0469	33
106.0548	27
107.0625	613
117.0586	12
133.064	42
139.0556	32
140.05	33
144.0683	18
166.0649	109
167.0722	15
182.0833	26
183.0913	59
192.0683	50
193.0759	203
194.0832	58
208.0876	28
209.0949	204
210.1022	999
