Mass spectrum: 5,6-Dimethyl-1H-benzotriazol; LC-ESI-QTOF; MS2; 40 V
Name: 5,6-Dimethyl-1H-benzotriazol
Class: Industrial_process; Antimicrobial
Formula: C8H9N3
Exact mass: 147.0796
SMILES: Cc1cc2n[nH]nc2cc1C
InChI: InChI=1S/C8H9N3/c1-5-3-7-8(4-6(5)2)10-11-9-7/h3-4H,1-2H3,(H,9,10,11)
Instrument: TripleTOF 5600 SCIEX
Instrument type: LC-ESI-QTOF
Ms type: MS2
Ion mode: NEGATIVE
Collision energy: 40
Fragmentation mode: CID
Ionization: ESI
Column name: Zorbax Eclipse Plus C18 2.1 mm x 150 mm, 3.5 um, Agilent
Retention time: 8.012 min
Precursor m/z: 146.0724
Precursor type: [M-H]-
m/z	relative intensity
116.0452	388
146.0681	999
