Mass spectrum: 17alpha-Methyltestosterone; LC-ESI-QTOF; MS2; 130 V
Name: 17alpha-Methyltestosterone
Class: Pharmaceutical
Formula: C20H30O2
Exact mass: 302.2246
SMILES: C[C@]1(O)CC[C@H]2[C@@H]3CCC4=CC(=O)CC[C@]4(C)[C@H]3CC[C@]12C
InChI: InChI=1S/C20H30O2/c1-18-9-6-14(21)12-13(18)4-5-15-16(18)7-10-19(2)17(15)8-11-20(19,3)22/h12,15-17,22H,4-11H2,1-3H3/t15-,16+,17+,18+,19+,20+/m1/s1
Instrument: TripleTOF 5600 SCIEX
Instrument type: LC-ESI-QTOF
Ms type: MS2
Ion mode: POSITIVE
Collision energy: 130
Fragmentation mode: CID
Ionization: ESI
Column name: Zorbax Eclipse Plus C18 2.1 mm x 150 mm, 3.5 um, Agilent
Retention time: 11.57 min
Precursor m/z: 303.2319
Precursor type: [M+H]+
m/z	relative intensity
43.0263	132
51.0288	335
53.0439	62
55.0243	39
55.0598	31
65.0441	296
67.0571	85
77.0418	999
77.0731	31
78.0487	39
79.0558	257
89.0406	54
91.0544	390
94.0424	39
97.0663	62
102.0484	54
103.0537	39
107.0477	78
115.0535	288
127.0556	62
128.0618	124
152.0617	39
