Mass spectrum: 5-Aminofluorescein; LC-ESI-QTOF; MS2; 110 V
Name: 5-Aminofluorescein
Class: Pharmaceutical
Formula: C20H13NO5
Exact mass: 347.0794
SMILES: Nc1ccc2c(c1)C(=O)OC23c4ccc(O)cc4Oc5cc(O)ccc35
InChI: InChI=1S/C20H13NO5/c21-10-1-4-14-13(7-10)19(24)26-20(14)15-5-2-11(22)8-17(15)25-18-9-12(23)3-6-16(18)20/h1-9,22-23H,21H2
Instrument: TripleTOF 5600 SCIEX
Instrument type: LC-ESI-QTOF
Ms type: MS2
Ion mode: POSITIVE
Collision energy: 110
Fragmentation mode: CID
Ionization: ESI
Column name: Zorbax Eclipse Plus C18 2.1 mm x 150 mm, 3.5 um, Agilent
Retention time: 8.159 min
Precursor m/z: 348.0866
Precursor type: [M+H]+
m/z	relative intensity
65.0433	46
69.0026	23
75.0296	23
76.0355	15
77.0413	78
81.0367	23
89.041	23
99.0231	15
101.0404	23
102.0474	31
103.0548	15
113.039	19
115.0546	144
126.0486	70
127.054	101
128.0605	35
131.0508	19
139.0538	93
140.0492	19
149.0368	46
150.0459	202
151.0539	245
152.0617	277
155.0499	42
161.0425	19
162.0474	39
163.0543	292
164.0604	124
165.0708	148
167.0727	23
174.0462	101
175.0346	23
175.0527	136
176.0614	405
177.0559	35
177.0707	62
178.076	62
185.041	19
186.0466	42
187.0539	335
187.0791	19
188.0601	179
189.0698	858
190.0654	132
191.0712	66
198.0473	54
199.0531	171
200.0621	999
201.0697	499
201.0962	39
202.0785	421
203.0727	70
204.0772	62
205.0648	39
211.0524	152
212.0593	70
213.0701	187
214.065	183
215.0742	54
216.0801	128
217.0636	19
217.0882	42
218.0693	23
221.0592	23
222.0441	15
224.0574	23
225.0588	42
226.0629	35
227.0747	105
228.0788	42
229.0652	113
230.067	15
230.0876	15
231.0682	27
240.0548	15
243.0696	46
244.0815	23
245.0585	27
256.0793	27
258.0688	42
258.0833	15
272.0721	31
273.0791	23
