Mass spectrum: Aldicarb; LC-ESI-QTOF; MS2; 60 V
Name: Aldicarb
Class: Insecticide
Formula: C7H14N2O2S
Exact mass: 190.0776
SMILES: CC(C)(C=NOC(=O)NC)SC
InChI: InChI=1S/C7H14N2O2S/c1-7(2,12-4)5-9-11-6(10)8-3/h5H,1-4H3,(H,8,10)
Instrument: TripleTOF 6600 SCIEX
Instrument type: LC-ESI-QTOF
Ms type: MS2
Ion mode: POSITIVE
Collision energy: 60
Fragmentation mode: CID
Ionization: ESI
Column name: Zorbax Eclipse Plus C18 2.1 mm x 150 mm, 3.5 um, Agilent
Retention time: 8.404 min
Precursor m/z: 213.0668
Precursor type: [M+Na]+
m/z	relative intensity
37.0078	120
38.0156	145
39.0236	886
41.0392	902
44.9798	185
46.9953	217
58.9953	999
74.0187	161
89.043	346
100.0224	209
