Mass spectrum: Sulfadimethoxine; LC-ESI-QTOF; MS2; 60 V
Name: Sulfadimethoxine
Class: Pharmaceutical
Formula: C12H14N4O4S
Exact mass: 310.0736
SMILES: COC1=NC(=NC(=C1)NS(=O)(=O)C2=CC=C(C=C2)N)OC
InChI: InChI=1S/C12H14N4O4S/c1-19-11-7-10(14-12(15-11)20-2)16-21(17,18)9-5-3-8(13)4-6-9/h3-7H,13H2,1-2H3,(H,14,15,16)
Instrument: TripleTOF 5600 SCIEX
Instrument type: LC-ESI-QTOF
Ms type: MS2
Ion mode: POSITIVE
Collision energy: 60
Fragmentation mode: CID
Ionization: ESI
Column name: Zorbax Eclipse Plus C18 2.1 mm x 150 mm, 3.5 um, Agilent
Retention time: 8.09 min
Precursor m/z: 311.0809
Precursor type: [M+H]+
m/z	relative intensity
39.023	28
53.0385	15
56.0495	20
57.0453	29
58.0289	25
65.0391	819
66.0341	19
67.0299	108
68.0141	24
69.0094	13
72.0448	41
80.0501	366
81.0449	49
82.0292	110
84.0321	32
86.0238	16
89.0721	21
92.0501	999
93.0571	43
95.0487	14
96.0557	10
98.0475	45
98.0722	12
99.0553	66
108.0446	898
109.0392	33
110.0351	54
111.0194	65
111.0552	16
112.0506	14
113.0369	16
113.0589	62
118.0528	53
124.0151	18
124.051	74
125.0584	43
126.0669	54
127.0493	26
139.0516	12
140.0455	18
141.0535	200
144.0568	29
145.0631	75
154.0608	178
156.0135	23
156.0766	274
172.0506	66
173.0577	102
173.0831	19
