Mass spectrum: Chlorpyrifos; LC-ESI-QTOF; MS2; 100 V
Name: Chlorpyrifos
Class: Insecticide
Formula: C9H11Cl3NO3PS
Exact mass: 348.9263
SMILES: CCO[P](=S)(OCC)Oc1nc(Cl)c(Cl)cc1Cl
InChI: InChI=1S/C9H11Cl3NO3PS/c1-3-14-17(18,15-4-2)16-9-7(11)5-6(10)8(12)13-9/h5H,3-4H2,1-2H3
Instrument: TripleTOF 5600 SCIEX
Instrument type: LC-ESI-QTOF
Ms type: MS2
Ion mode: POSITIVE
Collision energy: 100
Fragmentation mode: CID
Ionization: ESI
Column name: Zorbax Eclipse Plus C18 2.1 mm x 150 mm, 3.5 um, Agilent
Retention time: 16.34 min
Precursor m/z: 349.9336
Precursor type: [M+H]+
m/z	relative intensity
61.9849	26
64.9817	154
64.999	12
71.979	29
78.9426	290
82.9461	19
83.9769	50
96.951	783
96.9896	9
97.9784	14
106.9448	999
108.9703	205
109.9782	24
118.9437	99
133.9536	26
143.9387	152
144.9478	9
179.9152	48
