Mass spectrum: Ranitidine-S-oxide; LC-ESI-QTOF; MS2; 40 V
Name: Ranitidine-S-oxide
Class: Pharmaceutical; Transformation_product; Transformation_product-Metabolite
Formula: C13H22N4O4S
Exact mass: 330.1362
SMILES: CNC(=C[N+](=O)[O-])NCCS(=O)Cc1ccc(o1)CN(C)C
InChI: InChI=1S/C13H22N4O4S/c1-14-13(9-17(18)19)15-6-7-22(20)10-12-5-4-11(21-12)8-16(2)3/h4-5,9,14-15H,6-8,10H2,1-3H3
Instrument: TripleTOF 5600 SCIEX
Instrument type: LC-ESI-QTOF
Ms type: MS2
Ion mode: POSITIVE
Collision energy: 40
Fragmentation mode: CID
Ionization: ESI
Column name: Zorbax Eclipse Plus C18 2.1 mm x 150 mm, 3.5 um, Agilent
Retention time: 2.941 min
Precursor m/z: 331.1435
Precursor type: [M+H]+
m/z	relative intensity
58.0696	63
66.0509	21
67.0588	37
68.0528	42
79.0576	31
81.0725	31
82.0688	116
84.0726	21
93.0702	31
94.0429	483
94.0664	74
95.0497	90
95.0735	85
97.0774	58
102.0387	21
108.0822	106
110.0966	999
125.0079	26
130.0589	42
138.0913	712
139.0998	58
143.0174	42
146.0494	21
176.0465	26
192.0434	47
331.1457	21
