Mass spectrum: 10,11-Dihydrocarbamazepine; LC-ESI-QTOF; MS2; 110 V
Name: 10,11-Dihydrocarbamazepine
Class: Pharmaceutical; Metabolite
Formula: C15H14N2O
Exact mass: 238.1106
SMILES: NC(=O)N1c2ccccc2CCc3ccccc13
InChI: InChI=1S/C15H14N2O/c16-15(18)17-13-7-3-1-5-11(13)9-10-12-6-2-4-8-14(12)17/h1-8H,9-10H2,(H2,16,18)
Instrument: TripleTOF 5600 SCIEX
Instrument type: LC-ESI-QTOF
Ms type: MS2
Ion mode: POSITIVE
Collision energy: 110
Fragmentation mode: CID
Ionization: ESI
Column name: Zorbax Eclipse Plus C18 2.1 mm x 150 mm, 3.5 um, Agilent
Retention time: 9.235 min
Precursor m/z: 239.1179
Precursor type: [M+H]+
m/z	relative intensity
44.0205	42
65.0424	662
66.0496	28
73.0105	23
74.018	233
75.0259	340
76.0331	107
77.0409	634
78.0493	65
86.0181	51
87.0252	93
89.0403	480
90.0461	56
91.0556	401
92.0513	23
93.0594	23
98.0166	84
99.0224	112
100.0311	56
101.0391	233
102.0465	158
110.0147	32
113.0387	172
114.0424	42
115.0537	182
116.0504	42
117.0571	70
118.067	32
123.0205	18
124.0324	23
125.0385	130
126.0464	396
127.0529	219
128.0492	214
129.0582	46
137.0372	51
138.0452	32
139.0541	368
140.049	266
149.0385	70
150.0462	658
151.0539	999
152.061	779
152.0862	18
153.0571	112
154.065	18
161.0371	23
162.0459	46
163.0547	387
164.057	224
165.0685	102
166.0647	88
167.0741	37
174.0464	28
175.0547	42
176.0581	149
177.057	312
178.0649	471
179.0722	112
180.079	42
188.0504	42
189.0575	84
190.0646	261
191.0725	154
