Mass spectrum: Simvastatin; LC-ESI-QTOF; MS2; 100 V
Name: Simvastatin
Class: Pharmaceutical
Formula: C25H38O5
Exact mass: 418.2719
SMILES: CCC(C)(C)C(=O)O[C@H]1C[C@@H](C)C=C2C=C[C@H](C)[C@H](CC[C@@H]3C[C@@H](O)CC(=O)O3)[C@@H]12
InChI: InChI=1S/C25H38O5/c1-6-25(4,5)24(28)30-21-12-15(2)11-17-8-7-16(3)20(23(17)21)10-9-19-13-18(26)14-22(27)29-19/h7-8,11,15-16,18-21,23,26H,6,9-10,12-14H2,1-5H3/t15-,16-,18+,19+,20-,21-,23-/m0/s1
Instrument: TripleTOF 5600 SCIEX
Instrument type: LC-ESI-QTOF
Ms type: MS2
Ion mode: POSITIVE
Collision energy: 100
Fragmentation mode: CID
Ionization: ESI
Column name: Zorbax Eclipse Plus C18 2.1 mm x 150 mm, 3.5 um, Agilent
Retention time: 15.438 min
Precursor m/z: 419.2792
Precursor type: [M+H]+
m/z	relative intensity
65.0419	34
77.0426	225
79.0567	191
81.0724	34
91.0559	382
103.0545	60
105.0703	304
115.0549	373
115.0732	43
116.0639	86
117.0701	191
119.0851	147
127.0536	251
128.062	999
129.0697	495
130.0791	69
131.0861	156
141.0698	555
142.0765	295
143.0851	382
144.0943	69
145.1005	69
152.0614	95
153.0709	338
154.0768	112
155.0872	147
156.0957	52
158.1085	34
165.0669	147
166.0757	43
167.0857	104
169.0993	43
178.0796	52
179.0865	78
180.0935	52
181.1015	60
191.0859	43
