Mass spectrum: Estrone 3-methyl ether; LC-ESI-QTOF; MS2; 110 V
Name: Estrone 3-methyl ether
Class: Pharmaceutical
Formula: C19H24O2
Exact mass: 284.1776
SMILES: C[C@]12CC[C@@H]3c4ccc(cc4CC[C@H]3[C@@H]1CCC2=O)OC
InChI: InChI=1S/C19H24O2/c1-19-10-9-15-14-6-4-13(21-2)11-12(14)3-5-16(15)17(19)7-8-18(19)20/h4,6,11,15-17H,3,5,7-10H2,1-2H3/t15-,16-,17+,19+/m1/s1
Instrument: TripleTOF 5600 SCIEX
Instrument type: LC-ESI-QTOF
Ms type: MS2
Ion mode: POSITIVE
Collision energy: 110
Fragmentation mode: CID
Ionization: ESI
Column name: Zorbax Eclipse Plus C18 2.1 mm x 150 mm, 3.5 um, Agilent
Retention time: 10.549 min
Precursor m/z: 285.1849
Precursor type: [M+H]+
m/z	relative intensity
65.044	169
75.0253	25
76.0352	41
77.042	463
78.0487	319
89.0403	200
91.0554	242
102.0472	262
103.0555	164
103.0755	20
104.0636	20
113.0398	25
115.0549	999
115.0923	20
116.0615	30
126.0465	66
127.0544	190
128.0627	386
129.0707	36
131.0484	56
139.0532	46
141.0704	56
150.0479	20
151.0553	102
152.0622	257
153.071	72
163.0546	30
164.0622	51
165.0707	144
167.0868	20
177.0705	20
178.0808	51
189.0691	20
