Mass spectrum: Pyrimethanil; LC-ESI-QTOF; MS2; 130 V
Name: Pyrimethanil
Class: Fungicide
Formula: C12H13N3
Exact mass: 199.1109
SMILES: CC1=CC(=NC(=N1)NC2=CC=CC=C2)C
InChI: InChI=1S/C12H13N3/c1-9-8-10(2)14-12(13-9)15-11-6-4-3-5-7-11/h3-8H,1-2H3,(H,13,14,15)
Instrument: TripleTOF 6600 SCIEX
Instrument type: LC-ESI-QTOF
Ms type: MS2
Ion mode: POSITIVE
Collision energy: 130
Fragmentation mode: CID
Ionization: ESI
Column name: Zorbax Eclipse Plus C18 2.1 mm x 150 mm, 3.5 um, Agilent
Retention time: 9.225 min
Precursor m/z: 200.1182
Precursor type: [M+H]+
m/z	relative intensity
35.9993	36
37.0071	136
38.003	19
38.0152	82
39.0227	156
40.0179	19
41.0257	31
42.0337	184
49.0071	198
50.0151	999
51.0228	414
52.0179	28
54.0347	14
61.0069	53
62.0144	65
63.0228	53
64.0178	14
65.038	19
67.0292	11
73.0067	22
74.0147	99
75.0107	17
75.0219	28
85.0063	17
86.0145	22
