Mass spectrum: Aripiprazole; LC-ESI-QTOF; MS2; 140 V
Name: Aripiprazole
Class: Pharmaceutical
Formula: C23H27Cl2N3O2
Exact mass: 447.148
SMILES: Clc1cccc(N2CCN(CCCCOc3ccc4CCC(=O)Nc4c3)CC2)c1Cl
InChI: InChI=1S/C23H27Cl2N3O2/c24-19-4-3-5-21(23(19)25)28-13-11-27(12-14-28)10-1-2-15-30-18-8-6-17-7-9-22(29)26-20(17)16-18/h3-6,8,16H,1-2,7,9-15H2,(H,26,29)
Instrument: TripleTOF 5600 SCIEX
Instrument type: LC-ESI-QTOF
Ms type: MS2
Ion mode: POSITIVE
Collision energy: 140
Fragmentation mode: CID
Ionization: ESI
Column name: Zorbax Eclipse Plus C18 2.1 mm x 150 mm, 3.5 um, Agilent
Retention time: 8.305 min
Precursor m/z: 448.1553
Precursor type: [M+H]+
m/z	relative intensity
42.0416	51
51.0286	51
55.0592	28
56.0554	74
65.0436	183
72.9886	34
74.019	246
75.0253	166
77.0418	413
78.036	68
78.0469	28
84.0892	22
89.0407	350
90.0478	269
91.0561	442
92.0515	28
99.001	34
101.0388	22
102.0344	68
103.0531	28
104.0507	57
108.9848	338
110.9997	86
115.0543	28
116.0503	80
117.0576	999
118.0647	91
125.0149	45
128.0511	34
130.0647	28
132.9611	28
144.9607	206
152.0249	103
164.0287	28
171.9713	137
172.965	63
