Mass spectrum: 17alpha-Methyltestosterone; LC-ESI-QTOF; MS2; 120 V
Name: 17alpha-Methyltestosterone
Class: Pharmaceutical
Formula: C20H30O2
Exact mass: 302.2246
SMILES: C[C@]1(O)CC[C@H]2[C@@H]3CCC4=CC(=O)CC[C@]4(C)[C@H]3CC[C@]12C
InChI: InChI=1S/C20H30O2/c1-18-9-6-14(21)12-13(18)4-5-15-16(18)7-10-19(2)17(15)8-11-20(19,3)22/h12,15-17,22H,4-11H2,1-3H3/t15-,16+,17+,18+,19+,20+/m1/s1
Instrument: TripleTOF 5600 SCIEX
Instrument type: LC-ESI-QTOF
Ms type: MS2
Ion mode: POSITIVE
Collision energy: 120
Fragmentation mode: CID
Ionization: ESI
Column name: Zorbax Eclipse Plus C18 2.1 mm x 150 mm, 3.5 um, Agilent
Retention time: 11.57 min
Precursor m/z: 303.2319
Precursor type: [M+H]+
m/z	relative intensity
43.0251	134
53.0422	36
55.024	79
55.0589	60
65.043	225
67.0578	109
77.0415	999
78.0507	54
79.0567	328
81.0713	30
83.0511	30
89.0408	24
91.0561	475
94.0442	30
97.0652	91
102.0453	36
103.0563	54
105.0716	73
107.0515	48
109.0648	48
115.054	213
127.0566	54
128.0629	152
141.0685	60
152.0606	48
165.0678	42
