Mass spectrum: Pethoxamid; LC-ESI-QTOF; MS2; 150 V
Name: Pethoxamid
Class: Herbicide
Formula: C16H22ClNO2
Exact mass: 295.1339
SMILES: CCOCCN(C(=O)CCl)C(=C(C)C)C1=CC=CC=C1
InChI: InChI=1S/C16H22ClNO2/c1-4-20-11-10-18(15(19)12-17)16(13(2)3)14-8-6-5-7-9-14/h5-9H,4,10-12H2,1-3H3
Instrument: TripleTOF 6600 SCIEX
Instrument type: LC-ESI-QTOF
Ms type: MS2
Ion mode: POSITIVE
Collision energy: 150
Fragmentation mode: CID
Ionization: ESI
Column name: Zorbax Eclipse Plus C18 2.1 mm x 150 mm, 3.5 um, Agilent
Retention time: 12.961 min
Precursor m/z: 296.1412
Precursor type: [M+H]+
m/z	relative intensity
37.007	196
38.0151	173
39.0229	999
41.0379	55
48.9836	39
49.0066	47
50.0146	275
51.0225	440
61.0063	141
62.0145	338
63.0223	511
65.0377	495
74.0143	188
75.0215	110
76.0286	55
77.0377	228
78.0459	55
86.0137	55
87.0211	55
88.0293	31
89.0374	361
91.0533	94
102.0454	86
115.0531	361
127.0528	55
128.061	31
