Mass spectrum: Bromacil; LC-ESI-QTOF; MS2; 80 V
Name: Bromacil
Class: Herbicide
Formula: C9H13BrN2O2
Exact mass: 260.016
SMILES: CCC(C)N1C(=O)C(=C(NC1=O)C)Br
InChI: InChI=1S/C9H13BrN2O2/c1-4-5(2)12-8(13)7(10)6(3)11-9(12)14/h5H,4H2,1-3H3,(H,11,14)
Instrument: TripleTOF 6600 SCIEX
Instrument type: LC-ESI-QTOF
Ms type: MS2
Ion mode: POSITIVE
Collision energy: 80
Fragmentation mode: CID
Ionization: ESI
Column name: Zorbax Eclipse Plus C18 2.1 mm x 150 mm, 3.5 um, Agilent
Retention time: 8.493 min
Precursor m/z: 261.0233
Precursor type: [M+H]+
m/z	relative intensity
44.0119	185
51.0084	111
52.0163	647
54.0322	999
55.0406	240
68.0109	203
69.0064	240
69.9901	185
83.0345	92
92.9309	259
104.931	628
105.9264	259
106.9091	92
106.9453	129
116.93	92
131.9416	554
