Mass spectrum: Fenoxycarb; LC-ESI-QTOF; MS2; 40 V
Name: Fenoxycarb
Class: Insecticide
Formula: C17H19NO4
Exact mass: 301.1314
SMILES: CCOC(=O)NCCOc1ccc(Oc2ccccc2)cc1
InChI: InChI=1S/C17H19NO4/c1-2-20-17(19)18-12-13-21-14-8-10-16(11-9-14)22-15-6-4-3-5-7-15/h3-11H,2,12-13H2,1H3,(H,18,19)
Instrument: TripleTOF 5600 SCIEX
Instrument type: LC-ESI-QTOF
Ms type: MS2
Ion mode: POSITIVE
Collision energy: 40
Fragmentation mode: CID
Ionization: ESI
Column name: Zorbax Eclipse Plus C18 2.1 mm x 150 mm, 3.5 um, Agilent
Retention time: 13.067 min
Precursor m/z: 302.1387
Precursor type: [M+H]+
m/z	relative intensity
42.0447	35
44.0594	272
65.0429	14
66.051	50
70.0328	308
77.0414	66
79.057	11
88.0416	999
91.0553	97
92.0632	18
94.0425	294
105.033	32
107.0492	95
109.0275	16
115.0534	55
116.07	635
118.0414	115
119.0488	41
119.0694	10
120.0562	188
121.0283	12
127.0534	12
128.0608	38
129.0693	218
133.028	16
134.0361	59
141.0694	191
142.0769	14
145.0591	13
146.0592	16
152.0614	43
153.069	12
155.0843	20
157.0644	77
158.0715	27
163.0623	133
165.0691	143
166.076	15
167.085	56
168.0548	13
169.0634	102
170.0717	27
176.0627	12
177.0694	40
181.0629	18
183.0797	129
185.0592	237
186.0666	415
187.0749	35
193.0655	42
195.0796	58
197.0622	18
198.0669	29
211.0742	64
213.0543	460
238.0862	35
256.0962	92
