Mass spectrum: Fenarimol; LC-ESI-QTOF; MS2; 90 V
Name: Fenarimol
Class: Fungicide
Formula: C17H12Cl2N2O
Exact mass: 330.0327
SMILES: C1=CC=C(C(=C1)C(C2=CC=C(C=C2)Cl)(C3=CN=CN=C3)O)Cl
InChI: InChI=1S/C17H12Cl2N2O/c18-14-7-5-12(6-8-14)17(22,13-9-20-11-21-10-13)15-3-1-2-4-16(15)19/h1-11,22H
Instrument: TripleTOF 6600 SCIEX
Instrument type: LC-ESI-QTOF
Ms type: MS2
Ion mode: POSITIVE
Collision energy: 90
Fragmentation mode: CID
Ionization: ESI
Column name: Zorbax Eclipse Plus C18 2.1 mm x 150 mm, 3.5 um, Agilent
Retention time: 11.9 min
Precursor m/z: 331.04
Precursor type: [M+H]+
m/z	relative intensity
50.0149	19
51.023	39
52.0175	27
54.0339	318
74.0152	165
75.0229	999
76.0297	31
77.0379	55
81.0442	165
84.9829	70
101.0379	31
102.0467	47
103.0546	23
110.9997	936
115.0536	23
126.0442	23
130.0656	31
139.0047	389
139.0545	27
140.0489	23
150.0465	47
151.0539	133
152.0612	90
161.0397	31
162.0476	43
163.0544	314
164.026	23
164.062	35
165.07	62
175.0543	27
176.0623	251
177.0684	82
178.0772	51
186.0463	35
187.055	660
188.0625	475
189.0705	829
190.0659	35
199.031	27
201.0557	15
202.065	58
203.0729	74
204.081	74
205.0645	66
212.0462	23
214.0656	133
215.072	23
216.0815	86
223.0313	51
238.0417	19
241.076	19
242.0831	51
