Mass spectrum: 4-Carboxy-9-acridanone; LC-ESI-QTOF; MS2; 90 V
Name: 4-Carboxy-9-acridanone
Class: Pharmaceutical; Antimicrobial
Formula: C14H9NO3
Exact mass: 239.0582
SMILES: c1ccc2c(c1)c(=O)c3cccc(c3[nH]2)C(=O)O
InChI: InChI=1S/C14H9NO3/c16-13-8-4-1-2-7-11(8)15-12-9(13)5-3-6-10(12)14(17)18/h1-7H,(H,15,16)(H,17,18)
Instrument: TripleTOF 5600 SCIEX
Instrument type: LC-ESI-QTOF
Ms type: MS2
Ion mode: NEGATIVE
Collision energy: 90
Fragmentation mode: CID
Ionization: ESI
Column name: Zorbax Eclipse Plus C18 2.1 mm x 150 mm, 3.5 um, Agilent
Retention time: 8.816 min
Precursor m/z: 238.051
Precursor type: [M-H]-
m/z	relative intensity
41.0041	133
42.0008	66
50.0049	66
63.011	133
65.0033	133
65.9992	532
73.0084	66
87.0114	66
88.0199	266
89.0289	199
90.0344	133
114.0342	266
138.0377	66
140.0556	199
144.0506	133
164.0523	999
165.0556	133
168.0457	199
192.0427	266
192.0592	133
193.0478	199
