Mass spectrum: Benzethonium; LC-ESI-QTOF; MS2; 20 V
Name: Benzethonium
Class: Pharmaceutical
Formula: [C27H42NO2]+
Exact mass: 412.321
SMILES: CC(C)(C)CC(C)(C)C1=CC=C(C=C1)OCCOCC[N+](C)(C)CC2=CC=CC=C2
InChI: InChI=1S/C27H42NO2/c1-26(2,3)22-27(4,5)24-13-15-25(16-14-24)30-20-19-29-18-17-28(6,7)21-23-11-9-8-10-12-23/h8-16H,17-22H2,1-7H3/q+1
Instrument: TripleTOF 5600 SCIEX
Instrument type: LC-ESI-QTOF
Ms type: MS2
Ion mode: POSITIVE
Collision energy: 20
Fragmentation mode: CID
Ionization: ESI
Column name: Zorbax Eclipse Plus C18 2.1 mm x 150 mm, 3.5 um, Agilent
Retention time: 11.461 min
Precursor m/z: 412.321
Precursor type: [M]+
m/z	relative intensity
320.259	50
412.3204	999
