Mass spectrum: Imazamox; LC-ESI-QTOF; MS2; 140 V
Name: Imazamox
Class: Herbicide
Formula: C15H19N3O4
Exact mass: 305.1376
SMILES: CC(C)C1(C(=O)NC(=N1)C2=C(C=C(C=N2)COC)C(=O)O)C
InChI: InChI=1S/C15H19N3O4/c1-8(2)15(3)14(21)17-12(18-15)11-10(13(19)20)5-9(6-16-11)7-22-4/h5-6,8H,7H2,1-4H3,(H,19,20)(H,17,18,21)
Instrument: TripleTOF 6600 SCIEX
Instrument type: LC-ESI-QTOF
Ms type: MS2
Ion mode: POSITIVE
Collision energy: 140
Fragmentation mode: CID
Ionization: ESI
Column name: Zorbax Eclipse Plus C18 2.1 mm x 150 mm, 3.5 um, Agilent
Retention time: 6.853 min
Precursor m/z: 306.1448
Precursor type: [M+H]+
m/z	relative intensity
35.998	52
37.0059	273
38.014	189
39.0218	809
41.0372	157
42.0325	325
43.0404	63
44.0477	42
45.0321	63
49.0052	84
50.0134	336
51.0213	357
52.0166	399
52.0289	63
53.0369	73
56.0477	147
59.9976	157
61.0058	999
62.0134	588
63.0088	42
63.021	641
64.0161	105
64.0287	73
65.0239	42
65.0368	105
70.0633	231
75.0083	136
76.0161	220
77.037	52
78.0313	168
85.9996	73
87.0081	189
88.0159	347
89.0232	52
90.0327	63
91.04	52
92.0475	42
