Mass spectrum: Fluconazole; LC-ESI-QTOF; MS2; 90 V
Name: Fluconazole
Class: Pharmaceutical
Formula: C13H12F2N6O
Exact mass: 306.1041
SMILES: OC(Cn1cncn1)(Cn2cncn2)c3ccc(F)cc3F
InChI: InChI=1S/C13H12F2N6O/c14-10-1-2-11(12(15)3-10)13(22,4-20-8-16-6-18-20)5-21-9-17-7-19-21/h1-3,6-9,22H,4-5H2
Instrument: TripleTOF 5600 SCIEX
Instrument type: LC-ESI-QTOF
Ms type: MS2
Ion mode: POSITIVE
Collision energy: 90
Fragmentation mode: CID
Ionization: ESI
Column name: Zorbax Eclipse Plus C18 2.1 mm x 150 mm, 3.5 um, Agilent
Retention time: 6.343 min
Precursor m/z: 307.1113
Precursor type: [M+H]+
m/z	relative intensity
51.027	39
57.0215	34
70.0439	675
74.0177	176
75.0078	19
75.0263	999
77.0224	24
77.0414	44
81.0159	68
82.0438	53
91.0557	19
93.013	73
95.0307	161
98.0158	210
99.0239	856
101.0253	93
101.0388	626
107.0293	264
113.0202	142
115.0354	19
119.0291	450
120.0388	44
121.0462	53
125.0204	151
125.036	19
126.0283	29
127.0352	430
129.0441	63
131.0287	93
138.0289	24
139.0354	63
141.0135	24
141.0229	39
147.0343	97
150.0264	29
151.0355	377
