Mass spectrum: 1,5,5-Trimethylhydantoin; LC-ESI-QTOF; MS2; 60 V
Name: 1,5,5-Trimethylhydantoin
Class: Pharmaceutical
Formula: C6H10N2O2
Exact mass: 142.0742
SMILES: CN1C(=O)NC(=O)C1(C)C
InChI: InChI=1S/C6H10N2O2/c1-6(2)4(9)7-5(10)8(6)3/h1-3H3,(H,7,9,10)
Instrument: TripleTOF 5600 SCIEX
Instrument type: LC-ESI-QTOF
Ms type: MS2
Ion mode: POSITIVE
Collision energy: 60
Fragmentation mode: CID
Ionization: ESI
Column name: Zorbax Eclipse Plus C18 2.1 mm x 150 mm, 3.5 um, Agilent
Retention time: 5.057 min
Precursor m/z: 143.0815
Precursor type: [M+H]+
m/z	relative intensity
42.0417	466
56.053	599
57.0612	466
60.9903	999
70.0677	266
72.0828	466
