Mass spectrum: Promethazine; LC-ESI-QTOF; MS2; 70 V
Name: Promethazine
Class: Pharmaceutical
Formula: C17H20N2S
Exact mass: 284.1347
SMILES: CC(CN1c2ccccc2Sc3c1cccc3)N(C)C
InChI: InChI=1S/C17H20N2S/c1-13(18(2)3)12-19-14-8-4-6-10-16(14)20-17-11-7-5-9-15(17)19/h4-11,13H,12H2,1-3H3
Instrument: TripleTOF 5600 SCIEX
Instrument type: LC-ESI-QTOF
Ms type: MS2
Ion mode: POSITIVE
Collision energy: 70
Fragmentation mode: CID
Ionization: ESI
Column name: Zorbax Eclipse Plus C18 2.1 mm x 150 mm, 3.5 um, Agilent
Retention time: 7.995 min
Precursor m/z: 285.142
Precursor type: [M+H]+
m/z	relative intensity
42.0444	41
43.0522	39
44.0579	24
56.0572	565
58.071	39
65.0434	20
68.9837	21
70.0691	112
71.0001	13
71.0788	999
77.0424	106
79.0585	26
84.0843	120
86.1008	944
89.0437	18
91.0566	21
101.0403	33
101.0529	10
103.0574	36
105.0715	29
108.0055	32
109.0128	66
115.0565	27
116.0541	11
121.0127	24
126.0485	29
127.0563	390
128.052	368
130.0677	82
136.0241	17
138.0494	12
139.0572	65
140.0515	96
145.0156	10
146.0071	9
147.0284	9
148.0255	18
151.0562	16
152.0583	59
153.061	102
154.0688	951
159.0162	26
164.0509	22
165.0704	77
166.0681	315
167.0761	82
170.0223	40
171.0289	329
172.0255	80
178.0749	66
179.0812	25
180.0838	43
190.0685	14
191.0759	34
192.0849	26
193.0922	68
196.0254	123
197.0326	503
198.0408	705
199.0518	12
204.084	43
206.1005	73
222.0425	28
223.0494	241
224.0568	115
225.0632	10
