Mass spectrum: Ethofumesate; LC-ESI-QTOF; MS2; 150 V
Name: Ethofumesate
Class: Herbicide
Formula: C13H18O5S
Exact mass: 286.0875
SMILES: CCOC1C(c2cc(ccc2O1)OS(=O)(=O)C)(C)C
InChI: InChI=1S/C13H18O5S/c1-5-16-12-13(2,3)10-8-9(18-19(4,14)15)6-7-11(10)17-12/h6-8,12H,5H2,1-4H3
Instrument: TripleTOF 6600 SCIEX
Instrument type: LC-ESI-QTOF
Ms type: MS2
Ion mode: POSITIVE
Collision energy: 150
Fragmentation mode: CID
Ionization: ESI
Column name: Zorbax Eclipse Plus C18 2.1 mm x 150 mm, 3.5 um, Agilent
Retention time: 12.56 min
Precursor m/z: 287.0948
Precursor type: [M+H]+
m/z	relative intensity
37.0066	199
39.0226	399
51.0223	999
65.0397	199
77.0384	599
