Mass spectrum: Alpha-hydroxy-metoprolol; LC-ESI-QTOF; MS2; 70 V
Name: Alpha-hydroxy-metoprolol
Class: Pharmaceutical; Metabolite
Formula: C15H25NO4
Exact mass: 283.1784
SMILES: COCC(O)c1ccc(OCC(O)CNC(C)C)cc1
InChI: InChI=1S/C15H25NO4/c1-11(2)16-8-13(17)9-20-14-6-4-12(5-7-14)15(18)10-19-3/h4-7,11,13,15-18H,8-10H2,1-3H3
Instrument: TripleTOF 5600 SCIEX
Instrument type: LC-ESI-QTOF
Ms type: MS2
Ion mode: POSITIVE
Collision energy: 70
Fragmentation mode: CID
Ionization: ESI
Column name: Zorbax Eclipse Plus C18 2.1 mm x 150 mm, 3.5 um, Agilent
Retention time: 5.057 min
Precursor m/z: 284.1856
Precursor type: [M+H]+
m/z	relative intensity
43.0252	30
44.0605	11
45.0414	76
56.0558	315
58.0724	66
65.0432	184
70.0693	23
72.0839	43
74.0629	117
75.0474	11
77.0419	857
78.0491	204
79.0573	229
84.082	10
89.0403	78
90.0483	87
91.0562	999
94.0468	10
100.1117	11
102.0455	18
102.0559	13
103.0551	313
104.0644	14
105.0337	99
105.07	203
106.0415	224
107.0499	90
115.0544	137
116.0602	13
116.1049	10
117.0698	31
118.0416	104
119.049	61
120.0587	11
121.0664	13
127.0528	76
128.0614	178
129.0693	10
131.0483	45
133.064	28
134.0699	11
145.0665	27
147.0448	81
