Mass spectrum: C-desmethyl-metoprolol; LC-ESI-QTOF; MS2; 100 V
Name: C-desmethyl-metoprolol
Formula: C14H23NO3
Exact mass: 253.1678
SMILES: CCNCC(COC1=CC=C(C=C1)CCOC)O
InChI: InChI=1S/C14H23NO3/c1-3-15-10-13(16)11-18-14-6-4-12(5-7-14)8-9-17-2/h4-7,13,15-16H,3,8-11H2,1-2H3
Instrument: TripleTOF 5600 SCIEX
Instrument type: LC-ESI-QTOF
Ms type: MS2
Ion mode: POSITIVE
Collision energy: 100
Fragmentation mode: CID
Ionization: ESI
Column name: Zorbax Eclipse Plus C18 2.1 mm x 150 mm, 3.5 um, Agilent
Retention time: 5.422 min
Precursor m/z: 254.1751
Precursor type: [M+H]+
m/z	relative intensity
39.0233	72
41.0384	36
44.0498	45
45.0332	27
50.0151	113
51.0232	479
56.0491	40
58.0652	275
62.0158	22
63.0221	49
65.0386	162
70.0643	22
74.0146	22
76.0314	27
77.0386	999
78.0459	31
79.0537	49
89.0379	72
91.054	221
102.0475	49
103.0538	49
105.0424	22
115.0538	85
