Mass spectrum: Tributylmethylammonium; LC-ESI-QTOF; MS2; 80 V
Name: Tributylmethylammonium
Formula: C13H30N
Exact mass: 200.2373
SMILES: CCCC[N+](C)(CCCC)CCCC
InChI: InChI=1S/C13H30N/c1-5-8-11-14(4,12-9-6-2)13-10-7-3/h5-13H2,1-4H3/q+1
Instrument: TripleTOF 5600 SCIEX
Instrument type: LC-ESI-QTOF
Ms type: CID
Ion mode: POSITIVE
Collision energy: 80
Ionization: ESI
Column name: Zorbax Eclipse Plus C18 2.1 mm x 150 mm, 3.5 um, Agilent
Retention time: 7.009 min
Precursor m/z: 200.2373
Precursor type: [M]+
m/z	relative intensity
42.0439	113
44.0588	243
57.0753	124
58.071	999
