Mass spectrum: Antipyrine; LC-ESI-QTOF; MS2; 30 V
Name: Antipyrine
Class: Pharmaceutical
Formula: C11H12N2O
Exact mass: 188.095
SMILES: CN1N(C(=O)C=C1C)c2ccccc2
InChI: InChI=1S/C11H12N2O/c1-9-8-11(14)13(12(9)2)10-6-4-3-5-7-10/h3-8H,1-2H3
Instrument: TripleTOF 5600 SCIEX
Instrument type: LC-ESI-QTOF
Ms type: MS2
Ion mode: POSITIVE
Collision energy: 30
Fragmentation mode: CID
Ionization: ESI
Column name: Zorbax Eclipse Plus C18 2.1 mm x 150 mm, 3.5 um, Agilent
Retention time: 6.261 min
Precursor m/z: 189.1022
Precursor type: [M+H]+
m/z	relative intensity
56.0545	191
58.0702	136
65.042	32
69.06	10
77.0412	140
79.056	17
81.0459	18
91.0549	68
92.0502	13
93.0334	11
95.0609	25
96.0686	68
98.0601	41
103.0534	27
104.0495	231
105.0339	16
105.0702	13
106.0649	165
115.0532	31
117.0679	93
118.0646	126
120.08	83
128.0488	13
129.0561	22
130.0643	163
131.0721	208
132.0791	87
133.0511	21
133.0736	23
134.0947	21
143.0712	14
144.0805	144
145.0707	114
146.084	169
147.0911	247
148.074	10
149.0703	18
157.0507	27
159.0915	11
160.0989	10
161.1067	93
172.0756	27
173.0705	13
174.0782	124
189.1026	999
