Mass spectrum: Fluconazole; LC-ESI-QTOF; MS2; 140 V
Name: Fluconazole
Class: Pharmaceutical
Formula: C13H12F2N6O
Exact mass: 306.1041
SMILES: OC(Cn1cncn1)(Cn2cncn2)c3ccc(F)cc3F
InChI: InChI=1S/C13H12F2N6O/c14-10-1-2-11(12(15)3-10)13(22,4-20-8-16-6-18-20)5-21-9-17-7-19-21/h1-3,6-9,22H,4-5H2
Instrument: TripleTOF 5600 SCIEX
Instrument type: LC-ESI-QTOF
Ms type: MS2
Ion mode: POSITIVE
Collision energy: 140
Fragmentation mode: CID
Ionization: ESI
Column name: Zorbax Eclipse Plus C18 2.1 mm x 150 mm, 3.5 um, Agilent
Retention time: 6.343 min
Precursor m/z: 307.1113
Precursor type: [M+H]+
m/z	relative intensity
51.0114	44
51.0278	132
57.0183	106
70.0434	415
70.0578	97
73.0133	61
74.0187	999
75.0066	150
75.0258	610
81.0162	106
92.0054	53
93.0141	97
95.0319	53
97.0076	70
98.0166	822
99.0249	185
101.0208	132
107.029	53
