Mass spectrum: Clopidogrel carboxylic acid; LC-ESI-QTOF; MS2; 150 V
Name: Clopidogrel carboxylic acid
Class: Pharmaceutical
Formula: C15H14ClNO2S
Exact mass: 307.0434
SMILES: C1CN(CC2=C1SC=C2)C(C3=CC=CC=C3Cl)C(=O)O
InChI: InChI=1S/C15H14ClNO2S/c16-12-4-2-1-3-11(12)14(15(18)19)17-7-5-13-10(9-17)6-8-20-13/h1-4,6,8,14H,5,7,9H2,(H,18,19)
Instrument: TripleTOF 6600 SCIEX
Instrument type: LC-ESI-QTOF
Ms type: MS2
Ion mode: POSITIVE
Collision energy: 150
Fragmentation mode: CID
Ionization: ESI
Column name: Zorbax Eclipse Plus C18 2.1 mm x 150 mm, 3.5 um, Agilent
Retention time: 6.621 min
Precursor m/z: 308.0507
Precursor type: [M+H]+
m/z	relative intensity
37.0081	19
38.0162	15
39.0236	44
44.9796	23
48.9846	14
49.0081	150
50.016	727
51.0239	999
52.0312	32
61.0077	47
62.0156	95
63.0237	147
64.0309	13
65.0393	15
68.981	19
72.9846	69
74.0156	55
75.0235	28
77.0394	126
78.0468	22
89.0391	147
90.0467	20
99.0001	14
