Mass spectrum: Quinoxyfen; LC-ESI-QTOF; MS2; 150 V
Name: Quinoxyfen
Class: Fungicide
Formula: C15H8Cl2FNO
Exact mass: 306.9967
SMILES: C1=CC(=CC=C1OC2=C3C(=CC(=CC3=NC=C2)Cl)Cl)F
InChI: InChI=1S/C15H8Cl2FNO/c16-9-7-12(17)15-13(8-9)19-6-5-14(15)20-11-3-1-10(18)2-4-11/h1-8H
Instrument: TripleTOF 6600 SCIEX
Instrument type: LC-ESI-QTOF
Ms type: MS2
Ion mode: POSITIVE
Collision energy: 150
Fragmentation mode: CID
Ionization: ESI
Column name: Zorbax Eclipse Plus C18 2.1 mm x 150 mm, 3.5 um, Agilent
Retention time: 15.195 min
Precursor m/z: 308.004
Precursor type: [M+H]+
m/z	relative intensity
37.0066	25
38.0143	22
39.0222	16
49.0061	29
50.0144	85
51.0219	24
57.0124	13
59.9974	25
61.0059	115
62.0139	141
63.0217	79
68.0043	21
69.0122	26
72.9843	57
73.0056	236
74.014	999
75.0097	21
75.0214	123
76.0174	29
81.0122	13
84.982	11
85.0054	43
86.0137	67
87.0215	55
88.0173	14
88.0295	22
89.0373	25
96.9824	19
97.006	54
98.0134	331
99.0085	63
99.0215	49
100.0159	36
108.983	10
109.0045	12
110.0127	21
114.0329	11
122.0152	10
123.0051	31
161.0372	12
179.028	19
180.0355	10
181.0426	13
