Mass spectrum: N-Isopropyl-N'-phenyl-p-phenylenediamine; LC-ESI-QTOF; MS2; 140 V
Name: N-Isopropyl-N'-phenyl-p-phenylenediamine
Class: Industrial_process
Formula: C15H18N2
Exact mass: 226.147
SMILES: CC(C)Nc1ccc(cc1)Nc2ccccc2
InChI: InChI=1S/C15H18N2/c1-12(2)16-14-8-10-15(11-9-14)17-13-6-4-3-5-7-13/h3-12,16-17H,1-2H3
Instrument: TripleTOF 6600 SCIEX
Instrument type: LC-ESI-QTOF
Ms type: MS2
Ion mode: POSITIVE
Collision energy: 140
Fragmentation mode: CID
Ionization: ESI
Column name: Zorbax Eclipse Plus C18 2.1 mm x 150 mm, 3.5 um, Agilent
Retention time: 7.24 min
Precursor m/z: 227.1543
Precursor type: [M+H]+
m/z	relative intensity
35.9991	68
37.0068	471
38.0024	43
38.0146	359
39.0223	999
41.0252	43
49.0073	93
50.0147	707
51.0223	856
52.0173	155
52.0304	31
53.0378	378
54.0328	117
59.9984	55
61.0064	304
62.0141	558
63.0223	645
64.019	55
65.0385	55
66.033	24
73.0054	43
74.0143	335
75.021	148
76.0173	43
77.0375	130
78.0332	49
80.048	217
85.0069	86
86.0131	130
87.0216	148
89.0365	117
98.0127	62
99.0216	31
101.0414	37
102.0468	31
110.0155	31
113.0358	55
126.043	37
139.0526	43
