Mass spectrum: Quinoxyfen; LC-ESI-QTOF; MS2; 140 V
Name: Quinoxyfen
Class: Fungicide
Formula: C15H8Cl2FNO
Exact mass: 306.9967
SMILES: C1=CC(=CC=C1OC2=C3C(=CC(=CC3=NC=C2)Cl)Cl)F
InChI: InChI=1S/C15H8Cl2FNO/c16-9-7-12(17)15-13(8-9)19-6-5-14(15)20-11-3-1-10(18)2-4-11/h1-8H
Instrument: TripleTOF 6600 SCIEX
Instrument type: LC-ESI-QTOF
Ms type: MS2
Ion mode: POSITIVE
Collision energy: 140
Fragmentation mode: CID
Ionization: ESI
Column name: Zorbax Eclipse Plus C18 2.1 mm x 150 mm, 3.5 um, Agilent
Retention time: 15.195 min
Precursor m/z: 308.004
Precursor type: [M+H]+
m/z	relative intensity
37.0065	24
38.0146	20
39.0221	19
49.0054	18
50.0141	75
51.0213	23
57.0121	14
59.9982	18
61.0057	84
62.0142	127
63.0217	84
68.0039	18
69.0123	35
72.9833	70
73.0057	192
74.014	999
75.0097	18
75.0213	162
76.0163	42
81.0125	10
84.9822	14
85.0055	30
86.0132	63
87.0213	51
88.0171	16
88.029	35
89.0369	34
96.9828	32
97.0054	41
98.0134	364
99.0092	51
99.0193	88
100.017	32
100.0285	16
108.9819	15
109.0055	10
110.0127	15
111.0224	11
114.0326	17
115.0391	14
122.9991	57
155.0261	10
161.0372	18
179.027	22
180.0357	18
181.0432	25
