Mass spectrum: Triphenylphosphine sulfide; LC-ESI-QTOF; MS2; 150 V
Name: Triphenylphosphine sulfide
Class: Industrial_process
Formula: C18H15PS
Exact mass: 294.0632
SMILES: S=[P](c1ccccc1)(c2ccccc2)c3ccccc3
InChI: InChI=1S/C18H15PS/c20-19(16-10-4-1-5-11-16,17-12-6-2-7-13-17)18-14-8-3-9-15-18/h1-15H
Instrument: TripleTOF 5600 SCIEX
Instrument type: LC-ESI-QTOF
Ms type: MS2
Ion mode: POSITIVE
Collision energy: 150
Fragmentation mode: CID
Ionization: ESI
Column name: Zorbax Eclipse Plus C18 2.1 mm x 150 mm, 3.5 um, Agilent
Retention time: 14.508 min
Precursor m/z: 295.0705
Precursor type: [M+H]+
m/z	relative intensity
51.0282	266
55.9867	45
56.9943	99
62.0294	30
62.9499	999
65.0445	38
67.9839	53
74.0185	129
75.0245	68
76.0337	68
77.0435	68
78.9752	61
79.9839	259
80.9911	335
86.0161	76
87.0242	76
89.0416	99
91.9836	45
98.0154	61
99.0236	30
102.0481	53
103.9832	45
104.9929	53
107.0056	434
113.0388	30
115.0557	53
126.0467	183
131.0027	53
150.0464	221
151.0543	122
152.0619	76
155.0019	38
156.0125	53
157.0207	38
179.0041	106
180.0138	53
181.0211	91
