Mass spectrum: Ethyltriphenylphosphonium; LC-ESI-QTOF; MS2; 50 V
Name: Ethyltriphenylphosphonium
Class: Industrial_process
Formula: C20H20P
Exact mass: 291.1297
InChI: InChI=1S/C20H20P/c1-2-21(18-12-6-3-7-13-18,19-14-8-4-9-15-19)20-16-10-5-11-17-20/h3-17H,2H2,1H3/q+1
Instrument: TripleTOF 5600 SCIEX
Instrument type: LC-ESI-QTOF
Ms type: CID
Ion mode: POSITIVE
Collision energy: 50
Ionization: ESI
Column name: Zorbax Eclipse Plus C18 2.1 mm x 150 mm, 3.5 um, Agilent
Retention time: 7.392 min
Precursor m/z: 291.1297
Precursor type: [M]+
m/z	relative intensity
107.0033	127
108.0109	362
183.0358	999
184.0434	86
185.0516	185
261.0835	417
262.0914	193
275.0986	130
291.1303	222
