Mass spectrum: (4-Chloro-2-methylphenoxy)acetic acid; LC-ESI-QTOF; MS2; 90 V
Name: (4-Chloro-2-methylphenoxy)acetic acid
Class: Herbicide; Transformation_product
Formula: C9H9ClO3
Exact mass: 200.024
SMILES: CC1=C(C=CC(=C1)Cl)OCC(=O)O
InChI: InChI=1S/C9H9ClO3/c1-6-4-7(10)2-3-8(6)13-5-9(11)12/h2-4H,5H2,1H3,(H,11,12)
Instrument: TripleTOF 6600 SCIEX
Instrument type: LC-ESI-QTOF
Ms type: MS2
Ion mode: NEGATIVE
Collision energy: 90
Fragmentation mode: CID
Ionization: ESI
Column name: Zorbax Eclipse Plus C18 2.1 mm x 150 mm, 3.5 um, Agilent
Retention time: 10.052 min
Precursor m/z: 199.0167
Precursor type: [M-H]-
m/z	relative intensity
34.9676	999
