Mass spectrum: Ketorolac; LC-ESI-QTOF; MS2; 70 V
Name: Ketorolac
Class: Pharmaceutical
Formula: C15H13NO3
Exact mass: 255.0895
InChI: InChI=1S/C15H13NO3/c17-14(10-4-2-1-3-5-10)13-7-6-12-11(15(18)19)8-9-16(12)13/h1-7,11H,8-9H2,(H,18,19)
Instrument: TripleTOF 6600 SCIEX
Instrument type: LC-ESI-QTOF
Ms type: CID
Ion mode: POSITIVE
Collision energy: 70
Ionization: ESI
Column name: Zorbax Eclipse Plus C18 2.1 mm x 150 mm, 3.5 um, Agilent
Retention time: 9.499 min
Precursor m/z: 256.0968
Precursor type: [M+H]+
m/z	relative intensity
50.0149	30
51.0227	163
65.0385	27
77.0386	999
78.0332	17
78.0459	27
79.054	20
104.0492	44
105.0329	37
105.0452	20
105.0566	98
