Mass spectrum: 3-Amino-5-methylisoxazole; LC-ESI-QTOF; MS2; 90 V
Name: 3-Amino-5-methylisoxazole
Formula: C4H6N2O
Exact mass: 98.048
SMILES: CC1=CC(=NO1)N
InChI: InChI=1S/C4H6N2O/c1-3-2-4(5)6-7-3/h2H,1H3,(H2,5,6)
Instrument: TripleTOF 6600 SCIEX
Instrument type: LC-ESI-QTOF
Ms type: MS2
Ion mode: POSITIVE
Collision energy: 90
Fragmentation mode: CID
Ionization: ESI
Column name: Zorbax Eclipse Plus C18 2.1 mm x 150 mm, 3.5 um, Agilent
Retention time: 4.412 min
Precursor m/z: 99.0553
Precursor type: [M+H]+
m/z	relative intensity
37.0062	166
38.0011	121
38.0144	166
39.0218	105
40.0168	136
42.0209	317
42.0321	60
43.0173	136
43.0281	999
52.0178	60
