Mass spectrum: Dexamethasone; LC-ESI-QTOF; MS2; 60 V
Name: Dexamethasone
Class: Pharmaceutical
Formula: C22H29FO5
Exact mass: 392.1999
SMILES: C[C@@H]1C[C@H]2[C@@H]3CCC4=CC(=O)C=C[C@@]4([C@]3([C@H](C[C@@]2([C@]1(C(=O)CO)O)C)O)F)C
InChI: InChI=1S/C22H29FO5/c1-12-8-16-15-5-4-13-9-14(25)6-7-19(13,2)21(15,23)17(26)10-20(16,3)22(12,28)18(27)11-24/h6-7,9,12,15-17,24,26,28H,4-5,8,10-11H2,1-3H3/t12-,15+,16+,17+,19+,20+,21+,22+/m1/s1
Instrument: TripleTOF 5600 SCIEX
Instrument type: LC-ESI-QTOF
Ms type: MS2
Ion mode: POSITIVE
Collision energy: 60
Fragmentation mode: CID
Ionization: ESI
Column name: Zorbax Eclipse Plus C18 2.1 mm x 150 mm, 3.5 um, Agilent
Retention time: 9.089 min
Precursor m/z: 393.2072
Precursor type: [M+H]+
m/z	relative intensity
43.0295	72
55.0341	11
65.0457	28
67.0595	129
69.0393	28
69.0764	31
71.0205	20
77.0428	230
79.0591	184
81.0411	11
81.0742	75
83.0535	20
91.0581	658
93.0731	222
95.0526	49
95.0889	147
97.0692	25
99.0477	11
102.0508	11
103.0564	77
104.0639	20
105.0728	482
107.0517	89
107.0885	256
109.0471	11
109.0672	43
109.1024	57
111.0833	40
115.0569	265
116.0651	57
117.0724	222
119.0492	14
119.0547	11
119.088	516
121.0662	854
121.1037	57
123.082	57
125.0623	40
125.1001	17
127.0556	98
128.0639	433
129.071	242
130.0785	49
131.0512	83
131.0876	199
132.0572	199
133.0653	80
133.103	92
134.076	14
135.0818	216
137.0631	14
137.0911	14
139.0528	20
141.071	285
142.0795	179
143.0866	320
144.0556	135
144.0922	25
145.0662	317
145.1025	115
146.0726	121
147.0812	999
149.0968	43
151.0759	20
152.064	69
153.0706	112
154.078	63
155.054	28
155.0853	236
156.0557	51
156.0963	57
157.0653	80
157.1029	86
158.0732	306
159.0814	412
159.1167	31
160.0902	37
161.0717	17
161.0968	150
163.075	37
164.062	11
165.0696	236
166.0777	89
167.0854	118
168.0548	40
168.093	37
169.0666	109
169.1018	75
170.074	77
171.0813	580
171.1203	11
172.0911	80
173.0959	179
175.1115	14
176.0571	14
177.0649	25
178.0776	277
179.086	467
180.0935	106
181.0657	153
181.0999	101
182.0721	127
182.1081	20
183.0816	164
183.1166	25
184.0897	46
185.0962	184
186.1024	17
187.0734	20
187.1101	25
189.0701	225
190.0776	127
191.0853	202
192.0929	190
193.0651	11
193.1009	204
194.0737	77
194.1091	150
195.0806	346
195.116	75
196.0871	222
197.0957	259
198.1038	57
199.1102	43
201.0889	14
202.0779	127
203.0846	236
204.0939	204
205.0664	46
205.1013	176
206.0753	31
206.1118	95
207.0807	236
207.1158	95
208.0868	346
209.0962	418
209.1316	60
210.068	14
210.1023	173
211.0766	20
211.1101	112
212.1099	20
212.1251	20
213.087	31
213.1294	25
215.0818	127
216.0929	72
217.0996	112
218.0701	51
218.1074	54
219.0828	196
219.1155	132
220.0899	129
220.1218	46
221.0955	343
221.1285	40
222.1025	652
223.1101	236
224.0812	23
224.1185	77
225.0916	23
225.1254	46
226.0813	17
226.0972	14
227.0898	34
228.094	72
229.1017	158
230.1081	77
231.0739	25
231.0861	54
231.1142	101
232.0908	115
232.123	25
233.0949	239
233.1298	34
234.1008	124
235.1089	280
235.1486	23
236.1195	60
237.1271	187
238.0988	23
238.1313	23
239.1411	40
240.0912	14
241.0916	14
241.1077	25
242.1089	37
243.1162	129
244.0843	54
244.1279	23
245.096	176
245.1296	46
246.1023	153
246.1488	23
247.1116	277
247.1445	28
248.1185	228
249.1253	150
251.1419	23
252.0935	11
252.1477	23
253.1075	28
255.1145	14
256.0873	20
256.1215	17
257.0862	11
257.1374	23
258.1029	63
259.1111	109
260.1213	46
261.1278	190
261.1569	14
261.181	14
262.132	103
263.1417	233
264.1473	17
267.1165	11
267.1697	11
270.1006	17
271.1087	72
271.1355	14
272.1163	31
273.1243	34
274.127	17
274.1418	20
275.13	17
275.1459	28
276.1211	14
276.1449	23
277.1157	14
277.1518	28
285.1226	31
286.1378	40
287.1461	20
289.1233	23
301.1541	14
