Mass spectrum: Acetylsulfamethoxazole; LC-ESI-QTOF; MS2; 50 V
Name: Acetylsulfamethoxazole
Class: Metabolite; Pharmaceutical; Transformation_product-Metabolite
Formula: C12H13N3O4S
Exact mass: 295.0627
SMILES: CC1=CC(=NO1)NS(=O)(=O)C2=CC=C(C=C2)NC(=O)C
InChI: InChI=1S/C12H13N3O4S/c1-8-7-12(14-19-8)15-20(17,18)11-5-3-10(4-6-11)13-9(2)16/h3-7H,1-2H3,(H,13,16)(H,14,15)
Instrument: TripleTOF 5600 SCIEX
Instrument type: LC-ESI-QTOF
Ms type: MS2
Ion mode: POSITIVE
Collision energy: 50
Fragmentation mode: CID
Ionization: ESI
Column name: Zorbax Eclipse Plus C18 2.1 mm x 150 mm, 3.5 um, Agilent
Retention time: 7.411 min
Precursor m/z: 296.07
Precursor type: [M+H]+
m/z	relative intensity
43.0316	29
65.0467	999
77.0442	45
78.0393	12
79.0605	53
80.0545	135
92.0526	370
93.0374	326
93.0595	215
94.0685	111
99.0588	65
105.0463	12
106.0665	82
107.0631	70
108.0467	595
118.0543	9
119.0624	41
131.0607	48
132.0687	29
133.0707	19
134.0609	437
136.0757	24
140.015	12
143.0611	26
146.0718	195
147.0798	91
148.0782	12
149.0213	14
156.0167	12
159.0831	9
160.0871	118
175.0195	12
176.0312	19
201.0672	14
