Mass spectrum: 2-Ethylhexyl diphenyl phosphate; LC-ESI-QTOF; MS2; 120 V
Name: 2-Ethylhexyl diphenyl phosphate
Class: Industrial_process
Formula: C20H27O4P
Exact mass: 362.1647
SMILES: CCCCC(CC)COP(=O)(OC1=CC=CC=C1)OC2=CC=CC=C2
InChI: InChI=1S/C20H27O4P/c1-3-5-12-18(4-2)17-22-25(21,23-19-13-8-6-9-14-19)24-20-15-10-7-11-16-20/h6-11,13-16,18H,3-5,12,17H2,1-2H3
Instrument: TripleTOF 5600 SCIEX
Instrument type: LC-ESI-QTOF
Ms type: MS2
Ion mode: POSITIVE
Collision energy: 120
Fragmentation mode: CID
Ionization: ESI
Column name: Zorbax Eclipse Plus C18 2.1 mm x 150 mm, 3.5 um, Agilent
Retention time: 16.989 min
Precursor m/z: 363.172
Precursor type: [M+H]+
m/z	relative intensity
41.0398	43
43.0554	37
49.0085	37
50.016	206
51.0238	999
57.0713	56
71.0862	31
77.0397	867
126.0479	137
139.0542	87
150.0481	124
151.0563	318
152.0628	262
