Mass spectrum: Cyanazine; LC-ESI-QTOF; MS2; 50 V
Name: Cyanazine
Class: Herbicide
Formula: C9H13ClN6
Exact mass: 240.089
SMILES: CCNc1nc(Cl)nc(NC(C)(C)C#N)n1
InChI: InChI=1S/C9H13ClN6/c1-4-12-7-13-6(10)14-8(15-7)16-9(2,3)5-11/h4H2,1-3H3,(H2,12,13,14,15,16)
Instrument: TripleTOF 5600 SCIEX
Instrument type: LC-ESI-QTOF
Ms type: MS2
Ion mode: POSITIVE
Collision energy: 50
Fragmentation mode: CID
Ionization: ESI
Column name: Zorbax Eclipse Plus C18 2.1 mm x 150 mm, 3.5 um, Agilent
Retention time: 9.107 min
Precursor m/z: 241.0963
Precursor type: [M+H]+
m/z	relative intensity
43.0392	179
56.0559	9
58.0714	27
61.9844	291
67.0323	22
68.0289	999
71.0637	305
79.0089	169
83.0624	195
90.0122	20
96.0561	225
96.0934	16
104.0016	822
104.0301	20
108.0531	22
108.0627	11
110.0464	27
110.0722	27
119.0363	29
132.0319	119
136.086	27
138.0766	18
138.0954	13
146.0216	34
146.0337	11
172.036	13
174.0529	22
214.0815	22
