Mass spectrum: Norethynodrel; LC-ESI-QTOF; MS2; 40 V
Name: Norethynodrel
Class: Pharmaceutical
Formula: C20H26O2
Exact mass: 298.1933
SMILES: C[C@]12CC[C@H]3[C@@H](CCC4=C3CCC(=O)C4)[C@@H]1CC[C@@]2(O)C#C
InChI: InChI=1S/C20H26O2/c1-3-20(22)11-9-18-17-6-4-13-12-14(21)5-7-15(13)16(17)8-10-19(18,20)2/h1,16-18,22H,4-12H2,2H3/t16-,17-,18+,19+,20+/m1/s1
Instrument: TripleTOF 5600 SCIEX
Instrument type: LC-ESI-QTOF
Ms type: MS2
Ion mode: POSITIVE
Collision energy: 40
Fragmentation mode: CID
Ionization: ESI
Column name: Zorbax Eclipse Plus C18 2.1 mm x 150 mm, 3.5 um, Agilent
Retention time: 11.133 min
Precursor m/z: 299.2006
Precursor type: [M+H]+
m/z	relative intensity
43.0274	10
53.0423	12
55.022	11
55.0591	50
65.0416	40
67.0578	116
69.073	16
77.0409	186
79.0566	382
81.0347	10
81.0716	306
83.0507	438
91.056	557
93.0711	238
95.051	28
95.0864	106
97.0651	25
103.0545	57
105.0701	401
107.0491	188
107.0847	124
109.0652	999
109.0982	68
111.0795	34
115.0542	182
116.0613	48
117.0695	274
119.0849	357
121.0638	44
121.1005	111
123.0796	76
123.1164	24
127.0526	36
128.0617	193
129.0691	258
130.0767	72
131.0514	12
131.0853	285
133.0635	36
133.1001	119
135.0797	224
135.115	44
137.0957	17
141.0691	140
142.0763	96
143.0849	284
144.0907	32
145.0654	17
145.1004	253
146.0716	10
147.0793	68
147.1144	33
149.0954	113
149.1285	15
152.0603	10
153.0693	47
154.0782	42
155.0848	113
156.0938	62
157.0636	11
157.1003	183
158.106	12
159.0804	47
159.1157	101
161.0967	103
161.1307	62
163.1112	59
165.0702	63
166.076	29
167.0843	71
168.0924	38
169.1001	142
170.1092	15
171.1163	224
173.0978	27
173.1319	110
175.1108	69
177.1268	10
178.0762	37
179.0865	54
180.0931	29
181.0996	76
182.1101	20
183.1149	97
184.1255	12
185.0958	40
185.1314	87
187.1107	28
187.1466	31
188.1179	18
189.1268	29
191.0835	27
192.0932	18
193.1019	71
194.1067	19
195.1166	71
196.1244	12
197.099	11
197.131	57
199.1119	21
199.148	35
201.1267	32
202.1361	10
203.1448	14
205.1	28
206.1079	28
207.1159	58
208.1229	19
209.1325	34
211.1127	12
211.1475	86
213.1261	17
213.1615	119
215.1432	16
219.1147	19
220.124	14
221.1306	57
223.1462	93
225.1252	21
225.1621	11
227.1424	16
229.1632	16
231.1743	284
233.1361	14
234.1409	10
235.1474	36
237.1631	31
239.1414	20
239.1806	32
241.1588	18
248.1571	16
253.1583	34
263.1784	63
266.1631	11
281.1886	121
299.1995	478
