Mass spectrum: Fluxapyroxad; LC-ESI-QTOF; MS2; 120 V
Name: Fluxapyroxad
Class: Fungicide
Formula: C18H12F5N3O
Exact mass: 381.0901
SMILES: Cn1cc(c(n1)C(F)F)C(=O)Nc2ccccc2c3cc(c(c(c3)F)F)F
InChI: InChI=1S/C18H12F5N3O/c1-26-8-11(16(25-26)17(22)23)18(27)24-14-5-3-2-4-10(14)9-6-12(19)15(21)13(20)7-9/h2-8,17H,1H3,(H,24,27)
Instrument: TripleTOF 6600 SCIEX
Instrument type: LC-ESI-QTOF
Ms type: MS2
Ion mode: POSITIVE
Collision energy: 120
Fragmentation mode: CID
Ionization: ESI
Column name: Zorbax Eclipse Plus C18 2.1 mm x 150 mm, 3.5 um, Agilent
Retention time: 12.239 min
Precursor m/z: 382.0973
Precursor type: [M+H]+
m/z	relative intensity
42.0332	50
51.0035	29
51.0223	18
57.013	43
61.0066	14
62.014	21
63.0224	29
69.0125	14
74.014	32
75.0031	21
75.022	21
81.0124	39
83.0281	14
85.0059	36
86.014	32
87.0223	43
88.0131	25
93.0119	18
94.0209	18
98.0139	83
99.0054	25
99.0224	18
105.0125	36
106.0201	29
107.0285	39
109.0067	21
110.0141	87
111.0216	87
112.0128	39
114.0325	29
116.0043	25
117.0122	39
118.0207	14
119.0084	18
122.0133	123
123.0077	21
123.02	29
125.0184	29
129.012	36
131.029	39
132.0208	25
134.0137	61
135.0215	119
136.0143	36
137.037	21
138.0274	21
140.0042	14
141.0125	105
143.0105	18
146.0147	225
147.0081	29
147.0216	138
148.0165	14
149.0183	32
149.036	21
151.0354	47
153.0121	18
154.02	21
155.0286	123
156.0181	58
156.0362	65
157.0434	90
160.0127	36
161.0179	43
162.0272	69
165.0117	29
166.02	61
167.0104	18
167.0281	130
168.0365	156
169.0255	50
171.0097	69
172.0181	50
173.0182	36
175.0359	87
176.0295	18
179.0277	58
180.018	145
181.0396	43
182.0372	29
184.0117	65
185.0191	196
186.0268	999
187.0342	123
188.043	79
191.0252	21
192.0233	65
193.0288	108
194.0203	18
194.042	18
195.046	29
197.02	54
198.0278	36
199.0342	148
200.0298	72
203.0083	25
203.0295	25
204.0184	348
205.0255	181
205.042	50
206.0338	479
207.0469	29
208.0517	29
210.0267	43
211.0226	148
212.0395	43
213.0368	50
215.0313	18
217.0255	232
218.034	47
218.0546	21
219.0413	69
220.0376	21
222.0279	54
223.034	167
224.0307	141
225.0413	58
226.0459	54
230.0359	39
231.0297	94
233.05	14
240.0208	21
241.0249	72
242.0312	94
243.0415	98
244.0358	43
249.0354	36
250.0458	39
251.0438	32
254.0337	18
256.0549	18
257.0463	18
262.0421	21
263.0544	14
268.0353	21
