Mass spectrum: 2-(3-Pyridyl)-1H-benzimidazole; LC-ESI-QTOF; MS2; 70 V
Name: 2-(3-Pyridyl)-1H-benzimidazole
Class: Pharmaceutical
Formula: C12H9N3
Exact mass: 195.0796
SMILES: C1=CC=C2C(=C1)NC(=N2)C3=CN=CC=C3
InChI: InChI=1S/C12H9N3/c1-2-6-11-10(5-1)14-12(15-11)9-4-3-7-13-8-9/h1-8H,(H,14,15)
Instrument: TripleTOF 5600 SCIEX
Instrument type: LC-ESI-QTOF
Ms type: MS2
Ion mode: POSITIVE
Collision energy: 70
Fragmentation mode: CID
Ionization: ESI
Column name: Zorbax Eclipse Plus C18 2.1 mm x 150 mm, 3.5 um, Agilent
Retention time: 5.155 min
Precursor m/z: 196.0869
Precursor type: [M+H]+
m/z	relative intensity
35.9995	10
37.0071	51
38.0149	43
39.0231	330
51.0231	69
65.0387	999
77.0386	20
78.0336	28
79.0419	14
89.0384	11
91.0418	14
92.0497	53
102.0344	15
105.0446	12
115.053	24
140.0492	22
141.0585	10
167.0619	16
168.0687	43
169.0755	10
