Mass spectrum: 2,6-Dimethylpyridine; LC-ESI-QTOF; MS2; 40 V
Name: 2,6-Dimethylpyridine
Formula: C7H9N
Exact mass: 107.0735
SMILES: CC1=NC(=CC=C1)C
InChI: InChI=1S/C7H9N/c1-6-4-3-5-7(2)8-6/h3-5H,1-2H3
Instrument: TripleTOF 6600 SCIEX
Instrument type: LC-ESI-QTOF
Ms type: MS2
Ion mode: POSITIVE
Collision energy: 40
Fragmentation mode: CID
Ionization: ESI
Column name: Zorbax Eclipse Plus C18 2.1 mm x 150 mm, 3.5 um, Agilent
Retention time: 2.395 min
Precursor m/z: 108.0808
Precursor type: [M+H]+
m/z	relative intensity
37.0064	47
38.0145	47
39.0225	667
41.038	567
42.0334	107
51.0223	31
53.0376	27
65.0375	999
66.0454	387
67.0408	67
67.0526	247
77.0376	123
78.0327	63
79.0543	87
80.0485	75
91.0526	19
92.0484	559
93.0557	483
106.0642	355
107.0719	579
108.0804	415
