Mass spectrum: Thymine; LC-ESI-QTOF; MS2; 40 V
Name: Thymine
Class: Metabolite
Formula: C5H6N2O2
Exact mass: 126.0429
SMILES: CC1=CNC(NC1=O)=O
InChI: InChI=1S/C5H6N2O2/c1-3-2-6-5(9)7-4(3)8/h2H,1H3,(H2,6,7,8,9)
Instrument: TripleTOF 5600 SCIEX
Instrument type: LC-ESI-QTOF
Ms type: MS2
Ion mode: POSITIVE
Collision energy: 40
Fragmentation mode: CID
Ionization: ESI
Column name: Zorbax Eclipse Plus C18 2.1 mm x 150 mm, 3.5 um, Agilent
Retention time: 3.227 min
Precursor m/z: 127.0502
Precursor type: [M+H]+
m/z	relative intensity
44.0129	223
52.0171	40
53.0053	22
54.0339	855
56.0133	45
56.0495	413
81.0448	120
82.0284	264
84.0445	333
109.0393	241
110.0231	999
127.0506	401
