Mass spectrum: Carbamazepine; LC-ESI-QTOF; MS2; 40 V
Name: Carbamazepine
Class: Pharmaceutical
Formula: C15H12N2O
Exact mass: 236.095
SMILES: NC(=O)N1c2ccccc2C=Cc3ccccc13
InChI: InChI=1S/C15H12N2O/c16-15(18)17-13-7-3-1-5-11(13)9-10-12-6-2-4-8-14(12)17/h1-10H,(H2,16,18)
Instrument: TripleTOF 5600 SCIEX
Instrument type: LC-ESI-QTOF
Ms type: MS2
Ion mode: POSITIVE
Collision energy: 40
Fragmentation mode: CID
Ionization: ESI
Column name: Zorbax Eclipse Plus C18 2.1 mm x 150 mm, 3.5 um, Agilent
Retention time: 8.87 min
Precursor m/z: 237.1022
Precursor type: [M+H]+
m/z	relative intensity
89.0405	16
91.0548	15
116.0482	19
117.0562	20
139.0545	12
151.0543	32
152.0613	94
164.0614	17
165.0697	234
166.0706	39
167.0757	139
176.0607	27
177.0643	54
178.0683	90
179.0727	319
190.0648	70
191.0725	230
192.0806	704
193.0885	601
194.0963	999
237.102	51
