Mass spectrum: Levamisole; LC-ESI-QTOF; MS2; 110 V
Name: Levamisole
Class: Pharmaceutical
Formula: C11H12N2S
Exact mass: 204.0721
SMILES: c1ccc(cc1)[C@H]2CN3CCSC3=N2
InChI: InChI=1S/C11H12N2S/c1-2-4-9(5-3-1)10-8-13-6-7-14-11(13)12-10/h1-5,10H,6-8H2/t10-/m1/s1
Instrument: TripleTOF 5600 SCIEX
Instrument type: LC-ESI-QTOF
Ms type: MS2
Ion mode: POSITIVE
Collision energy: 110
Fragmentation mode: CID
Ionization: ESI
Column name: Zorbax Eclipse Plus C18 2.1 mm x 150 mm, 3.5 um, Agilent
Retention time: 5.021 min
Precursor m/z: 205.0794
Precursor type: [M+H]+
m/z	relative intensity
42.0418	27
51.0299	999
52.0372	37
57.9922	27
59.0018	70
59.9949	246
63.0396	43
64.0344	20
65.0433	529
71.9934	47
73.0121	16
74.0181	178
75.027	128
76.0348	50
77.0415	722
78.048	77
87.0258	20
89.0396	246
90.049	20
91.0554	205
102.0471	50
102.06	13
103.0548	64
115.0559	30
126.0479	20
127.0538	13
128.0623	20
