Mass spectrum: Chlormethiazole; LC-ESI-QTOF; MS2; 120 V
Name: Chlormethiazole
Class: Pharmaceutical
Formula: C6H8ClNS
Exact mass: 161.0066
SMILES: CC1=C(SC=N1)CCCl
InChI: InChI=1S/C6H8ClNS/c1-5-6(2-3-7)9-4-8-5/h4H,2-3H2,1H3
Instrument: TripleTOF 6600 SCIEX
Instrument type: LC-ESI-QTOF
Ms type: MS2
Ion mode: POSITIVE
Collision energy: 120
Fragmentation mode: CID
Ionization: ESI
Column name: Zorbax Eclipse Plus C18 2.1 mm x 150 mm, 3.5 um, Agilent
Retention time: 7.946 min
Precursor m/z: 162.0139
Precursor type: [M+H]+
m/z	relative intensity
37.0074	256
38.0028	64
38.0155	192
39.0228	281
42.0341	153
43.9714	140
44.9792	999
45.9742	102
49.0076	64
50.0152	192
51.0225	64
52.0181	89
56.9787	64
57.9873	102
58.9944	76
68.9792	76
