Mass spectrum: Lomefloxacin; LC-ESI-QTOF; MS2; 120 V
Name: Lomefloxacin
Class: Pharmaceutical; Antimicrobial
Formula: C17H19F2N3O3
Exact mass: 351.1394
SMILES: CCn1cc(c(=O)c2c1c(c(c(c2)F)N3CCNC(C3)C)F)C(=O)O
InChI: InChI=1S/C17H19F2N3O3/c1-3-21-8-11(17(24)25)16(23)10-6-12(18)15(13(19)14(10)21)22-5-4-20-9(2)7-22/h6,8-9,20H,3-5,7H2,1-2H3,(H,24,25)
Instrument: TripleTOF 5600 SCIEX
Instrument type: LC-ESI-QTOF
Ms type: MS2
Ion mode: POSITIVE
Collision energy: 120
Fragmentation mode: CID
Ionization: ESI
Column name: Zorbax Eclipse Plus C18 2.1 mm x 150 mm, 3.5 um, Agilent
Retention time: 5.44 min
Precursor m/z: 352.1467
Precursor type: [M+H]+
m/z	relative intensity
74.0174	587
75.0059	293
75.024	470
81.0141	235
88.0176	293
94.0219	293
98.0165	293
99.0102	470
99.0242	646
100.018	822
107.0285	705
112.0123	822
119.0272	235
122.0406	352
124.0136	352
125.0193	999
126.03	411
127.0345	293
132.0234	587
133.0357	352
134.0408	352
138.0272	293
139.0219	411
146.0375	352
150.0148	587
151.0211	293
152.0317	293
153.0449	235
157.021	293
158.0385	293
166.0523	293
173.0464	352
