Mass spectrum: Benzoyleneurea; LC-ESI-QTOF; MS2; 40 V
Name: Benzoyleneurea
Class: Pharmaceutical
Formula: C8H6N2O2
Exact mass: 162.0429
SMILES: C1=CC=C2C(=C1)C(=O)NC(=O)N2
InChI: InChI=1S/C8H6N2O2/c11-7-5-3-1-2-4-6(5)9-8(12)10-7/h1-4H,(H2,9,10,11,12)
Instrument: TripleTOF 5600 SCIEX
Instrument type: LC-ESI-QTOF
Ms type: MS2
Ion mode: POSITIVE
Collision energy: 40
Fragmentation mode: CID
Ionization: ESI
Column name: Zorbax Eclipse Plus C18 2.1 mm x 150 mm, 3.5 um, Agilent
Retention time: 5.386 min
Precursor m/z: 163.0502
Precursor type: [M+H]+
m/z	relative intensity
65.045	27
90.0369	999
117.0454	38
118.0278	27
145.0404	110
146.0231	524
163.0515	82
