Mass spectrum: Disperse Yellow 3; LC-ESI-QTOF; MS2; 140 V
Name: Disperse Yellow 3
Formula: C15H15N3O2
Exact mass: 269.1164
SMILES: CC1=CC(=C(C=C1)O)N=NC2=CC=C(C=C2)NC(=O)C
InChI: InChI=1S/C15H15N3O2/c1-10-3-8-15(20)14(9-10)18-17-13-6-4-12(5-7-13)16-11(2)19/h3-9,20H,1-2H3,(H,16,19)
Instrument: TripleTOF 6600 SCIEX
Instrument type: LC-ESI-QTOF
Ms type: MS2
Ion mode: POSITIVE
Collision energy: 140
Fragmentation mode: CID
Ionization: ESI
Column name: Zorbax Eclipse Plus C18 2.1 mm x 150 mm, 3.5 um, Agilent
Retention time: 12.171 min
Precursor m/z: 270.1237
Precursor type: [M+H]+
m/z	relative intensity
37.0074	165
38.014	107
39.0225	421
42.0334	41
43.0179	206
50.0146	99
51.0216	231
52.0177	66
53.0379	743
54.0331	132
61.0062	49
62.0149	181
63.0221	214
64.0171	41
78.0335	41
80.0482	999
107.0559	41
