Mass spectrum: Oxymetazoline; LC-ESI-QTOF; MS2; 100 V
Name: Oxymetazoline
Class: Pharmaceutical
Formula: C16H24N2O
Exact mass: 260.1889
SMILES: Cc1cc(c(c(c1CC2=NCCN2)C)O)C(C)(C)C
InChI: InChI=1S/C16H24N2O/c1-10-8-13(16(3,4)5)15(19)11(2)12(10)9-14-17-6-7-18-14/h8,19H,6-7,9H2,1-5H3,(H,17,18)
Instrument: TripleTOF 5600 SCIEX
Instrument type: LC-ESI-QTOF
Ms type: MS2
Ion mode: POSITIVE
Collision energy: 100
Fragmentation mode: CID
Ionization: ESI
Column name: Zorbax Eclipse Plus C18 2.1 mm x 150 mm, 3.5 um, Agilent
Retention time: 7.429 min
Precursor m/z: 261.1961
Precursor type: [M+H]+
m/z	relative intensity
43.0263	11
44.0593	47
54.0404	17
55.0482	10
65.0437	364
67.0604	22
71.0634	10
75.0252	10
76.0331	16
77.0427	999
78.0496	71
79.0571	202
84.0696	16
89.0406	75
90.0482	11
91.0566	922
92.0649	17
93.0724	17
101.0394	17
102.0473	112
103.055	273
104.0626	28
105.0701	180
107.049	25
115.055	722
116.0616	66
117.0692	253
118.0749	34
119.0847	29
121.0655	44
126.0473	35
127.0543	193
128.0626	550
129.07	54
130.0651	56
131.0495	111
133.0998	14
139.0529	11
140.0557	14
141.0696	113
142.0694	11
143.0722	20
144.0819	17
145.0646	63
146.0652	28
152.0592	10
154.0663	17
158.087	11
159.0826	13
171.0924	16
