Mass spectrum: Telmisartan; LC-ESI-QTOF; MS2; 140 V
Name: Telmisartan
Class: Pharmaceutical
Formula: C33H30N4O2
Exact mass: 514.2369
SMILES: CCCc1nc2c(C)cc(cc2n1Cc3ccc(cc3)c4ccccc4C(O)=O)c5nc6ccccc6n5C
InChI: InChI=1S/C33H30N4O2/c1-4-9-30-35-31-21(2)18-24(32-34-27-12-7-8-13-28(27)36(32)3)19-29(31)37(30)20-22-14-16-23(17-15-22)25-10-5-6-11-26(25)33(38)39/h5-8,10-19H,4,9,20H2,1-3H3,(H,38,39)
Instrument: TripleTOF 5600 SCIEX
Instrument type: LC-ESI-QTOF
Ms type: MS2
Ion mode: POSITIVE
Collision energy: 140
Fragmentation mode: CID
Ionization: ESI
Column name: Zorbax Eclipse Plus C18 2.1 mm x 150 mm, 3.5 um, Agilent
Retention time: 8.861 min
Precursor m/z: 515.2442
Precursor type: [M+H]+
m/z	relative intensity
65.0442	420
77.0428	578
89.0395	262
92.0512	315
115.054	525
116.0478	262
128.0615	420
139.0525	578
143.0609	420
152.0613	368
163.0533	210
164.0637	368
165.0691	999
169.0755	315
191.0604	315
192.0681	368
193.075	578
205.0762	683
206.0836	473
219.0799	368
220.088	630
230.0705	315
231.0781	525
232.0857	578
233.0962	315
244.0861	315
245.0816	473
246.0946	368
258.0893	368
259.0967	683
260.1065	525
261.1145	315
273.1121	262
