Mass spectrum: Octyl hydrogen sulfate; LC-ESI-QTOF; MS2; 130 V
Name: Octyl hydrogen sulfate
Formula: C8H18O4S
Exact mass: 210.0926
InChI: InChI=1S/C8H18O4S/c1-2-3-4-5-6-7-8-12-13(9,10)11/h2-8H2,1H3,(H,9,10,11)
Ms type: Q
Ion mode: NEGATIVE
Collision energy: 130
Ionization: ESI
Retention time: 10.41 min
Precursor m/z: 209.0853
Precursor type: [M-H]-
m/z	relative intensity
63.9627	147
79.9577	999
95.9523	36
