Mass spectrum: Linuron; LC-ESI-QTOF; MS2; 20 V
Name: Linuron
Class: Herbicide
Formula: C9H10Cl2N2O2
Exact mass: 248.0119
SMILES: CON(C)C(=O)Nc1ccc(Cl)c(Cl)c1
InChI: InChI=1S/C9H10Cl2N2O2/c1-13(15-2)9(14)12-6-3-4-7(10)8(11)5-6/h3-5H,1-2H3,(H,12,14)
Instrument: TripleTOF 5600 SCIEX
Instrument type: LC-ESI-QTOF
Ms type: MS2
Ion mode: POSITIVE
Collision energy: 20
Fragmentation mode: CID
Ionization: ESI
Column name: Zorbax Eclipse Plus C18 2.1 mm x 150 mm, 3.5 um, Agilent
Retention time: 11.862 min
Precursor m/z: 249.0192
Precursor type: [M+H]+
m/z	relative intensity
60.0503	69
159.9713	985
160.9791	138
182.0239	999
216.9885	97
249.0187	888
