Mass spectrum: Ethyl-N-(3-amino-2-methylphenyl)carbamate; LC-ESI-QTOF; MS2; 70 V
Name: Ethyl-N-(3-amino-2-methylphenyl)carbamate
Class: Industrial_process
Formula: C10H14N2O2
Exact mass: 194.1055
SMILES: CCOC(=O)NC1=CC=CC(=C1C)N
InChI: InChI=1S/C10H14N2O2/c1-3-14-10(13)12-9-6-4-5-8(11)7(9)2/h4-6H,3,11H2,1-2H3,(H,12,13)
Instrument: TripleTOF 5600 SCIEX
Instrument type: LC-ESI-QTOF
Ms type: MS2
Ion mode: POSITIVE
Collision energy: 70
Fragmentation mode: CID
Ionization: ESI
Column name: Zorbax Eclipse Plus C18 2.1 mm x 150 mm, 3.5 um, Agilent
Retention time: 5.082 min
Precursor m/z: 195.1128
Precursor type: [M+H]+
m/z	relative intensity
42.048	11
54.0444	25
64.0386	14
65.0454	32
66.054	27
67.0477	42
77.0442	999
78.0397	72
79.0582	225
80.0542	291
81.0621	125
82.0572	10
89.0421	13
91.0465	43
92.0535	14
93.0613	30
94.0686	48
104.0519	43
105.0467	92
106.0652	166
107.0628	110
108.0704	161
121.0766	29
134.0483	32
