Mass spectrum: Atenolol acid; LC-ESI-QTOF; MS2; 50 V
Name: Atenolol acid
Class: Pharmaceutical; Transformation_product-Metabolite
Formula: C14H21NO4
Exact mass: 267.1471
SMILES: CC(C)NCC(COC1=CC=C(C=C1)CC(=O)O)O
InChI: InChI=1S/C14H21NO4/c1-10(2)15-8-12(16)9-19-13-5-3-11(4-6-13)7-14(17)18/h3-6,10,12,15-16H,7-9H2,1-2H3,(H,17,18)
Instrument: TripleTOF 5600 SCIEX
Instrument type: LC-ESI-QTOF
Ms type: MS2
Ion mode: POSITIVE
Collision energy: 50
Fragmentation mode: CID
Ionization: ESI
Column name: Zorbax Eclipse Plus C18 2.1 mm x 150 mm, 3.5 um, Agilent
Retention time: 4.893 min
Precursor m/z: 268.1543
Precursor type: [M+H]+
m/z	relative intensity
39.0232	16
41.0388	44
43.0545	42
56.0498	422
57.0331	12
58.0653	58
63.0234	12
65.0386	38
67.0553	14
72.081	86
74.0601	122
77.039	267
79.0546	414
81.0693	42
84.0802	20
89.0388	233
91.0547	453
93.0694	18
95.0492	84
98.0966	28
100.1118	24
105.0353	16
105.0701	32
107.0492	179
109.0644	52
115.0541	324
116.0638	20
116.1081	20
117.0329	32
117.07	245
119.0494	118
121.0667	18
123.0437	52
127.0539	62
131.047	20
133.0648	30
135.0441	106
137.0596	54
144.0574	46
145.065	999
163.0496	96
163.0747	10
165.0539	42
191.0709	16
