Mass spectrum: Morantel; LC-ESI-QTOF; MS2; 50 V
Name: Morantel
Class: Pharmaceutical
Formula: C12H16N2S
Exact mass: 220.1034
SMILES: CN1CCCN=C1/C=C/c2sccc2C
InChI: InChI=1S/C12H16N2S/c1-10-6-9-15-11(10)4-5-12-13-7-3-8-14(12)2/h4-6,9H,3,7-8H2,1-2H3/b5-4+
Instrument: TripleTOF 5600 SCIEX
Instrument type: LC-ESI-QTOF
Ms type: MS2
Ion mode: POSITIVE
Collision energy: 50
Fragmentation mode: CID
Ionization: ESI
Column name: Zorbax Eclipse Plus C18 2.1 mm x 150 mm, 3.5 um, Agilent
Retention time: 6.042 min
Precursor m/z: 221.1107
Precursor type: [M+H]+
m/z	relative intensity
42.0443	15
44.0593	31
45.0044	13
57.0759	12
65.0423	22
67.0569	46
69.048	61
70.0685	18
77.0418	175
78.0486	14
79.0574	349
81.0734	17
89.0394	27
90.0473	11
91.0561	97
93.0712	15
94.0656	11
97.012	52
97.0764	10
103.0541	12
104.0508	20
105.0696	25
106.0655	104
107.0868	10
109.1013	10
110.0189	18
111.027	212
111.0845	12
116.0492	32
117.0574	164
118.0644	25
119.0849	18
121.0105	41
121.0724	20
122.0188	172
123.027	999
124.0299	19
130.0637	40
131.0729	31
132.0821	10
133.012	51
134.0057	20
134.0172	35
135.0139	35
136.0977	13
137.0401	11
138.0363	27
145.0745	17
148.0215	48
148.1118	10
149.0296	350
150.0373	325
159.0918	19
161.1072	10
162.0352	13
163.0322	15
163.0433	21
164.0529	244
173.1075	66
177.0482	26
187.1238	43
191.0641	15
205.0805	46
221.1106	50
