Mass spectrum: 4-Hydroxydiphenylamine; LC-ESI-QTOF; MS2; 120 V
Name: 4-Hydroxydiphenylamine
Class: Pesticide; Industrial_process
Formula: C12H11NO
Exact mass: 185.0841
SMILES: C1=CC=C(C=C1)NC2=CC=C(C=C2)O
InChI: InChI=1S/C12H11NO/c14-12-8-6-11(7-9-12)13-10-4-2-1-3-5-10/h1-9,13-14H
Instrument: TripleTOF 6600 SCIEX
Instrument type: LC-ESI-QTOF
Ms type: MS2
Ion mode: POSITIVE
Collision energy: 120
Fragmentation mode: CID
Ionization: ESI
Column name: Zorbax Eclipse Plus C18 2.1 mm x 150 mm, 3.5 um, Agilent
Retention time: 10.034 min
Precursor m/z: 186.0914
Precursor type: [M+H]+
m/z	relative intensity
35.9988	150
37.0066	603
38.0024	94
38.0145	461
39.0222	999
40.0165	84
41.0255	103
42.0327	65
44.0125	47
49.0061	150
50.0142	650
51.0219	452
52.0172	197
53.0014	65
53.0374	339
54.0329	150
61.0065	122
62.0139	254
63.0211	282
65.0381	103
74.0143	141
80.048	141
