Mass spectrum: Proquinazid; LC-ESI-QTOF; MS2; 100 V
Name: Proquinazid
Class: Fungicide
Formula: C14H17IN2O2
Exact mass: 372.0335
SMILES: CCCN1C(=O)C2=C(C=CC(=C2)I)N=C1OCCC
InChI: InChI=1S/C14H17IN2O2/c1-3-7-17-13(18)11-9-10(15)5-6-12(11)16-14(17)19-8-4-2/h5-6,9H,3-4,7-8H2,1-2H3
Instrument: TripleTOF 6600 SCIEX
Instrument type: LC-ESI-QTOF
Ms type: MS2
Ion mode: POSITIVE
Collision energy: 100
Fragmentation mode: CID
Ionization: ESI
Column name: Zorbax Eclipse Plus C18 2.1 mm x 150 mm, 3.5 um, Agilent
Retention time: 17.121 min
Precursor m/z: 373.0408
Precursor type: [M+H]+
m/z	relative intensity
37.0106	11
38.0188	26
39.0267	32
41.0427	33
60.0029	33
61.0107	134
62.0191	566
63.0156	19
63.0257	49
64.0343	33
65.0297	35
66.0137	78
87.0135	15
88.0215	205
89.0297	658
90.0369	24
91.045	54
92.0292	77
101.0287	11
116.0399	105
117.0238	393
119.0397	27
140.921	47
144.0333	23
145.018	147
162.0437	19
164.9208	112
188.9194	54
189.914	15
215.9311	999
271.9184	37
