Mass spectrum: 4,4`-Methylenebis(2-chloroaniline); LC-ESI-QTOF; MS2; 140 V
Name: 4,4`-Methylenebis(2-chloroaniline)
Formula: C13H12Cl2N2
Exact mass: 266.0378
SMILES: C1=CC(=C(C=C1CC2=CC(=C(C=C2)N)Cl)Cl)N
InChI: InChI=1S/C13H12Cl2N2/c14-10-6-8(1-3-12(10)16)5-9-2-4-13(17)11(15)7-9/h1-4,6-7H,5,16-17H2
Instrument: TripleTOF 6600 SCIEX
Instrument type: LC-ESI-QTOF
Ms type: MS2
Ion mode: POSITIVE
Collision energy: 140
Fragmentation mode: CID
Ionization: ESI
Column name: Zorbax Eclipse Plus C18 2.1 mm x 150 mm, 3.5 um, Agilent
Retention time: 11.747 min
Precursor m/z: 267.045
Precursor type: [M+H]+
m/z	relative intensity
37.0081	49
38.0149	30
39.0229	67
49.008	49
50.0158	643
51.0232	999
52.0193	61
52.0302	36
61.0079	85
62.0161	208
63.0238	300
65.0404	30
72.9842	30
73.0073	42
74.0156	563
75.0229	183
76.0189	24
76.0311	49
77.0392	269
78.0343	36
85.0068	73
86.0151	116
87.0224	140
88.0317	49
89.0388	153
97.007	49
98.0157	379
99.0239	73
102.0463	61
104.0483	36
110.0158	85
113.0377	140
114.0428	30
115.0551	85
122.0165	55
126.0447	36
137.0365	36
139.0542	300
140.0509	55
149.0404	49
150.0472	165
151.0517	36
164.0491	55
