Mass spectrum: Chlorotoluron; LC-ESI-QTOF; MS2; 40 V
Name: Chlorotoluron
Class: Herbicide
Formula: C10H13ClN2O
Exact mass: 212.0716
SMILES: CC1=C(C=C(C=C1)NC(=O)N(C)C)Cl
InChI: InChI=1S/C10H13ClN2O/c1-7-4-5-8(6-9(7)11)12-10(14)13(2)3/h4-6H,1-3H3,(H,12,14)
Instrument: TripleTOF 6600 SCIEX
Instrument type: LC-ESI-QTOF
Ms type: MS2
Ion mode: POSITIVE
Collision energy: 40
Fragmentation mode: CID
Ionization: ESI
Column name: Zorbax Eclipse Plus C18 2.1 mm x 150 mm, 3.5 um, Agilent
Retention time: 9.778 min
Precursor m/z: 213.0789
Precursor type: [M+H]+
m/z	relative intensity
44.0497	10
46.0658	145
56.0136	23
72.0449	999
77.0393	22
89.0396	12
104.0491	27
113.0147	26
125.0142	35
140.0261	85
