Mass spectrum: Bisphenol-A bis(diphenyl phosphate); LC-ESI-QTOF; MS2; 90 V
Name: Bisphenol-A bis(diphenyl phosphate)
Class: Industrial_process
Formula: C39H34O8P2
Exact mass: 692.1729
SMILES: CC(C)(C1=CC=C(C=C1)OP(=O)(OC2=CC=CC=C2)OC3=CC=CC=C3)C4=CC=C(C=C4)OP(=O)(OC5=CC=CC=C5)OC6=CC=CC=C6
InChI: InChI=1S/C39H34O8P2/c1-39(2,31-23-27-37(28-24-31)46-48(40,42-33-15-7-3-8-16-33)43-34-17-9-4-10-18-34)32-25-29-38(30-26-32)47-49(41,44-35-19-11-5-12-20-35)45-36-21-13-6-14-22-36/h3-30H,1-2H3
Instrument: TripleTOF 6600 SCIEX
Instrument type: LC-ESI-QTOF
Ms type: MS2
Ion mode: POSITIVE
Collision energy: 90
Fragmentation mode: CID
Ionization: ESI
Column name: Zorbax Eclipse Plus C18 2.1 mm x 150 mm, 3.5 um, Agilent
Retention time: 17.714 min
Precursor m/z: 693.1802
Precursor type: [M+H]+
m/z	relative intensity
65.0383	17
77.0381	181
91.0533	216
95.0473	24
105.0689	41
107.0482	17
115.0537	707
116.0612	65
117.0698	61
128.061	27
133.0638	89
138.9942	13
139.053	13
139.9995	13
141.0684	17
151.0522	51
152.0616	360
153.069	199
155.084	68
165.0692	175
166.0762	17
168.0564	295
171.079	27
175.0142	17
176.062	27
177.0695	41
178.0775	999
179.0253	116
179.0824	20
180.0325	54
181.0639	37
183.0797	99
183.1165	61
187.0304	41
191.085	61
192.0924	20
193.0988	20
208.0883	41
211.1115	17
215.0256	611
226.0746	24
227.0869	30
228.0925	72
229.101	37
233.0354	92
237.0471	20
239.085	75
241.1011	20
245.0345	27
251.0458	168
252.0919	51
253.1008	82
254.1064	30
255.056	147
263.0463	24
273.0663	58
291.0558	17
291.0779	65
327.077	58
339.077	30
367.1106	92
