Mass spectrum: Clonazepam; LC-ESI-QTOF; MS2; 40 V
Name: Clonazepam
Class: Pharmaceutical
Formula: C15H10ClN3O3
Exact mass: 315.0411
SMILES: C1C(=O)NC2=C(C=C(C=C2)[N+](=O)[O-])C(=N1)C3=CC=CC=C3Cl
InChI: InChI=1S/C15H10ClN3O3/c16-12-4-2-1-3-10(12)15-11-7-9(19(21)22)5-6-13(11)18-14(20)8-17-15/h1-7H,8H2,(H,18,20)
Instrument: TripleTOF 6600 SCIEX
Instrument type: LC-ESI-QTOF
Ms type: MS2
Ion mode: POSITIVE
Collision energy: 40
Fragmentation mode: CID
Ionization: ESI
Column name: Zorbax Eclipse Plus C18 2.1 mm x 150 mm, 3.5 um, Agilent
Retention time: 9.867 min
Precursor m/z: 316.0484
Precursor type: [M+H]+
m/z	relative intensity
130.0521	18
151.0534	10
167.0743	11
178.0648	16
179.0723	33
180.0808	40
190.0641	58
191.0728	16
192.0781	10
193.0858	10
195.0934	22
205.0752	42
206.0847	91
207.0918	141
213.0342	22
214.0426	317
223.0875	18
224.0259	10
227.0488	13
228.0553	13
235.0864	11
241.053	298
242.0612	42
269.0474	61
270.0568	999
285.0434	11
316.0502	257
