Mass spectrum: Clozapine; LC-ESI-QTOF; MS2; 50 V
Name: Clozapine
Class: Pharmaceutical
Formula: C18H19ClN4
Exact mass: 326.1298
SMILES: CN1CCN(CC1)C2=NC3=C(C=CC(=C3)Cl)NC4=CC=CC=C42
InChI: InChI=1S/C18H19ClN4/c1-22-8-10-23(11-9-22)18-14-4-2-3-5-15(14)20-16-7-6-13(19)12-17(16)21-18/h2-7,12,20H,8-11H2,1H3
Instrument: TripleTOF 6600 SCIEX
Instrument type: LC-ESI-QTOF
Ms type: MS2
Ion mode: POSITIVE
Collision energy: 50
Fragmentation mode: CID
Ionization: ESI
Column name: Zorbax Eclipse Plus C18 2.1 mm x 150 mm, 3.5 um, Agilent
Retention time: 6.951 min
Precursor m/z: 327.1371
Precursor type: [M+H]+
m/z	relative intensity
42.0341	18
84.0803	28
123.9938	10
164.0487	12
165.0567	10
191.0597	38
192.068	999
200.0247	17
206.0817	13
215.035	10
218.0844	19
220.087	19
226.029	54
227.0367	153
228.0443	22
229.0522	13
234.1022	31
235.1108	18
240.0432	11
253.0508	46
254.0533	19
255.0567	21
270.0793	473
296.0954	62
