Mass spectrum: Ranitidine-N-oxide; LC-ESI-QTOF; MS2; 110 V
Name: Ranitidine-N-oxide
Class: Pharmaceutical; Transformation_product; Transformation_product-Metabolite
Formula: C13H22N4O4S
Exact mass: 330.1362
SMILES: CNC(/NCCSCc1oc(C[N+](C)(C)[O-])cc1)=C\[N+]([O-])=O
InChI: InChI=1S/C13H22N4O4S/c1-14-13(8-16(18)19)15-6-7-22-10-12-5-4-11(21-12)9-17(2,3)20/h4-5,8,14-15H,6-7,9-10H2,1-3H3/b13-8+
Instrument: TripleTOF 5600 SCIEX
Instrument type: LC-ESI-QTOF
Ms type: MS2
Ion mode: POSITIVE
Collision energy: 110
Fragmentation mode: CID
Ionization: ESI
Column name: Zorbax Eclipse Plus C18 2.1 mm x 150 mm, 3.5 um, Agilent
Retention time: 4.879 min
Precursor m/z: 331.1435
Precursor type: [M+H]+
m/z	relative intensity
42.0481	34
43.0277	41
51.0286	167
52.0368	41
53.045	321
54.0386	48
55.0472	69
56.0544	328
57.0495	125
59.0016	125
60.008	27
65.043	181
66.0396	27
66.051	62
67.0455	41
67.0578	48
68.0529	139
70.0677	34
70.9984	48
74.0089	34
77.0413	999
78.0368	69
78.0493	76
79.0569	83
80.0154	48
80.0516	132
80.0682	34
81.0366	817
82.0552	132
83.0643	55
88.0254	55
89.0404	55
91.0557	118
92.0527	55
93.059	111
94.0409	48
94.0655	48
95.0497	48
95.0613	34
96.0692	118
97.0107	48
97.0766	496
102.0375	272
102.0925	27
104.0499	195
105.0486	48
106.0655	83
107.0497	209
109.0096	34
110.0724	27
115.0329	34
117.0581	34
118.0623	27
118.0709	34
119.0609	104
120.0759	27
129.0493	69
132.0442	146
133.0518	41
133.0731	48
