Mass spectrum: 3-Hydroxyacetaminophen; LC-ESI-QTOF; MS2; 40 V
Name: 3-Hydroxyacetaminophen
Class: Pharmaceutical; Transformation_product
Formula: C8H9NO3
Exact mass: 167.0582
SMILES: CC(=O)Nc1ccc(O)c(O)c1
InChI: InChI=1S/C8H9NO3/c1-5(10)9-6-2-3-7(11)8(12)4-6/h2-4,11-12H,1H3,(H,9,10)
Instrument: TripleTOF 5600 SCIEX
Instrument type: LC-ESI-QTOF
Ms type: MS2
Ion mode: NEGATIVE
Collision energy: 40
Fragmentation mode: CID
Ionization: ESI
Column name: Zorbax Eclipse Plus C18 2.1 mm x 150 mm, 3.5 um, Agilent
Retention time: 4.471 min
Precursor m/z: 166.051
Precursor type: [M-H]-
m/z	relative intensity
40.0232	96
41.0067	55
42.0024	138
68.015	55
78.0354	157
94.0301	516
95.0141	79
96.0454	75
106.03	165
108.0218	228
122.0251	999
123.0322	822
123.0465	78
124.0398	414
134.0249	277
148.0406	74
150.0197	106
166.0508	179
