Mass spectrum: 2-Hydroxycarbamazepine; LC-ESI-QTOF; MS2; 100 V
Name: 2-Hydroxycarbamazepine
Class: Pharmaceutical; Metabolite
Formula: C15H12N2O2
Exact mass: 252.0899
SMILES: NC(=O)N1c2ccccc2C=Cc3cc(O)ccc13
InChI: InChI=1S/C15H12N2O2/c16-15(19)17-13-4-2-1-3-10(13)5-6-11-9-12(18)7-8-14(11)17/h1-9,18H,(H2,16,19)
Instrument: TripleTOF 5600 SCIEX
Instrument type: LC-ESI-QTOF
Ms type: MS2
Ion mode: POSITIVE
Collision energy: 100
Fragmentation mode: CID
Ionization: ESI
Column name: Zorbax Eclipse Plus C18 2.1 mm x 150 mm, 3.5 um, Agilent
Retention time: 7.476 min
Precursor m/z: 253.0972
Precursor type: [M+H]+
m/z	relative intensity
44.0216	19
51.0284	137
65.0434	68
74.0174	93
75.0247	184
76.0338	46
77.0413	430
77.0682	13
78.0483	38
78.0624	13
85.0112	16
86.0163	46
87.0248	93
88.0192	19
88.0315	55
89.0401	485
89.0665	11
90.0481	49
91.0562	13
98.0147	33
99.0242	57
100.0308	16
101.0386	176
102.0457	154
103.0527	19
104.0503	22
110.0125	13
111.022	13
113.0381	325
114.033	63
114.0452	80
115.0536	317
116.0481	57
117.0576	16
124.0311	11
125.0381	118
126.0457	242
127.0537	278
127.0735	22
128.0487	132
128.0622	71
137.0388	71
138.0462	71
139.0538	805
140.049	565
141.0565	22
149.038	35
150.0461	378
151.0537	640
152.0614	999
153.0561	146
154.0643	63
161.039	60
162.046	129
163.0535	455
164.052	231
165.0661	137
166.0651	187
167.0725	19
176.048	44
177.0574	157
178.0646	452
179.0723	93
180.08	113
187.0396	11
188.0483	93
189.0575	57
190.0638	168
191.0715	66
206.0556	16
