Mass spectrum: 17alpha-Hydroxyprogesterone; LC-ESI-QTOF; MS2; 80 V
Name: 17alpha-Hydroxyprogesterone
Class: Pharmaceutical
Formula: C21H30O3
Exact mass: 330.2195
SMILES: CC(=O)[C@@]1(O)CC[C@H]2[C@@H]3CCC4=CC(=O)CC[C@]4(C)[C@H]3CC[C@]12C
InChI: InChI=1S/C21H30O3/c1-13(22)21(24)11-8-18-16-5-4-14-12-15(23)6-9-19(14,2)17(16)7-10-20(18,21)3/h12,16-18,24H,4-11H2,1-3H3/t16-,17+,18+,19+,20+,21+/m1/s1
Instrument: TripleTOF 5600 SCIEX
Instrument type: LC-ESI-QTOF
Ms type: MS2
Ion mode: POSITIVE
Collision energy: 80
Fragmentation mode: CID
Ionization: ESI
Column name: Zorbax Eclipse Plus C18 2.1 mm x 150 mm, 3.5 um, Agilent
Retention time: 11.808 min
Precursor m/z: 331.2268
Precursor type: [M+H]+
m/z	relative intensity
43.0259	394
51.028	21
53.0434	95
55.0234	103
55.0593	89
57.039	13
65.0419	141
66.0501	16
67.0581	258
69.0348	32
69.0735	97
77.0411	732
78.0467	10
79.0566	999
81.0356	29
81.072	427
82.0436	19
83.0502	57
91.0558	718
93.0707	152
94.0419	54
95.0511	21
95.0867	89
97.0651	857
103.0535	119
104.0612	13
105.069	313
107.0488	54
107.0853	40
108.056	27
109.0644	754
115.0534	187
116.0624	40
117.0692	130
119.0847	87
121.0639	40
123.0798	149
127.0525	76
128.0613	283
129.0691	185
130.0762	59
131.0847	68
133.0636	16
133.1005	27
141.0687	179
142.0765	92
143.0846	65
145.0997	35
147.0811	16
152.0654	38
153.0702	92
154.0777	57
155.084	78
156.0927	19
157.1008	21
165.0689	78
166.0767	29
167.0837	57
168.0926	24
169.0992	29
178.0765	29
179.0862	27
180.0939	16
181.099	21
183.121	13
191.086	16
193.0983	16
195.1174	16
197.1349	13
207.1182	13
