Mass spectrum: Nitenpyram; LC-ESI-QTOF; MS2; 120 V
Name: Nitenpyram
Class: Pharmaceutical; Insecticide
Formula: C11H15ClN4O2
Exact mass: 270.0884
SMILES: CCN(Cc1ccc(Cl)nc1)\C(NC)=C\[N+]([O-])=O
InChI: InChI=1S/C11H15ClN4O2/c1-3-15(11(13-2)8-16(17)18)7-9-4-5-10(12)14-6-9/h4-6,8,13H,3,7H2,1-2H3/b11-8+
Instrument: TripleTOF 5600 SCIEX
Instrument type: LC-ESI-QTOF
Ms type: MS2
Ion mode: POSITIVE
Collision energy: 120
Fragmentation mode: CID
Ionization: ESI
Column name: Zorbax Eclipse Plus C18 2.1 mm x 150 mm, 3.5 um, Agilent
Retention time: 5.386 min
Precursor m/z: 271.0956
Precursor type: [M+H]+
m/z	relative intensity
48.9903	27
56.055	600
62.0413	27
64.0347	40
64.0448	27
65.0436	27
72.9866	999
73.0136	47
74.0164	33
75.0257	47
76.021	54
77.0428	33
78.0356	33
78.0443	27
84.9876	27
90.0344	40
91.0452	74
99	80
117.04	27
