Mass spectrum: 1-Amino-3-phenoxy-2-propanol; LC-ESI-QTOF; MS2; 140 V
Name: 1-Amino-3-phenoxy-2-propanol
Class: Pharmaceutical
Formula: C9H13NO2
Exact mass: 167.0946
SMILES: C1=CC=C(C=C1)OCC(CN)O
InChI: InChI=1S/C9H13NO2/c10-6-8(11)7-12-9-4-2-1-3-5-9/h1-5,8,11H,6-7,10H2
Instrument: TripleTOF 5600 SCIEX
Instrument type: LC-ESI-QTOF
Ms type: MS2
Ion mode: POSITIVE
Collision energy: 140
Fragmentation mode: CID
Ionization: ESI
Column name: Zorbax Eclipse Plus C18 2.1 mm x 150 mm, 3.5 um, Agilent
Retention time: 4.753 min
Precursor m/z: 168.1019
Precursor type: [M+H]+
m/z	relative intensity
37.0068	343
38.0144	218
39.0225	312
43.0166	156
51.0228	999
73.0061	156
74.0138	280
