Mass spectrum: Flecainide; LC-ESI-QTOF; MS2; 80 V
Name: Flecainide
Class: Pharmaceutical
Formula: C17H20F6N2O3
Exact mass: 414.1378
SMILES: FC(F)(F)COc1ccc(OCC(F)(F)F)c(c1)C(=O)NCC2CCCCN2
InChI: InChI=1S/C17H20F6N2O3/c18-16(19,20)9-27-12-4-5-14(28-10-17(21,22)23)13(7-12)15(26)25-8-11-3-1-2-6-24-11/h4-5,7,11,24H,1-3,6,8-10H2,(H,25,26)
Instrument: TripleTOF 5600 SCIEX
Instrument type: LC-ESI-QTOF
Ms type: MS2
Ion mode: NEGATIVE
Collision energy: 80
Fragmentation mode: CID
Ionization: ESI
Column name: Zorbax Eclipse Plus C18 2.1 mm x 150 mm, 3.5 um, Agilent
Retention time: 7.983 min
Precursor m/z: 413.1305
Precursor type: [M-H]-
m/z	relative intensity
79.0192	199
133.0196	599
146.0247	999
150.0099	199
179.0805	399
192.0064	399
192.0233	199
