Mass spectrum: Fluorescein; LC-ESI-QTOF; MS2; 90 V
Name: Fluorescein
Class: Industrial_process; Pharmaceutical
Formula: C20H12O5
Exact mass: 332.0685
SMILES: C1=CC=C2C(=C1)C(=O)OC23C4=C(C=C(C=C4)O)OC5=C3C=CC(=C5)O
InChI: InChI=1S/C20H12O5/c21-11-5-7-15-17(9-11)24-18-10-12(22)6-8-16(18)20(15)14-4-2-1-3-13(14)19(23)25-20/h1-10,21-22H
Instrument: TripleTOF 5600 SCIEX
Instrument type: LC-ESI-QTOF
Ms type: MS2
Ion mode: POSITIVE
Collision energy: 90
Fragmentation mode: CID
Ionization: ESI
Column name: Zorbax Eclipse Plus C18 2.1 mm x 150 mm, 3.5 um, Agilent
Retention time: 9.527 min
Precursor m/z: 333.0757
Precursor type: [M+H]+
m/z	relative intensity
68.9972	14
77.0383	33
102.0471	17
115.0535	49
126.0466	17
127.054	38
128.0616	31
131.0511	10
139.0542	57
150.0457	24
151.0543	62
152.0629	87
155.0504	28
163.0528	54
164.0611	27
165.0708	52
175.0573	17
176.0614	155
177.069	25
178.0797	43
187.0532	64
188.0627	70
189.0701	345
190.0786	14
199.054	14
200.0624	295
201.0698	382
202.078	999
203.0863	50
205.0661	37
211.055	32
212.0621	25
213.0708	342
214.079	29
215.0857	84
218.0738	13
224.0615	20
226.0791	12
229.0651	119
230.0739	24
231.082	57
241.0633	12
242.0734	56
243.08	10
245.0635	13
257.0667	10
258.0681	131
259.0769	27
269.0603	18
287.07	16
