Mass spectrum: Noramidopyrine; LC-ESI-QTOF; MS2; 80 V
Name: Noramidopyrine
Class: Pharmaceutical
Formula: C12H15N3O
Exact mass: 217.1215
SMILES: CC1=C(C(=O)N(N1C)C2=CC=CC=C2)NC
InChI: InChI=1S/C12H15N3O/c1-9-11(13-2)12(16)15(14(9)3)10-7-5-4-6-8-10/h4-8,13H,1-3H3
Instrument: TripleTOF 6600 SCIEX
Instrument type: LC-ESI-QTOF
Ms type: MS2
Ion mode: POSITIVE
Collision energy: 80
Fragmentation mode: CID
Ionization: ESI
Column name: Zorbax Eclipse Plus C18 2.1 mm x 150 mm, 3.5 um, Agilent
Retention time: 4.819 min
Precursor m/z: 218.1288
Precursor type: [M+H]+
m/z	relative intensity
39.023	32
41.0262	70
42.0341	101
44.0495	15
50.0152	16
51.023	74
54.0338	11
56.0499	999
65.0387	16
77.0383	65
83.0603	44
89.0391	11
