Mass spectrum: N-desmethyl-venlafaxine; LC-ESI-QTOF; MS2; 60 V
Name: N-desmethyl-venlafaxine
Class: Pharmaceutical; Metabolite; Transformation_product-Metabolite
Formula: C16H25NO2
Exact mass: 263.1885
SMILES: CNCC(c1ccc(cc1)OC)C2(CCCCC2)O
InChI: InChI=1S/C16H25NO2/c1-17-12-15(16(18)10-4-3-5-11-16)13-6-8-14(19-2)9-7-13/h6-9,15,17-18H,3-5,10-12H2,1-2H3
Instrument: TripleTOF 5600 SCIEX
Instrument type: LC-ESI-QTOF
Ms type: MS2
Ion mode: POSITIVE
Collision energy: 60
Fragmentation mode: CID
Ionization: ESI
Column name: Zorbax Eclipse Plus C18 2.1 mm x 150 mm, 3.5 um, Agilent
Retention time: 6.444 min
Precursor m/z: 264.1958
Precursor type: [M+H]+
m/z	relative intensity
44.0579	752
55.0588	9
65.0414	97
67.0577	9
77.0403	355
78.0483	224
78.0685	14
79.0559	148
81.0705	73
89.0386	14
91.0555	891
93.0698	14
103.0543	53
104.0617	51
105.0692	31
106.0409	46
107.0487	75
108.0566	14
115.0541	324
116.0613	65
117.0689	51
118.0387	12
119.0822	21
119.0939	12
121.0642	999
126.046	12
127.0527	41
127.0652	9
128.0614	87
129.0693	56
130.0767	14
131.048	114
132.0564	90
134.0591	63
135.0798	26
141.0692	48
141.0888	14
143.0477	21
144.0559	60
145.0634	31
146.0739	19
147.0803	43
148.0753	56
149.0825	21
153.0694	14
157.0657	21
158.0731	77
159.0799	43
171.08	19
173.0963	17
