Mass spectrum: Dasatinib; LC-ESI-QTOF; MS2; 60 V
Name: Dasatinib
Class: Pharmaceutical
Formula: C22H26ClN7O2S
Exact mass: 487.1557
SMILES: Cc1nc(Nc2sc(cn2)C(=O)Nc3c(C)cccc3Cl)cc(n1)N4CCN(CCO)CC4
InChI: InChI=1S/C22H26ClN7O2S/c1-14-4-3-5-16(23)20(14)28-21(32)17-13-24-22(33-17)27-18-12-19(26-15(2)25-18)30-8-6-29(7-9-30)10-11-31/h3-5,12-13,31H,6-11H2,1-2H3,(H,28,32)(H,24,25,26,27)
Instrument: TripleTOF 5600 SCIEX
Instrument type: LC-ESI-QTOF
Ms type: MS2
Ion mode: POSITIVE
Collision energy: 60
Fragmentation mode: CID
Ionization: ESI
Column name: Zorbax Eclipse Plus C18 2.1 mm x 150 mm, 3.5 um, Agilent
Retention time: 7.247 min
Precursor m/z: 488.163
Precursor type: [M+H]+
m/z	relative intensity
114.089	29
125.0158	41
135.0756	41
150.0135	29
161.0818	225
174.0887	23
175.0858	29
175.9901	29
176.0322	41
176.0932	77
178.0433	71
187.0961	71
191.0462	71
193.0521	214
202.1078	23
205.0485	65
206.0573	59
207.0687	41
217.052	47
218.0502	29
219.0308	29
219.0704	47
220.063	29
232.0643	999
233.0504	53
233.0712	29
234.0821	112
248.1507	41
258.0787	273
260.0574	59
260.0991	47
292.0297	71
317.0266	101
319.0397	41
319.1316	154
343.0396	77
360.0694	237
365.1154	35
387.0795	65
401.0939	606
427.1129	124
