Mass spectrum: 1-Hydroxybenzotriazol; LC-ESI-QTOF; MS2; 20 V
Name: 1-Hydroxybenzotriazol
Class: Pharmaceutical; Industrial_process; Transformation_product
Formula: C6H5N3O
Exact mass: 135.0433
SMILES: c1ccc2c(c1)nnn2O
InChI: InChI=1S/C6H5N3O/c10-9-6-4-2-1-3-5(6)7-8-9/h1-4,10H
Instrument: TripleTOF 5600 SCIEX
Instrument type: LC-ESI-QTOF
Ms type: MS2
Ion mode: POSITIVE
Collision energy: 20
Fragmentation mode: CID
Ionization: ESI
Column name: Zorbax Eclipse Plus C18 2.1 mm x 150 mm, 3.5 um, Agilent
Retention time: 5.24 min
Precursor m/z: 136.0505
Precursor type: [M+H]+
m/z	relative intensity
53.0446	21
63.0277	16
64.0352	25
77.0416	11
78.0487	19
80.0522	35
91.0439	384
119.0487	128
136.0506	999
