Mass spectrum: Nevirapine; LC-ESI-QTOF; MS2; 80 V
Name: Nevirapine
Class: Pharmaceutical
Formula: C15H14N4O
Exact mass: 266.1168
SMILES: Cc1ccnc2N(C3CC3)c4ncccc4C(=O)Nc12
InChI: InChI=1S/C15H14N4O/c1-9-6-8-17-14-12(9)18-15(20)11-3-2-7-16-13(11)19(14)10-4-5-10/h2-3,6-8,10H,4-5H2,1H3,(H,18,20)
Instrument: TripleTOF 5600 SCIEX
Instrument type: LC-ESI-QTOF
Ms type: MS2
Ion mode: POSITIVE
Collision energy: 80
Fragmentation mode: CID
Ionization: ESI
Column name: Zorbax Eclipse Plus C18 2.1 mm x 150 mm, 3.5 um, Agilent
Retention time: 7.301 min
Precursor m/z: 267.124
Precursor type: [M+H]+
m/z	relative intensity
52.0244	20
53.0449	428
54.0397	16
64.0332	33
65.0303	16
65.0426	115
66.0373	97
67.0452	191
68.053	25
75.0145	14
75.0253	40
76.0211	156
77.0406	182
78.0371	999
78.0689	12
79.0441	250
80.0519	610
88.0331	22
89.0401	137
90.0355	229
91.0293	11
91.042	38
91.0541	22
92.0381	242
93.046	397
94.0531	23
95.0638	12
100.019	9
101.0392	84
102.034	103
103.0292	285
103.0543	34
104.0381	58
104.0491	139
105.0454	325
106.0523	34
107.06	110
108.068	11
113.0388	12
114.0335	80
115.0411	79
116.0497	215
117.0457	353
118.0524	152
118.0779	14
119.0462	16
119.0571	55
120.0558	64
120.0798	12
121.0405	20
125.037	11
126.0332	22
127.0418	68
128.0492	182
129.0442	200
130.0396	33
130.0553	104
131.0604	217
132.0555	51
133.0376	12
133.0631	25
134.0704	34
138.0329	11
139.0428	12
140.0336	12
140.0489	53
141.0442	108
142.0523	193
143.0596	264
144.055	123
145.0522	18
145.0764	57
146.0712	40
147.0813	11
152.0484	33
153.0443	115
154.0516	169
155.06	360
156.0568	222
157.0625	152
158.0703	55
159.0603	23
160.0863	11
165.0436	14
166.0525	34
167.052	69
168.0566	198
169.0431	16
169.0635	303
170.0714	664
171.0749	91
172.087	16
179.0595	64
180.0552	161
181.0633	160
182.0702	402
183.0756	136
184.0853	55
185.0582	18
187.0637	11
192.0687	18
193.0616	31
194.0704	62
195.0674	141
196.0522	20
196.0763	117
197.0575	11
197.0821	390
198.066	104
198.0892	36
204.0533	12
206.0713	79
207.0695	91
208.0725	121
209.0815	20
210.0646	38
210.1007	11
219.0769	12
220.0797	18
220.0889	14
221.0818	104
222.0893	29
223.062	16
225.0759	20
233.0814	11
234.0623	16
236.0688	12
251.0914	12
