Mass spectrum: 2-(Morpholinodithio)benzothiazole; LC-ESI-QTOF; MS2; 30 V
Name: 2-(Morpholinodithio)benzothiazole
Class: Industrial_process
Formula: C11H12N2OS3
Exact mass: 284.0112
SMILES: C1COCCN1SSC2=NC3=CC=CC=C3S2
InChI: InChI=1S/C11H12N2OS3/c1-2-4-10-9(3-1)12-11(15-10)16-17-13-5-7-14-8-6-13/h1-4H,5-8H2
Instrument: TripleTOF 5600 SCIEX
Instrument type: LC-ESI-QTOF
Ms type: MS2
Ion mode: POSITIVE
Collision energy: 30
Fragmentation mode: CID
Ionization: ESI
Column name: Zorbax Eclipse Plus C18 2.1 mm x 150 mm, 3.5 um, Agilent
Retention time: 13.833 min
Precursor m/z: 285.0185
Precursor type: [M+H]+
m/z	relative intensity
56.0592	21
59.9989	41
61.0196	20
86.0645	71
88.0243	89
89.0103	27
90.0393	52
118.0333	999
165.9778	87
166.9859	91
167.9947	169
197.9488	25
199.966	301
