Mass spectrum: Amoxicillin; LC-ESI-QTOF; MS2; 30 V
Name: Amoxicillin
Class: Pharmaceutical
Formula: C16H19N3O5S
Exact mass: 365.1045
SMILES: CC1(S[C@@H]2[C@@H](C(N2[C@H]1C(O)=O)=O)NC([C@@H](c3ccc(O)cc3)N)=O)C
InChI: InChI=1S/C16H19N3O5S/c1-16(2)11(15(23)24)19-13(22)10(14(19)25-16)18-12(21)9(17)7-3-5-8(20)6-4-7/h3-6,9-11,14,20H,17H2,1-2H3,(H,18,21)(H,23,24)/t9-,10-,11+,14-/m1/s1
Instrument: TripleTOF 5600 SCIEX
Instrument type: LC-ESI-QTOF
Ms type: MS2
Ion mode: POSITIVE
Collision energy: 30
Fragmentation mode: CID
Ionization: ESI
Column name: Zorbax Eclipse Plus C18 2.1 mm x 150 mm, 3.5 um, Agilent
Retention time: 4.706 min
Precursor m/z: 366.1118
Precursor type: [M+H]+
m/z	relative intensity
70.0691	52
86.0074	20
96.0469	20
114.0009	999
114.0355	44
122.0588	16
134.0594	197
137.0053	48
137.07	16
160.0424	136
162.0559	48
163.0189	28
165.0675	72
178.0293	28
180.0484	92
190.0492	68
193.0598	68
208.0421	88
211.0693	112
234.0215	80
275.085	52
277.0989	16
303.0831	32
305.0951	24
321.0882	68
349.0852	16
