Mass spectrum: Doxycycline; LC-ESI-QTOF; MS2; 120 V
Name: Doxycycline
Class: Antimicrobial; Pharmaceutical
Formula: C22H24N2O8
Exact mass: 444.1533
SMILES: CC1C2C(C3C(C(=O)C(=C(C3(C(=O)C2=C(C4=C1C=CC=C4O)O)O)O)C(=O)N)N(C)C)O
InChI: InChI=1S/C22H24N2O8/c1-7-8-5-4-6-9(25)11(8)16(26)12-10(7)17(27)14-15(24(2)3)18(28)13(21(23)31)20(30)22(14,32)19(12)29/h4-7,10,14-15,17,25-27,30,32H,1-3H3,(H2,23,31)
Instrument: TripleTOF 5600 SCIEX
Instrument type: LC-ESI-QTOF
Ms type: MS2
Ion mode: POSITIVE
Collision energy: 120
Fragmentation mode: CID
Ionization: ESI
Column name: Zorbax Eclipse Plus C18 2.1 mm x 150 mm, 3.5 um, Agilent
Retention time: 6.499 min
Precursor m/z: 445.1605
Precursor type: [M+H]+
m/z	relative intensity
58.0776	74
69.0033	148
70.0731	92
77.0437	333
89.0448	92
91.0591	185
102.0499	92
103.0569	92
114.054	92
115.0581	980
116.0655	129
126.0469	185
127.0547	869
128.0635	592
129.0709	129
131.0519	185
132.0606	111
139.0552	943
140.0652	370
141.0723	259
144.0607	203
150.0462	185
151.0574	407
152.0632	943
153.0707	203
163.055	296
164.064	388
165.0696	999
168.058	554
169.0659	111
176.062	388
177.0666	92
178.0782	185
180.0585	129
181.0651	222
189.0699	388
197.0635	129
