Mass spectrum: 3-Alizarinsulfonic acid; LC-ESI-QTOF; MS2; 70 V
Name: 3-Alizarinsulfonic acid
Formula: C14H8O7S
Exact mass: 319.9991
SMILES: C1=CC=C2C(=C1)C(=O)C3=CC(=C(C(=C3C2=O)O)O)S(=O)(=O)O
InChI: InChI=1S/C14H8O7S/c15-11-6-3-1-2-4-7(6)12(16)10-8(11)5-9(22(19,20)21)13(17)14(10)18/h1-5,17-18H,(H,19,20,21)
Instrument: TripleTOF 6600 SCIEX
Instrument type: LC-ESI-QTOF
Ms type: MS2
Ion mode: POSITIVE
Collision energy: 70
Fragmentation mode: CID
Ionization: ESI
Column name: Zorbax Eclipse Plus C18 2.1 mm x 150 mm, 3.5 um, Agilent
Retention time: 8.229 min
Precursor m/z: 321.0064
Precursor type: [M+H]+
m/z	relative intensity
51.0229	12
74.0154	12
75.0235	24
77.0372	353
101.037	54
105.0326	60
115.0559	18
126.045	188
127.0526	999
137.0358	18
139.053	18
155.0505	255
183.0428	73
