Mass spectrum: Flutamide; LC-ESI-QTOF; MS2; 50 V
Name: Flutamide
Class: Pharmaceutical
Formula: C11H11F3N2O3
Exact mass: 276.0722
SMILES: CC(C)C(=O)NC1=CC(=C(C=C1)[N+](=O)[O-])C(F)(F)F
InChI: InChI=1S/C11H11F3N2O3/c1-6(2)10(17)15-7-3-4-9(16(18)19)8(5-7)11(12,13)14/h3-6H,1-2H3,(H,15,17)
Instrument: TripleTOF 6600 SCIEX
Instrument type: LC-ESI-QTOF
Ms type: MS2
Ion mode: POSITIVE
Collision energy: 50
Fragmentation mode: CID
Ionization: ESI
Column name: Zorbax Eclipse Plus C18 2.1 mm x 150 mm, 3.5 um, Agilent
Retention time: 12.297 min
Precursor m/z: 277.0795
Precursor type: [M+H]+
m/z	relative intensity
38.0151	11
39.0232	109
41.038	432
43.0539	999
71.0486	20
111.047	137
114.0261	70
140.0297	25
141.0377	86
142.0453	123
160.0357	52
161.0432	560
188.0648	11
198.054	18
212.0674	41
231.0869	34
