Mass spectrum: Phenylbutazone; LC-ESI-QTOF; MS2; 40 V
Name: Phenylbutazone
Class: Pharmaceutical
Formula: C19H20N2O2
Exact mass: 308.1525
SMILES: CCCCC1C(=O)N(N(C1=O)C2=CC=CC=C2)C3=CC=CC=C3
InChI: InChI=1S/C19H20N2O2/c1-2-3-14-17-18(22)20(15-10-6-4-7-11-15)21(19(17)23)16-12-8-5-9-13-16/h4-13,17H,2-3,14H2,1H3
Instrument: TripleTOF 5600 SCIEX
Instrument type: LC-ESI-QTOF
Ms type: MS2
Ion mode: POSITIVE
Collision energy: 40
Fragmentation mode: CID
Ionization: ESI
Column name: Zorbax Eclipse Plus C18 2.1 mm x 150 mm, 3.5 um, Agilent
Retention time: 13.103 min
Precursor m/z: 309.1598
Precursor type: [M+H]+
m/z	relative intensity
55.0289	42
67.062	17
69.0776	65
77.0449	625
79.0608	22
91.0578	24
92.0543	999
93.0378	255
93.0605	136
94.0426	21
94.0691	431
95.0531	42
97.0697	25
104.0522	170
105.037	61
106.0315	14
106.0682	275
107.0524	15
117.0605	49
118.0665	79
119.0738	19
120.0469	814
120.0823	30
128.0525	47
130.067	107
131.0743	38
132.0464	349
132.0813	43
133.0531	339
134.0619	72
134.0975	16
143.074	22
144.0459	30
144.0825	35
145.0908	38
146.0622	248
146.0945	12
147.0695	11
148.0774	17
148.1147	43
156.0828	12
158.0631	14
160.0681	49
160.1142	345
162.0585	15
162.1294	117
166.0658	52
167.0747	17
168.0816	31
169.0888	15
172.1129	20
173.0846	22
174.0561	86
180.0822	12
182.085	122
183.0963	22
184.0765	20
186.0915	11
188.1079	193
190.1238	96
193.0765	12
194.0605	89
200.112	16
207.0906	56
208.0762	10
208.1016	45
211.0876	348
216.1052	20
219.096	11
221.1047	16
233.1116	16
234.0781	12
234.1146	12
253.1024	10
