Mass spectrum: N-Octyl-2-pyrrolidone; LC-ESI-QTOF; MS2; 110 V
Name: N-Octyl-2-pyrrolidone
Class: Industrial_process
Formula: C12H23NO
Exact mass: 197.178
SMILES: CCCCCCCCN1CCCC1=O
InChI: InChI=1S/C12H23NO/c1-2-3-4-5-6-7-10-13-11-8-9-12(13)14/h2-11H2,1H3
Instrument: TripleTOF 6600 SCIEX
Instrument type: LC-ESI-QTOF
Ms type: MS2
Ion mode: POSITIVE
Collision energy: 110
Fragmentation mode: CID
Ionization: ESI
Column name: Zorbax Eclipse Plus C18 2.1 mm x 150 mm, 3.5 um, Agilent
Retention time: 12.596 min
Precursor m/z: 198.1853
Precursor type: [M+H]+
m/z	relative intensity
37.0075	218
38.0026	76
38.0152	218
39.0232	999
41.0393	218
42.0342	66
44.0133	827
