Mass spectrum: 2,4-Diaminoanisole; LC-ESI-QTOF; MS2; 20 V
Name: 2,4-Diaminoanisole
Formula: C7H10N2O
Exact mass: 138.0793
SMILES: COC1=C(C=C(C=C1)N)N
InChI: InChI=1S/C7H10N2O/c1-10-7-3-2-5(8)4-6(7)9/h2-4H,8-9H2,1H3
Instrument: TripleTOF 6600 SCIEX
Instrument type: LC-ESI-QTOF
Ms type: MS2
Ion mode: POSITIVE
Collision energy: 20
Fragmentation mode: CID
Ionization: ESI
Column name: Zorbax Eclipse Plus C18 2.1 mm x 150 mm, 3.5 um, Agilent
Retention time: 2.235 min
Precursor m/z: 139.0866
Precursor type: [M+H]+
m/z	relative intensity
77.0388	35
80.0486	53
92.0495	17
93.0568	15
94.0645	50
95.0601	14
96.0683	22
107.0363	19
107.0597	386
108.0679	597
122.0592	211
123.0568	51
124.0627	999
139.0862	600
