Mass spectrum: Pyroxsulam; LC-ESI-QTOF; MS2; 80 V
Name: Pyroxsulam
Class: Herbicide
Formula: C14H13F3N6O5S
Exact mass: 434.062
SMILES: COC1=CC(=NC2=NC(=NN12)NS(=O)(=O)C3=C(C=CN=C3OC)C(F)(F)F)OC
InChI: InChI=1S/C14H13F3N6O5S/c1-26-8-6-9(27-2)23-13(19-8)20-12(21-23)22-29(24,25)10-7(14(15,16)17)4-5-18-11(10)28-3/h4-6H,1-3H3,(H,21,22)
Instrument: TripleTOF 6600 SCIEX
Instrument type: LC-ESI-QTOF
Ms type: MS2
Ion mode: NEGATIVE
Collision energy: 80
Fragmentation mode: CID
Ionization: ESI
Column name: Zorbax Eclipse Plus C18 2.1 mm x 150 mm, 3.5 um, Agilent
Retention time: 9.651 min
Precursor m/z: 433.0547
Precursor type: [M-H]-
m/z	relative intensity
40.0064	42
41.9984	35
64.0047	49
65.0139	184
65.998	375
66.0084	999
68.994	304
76.0163	42
88.0182	255
89.0049	106
90.0085	70
92.0112	63
93.0079	162
106.0077	77
106.0298	42
107.0099	170
108.0234	283
109.0168	70
116.0139	333
117.0267	35
119.0104	35
119.023	42
123.017	255
126.0139	77
128.0303	389
135.0082	113
136.0187	184
146.022	616
147.0189	318
148.0236	70
149.0091	162
150.0296	35
153.0139	35
154.0236	35
156.0263	205
157.0106	28
157.0443	28
159.012	70
162.018	56
162.0411	170
164.0308	63
165.0237	35
171.0118	77
172.0235	141
173.0176	191
174.0292	28
184.0133	70
185.0174	70
186.0332	35
200.0377	49
201.0042	42
201.0185	77
210.0329	28
211.0196	205
211.0407	35
222.0331	42
225.0246	269
227.0185	474
238.02	49
238.0359	35
239.035	42
251.0087	56
251.0294	106
267.0071	35
291.0142	35
291.0341	28
