Mass spectrum: Naftifine; LC-ESI-QTOF; MS2; 70 V
Name: Naftifine
Class: Pharmaceutical; Fungicide
Formula: C21H21N
Exact mass: 287.1674
SMILES: CN(C/C=C/c1ccccc1)Cc2cccc3c2cccc3
InChI: InChI=1S/C21H21N/c1-22(16-8-11-18-9-3-2-4-10-18)17-20-14-7-13-19-12-5-6-15-21(19)20/h2-15H,16-17H2,1H3/b11-8+
Instrument: TripleTOF 5600 SCIEX
Instrument type: LC-ESI-QTOF
Ms type: MS2
Ion mode: POSITIVE
Collision energy: 70
Fragmentation mode: CID
Ionization: ESI
Column name: Zorbax Eclipse Plus C18 2.1 mm x 150 mm, 3.5 um, Agilent
Retention time: 8.505 min
Precursor m/z: 288.1747
Precursor type: [M+H]+
m/z	relative intensity
65.0428	29
89.0404	20
91.057	320
115.0553	999
116.0621	16
117.0705	219
141.0706	354
