Mass spectrum: 11alpha-Hydroxyprogesterone; LC-ESI-QTOF; MS2; 50 V
Name: 11alpha-Hydroxyprogesterone
Class: Pharmaceutical; Metabolite
Formula: C21H30O3
Exact mass: 330.2195
SMILES: CC(=O)C1CC[C@H]2[C@@H]3CCC4=CC(=O)CC[C@]4(C)[C@H]3[C@H](O)C[C@]12C
InChI: InChI=1S/C21H30O3/c1-12(22)16-6-7-17-15-5-4-13-10-14(23)8-9-20(13,2)19(15)18(24)11-21(16,17)3/h10,15-19,24H,4-9,11H2,1-3H3/t15-,16?,17-,18+,19+,20-,21+/m0/s1
Instrument: TripleTOF 5600 SCIEX
Instrument type: LC-ESI-QTOF
Ms type: MS2
Ion mode: POSITIVE
Collision energy: 50
Fragmentation mode: CID
Ionization: ESI
Column name: Zorbax Eclipse Plus C18 2.1 mm x 150 mm, 3.5 um, Agilent
Retention time: 10.293 min
Precursor m/z: 331.2268
Precursor type: [M+H]+
m/z	relative intensity
43.027	454
43.0492	23
55.0228	54
55.0595	69
65.042	27
67.0576	252
69.0363	23
69.0747	62
71.0525	155
77.0414	275
79.0563	415
81.0719	260
83.0518	388
83.0908	23
85.0666	128
91.0557	761
93.0711	528
95.0496	58
95.0862	369
97.0658	664
103.0552	66
105.0702	874
107.0494	112
107.0857	287
108.0571	19
109.0646	353
109.1003	89
115.0536	116
116.0606	34
117.0701	268
119.085	509
121.0649	999
121.1004	120
123.0803	851
123.1135	27
127.0558	19
128.0607	104
129.0695	190
130.0774	93
131.085	544
132.0596	19
132.0939	15
133.064	97
133.1006	400
135.0805	112
135.1156	85
137.0961	31
141.0691	104
142.0774	163
143.0848	338
144.0574	15
144.093	93
145.0641	27
145.1016	513
146.0739	38
147.0801	155
147.1163	260
148.0893	50
149.0962	81
149.1335	42
153.07	50
154.078	46
155.0841	237
156.0921	93
157.1014	260
158.0695	19
158.108	54
159.08	46
159.1153	287
159.142	15
160.09	15
161.096	136
161.1316	54
163.1117	229
165.0695	31
167.0853	42
168.0923	77
169.101	178
170.109	42
171.0802	15
171.1159	256
172.0877	19
172.1316	15
173.0963	73
173.1321	174
174.1055	34
175.1116	81
175.1468	34
177.127	31
179.0876	34
180.0914	27
181.0992	89
182.1099	73
183.0787	15
183.1166	155
184.1274	34
185.096	19
185.1312	112
186.1377	15
187.1095	54
187.1474	46
189.1256	38
191.0822	15
192.0911	23
193.1011	34
194.1087	15
195.1171	97
196.1244	31
197.132	155
198.1045	15
199.1091	38
199.1458	66
201.1245	42
203.139	27
205.0985	23
207.1155	46
208.1283	31
209.1326	54
211.1109	46
211.1483	66
212.1199	19
213.1274	54
213.1628	69
214.1344	15
215.1402	34
219.1163	23
221.1311	31
222.1406	27
223.1448	23
224.1195	19
224.152	15
225.1288	34
225.1622	27
227.1426	46
228.1489	19
229.1593	19
233.1361	19
237.1673	58
239.1411	38
240.1516	19
251.1429	23
251.1745	23
252.1927	19
253.1548	19
253.1935	27
255.1745	23
265.1582	23
271.2072	19
295.2084	27
313.2079	27
