Mass spectrum: Quinoline; LC-ESI-QTOF; MS2; 40 V
Name: Quinoline
Formula: C9H7N
Exact mass: 129.0578
SMILES: C1=CC=C2C(=C1)C=CC=N2
InChI: InChI=1S/C9H7N/c1-2-6-9-8(4-1)5-3-7-10-9/h1-7H
Instrument: TripleTOF X500R SCIEX
Instrument type: LC-ESI-QTOF
Ms type: MS2
Ion mode: POSITIVE
Collision energy: 40
Fragmentation mode: CID
Ionization: ESI
Column name: Zorbax Eclipse Plus C18 2.1 mm x 150 mm, 3.5 um, Agilent
Retention time: 4.58 min
Precursor m/z: 130.0651
Precursor type: [M+H]+
m/z	relative intensity
50.0151	43
51.0225	176
63.0226	15
75.0229	35
77.038	518
101.0387	101
102.0464	326
103.0539	940
104.0509	14
105.0457	17
128.0493	441
129.0571	32
130.0645	999
