Mass spectrum: Kresoxim-methyl; LC-ESI-QTOF; MS2; 40 V
Name: Kresoxim-methyl
Class: Fungicide
Formula: C18H19NO4
Exact mass: 313.1314
SMILES: CC1=CC=CC=C1OCC2=CC=CC=C2C(=NOC)C(=O)OC
InChI: InChI=1S/C18H19NO4/c1-13-8-4-7-11-16(13)23-12-14-9-5-6-10-15(14)17(19-22-3)18(20)21-2/h4-11H,12H2,1-3H3
Instrument: TripleTOF 6600 SCIEX
Instrument type: LC-ESI-QTOF
Ms type: MS2
Ion mode: POSITIVE
Collision energy: 40
Fragmentation mode: CID
Ionization: ESI
Column name: Zorbax Eclipse Plus C18 2.1 mm x 150 mm, 3.5 um, Agilent
Retention time: 13.809 min
Precursor m/z: 314.1387
Precursor type: [M+H]+
m/z	relative intensity
59.0106	19
63.0216	11
65.037	13
77.038	85
79.0534	25
89.0375	221
90.0451	58
91.053	258
103.0529	34
104.0609	11
105.0691	42
107.0485	21
115.0523	29
116.0488	689
117.0563	169
118.0416	15
118.0642	163
119.0475	44
121.0636	77
128.0485	21
130.0648	167
131.0722	478
132.0448	60
132.0797	118
135.0427	68
140.0485	17
141.0694	17
146.06	241
151.0525	38
152.0622	114
153.0693	44
154.0666	19
164.0622	13
165.0679	242
166.0737	124
167.0808	209
168.0807	54
176.06	81
177.0696	130
178.0759	550
179.0846	369
180.0531	15
180.0797	585
181.0652	69
181.0937	27
189.0571	44
190.0647	54
191.084	33
192.0793	62
193.088	295
194.072	69
194.0956	757
195.08	116
195.1021	58
196.0789	15
196.1156	11
203.0733	182
204.0809	264
205.0888	50
206.0598	262
206.0957	87
207.0747	888
208.0857	410
209.0891	31
210.0673	23
210.0882	11
210.1193	9
218.0954	21
220.0749	48
220.1105	9
221.0838	52
222.0912	999
223.0995	686
224.1086	36
225.0864	25
232.077	27
234.0856	15
235.0755	445
236.0774	27
236.1096	9
237.1161	23
238.082	9
238.1222	52
250.0841	27
254.1181	56
282.1079	11
