Mass spectrum: Oseltamivir; LC-ESI-QTOF; MS2; 20 V
Name: Oseltamivir
Class: Pharmaceutical
Formula: C16H28N2O4
Exact mass: 312.2049
SMILES: CCC(CC)O[C@@H]1C=C(C[C@@H]([C@H]1/N=C(\C)/O)N)C(=O)OCC
InChI: InChI=1S/C16H28N2O4/c1-5-12(6-2)22-14-9-11(16(20)21-7-3)8-13(17)15(14)18-10(4)19/h9,12-15H,5-8,17H2,1-4H3,(H,18,19)/t13-,14+,15+/m0/s1
Instrument: TripleTOF 5600 SCIEX
Instrument type: LC-ESI-QTOF
Ms type: MS2
Ion mode: POSITIVE
Collision energy: 20
Fragmentation mode: CID
Ionization: ESI
Column name: Zorbax Eclipse Plus C18 2.1 mm x 150 mm, 3.5 um, Agilent
Retention time: 6.973 min
Precursor m/z: 313.2122
Precursor type: [M+H]+
m/z	relative intensity
94.0659	33
120.0439	126
122.0953	15
136.0746	86
137.0702	54
138.0539	30
139.0741	14
140.0692	19
162.0541	55
166.0855	960
167.0693	26
179.0807	84
180.0642	41
183.1111	13
207.112	10
208.0958	999
225.1221	764
226.1064	116
243.1327	128
