Mass spectrum: 4-Aminoantipyrine; LC-ESI-QTOF; MS2; 80 V
Name: 4-Aminoantipyrine
Class: Transformation_product; Pharmaceutical; Transformation_product-Metabolite
Formula: C11H13N3O
Exact mass: 203.1059
SMILES: CC1=C(C(=O)N(N1C)C2=CC=CC=C2)N
InChI: InChI=1S/C11H13N3O/c1-8-10(12)11(15)14(13(8)2)9-6-4-3-5-7-9/h3-7H,12H2,1-2H3
Instrument: TripleTOF 5600 SCIEX
Instrument type: LC-ESI-QTOF
Ms type: MS2
Ion mode: POSITIVE
Collision energy: 80
Fragmentation mode: CID
Ionization: ESI
Column name: Zorbax Eclipse Plus C18 2.1 mm x 150 mm, 3.5 um, Agilent
Retention time: 4.783 min
Precursor m/z: 204.1131
Precursor type: [M+H]+
m/z	relative intensity
39.0236	13
41.0264	37
41.0397	11
42.0342	72
50.0157	31
51.0232	193
56.05	999
58.0656	13
65.0389	41
66.0467	23
75.0233	17
76.0289	9
77.0388	357
83.0614	33
89.0387	19
90.0467	9
92.0503	15
93.0566	23
94.0651	19
