Mass spectrum: Chloridazone-methyl-desphenyl; LC-ESI-QTOF; MS2; 30 V
Name: Chloridazone-methyl-desphenyl
Class: Herbicide; Transformation_product; Transformation_product-Metabolite
Formula: C5H6ClN3O
Exact mass: 159.0199
SMILES: CN1C(=O)C(=C(C=N1)N)Cl
InChI: InChI=1S/C5H6ClN3O/c1-9-5(10)4(6)3(7)2-8-9/h2H,7H2,1H3
Instrument: TripleTOF 6600 SCIEX
Instrument type: LC-ESI-QTOF
Ms type: MS2
Ion mode: POSITIVE
Collision energy: 30
Fragmentation mode: CID
Ionization: ESI
Column name: Zorbax Eclipse Plus C18 2.1 mm x 150 mm, 3.5 um, Agilent
Retention time: 4.787 min
Precursor m/z: 160.0272
Precursor type: [M+H]+
m/z	relative intensity
41.0367	27
42.032	55
43.0282	55
53.0243	27
54.0328	55
67.0275	55
68.0117	27
69.045	27
69.0519	27
75.9929	111
87.9935	305
88.995	55
97.0612	27
100.9875	27
103.0057	27
103.0185	27
103.9887	27
115.9873	55
116.9964	249
118.0001	83
130.0039	194
131.0077	138
145.0017	83
146.0048	55
160.0257	999
161.0293	638
