Mass spectrum: Carboxy terbinafine; LC-ESI-QTOF; MS2; 110 V
Name: Carboxy terbinafine
Class: Pharmaceutical; Metabolite
Formula: C21H23NO2
Exact mass: 321.1729
SMILES: CN(C\C=C\C#CC(C)(C)C(O)=O)Cc1cccc2ccccc12
InChI: InChI=1S/C21H23NO2/c1-21(2,20(23)24)14-7-4-8-15-22(3)16-18-12-9-11-17-10-5-6-13-19(17)18/h4-6,8-13H,15-16H2,1-3H3,(H,23,24)/b8-4+
Instrument: TripleTOF 5600 SCIEX
Instrument type: LC-ESI-QTOF
Ms type: MS2
Ion mode: POSITIVE
Collision energy: 110
Fragmentation mode: CID
Ionization: ESI
Column name: Zorbax Eclipse Plus C18 2.1 mm x 150 mm, 3.5 um, Agilent
Retention time: 7.447 min
Precursor m/z: 322.1802
Precursor type: [M+H]+
m/z	relative intensity
65.0429	46
77.0414	12
89.0401	149
91.0552	59
102.0471	11
115.0551	999
139.0539	44
141.0696	87
