Mass spectrum: Ipconazole; LC-ESI-QTOF; MS2; 130 V
Name: Ipconazole
Class: Fungicide
Formula: C18H24ClN3O
Exact mass: 333.1608
SMILES: CC(C)C1CCC(C1(CN2C=NC=N2)O)CC3=CC=C(C=C3)Cl
InChI: InChI=1S/C18H24ClN3O/c1-13(2)17-8-5-15(9-14-3-6-16(19)7-4-14)18(17,23)10-22-12-20-11-21-22/h3-4,6-7,11-13,15,17,23H,5,8-10H2,1-2H3
Instrument: TripleTOF 6600 SCIEX
Instrument type: LC-ESI-QTOF
Ms type: MS2
Ion mode: POSITIVE
Collision energy: 130
Fragmentation mode: CID
Ionization: ESI
Column name: Zorbax Eclipse Plus C18 2.1 mm x 150 mm, 3.5 um, Agilent
Retention time: 13.862 min
Precursor m/z: 334.1681
Precursor type: [M+H]+
m/z	relative intensity
37.0072	16
38.0151	20
39.0227	53
42.0209	36
43.0291	642
48.9831	24
50.0147	28
51.0221	32
61.0063	36
62.0144	90
63.0222	262
64.0304	24
65.0379	36
70.0395	999
72.983	163
74.0144	32
74.9986	16
75.0217	20
77.0375	28
89.0376	352
90.0452	65
98.9985	81
115.0527	85
125.0141	28
128.0607	45
