Mass spectrum: Azoxystrobin; LC-ESI-QTOF; MS2; 60 V
Name: Azoxystrobin
Class: Fungicide
Formula: C22H17N3O5
Exact mass: 403.1168
SMILES: COC=C(C1=CC=CC=C1OC2=NC=NC(=C2)OC3=CC=CC=C3C#N)C(=O)OC
InChI: InChI=1S/C22H17N3O5/c1-27-13-17(22(26)28-2)16-8-4-6-10-19(16)30-21-11-20(24-14-25-21)29-18-9-5-3-7-15(18)12-23/h3-11,13-14H,1-2H3
Instrument: TripleTOF 6600 SCIEX
Instrument type: LC-ESI-QTOF
Ms type: MS2
Ion mode: POSITIVE
Collision energy: 60
Fragmentation mode: CID
Ionization: ESI
Column name: Zorbax Eclipse Plus C18 2.1 mm x 150 mm, 3.5 um, Agilent
Retention time: 12.114 min
Precursor m/z: 404.1241
Precursor type: [M+H]+
m/z	relative intensity
68.9954	10
77.0367	28
89.0369	45
91.0518	11
101.0363	22
102.0321	61
103.0402	21
104.0478	48
105.0317	14
105.0554	22
114.0318	37
115.0396	18
116.0477	63
117.0315	20
117.0547	14
118.0389	14
119.035	14
120.0418	36
127.0391	35
128.0475	37
129.0427	124
130.0376	108
132.0422	19
133.0267	13
133.0503	95
134.0353	11
134.0582	92
141.0426	48
142.0499	10
143.0346	25
143.0577	52
144.0426	74
145.0267	24
145.0504	87
146.0215	35
154.0505	17
155.0353	19
155.0585	40
156.0429	728
157.0264	15
162.0286	12
169.0387	40
170.0454	43
171.0286	10
171.0536	114
172.0379	999
173.0448	20
177.0531	14
181.0367	12
182.0458	51
183.0536	325
184.0372	14
190.0635	10
199.0488	147
200.0326	209
201.0405	61
204.0788	10
205.0713	11
210.0408	102
211.0481	42
217.0737	10
218.0836	16
219.0677	11
229.0744	14
232.0737	18
233.0706	21
244.0851	40
245.069	45
246.0767	21
258.0769	15
259.0846	13
261.0777	12
271.0855	11
272.081	200
273.0649	75
273.0872	52
274.0721	29
275.08	21
287.0787	14
300.0755	211
301.0833	102
328.0711	519
329.0786	185
