Mass spectrum: 3,5-Dichloroaniline; LC-ESI-QTOF; MS2; 40 V
Name: 3,5-Dichloroaniline
Formula: C6H5Cl2N
Exact mass: 160.9799
SMILES: C1=C(C=C(C=C1Cl)Cl)N
InChI: InChI=1S/C6H5Cl2N/c7-4-1-5(8)3-6(9)2-4/h1-3H,9H2
Instrument: TripleTOF X500R SCIEX
Instrument type: LC-ESI-QTOF
Ms type: MS2
Ion mode: POSITIVE
Collision energy: 40
Fragmentation mode: CID
Ionization: ESI
Column name: Zorbax Eclipse Plus C18 2.1 mm x 150 mm, 3.5 um, Agilent
Retention time: 11.205 min
Precursor m/z: 161.9872
Precursor type: [M+H]+
m/z	relative intensity
39.0231	12
63.0228	14
64.0309	11
65.0385	84
72.9847	12
74.015	91
75.0231	21
90.0338	17
91.0421	39
92.0496	140
98.9999	38
100.008	166
108.9841	397
109.9916	25
126.0112	23
127.0181	999
144.9611	169
161.9873	112
172.9673	62
