Mass spectrum: 4-Aminoantipyrine; LC-ESI-QTOF; MS2; 100 V
Name: 4-Aminoantipyrine
Class: Transformation_product
Formula: C11H13N3O
Exact mass: 203.1059
SMILES: CC1=C(C(=O)N(N1C)C2=CC=CC=C2)N
InChI: InChI=1S/C11H13N3O/c1-8-10(12)11(15)14(13(8)2)9-6-4-3-5-7-9/h3-7H,12H2,1-2H3
Instrument: TripleTOF 5600 SCIEX
Instrument type: LC-ESI-QTOF
Ms type: MS2
Ion mode: POSITIVE
Collision energy: 100
Fragmentation mode: CID
Ionization: ESI
Column name: Zorbax Eclipse Plus C18 2.1 mm x 150 mm, 3.5 um, Agilent
Retention time: 4.783 min
Precursor m/z: 204.1131
Precursor type: [M+H]+
m/z	relative intensity
37.0081	16
39.023	60
41.0262	80
42.0343	132
49.0076	32
50.0154	148
51.0233	377
56.05	999
65.0384	64
66.0466	48
74.0138	28
75.0228	24
77.0388	224
89.0378	28
92.0526	20
93.0569	16
