Mass spectrum: Dienogest Impurity G; LC-ESI-QTOF; MS2; 70 V
Name: Dienogest Impurity G
Class: Pharmaceutical
Formula: C20H23NO2
Exact mass: 309.1729
SMILES: CC12CC=C3C(C1CCC2(CC#N)O)CCC4=C3C=CC(=C4)O
InChI: InChI=1S/C20H23NO2/c1-19-8-6-16-15-5-3-14(22)12-13(15)2-4-17(16)18(19)7-9-20(19,23)10-11-21/h3,5-6,12,17-18,22-23H,2,4,7-10H2,1H3
Instrument: TripleTOF 6600 SCIEX
Instrument type: LC-ESI-QTOF
Ms type: CID
Ion mode: NEGATIVE
Collision energy: 70
Ionization: ESI
Column name: Zorbax Eclipse Plus C18 2.1 mm x 150 mm, 3.5 um, Agilent
Retention time: 9.956 min
Precursor m/z: 308.1656
Precursor type: [M-H]-
m/z	relative intensity
143.0493	561
156.0572	343
157.0647	249
159.0801	156
169.0646	999
171.0805	718
193.0649	218
195.0782	593
207.0781	187
209.0954	218
223.1115	156
235.0751	156
249.0906	312
251.1078	468
274.1172	280
