Mass spectrum: Azathioprine; LC-ESI-QTOF; MS2; 40 V
Name: Azathioprine
Class: Pharmaceutical
Formula: C9H7N7O2S
Exact mass: 277.0382
SMILES: Cn1cnc(c1Sc2ncnc3nc[nH]c23)[N+]([O-])=O
InChI: InChI=1S/C9H7N7O2S/c1-15-4-14-7(16(17)18)9(15)19-8-5-6(11-2-10-5)12-3-13-8/h2-4H,1H3,(H,10,11,12,13)
Instrument: TripleTOF 5600 SCIEX
Instrument type: LC-ESI-QTOF
Ms type: MS2
Ion mode: POSITIVE
Collision energy: 40
Fragmentation mode: CID
Ionization: ESI
Column name: Zorbax Eclipse Plus C18 2.1 mm x 150 mm, 3.5 um, Agilent
Retention time: 5.367 min
Precursor m/z: 278.0455
Precursor type: [M+H]+
m/z	relative intensity
57.9809	142
67.0328	428
69.0125	89
69.0498	89
74.0094	338
81.0463	142
84.9863	553
86.0073	89
100.9771	71
113.0161	249
119.0342	338
120.0424	374
121.0507	107
125.0023	107
134.0593	89
142.0064	999
145.0504	89
146.045	142
152.0137	374
159.0531	89
164.0144	570
165.0222	535
172.0618	570
174.0779	196
176.0167	178
177.0216	338
191.0274	124
199.0709	963
204.031	856
205.0416	713
215.0258	107
231.0434	517
232.0517	660
