Mass spectrum: Methiocarb; LC-ESI-QTOF; MS2; 130 V
Name: Methiocarb
Formula: C11H15NO2S
Exact mass: 225.0823
SMILES: Cc1cc(cc(c1SC)C)OC(=O)NC
InChI: InChI=1S/C11H15NO2S/c1-7-5-9(14-11(13)12-3)6-8(2)10(7)15-4/h5-6H,1-4H3,(H,12,13)
Instrument: TripleTOF 6600 SCIEX
Instrument type: LC-ESI-QTOF
Ms type: MS2
Ion mode: POSITIVE
Collision energy: 130
Fragmentation mode: CID
Ionization: ESI
Column name: Zorbax Eclipse Plus C18 2.1 mm x 150 mm, 3.5 um, Agilent
Retention time: 11.34614 min
Precursor m/z: 226.0896
Precursor type: [M+H]+
m/z	relative intensity
35.9968	70
37.0051	238
38.0132	174
39.0212	554
41.0367	32
43.9692	32
44.977	186
49.0048	135
50.0128	786
51.0207	999
52.0275	38
58.9927	38
61.0045	83
62.012	122
63.0203	135
65.036	128
67.9682	45
68.9769	135
73.0056	38
74.0129	103
77.0353	212
78.0431	25
89.0362	45
91.0517	58
