Mass spectrum: Sudan I; LC-ESI-QTOF; MS2; 60 V
Name: Sudan I
Formula: C16H12N2O
Exact mass: 248.095
SMILES: C1=CC=C(C=C1)N=NC2=C(C=CC3=CC=CC=C32)O
InChI: InChI=1S/C16H12N2O/c19-15-11-10-12-6-4-5-9-14(12)16(15)18-17-13-7-2-1-3-8-13/h1-11,19H
Instrument: TripleTOF 6600 SCIEX
Instrument type: LC-ESI-QTOF
Ms type: MS2
Ion mode: POSITIVE
Collision energy: 60
Fragmentation mode: CID
Ionization: ESI
Column name: Zorbax Eclipse Plus C18 2.1 mm x 150 mm, 3.5 um, Agilent
Retention time: 15.674 min
Precursor m/z: 249.1023
Precursor type: [M+H]+
m/z	relative intensity
51.0227	28
65.0385	87
66.0464	221
74.0153	22
75.0228	170
77.0382	207
78.0335	17
92.0496	121
93.0574	999
101.0386	207
102.033	40
127.0504	35
128.0493	125
129.0442	145
130.04	28
151.0549	10
176.0616	23
203.073	29
204.0826	36
229.0773	22
230.0832	15
231.0922	164
