Mass spectrum: 2-[(4-hydroxy-9,10-dioxoanthracen-1-yl)amino]-5-methylbenzenesulfonic acid; LC-ESI-QTOF; MS2; 50 V
Name: 2-[(4-hydroxy-9,10-dioxoanthracen-1-yl)amino]-5-methylbenzenesulfonic acid
Formula: C21H15NO6S
Exact mass: 409.062
SMILES: CC1=CC(=C(C=C1)NC2=C3C(=C(C=C2)O)C(=O)C4=CC=CC=C4C3=O)S(=O)(=O)O
InChI: InChI=1S/C21H15NO6S/c1-11-6-7-14(17(10-11)29(26,27)28)22-15-8-9-16(23)19-18(15)20(24)12-4-2-3-5-13(12)21(19)25/h2-10,22-23H,1H3,(H,26,27,28)
Instrument: TripleTOF X500R SCIEX
Instrument type: LC-ESI-QTOF
Ms type: MS2
Ion mode: NEGATIVE
Collision energy: 50
Fragmentation mode: CID
Ionization: ESI
Column name: Zorbax Eclipse Plus C18 2.1 mm x 150 mm, 3.5 um, Agilent
Retention time: 11.683 min
Precursor m/z: 408.0547
Precursor type: [M-H]-
m/z	relative intensity
79.9575	159
80.9655	22
121.0539	53
132.0473	33
167.0517	16
171.0471	22
184.0083	148
185.0163	402
195.0464	11
196.0109	18
209.0491	29
210.0341	12
211.0417	213
223.0418	11
237.0451	16
282.0929	105
298.0881	22
300.103	230
309.0847	83
310.0875	999
311.0963	51
326.0828	72
327.0892	256
328.0979	670
342.0786	22
344.0941	18
364.0661	29
408.0538	64
