Mass spectrum: 16alpha-hydroxyestrone; LC-ESI-QTOF; MS2; 70 V
Name: 16alpha-hydroxyestrone
Class: Pharmaceutical; Metabolite
Formula: C18H22O3
Exact mass: 286.1569
SMILES: C[C@]12CC[C@@H]3[C@H](CCc4cc(O)ccc34)[C@H]1C[C@@H](O)C2=O
InChI: InChI=1S/C18H22O3/c1-18-7-6-13-12-5-3-11(19)8-10(12)2-4-14(13)15(18)9-16(20)17(18)21/h3,5,8,13-16,19-20H,2,4,6-7,9H2,1H3/t13-,14-,15+,16+,18-/m0/s1
Instrument: TripleTOF 5600 SCIEX
Instrument type: LC-ESI-QTOF
Ms type: MS2
Ion mode: POSITIVE
Collision energy: 70
Fragmentation mode: CID
Ionization: ESI
Column name: Zorbax Eclipse Plus C18 2.1 mm x 150 mm, 3.5 um, Agilent
Retention time: 8.67 min
Precursor m/z: 287.1642
Precursor type: [M+H]+
m/z	relative intensity
43.0267	42
53.0437	10
55.0229	29
55.0593	13
57.0374	15
65.0425	57
67.0578	62
77.042	510
78.049	9
79.0571	292
81.0714	29
89.0396	31
91.0561	386
93.071	13
94.0417	29
95.0854	10
102.0465	16
103.0547	308
105.0703	514
107.0493	309
115.0543	999
116.062	303
117.0688	49
118.0396	10
121.0641	23
126.0455	20
127.0541	380
128.0618	635
129.0694	211
130.0763	11
131.0489	304
131.0807	38
132.056	47
133.0644	299
139.0534	31
141.0695	308
142.0755	17
143.0842	14
144.0565	662
145.0635	76
151.0534	64
152.0617	268
153.0695	184
154.0773	26
155.0837	28
157.0645	530
158.0717	50
159.0796	80
163.0536	11
164.0615	23
165.0697	437
166.0766	50
167.0848	49
168.0558	18
169.0643	81
170.0715	26
171.0795	43
176.061	67
177.0686	70
178.0769	206
179.0842	68
181.0643	286
182.071	95
183.0797	63
184.0871	14
189.0694	52
190.0772	22
191.0841	26
193.0999	10
194.0716	80
195.0787	48
202.0765	41
203.0832	23
205.0624	14
206.0707	13
207.0797	47
208.0874	9
219.0793	15
220.0876	13
