Mass spectrum: 2-(Ethylthio)benzothiazole; LC-ESI-QTOF; MS2; 60 V
Name: 2-(Ethylthio)benzothiazole
Class: Pharmaceutical
Formula: C9H9NS2
Exact mass: 195.0176
SMILES: CCSc1sc2ccccc2n1
InChI: InChI=1S/C9H9NS2/c1-2-11-9-10-7-5-3-4-6-8(7)12-9/h3-6H,2H2,1H3
Instrument: TripleTOF 5600 SCIEX
Instrument type: LC-ESI-QTOF
Ms type: MS2
Ion mode: POSITIVE
Collision energy: 60
Fragmentation mode: CID
Ionization: ESI
Column name: Zorbax Eclipse Plus C18 2.1 mm x 150 mm, 3.5 um, Agilent
Retention time: 13.742 min
Precursor m/z: 196.0249
Precursor type: [M+H]+
m/z	relative intensity
51.029	50
65.0429	784
66.052	101
68.9826	163
77.0406	754
80.0517	397
81.9895	61
90.0365	91
91.0428	132
92.0505	101
96.0028	132
108.003	438
109.0108	662
110.019	132
123.013	112
124.0218	173
135.0131	999
136.0211	295
166.9872	50
167.9922	61
