Mass spectrum: Desmethylranitidine; LC-ESI-QTOF; MS2; 120 V
Name: Desmethylranitidine
Class: Pharmaceutical; Transformation_product
Formula: C12H20N4O3S
Exact mass: 300.1256
SMILES: CNCC1=CC=C(O1)CSCCNC(=C[N+](=O)[O-])NC
InChI: InChI=1S/C12H20N4O3S/c1-13-7-10-3-4-11(19-10)9-20-6-5-15-12(14-2)8-16(17)18/h3-4,8,13-15H,5-7,9H2,1-2H3
Instrument: TripleTOF 5600 SCIEX
Instrument type: LC-ESI-QTOF
Ms type: MS2
Ion mode: POSITIVE
Collision energy: 120
Fragmentation mode: CID
Ionization: ESI
Column name: Zorbax Eclipse Plus C18 2.1 mm x 150 mm, 3.5 um, Agilent
Retention time: 4.769 min
Precursor m/z: 301.1329
Precursor type: [M+H]+
m/z	relative intensity
42.0439	386
44.0587	96
51.0296	531
52.024	80
52.0387	80
53.0459	886
54.0388	128
55.0338	64
55.0541	80
56.054	515
57.0497	193
58.9999	354
60.015	64
65.0424	370
66.0496	80
67.0436	128
68.0544	161
70.0678	112
75.024	64
77.0408	982
78.0363	145
78.0456	145
79.0553	64
80.0513	499
81.0378	999
82.0541	241
83.062	96
88.0216	96
89.0396	112
90.0479	80
91.0548	96
92.0536	112
93.0544	96
94.063	80
96.0713	177
97.0117	112
97.0767	435
102.0384	290
104.051	145
119.06	112
132.0456	145
