Mass spectrum: 5-Chlorobenzotriazole; LC-ESI-QTOF; MS2; 40 V
Name: 5-Chlorobenzotriazole
Class: Industrial_process
Formula: C6H4ClN3
Exact mass: 153.0094
SMILES: Clc1ccc2n[nH]nc2c1
InChI: InChI=1S/C6H4ClN3/c7-4-1-2-5-6(3-4)9-10-8-5/h1-3H,(H,8,9,10)
Instrument: TripleTOF 5600 SCIEX
Instrument type: LC-ESI-QTOF
Ms type: MS2
Ion mode: POSITIVE
Collision energy: 40
Fragmentation mode: CID
Ionization: ESI
Column name: Zorbax Eclipse Plus C18 2.1 mm x 150 mm, 3.5 um, Agilent
Retention time: 7.635 min
Precursor m/z: 154.0167
Precursor type: [M+H]+
m/z	relative intensity
52.0246	17
61.9837	31
65.0304	29
66.038	10
72.9877	847
75.0051	14
76.02	23
90.0355	948
91.0431	776
97.9926	10
99.0004	999
99.9951	14
119.0479	225
125.0025	85
126.0104	228
154.0164	607
