Mass spectrum: Sulfapyridine; LC-ESI-QTOF; MS2; 70 V
Name: Sulfapyridine
Class: Antimicrobial; Pharmaceutical
Formula: C11H11N3O2S
Exact mass: 249.0572
SMILES: C1=CC=NC(=C1)NS(=O)(=O)C2=CC=C(C=C2)N
InChI: InChI=1S/C11H11N3O2S/c12-9-4-6-10(7-5-9)17(15,16)14-11-3-1-2-8-13-11/h1-8H,12H2,(H,13,14)
Instrument: TripleTOF 5600 SCIEX
Instrument type: LC-ESI-QTOF
Ms type: MS2
Ion mode: POSITIVE
Collision energy: 70
Fragmentation mode: CID
Ionization: ESI
Column name: Zorbax Eclipse Plus C18 2.1 mm x 150 mm, 3.5 um, Agilent
Retention time: 5.55 min
Precursor m/z: 250.0645
Precursor type: [M+H]+
m/z	relative intensity
41.0387	12
51.0324	34
53.0466	63
65.0452	999
66.0401	58
66.054	17
67.0474	276
78.0377	344
79.0456	12
80.0529	493
92.0512	349
93.0587	75
94.0521	68
95.0616	239
108.044	258
113.0377	12
140.048	61
141.0455	17
155.0594	19
156.068	17
157.0748	14
166.0507	48
167.0577	46
168.0689	39
182.0671	34
183.0765	19
