Mass spectrum: Tolnaftate; LC-ESI-QTOF; MS2; 50 V
Name: Tolnaftate
Class: Fungicide; Pharmaceutical
Formula: C19H17NOS
Exact mass: 307.1031
SMILES: CC1=CC(=CC=C1)N(C)C(=S)OC2=CC3=CC=CC=C3C=C2
InChI: InChI=1S/C19H17NOS/c1-14-6-5-9-17(12-14)20(2)19(22)21-18-11-10-15-7-3-4-8-16(15)13-18/h3-13H,1-2H3
Instrument: TripleTOF 5600 SCIEX
Instrument type: LC-ESI-QTOF
Ms type: MS2
Ion mode: POSITIVE
Collision energy: 50
Fragmentation mode: CID
Ionization: ESI
Column name: Zorbax Eclipse Plus C18 2.1 mm x 150 mm, 3.5 um, Agilent
Retention time: 15.53 min
Precursor m/z: 308.1104
Precursor type: [M+H]+
m/z	relative intensity
44.9792	24
65.0384	89
77.0382	48
79.0537	66
91.0541	999
92.0609	48
93.0694	83
103.0542	10
104.0501	12
107.0482	32
115.0539	12
118.064	20
119.0603	18
120.0808	909
123.0259	350
133.0532	27
136.0213	18
148.026	10
148.076	117
149.029	318
152.0513	10
159.0242	15
164.0529	446
165.0233	18
