Mass spectrum: Antipyrine; LC-ESI-QTOF; MS2; 80 V
Name: Antipyrine
Class: Pharmaceutical
Formula: C11H12N2O
Exact mass: 188.095
SMILES: CN1N(C(=O)C=C1C)c2ccccc2
InChI: InChI=1S/C11H12N2O/c1-9-8-11(14)13(12(9)2)10-6-4-3-5-7-10/h3-8H,1-2H3
Instrument: TripleTOF 5600 SCIEX
Instrument type: LC-ESI-QTOF
Ms type: MS2
Ion mode: POSITIVE
Collision energy: 80
Fragmentation mode: CID
Ionization: ESI
Column name: Zorbax Eclipse Plus C18 2.1 mm x 150 mm, 3.5 um, Agilent
Retention time: 6.261 min
Precursor m/z: 189.1022
Precursor type: [M+H]+
m/z	relative intensity
54.0369	26
56.0541	465
58.069	16
65.0416	143
66.0492	32
74.0187	22
75.0249	22
77.0407	999
78.0474	52
79.0543	19
82.0294	16
89.0392	126
90.0449	32
91.0542	104
92.0485	16
95.0554	13
102.0466	29
103.0534	39
104.0494	42
105.0437	13
115.0524	58
117.0575	22
118.066	16
130.0646	32
131.0612	22
