Mass spectrum: Etoricoxib; LC-ESI-QTOF; MS2; 110 V
Name: Etoricoxib
Class: Pharmaceutical
Formula: C18H15ClN2O2S
Exact mass: 358.0543
SMILES: CC1=NC=C(C=C1)C2=NC=C(C=C2C3=CC=C(C=C3)S(=O)(=O)C)Cl
InChI: InChI=1S/C18H15ClN2O2S/c1-12-3-4-14(10-20-12)18-17(9-15(19)11-21-18)13-5-7-16(8-6-13)24(2,22)23/h3-11H,1-2H3
Instrument: TripleTOF 5600 SCIEX
Instrument type: LC-ESI-QTOF
Ms type: MS2
Ion mode: POSITIVE
Collision energy: 110
Fragmentation mode: CID
Ionization: ESI
Column name: Zorbax Eclipse Plus C18 2.1 mm x 150 mm, 3.5 um, Agilent
Retention time: 6.991 min
Precursor m/z: 359.0616
Precursor type: [M+H]+
m/z	relative intensity
75.0278	14
76.0334	10
77.0426	16
98.0179	20
99.025	24
102.0471	11
113.0407	14
114.0437	13
115.0568	20
122.0146	10
123.0221	25
124.0272	22
125.0387	54
126.0451	56
127.0459	27
128.0536	11
137.0384	17
138.0471	20
139.0536	111
140.0505	84
141.0582	17
142.0646	14
148.0289	12
149.0382	140
150.0462	264
151.0523	236
152.0595	187
153.0576	81
161.0384	17
162.0437	37
163.0542	243
164.0516	167
165.0596	76
166.065	175
167.0713	69
168.068	13
173.038	41
174.0453	315
175.0531	580
176.0573	561
177.056	287
178.0541	80
179.0582	23
186.0116	13
186.0473	11
187.0158	22
187.0535	225
188.0266	13
188.0578	335
189.0681	594
190.0645	335
191.0695	106
192.0682	69
193.0745	62
194.0813	16
198.0462	15
199.042	115
200.0497	327
201.0568	999
202.0639	590
203.0706	242
204.0664	63
205.0747	13
210.0187	13
212.0234	14
212.0495	35
213.0192	48
213.055	68
214.0643	849
215.0707	466
216.0791	742
217.082	121
218.0826	22
223.0304	15
224.0231	33
225.0324	31
225.0525	50
226.0561	147
227.0603	281
228.0666	251
229.0478	11
229.0743	161
236.025	87
237.029	66
238.0416	40
239.0331	13
239.0566	35
240.0671	127
241.0748	394
242.0835	594
243.0908	182
249.0303	38
250.04	227
251.0403	91
252.0455	23
262.0303	15
263.0365	181
275.0354	58
276.0425	225
277.051	108
