Mass spectrum: Abacavir; LC-ESI-QTOF; MS2; 110 V
Name: Abacavir
Class: Pharmaceutical
Formula: C14H18N6O
Exact mass: 286.1542
SMILES: Nc1nc(NC2CC2)c3ncn([C@@H]4C[C@H](CO)C=C4)c3n1
InChI: InChI=1S/C14H18N6O/c15-14-18-12(17-9-2-3-9)11-13(19-14)20(7-16-11)10-4-1-8(5-10)6-21/h1,4,7-10,21H,2-3,5-6H2,(H3,15,17,18,19)/t8-,10+/m1/s1
Instrument: TripleTOF 5600 SCIEX
Instrument type: LC-ESI-QTOF
Ms type: MS2
Ion mode: POSITIVE
Collision energy: 110
Fragmentation mode: CID
Ionization: ESI
Column name: Zorbax Eclipse Plus C18 2.1 mm x 150 mm, 3.5 um, Agilent
Retention time: 5.094 min
Precursor m/z: 287.1615
Precursor type: [M+H]+
m/z	relative intensity
40.0265	13
43.0377	35
43.0517	12
52.025	16
53.0201	83
53.0435	10
54.0269	28
54.0364	15
55.0352	92
56.054	11
65.0181	125
65.0425	45
66.0249	44
67.0329	23
67.0587	200
68.029	79
77.0427	999
78.0369	19
79.0571	201
80.0272	68
81.0344	19
81.0476	13
82.0424	22
92.0262	70
93.0458	12
94.0423	22
105.0461	10
106.0416	22
107.0362	65
108.0439	69
109.0516	32
119.0349	9
134.047	22
