Mass spectrum: Benzophenone-3; LC-ESI-QTOF; MS2; 140 V
Name: Benzophenone-3
Class: Personal_care_product
Formula: C14H12O3
Exact mass: 228.0786
SMILES: COc1ccc(c(O)c1)C(=O)c2ccccc2
InChI: InChI=1S/C14H12O3/c1-17-11-7-8-12(13(15)9-11)14(16)10-5-3-2-4-6-10/h2-9,15H,1H3
Instrument: TripleTOF 5600 SCIEX
Instrument type: LC-ESI-QTOF
Ms type: MS2
Ion mode: POSITIVE
Collision energy: 140
Fragmentation mode: CID
Ionization: ESI
Column name: Zorbax Eclipse Plus C18 2.1 mm x 150 mm, 3.5 um, Agilent
Retention time: 13.504 min
Precursor m/z: 229.0859
Precursor type: [M+H]+
m/z	relative intensity
53.0071	924
65.0422	148
69.0002	222
73.01	370
74.018	999
75.0252	259
77.0402	666
85.0093	481
86.0166	740
87.0247	407
89.0408	185
98.0153	370
