Mass spectrum: Fluazifop-P-butyl; LC-ESI-QTOF; MS2; 120 V
Name: Fluazifop-P-butyl
Class: Herbicide
Formula: C19H20F3NO4
Exact mass: 383.1344
SMILES: CCCCOC(=O)C(C)OC1=CC=C(C=C1)OC2=NC=C(C=C2)C(F)(F)F
InChI: InChI=1S/C19H20F3NO4/c1-3-4-11-25-18(24)13(2)26-15-6-8-16(9-7-15)27-17-10-5-14(12-23-17)19(20,21)22/h5-10,12-13H,3-4,11H2,1-2H3
Instrument: TripleTOF 6600 SCIEX
Instrument type: LC-ESI-QTOF
Ms type: MS2
Ion mode: POSITIVE
Collision energy: 120
Fragmentation mode: CID
Ionization: ESI
Column name: Zorbax Eclipse Plus C18 2.1 mm x 150 mm, 3.5 um, Agilent
Retention time: 15.933 min
Precursor m/z: 384.1417
Precursor type: [M+H]+
m/z	relative intensity
35.9992	30
37.0074	148
38.0033	27
38.0154	143
39.0231	884
41.0386	221
43.0177	17
45.0331	13
49.0075	17
50.0149	154
51.0064	39
51.0227	293
52.0197	26
52.0308	13
53.013	11
53.0379	24
55.0172	21
57.0126	40
59.9995	15
61.006	70
62.0149	166
63.0225	451
64.0175	21
64.0298	56
65.0383	597
66.0462	33
68.9939	268
70.0212	89
73.0058	34
74.0146	318
75.0044	999
75.0196	179
76.0174	187
76.0301	37
77.0381	553
78.033	218
79.0183	17
79.0425	14
79.0543	13
80.0056	15
81.0128	33
81.033	57
83.0284	44
85.0061	10
86.0145	40
87.0224	134
88.0181	41
88.0295	174
89.019	11
89.0376	111
90.033	11
90.0461	23
91.0529	195
92.025	27
92.9948	28
93.0123	15
93.0323	24
94.0397	24
95.0295	13
96.0237	43
97.03	37
98.014	41
99.0035	313
99.0195	33
100.0114	251
101.0186	57
101.0371	53
102.0452	146
103.0536	161
104.0494	26
105.012	10
105.0366	15
106.0177	53
107.0281	115
108.02	18
108.0375	14
110.0364	18
111.0212	18
112.012	11
112.0327	11
113.0217	43
113.0379	393
114.0443	231
115.0422	65
115.0534	39
116.0291	23
116.049	26
117.0124	40
117.0554	18
119.0092	111
119.0349	26
120.0183	43
120.0392	21
121.043	28
122.016	92
123.0219	166
124.0162	85
125.0189	46
126.0148	589
127.022	170
128.0483	133
129.0531	80
130.0391	10
130.0637	39
131.0273	79
131.0467	150
132.0357	85
133.0227	11
133.044	186
134.0385	34
135.0463	17
137.0186	43
138.0284	31
139.0476	78
140.0484	516
141.0218	18
141.0564	234
142.0199	13
142.0396	14
142.0643	15
143.0295	80
144.0277	40
145.0253	15
146.0204	248
147.0304	73
147.0464	14
148.0348	18
148.0558	20
149.0398	21
150.033	28
151.035	341
152.0282	23
152.0445	10
154.0634	13
156.0195	14
156.0442	26
157.0245	30
157.0504	14
158.0382	143
159.0461	75
160.034	11
161.0184	20
162.0275	79
163.032	75
164.0357	62
165.031	14
166.0444	17
166.0631	20
168.0421	62
169.0288	39
169.0493	20
170.0392	52
171.0427	15
172.034	33
176.031	23
177.0382	39
178.0448	36
180.0329	17
181.026	11
182.0304	43
183.0332	13
184.0365	34
185.0444	34
188.0301	27
188.0448	15
189.0396	57
190.045	76
191.0361	10
196.0366	13
197.0444	26
198.0522	37
207.0363	14
208.036	54
209.0414	40
210.055	13
218.0407	26
236.0324	26
238.0434	10
