Mass spectrum: Tetraconazole; LC-ESI-QTOF; MS2; 150 V
Name: Tetraconazole
Class: Fungicide
Formula: C13H11Cl2F4N3O
Exact mass: 371.0215
SMILES: C1=CC(=C(C=C1Cl)Cl)C(CN2C=NC=N2)COC(C(F)F)(F)F
InChI: InChI=1S/C13H11Cl2F4N3O/c14-9-1-2-10(11(15)3-9)8(4-22-7-20-6-21-22)5-23-13(18,19)12(16)17/h1-3,6-8,12H,4-5H2
Instrument: TripleTOF 6600 SCIEX
Instrument type: LC-ESI-QTOF
Ms type: MS2
Ion mode: POSITIVE
Collision energy: 150
Fragmentation mode: CID
Ionization: ESI
Column name: Zorbax Eclipse Plus C18 2.1 mm x 150 mm, 3.5 um, Agilent
Retention time: 12.382 min
Precursor m/z: 372.0288
Precursor type: [M+H]+
m/z	relative intensity
37.0068	32
38.0145	28
39.0226	89
43.0287	150
46.9679	73
48.9834	81
51.0036	211
59.9987	24
61.0071	162
62.0146	531
63.0226	913
65.0376	40
70.0394	105
72.9835	767
74.0145	60
75.0226	52
82.9444	64
85.008	20
86.0144	64
87.022	73
88.0299	89
89.0383	999
96.9831	97
98.9987	64
106.9439	28
107.0293	24
113.0382	32
115.0536	77
122.9995	48
132.9621	20
