Mass spectrum: Trinexapac-ethyl; LC-ESI-QTOF; MS2; 70 V
Name: Trinexapac-ethyl
Class: Pesticide
Formula: C13H16O5
Exact mass: 252.0998
SMILES: CCOC(=O)C1CC(=O)C(=C(C2CC2)O)C(=O)C1
InChI: InChI=1S/C13H16O5/c1-2-18-13(17)8-5-9(14)11(10(15)6-8)12(16)7-3-4-7/h7-8,16H,2-6H2,1H3
Instrument: TripleTOF 6600 SCIEX
Instrument type: LC-ESI-QTOF
Ms type: MS2
Ion mode: NEGATIVE
Collision energy: 70
Fragmentation mode: CID
Ionization: ESI
Column name: Zorbax Eclipse Plus C18 2.1 mm x 150 mm, 3.5 um, Agilent
Retention time: 11.11 min
Precursor m/z: 251.0925
Precursor type: [M-H]-
m/z	relative intensity
41.0025	999
43.0177	199
44.9962	199
51.0226	399
65	799
65.0356	599
67.0159	399
93.033	399
107.0499	199
108.0184	199
109.0257	399
109.0338	399
