Mass spectrum: 4-Bromoantipyrine; LC-ESI-QTOF; MS2; 60 V
Name: 4-Bromoantipyrine
Class: Industrial_process
Formula: C11H11BrN2O
Exact mass: 266.0055
SMILES: CC1=C(C(=O)N(N1C)C2=CC=CC=C2)Br
InChI: InChI=1S/C11H11BrN2O/c1-8-10(12)11(15)14(13(8)2)9-6-4-3-5-7-9/h3-7H,1-2H3
Instrument: TripleTOF 6600 SCIEX
Instrument type: LC-ESI-QTOF
Ms type: MS2
Ion mode: POSITIVE
Collision energy: 60
Fragmentation mode: CID
Ionization: ESI
Column name: Zorbax Eclipse Plus C18 2.1 mm x 150 mm, 3.5 um, Agilent
Retention time: 7.678 min
Precursor m/z: 267.0128
Precursor type: [M+H]+
m/z	relative intensity
39.0218	22
42.0325	58
51.0211	53
54.0327	71
56.0481	999
65.0364	58
68.0474	26
69.0556	31
77.0364	340
78.0432	31
91.0516	53
92.0466	22
93.0545	17
102.0436	53
103.0513	22
104.0469	67
104.9307	53
106.0625	22
115.0511	111
117.053	17
118.0616	40
128.047	85
130.062	85
132.0647	31
135.9721	353
142.062	22
143.0617	22
144.0769	49
145.0732	35
146.0565	17
147.087	22
159.0874	40
187.0818	22
