Mass spectrum: Omeprazole; LC-ESI-QTOF; MS2; 120 V
Name: Omeprazole
Class: Pharmaceutical
Formula: C17H19N3O3S
Exact mass: 345.1147
SMILES: COc1ccc2nc([nH]c2c1)[S](=O)Cc3ncc(C)c(OC)c3C
InChI: InChI=1S/C17H19N3O3S/c1-10-8-18-15(11(2)16(10)23-4)9-24(21)17-19-13-6-5-12(22-3)7-14(13)20-17/h5-8H,9H2,1-4H3,(H,19,20)
Instrument: TripleTOF 5600 SCIEX
Instrument type: LC-ESI-QTOF
Ms type: MS2
Ion mode: POSITIVE
Collision energy: 120
Fragmentation mode: CID
Ionization: ESI
Column name: Zorbax Eclipse Plus C18 2.1 mm x 150 mm, 3.5 um, Agilent
Retention time: 6.462 min
Precursor m/z: 346.122
Precursor type: [M+H]+
m/z	relative intensity
42.0468	27
52.0329	15
53.0476	70
54.0405	15
65.0455	320
66.0513	90
67.0581	155
68.0548	18
68.9828	11
77.0434	999
78.0378	174
79.0582	603
80.0539	164
81.0727	54
81.9901	24
82.986	13
82.997	15
89.0397	15
91.0566	253
92.0523	370
93.0609	348
94.067	124
96.0025	15
103.0544	36
104.051	101
105.0445	36
105.0567	65
106.0661	885
107.0739	381
108.0819	800
109.0018	58
110.0061	38
117.0584	33
118.0664	81
119.0734	31
120.0817	895
121.0893	205
122.0091	11
122.0973	391
123.0158	29
134.0086	15
134.0498	45
136.0216	300
136.0769	164
136.9978	20
137.0281	13
150.0382	13
150.0913	70
164.0153	38
165.0253	38
166.0358	20
