Mass spectrum: N,N`-diphenyl-p-phenylenediamine; LC-ESI-QTOF; MS2; 100 V
Name: N,N`-diphenyl-p-phenylenediamine
Class: Industrial_process
Formula: C18H16N2
Exact mass: 260.1313
SMILES: N(c1ccccc1)c2ccc(Nc3ccccc3)cc2
InChI: InChI=1S/C18H16N2/c1-3-7-15(8-4-1)19-17-11-13-18(14-12-17)20-16-9-5-2-6-10-16/h1-14,19-20H
Instrument: TripleTOF 5600 SCIEX
Instrument type: LC-ESI-QTOF
Ms type: MS2
Ion mode: POSITIVE
Collision energy: 100
Fragmentation mode: CID
Ionization: ESI
Column name: Zorbax Eclipse Plus C18 2.1 mm x 150 mm, 3.5 um, Agilent
Retention time: 14.544 min
Precursor m/z: 261.1386
Precursor type: [M+H]+
m/z	relative intensity
52.0346	47
54.0398	12
64.0355	33
65.0437	75
66.0496	74
74.0186	20
75.026	33
76.0317	20
77.0425	285
78.0442	112
79.0444	20
80.0533	999
87.0285	15
88.0329	23
89.041	135
90.0415	120
91.0449	77
92.0503	26
93.0601	37
101.0394	44
102.0466	64
103.0537	46
104.0559	12
105.0466	27
106.0531	13
107.0614	211
113.0386	74
114.0453	69
115.0546	149
116.0586	40
117.058	47
118.052	15
126.05	41
127.0548	135
128.0605	299
129.0668	117
130.0646	35
138.0458	16
139.0548	331
140.0509	309
141.0529	94
143.0755	15
153.057	12
154.0658	109
155.0698	60
164.0522	35
165.0575	27
166.0656	185
167.0729	161
168.0718	18
181.0764	75
182.0809	32
