Mass spectrum: Omeprazole 4-desmethylthioether; LC-ESI-QTOF; MS2; 70 V
Name: Omeprazole 4-desmethylthioether
Class: Metabolite; Pharmaceutical
Formula: C16H17N3O2S
Exact mass: 315.1041
SMILES: Cc1cnc(c(c1O)C)CSc2[nH]c3ccc(cc3n2)OC
InChI: InChI=1S/C16H17N3O2S/c1-9-7-17-14(10(2)15(9)20)8-22-16-18-12-5-4-11(21-3)6-13(12)19-16/h4-7H,8H2,1-3H3,(H,17,20)(H,18,19)
Instrument: TripleTOF 5600 SCIEX
Instrument type: LC-ESI-QTOF
Ms type: MS2
Ion mode: POSITIVE
Collision energy: 70
Fragmentation mode: CID
Ionization: ESI
Column name: Zorbax Eclipse Plus C18 2.1 mm x 150 mm, 3.5 um, Agilent
Retention time: 6.17 min
Precursor m/z: 316.1114
Precursor type: [M+H]+
m/z	relative intensity
53.0437	20
65.0423	105
66.0516	20
67.0582	162
77.0422	117
77.0643	24
78.039	20
79.0438	85
79.0571	125
80.0521	48
81.0589	40
81.0729	64
85.0105	20
91.055	158
92.0505	52
93.0595	365
94.0318	24
94.0663	345
95.074	20
96.0823	186
106.0527	507
107.0733	93
108.0816	999
109.0546	60
109.0893	89
117.0581	24
118.0646	28
122.0602	69
123.0681	97
124.0773	117
133.0395	36
134.0479	690
136.076	462
137.0183	36
137.083	125
140.0536	85
148.0757	77
149.0723	146
150.0366	28
165.0127	36
166.032	263
167.0383	36
167.0504	20
168.0476	312
213.105	24
240.1141	48
