Mass spectrum: 2-(3-Hydroxyquinolin-2-yl)indene-1,3-dione; LC-ESI-QTOF; MS2; 50 V
Name: 2-(3-Hydroxyquinolin-2-yl)indene-1,3-dione
Class: Industrial_process; Personal_care_product; Pigment
Formula: C18H11NO3
Exact mass: 289.0739
SMILES: C1=CC=C2C(=C1)C=C(C(=N2)C3C(=O)C4=CC=CC=C4C3=O)O
InChI: InChI=1S/C18H11NO3/c20-14-9-10-5-1-4-8-13(10)19-16(14)15-17(21)11-6-2-3-7-12(11)18(15)22/h1-9,15,20H
Instrument: TripleTOF 6600 SCIEX
Instrument type: LC-ESI-QTOF
Ms type: MS2
Ion mode: NEGATIVE
Collision energy: 50
Fragmentation mode: CID
Ionization: ESI
Column name: Zorbax Eclipse Plus C18 2.1 mm x 150 mm, 3.5 um, Agilent
Retention time: 14.718 min
Precursor m/z: 288.0666
Precursor type: [M-H]-
m/z	relative intensity
41.0044	24
41.9976	36
77.0386	42
101.0385	159
102.0331	24
116.0506	36
117.0332	36
140.0509	67
145.0287	999
168.046	67
170.0241	73
183.0305	42
203.0734	61
204.0809	30
214.066	49
215.0735	91
216.0816	435
231.0686	128
232.0772	85
242.0602	122
244.076	128
259.0623	398
260.0708	312
270.0549	49
288.066	128
