Mass spectrum: Ethyldiphenylphosphine oxide; LC-ESI-QTOF; MS2; 70 V
Name: Ethyldiphenylphosphine oxide
Class: Industrial_process
Formula: C14H15OP
Exact mass: 230.0861
SMILES: CC[P](=O)(c1ccccc1)c2ccccc2
InChI: InChI=1S/C14H15OP/c1-2-16(15,13-9-5-3-6-10-13)14-11-7-4-8-12-14/h3-12H,2H2,1H3
Instrument: TripleTOF 5600 SCIEX
Instrument type: LC-ESI-QTOF
Ms type: MS2
Ion mode: POSITIVE
Collision energy: 70
Fragmentation mode: CID
Ionization: ESI
Column name: Zorbax Eclipse Plus C18 2.1 mm x 150 mm, 3.5 um, Agilent
Retention time: 8.816 min
Precursor m/z: 231.0933
Precursor type: [M+H]+
m/z	relative intensity
51.029	139
56.994	48
65.0426	238
77.0417	793
78.0491	311
79.0568	86
83.0067	195
91.0561	134
103.0555	78
105.0704	78
107.0048	76
109.0205	281
115.0547	141
125.0152	233
127.0546	58
128.0634	73
139.0543	83
151.0552	114
152.0626	940
153.0703	185
154.0779	53
157.0207	210
165.0699	276
170.0277	53
181.0206	76
182.0276	38
183.0365	689
194.0274	81
195.0344	55
199.0316	999
200.0399	70
215.0624	96
