Mass spectrum: Budesonide; LC-ESI-QTOF; MS2; 40 V
Name: Budesonide
Class: Pharmaceutical
Formula: C25H34O6
Exact mass: 430.2355
SMILES: CCC[C@@H]1O[C@@H]2C[C@H]3[C@@H]4CCC5=CC(=O)C=C[C@]5(C)[C@H]4[C@@H](O)C[C@]3(C)[C@@]2(O1)C(=O)CO
InChI: InChI=1S/C25H34O6/c1-4-5-21-30-20-11-17-16-7-6-14-10-15(27)8-9-23(14,2)22(16)18(28)12-24(17,3)25(20,31-21)19(29)13-26/h8-10,16-18,20-22,26,28H,4-7,11-13H2,1-3H3/t16-,17-,18-,20+,21+,22+,23-,24-,25+/m0/s1
Instrument: TripleTOF 5600 SCIEX
Instrument type: LC-ESI-QTOF
Ms type: MS2
Ion mode: NEGATIVE
Collision energy: 40
Fragmentation mode: CID
Ionization: ESI
Column name: Zorbax Eclipse Plus C18 2.1 mm x 150 mm, 3.5 um, Agilent
Retention time: 11.041 min
Precursor m/z: 475.2337
Precursor type: [M+HCOO-]-
m/z	relative intensity
44.9992	999
172.0552	67
187.0782	141
267.1404	49
283.1698	117
295.1313	246
311.1651	154
321.1489	104
324.1372	61
339.1597	604
357.1683	647
475.2229	203
