Mass spectrum: Naproxen; LC-ESI-QTOF; MS2; 140 V
Name: Naproxen
Class: Pharmaceutical
Formula: C14H14O3
Exact mass: 230.0943
SMILES: COc1ccc2cc(ccc2c1)C(C)C(O)=O
InChI: InChI=1S/C14H14O3/c1-9(14(15)16)10-3-4-12-8-13(17-2)6-5-11(12)7-10/h3-9H,1-2H3,(H,15,16)
Instrument: TripleTOF 5600 SCIEX
Instrument type: LC-ESI-QTOF
Ms type: MS2
Ion mode: POSITIVE
Collision energy: 140
Fragmentation mode: CID
Ionization: ESI
Column name: Zorbax Eclipse Plus C18 2.1 mm x 150 mm, 3.5 um, Agilent
Retention time: 10.907 min
Precursor m/z: 231.1016
Precursor type: [M+H]+
m/z	relative intensity
51.0284	344
65.0424	137
73.0083	172
74.0169	999
75.026	482
76.0318	172
77.0415	310
86.016	344
87.027	275
89.0403	516
98.0127	241
115.0529	310
126.045	206
150.0439	206
