Mass spectrum: 1-Boc-4-[3-(ethoxycarbonyl)phenyl]piperazine; LC-ESI-QTOF; MS2; 60 V
Name: 1-Boc-4-[3-(ethoxycarbonyl)phenyl]piperazine
Formula: C18H26N2O4
Exact mass: 334.1893
SMILES: CCOC(=O)C1=CC(=CC=C1)N2CCN(CC2)C(=O)OC(C)(C)C
InChI: InChI=1S/C18H26N2O4/c1-5-23-16(21)14-7-6-8-15(13-14)19-9-11-20(12-10-19)17(22)24-18(2,3)4/h6-8,13H,5,9-12H2,1-4H3
Instrument: TripleTOF 6600 SCIEX
Instrument type: LC-ESI-QTOF
Ms type: MS2
Ion mode: POSITIVE
Collision energy: 60
Fragmentation mode: CID
Ionization: ESI
Column name: Zorbax Eclipse Plus C18 2.1 mm x 150 mm, 3.5 um, Agilent
Retention time: 14.611 min
Precursor m/z: 335.1965
Precursor type: [M+H]+
m/z	relative intensity
39.0231	13
41.0389	54
42.0336	11
44.0497	66
56.0495	33
57.0701	268
65.0385	14
70.0649	15
77.0388	71
79.0543	22
91.0542	89
92.0493	23
93.0577	19
93.0694	23
94.0649	19
103.0539	71
104.0496	21
106.0654	30
117.0574	67
118.0653	390
119.0727	124
120.0808	393
121.0293	14
130.0651	18
131.0722	12
132.0805	64
133.0759	24
144.08	31
145.0769	17
146.0604	97
146.0824	16
148.0386	23
150.0554	63
159.0912	21
161.1072	74
164.0711	999
176.0717	30
178.0856	18
189.102	20
190.0865	16
192.1018	48
205.0978	12
207.113	30
