Mass spectrum: Resorcinol bis(diphenyl phosphate); LC-ESI-QTOF; MS2; 140 V
Name: Resorcinol bis(diphenyl phosphate)
Class: Industrial_process
Formula: C30H24O8P2
Exact mass: 574.0946
SMILES: C1=CC=C(C=C1)OP(=O)(OC2=CC=CC=C2)OC3=CC(=CC=C3)OP(=O)(OC4=CC=CC=C4)OC5=CC=CC=C5
InChI: InChI=1S/C30H24O8P2/c31-39(33-25-14-5-1-6-15-25,34-26-16-7-2-8-17-26)37-29-22-13-23-30(24-29)38-40(32,35-27-18-9-3-10-19-27)36-28-20-11-4-12-21-28/h1-24H
Instrument: TripleTOF 6600 SCIEX
Instrument type: LC-ESI-QTOF
Ms type: MS2
Ion mode: POSITIVE
Collision energy: 140
Fragmentation mode: CID
Ionization: ESI
Column name: Zorbax Eclipse Plus C18 2.1 mm x 150 mm, 3.5 um, Agilent
Retention time: 15.87 min
Precursor m/z: 575.1019
Precursor type: [M+H]+
m/z	relative intensity
39.0225	34
46.968	30
49.007	15
50.0149	102
51.0229	383
61.0072	15
62.0149	30
63.0228	64
65.0384	60
73.0074	18
74.0152	87
75.0227	83
76.0303	45
77.0383	558
78.0459	49
81.0322	15
86.0156	22
87.0227	41
88.0297	18
89.0377	132
91.0546	45
92.0265	49
95.0488	18
98.0145	49
99.0233	79
100.03	18
101.038	30
102.0458	193
103.0537	30
105.0431	18
107.0036	41
111.0229	18
113.0384	94
114.0466	98
115.0542	668
121.0192	22
122.0142	18
123.0224	18
125.0385	102
126.0466	186
127.054	155
128.0619	315
129.0446	30
129.0699	15
130.041	30
131.0495	75
133.0198	94
138.0474	30
138.9942	34
139.0543	999
140.0624	102
141.07	98
144.0138	22
145.0201	45
147.0366	22
149.0154	26
149.0388	79
150.0466	520
151.0543	448
152.062	759
153.068	15
155.0513	98
156.0166	18
156.0579	45
157.0208	91
157.0649	34
159.0359	18
163.0539	72
164.0619	34
165.0696	94
168.0569	296
170.0254	15
173.0149	64
174.0466	34
175.0532	34
176.0621	83
177.0097	94
177.0713	34
178.0778	91
179.06	49
183.0424	30
184.0528	83
187.0324	18
187.0555	106
188.0618	91
189.0703	391
190.0805	22
198.0463	45
199.0556	79
200.0628	292
201.0696	132
202.0776	273
203.0875	26
205.0047	18
205.066	79
207.036	30
211.0568	26
212.0618	22
213.0703	372
214.0781	60
215.0262	15
215.0864	250
218.0716	26
220.0448	30
222.0105	49
222.0472	49
223.0207	15
223.0555	83
224.0626	584
225.0708	254
226.079	341
228.091	22
229.063	26
231.0364	79
231.0807	37
233.0566	18
234.0732	15
242.0749	60
260.0398	37
263.0853	22
274.0804	68
276.0947	37
287.0878	72
289.104	53
298.0795	98
299.0875	41
300.0953	113
305.0535	18
