Mass spectrum: Daidzein; LC-ESI-QTOF; MS2; 40 V
Name: Daidzein
Class: Pharmaceutical
Formula: C15H10O4
Exact mass: 254.0579
SMILES: Oc1ccc(cc1)C2=COc3cc(O)ccc3C2=O
InChI: InChI=1S/C15H10O4/c16-10-3-1-9(2-4-10)13-8-19-14-7-11(17)5-6-12(14)15(13)18/h1-8,16-17H
Instrument: TripleTOF 5600 SCIEX
Instrument type: LC-ESI-QTOF
Ms type: MS2
Ion mode: NEGATIVE
Collision energy: 40
Fragmentation mode: CID
Ionization: ESI
Column name: Zorbax Eclipse Plus C18 2.1 mm x 150 mm, 3.5 um, Agilent
Retention time: 7.744 min
Precursor m/z: 253.0506
Precursor type: [M-H]-
m/z	relative intensity
91.02	150
132.0226	135
133.0302	184
135.0094	134
180.0584	94
195.0453	87
196.0532	125
197.0613	77
208.0537	300
209.0607	171
223.0406	285
224.0482	327
225.0549	124
252.0429	75
253.0511	999
