Mass spectrum: Tetraoctylphosphonium; LC-ESI-QTOF; MS2; 150 V
Name: Tetraoctylphosphonium
Class: Industrial_process
Formula: [C32H68P]+
Exact mass: 483.5053
SMILES: CCCCCCCC[P+](CCCCCCCC)(CCCCCCCC)CCCCCCCC
InChI: InChI=1S/C32H68P/c1-5-9-13-17-21-25-29-33(30-26-22-18-14-10-6-2,31-27-23-19-15-11-7-3)32-28-24-20-16-12-8-4/h5-32H2,1-4H3/q+1
Instrument: TripleTOF 5600 SCIEX
Instrument type: LC-ESI-QTOF
Ms type: MS2
Ion mode: POSITIVE
Collision energy: 150
Fragmentation mode: CID
Ionization: ESI
Column name: Zorbax Eclipse Plus C18 2.1 mm x 150 mm, 3.5 um, Agilent
Retention time: 16.405 min
Precursor m/z: 483.5053
Precursor type: [M]+
m/z	relative intensity
39.0234	263
41.0392	367
43.0545	81
43.9815	211
44.9894	393
45.9968	486
47.0046	211
48.0127	159
55.0541	189
56.9886	568
59.0046	701
61.0202	999
62.0277	679
71.0038	81
73.0195	204
74.0265	89
75.0349	538
76.0427	694
85.0188	55
87.0347	81
88.0426	103
89.0494	163
90.0578	107
101.0505	115
103.0664	96
115.0659	148
117.0817	51
129.0824	55
