Mass spectrum: Amlodipine; LC-ESI-QTOF; MS2; 70 V
Name: Amlodipine
Class: Pharmaceutical
Formula: C20H25ClN2O5
Exact mass: 408.1452
SMILES: CCOC(=O)C1=C(COCCN)NC(=C(C1c2ccccc2Cl)C(=O)OC)C
InChI: InChI=1S/C20H25ClN2O5/c1-4-28-20(25)18-15(11-27-10-9-22)23-12(2)16(19(24)26-3)17(18)13-7-5-6-8-14(13)21/h5-8,17,23H,4,9-11,22H2,1-3H3
Instrument: TripleTOF 5600 SCIEX
Instrument type: LC-ESI-QTOF
Ms type: MS2
Ion mode: POSITIVE
Collision energy: 70
Fragmentation mode: CID
Ionization: ESI
Column name: Zorbax Eclipse Plus C18 2.1 mm x 150 mm, 3.5 um, Agilent
Retention time: 8.432 min
Precursor m/z: 409.1525
Precursor type: [M+H]+
m/z	relative intensity
42.0416	35
44.0585	130
65.0427	18
67.0209	17
72.0487	32
74.0181	11
74.0624	18
75.0264	28
77.0396	26
80.053	13
84.0453	9
89.042	11
91.0551	15
92.0511	34
94.0651	13
96.0449	28
98.0619	15
101.0388	166
102.0472	297
102.0809	11
104.0531	11
111.0016	34
113.0408	15
114.0475	37
115.0548	359
116.0625	115
120.0437	113
122.0608	39
124.0394	26
125.0148	68
126.05	26
127.0544	119
128.0611	264
129.0437	26
129.0576	24
129.0681	49
130.0777	22
132.047	15
137.0156	690
138.0091	15
138.9944	104
139.0534	45
140.0297	51
140.0507	87
141.0089	13
141.0701	54
142.044	39
142.0653	543
143.0497	15
143.073	393
144.058	15
148.0394	329
149.0155	999
150.0537	17
151.0296	18
151.0574	64
152.0625	147
153.0693	94
154.0657	71
154.0773	47
155.0255	39
155.0495	15
155.072	34
156.0441	15
156.081	98
157.0534	28
157.0875	39
161.0152	22
162.0215	15
163.0303	81
163.0507	9
164.0265	51
164.066	15
165.0106	361
165.0458	9
165.0703	28
166.0658	56
167.0738	155
168.0602	34
168.0808	126
169.0638	22
169.0892	70
170.0598	215
171.045	18
173.0152	28
175.0319	64
176.0344	317
177.0083	41
177.0329	17
177.0621	15
178.0413	245
178.0636	43
179.0723	77
180.0801	278
181.0649	32
181.0879	73
182.0608	47
182.0957	17
183.067	37
184.0748	56
185.0831	52
187.0311	45
188.0289	15
189.0083	34
189.0454	15
190.0416	32
191.0287	15
191.0721	17
192.0581	32
194.0602	26
194.0957	35
195.0676	37
195.1031	13
196.0758	253
196.111	18
197.0837	94
198.0902	39
199.0295	11
201.0316	18
202.0422	58
203.0245	17
203.0489	41
204.0577	162
206.0352	71
206.0615	30
207.0697	32
208.0636	189
209.0833	77
210.0884	11
212.0708	32
213.0766	13
214.042	96
214.0878	13
215.0266	32
215.0502	22
216.0584	28
217.066	11
218.0368	26
218.0774	13
220.0535	77
222.0901	20
223.0896	26
224.0695	153
224.1068	11
225.0784	94
226.0553	11
226.0865	28
229.0305	15
230.0366	45
231.0431	20
231.0695	43
232.0518	210
233.0596	22
236.0728	39
239.0973	22
240.1045	26
242.0359	51
243.0439	37
244.0534	39
248.0462	17
251.0936	18
252.0665	18
252.103	20
256.0194	18
258.0292	17
258.0684	15
260.0475	105
260.0823	11
261.0555	13
270.0305	28
