Mass spectrum: Glycidyltrimethylaminium; LC-ESI-QTOF; MS2; 150 V
Name: Glycidyltrimethylaminium
Class: Industrial_process
Formula: C6H14NO
Exact mass: 116.107
InChI: InChI=1S/C6H14NO/c1-7(2,3)4-6-5-8-6/h6H,4-5H2,1-3H3/q+1
Instrument: TripleTOF 6600 SCIEX
Instrument type: LC-ESI-QTOF
Ms type: CID
Ion mode: POSITIVE
Collision energy: 150
Ionization: ESI
Column name: Zorbax Eclipse Plus C18 2.1 mm x 150 mm, 3.5 um, Agilent
Retention time: 1.307 min
Precursor m/z: 116.107
Precursor type: [M]+
m/z	relative intensity
37.0076	162
38.0024	734
39.0102	102
40.0178	461
41.0258	648
42.0336	999
52.0048	102
53.0126	76
54.0075	111
