Mass spectrum: Disperse Red 1; LC-ESI-QTOF; MS2; 40 V
Name: Disperse Red 1
Formula: C16H18N4O3
Exact mass: 314.1379
SMILES: CCN(CCO)C1=CC=C(C=C1)N=NC2=CC=C(C=C2)[N+](=O)[O-]
InChI: InChI=1S/C16H18N4O3/c1-2-19(11-12-21)15-7-3-13(4-8-15)17-18-14-5-9-16(10-6-14)20(22)23/h3-10,21H,2,11-12H2,1H3
Instrument: TripleTOF X500R SCIEX
Instrument type: LC-ESI-QTOF
Ms type: MS2
Ion mode: POSITIVE
Collision energy: 40
Fragmentation mode: CID
Ionization: ESI
Column name: Zorbax Eclipse Plus C18 2.1 mm x 150 mm, 3.5 um, Agilent
Retention time: 12.973 min
Precursor m/z: 315.1452
Precursor type: [M+H]+
m/z	relative intensity
75.0246	36
76.0305	33
92.0265	59
92.0488	28
93.0689	15
103.0546	12
104.0492	23
105.0568	77
106.0655	193
117.0566	15
118.0654	56
119.0604	110
120.0814	175
122.0241	195
132.0816	87
133.0752	18
133.0904	18
134.0966	999
136.0759	64
140.0362	28
145.0766	18
147.0926	378
148.0865	38
149.0601	15
150.03	283
150.0908	15
163.0873	20
164.0808	25
178.1103	121
181.0917	12
209.0945	108
224.118	12
237.1342	12
238.1345	28
251.1409	46
251.1611	15
255.0885	903
267.1232	18
269.1532	211
270.1118	51
271.1275	20
284.0971	12
284.127	249
286.1074	46
297.1352	59
315.1458	906
