Mass spectrum: Dimethenamid-ESA; LC-ESI-QTOF; MS2; 90 V
Name: Dimethenamid-ESA
Class: Transformation_product; Herbicide; Metabolite
Formula: C12H19NO5S2
Exact mass: 321.0705
SMILES: CC1=CSC(=C1N(C(C)COC)C(=O)CS(=O)(=O)O)C
InChI: InChI=1S/C12H19NO5S2/c1-8-6-19-10(3)12(8)13(9(2)5-18-4)11(14)7-20(15,16)17/h6,9H,5,7H2,1-4H3,(H,15,16,17)
Instrument: TripleTOF 6600 SCIEX
Instrument type: LC-ESI-QTOF
Ms type: MS2
Ion mode: POSITIVE
Collision energy: 90
Fragmentation mode: CID
Ionization: ESI
Column name: Zorbax Eclipse Plus C18 2.1 mm x 150 mm, 3.5 um, Agilent
Retention time: 7.036 min
Precursor m/z: 322.0778
Precursor type: [M+H]+
m/z	relative intensity
37.008	28
39.0233	201
41.0388	172
42.0343	86
43.018	129
44.9796	194
45.0339	201
50.0149	43
51.023	100
53.0385	229
54.0338	35
55.0551	43
57.9871	43
58.9953	251
59.9906	93
63.0227	43
64.0308	35
65.0393	495
66.0466	114
67.0425	64
67.0547	237
68.0505	35
68.9798	50
70.9949	194
73.0126	28
77.0387	510
78.0336	64
78.0466	143
79.0541	201
80.05	510
81.0578	57
82.0655	50
82.9959	57
83.9906	35
84.0027	35
85.0109	114
89.037	28
90.0326	50
90.0466	35
91.0418	172
91.0545	582
92.0506	129
93.0572	488
94.065	812
94.9935	35
95.0726	71
96.0032	43
97.0103	689
98.0178	35
99.026	136
103.0547	50
104.0491	280
105.0568	258
105.0685	57
106.0648	222
107.0725	79
108.0808	136
109.0107	158
110.0174	79
111.0259	567
112.0215	93
113.0291	43
115.054	150
116.0618	43
117.057	438
118.0649	999
119.0355	100
119.0725	459
120.0822	122
121.0091	43
122.0061	100
122.0965	35
123.0131	107
124.0216	330
125.0432	143
126.0373	567
130.0652	28
131.0726	57
132.0812	172
133.0883	28
134.0184	143
134.0981	79
135.0245	93
136.0217	402
137.0292	222
138.0374	222
148.0197	35
149.0288	71
150.037	531
151.0448	122
152.0166	445
152.0527	122
164.0509	35
166.0293	43
