Mass spectrum: Fipronil; LC-ESI-QTOF; MS2; 70 V
Name: Fipronil
Class: Insecticide
Formula: C12H4Cl2F6N4OS
Exact mass: 435.9387
SMILES: C1=C(C=C(C(=C1Cl)N2C(=C(C(=N2)C#N)S(=O)C(F)(F)F)N)Cl)C(F)(F)F
InChI: InChI=1S/C12H4Cl2F6N4OS/c13-5-1-4(11(15,16)17)2-6(14)8(5)24-10(22)9(7(3-21)23-24)26(25)12(18,19)20/h1-2H,22H2
Instrument: TripleTOF 6600 SCIEX
Instrument type: LC-ESI-QTOF
Ms type: MS2
Ion mode: POSITIVE
Collision energy: 70
Fragmentation mode: CID
Ionization: ESI
Column name: Zorbax Eclipse Plus C18 2.1 mm x 150 mm, 3.5 um, Agilent
Retention time: 13.577 min
Precursor m/z: 436.946
Precursor type: [M+H]+
m/z	relative intensity
66.0188	146
157.0109	117
158.0197	235
178.9702	176
185.0295	646
191.9797	440
200.9459	235
200.9868	146
203.9798	440
209.9651	176
212.9471	352
219.9995	146
221.0062	999
226.9867	264
227.9574	852
228.9676	205
230.9904	176
235.9523	176
238.9489	293
239.9573	969
246.0038	205
246.9836	235
249.0024	881
254.9684	675
258.0026	293
262.963	852
270.0028	117
270.922	176
277.9605	293
