Mass spectrum: Chloroxuron; LC-ESI-QTOF; MS2; 130 V
Name: Chloroxuron
Class: Herbicide
Formula: C15H15ClN2O2
Exact mass: 290.0822
SMILES: CN(C)C(=O)Nc1ccc(Oc2ccc(Cl)cc2)cc1
InChI: InChI=1S/C15H15ClN2O2/c1-18(2)15(19)17-12-5-9-14(10-6-12)20-13-7-3-11(16)4-8-13/h3-10H,1-2H3,(H,17,19)
Instrument: TripleTOF 5600 SCIEX
Instrument type: LC-ESI-QTOF
Ms type: MS2
Ion mode: POSITIVE
Collision energy: 130
Fragmentation mode: CID
Ionization: ESI
Column name: Zorbax Eclipse Plus C18 2.1 mm x 150 mm, 3.5 um, Agilent
Retention time: 12.103 min
Precursor m/z: 291.0895
Precursor type: [M+H]+
m/z	relative intensity
42.0445	29
56.0178	146
72.0473	999
72.9862	19
73.0091	56
74.0182	639
75.0251	339
76.0337	19
77.0423	46
78.05	19
80.0507	23
84.985	49
86.0163	19
87.0247	29
88.031	33
89.0387	33
102.046	23
113.0374	26
127.0538	43
128.0629	26
139.0545	53
