Mass spectrum: Abacavir; LC-ESI-QTOF; MS2; 40 V
Name: Abacavir
Class: Pharmaceutical
Formula: C14H18N6O
Exact mass: 286.1542
SMILES: Nc1nc(NC2CC2)c3ncn([C@@H]4C[C@H](CO)C=C4)c3n1
InChI: InChI=1S/C14H18N6O/c15-14-18-12(17-9-2-3-9)11-13(19-14)20(7-16-11)10-4-1-8(5-10)6-21/h1,4,7-10,21H,2-3,5-6H2,(H3,15,17,18,19)/t8-,10+/m1/s1
Instrument: TripleTOF 5600 SCIEX
Instrument type: LC-ESI-QTOF
Ms type: MS2
Ion mode: POSITIVE
Collision energy: 40
Fragmentation mode: CID
Ionization: ESI
Column name: Zorbax Eclipse Plus C18 2.1 mm x 150 mm, 3.5 um, Agilent
Retention time: 5.094 min
Precursor m/z: 287.1615
Precursor type: [M+H]+
m/z	relative intensity
58.0709	68
67.0582	52
77.0424	198
79.0581	415
82.0423	13
92.0271	13
95.0617	10
105.0451	13
107.0362	67
108.0436	59
109.0519	168
119.036	36
120.0557	23
122.0711	31
132.0556	24
133.0393	12
134.0472	324
136.0621	31
147.0667	47
148.0611	13
149.0822	121
150.0657	675
151.0726	22
163.0728	62
164.0934	106
174.0782	442
175.0724	42
176.08	13
191.1039	999
287.1609	164
