Mass spectrum: 2-Ethoxyethyl-N-(4-methylphenyl)carbamate; LC-ESI-QTOF; MS2; 80 V
Name: 2-Ethoxyethyl-N-(4-methylphenyl)carbamate
Class: Pharmaceutical
Formula: C12H17NO3
Exact mass: 223.1208
SMILES: CCOCCOC(=O)NC1=CC=C(C=C1)C
InChI: InChI=1S/C12H17NO3/c1-3-15-8-9-16-12(14)13-11-6-4-10(2)5-7-11/h4-7H,3,8-9H2,1-2H3,(H,13,14)
Instrument: TripleTOF 5600 SCIEX
Instrument type: LC-ESI-QTOF
Ms type: MS2
Ion mode: POSITIVE
Collision energy: 80
Fragmentation mode: CID
Ionization: ESI
Column name: Zorbax Eclipse Plus C18 2.1 mm x 150 mm, 3.5 um, Agilent
Retention time: 10.768 min
Precursor m/z: 224.1281
Precursor type: [M+H]+
m/z	relative intensity
43.0335	51
45.0463	555
50.0268	24
62.0241	10
63.0302	37
66.0518	33
73.0718	42
77.0451	999
78.0515	10
79.0606	258
89.0438	12
91.059	288
93.0618	53
106.0688	118
