Mass spectrum: 3-Hydroxycarbamazepine; LC-ESI-QTOF; MS2; 60 V
Name: 3-Hydroxycarbamazepine
Class: Pharmaceutical; Transformation_product-Metabolite
Formula: C15H12N2O2
Exact mass: 252.0899
SMILES: NC(=O)N1c2ccccc2C=Cc3ccc(O)cc13
InChI: InChI=1S/C15H12N2O2/c16-15(19)17-13-4-2-1-3-10(13)5-6-11-7-8-12(18)9-14(11)17/h1-9,18H,(H2,16,19)
Instrument: TripleTOF 5600 SCIEX
Instrument type: LC-ESI-QTOF
Ms type: MS2
Ion mode: NEGATIVE
Collision energy: 60
Fragmentation mode: CID
Ionization: ESI
Column name: Zorbax Eclipse Plus C18 2.1 mm x 150 mm, 3.5 um, Agilent
Retention time: 7.917 min
Precursor m/z: 251.0826
Precursor type: [M-H]-
m/z	relative intensity
90.0352	67
116.0497	154
130.0655	107
131.0393	134
139.0579	100
140.0537	53
142.0308	134
153.0578	60
164.0496	147
165.0595	321
166.0681	596
178.0685	107
179.0756	328
180.0824	992
181.0517	87
192.0462	127
193.0565	80
205.0541	73
206.0633	388
207.0692	999
208.0774	482
