Mass spectrum: Rifaximin; LC-ESI-QTOF; MS2; 100 V
Name: Rifaximin
Class: Pharmaceutical
Formula: C43H51N3O11
Exact mass: 785.3524
SMILES: CC1C=CC=C(C(=O)NC2=C(C3=C(C4=C(C(=C3O)C)OC(C4=O)(OC=CC(C(C(C(C(C(C1O)C)O)C)OC(=O)C)C)OC)C)C5=C2N6C=CC(=CC6=N5)C)O)C
InChI: InChI=1S/C43H51N3O11/c1-19-14-16-46-28(18-19)44-32-29-30-37(50)25(7)40-31(29)41(52)43(9,57-40)55-17-15-27(54-10)22(4)39(56-26(8)47)24(6)36(49)23(5)35(48)20(2)12-11-13-21(3)42(53)45-33(34(32)46)38(30)51/h11-18,20,22-24,27,35-36,39,48-51H,1-10H3,(H,45,53)
Instrument: TripleTOF 6600 SCIEX
Instrument type: LC-ESI-QTOF
Ms type: MS2
Ion mode: NEGATIVE
Collision energy: 100
Fragmentation mode: CID
Ionization: ESI
Column name: Zorbax Eclipse Plus C18 2.1 mm x 150 mm, 3.5 um, Agilent
Retention time: 11.765 min
Precursor m/z: 784.3451
Precursor type: [M-H]-
m/z	relative intensity
121.0625	12
123.0797	12
136.0733	9
235.0782	10
247.0808	10
249.0867	25
260.0906	14
261.0886	16
262.0684	11
262.0933	22
263.0695	29
275.0765	17
276.0848	109
277.082	186
278.0883	17
286.0922	16
287.0761	12
288.0752	25
288.1087	12
289.0818	40
290.0894	37
291.0957	51
292.1045	18
293.0856	10
300.0769	15
301.083	22
302.0903	12
303.0951	13
304.0709	27
304.1032	97
305.0808	73
306.0837	120
307.089	19
308.0984	31
314.0885	32
315.0697	26
316.0697	43
316.1052	19
317.0771	51
318.0851	25
319.0649	15
319.1001	38
320.1021	9
329.0871	41
330.084	265
331.0668	41
331.0898	23
332.0734	21
332.0986	275
333.0824	117
333.105	64
334.0785	73
334.1131	32
342.0838	22
343.067	22
343.0924	25
344.0716	42
344.1011	19
345.0815	105
346.0805	43
347.0986	430
356.0955	15
357.0798	10
357.1012	15
358.0793	87
358.1127	12
359.0859	418
360.0937	999
361.1007	116
362.1093	142
368.0983	11
370.0788	10
370.1096	13
371.0974	27
372.097	25
373.0988	34
374.11	43
383.0944	12
384.098	17
384.1251	10
385.1073	13
386.0724	91
387.0756	11
388.0888	72
395.1177	12
396.1268	11
397.1083	11
398.1093	12
409.1074	10
410.1021	10
410.142	14
412.1281	16
424.1274	9
426.1395	17
438.097	14
440.1147	13
452.1136	15
454.1332	87
