Mass spectrum: Pyrimethanil; LC-ESI-QTOF; MS2; 140 V
Name: Pyrimethanil
Class: Fungicide
Formula: C12H13N3
Exact mass: 199.1109
SMILES: CC1=CC(=NC(=N1)NC2=CC=CC=C2)C
InChI: InChI=1S/C12H13N3/c1-9-8-10(2)14-12(13-9)15-11-6-4-3-5-7-11/h3-8H,1-2H3,(H,13,14,15)
Instrument: TripleTOF 6600 SCIEX
Instrument type: LC-ESI-QTOF
Ms type: MS2
Ion mode: POSITIVE
Collision energy: 140
Fragmentation mode: CID
Ionization: ESI
Column name: Zorbax Eclipse Plus C18 2.1 mm x 150 mm, 3.5 um, Agilent
Retention time: 9.225 min
Precursor m/z: 200.1182
Precursor type: [M+H]+
m/z	relative intensity
35.999	47
37.0075	140
38.002	14
38.015	89
39.023	131
40.0182	32
41.0255	32
42.0336	152
49.0071	251
50.0152	999
51.0116	20
51.0227	287
52.0178	38
61.0064	59
62.0146	68
63.0225	38
73.0061	32
74.0144	80
75.01	23
86.0137	17
