Mass spectrum: 3-Methylbenzoic acid; LC-ESI-QTOF; MS2; 40 V
Name: 3-Methylbenzoic acid
Class: Industrial_process
Formula: C8H8O2
Exact mass: 136.0524
SMILES: CC1=CC=CC(=C1)C(=O)O
InChI: InChI=1S/C8H8O2/c1-6-3-2-4-7(5-6)8(9)10/h2-5H,1H3,(H,9,10)
Instrument: TripleTOF 5600 SCIEX
Instrument type: LC-ESI-QTOF
Ms type: MS2
Ion mode: POSITIVE
Collision energy: 40
Fragmentation mode: CID
Ionization: ESI
Column name: Zorbax Eclipse Plus C18 2.1 mm x 150 mm, 3.5 um, Agilent
Retention time: 8.59 min
Precursor m/z: 137.0607
Precursor type: [M+H]+
m/z	relative intensity
51.034	525
65.0442	399
77.0437	999
91.0576	845
