Mass spectrum: 2-Piperidin-3-yl-benzothiazole; LC-ESI-QTOF; MS2; 130 V
Name: 2-Piperidin-3-yl-benzothiazole
Formula: C12H14N2S
Exact mass: 218.0878
SMILES: C1CC(CNC1)C2=NC3=CC=CC=C3S2
InChI: InChI=1S/C12H14N2S/c1-2-6-11-10(5-1)14-12(15-11)9-4-3-7-13-8-9/h1-2,5-6,9,13H,3-4,7-8H2
Instrument: TripleTOF 5600 SCIEX
Instrument type: LC-ESI-QTOF
Ms type: MS2
Ion mode: POSITIVE
Collision energy: 130
Fragmentation mode: CID
Ionization: ESI
Column name: Zorbax Eclipse Plus C18 2.1 mm x 150 mm, 3.5 um, Agilent
Retention time: 5.623 min
Precursor m/z: 219.095
Precursor type: [M+H]+
m/z	relative intensity
37.0073	51
38.0154	27
39.0229	135
43.9714	18
44.0499	30
44.9794	147
49.0079	15
50.0153	87
51.0231	96
57.9875	42
61.0074	30
62.0149	45
63.0228	129
65.0386	96
67.9715	75
68.9795	999
73.0064	18
74.0151	87
75.0097	12
75.0225	30
76.0191	24
77.0389	42
80.9795	51
81.9873	147
89.0388	39
91.9713	30
92.9794	129
106.9944	15
108.0021	45
115.0518	12
