Mass spectrum: Quinmerac; LC-ESI-QTOF; MS2; 60 V
Name: Quinmerac
Class: Herbicide
Formula: C11H8ClNO2
Exact mass: 221.0244
SMILES: Cc1cc2ccc(c(c2nc1)C(=O)O)Cl
InChI: InChI=1S/C11H8ClNO2/c1-6-4-7-2-3-8(12)9(11(14)15)10(7)13-5-6/h2-5H,1H3,(H,14,15)
Instrument: TripleTOF 6600 SCIEX
Instrument type: LC-ESI-QTOF
Ms type: MS2
Ion mode: POSITIVE
Collision energy: 60
Fragmentation mode: CID
Ionization: ESI
Column name: Zorbax Eclipse Plus C18 2.1 mm x 150 mm, 3.5 um, Agilent
Retention time: 7.013 min
Precursor m/z: 222.0316
Precursor type: [M+H]+
m/z	relative intensity
62.0151	12
63.0227	46
65.0385	12
72.9841	13
74.0152	9
87.0224	33
88.0307	114
89.0385	27
90.0337	12
98.9993	25
102.0474	27
113.0386	406
114.0461	857
115.0416	23
115.0532	16
122.9996	55
139.0424	16
140.0498	999
141.0572	465
149.0152	472
150.0105	26
175.017	10
176.0256	17
