Mass spectrum: Solvent Yellow 124; LC-ESI-QTOF; MS2; 70 V
Name: Solvent Yellow 124
Formula: C22H31N3O2
Exact mass: 369.2416
SMILES: CCN(CCOC(C)OCC(C)C)C1=CC=C(C=C1)N=NC2=CC=CC=C2
InChI: InChI=1S/C22H31N3O2/c1-5-25(15-16-26-19(4)27-17-18(2)3)22-13-11-21(12-14-22)24-23-20-9-7-6-8-10-20/h6-14,18-19H,5,15-17H2,1-4H3
Instrument: TripleTOF X500R SCIEX
Instrument type: LC-ESI-QTOF
Ms type: MS2
Ion mode: POSITIVE
Collision energy: 70
Fragmentation mode: CID
Ionization: ESI
Column name: Zorbax Eclipse Plus C18 2.1 mm x 150 mm, 3.5 um, Agilent
Retention time: 18.347 min
Precursor m/z: 370.2489
Precursor type: [M+H]+
m/z	relative intensity
41.0387	14
45.0337	32
51.0231	88
57.0717	17
77.0391	999
78.0335	14
79.0534	20
91.0554	35
92.051	53
93.0573	17
95.0508	23
103.057	14
104.0495	53
105.0523	135
106.0656	362
117.0573	70
118.0657	82
119.0604	132
120.0804	73
130.0679	23
131.0599	35
132.0807	141
133.0816	44
134.0969	312
145.0783	47
146.0892	20
147.0923	170
163.0872	11
181.0946	14
195.0915	14
196.1003	26
210.1025	303
270.162	11
