Mass spectrum: 3-Dimethylaminophenol; LC-ESI-QTOF; MS2; 70 V
Name: 3-Dimethylaminophenol
Formula: C8H11NO
Exact mass: 137.0841
SMILES: CN(C)C1=CC(=CC=C1)O
InChI: InChI=1S/C8H11NO/c1-9(2)7-4-3-5-8(10)6-7/h3-6,10H,1-2H3
Instrument: TripleTOF 6600 SCIEX
Instrument type: LC-ESI-QTOF
Ms type: MS2
Ion mode: POSITIVE
Collision energy: 70
Fragmentation mode: CID
Ionization: ESI
Column name: Zorbax Eclipse Plus C18 2.1 mm x 150 mm, 3.5 um, Agilent
Retention time: 4.073 min
Precursor m/z: 138.0914
Precursor type: [M+H]+
m/z	relative intensity
35.9985	33
37.0065	206
38.0144	178
39.0224	999
40.0299	15
44.0485	17
50.0139	41
51.022	101
53.001	22
53.0376	44
55.0173	20
62.0136	10
63.0218	25
65.0377	464
66.0452	86
74.0137	22
77.0373	51
81.0321	24
93.0322	19
94.04	126
122.0589	18
