Mass spectrum: Metoclopramide; LC-ESI-QTOF; MS2; 40 V
Name: Metoclopramide
Class: Pharmaceutical
Formula: C14H22ClN3O2
Exact mass: 299.1401
SMILES: CCN(CC)CCNC(=O)C1=CC(=C(C=C1OC)N)Cl
InChI: InChI=1S/C14H22ClN3O2/c1-4-18(5-2)7-6-17-14(19)10-8-11(15)12(16)9-13(10)20-3/h8-9H,4-7,16H2,1-3H3,(H,17,19)
Instrument: TripleTOF 5600 SCIEX
Instrument type: LC-ESI-QTOF
Ms type: MS2
Ion mode: POSITIVE
Collision energy: 40
Fragmentation mode: CID
Ionization: ESI
Column name: Zorbax Eclipse Plus C18 2.1 mm x 150 mm, 3.5 um, Agilent
Retention time: 5.459 min
Precursor m/z: 300.1473
Precursor type: [M+H]+
m/z	relative intensity
78.0387	18
90.0372	43
92.0523	11
93.061	29
100.1155	23
113.0051	60
120.0449	21
126.0117	70
128.0268	31
129.0107	17
140.998	148
147.0543	12
148.0633	58
154.0058	33
156.021	110
168.0085	149
168.992	102
169.9998	47
181.014	10
182.024	24
183.0317	333
184.0151	999
211.0241	23
212.0336	378
227.0572	691
300.148	54
