Mass spectrum: Quinoxyfen; LC-ESI-QTOF; MS2; 100 V
Name: Quinoxyfen
Class: Fungicide
Formula: C15H8Cl2FNO
Exact mass: 306.9967
SMILES: C1=CC(=CC=C1OC2=C3C(=CC(=CC3=NC=C2)Cl)Cl)F
InChI: InChI=1S/C15H8Cl2FNO/c16-9-7-12(17)15-13(8-9)19-6-5-14(15)20-11-3-1-10(18)2-4-11/h1-8H
Instrument: TripleTOF 6600 SCIEX
Instrument type: LC-ESI-QTOF
Ms type: MS2
Ion mode: POSITIVE
Collision energy: 100
Fragmentation mode: CID
Ionization: ESI
Column name: Zorbax Eclipse Plus C18 2.1 mm x 150 mm, 3.5 um, Agilent
Retention time: 15.195 min
Precursor m/z: 308.004
Precursor type: [M+H]+
m/z	relative intensity
39.0226	10
50.0145	28
51.0224	33
61.0056	32
62.0139	74
63.022	78
69.0125	54
72.9832	121
73.0059	95
74.0142	999
75.0221	690
76.0168	50
76.03	10
84.9832	19
86.0138	21
87.0214	62
88.017	18
88.0291	112
89.0371	133
95.0275	36
96.9828	58
97.0061	11
98.0139	241
99.0216	581
100.0174	199
107.0275	10
108.9821	103
110.9981	26
111.9934	63
114.0322	125
115.0402	226
116.0476	41
122.9988	434
123.9938	10
124.0101	43
126.0324	107
127.0405	259
133.0437	14
133.9904	12
134.9984	121
144.9605	12
150.0101	83
151.0167	59
154.0392	43
155.0275	11
156.9599	15
157.0434	24
158.0393	15
161.0023	22
161.0369	33
162.0093	212
162.0413	15
163.0042	34
163.0523	56
164.0486	18
169.9679	18
179.0296	11
180.0379	27
181.0439	205
182.0477	57
183.0615	18
184.9803	12
188.049	57
189.0539	17
190.0632	28
206.0379	27
207.0477	21
208.0546	116
