Mass spectrum: Desethylterbuthylazine; LC-ESI-QTOF; MS2; 150 V
Name: Desethylterbuthylazine
Class: Herbicide; Transformation_product; Metabolite; Transformation_product-Metabolite
Formula: C7H12ClN5
Exact mass: 201.0781
SMILES: CC(C)(C)NC1=NC(=NC(=N1)N)Cl
InChI: InChI=1S/C7H12ClN5/c1-7(2,3)13-6-11-4(8)10-5(9)12-6/h1-3H3,(H3,9,10,11,12,13)
Instrument: TripleTOF 6600 SCIEX
Instrument type: LC-ESI-QTOF
Ms type: MS2
Ion mode: POSITIVE
Collision energy: 150
Fragmentation mode: CID
Ionization: ESI
Column name: Zorbax Eclipse Plus C18 2.1 mm x 150 mm, 3.5 um, Agilent
Retention time: 9.136 min
Precursor m/z: 202.0854
Precursor type: [M+H]+
m/z	relative intensity
35.9994	46
37.0073	181
38.0032	33
38.0151	122
39.023	255
41.0135	133
41.0385	13
42.0217	268
42.0326	42
43.0294	999
52.0053	18
53.0135	152
61.9794	938
68.0241	95
