Mass spectrum: Chlorotoluron; LC-ESI-QTOF; MS2; 120 V
Name: Chlorotoluron
Class: Herbicide
Formula: C10H13ClN2O
Exact mass: 212.0716
SMILES: CC1=C(C=C(C=C1)NC(=O)N(C)C)Cl
InChI: InChI=1S/C10H13ClN2O/c1-7-4-5-8(6-9(7)11)12-10(14)13(2)3/h4-6H,1-3H3,(H,12,14)
Instrument: TripleTOF 6600 SCIEX
Instrument type: LC-ESI-QTOF
Ms type: MS2
Ion mode: POSITIVE
Collision energy: 120
Fragmentation mode: CID
Ionization: ESI
Column name: Zorbax Eclipse Plus C18 2.1 mm x 150 mm, 3.5 um, Agilent
Retention time: 9.778 min
Precursor m/z: 213.0789
Precursor type: [M+H]+
m/z	relative intensity
30.0336	239
37.0078	199
38.0159	159
39.0236	239
46.9693	199
48.9849	159
49.0075	319
50.0156	919
51.0238	999
56.0132	319
61.0069	519
62.0151	759
63.0235	679
72.0437	199
72.9841	399
74.0145	279
77.0383	199
89.0404	239
