Mass spectrum: 17alpha-Hydroxyprogesterone; LC-ESI-QTOF; MS2; 120 V
Name: 17alpha-Hydroxyprogesterone
Class: Pharmaceutical
Formula: C21H30O3
Exact mass: 330.2195
SMILES: CC(=O)[C@@]1(O)CC[C@H]2[C@@H]3CCC4=CC(=O)CC[C@]4(C)[C@H]3CC[C@]12C
InChI: InChI=1S/C21H30O3/c1-13(22)21(24)11-8-18-16-5-4-14-12-15(23)6-9-19(14,2)17(16)7-10-20(18,21)3/h12,16-18,24H,4-11H2,1-3H3/t16-,17+,18+,19+,20+,21+/m1/s1
Instrument: TripleTOF 5600 SCIEX
Instrument type: LC-ESI-QTOF
Ms type: MS2
Ion mode: POSITIVE
Collision energy: 120
Fragmentation mode: CID
Ionization: ESI
Column name: Zorbax Eclipse Plus C18 2.1 mm x 150 mm, 3.5 um, Agilent
Retention time: 11.808 min
Precursor m/z: 331.2268
Precursor type: [M+H]+
m/z	relative intensity
43.0263	296
43.0463	29
53.044	72
55.0225	72
57.0391	26
65.0426	267
66.0529	29
67.0573	108
69.038	19
69.0719	16
77.0416	999
78.0487	46
79.0568	379
81.0372	23
81.0719	72
82.0435	26
83.0505	23
89.0408	49
91.056	435
93.0736	32
94.0421	32
97.0663	158
102.0476	39
103.0559	65
105.0692	56
107.0493	36
108.056	19
109.0664	89
115.055	385
117.0705	42
126.0457	19
127.0547	112
128.0622	286
129.068	46
139.0537	23
141.0695	85
151.0536	26
152.0615	118
153.0701	46
164.0619	16
165.0698	125
178.0772	29
