Mass spectrum: Flecainide meta-O-dealkylated; LC-ESI-QTOF; MS2; 20 V
Name: Flecainide meta-O-dealkylated
Class: Pharmaceutical; Transformation_product
Formula: C15H19F3N2O3
Exact mass: 332.1348
InChI: InChI=1S/C15H19F3N2O3/c16-15(17,18)9-23-13-5-4-11(21)7-12(13)14(22)20-8-10-3-1-2-6-19-10/h4-5,7,10,19,21H,1-3,6,8-9H2,(H,20,22)
Instrument: TripleTOF 5600 SCIEX
Instrument type: LC-ESI-QTOF
Ms type: CID
Ion mode: POSITIVE
Collision energy: 20
Ionization: ESI
Column name: Zorbax Eclipse Plus C18 2.1 mm x 150 mm, 3.5 um, Agilent
Retention time: 5.586 min
Precursor m/z: 333.1421
Precursor type: [M+H]+
m/z	relative intensity
98.0971	42
219.0225	78
315.1187	13
316.1089	756
332.0845	26
333.135	999
