Mass spectrum: Trospium; LC-ESI-QTOF; MS2; 50 V
Name: Trospium
Class: Pharmaceutical
Formula: C25H30NO3
Exact mass: 392.222
SMILES: C1CC[N+]2(C1)C3CCC2CC(C3)OC(=O)C(C4=CC=CC=C4)(C5=CC=CC=C5)O
InChI: InChI=1S/C25H30NO3/c27-24(25(28,19-9-3-1-4-10-19)20-11-5-2-6-12-20)29-23-17-21-13-14-22(18-23)26(21)15-7-8-16-26/h1-6,9-12,21-23,28H,7-8,13-18H2/q+1
Instrument: TripleTOF 6600 SCIEX
Instrument type: LC-ESI-QTOF
Ms type: CID
Ion mode: POSITIVE
Collision energy: 50
Ionization: ESI
Column name: Zorbax Eclipse Plus C18 2.1 mm x 150 mm, 3.5 um, Agilent
Retention time: 7.411 min
Precursor m/z: 392.222
Precursor type: [M]+
m/z	relative intensity
70.0628	79
72.0782	67
93.0655	86
164.139	558
182.1495	999
