Mass spectrum: Chloridazon; LC-ESI-QTOF; MS2; 60 V
Name: Chloridazon
Class: Herbicide
Formula: C10H8ClN3O
Exact mass: 221.0356
SMILES: C1=CC=C(C=C1)N2C(=O)C(=C(C=N2)N)Cl
InChI: InChI=1S/C10H8ClN3O/c11-9-8(12)6-13-14(10(9)15)7-4-2-1-3-5-7/h1-6H,12H2
Instrument: TripleTOF 6600 SCIEX
Instrument type: LC-ESI-QTOF
Ms type: MS2
Ion mode: POSITIVE
Collision energy: 60
Fragmentation mode: CID
Ionization: ESI
Column name: Zorbax Eclipse Plus C18 2.1 mm x 150 mm, 3.5 um, Agilent
Retention time: 6.924 min
Precursor m/z: 222.0429
Precursor type: [M+H]+
m/z	relative intensity
37.0073	11
38.0153	11
39.0231	105
46.9675	10
49.007	32
50.0153	123
51.0233	519
52.0181	49
53.0262	32
54.0337	20
55.0294	69
63.9954	37
65.0388	759
66.0215	227
66.0464	39
73.979	78
74.9877	22
75.9952	33
77.039	999
87.9947	173
89.0391	20
90.0462	11
92.0493	115
93.0566	127
94.0657	18
100.9897	110
102.0471	20
103.054	39
104.0493	61
105.0449	28
113.0384	11
114.0349	25
115.0538	13
116.9978	32
122.9995	47
128.9844	10
130.0657	44
131.0593	18
146.0117	47
150.0105	13
