Mass spectrum: Ketoprofen; LC-ESI-QTOF; MS2; 30 V
Name: Ketoprofen
Class: Pharmaceutical
Formula: C16H14O3
Exact mass: 254.0943
SMILES: CC(C(O)=O)c1cccc(c1)C(=O)c2ccccc2
InChI: InChI=1S/C16H14O3/c1-11(16(18)19)13-8-5-9-14(10-13)15(17)12-6-3-2-4-7-12/h2-11H,1H3,(H,18,19)
Instrument: TripleTOF 5600 SCIEX
Instrument type: LC-ESI-QTOF
Ms type: MS2
Ion mode: POSITIVE
Collision energy: 30
Fragmentation mode: CID
Ionization: ESI
Column name: Zorbax Eclipse Plus C18 2.1 mm x 150 mm, 3.5 um, Agilent
Retention time: 10.877 min
Precursor m/z: 255.1016
Precursor type: [M+H]+
m/z	relative intensity
77.0419	155
103.055	42
105.0351	999
131.049	59
149.0598	17
177.0554	188
191.084	9
194.0732	185
209.097	539
