Mass spectrum: Lamotrigine; LC-ESI-QTOF; MS2; 30 V
Name: Lamotrigine
Class: Pharmaceutical
Formula: C9H7Cl2N5
Exact mass: 255.0079
InChI: InChI=1S/C9H7Cl2N5/c10-5-3-1-2-4(6(5)11)7-8(12)14-9(13)16-15-7/h1-3H,(H4,12,13,14,16)
Instrument: TripleTOF 5600 SCIEX
Instrument type: LC-ESI-QTOF
Ms type: CID
Ion mode: POSITIVE
Collision energy: 30
Ionization: ESI
Column name: Zorbax Eclipse Plus C18 2.1 mm x 150 mm, 3.5 um, Agilent
Retention time: 6.024 min
Precursor m/z: 256.0151
Precursor type: [M+H]+
m/z	relative intensity
43.037	10
151.0186	12
156.9608	14
158.9774	26
165.022	17
166.0297	34
171.9719	26
173.9876	12
183.9713	20
185.9874	19
186.9829	34
210.9832	71
211.9777	15
220.0394	23
229.0045	14
256.0162	999
