Mass spectrum: N,N-didesmethyl-venlafaxine; LC-ESI-QTOF; MS2; 90 V
Name: N,N-didesmethyl-venlafaxine
Class: Pharmaceutical; Transformation_product
Formula: C15H23NO2
Exact mass: 249.1729
SMILES: COC1=CC=C(C=C1)C(CN)C2(CCCCC2)O
InChI: InChI=1S/C15H23NO2/c1-18-13-7-5-12(6-8-13)14(11-16)15(17)9-3-2-4-10-15/h5-8,14,17H,2-4,9-11,16H2,1H3
Instrument: TripleTOF 5600 SCIEX
Instrument type: LC-ESI-QTOF
Ms type: MS2
Ion mode: POSITIVE
Collision energy: 90
Fragmentation mode: CID
Ionization: ESI
Column name: Zorbax Eclipse Plus C18 2.1 mm x 150 mm, 3.5 um, Agilent
Retention time: 6.316 min
Precursor m/z: 250.1802
Precursor type: [M+H]+
m/z	relative intensity
65.0426	405
77.0412	780
78.0487	999
79.0569	114
81.0721	41
89.0403	197
91.0543	489
102.0492	62
103.053	156
115.053	489
116.059	41
121.0653	145
128.0621	135
131.0505	135
