Mass spectrum: Ethyl-hexadecyl-dimethylammonium; LC-ESI-QTOF; MS2; 150 V
Name: Ethyl-hexadecyl-dimethylammonium
Class: Antimicrobial; Industrial_process
Formula: [C20H44N]+
Exact mass: 298.3468
SMILES: CCCCCCCCCCCCCCCC[N+](C)(C)CC
InChI: InChI=1S/C20H44N/c1-5-7-8-9-10-11-12-13-14-15-16-17-18-19-20-21(3,4)6-2/h5-20H2,1-4H3/q+1
Instrument: TripleTOF 5600 SCIEX
Instrument type: LC-ESI-QTOF
Ms type: MS2
Ion mode: POSITIVE
Collision energy: 150
Fragmentation mode: CID
Ionization: ESI
Column name: Zorbax Eclipse Plus C18 2.1 mm x 150 mm, 3.5 um, Agilent
Retention time: 13.03 min
Precursor m/z: 298.3468
Precursor type: [M]+
m/z	relative intensity
42.0417	369
56.0562	55
58.0698	999
72.0824	70
