Mass spectrum: 2-Hydroxycarbamazepine; LC-ESI-QTOF; MS2; 40 V
Name: 2-Hydroxycarbamazepine
Class: Pharmaceutical; Metabolite; Transformation_product-Metabolite
Formula: C15H12N2O2
Exact mass: 252.0899
SMILES: NC(=O)N1c2ccccc2C=Cc3cc(O)ccc13
InChI: InChI=1S/C15H12N2O2/c16-15(19)17-13-4-2-1-3-10(13)5-6-11-9-12(18)7-8-14(11)17/h1-9,18H,(H2,16,19)
Instrument: TripleTOF 5600 SCIEX
Instrument type: LC-ESI-QTOF
Ms type: MS2
Ion mode: POSITIVE
Collision energy: 40
Fragmentation mode: CID
Ionization: ESI
Column name: Zorbax Eclipse Plus C18 2.1 mm x 150 mm, 3.5 um, Agilent
Retention time: 7.476 min
Precursor m/z: 253.0972
Precursor type: [M+H]+
m/z	relative intensity
117.0568	30
152.0621	21
153.0697	41
165.0701	108
166.0655	24
167.0736	384
180.0812	170
181.0887	84
182.097	250
183.0787	15
190.0655	66
191.073	45
192.0805	52
193.089	72
195.0685	244
207.068	30
208.0769	693
209.084	309
210.0921	999
