Mass spectrum: Bezafibrate; LC-ESI-QTOF; MS2; 130 V
Name: Bezafibrate
Class: Pharmaceutical
Formula: C19H20ClNO4
Exact mass: 361.1081
SMILES: CC(C)(Oc1ccc(CCNC(=O)c2ccc(Cl)cc2)cc1)C(O)=O
InChI: InChI=1S/C19H20ClNO4/c1-19(2,18(23)24)25-16-9-3-13(4-10-16)11-12-21-17(22)14-5-7-15(20)8-6-14/h3-10H,11-12H2,1-2H3,(H,21,22)(H,23,24)
Instrument: TripleTOF 5600 SCIEX
Instrument type: LC-ESI-QTOF
Ms type: MS2
Ion mode: POSITIVE
Collision energy: 130
Fragmentation mode: CID
Ionization: ESI
Column name: Zorbax Eclipse Plus C18 2.1 mm x 150 mm, 3.5 um, Agilent
Retention time: 11.033 min
Precursor m/z: 362.1154
Precursor type: [M+H]+
m/z	relative intensity
59.0527	12
65.0428	124
66.0491	12
73.0109	43
74.0191	526
75.0269	933
75.0553	10
75.0688	13
76.0324	17
76.0406	10
77.042	999
78.0485	20
84.9864	110
91.0556	251
93.0718	12
94.0426	27
102.0473	39
103.0538	94
110.9999	436
119.0476	12
132.0468	12
139.0037	22
