Mass spectrum: Cyclopropyldiphenylsulfonium; LC-ESI-QTOF; MS2; 90 V
Name: Cyclopropyldiphenylsulfonium
Formula: [C15H15S]+
Exact mass: 227.0889
SMILES: C1CC1[S+](C2=CC=CC=C2)C3=CC=CC=C3
InChI: InChI=1S/C15H15S/c1-3-7-13(8-4-1)16(15-11-12-15)14-9-5-2-6-10-14/h1-10,15H,11-12H2/q+1
Instrument: TripleTOF 5600 SCIEX
Instrument type: LC-ESI-QTOF
Ms type: MS2
Ion mode: POSITIVE
Collision energy: 90
Fragmentation mode: CID
Ionization: ESI
Column name: Zorbax Eclipse Plus C18 2.1 mm x 150 mm, 3.5 um, Agilent
Retention time: 5.55 min
Precursor m/z: 227.0889
Precursor type: [M]+
m/z	relative intensity
39.0231	105
50.0151	281
51.023	880
63.0226	79
65.0377	220
68.9788	193
77.0373	532
89.0367	180
91.053	136
102.0441	79
113.0379	52
114.0454	57
115.0525	677
126.0452	127
127.0525	66
134.0156	118
139.0528	866
140.0602	61
150.0446	176
151.053	374
152.0611	999
183.0266	220
184.0326	585
