Mass spectrum: N-desmethyl-diphenhydramine; LC-ESI-QTOF; MS2; 120 V
Name: N-desmethyl-diphenhydramine
Class: Pharmaceutical; Metabolite
Formula: C16H19NO
Exact mass: 241.1467
SMILES: CNCCOC(c1ccccc1)c2ccccc2
InChI: InChI=1S/C16H19NO/c1-17-12-13-18-16(14-8-4-2-5-9-14)15-10-6-3-7-11-15/h2-11,16-17H,12-13H2,1H3
Instrument: TripleTOF 5600 SCIEX
Instrument type: LC-ESI-QTOF
Ms type: MS2
Ion mode: POSITIVE
Collision energy: 120
Fragmentation mode: CID
Ionization: ESI
Column name: Zorbax Eclipse Plus C18 2.1 mm x 150 mm, 3.5 um, Agilent
Retention time: 7.557 min
Precursor m/z: 242.1539
Precursor type: [M+H]+
m/z	relative intensity
60.0057	15
65.0432	176
73.0107	17
74.0183	236
75.0258	123
76.0334	171
77.0415	160
78.049	70
85.0092	56
86.0167	150
87.0242	162
88.0328	21
89.04	427
91.0546	24
97.0074	14
98.0168	150
99.0228	61
100.0312	35
101.0388	19
102.0469	182
109.0075	15
110.014	61
111.0225	37
113.0379	132
114.0475	26
115.054	489
122.0132	22
123.0239	12
125.0394	53
126.0459	187
127.055	53
128.0605	22
137.0382	86
138.0471	49
139.0539	328
149.039	35
150.0462	314
151.0535	132
152.0625	33
161.0372	58
162.0464	182
163.0543	999
164.0619	263
165.0692	190
