Mass spectrum: Basic Red 1; LC-ESI-QTOF; MS2; 40 V
Name: Basic Red 1
Formula: C28H30N2O3
Exact mass: 442.2256
SMILES: CCNC1=CC2=C(C=C1C)C(=C3C=C(C(=NCC)C=C3O2)C)C4=CC=CC=C4C(=O)OCC
InChI: InChI=1S/C28H30N2O3/c1-6-29-23-15-25-21(13-17(23)4)27(19-11-9-10-12-20(19)28(31)32-8-3)22-14-18(5)24(30-7-2)16-26(22)33-25/h9-16,29H,6-8H2,1-5H3
Instrument: TripleTOF X500R SCIEX
Instrument type: LC-ESI-QTOF
Ms type: MS2
Ion mode: POSITIVE
Collision energy: 40
Fragmentation mode: CID
Ionization: ESI
Column name: Zorbax Eclipse Plus C18 2.1 mm x 150 mm, 3.5 um, Agilent
Retention time: 11.107 min
Precursor m/z: 443.2329
Precursor type: [M+H]+
m/z	relative intensity
312.1287	11
313.136	11
326.1508	11
327.1503	28
341.1659	79
357.1258	34
371.1479	20
386.1638	158
387.1723	31
399.1719	14
400.18	28
415.1462	20
415.2019	999
443.2327	681
