Mass spectrum: Ethyl tosylcarbamate; LC-ESI-QTOF; MS2; 50 V
Name: Ethyl tosylcarbamate
Class: Pharmaceutical
Formula: C10H13NO4S
Exact mass: 243.0565
SMILES: CCOC(=O)N[S](=O)(=O)c1ccc(C)cc1
InChI: InChI=1S/C10H13NO4S/c1-3-15-10(12)11-16(13,14)9-6-4-8(2)5-7-9/h4-7H,3H2,1-2H3,(H,11,12)
Instrument: TripleTOF 5600 SCIEX
Instrument type: LC-ESI-QTOF
Ms type: MS2
Ion mode: NEGATIVE
Collision energy: 50
Fragmentation mode: CID
Ionization: ESI
Column name: Zorbax Eclipse Plus C18 2.1 mm x 150 mm, 3.5 um, Agilent
Retention time: 9.545 min
Precursor m/z: 242.0493
Precursor type: [M-H]-
m/z	relative intensity
41.9979	999
43.0176	99
44.9974	199
61.9696	199
63.9651	99
77.9618	99
77.9655	99
78.973	299
79.9802	399
86.9766	299
104.049	99
106.0658	899
170.0312	399
