Mass spectrum: Xanthosine; LC-ESI-QTOF; MS2; 40 V
Name: Xanthosine
Class: Natural_product
Formula: C10H12N4O6
Exact mass: 284.0757
SMILES: C1=NC2=C(N1C3C(C(C(O3)CO)O)O)NC(=O)NC2=O
InChI: InChI=1S/C10H12N4O6/c15-1-3-5(16)6(17)9(20-3)14-2-11-4-7(14)12-10(19)13-8(4)18/h2-3,5-6,9,15-17H,1H2,(H2,12,13,18,19)
Instrument: TripleTOF 5600 SCIEX
Instrument type: LC-ESI-QTOF
Ms type: MS2
Ion mode: POSITIVE
Collision energy: 40
Fragmentation mode: CID
Ionization: ESI
Column name: Zorbax Eclipse Plus C18 2.1 mm x 150 mm, 3.5 um, Agilent
Retention time: 4.346 min
Precursor m/z: 285.083
Precursor type: [M+H]+
m/z	relative intensity
55.0289	102
57.0418	158
69.0409	136
71.0209	90
73.0349	124
85.0317	136
97.0312	68
108.0235	56
110.0359	272
115.0422	45
133.0557	90
135.0326	45
136.0141	919
153.0414	999
