Mass spectrum: Myclobutanil; LC-ESI-QTOF; MS2; 150 V
Name: Myclobutanil
Class: Fungicide
Formula: C15H17ClN4
Exact mass: 288.1142
SMILES: CCCCC(Cn1cncn1)(C#N)c2ccc(Cl)cc2
InChI: InChI=1S/C15H17ClN4/c1-2-3-8-15(9-17,10-20-12-18-11-19-20)13-4-6-14(16)7-5-13/h4-7,11-12H,2-3,8,10H2,1H3
Instrument: TripleTOF 6600 SCIEX
Instrument type: LC-ESI-QTOF
Ms type: MS2
Ion mode: POSITIVE
Collision energy: 150
Fragmentation mode: CID
Ionization: ESI
Column name: Zorbax Eclipse Plus C18 2.1 mm x 150 mm, 3.5 um, Agilent
Retention time: 12.025 min
Precursor m/z: 289.1215
Precursor type: [M+H]+
m/z	relative intensity
35.9993	33
37.0074	199
38.0149	139
39.023	326
42.0211	93
43.0292	426
46.9681	126
48.9837	166
49.007	126
50.0151	446
51.0229	366
59.9989	53
61.0072	459
62.0151	759
63.0228	999
64.0313	66
65.0384	53
70.0403	159
72.9835	486
73.0069	99
74.0151	832
75.0228	306
76.0182	33
76.0316	53
77.0386	79
85.0063	39
86.0147	59
87.0236	53
89.0381	452
90.047	33
98.0148	53
98.9986	39
99.0098	33
100.0179	39
102.0465	39
115.0548	86
