Mass spectrum: Boc-Asp(OBzl)-OH; LC-ESI-QTOF; MS2; 20 V
Name: Boc-Asp(OBzl)-OH
Formula: C16H21NO6
Exact mass: 323.1369
SMILES: CC(C)(C)OC(=O)NC(CC(=O)OCC1=CC=CC=C1)C(=O)O
InChI: InChI=1S/C16H21NO6/c1-16(2,3)23-15(21)17-12(14(19)20)9-13(18)22-10-11-7-5-4-6-8-11/h4-8,12H,9-10H2,1-3H3,(H,17,21)(H,19,20)
Instrument: TripleTOF 6600 SCIEX
Instrument type: LC-ESI-QTOF
Ms type: MS2
Ion mode: NEGATIVE
Collision energy: 20
Fragmentation mode: CID
Ionization: ESI
Column name: Zorbax Eclipse Plus C18 2.1 mm x 150 mm, 3.5 um, Agilent
Retention time: 10.749 min
Precursor m/z: 322.1296
Precursor type: [M-H]-
m/z	relative intensity
96.992	218
99.0079	30
139.9967	20
161.058	27
205.048	999
248.0552	13
