Mass spectrum: Medroxyprogesterone-17-acetate; LC-ESI-QTOF; MS2; 80 V
Name: Medroxyprogesterone-17-acetate
Class: Pharmaceutical
Formula: C24H34O4
Exact mass: 386.2457
SMILES: CC1CC2C(CCC3(C2CCC3(C(=O)C)OC(=O)C)C)C4(C1=CC(=O)CC4)C
InChI: InChI=1S/C24H34O4/c1-14-12-18-19(22(4)9-6-17(27)13-21(14)22)7-10-23(5)20(18)8-11-24(23,15(2)25)28-16(3)26/h13-14,18-20H,6-12H2,1-5H3
Instrument: TripleTOF 5600 SCIEX
Instrument type: LC-ESI-QTOF
Ms type: MS2
Ion mode: POSITIVE
Collision energy: 80
Fragmentation mode: CID
Ionization: ESI
Column name: Zorbax Eclipse Plus C18 2.1 mm x 150 mm, 3.5 um, Agilent
Retention time: 13.723 min
Precursor m/z: 387.253
Precursor type: [M+H]+
m/z	relative intensity
39.0232	33
41.0387	60
43.0179	368
51.0241	22
53.0383	37
55.0175	18
55.0544	169
65.038	71
67.0542	491
69.0331	22
69.0706	86
77.0388	548
78.047	18
79.0546	529
80.0633	18
81.034	33
81.0698	180
82.0414	22
83.0494	202
91.0542	848
93.0697	334
94.0423	22
95.0482	71
95.0851	307
97.0646	916
103.0545	112
104.0641	37
105.0697	751
107.0486	86
107.0865	75
108.0569	108
109.065	101
109.1002	30
111.0809	30
115.0542	210
116.0622	82
117.0698	292
118.0771	30
119.0849	394
121.0647	37
121.1004	22
122.0715	18
123.0806	999
127.0546	71
128.0621	236
129.0706	334
130.079	105
131.0851	277
133.0623	22
133.1014	105
135.0804	18
137.0969	120
141.0695	289
142.0794	180
143.0843	176
144.0917	56
145.1005	176
147.0814	30
147.1163	93
152.0622	45
153.0704	105
154.0763	60
155.085	199
156.093	67
157.0658	33
157.1006	101
158.1092	26
159.0794	33
159.1155	41
160.1221	15
161.0936	26
161.1358	26
165.0687	142
166.0781	71
167.0855	146
168.0947	63
169.0997	142
170.1102	18
171.1161	75
173.1311	33
175.1439	18
178.0783	52
179.0869	86
180.095	37
181.1034	97
182.1092	26
183.081	15
183.1158	67
185.0962	15
185.1376	26
191.0846	18
193.101	41
194.1097	37
195.119	56
197.1351	56
199.112	67
205.1027	18
206.1113	15
207.1196	30
209.1339	18
210.1393	15
211.1439	22
213.127	101
214.1348	67
221.1312	26
223.1501	18
