Mass spectrum: Epirubicin; LC-ESI-QTOF; MS2; 70 V
Name: Epirubicin
Class: Pharmaceutical
Formula: C27H29NO11
Exact mass: 543.1741
SMILES: CC1C(C(CC(O1)OC2CC(CC3=C(C4=C(C(=C23)O)C(=O)C5=C(C4=O)C=CC=C5OC)O)(C(=O)CO)O)N)O
InChI: InChI=1S/C27H29NO11/c1-10-22(31)13(28)6-17(38-10)39-15-8-27(36,16(30)9-29)7-12-19(15)26(35)21-20(24(12)33)23(32)11-4-3-5-14(37-2)18(11)25(21)34/h3-5,10,13,15,17,22,29,31,33,35-36H,6-9,28H2,1-2H3
Instrument: TripleTOF 5600 SCIEX
Instrument type: LC-ESI-QTOF
Ms type: MS2
Ion mode: POSITIVE
Collision energy: 70
Fragmentation mode: CID
Ionization: ESI
Column name: Zorbax Eclipse Plus C18 2.1 mm x 150 mm, 3.5 um, Agilent
Retention time: 7.492 min
Precursor m/z: 544.1813
Precursor type: [M+H]+
m/z	relative intensity
58.067	18
60.0475	26
69.0351	29
72.0469	74
86.0607	186
95.0489	14
107.0475	18
112.0768	26
113.0612	44
121.0634	48
130.083	41
131.0474	14
135.043	70
145.0276	26
157.0321	22
187.0428	14
203.0858	14
217.0477	22
218.0715	22
223.0761	14
231.0813	41
232.0518	22
233.0583	18
234.0652	33
247.0773	37
249.0624	18
257.0623	14
259.0756	48
260.0464	26
261.0548	22
262.0638	41
273.0526	26
274.0591	18
275.0698	74
277.0823	18
278.0595	48
287.072	111
289.0489	63
290.056	130
291.0675	29
293.0788	18
301.0517	18
302.0553	26
303.0653	70
305.0525	26
305.0862	55
306.053	574
307.0627	29
315.0612	63
317.0444	22
318.0524	55
319.0578	22
320.0699	18
321.0739	268
329.0444	82
332.0739	18
333.0751	48
336.0574	29
345.0429	18
346.0474	999
361.0723	52
