Mass spectrum: Sulfamethoxazole; LC-ESI-QTOF; MS2; 100 V
Name: Sulfamethoxazole
Class: Antimicrobial; Pharmaceutical
Formula: C10H11N3O3S
Exact mass: 253.0521
SMILES: CC1=CC(=NO1)NS(=O)(=O)C2=CC=C(C=C2)N
InChI: InChI=1S/C10H11N3O3S/c1-7-6-10(12-16-7)13-17(14,15)9-4-2-8(11)3-5-9/h2-6H,11H2,1H3,(H,12,13)
Instrument: TripleTOF 5600 SCIEX
Instrument type: LC-ESI-QTOF
Ms type: MS2
Ion mode: POSITIVE
Collision energy: 100
Fragmentation mode: CID
Ionization: ESI
Column name: Zorbax Eclipse Plus C18 2.1 mm x 150 mm, 3.5 um, Agilent
Retention time: 7.246 min
Precursor m/z: 254.0594
Precursor type: [M+H]+
m/z	relative intensity
53.0479	142
54.0408	20
63.0318	35
65.0458	999
66.0399	30
66.0517	61
74.0201	25
77.0462	30
80.0539	397
92.0541	91
93.061	76
108.0481	45
