Mass spectrum: Sulfadoxine; LC-ESI-QTOF; MS2; 40 V
Name: Sulfadoxine
Class: Pharmaceutical
Formula: C12H14N4O4S
Exact mass: 310.0736
SMILES: COc1ncnc(N[S](=O)(=O)c2ccc(N)cc2)c1OC
InChI: InChI=1S/C12H14N4O4S/c1-19-10-11(14-7-15-12(10)20-2)16-21(17,18)9-5-3-8(13)4-6-9/h3-7H,13H2,1-2H3,(H,14,15,16)
Instrument: TripleTOF 5600 SCIEX
Instrument type: LC-ESI-QTOF
Ms type: MS2
Ion mode: POSITIVE
Collision energy: 40
Fragmentation mode: CID
Ionization: ESI
Column name: Zorbax Eclipse Plus C18 2.1 mm x 150 mm, 3.5 um, Agilent
Retention time: 7.083 min
Precursor m/z: 311.0809
Precursor type: [M+H]+
m/z	relative intensity
45.0522	10
65.0423	114
80.0522	53
92.0512	999
93.0582	31
108.0447	953
109.0626	19
112.0501	25
113.0349	57
113.0599	13
123.0418	11
124.0217	19
126.0661	40
138.0305	52
140.0455	427
141.0533	166
154.0612	408
156.0115	279
156.0771	310
157.0645	10
160.0485	11
201.0776	46
212.0692	87
230.0808	46
245.1044	24
