Mass spectrum: Noramidopyrine; LC-ESI-QTOF; MS2; 130 V
Name: Noramidopyrine
Class: Pharmaceutical; Transformation_product-Metabolite
Formula: C12H15N3O
Exact mass: 217.1215
SMILES: CC1=C(C(=O)N(N1C)C2=CC=CC=C2)NC
InChI: InChI=1S/C12H15N3O/c1-9-11(13-2)12(16)15(14(9)3)10-7-5-4-6-8-10/h4-8,13H,1-3H3
Instrument: TripleTOF 6600 SCIEX
Instrument type: LC-ESI-QTOF
Ms type: MS2
Ion mode: POSITIVE
Collision energy: 130
Fragmentation mode: CID
Ionization: ESI
Column name: Zorbax Eclipse Plus C18 2.1 mm x 150 mm, 3.5 um, Agilent
Retention time: 4.819 min
Precursor m/z: 218.1288
Precursor type: [M+H]+
m/z	relative intensity
35.9994	27
37.0073	104
38.0023	27
38.0152	88
39.023	160
40.018	82
41.026	369
42.0339	535
49.0072	176
50.0152	999
51.023	673
52.0174	55
53.0135	77
54.0336	38
56.0496	402
61.0077	22
62.0146	44
63.0231	60
65.0388	27
74.0146	99
77.0379	27
83.0619	27
89.038	33
