Mass spectrum: Prednisone; LC-ESI-QTOF; MS2; 40 V
Name: Prednisone
Class: Pharmaceutical
Formula: C21H26O5
Exact mass: 358.178
SMILES: C[C@]12CC(=O)[C@H]3[C@@H](CCC4=CC(=O)C=C[C@]34C)[C@@H]1CC[C@]2(O)C(=O)CO
InChI: InChI=1S/C21H26O5/c1-19-7-5-13(23)9-12(19)3-4-14-15-6-8-21(26,17(25)11-22)20(15,2)10-16(24)18(14)19/h5,7,9,14-15,18,22,26H,3-4,6,8,10-11H2,1-2H3/t14-,15-,18+,19-,20-,21-/m0/s1
Instrument: TripleTOF 5600 SCIEX
Instrument type: LC-ESI-QTOF
Ms type: MS2
Ion mode: POSITIVE
Collision energy: 40
Fragmentation mode: CID
Ionization: ESI
Column name: Zorbax Eclipse Plus C18 2.1 mm x 150 mm, 3.5 um, Agilent
Retention time: 8.469 min
Precursor m/z: 359.1853
Precursor type: [M+H]+
m/z	relative intensity
43.0256	48
55.0588	16
67.0575	22
69.0369	25
69.0706	19
77.0411	59
79.0554	96
81.0721	87
83.0506	31
91.0548	155
91.0685	11
91.0784	16
93.0696	172
95.0489	70
95.0852	127
97.0638	31
99.0462	14
101.0624	19
103.0546	16
105.0697	124
107.0481	31
107.0846	135
109.0638	107
109.0997	25
111.0421	11
111.0789	36
115.0526	39
117.0693	73
119.0852	135
119.1205	11
121.0646	277
123.0794	82
125.0594	14
125.0945	28
127.0507	14
128.0615	53
129.0692	62
131.0485	22
131.0849	76
132.0568	36
133.0642	36
133.0991	19
135.08	206
137.0578	16
137.0958	33
139.0741	33
141.0693	113
142.0747	19
143.0845	48
144.0561	45
144.0984	11
145.0642	135
145.0991	36
146.0717	59
147.0799	999
149.0965	19
151.0765	16
152.06	19
153.0695	56
153.0901	53
154.0758	22
155.0836	39
157.0642	22
157.103	31
158.0718	116
159.0793	424
159.1145	14
160.0871	31
161.0622	19
161.0954	166
163.0752	50
165.069	62
166.0776	25
167.0848	70
169.0626	45
169.1012	45
170.0725	31
171.0798	764
171.1147	19
172.089	25
173.0952	339
175.0754	14
175.1101	16
178.0772	53
179.0851	152
180.0933	19
181.0647	67
181.0972	70
182.0713	70
183.0784	135
183.1144	28
184.0875	36
185.0595	28
185.0949	141
186.1035	39
187.0745	99
187.1103	138
189.0682	22
189.0914	50
190.0775	22
191.083	45
192.0912	25
193.1006	67
194.0718	45
194.1069	28
195.0787	135
195.1111	25
196.0871	99
197.0956	345
198.1054	28
199.1114	206
201.0909	16
201.1278	19
202.0741	14
203.0863	25
204.0936	36
205.0618	22
205.0999	48
206.0739	19
206.1108	16
207.0801	84
207.1148	42
208.0865	138
209.0961	254
209.1305	25
210.1033	87
211.1112	203
212.1186	67
213.0914	31
213.1275	76
215.083	16
215.1053	48
217.1004	33
218.0726	19
219.0802	39
219.1149	56
220.0875	59
221.0965	206
221.1327	19
222.1031	356
223.1104	243
224.082	22
224.118	45
225.0909	28
225.1259	183
226.1336	14
227.1061	28
227.1422	141
228.0928	11
229.1025	28
230.1093	19
231.0797	48
231.1162	31
232.0866	45
233.0951	96
233.1312	19
234.1011	84
235.1111	226
236.1175	53
237.0949	28
237.1266	551
238.0963	36
238.1308	45
239.1074	70
239.1417	169
241.1226	14
243.116	22
244.0897	14
244.1254	11
245.094	65
245.1303	19
246.1029	76
247.1106	118
247.1508	16
248.1187	169
249.1268	274
249.1701	11
250.134	36
251.1045	16
251.1401	84
252.1495	25
253.1206	175
253.1551	67
255.1367	169
255.1722	14
257.0934	25
258.1031	16
259.1137	19
260.1193	33
261.0905	22
261.1258	101
262.1345	155
263.1061	28
263.1439	260
264.1128	11
264.1488	84
265.125	45
265.1581	333
266.1264	14
267.1368	226
267.1733	39
269.1255	14
272.1199	53
275.1073	22
275.1434	67
276.1107	19
277.1201	25
277.1583	243
279.1374	31
281.153	96
283.1685	25
285.1308	11
287.1441	87
290.1336	28
292.145	42
293.1545	90
295.1233	14
295.1689	183
297.15	48
305.1543	118
311.1666	39
313.1794	161
323.1667	130
341.1773	158
