Mass spectrum: (3-Carboxypropyl)triphenylphosphonium; LC-ESI-QTOF; MS2; 50 V
Name: (3-Carboxypropyl)triphenylphosphonium
Class: Pharmaceutical
Formula: [C22H22O2P]+
Exact mass: 349.1352
SMILES: c1ccc(cc1)[P+](CCCC(=O)O)(c2ccccc2)c3ccccc3
InChI: InChI=1S/C22H21O2P/c23-22(24)17-10-18-25(19-11-4-1-5-12-19,20-13-6-2-7-14-20)21-15-8-3-9-16-21/h1-9,11-16H,10,17-18H2/p+1
Instrument: TripleTOF 5600 SCIEX
Instrument type: LC-ESI-QTOF
Ms type: MS2
Ion mode: POSITIVE
Collision energy: 50
Fragmentation mode: CID
Ionization: ESI
Column name: Zorbax Eclipse Plus C18 2.1 mm x 150 mm, 3.5 um, Agilent
Retention time: 7.192 min
Precursor m/z: 349.1352
Precursor type: [M]+
m/z	relative intensity
107.0037	69
108.0126	322
183.0364	999
184.043	121
185.0516	277
261.0833	509
262.0912	432
263.0978	551
275.0985	329
289.1144	207
349.1367	617
