Mass spectrum: Itraconazole; LC-ESI-QTOF; MS2; 50 V
Name: Itraconazole
Class: Pharmaceutical
Formula: C35H38Cl2N8O4
Exact mass: 704.2393
SMILES: CCC(C)N1C(=O)N(C=N1)C2=CC=C(C=C2)N3CCN(CC3)C4=CC=C(C=C4)OCC5COC(O5)(CN6C=NC=N6)C7=C(C=C(C=C7)Cl)Cl
InChI: InChI=1S/C35H38Cl2N8O4/c1-3-25(2)45-34(46)44(24-40-45)29-7-5-27(6-8-29)41-14-16-42(17-15-41)28-9-11-30(12-10-28)47-19-31-20-48-35(49-31,21-43-23-38-22-39-43)32-13-4-26(36)18-33(32)37/h4-13,18,22-25,31H,3,14-17,19-21H2,1-2H3
Instrument: TripleTOF 5600 SCIEX
Instrument type: LC-ESI-QTOF
Ms type: MS2
Ion mode: POSITIVE
Collision energy: 50
Fragmentation mode: CID
Ionization: ESI
Column name: Zorbax Eclipse Plus C18 2.1 mm x 150 mm, 3.5 um, Agilent
Retention time: 13.565 min
Precursor m/z: 705.2466
Precursor type: [M+H]+
m/z	relative intensity
174.0907	152
200.1044	21
200.1162	21
203.0947	43
255.9886	21
256.0064	260
259.1577	65
271.1521	65
335.1481	108
336.1273	21
336.1648	21
348.1671	43
348.1881	173
376.1699	347
377.2315	21
392.2096	803
392.2377	130
393.2164	21
394.1638	21
394.186	86
394.2068	238
404.2437	434
420.2443	195
420.2752	21
432.2229	195
432.2481	499
450.2477	369
705.2513	999
