Mass spectrum: Prometon; LC-ESI-QTOF; MS2; 60 V
Name: Prometon
Class: Herbicide
Formula: C10H19N5O
Exact mass: 225.159
SMILES: COc1nc(NC(C)C)nc(NC(C)C)n1
InChI: InChI=1S/C10H19N5O/c1-6(2)11-8-13-9(12-7(3)4)15-10(14-8)16-5/h6-7H,1-5H3,(H2,11,12,13,14,15)
Instrument: TripleTOF 5600 SCIEX
Instrument type: LC-ESI-QTOF
Ms type: MS2
Ion mode: POSITIVE
Collision energy: 60
Fragmentation mode: CID
Ionization: ESI
Column name: Zorbax Eclipse Plus C18 2.1 mm x 150 mm, 3.5 um, Agilent
Retention time: 7.392 min
Precursor m/z: 226.1662
Precursor type: [M+H]+
m/z	relative intensity
43.0392	371
57.0517	739
58.0349	333
68.0297	999
69.0127	521
75.0588	117
82.0427	148
83.0264	165
83.0449	11
85.0529	28
86.0374	559
99.0671	23
100.0519	496
110.0468	19
142.0724	91
