Mass spectrum: Disperse Yellow 9; LC-ESI-QTOF; MS2; 30 V
Name: Disperse Yellow 9
Formula: C12H10N4O4
Exact mass: 274.0702
SMILES: C1=CC(=CC=C1N)NC2=C(C=C(C=C2)[N+](=O)[O-])[N+](=O)[O-]
InChI: InChI=1S/C12H10N4O4/c13-8-1-3-9(4-2-8)14-11-6-5-10(15(17)18)7-12(11)16(19)20/h1-7,14H,13H2
Instrument: TripleTOF X500R SCIEX
Instrument type: LC-ESI-QTOF
Ms type: MS2
Ion mode: NEGATIVE
Collision energy: 30
Fragmentation mode: CID
Ionization: ESI
Column name: Zorbax Eclipse Plus C18 2.1 mm x 150 mm, 3.5 um, Agilent
Retention time: 9.832 min
Precursor m/z: 273.0629
Precursor type: [M-H]-
m/z	relative intensity
45.9936	140
118.0299	41
133.0453	41
135.0236	33
157.0773	173
167.0112	74
168.0701	49
180.0668	66
181.0669	90
182.051	132
185.0739	140
195.0581	49
196.0647	173
209.0612	66
212.0598	90
213.0432	57
213.0702	462
225.0544	90
226.0642	957
242.0575	710
243.0658	107
255.0536	132
273.0645	999
