Mass spectrum: Iohexol; LC-ESI-QTOF; MS2; 120 V
Name: Iohexol
Class: Pharmaceutical
Formula: C19H26I3N3O9
Exact mass: 820.8803
SMILES: CC(=O)N(CC(O)CO)c1c(I)c(C(=O)NCC(O)CO)c(I)c(C(=O)NCC(O)CO)c1I
InChI: InChI=1S/C19H26I3N3O9/c1-8(29)25(4-11(32)7-28)17-15(21)12(18(33)23-2-9(30)5-26)14(20)13(16(17)22)19(34)24-3-10(31)6-27/h9-11,26-28,30-32H,2-7H2,1H3,(H,23,33)(H,24,34)
Instrument: TripleTOF 5600 SCIEX
Instrument type: LC-ESI-QTOF
Ms type: MS2
Ion mode: POSITIVE
Collision energy: 120
Fragmentation mode: CID
Ionization: ESI
Column name: Zorbax Eclipse Plus C18 2.1 mm x 150 mm, 3.5 um, Agilent
Retention time: 4.533 min
Precursor m/z: 821.8876
Precursor type: [M+H]+
m/z	relative intensity
88.0183	124
91.044	124
102.0351	174
103.041	199
104.016	124
104.0486	149
114.0338	224
115.0413	149
116.0118	124
116.0492	199
117.0562	99
119.0349	174
128.051	99
130.0272	224
130.058	99
131.0367	199
132.0441	174
133.0507	124
141.0563	174
142.0299	274
143.0368	99
144.0059	124
144.046	124
145.0405	424
146.048	124
147.0313	249
149.0488	324
157.0518	249
158.024	224
158.0441	124
159.0525	224
160.0387	224
169.0403	124
173.0359	149
173.0742	99
174.0249	124
175.0259	399
176.0336	224
185.049	149
187.0475	149
188.0626	124
188.9218	99
189.0434	124
200.9227	149
204.9143	149
217.0594	99
227.9314	124
228.9377	374
229.9479	149
230.9221	174
231.9238	374
239.9299	99
240.9343	199
242.9186	274
243.9275	124
244.9333	149
245.9428	374
254.9444	99
256.9324	274
257.9415	999
258.9112	124
258.9462	149
269.9417	199
270.94	249
271.9471	224
272.9516	99
273.9373	974
283.9207	199
285.942	199
286.9446	124
300.9473	124
301.9323	724
315.9398	99
341.8283	124
355.8476	274
367.85	99
374.985	99
411.8365	124
