Mass spectrum: Budesonide; LC-ESI-QTOF; MS2; 100 V
Name: Budesonide
Class: Pharmaceutical
Formula: C25H34O6
Exact mass: 430.2355
SMILES: CCC[C@@H]1O[C@@H]2C[C@H]3[C@@H]4CCC5=CC(=O)C=C[C@]5(C)[C@H]4[C@@H](O)C[C@]3(C)[C@@]2(O1)C(=O)CO
InChI: InChI=1S/C25H34O6/c1-4-5-21-30-20-11-17-16-7-6-14-10-15(27)8-9-23(14,2)22(16)18(28)12-24(17,3)25(20,31-21)19(29)13-26/h8-10,16-18,20-22,26,28H,4-7,11-13H2,1-3H3/t16-,17-,18-,20+,21+,22+,23-,24-,25+/m0/s1
Instrument: TripleTOF 5600 SCIEX
Instrument type: LC-ESI-QTOF
Ms type: MS2
Ion mode: POSITIVE
Collision energy: 100
Fragmentation mode: CID
Ionization: ESI
Column name: Zorbax Eclipse Plus C18 2.1 mm x 150 mm, 3.5 um, Agilent
Retention time: 11.041 min
Precursor m/z: 431.2428
Precursor type: [M+H]+
m/z	relative intensity
65.0418	105
77.041	858
79.0567	297
91.0562	999
93.0691	87
103.0543	140
104.0639	87
105.0682	227
107.0488	105
115.0539	999
116.0607	140
117.0703	262
119.0855	350
121.0661	350
127.0512	192
128.0611	876
129.0694	333
130.079	105
131.0493	350
132.0564	350
139.0509	70
141.0695	420
142.079	122
144.0572	122
145.0647	192
147.0821	192
152.0626	385
153.0705	245
154.0773	122
155.0867	210
157.0632	227
158.0733	262
165.07	806
166.0793	157
167.0848	140
169.0659	122
171.0811	87
176.0667	105
177.0707	175
178.0782	578
179.0844	245
181.0654	543
181.0998	105
189.0705	368
190.0755	210
191.086	368
192.0931	157
194.0713	175
195.0809	350
196.0905	105
202.0765	297
203.0849	192
207.0831	157
209.091	70
215.0874	227
218.0714	122
219.0818	122
221.098	87
226.0769	87
228.0914	70
231.0908	70
233.0955	105
235.112	87
239.0818	87
245.0957	70
