Mass spectrum: Fluoxastrobin; LC-ESI-QTOF; MS2; 40 V
Name: Fluoxastrobin
Class: Fungicide
Formula: C21H16ClFN4O5
Exact mass: 458.0793
SMILES: CON=C(C1=CC=CC=C1OC2=C(C(=NC=N2)OC3=CC=CC=C3Cl)F)C4=NOCCO4
InChI: InChI=1S/C21H16ClFN4O5/c1-28-26-18(21-27-30-11-10-29-21)13-6-2-4-8-15(13)31-19-17(23)20(25-12-24-19)32-16-9-5-3-7-14(16)22/h2-9,12H,10-11H2,1H3
Instrument: TripleTOF 6600 SCIEX
Instrument type: LC-ESI-QTOF
Ms type: MS2
Ion mode: POSITIVE
Collision energy: 40
Fragmentation mode: CID
Ionization: ESI
Column name: Zorbax Eclipse Plus C18 2.1 mm x 150 mm, 3.5 um, Agilent
Retention time: 13.269 min
Precursor m/z: 459.0866
Precursor type: [M+H]+
m/z	relative intensity
65.0382	10
77.0383	22
90.0335	33
93.0322	15
102.0332	22
104.0492	14
106.0275	13
110.999	42
119.0355	14
120.044	50
122.0408	10
129.044	16
130.0349	56
132.0452	18
133.0315	10
134.0387	10
134.0587	13
138.0105	136
139.0044	35
144.0337	22
145.0391	97
146.0226	58
150.0347	80
159.0369	14
160.0253	11
160.0458	13
161.0327	30
162.0362	17
163.0045	19
168	29
170.034	34
175.0303	34
176.0376	18
178.0297	78
179.0013	47
183.9964	25
187.0268	11
188.0384	637
189.0444	15
190.0435	26
191.0246	15
202.0414	19
203.0258	18
204.0449	15
205.0501	64
211.9899	11
214.005	24
214.0597	17
215.05	12
218.0374	23
223.0081	18
223.9906	14
228.0497	21
229.0313	20
230.0358	93
231.0216	33
232.0531	16
240.0468	26
241.0502	20
242.0591	24
244.0502	18
246.0316	73
251.0599	11
255.0304	20
256.0409	11
257.0474	16
266.0123	37
267.033	16
274.0634	32
277.0637	14
278.0741	22
279.0548	14
280.0672	23
290.0565	10
299.0583	11
300.0654	13
304.0545	22
306.0665	335
313.0403	18
315.0325	93
318.067	27
331.0646	31
339.0446	18
340.0303	119
341.0399	14
342.0448	50
343.041	11
355.0392	17
367.0405	204
369.0561	12
383.0341	132
397.0492	14
427.0616	999
459.0887	15
