Mass spectrum: 2-(3-Hydroxyquinolin-2-yl)indene-1,3-dione; LC-ESI-QTOF; MS2; 150 V
Name: 2-(3-Hydroxyquinolin-2-yl)indene-1,3-dione
Class: Industrial_process; Personal_care_product; Pigment
Formula: C18H11NO3
Exact mass: 289.0739
SMILES: C1=CC=C2C(=C1)C=C(C(=N2)C3C(=O)C4=CC=CC=C4C3=O)O
InChI: InChI=1S/C18H11NO3/c20-14-9-10-5-1-4-8-13(10)19-16(14)15-17(21)11-6-2-3-7-12(11)18(15)22/h1-9,15,20H
Instrument: TripleTOF 6600 SCIEX
Instrument type: LC-ESI-QTOF
Ms type: MS2
Ion mode: POSITIVE
Collision energy: 150
Fragmentation mode: CID
Ionization: ESI
Column name: Zorbax Eclipse Plus C18 2.1 mm x 150 mm, 3.5 um, Agilent
Retention time: 14.718 min
Precursor m/z: 290.0812
Precursor type: [M+H]+
m/z	relative intensity
39.023	192
49.008	230
50.0155	653
51.0234	806
61.0069	461
62.0157	999
63.0232	999
74.0151	499
75.0232	384
77.039	345
85.0067	268
86.0152	461
87.0225	384
89.0389	307
98.014	307
110.0161	345
111.0224	307
113.039	153
122.016	230
134.0148	153
150.046	192
161.041	230
185.0414	230
186.0442	192
187.0514	268
188.0527	153
212.0479	268
