Mass spectrum: Torasemide; LC-ESI-QTOF; MS2; 140 V
Name: Torasemide
Class: Pharmaceutical
Formula: C16H20N4O3S
Exact mass: 348.1256
SMILES: CC(C)NC(=O)N[S](=O)(=O)c1cnccc1Nc2cccc(C)c2
InChI: InChI=1S/C16H20N4O3S/c1-11(2)18-16(21)20-24(22,23)15-10-17-8-7-14(15)19-13-6-4-5-12(3)9-13/h4-11H,1-3H3,(H,17,19)(H2,18,20,21)
Instrument: TripleTOF 5600 SCIEX
Instrument type: LC-ESI-QTOF
Ms type: MS2
Ion mode: POSITIVE
Collision energy: 140
Fragmentation mode: CID
Ionization: ESI
Column name: Zorbax Eclipse Plus C18 2.1 mm x 150 mm, 3.5 um, Agilent
Retention time: 7.633 min
Precursor m/z: 349.1329
Precursor type: [M+H]+
m/z	relative intensity
51.0289	107
64.0341	30
65.0427	58
67.0462	18
74.018	112
75.0259	211
76.0332	61
77.0418	434
77.0704	12
78.0363	31
78.0478	37
79.0441	17
86.017	54
87.0249	143
88.0327	344
89.0408	567
90.0346	19
90.0474	150
91.0427	31
91.0548	14
98.016	13
99.0234	22
100.0288	11
101.0394	212
102.0467	140
103.0405	11
103.0544	30
104.0501	16
113.039	712
114.0448	545
115.0475	241
116.0496	43
117.0569	127
118.0525	21
125.0392	31
126.046	144
127.0548	375
128.0536	462
129.045	51
130.0648	14
138.0343	29
139.0423	62
140.05	999
141.0574	155
142.0516	64
152.0485	62
153.058	96
154.065	178
155.0606	76
165.0437	19
166.0527	106
167.0606	54
168.0686	177
179.0605	120
180.0682	73
181.076	289
182.0812	24
