Mass spectrum: 1,3-Bis(2-methylphenyl)urea; LC-ESI-QTOF; MS2; 140 V
Name: 1,3-Bis(2-methylphenyl)urea
Formula: C15H16N2O
Exact mass: 240.1263
SMILES: CC1=CC=CC=C1NC(=O)NC2=CC=CC=C2C
InChI: InChI=1S/C15H16N2O/c1-11-7-3-5-9-13(11)16-15(18)17-14-10-6-4-8-12(14)2/h3-10H,1-2H3,(H2,16,17,18)
Instrument: TripleTOF 6600 SCIEX
Instrument type: LC-ESI-QTOF
Ms type: MS2
Ion mode: POSITIVE
Collision energy: 140
Fragmentation mode: CID
Ionization: ESI
Column name: Zorbax Eclipse Plus C18 2.1 mm x 150 mm, 3.5 um, Agilent
Retention time: 11.062 min
Precursor m/z: 241.1336
Precursor type: [M+H]+
m/z	relative intensity
35.9991	41
37.0072	284
38.0148	255
39.023	999
40.0301	20
41.026	37
41.038	14
42.0335	25
49.0069	90
50.0147	496
51.0225	418
52.0175	83
53.0378	10
54.0334	35
61.0066	73
62.0142	134
63.0224	90
65.038	349
66.0331	27
66.045	92
67.0399	10
74.0139	23
77.0384	39
78.0323	18
92.0484	33
93.0565	12
