Mass spectrum: Gabapentin-lactam; LC-ESI-QTOF; MS2; 50 V
Name: Gabapentin-lactam
Class: Pharmaceutical; Transformation_product-Metabolite
Formula: C9H15NO
Exact mass: 153.1154
SMILES: C1CCC2(CC1)CC(=O)NC2
InChI: InChI=1S/C9H15NO/c11-8-6-9(7-10-8)4-2-1-3-5-9/h1-7H2,(H,10,11)
Instrument: TripleTOF 5600 SCIEX
Instrument type: LC-ESI-QTOF
Ms type: MS2
Ion mode: POSITIVE
Collision energy: 50
Fragmentation mode: CID
Ionization: ESI
Column name: Zorbax Eclipse Plus C18 2.1 mm x 150 mm, 3.5 um, Agilent
Retention time: 7.593 min
Precursor m/z: 154.1227
Precursor type: [M+H]+
m/z	relative intensity
39.0231	99
41.0383	171
43.0176	57
44.0135	135
53.0395	57
54.0337	71
55.0182	35
55.0542	385
60.0472	28
65.038	271
67.054	999
72.0435	99
77.0383	228
79.0549	99
80.0629	35
91.0535	185
93.0705	135
95.0851	221
