Mass spectrum: Reactive Orange; LC-ESI-QTOF; MS2; 50 V
Name: Reactive Orange
Formula: C20H19N3O11S3
Exact mass: 573.0182
SMILES: CC(=O)NC1=CC2=C(C(=C(C=C2C=C1)S(=O)(=O)O)N=NC3=CC=C(C=C3)S(=O)(=O)CCOS(=O)(=O)O)O
InChI: InChI=1S/C20H19N3O11S3/c1-12(24)21-15-3-2-13-10-18(36(28,29)30)19(20(25)17(13)11-15)23-22-14-4-6-16(7-5-14)35(26,27)9-8-34-37(31,32)33/h2-7,10-11,25H,8-9H2,1H3,(H,21,24)(H,28,29,30)(H,31,32,33)
Instrument: TripleTOF 6600 SCIEX
Instrument type: LC-ESI-QTOF
Ms type: MS2
Ion mode: NEGATIVE
Collision energy: 50
Fragmentation mode: CID
Ionization: ESI
Column name: Zorbax Eclipse Plus C18 2.1 mm x 150 mm, 3.5 um, Agilent
Retention time: 5.751 min
Precursor m/z: 285.5022
Precursor type: [M-2H]2-
m/z	relative intensity
41.9986	2
63.962	17
64.9696	0
76.0315	1
79.7087	1
79.9572	297
80.9642	6
90.9852	13
91.0439	0
93.034	0
95.9522	3
96.6587	4
96.9602	999
97.9578	1
103.042	1
107.0366	0
108.0203	0
114.0338	0
116.0499	3
117.0341	2
127.0418	3
128.0495	10
129.0494	84
130.0301	2
130.053	8
131.0369	1
132.0435	2
139.9927	1
141.045	1
143.5937	1
144.0455	273
145.0286	6
145.049	8
155.0374	4
156.0445	14
157.0444	4
158.0238	16
158.0621	1
159.0295	0
167.0167	1
169.042	1
170.0606	3
171.0446	1
171.0676	9
171.4977	1
172.0406	329
173.0471	42
174.0536	1
182.028	0
183.0111	0
183.0553	1
184.0402	14
185.0404	0
186.0193	4
186.0538	1
198.0557	2
199.0274	0
199.0632	8
200.035	107
201.0384	2
202.0502	1
208.0071	9
209.9985	9
214.0498	1
215.0587	0
220.0736	1
227.0438	0
229.0555	0
230.0594	0
231.0714	1
232.0753	3
233.082	1
235.0086	1
236.0015	113
237.0094	84
238.0145	1
247.0635	1
248.0731	1
249.9817	0
250.0183	1
251.0249	0
260.0713	0
262.9865	0
263.1608	0
263.9967	68
265.0017	1
274.0811	0
275.095	1
276.069	0
276.999	0
278.0124	8
279.0208	3
