Mass spectrum: Sunitinib; LC-ESI-QTOF; MS2; 90 V
Name: Sunitinib
Class: Pharmaceutical
Formula: C22H27FN4O2
Exact mass: 398.2118
SMILES: CCN(CC)CCNC(=O)C1=C(NC(=C1C)C=C2C3=C(C=CC(=C3)F)NC2=O)C
InChI: InChI=1S/C22H27FN4O2/c1-5-27(6-2)10-9-24-22(29)20-13(3)19(25-14(20)4)12-17-16-11-15(23)7-8-18(16)26-21(17)28/h7-8,11-12,25H,5-6,9-10H2,1-4H3,(H,24,29)(H,26,28)
Instrument: TripleTOF 5600 SCIEX
Instrument type: LC-ESI-QTOF
Ms type: MS2
Ion mode: NEGATIVE
Collision energy: 90
Fragmentation mode: CID
Ionization: ESI
Column name: Zorbax Eclipse Plus C18 2.1 mm x 150 mm, 3.5 um, Agilent
Retention time: 6.516 min
Precursor m/z: 397.2045
Precursor type: [M-H]-
m/z	relative intensity
42.0035	499
42.018	99
78.0386	99
92.0478	49
94.0672	149
114.0317	149
134.0417	499
149.028	399
150.0371	99
158.03	99
159.0369	199
162.0389	299
164.0609	49
174.0394	149
184.0585	249
187.0337	199
188.0445	199
209.0563	199
211.0685	999
212.0689	149
212.0828	149
222.0622	199
223.0718	149
225.0718	49
225.0936	249
227.0981	49
235.0735	199
236.0767	99
237.0516	249
238.0576	399
239.0637	399
251.0691	99
252.0661	249
253.0797	449
264.0561	99
266.0773	249
267.0914	349
278.0835	149
280.0713	49
