Mass spectrum: Erlotinib; LC-ESI-QTOF; MS2; 110 V
Name: Erlotinib
Class: Pharmaceutical
Formula: C22H23N3O4
Exact mass: 393.1689
SMILES: COCCOC1=C(C=C2C(=C1)C(=NC=N2)NC3=CC=CC(=C3)C#C)OCCOC
InChI: InChI=1S/C22H23N3O4/c1-4-16-6-5-7-17(12-16)25-22-18-13-20(28-10-8-26-2)21(29-11-9-27-3)14-19(18)23-15-24-22/h1,5-7,12-15H,8-11H2,2-3H3,(H,23,24,25)
Instrument: TripleTOF 5600 SCIEX
Instrument type: LC-ESI-QTOF
Ms type: MS2
Ion mode: NEGATIVE
Collision energy: 110
Fragmentation mode: CID
Ionization: ESI
Column name: Zorbax Eclipse Plus C18 2.1 mm x 150 mm, 3.5 um, Agilent
Retention time: 7.429 min
Precursor m/z: 392.1616
Precursor type: [M-H]-
m/z	relative intensity
65.0156	222
65.9977	111
89.0134	166
90.0332	55
115.0297	111
116.0178	55
133.0183	333
134.0245	55
141.0461	666
163.027	111
164.0477	277
165.047	666
189.0458	721
190.0424	222
191.0633	444
192.0494	277
214.0382	222
216.0552	999
216.069	55
220.0521	55
228.0591	166
229.0655	388
244.0493	888
