Mass spectrum: Tributylphosphine oxide; LC-ESI-QTOF; MS2; 20 V
Name: Tributylphosphine oxide
Class: Industrial_process
Formula: C12H27OP
Exact mass: 218.18
SMILES: CCCC[P](=O)(CCCC)CCCC
InChI: InChI=1S/C12H27OP/c1-4-7-10-14(13,11-8-5-2)12-9-6-3/h4-12H2,1-3H3
Instrument: TripleTOF 5600 SCIEX
Instrument type: LC-ESI-QTOF
Ms type: MS2
Ion mode: POSITIVE
Collision energy: 20
Fragmentation mode: CID
Ionization: ESI
Column name: Zorbax Eclipse Plus C18 2.1 mm x 150 mm, 3.5 um, Agilent
Retention time: 11.114 min
Precursor m/z: 219.1872
Precursor type: [M+H]+
m/z	relative intensity
78.0252	10
92.0397	11
163.1242	25
203.1424	27
219.1867	999
