Mass spectrum: Methiocarb; LC-ESI-QTOF; MS2; 110 V
Name: Methiocarb
Class: Acaricide; Insecticide
Formula: C11H15NO2S
Exact mass: 225.0823
SMILES: Cc1cc(cc(c1SC)C)OC(=O)NC
InChI: InChI=1S/C11H15NO2S/c1-7-5-9(14-11(13)12-3)6-8(2)10(7)15-4/h5-6H,1-4H3,(H,12,13)
Instrument: TripleTOF 6600 SCIEX
Instrument type: LC-ESI-QTOF
Ms type: MS2
Ion mode: POSITIVE
Collision energy: 110
Fragmentation mode: CID
Ionization: ESI
Column name: Zorbax Eclipse Plus C18 2.1 mm x 150 mm, 3.5 um, Agilent
Retention time: 11.34614 min
Precursor m/z: 226.0896
Precursor type: [M+H]+
m/z	relative intensity
35.997	25
37.0056	103
38.0008	17
38.0133	94
39.0208	409
41.036	60
44.9772	124
49.0051	51
50.0128	482
51.0206	999
52.028	38
53.0356	68
55.0155	30
61.004	43
62.0124	77
63.0201	116
65.0363	210
68.976	86
74.0126	60
77.0362	572
78.0429	51
79.0516	21
89.0352	47
91.0515	116
105.043	17
107.0459	25
