Mass spectrum: N,N`-diphenyl-p-phenylenediamine; LC-ESI-QTOF; MS2; 90 V
Name: N,N`-diphenyl-p-phenylenediamine
Class: Industrial_process
Formula: C18H16N2
Exact mass: 260.1313
SMILES: N(c1ccccc1)c2ccc(Nc3ccccc3)cc2
InChI: InChI=1S/C18H16N2/c1-3-7-15(8-4-1)19-17-11-13-18(14-12-17)20-16-9-5-2-6-10-16/h1-14,19-20H
Instrument: TripleTOF 5600 SCIEX
Instrument type: LC-ESI-QTOF
Ms type: MS2
Ion mode: POSITIVE
Collision energy: 90
Fragmentation mode: CID
Ionization: ESI
Column name: Zorbax Eclipse Plus C18 2.1 mm x 150 mm, 3.5 um, Agilent
Retention time: 14.544 min
Precursor m/z: 261.1386
Precursor type: [M+H]+
m/z	relative intensity
52.0359	24
64.0332	27
65.0427	73
66.0499	53
67.0464	12
75.0257	12
77.0419	245
78.0449	103
79.0471	26
80.0531	999
81.0608	11
89.0396	72
90.0402	91
91.0437	67
92.0502	12
93.0577	40
101.0391	30
102.046	61
103.0529	38
104.056	15
105.0451	21
107.0608	368
113.039	45
114.0434	47
115.0544	152
116.0576	66
117.0579	29
118.0538	24
126.0444	14
127.0531	120
128.0604	335
129.0655	182
130.0639	74
131.069	12
138.0446	13
139.0538	244
140.0514	267
141.0528	87
142.0637	19
143.0729	20
154.0651	108
155.0684	64
156.0796	38
164.0486	14
165.0552	27
166.0641	167
167.0719	287
168.0711	45
181.0746	103
182.0821	74
183.0925	12
