Mass spectrum: C-desmethyl-metoprolol; LC-ESI-QTOF; MS2; 150 V
Name: C-desmethyl-metoprolol
Formula: C14H23NO3
Exact mass: 253.1678
SMILES: CCNCC(COC1=CC=C(C=C1)CCOC)O
InChI: InChI=1S/C14H23NO3/c1-3-15-10-13(16)11-18-14-6-4-12(5-7-14)8-9-17-2/h4-7,13,15-16H,3,8-11H2,1-2H3
Instrument: TripleTOF 5600 SCIEX
Instrument type: LC-ESI-QTOF
Ms type: MS2
Ion mode: POSITIVE
Collision energy: 150
Fragmentation mode: CID
Ionization: ESI
Column name: Zorbax Eclipse Plus C18 2.1 mm x 150 mm, 3.5 um, Agilent
Retention time: 5.422 min
Precursor m/z: 254.1751
Precursor type: [M+H]+
m/z	relative intensity
37.0076	93
38.0145	66
39.0231	213
41.0392	93
44.0498	79
49.0081	173
50.0151	865
51.0231	999
58.0658	93
61.0069	79
62.0141	146
63.0234	253
65.0383	106
74.0162	133
75.023	66
77.0391	213
