Mass spectrum: Procarbazine; LC-ESI-QTOF; MS2; 70 V
Name: Procarbazine
Class: Pharmaceutical
Formula: C12H19N3O
Exact mass: 221.1528
SMILES: CC(C)NC(=O)c1ccc(cc1)CNNC
InChI: InChI=1S/C12H19N3O/c1-9(2)15-12(16)11-6-4-10(5-7-11)8-14-13-3/h4-7,9,13-14H,8H2,1-3H3,(H,15,16)
Instrument: TripleTOF 5600 SCIEX
Instrument type: LC-ESI-QTOF
Ms type: MS2
Ion mode: POSITIVE
Collision energy: 70
Fragmentation mode: CID
Ionization: ESI
Column name: Zorbax Eclipse Plus C18 2.1 mm x 150 mm, 3.5 um, Agilent
Retention time: 4.911 min
Precursor m/z: 222.1601
Precursor type: [M+H]+
m/z	relative intensity
44.0218	65
63.0405	37
65.0423	280
74.018	149
75.0255	578
76.0324	102
77.0404	999
77.0686	56
78.049	140
79.0564	177
80.0599	46
89.0396	849
89.0696	65
90.0481	774
91.0552	588
92.0623	56
103.0175	140
104.0492	261
105.0574	224
106.0647	196
118.042	46
