Mass spectrum: N-Cyclohexyl-1,3-benzothiazol-2-amine; LC-ESI-QTOF; MS2; 20 V
Name: N-Cyclohexyl-1,3-benzothiazol-2-amine
Formula: C13H16N2S
Exact mass: 232.1034
SMILES: C1CCC(CC1)NC2=NC3=CC=CC=C3S2
InChI: InChI=1S/C13H16N2S/c1-2-6-10(7-3-1)14-13-15-11-8-4-5-9-12(11)16-13/h4-5,8-10H,1-3,6-7H2,(H,14,15)
Instrument: TripleTOF 6600 SCIEX
Instrument type: LC-ESI-QTOF
Ms type: MS2
Ion mode: POSITIVE
Collision energy: 20
Fragmentation mode: CID
Ionization: ESI
Column name: Zorbax Eclipse Plus C18 2.1 mm x 150 mm, 3.5 um, Agilent
Retention time: 9.082 min
Precursor m/z: 233.1107
Precursor type: [M+H]+
m/z	relative intensity
151.0318	282
233.1121	999
