Mass spectrum: Tepraloxydim; LC-ESI-QTOF; MS2; 130 V
Name: Tepraloxydim
Class: Herbicide
Formula: C17H24ClNO4
Exact mass: 341.1394
SMILES: CCC(=NOCC=CCl)C1=C(CC(CC1=O)C2CCOCC2)O
InChI: InChI=1S/C17H24ClNO4/c1-2-14(19-23-7-3-6-18)17-15(20)10-13(11-16(17)21)12-4-8-22-9-5-12/h3,6,12-13,20H,2,4-5,7-11H2,1H3
Instrument: TripleTOF 6600 SCIEX
Instrument type: LC-ESI-QTOF
Ms type: MS2
Ion mode: NEGATIVE
Collision energy: 130
Fragmentation mode: CID
Ionization: ESI
Column name: Zorbax Eclipse Plus C18 2.1 mm x 150 mm, 3.5 um, Agilent
Retention time: 12.248 min
Precursor m/z: 340.1321
Precursor type: [M-H]-
m/z	relative intensity
34.9677	307
38.0021	81
41.0013	51
50.0009	46
64.0168	25
65.9959	999
90.0322	17
120.0066	25
133.0125	17
134.0214	51
