Mass spectrum: 2-Aminobenzimidazole; LC-ESI-QTOF; MS2; 40 V
Name: 2-Aminobenzimidazole
Class: Transformation_product; Fungicide; Transformation_product-Metabolite
Formula: C7H7N3
Exact mass: 133.064
SMILES: C1=CC=C2C(=C1)NC(=N2)N
InChI: InChI=1S/C7H7N3/c8-7-9-5-3-1-2-4-6(5)10-7/h1-4H,(H3,8,9,10)
Instrument: TripleTOF 6600 SCIEX
Instrument type: LC-ESI-QTOF
Ms type: MS2
Ion mode: POSITIVE
Collision energy: 40
Fragmentation mode: CID
Ionization: ESI
Column name: Zorbax Eclipse Plus C18 2.1 mm x 150 mm, 3.5 um, Agilent
Retention time: 4.787 min
Precursor m/z: 134.0713
Precursor type: [M+H]+
m/z	relative intensity
37.0069	15
38.0152	12
39.0228	133
53.0384	19
65.0386	999
66.0458	28
80.0493	183
90.0337	18
92.0496	528
93.057	190
106.0528	10
107.0601	96
117.0444	30
133.0628	39
134.071	211
