Mass spectrum: Mesosulfuron-methyl; LC-ESI-QTOF; MS2; 120 V
Name: Mesosulfuron-methyl
Class: Herbicide
Formula: C17H21N5O9S2
Exact mass: 503.0781
SMILES: COC(=O)c1ccc(CN[S](C)(=O)=O)cc1[S](=O)(=O)NC(=O)Nc2nc(OC)cc(OC)n2
InChI: InChI=1S/C17H21N5O9S2/c1-29-13-8-14(30-2)20-16(19-13)21-17(24)22-33(27,28)12-7-10(9-18-32(4,25)26)5-6-11(12)15(23)31-3/h5-8,18H,9H2,1-4H3,(H2,19,20,21,22,24)
Instrument: TripleTOF 5600 SCIEX
Instrument type: LC-ESI-QTOF
Ms type: MS2
Ion mode: POSITIVE
Collision energy: 120
Fragmentation mode: CID
Ionization: ESI
Column name: Zorbax Eclipse Plus C18 2.1 mm x 150 mm, 3.5 um, Agilent
Retention time: 10.025 min
Precursor m/z: 504.0853
Precursor type: [M+H]+
m/z	relative intensity
56.0164	45
57.0479	30
65.0169	35
65.0428	40
68.0173	45
69.004	137
71.063	35
77.0406	193
79.0559	25
81.0451	25
82.0301	81
83.0263	999
83.0479	25
90.0353	50
92.0282	76
92.0548	30
93.0098	341
100.0409	30
104.0494	91
117.0461	25
118.0292	132
119.0355	20
135.044	20
138.0297	56
139.05	254
140.0465	40
162.0545	20
182.0565	40
