Mass spectrum: Aliskiren; LC-ESI-QTOF; MS2; 40 V
Name: Aliskiren
Class: Pharmaceutical
Formula: C30H53N3O6
Exact mass: 551.3934
SMILES: CC(C)[C@@H](Cc1ccc(c(c1)OCCCOC)OC)C[C@@H]([C@H](C[C@@H](C(C)C)C(=O)NCC(C)(C)C(=O)N)O)N
InChI: InChI=1S/C30H53N3O6/c1-19(2)22(14-21-10-11-26(38-8)27(15-21)39-13-9-12-37-7)16-24(31)25(34)17-23(20(3)4)28(35)33-18-30(5,6)29(32)36/h10-11,15,19-20,22-25,34H,9,12-14,16-18,31H2,1-8H3,(H2,32,36)(H,33,35)/t22-,23-,24-,25-/m0/s1
Instrument: TripleTOF 5600 SCIEX
Instrument type: LC-ESI-QTOF
Ms type: MS2
Ion mode: POSITIVE
Collision energy: 40
Fragmentation mode: CID
Ionization: ESI
Column name: Zorbax Eclipse Plus C18 2.1 mm x 150 mm, 3.5 um, Agilent
Retention time: 8.2 min
Precursor m/z: 552.4001
Precursor type: [M+H]+
m/z	relative intensity
100.0777	220
117.1039	259
177.0916	134
209.1176	445
222.1856	262
285.1853	108
346.2379	131
401.2695	149
418.2957	822
419.2808	268
436.3058	999
500.3383	244
517.3623	161
534.3896	740
552.4	708
