Mass spectrum: Chloromethyltriphenylphosphonium; LC-ESI-QTOF; MS2; 80 V
Name: Chloromethyltriphenylphosphonium
Class: Industrial_process
Formula: [C19H17ClP]+
Exact mass: 311.0751
SMILES: C1=CC=C(C=C1)[P+](CCl)(C2=CC=CC=C2)C3=CC=CC=C3
InChI: InChI=1S/C19H17ClP/c20-16-21(17-10-4-1-5-11-17,18-12-6-2-7-13-18)19-14-8-3-9-15-19/h1-15H,16H2/q+1
Instrument: TripleTOF 5600 SCIEX
Instrument type: LC-ESI-QTOF
Ms type: MS2
Ion mode: POSITIVE
Collision energy: 80
Fragmentation mode: CID
Ionization: ESI
Column name: Zorbax Eclipse Plus C18 2.1 mm x 150 mm, 3.5 um, Agilent
Retention time: 7.338 min
Precursor m/z: 311.0751
Precursor type: [M]+
m/z	relative intensity
107.0028	291
115.0523	60
152.0613	301
157.0193	134
183.035	999
