Mass spectrum: Meclofenamic acid; LC-ESI-QTOF; MS2; 70 V
Name: Meclofenamic acid
Class: Pharmaceutical
Formula: C14H11Cl2NO2
Exact mass: 295.0167
SMILES: Cc1ccc(c(c1Cl)Nc2ccccc2C(=O)O)Cl
InChI: InChI=1S/C14H11Cl2NO2/c1-8-6-7-10(15)13(12(8)16)17-11-5-3-2-4-9(11)14(18)19/h2-7,17H,1H3,(H,18,19)
Instrument: TripleTOF 5600 SCIEX
Instrument type: LC-ESI-QTOF
Ms type: MS2
Ion mode: POSITIVE
Collision energy: 70
Fragmentation mode: CID
Ionization: ESI
Column name: Zorbax Eclipse Plus C18 2.1 mm x 150 mm, 3.5 um, Agilent
Retention time: 13.705 min
Precursor m/z: 296.024
Precursor type: [M+H]+
m/z	relative intensity
76.0334	14
77.0409	45
125.037	14
126.0446	19
127.0536	30
128.049	43
140.0497	12
150.0458	59
151.0531	434
152.061	416
153.061	162
154.0633	29
164.0495	49
165.057	13
176.0472	14
177.0571	152
178.0646	999
179.0723	894
180.0802	784
200.0264	36
206.059	59
207.0668	81
208.0754	134
213.0337	171
214.0414	416
215.0479	15
241.0282	31
242.0358	229
243.0428	46
