Mass spectrum: Oxycodone; LC-ESI-QTOF; MS2; 140 V
Name: Oxycodone
Class: Pharmaceutical
Formula: C18H21NO4
Exact mass: 315.1471
SMILES: CN1CCC23C4C(=O)CCC2(C1CC5=C3C(=C(C=C5)OC)O4)O
InChI: InChI=1S/C18H21NO4/c1-19-8-7-17-14-10-3-4-12(22-2)15(14)23-16(17)11(20)5-6-18(17,21)13(19)9-10/h3-4,13,16,21H,5-9H2,1-2H3
Instrument: TripleTOF 6600 SCIEX
Instrument type: LC-ESI-QTOF
Ms type: MS2
Ion mode: POSITIVE
Collision energy: 140
Fragmentation mode: CID
Ionization: ESI
Column name: Zorbax Eclipse Plus C18 2.1 mm x 150 mm, 3.5 um, Agilent
Retention time: 5.206 min
Precursor m/z: 316.1543
Precursor type: [M+H]+
m/z	relative intensity
35.9982	12
37.0064	50
38.0142	28
39.0223	168
42.0332	48
44.0484	16
49.0055	16
50.0143	176
51.022	412
52.0302	36
59.9983	12
61.0064	108
62.0145	222
63.0222	485
64.029	14
65.0373	234
73.006	43
74.0135	444
75.022	460
76.0292	243
77.0377	999
78.0445	219
80.0478	9
83.9975	16
85.0057	48
86.0149	171
87.0216	176
88.0294	101
89.0375	670
90.0444	33
91.0514	94
98.0144	106
99.0211	98
100.0292	45
101.0375	195
102.0454	470
103.054	84
105.0425	19
110.0119	24
111.0219	24
113.037	366
114.0434	135
115.0528	916
116.0475	45
117.0561	21
124.0287	14
125.0372	91
126.0453	929
127.0528	622
128.0606	352
129.0421	65
130.0642	31
131.0468	16
137.0375	65
138.0427	74
139.0525	926
140.0487	272
141.0611	77
142.0642	43
149.038	24
150.0457	388
151.0527	330
152.0593	465
153.0566	422
154.0641	183
155.0566	41
161.0371	26
162.0443	45
163.0541	180
164.0476	33
164.0601	106
165.0656	89
166.0645	304
167.0721	236
168.0512	12
168.079	82
176.0607	43
177.0583	26
178.0659	31
179.0676	31
180.0791	26
181.0876	12
189.0681	28
190.0647	33
191.0715	28
192.0762	16
