Mass spectrum: Diprogulic acid; LC-ESI-QTOF; MS2; 40 V
Name: Diprogulic acid
Formula: C12H18O7
Exact mass: 274.1053
SMILES: CC1(C)OCC2C(C3C(OC(C)(C)O3)(C(O)=O)O2)O1
InChI: InChI=1S/C12H18O7/c1-10(2)15-5-6-7(17-10)8-12(16-6,9(13)14)19-11(3,4)18-8/h6-8H,5H2,1-4H3,(H,13,14)
Instrument: TripleTOF 6600 SCIEX
Instrument type: LC-ESI-QTOF
Ms type: MS2
Ion mode: POSITIVE
Collision energy: 40
Fragmentation mode: CID
Ionization: ESI
Column name: Zorbax Eclipse Plus C18 2.1 mm x 150 mm, 3.5 um, Agilent
Retention time: 7.352 min
Precursor m/z: 275.1125
Precursor type: [M+H]+
m/z	relative intensity
31.0184	17
39.0227	25
41.0384	68
43.018	55
45.034	25
55.0179	38
57.0334	89
59.0127	25
59.0491	999
68.9962	59
69.0333	204
71.0124	59
73.028	29
85.0284	81
87.0073	85
95.0124	204
97.0278	106
113.0229	64
115.0024	89
141.0191	55
159.0301	25
