Mass spectrum: Sulfamethazine; LC-ESI-QTOF; MS2; 50 V
Name: Sulfamethazine
Class: Antimicrobial; Pharmaceutical
Formula: C12H14N4O2S
Exact mass: 278.0837
SMILES: CC1=CC(=NC(=N1)NS(=O)(=O)C2=CC=C(C=C2)N)C
InChI: InChI=1S/C12H14N4O2S/c1-8-7-9(2)15-12(14-8)16-19(17,18)11-5-3-10(13)4-6-11/h3-7H,13H2,1-2H3,(H,14,15,16)
Instrument: TripleTOF 5600 SCIEX
Instrument type: LC-ESI-QTOF
Ms type: MS2
Ion mode: POSITIVE
Collision energy: 50
Fragmentation mode: CID
Ionization: ESI
Column name: Zorbax Eclipse Plus C18 2.1 mm x 150 mm, 3.5 um, Agilent
Retention time: 6.115 min
Precursor m/z: 279.091
Precursor type: [M+H]+
m/z	relative intensity
54.0423	12
65.0468	494
66.0398	33
67.0366	43
68.0562	32
80.0556	227
81.0497	56
82.0707	61
83.0661	15
92.0548	999
93.0628	42
95.0653	159
96.0721	39
107.0646	234
108.0486	879
122.075	55
123.0811	28
124.0903	946
156.0131	34
186.0353	52
196.0883	43
197.0984	10
198.0909	33
213.1137	68
