Mass spectrum: Fluoxastrobin; LC-ESI-QTOF; MS2; 110 V
Name: Fluoxastrobin
Class: Fungicide
Formula: C21H16ClFN4O5
Exact mass: 458.0793
SMILES: CON=C(C1=CC=CC=C1OC2=C(C(=NC=N2)OC3=CC=CC=C3Cl)F)C4=NOCCO4
InChI: InChI=1S/C21H16ClFN4O5/c1-28-26-18(21-27-30-11-10-29-21)13-6-2-4-8-15(13)31-19-17(23)20(25-12-24-19)32-16-9-5-3-7-14(16)22/h2-9,12H,10-11H2,1H3
Instrument: TripleTOF 6600 SCIEX
Instrument type: LC-ESI-QTOF
Ms type: MS2
Ion mode: POSITIVE
Collision energy: 110
Fragmentation mode: CID
Ionization: ESI
Column name: Zorbax Eclipse Plus C18 2.1 mm x 150 mm, 3.5 um, Agilent
Retention time: 13.269 min
Precursor m/z: 459.0866
Precursor type: [M+H]+
m/z	relative intensity
37.009	11
38.0157	14
39.0227	38
43.0178	46
50.0157	76
51.0227	182
52.0179	14
57.0135	18
61.0067	26
62.0137	48
63.0222	165
64.0169	39
64.0294	73
65.038	74
69.9915	23
70.0072	16
72.983	24
73.0074	38
74.0142	356
75.0222	999
76.0178	89
76.0301	170
77.0379	238
78.0331	53
81.0126	29
82.0186	13
83.0267	9
84.9825	66
86.0148	13
87.011	29
88.0296	28
89.0249	11
89.0356	21
90.0332	141
91.0412	68
92.0253	68
93.0306	16
94.0206	39
95.0286	126
96.0236	9
99.0008	36
99.0211	14
100.018	54
101.0244	16
102.0332	477
103.0398	26
104.0373	11
105.0125	24
105.0336	38
106.02	77
107.0279	119
109.032	9
110.9992	328
113.0267	41
114.0323	73
115.0392	23
116.0357	43
118.0225	14
118.051	11
119.0373	19
120.0379	26
121.0295	53
122.0373	33
123.0348	38
124.0174	14
127.0286	23
128.0015	14
128.035	9
129.0428	59
130.0392	243
131.0224	13
132.0231	152
133.0315	164
134.0405	28
137.0248	21
138.0098	18
139.0039	106
139.0286	11
140.0345	36
140.9875	44
141.0427	9
144.0323	14
145.0327	16
147.0341	28
149.0259	16
149.0365	28
150.0371	69
151.0408	13
151.0519	28
152.0489	18
153.0501	9
154.0379	19
159.0342	33
160.0414	31
161.0269	34
164.052	14
165.0379	9
167.9992	21
168.0354	31
169.0393	114
170.0497	29
174.0348	26
175.0402	38
176.0505	51
177.054	48
178.0598	9
181.0412	13
188.0374	59
195.0473	41
196.0522	28
197.058	18
202.052	24
203.0585	24
204.0579	26
206.046	9
208.0549	16
221.0492	19
222.0509	11
248.066	11
250.0508	41
