Mass spectrum: Fluxapyroxad; LC-ESI-QTOF; MS2; 110 V
Name: Fluxapyroxad
Class: Fungicide
Formula: C18H12F5N3O
Exact mass: 381.0901
SMILES: Cn1cc(c(n1)C(F)F)C(=O)Nc2ccccc2c3cc(c(c(c3)F)F)F
InChI: InChI=1S/C18H12F5N3O/c1-26-8-11(16(25-26)17(22)23)18(27)24-14-5-3-2-4-10(14)9-6-12(19)15(21)13(20)7-9/h2-8,17H,1H3,(H,24,27)
Instrument: TripleTOF 6600 SCIEX
Instrument type: LC-ESI-QTOF
Ms type: MS2
Ion mode: POSITIVE
Collision energy: 110
Fragmentation mode: CID
Ionization: ESI
Column name: Zorbax Eclipse Plus C18 2.1 mm x 150 mm, 3.5 um, Agilent
Retention time: 12.239 min
Precursor m/z: 382.0973
Precursor type: [M+H]+
m/z	relative intensity
42.0338	32
51.0038	17
57.0126	35
74.0147	11
75.0039	17
75.0217	17
81.0127	17
87.0213	20
93.0134	14
98.0139	44
99.0041	14
99.0221	11
105.0129	17
107.0286	26
109.0383	17
110.013	14
111.0213	44
112.0145	20
114.0335	11
117.0119	29
119.0097	11
122.0139	38
123.0091	17
123.02	17
125.018	20
131.0303	29
134.013	26
135.0215	95
136.0111	29
137.0371	14
138.0271	17
141.0124	101
143.0087	17
146.0133	140
147.0219	110
148.0175	17
149.0374	29
151.0362	20
155.0278	80
156.0173	32
156.0352	59
157.0441	86
159.0047	17
160.0126	23
161.0184	56
162.0269	47
165.012	32
166.0061	17
166.0222	44
167.0286	155
168.0174	17
168.0356	110
169.0247	47
169.042	14
171.01	56
172.0173	71
173.0177	26
174.0294	11
175.0347	71
177.053	17
179.0287	26
180.0174	113
181.0406	68
182.0397	50
184.0124	32
185.0188	158
186.0271	999
187.034	140
188.0422	128
191.0108	23
191.0286	11
192.0244	56
192.0369	17
193.0274	110
194.0226	14
194.05	23
195.0458	26
197.0183	29
198.0259	38
199.0351	169
200.0319	44
201.0485	26
203.0269	20
204.0178	310
205.0255	259
206.0339	820
207.0366	29
210.0276	35
211.0222	161
212.0301	17
212.0429	38
213.0376	77
214.0493	23
215.04	11
216.0185	29
217.0251	178
218.0215	26
218.0338	41
219.043	77
220.0531	14
222.0273	20
223.0353	166
224.0342	137
225.0509	122
226.0457	83
229.0266	14
230.0215	17
230.0367	53
231.029	143
232.0398	26
232.0566	17
233.0309	17
233.0472	23
235.0287	14
236.0401	17
237.0381	35
238.0438	14
238.056	11
239.0477	14
241.0256	56
242.034	80
243.0403	158
244.0365	65
245.0504	11
250.0451	77
251.0424	29
255.0242	17
257.0456	20
258.0556	26
262.0423	23
264.0643	14
267.0375	20
268.0329	20
269.0458	20
270.0521	35
276.0527	14
282.0517	23
283.0481	11
