Mass spectrum: Pendimethalin; LC-ESI-QTOF; MS2; 70 V
Name: Pendimethalin
Class: Herbicide
Formula: C13H19N3O4
Exact mass: 281.1376
SMILES: CCC(CC)Nc1c(cc(c(c1[N+](=O)[O-])C)C)[N+](=O)[O-]
InChI: InChI=1S/C13H19N3O4/c1-5-10(6-2)14-12-11(15(17)18)7-8(3)9(4)13(12)16(19)20/h7,10,14H,5-6H2,1-4H3
Instrument: TripleTOF 6600 SCIEX
Instrument type: LC-ESI-QTOF
Ms type: MS2
Ion mode: POSITIVE
Collision energy: 70
Fragmentation mode: CID
Ionization: ESI
Column name: Zorbax Eclipse Plus C18 2.1 mm x 150 mm, 3.5 um, Agilent
Retention time: 16.198 min
Precursor m/z: 282.1448
Precursor type: [M+H]+
m/z	relative intensity
37.0074	34
38.0034	29
38.0161	39
39.0237	286
41.0276	24
41.0389	331
42.0342	44
43.0187	29
43.0547	272
49.0082	34
50.0155	143
51.0233	346
52.0186	118
52.0321	39
53.014	39
53.0279	19
53.039	187
54.0346	44
55.0547	24
61.0076	19
62.0149	29
63.0233	291
64.0195	74
64.0315	163
65.0272	49
65.039	999
66.0219	19
66.0343	163
66.0468	128
67.0428	39
67.0547	39
68.0136	44
68.0491	24
75.0234	93
76.0189	93
76.0308	187
77.0264	54
77.0391	722
78.0338	375
79.0426	39
79.0547	49
80.0496	143
81.0333	34
89.0391	326
90.0347	123
90.0467	84
91.041	138
91.0543	276
92.0253	54
92.0495	519
93.0457	44
93.057	138
94.0285	19
94.0653	44
95.0497	39
102.0342	148
103.0298	64
103.042	202
104.0502	232
105.0448	405
106.0293	24
106.0534	34
106.066	44
116.0487	79
117.0466	54
117.0573	29
118.0522	84
118.0652	148
119.0606	529
120.0203	34
120.0455	34
120.0675	49
129.0448	108
130.0404	128
131.0606	54
145.0376	29
147.0559	89
148.063	79
