Mass spectrum: Carazolol; LC-ESI-QTOF; MS2; 120 V
Name: Carazolol
Class: Pharmaceutical
Formula: C18H22N2O2
Exact mass: 298.1681
SMILES: CC(C)NCC(O)COc1cccc2[nH]c3ccccc3c12
InChI: InChI=1S/C18H22N2O2/c1-12(2)19-10-13(21)11-22-17-9-5-8-16-18(17)14-6-3-4-7-15(14)20-16/h3-9,12-13,19-21H,10-11H2,1-2H3
Instrument: TripleTOF 5600 SCIEX
Instrument type: LC-ESI-QTOF
Ms type: MS2
Ion mode: POSITIVE
Collision energy: 120
Fragmentation mode: CID
Ionization: ESI
Column name: Zorbax Eclipse Plus C18 2.1 mm x 150 mm, 3.5 um, Agilent
Retention time: 6.882 min
Precursor m/z: 299.1754
Precursor type: [M+H]+
m/z	relative intensity
56.0543	87
58.0704	47
58.084	12
65.0426	72
72.0826	22
74.018	72
74.0356	9
74.0719	12
75.0253	204
76.0339	57
76.0598	9
77.0412	373
78.0486	77
86.0171	42
87.0245	117
87.0576	9
88.0204	19
88.0338	49
89.0406	453
90.0486	54
91.0555	19
98.015	19
99.0239	42
100.0306	19
101.0389	169
102.0472	149
103.055	22
110.0149	9
111.0247	12
112.0307	12
113.0392	408
113.0657	22
114.0333	32
114.0467	49
115.0543	229
116.0493	22
117.0584	49
125.0382	37
126.0466	216
127.0542	508
128.0617	510
129.0426	9
129.0565	17
129.0745	12
130.0653	17
137.0382	84
138.0464	124
139.0546	999
139.0857	14
140.0499	635
141.0568	19
149.0403	29
150.0465	137
151.0544	122
152.0583	92
153.0569	72
154.0651	204
155.066	19
162.0491	29
163.0544	196
164.0535	204
165.0561	32
165.0691	82
166.0655	298
167.0723	72
174.0479	17
175.0522	14
176.0517	27
177.0576	42
178.0652	24
182.0634	14
188.0474	32
189.0605	42
190.0657	194
191.0727	132
191.099	9
201.0554	12
