Mass spectrum: Metolachlor; LC-ESI-QTOF; MS2; 80 V
Name: Metolachlor
Class: Herbicide
Formula: C15H22ClNO2
Exact mass: 283.1339
SMILES: CCc1cccc(C)c1N(C(C)COC)C(=O)CCl
InChI: InChI=1S/C15H22ClNO2/c1-5-13-8-6-7-11(2)15(13)17(14(18)9-16)12(3)10-19-4/h6-8,12H,5,9-10H2,1-4H3
Instrument: TripleTOF 5600 SCIEX
Instrument type: LC-ESI-QTOF
Ms type: MS2
Ion mode: POSITIVE
Collision energy: 80
Fragmentation mode: CID
Ionization: ESI
Column name: Zorbax Eclipse Plus C18 2.1 mm x 150 mm, 3.5 um, Agilent
Retention time: 13.304 min
Precursor m/z: 284.1412
Precursor type: [M+H]+
m/z	relative intensity
45.0409	112
48.9904	99
51.0277	27
65.043	277
66.0506	18
73.0677	62
76.9813	20
77.0416	459
78.0486	91
79.0565	71
89.0405	42
90.0476	35
91.0564	999
92.0509	10
92.0628	14
93.0588	311
102.0467	31
103.0542	172
104.0505	21
104.0617	81
105.0696	87
106.0658	143
107.0729	53
108.081	62
115.0542	426
116.0495	18
116.0616	48
117.0582	410
118.0652	320
119.0731	217
120.0801	73
127.0543	42
128.0477	23
128.0609	47
129.0688	25
130.065	667
131.0729	282
132.0808	330
133.053	15
133.0876	61
134.0967	18
141.0673	13
142.0634	55
143.0726	167
144.0808	443
145.0883	86
146.06	26
146.0955	63
147.0672	10
156.0811	18
157.0879	17
158.096	57
160.1125	9
