Mass spectrum: Clonazepam; LC-ESI-QTOF; MS2; 80 V
Name: Clonazepam
Class: Pharmaceutical
Formula: C15H10ClN3O3
Exact mass: 315.0411
SMILES: C1C(=O)NC2=C(C=C(C=C2)[N+](=O)[O-])C(=N1)C3=CC=CC=C3Cl
InChI: InChI=1S/C15H10ClN3O3/c16-12-4-2-1-3-10(12)15-11-7-9(19(21)22)5-6-13(11)18-14(20)8-17-15/h1-7H,8H2,(H,18,20)
Instrument: TripleTOF 6600 SCIEX
Instrument type: LC-ESI-QTOF
Ms type: MS2
Ion mode: POSITIVE
Collision energy: 80
Fragmentation mode: CID
Ionization: ESI
Column name: Zorbax Eclipse Plus C18 2.1 mm x 150 mm, 3.5 um, Agilent
Retention time: 9.867 min
Precursor m/z: 316.0484
Precursor type: [M+H]+
m/z	relative intensity
51.0227	16
75.0227	23
76.0298	36
77.0385	113
78.0331	23
78.0454	15
89.0375	33
102.0324	70
103.0414	38
104.05	81
113.0382	15
115.0537	30
125.0383	40
126.0455	35
127.0531	61
128.0619	47
129.0433	73
130.0405	40
138.0453	13
139.0535	89
140.0497	96
149.0383	30
150.0454	240
151.0536	999
152.0612	659
153.0638	131
154.0638	39
155.0629	12
162.021	11
162.0466	24
163.0536	220
164.0553	163
165.0683	137
166.0646	78
167.0712	86
174.0112	19
175.0413	14
176.0497	67
177.0572	522
178.0646	600
179.0713	382
180.0805	52
186.0235	69
187.0313	14
188.0495	62
189.0579	82
190.0643	252
191.0705	59
192.069	42
197.0135	11
199.0322	37
201.0348	11
203.0578	37
204.0659	59
205.076	592
206.0806	64
212.0252	10
213.0344	38
214.0422	166
224.0262	46
239.0348	67
240.0428	10
241.0515	31
