Mass spectrum: Tris(2-chloroethyl) phosphate; LC-ESI-QTOF; MS2; 40 V
Name: Tris(2-chloroethyl) phosphate
Class: Industrial_process
Formula: C6H12Cl3O4P
Exact mass: 283.9539
SMILES: C(CCl)OP(=O)(OCCCl)OCCCl
InChI: InChI=1S/C6H12Cl3O4P/c7-1-4-11-14(10,12-5-2-8)13-6-3-9/h1-6H2
Instrument: TripleTOF 6600 SCIEX
Instrument type: LC-ESI-QTOF
Ms type: MS2
Ion mode: POSITIVE
Collision energy: 40
Fragmentation mode: CID
Ionization: ESI
Column name: Zorbax Eclipse Plus C18 2.1 mm x 150 mm, 3.5 um, Agilent
Retention time: 9.356 min
Precursor m/z: 284.9612
Precursor type: [M+H]+
m/z	relative intensity
45.0329	21
62.9993	831
80.9728	121
98.9839	999
116.9491	11
124.999	157
160.9764	102
222.9692	29
