Mass spectrum: Verapamil; LC-ESI-QTOF; MS2; 80 V
Name: Verapamil
Class: Pharmaceutical
Formula: C27H38N2O4
Exact mass: 454.2832
SMILES: CC(C)C(CCCN(C)CCc1ccc(c(c1)OC)OC)(C#N)c2ccc(c(c2)OC)OC
InChI: InChI=1S/C27H38N2O4/c1-20(2)27(19-28,22-10-12-24(31-5)26(18-22)33-7)14-8-15-29(3)16-13-21-9-11-23(30-4)25(17-21)32-6/h9-12,17-18,20H,8,13-16H2,1-7H3
Instrument: TripleTOF 5600 SCIEX
Instrument type: LC-ESI-QTOF
Ms type: MS2
Ion mode: POSITIVE
Collision energy: 80
Fragmentation mode: CID
Ionization: ESI
Column name: Zorbax Eclipse Plus C18 2.1 mm x 150 mm, 3.5 um, Agilent
Retention time: 8.542 min
Precursor m/z: 455.2904
Precursor type: [M+H]+
m/z	relative intensity
58.0702	61
65.0425	28
67.0575	10
77.0421	520
78.0489	79
79.0574	497
84.0826	53
89.0406	31
90.0482	105
91.0563	491
92.0632	41
93.0717	69
94.0428	23
94.0684	13
95.05	19
96.0584	9
102.0471	47
103.0553	514
104.0625	146
105.032	18
105.0707	412
107.0501	535
108.0569	29
109.0287	10
109.065	31
115.054	33
117.0703	21
118.0416	203
119.0496	379
120.0572	194
121.0652	478
122.0366	14
122.0722	89
123.044	39
124.0512	35
129.0679	11
131.0494	163
132.0566	25
133.0648	257
134.0731	572
135.0444	882
135.0807	71
136.0523	297
137.0588	72
138.0669	45
144.0557	10
145.0649	18
146.0594	21
146.0717	69
147.0801	13
149.0599	146
150.068	999
151.0751	190
152.0832	25
159.0786	23
160.0807	41
161.0578	11
164.0827	12
165.0908	277
172.0751	43
174.0908	31
176.0705	47
177.0907	37
186.0904	17
187.0977	24
188.0698	25
191.1053	15
202.0865	40
203.0942	15
214.1208	14
218.1172	9
