Mass spectrum: Heptadecafluoroundecanoic acid; LC-ESI-QTOF; MS2; 70 V
Name: Heptadecafluoroundecanoic acid
Formula: C11H5F17O2
Exact mass: 492.0018
SMILES: C(CC(C(C(C(C(C(C(C(F)(F)F)(F)F)(F)F)(F)F)(F)F)(F)F)(F)F)(F)F)C(=O)O
InChI: InChI=1S/C11H5F17O2/c12-4(13,2-1-3(29)30)5(14,15)6(16,17)7(18,19)8(20,21)9(22,23)10(24,25)11(26,27)28/h1-2H2,(H,29,30)
Instrument: TripleTOF 5600 SCIEX
Instrument type: LC-ESI-QTOF
Ms type: MS2
Ion mode: NEGATIVE
Collision energy: 70
Fragmentation mode: CID
Ionization: ESI
Column name: Zorbax Eclipse Plus C18 2.1 mm x 150 mm, 3.5 um, Agilent
Retention time: 15.293 min
Precursor m/z: 490.9945
Precursor type: [M-H]-
m/z	relative intensity
39.0047	48
62.9884	68
92.995	117
97.9969	176
142.9934	88
147.9953	362
166.9931	97
178.9942	97
197.9909	626
216.9917	342
228.9909	137
247.9882	284
266.9874	284
278.9852	176
292.9808	313
297.9841	235
316.983	999
366.9793	744
