Mass spectrum: Clonidine; LC-ESI-QTOF; MS2; 40 V
Name: Clonidine
Class: Pharmaceutical
Formula: C9H9Cl2N3
Exact mass: 229.0174
SMILES: C1CN=C(N1)NC2=C(C=CC=C2Cl)Cl
InChI: InChI=1S/C9H9Cl2N3/c10-6-2-1-3-7(11)8(6)14-9-12-4-5-13-9/h1-3H,4-5H2,(H2,12,13,14)
Instrument: TripleTOF 6600 SCIEX
Instrument type: LC-ESI-QTOF
Ms type: MS2
Ion mode: POSITIVE
Collision energy: 40
Fragmentation mode: CID
Ionization: ESI
Column name: Zorbax Eclipse Plus C18 2.1 mm x 150 mm, 3.5 um, Agilent
Retention time: 5.408 min
Precursor m/z: 230.0246
Precursor type: [M+H]+
m/z	relative intensity
42.0336	46
44.0493	883
59.0603	46
69.0443	54
108.9822	34
115.0261	17
123.994	83
125.0016	14
126.0089	11
131.0597	25
132.0659	20
132.9594	77
135.9944	40
138.0104	20
144.9594	86
151.004	17
151.017	121
152.0121	51
153.0207	49
158.0695	49
158.9769	43
159.0786	54
159.9703	256
160.0845	69
160.978	23
161.988	43
163.9998	86
165.0215	17
167.0272	14
171.9703	216
172.9656	75
184.966	92
185.9853	135
186.9816	254
194.0471	135
212.9972	479
230.024	999
