Mass spectrum: 4-Amino-6-Chloro-1,3-Benzenedisulfonamide; LC-ESI-QTOF; MS2; 40 V
Name: 4-Amino-6-Chloro-1,3-Benzenedisulfonamide
Class: Pharmaceutical
Formula: C6H8ClN3O4S2
Exact mass: 284.9645
SMILES: C1=C(C(=CC(=C1Cl)S(=O)(=O)N)S(=O)(=O)N)N
InChI: InChI=1S/C6H8ClN3O4S2/c7-3-1-4(8)6(16(10,13)14)2-5(3)15(9,11)12/h1-2H,8H2,(H2,9,11,12)(H2,10,13,14)
Instrument: TripleTOF 5600 SCIEX
Instrument type: LC-ESI-QTOF
Ms type: CID
Ion mode: POSITIVE
Collision energy: 40
Ionization: ESI
Column name: Zorbax Eclipse Plus C18 2.1 mm x 150 mm, 3.5 um, Agilent
Retention time: 4.984 min
Precursor m/z: 285.9718
Precursor type: [M+H]+
m/z	relative intensity
93.0503	222
104.9609	333
111.9979	0
123.9954	666
129.0069	0
129.0171	222
129.0293	0
130.0053	333
139.9862	111
139.9979	111
141.9617	111
154.9969	444
155.0062	333
155.9868	999
157.0106	444
157.0227	111
157.9998	888
187.9542	0
187.9725	222
198.9325	444
204.9747	111
204.9874	555
220.9761	444
226.926	444
