Mass spectrum: (S)-N-methyl-pregabalin; LC-ESI-QTOF; MS2; 120 V
Name: (S)-N-methyl-pregabalin
Formula: C9H19NO2
Exact mass: 173.1416
SMILES: CC(C)CC(CC(=O)O)CNC
InChI: InChI=1S/C9H19NO2/c1-7(2)4-8(6-10-3)5-9(11)12/h7-8,10H,4-6H2,1-3H3,(H,11,12)
Instrument: TripleTOF 5600 SCIEX
Instrument type: LC-ESI-QTOF
Ms type: MS2
Ion mode: POSITIVE
Collision energy: 120
Fragmentation mode: CID
Ionization: ESI
Column name: Zorbax Eclipse Plus C18 2.1 mm x 150 mm, 3.5 um, Agilent
Retention time: 4.84 min
Precursor m/z: 174.1489
Precursor type: [M+H]+
m/z	relative intensity
36.0001	101
37.0076	374
38.0026	31
38.0153	312
39.023	999
41.0385	312
42.0338	70
43.0184	132
43.0543	46
44.0495	351
44.9971	54
45.0344	70
50.0156	46
54.0342	62
