Mass spectrum: trans-2-Hexenoic acid; LC-ESI-QTOF; MS2; 40 V
Name: trans-2-Hexenoic acid
Class: Food_additive; Metabolite
Formula: C6H10O2
Exact mass: 114.0681
InChI: InChI=1S/C6H10O2/c1-2-3-4-5-6(7)8/h4-5H,2-3H2,1H3,(H,7,8)/b5-4+
Instrument: TripleTOF 5600 SCIEX
Instrument type: LC-ESI-QTOF
Ms type: CID
Ion mode: POSITIVE
Collision energy: 40
Ionization: ESI
Column name: Zorbax Eclipse Plus C18 2.1 mm x 150 mm, 3.5 um, Agilent
Retention time: 8.012 min
Precursor m/z: 115.0754
Precursor type: [M+H]+
m/z	relative intensity
42.0217	38
43.0282	21
45.0053	96
55.0246	999
68.0299	393
69.0373	32
71.0161	50
73.0322	441
86.0382	105
