Mass spectrum: Fenpropidin; LC-ESI-QTOF; MS2; 60 V
Name: Fenpropidin
Class: Fungicide
Formula: C19H31N
Exact mass: 273.2456
SMILES: CC(CC1=CC=C(C=C1)C(C)(C)C)CN2CCCCC2
InChI: InChI=1S/C19H31N/c1-16(15-20-12-6-5-7-13-20)14-17-8-10-18(11-9-17)19(2,3)4/h8-11,16H,5-7,12-15H2,1-4H3
Instrument: TripleTOF 6600 SCIEX
Instrument type: LC-ESI-QTOF
Ms type: MS2
Ion mode: POSITIVE
Collision energy: 60
Fragmentation mode: CID
Ionization: ESI
Column name: Zorbax Eclipse Plus C18 2.1 mm x 150 mm, 3.5 um, Agilent
Retention time: 9.471 min
Precursor m/z: 274.2529
Precursor type: [M+H]+
m/z	relative intensity
39.0231	22
41.039	55
55.0539	11
57.07	41
65.0384	13
69.0696	21
77.0384	36
79.0541	32
84.0806	21
86.0963	81
91.0542	214
103.0539	31
104.0616	57
105.0697	179
107.0849	28
115.0539	131
116.0611	18
117.0699	999
119.0854	212
131.0854	74
132.0933	388
147.1164	76
