Mass spectrum: Flutriafol; LC-ESI-QTOF; MS2; 110 V
Name: Flutriafol
Class: Fungicide
Formula: C16H13F2N3O
Exact mass: 301.1027
SMILES: C1=CC=C(C(=C1)C(CN2C=NC=N2)(C3=CC=C(C=C3)F)O)F
InChI: InChI=1S/C16H13F2N3O/c17-13-7-5-12(6-8-13)16(22,9-21-11-19-10-20-21)14-3-1-2-4-15(14)18/h1-8,10-11,22H,9H2
Instrument: TripleTOF 6600 SCIEX
Instrument type: LC-ESI-QTOF
Ms type: MS2
Ion mode: POSITIVE
Collision energy: 110
Fragmentation mode: CID
Ionization: ESI
Column name: Zorbax Eclipse Plus C18 2.1 mm x 150 mm, 3.5 um, Agilent
Retention time: 10.047 min
Precursor m/z: 302.11
Precursor type: [M+H]+
m/z	relative intensity
39.0229	15
42.0217	23
43.0294	275
50.0145	19
51.0224	14
57.0134	83
59.029	13
61.0066	12
62.0143	17
63.0227	45
68.005	10
69.0131	59
70.0399	373
73.0071	83
74.015	879
75.0229	999
81.0134	10
83.0291	149
89.0382	14
95.0284	188
98.0147	30
99.0223	22
109.0434	28
122.014	23
123.0322	59
133.0449	11
163.0537	27
168.0376	41
174.0453	20
181.0459	18
183.0593	12
192.035	18
194.0514	13
