Mass spectrum: Etofibrate; LC-ESI-QTOF; MS2; 150 V
Name: Etofibrate
Class: Pharmaceutical
Formula: C18H18ClNO5
Exact mass: 363.0874
SMILES: CC(C)(C(=O)OCCOC(=O)C1=CN=CC=C1)OC2=CC=C(C=C2)Cl
InChI: InChI=1S/C18H18ClNO5/c1-18(2,25-15-7-5-14(19)6-8-15)17(22)24-11-10-23-16(21)13-4-3-9-20-12-13/h3-9,12H,10-11H2,1-2H3
Instrument: TripleTOF 6600 SCIEX
Instrument type: LC-ESI-QTOF
Ms type: MS2
Ion mode: POSITIVE
Collision energy: 150
Fragmentation mode: CID
Ionization: ESI
Column name: Zorbax Eclipse Plus C18 2.1 mm x 150 mm, 3.5 um, Agilent
Retention time: 12.631 min
Precursor m/z: 364.0946
Precursor type: [M+H]+
m/z	relative intensity
35.9988	16
37.0063	102
38.0019	33
38.0137	102
39.0221	602
40.0303	30
41.0375	366
42.0444	27
43.0171	41
45.0322	22
49.0064	130
50.0142	793
51.01	30
51.0219	999
52.0177	735
52.0281	294
53.0115	16
53.0374	502
55.0167	452
65.0373	77
66.0454	27
67.0405	22
69.0324	30
73.006	83
74.0136	666
75.0215	305
76.0296	19
77.0371	80
78.0324	899
79.0399	255
80.0482	419
84.9825	69
89.037	16
91.0517	13
92.0473	22
93.0556	19
94.042	13
99.0419	33
