Mass spectrum: 2-Propinyl-triphenylphosphonium; LC-ESI-QTOF; MS2; 100 V
Name: 2-Propinyl-triphenylphosphonium
Formula: [C21H18P]+
Exact mass: 301.1141
SMILES: C#CC[P+](C1=CC=CC=C1)(C2=CC=CC=C2)C3=CC=CC=C3
InChI: InChI=1S/C21H18P/c1-2-18-22(19-12-6-3-7-13-19,20-14-8-4-9-15-20)21-16-10-5-11-17-21/h1,3-17H,18H2/q+1
Instrument: TripleTOF 6600 SCIEX
Instrument type: LC-ESI-QTOF
Ms type: MS2
Ion mode: POSITIVE
Collision energy: 100
Fragmentation mode: CID
Ionization: ESI
Column name: Zorbax Eclipse Plus C18 2.1 mm x 150 mm, 3.5 um, Agilent
Retention time: 7.928 min
Precursor m/z: 301.1141
Precursor type: [M]+
m/z	relative intensity
50.0136	72
51.0211	191
63.0205	79
65.036	92
67.9782	50
68.9859	90
77.036	623
79.9775	50
80.9856	128
89.0347	147
102.0423	136
103.0504	81
107.001	980
115.051	667
121.0165	75
126.0428	95
131.0007	57
133.0165	57
139.051	357
144.0092	236
145.0164	108
150.0432	91
151.0512	233
152.0592	999
157.0172	425
163.0514	281
164.0588	238
165.0669	407
176.0586	215
178.0744	78
181.0174	201
183.0331	281
189.0676	396
205.0169	100
207.0333	237
220.041	64
