Mass spectrum: Disperse Yellow 9; LC-ESI-QTOF; MS2; 50 V
Name: Disperse Yellow 9
Formula: C12H10N4O4
Exact mass: 274.0702
SMILES: C1=CC(=CC=C1N)NC2=C(C=C(C=C2)[N+](=O)[O-])[N+](=O)[O-]
InChI: InChI=1S/C12H10N4O4/c13-8-1-3-9(4-2-8)14-11-6-5-10(15(17)18)7-12(11)16(19)20/h1-7,14H,13H2
Instrument: TripleTOF X500R SCIEX
Instrument type: LC-ESI-QTOF
Ms type: MS2
Ion mode: POSITIVE
Collision energy: 50
Fragmentation mode: CID
Ionization: ESI
Column name: Zorbax Eclipse Plus C18 2.1 mm x 150 mm, 3.5 um, Agilent
Retention time: 9.832 min
Precursor m/z: 275.0775
Precursor type: [M+H]+
m/z	relative intensity
80.0495	13
93.0594	15
113.0385	17
114.0384	13
115.0504	13
116.0497	25
126.0469	11
127.0554	39
128.0503	39
129.0573	43
130.0665	51
137.0389	9
138.0478	37
139.0551	62
140.0498	125
141.0463	27
142.0573	17
143.0617	56
152.0523	13
153.0584	45
154.0661	157
155.0705	133
156.0728	31
164.0489	68
165.0574	84
166.0597	52
167.0619	68
168.0652	80
169.0765	31
177.046	39
178.0582	19
179.0598	47
180.0678	19
181.0541	49
181.0768	800
182.0845	999
183.0809	33
193.0633	29
194.0478	13
194.0724	294
195.0512	11
195.0801	143
197.0755	9
228.0779	27
