Mass spectrum: Florasulam; LC-ESI-QTOF; MS2; 100 V
Name: Florasulam
Class: Herbicide
Formula: C12H8F3N5O3S
Exact mass: 359.03
SMILES: COC1=NC=C(C2=NC(=NN21)S(=O)(=O)NC3=C(C=CC=C3F)F)F
InChI: InChI=1S/C12H8F3N5O3S/c1-23-12-16-5-8(15)10-17-11(18-20(10)12)24(21,22)19-9-6(13)3-2-4-7(9)14/h2-5,19H,1H3
Instrument: TripleTOF 6600 SCIEX
Instrument type: LC-ESI-QTOF
Ms type: MS2
Ion mode: POSITIVE
Collision energy: 100
Fragmentation mode: CID
Ionization: ESI
Column name: Zorbax Eclipse Plus C18 2.1 mm x 150 mm, 3.5 um, Agilent
Retention time: 9.723 min
Precursor m/z: 360.0373
Precursor type: [M+H]+
m/z	relative intensity
38.012	16
51.0024	33
51.0204	21
52.0157	54
53.0109	10
56.0031	13
57.0114	33
58.0055	16
59.9967	36
61.0043	158
62.0126	487
63.0075	10
63.0201	508
65.0235	25
70.0055	37
75.0011	78
76.0151	43
77.0096	24
81.0107	900
82.0067	10
82.0185	999
83.0149	12
83.0255	31
84.01	28
85.0298	18
87.0076	12
88.0148	113
89.0232	384
90.0309	10
96.0206	16
97.016	22
100.0159	15
101.0165	337
102.0246	219
108.0212	140
109.0295	778
111.0197	10
128.0285	30
129.0356	597
