Mass spectrum: Crystal Violet Cation; LC-ESI-QTOF; MS2; 90 V
Name: Crystal Violet Cation
Formula: [C25H30N3]+
Exact mass: 372.2434
SMILES: CN(C)C1=CC=C(C=C1)C(=C2C=CC(=[N+](C)C)C=C2)C3=CC=C(C=C3)N(C)C
InChI: InChI=1S/C25H30N3/c1-26(2)22-13-7-19(8-14-22)25(20-9-15-23(16-10-20)27(3)4)21-11-17-24(18-12-21)28(5)6/h7-18H,1-6H3/q+1
Instrument: TripleTOF 6600 SCIEX
Instrument type: LC-ESI-QTOF
Ms type: MS2
Ion mode: POSITIVE
Collision energy: 90
Fragmentation mode: CID
Ionization: ESI
Column name: Zorbax Eclipse Plus C18 2.1 mm x 150 mm, 3.5 um, Agilent
Retention time: 11.587 min
Precursor m/z: 372.2434
Precursor type: [M]+
m/z	relative intensity
118.0618	79
165.0671	310
190.0642	59
191.0711	157
192.0783	358
207.1012	98
208.1099	215
215.0828	139
219.0898	247
220.0973	107
226.0773	82
228.093	98
235.1212	571
239.0836	523
240.0906	271
241.0982	369
242.099	89
253.0917	63
254.0931	107
255.1034	69
256.1099	50
266.0942	54
267.1032	141
268.1111	968
269.1184	128
281.1105	58
282.1187	92
283.1281	76
284.1412	330
295.119	280
296.1288	215
297.1373	215
311.1532	639
312.1623	111
324.1482	432
340.1796	999
