Mass spectrum: Resorcinol bis(diphenyl phosphate); LC-ESI-QTOF; MS2; 130 V
Name: Resorcinol bis(diphenyl phosphate)
Class: Industrial_process
Formula: C30H24O8P2
Exact mass: 574.0946
SMILES: C1=CC=C(C=C1)OP(=O)(OC2=CC=CC=C2)OC3=CC(=CC=C3)OP(=O)(OC4=CC=CC=C4)OC5=CC=CC=C5
InChI: InChI=1S/C30H24O8P2/c31-39(33-25-14-5-1-6-15-25,34-26-16-7-2-8-17-26)37-29-22-13-23-30(24-29)38-40(32,35-27-18-9-3-10-19-27)36-28-20-11-4-12-21-28/h1-24H
Instrument: TripleTOF 6600 SCIEX
Instrument type: LC-ESI-QTOF
Ms type: MS2
Ion mode: POSITIVE
Collision energy: 130
Fragmentation mode: CID
Ionization: ESI
Column name: Zorbax Eclipse Plus C18 2.1 mm x 150 mm, 3.5 um, Agilent
Retention time: 15.87 min
Precursor m/z: 575.1019
Precursor type: [M+H]+
m/z	relative intensity
39.0227	29
46.9682	26
50.0152	79
51.0229	372
62.0151	26
63.0228	63
65.0386	63
73.0072	16
74.0149	59
75.023	79
76.0302	36
77.0386	636
78.0453	33
87.0232	26
88.0316	29
89.0385	89
91.0545	46
92.0255	43
95.0486	19
98.0146	53
99.0231	66
100.0313	16
101.0376	33
102.0465	156
103.0545	26
105.0444	39
107.0053	23
110.0157	13
113.039	59
114.0465	83
115.0544	749
121.0213	36
122.0183	16
124.0348	16
125.0385	96
126.0468	149
127.054	183
128.0619	369
129.043	13
129.0693	23
130.0419	39
131.0492	89
133.0199	99
138.0465	39
138.9938	33
139.0226	19
139.0542	912
140.0627	99
141.0698	136
144.0128	19
145.0207	49
147.038	23
149.0161	36
149.0392	53
150.0467	586
151.0545	466
152.0626	999
153.0701	26
155.0489	76
155.0599	56
156.0573	59
157.0205	133
157.0653	23
159.0377	29
163.0553	39
164.0621	36
165.0699	69
167.0497	13
168.0577	532
169.0652	29
170.0275	16
173.0168	79
174.0483	26
175.0336	19
175.0566	16
176.0629	89
177.01	123
177.0695	39
178.0774	119
179.0604	56
183.0422	23
184.0523	113
185.0162	19
186.0244	53
187.033	29
187.0537	83
188.0625	73
189.0704	386
190.0787	19
191.0859	39
198.0493	16
199.0552	46
200.0623	233
201.0095	16
201.0704	149
202.0788	326
203.0253	23
203.0868	49
205.0057	53
205.0652	79
207.0361	43
211.0545	33
212.0635	19
213.071	389
214.0776	79
215.0266	26
215.0861	333
218.0733	66
222.0096	93
222.0479	23
223.0168	13
223.055	63
224.0629	512
225.0707	313
226.0783	479
227.0871	43
228.0948	29
229.0074	19
229.0656	46
231.0353	86
231.0807	56
232.0445	16
233.0508	29
239.0849	16
242.0728	123
249.0464	13
250.0769	19
258.069	16
260.0404	53
261.071	13
263.0883	39
274.0791	53
275.0865	23
276.0951	76
287.0866	53
289.103	46
298.0797	83
299.088	56
300.0953	169
301.1087	13
302.112	23
