Mass spectrum: Indoxacarb; LC-ESI-QTOF; MS2; 70 V
Name: Indoxacarb
Class: Insecticide
Formula: C22H17ClF3N3O7
Exact mass: 527.0707
SMILES: COC(=O)[C@]12Cc3cc(ccc3C1=NN(CO2)C(=O)N(c4ccc(cc4)OC(F)(F)F)C(=O)OC)Cl
InChI: InChI=1S/C22H17ClF3N3O7/c1-33-18(30)21-10-12-9-13(23)3-8-16(12)17(21)27-28(11-35-21)19(31)29(20(32)34-2)14-4-6-15(7-5-14)36-22(24,25)26/h3-9H,10-11H2,1-2H3/t21-/m0/s1
Instrument: TripleTOF 5600 SCIEX
Instrument type: LC-ESI-QTOF
Ms type: MS2
Ion mode: POSITIVE
Collision energy: 70
Fragmentation mode: CID
Ionization: ESI
Column name: Zorbax Eclipse Plus C18 2.1 mm x 150 mm, 3.5 um, Agilent
Retention time: 15.019 min
Precursor m/z: 528.078
Precursor type: [M+H]+
m/z	relative intensity
56.0206	84
59.019	22
77.0421	39
78.0376	15
81.0168	10
90.0359	17
104.0508	78
106.0302	48
113.0389	14
114.0358	21
115.0549	50
116.0624	28
123.0004	52
126.0376	50
127.0438	125
128.0624	62
132.0454	66
134.0251	325
135	11
136.008	11
137.016	26
140.0502	10
141.0575	20
142.0656	41
146.999	11
148.0076	28
149.0159	105
150.0115	596
152.0031	44
154.0422	23
155.0608	40
157.0282	17
161.0084	41
162.0122	592
163.0258	39
164.025	56
165.0338	17
167.0266	91
175.0165	83
176.021	52
177.0338	55
179.026	66
189.0216	102
190.0066	100
190.0449	55
195.0217	50
203.0196	999
204.0088	69
207.0221	24
215.0437	10
217.0162	28
218.0418	34
219.0319	28
