Mass spectrum: Lorazepam; LC-ESI-QTOF; MS2; 40 V
Name: Lorazepam
Class: Pharmaceutical
Formula: C15H10Cl2N2O2
Exact mass: 320.0119
SMILES: OC1N=C(c2ccccc2Cl)c3cc(Cl)ccc3NC1=O
InChI: InChI=1S/C15H10Cl2N2O2/c16-8-5-6-12-10(7-8)13(19-15(21)14(20)18-12)9-3-1-2-4-11(9)17/h1-7,15,21H,(H,18,20)
Instrument: TripleTOF 5600 SCIEX
Instrument type: LC-ESI-QTOF
Ms type: MS2
Ion mode: NEGATIVE
Collision energy: 40
Fragmentation mode: CID
Ionization: ESI
Column name: Zorbax Eclipse Plus C18 2.1 mm x 150 mm, 3.5 um, Agilent
Retention time: 9.538 min
Precursor m/z: 319.0047
Precursor type: [M-H]-
m/z	relative intensity
41.9996	176
102.0338	999
130.9659	176
144.9619	58
151.9907	293
157.9324	58
178.9941	176
219.0584	58
253.0225	58
255.0399	58
283.0287	235
