Mass spectrum: Telmisartan; LC-ESI-QTOF; MS2; 140 V
Name: Telmisartan
Class: Pharmaceutical
Formula: C33H30N4O2
Exact mass: 514.2369
SMILES: CCCc1nc2c(C)cc(cc2n1Cc3ccc(cc3)c4ccccc4C(O)=O)c5nc6ccccc6n5C
InChI: InChI=1S/C33H30N4O2/c1-4-9-30-35-31-21(2)18-24(32-34-27-12-7-8-13-28(27)36(32)3)19-29(31)37(30)20-22-14-16-23(17-15-22)25-10-5-6-11-26(25)33(38)39/h5-8,10-19H,4,9,20H2,1-3H3,(H,38,39)
Instrument: TripleTOF 5600 SCIEX
Instrument type: LC-ESI-QTOF
Ms type: MS2
Ion mode: NEGATIVE
Collision energy: 140
Fragmentation mode: CID
Ionization: ESI
Column name: Zorbax Eclipse Plus C18 2.1 mm x 150 mm, 3.5 um, Agilent
Retention time: 8.861 min
Precursor m/z: 513.2296
Precursor type: [M-H]-
m/z	relative intensity
205.0767	587
216.0606	58
217.0732	117
218.0715	352
230.0744	293
231.0595	58
231.0778	293
232.0857	293
243.0691	58
245.0774	117
256.071	176
257.0861	528
259.1013	999
269.0864	293
270.0939	587
271.0801	58
271.0969	999
272.1057	293
