Mass spectrum: Iminostilbene; LC-ESI-QTOF; MS2; 110 V
Name: Iminostilbene
Class: Pharmaceutical
Formula: C14H11N
Exact mass: 193.0891
SMILES: C1=CC=C2C(=C1)C=CC3=CC=CC=C3N2
InChI: InChI=1S/C14H11N/c1-3-7-13-11(5-1)9-10-12-6-2-4-8-14(12)15-13/h1-10,15H
Instrument: TripleTOF 6600 SCIEX
Instrument type: LC-ESI-QTOF
Ms type: MS2
Ion mode: POSITIVE
Collision energy: 110
Fragmentation mode: CID
Ionization: ESI
Column name: Zorbax Eclipse Plus C18 2.1 mm x 150 mm, 3.5 um, Agilent
Retention time: 13.175 min
Precursor m/z: 194.0964
Precursor type: [M+H]+
m/z	relative intensity
35.9963	34
37.0042	182
38.0118	140
39.0198	405
49.003	117
50.0109	667
51.0187	639
52.0132	15
52.026	43
59.9943	11
61.0019	240
62.0097	517
63.0175	999
64.0127	33
64.0245	26
65.0325	102
73.0006	61
74.0086	710
75.016	404
76.0117	29
76.0236	115
77.0313	127
78.0392	15
84.9994	113
86.0072	315
87.015	286
88.0107	45
88.0223	53
89.0306	411
96.9979	42
98.0064	377
99.0012	21
99.0136	130
100.0087	15
100.0214	29
101.0291	21
102.0367	35
108.9971	46
110.0051	121
111.0124	83
112.0084	15
113.0282	194
114.0232	36
114.0348	15
115.044	71
122.004	78
122.9991	13
123.0109	29
124.019	16
125.0266	24
126.0347	54
134.0034	13
137.026	124
138.022	15
138.033	33
139.0412	109
140.0369	58
149.0249	27
150.0324	122
151.0282	11
161.0239	106
162.0317	150
163.0396	326
164.0354	95
175.0254	12
188.0328	102
189.04	64
190.0471	32
