Mass spectrum: N-desmethyl-venlafaxine; LC-ESI-QTOF; MS2; 120 V
Name: N-desmethyl-venlafaxine
Class: Pharmaceutical; Metabolite
Formula: C16H25NO2
Exact mass: 263.1885
SMILES: CNCC(c1ccc(cc1)OC)C2(CCCCC2)O
InChI: InChI=1S/C16H25NO2/c1-17-12-15(16(18)10-4-3-5-11-16)13-6-8-14(19-2)9-7-13/h6-9,15,17-18H,3-5,10-12H2,1-2H3
Instrument: TripleTOF 5600 SCIEX
Instrument type: LC-ESI-QTOF
Ms type: MS2
Ion mode: POSITIVE
Collision energy: 120
Fragmentation mode: CID
Ionization: ESI
Column name: Zorbax Eclipse Plus C18 2.1 mm x 150 mm, 3.5 um, Agilent
Retention time: 6.444 min
Precursor m/z: 264.1958
Precursor type: [M+H]+
m/z	relative intensity
44.0578	999
53.0442	23
63.0423	29
65.042	331
75.0228	23
76.0341	52
77.0402	807
77.0791	34
78.0482	900
78.0755	29
79.0563	75
89.0404	151
91.0556	156
102.0456	75
103.0549	75
115.0535	331
116.0584	23
127.0536	29
128.0641	69
131.0502	29
