Mass spectrum: Crotamiton; LC-ESI-QTOF; MS2; 50 V
Name: Crotamiton
Formula: C13H17NO
Exact mass: 203.131
SMILES: CCN(C1=CC=CC=C1C)C(=O)C=CC
InChI: InChI=1S/C13H17NO/c1-4-8-13(15)14(5-2)12-10-7-6-9-11(12)3/h4,6-10H,5H2,1-3H3
Instrument: TripleTOF 6600 SCIEX
Instrument type: LC-ESI-QTOF
Ms type: MS2
Ion mode: POSITIVE
Collision energy: 50
Fragmentation mode: CID
Ionization: ESI
Column name: Zorbax Eclipse Plus C18 2.1 mm x 150 mm, 3.5 um, Agilent
Retention time: 11.073 min
Precursor m/z: 204.1383
Precursor type: [M+H]+
m/z	relative intensity
37.0071	40
38.015	39
39.0233	425
41.0389	639
65.0384	136
68.049	110
69.0337	767
77.0383	121
79.0537	64
89.0377	20
91.0541	551
93.0569	311
103.0533	14
104.0488	10
106.0652	999
107.0725	143
108.0799	79
115.0539	32
116.0494	24
117.0571	37
118.0644	50
119.0723	22
120.0795	27
121.0876	62
128.0475	18
130.0641	27
132.0428	22
132.0802	12
134.096	47
136.112	15
143.0716	26
146.059	13
