Mass spectrum: Roxithromycine; LC-ESI-QTOF; MS2; 140 V
Name: Roxithromycine
Class: Pharmaceutical
Formula: C41H76N2O15
Exact mass: 836.5246
SMILES: CC[C@H]1OC(=O)[C@H](C)[C@@H](OC2CC(C)(OC)C(O)C(C)O2)[C@H](C)[C@@H](OC3OC(C)CC(C3O)N(C)C)[C@](C)(O)C[C@@H](C)\C(=N/OCOCCOC)[C@H](C)[C@@H](O)[C@]1(C)O
InChI: InChI=1S/C41H76N2O15/c1-15-29-41(10,49)34(45)24(4)31(42-53-21-52-17-16-50-13)22(2)19-39(8,48)36(58-38-32(44)28(43(11)12)18-23(3)54-38)25(5)33(26(6)37(47)56-29)57-30-20-40(9,51-14)35(46)27(7)55-30/h22-30,32-36,38,44-46,48-49H,15-21H2,1-14H3/b42-31+/t22-,23?,24+,25+,26-,27?,28?,29-,30?,32?,33+,34-,35?,36-,38?,39-,40?,41-/m1/s1
Instrument: TripleTOF 5600 SCIEX
Instrument type: LC-ESI-QTOF
Ms type: MS2
Ion mode: POSITIVE
Collision energy: 140
Fragmentation mode: CID
Ionization: ESI
Column name: Zorbax Eclipse Plus C18 2.1 mm x 150 mm, 3.5 um, Agilent
Retention time: 8.911 min
Precursor m/z: 837.5318
Precursor type: [M+H]+
m/z	relative intensity
43.0248	43
45.0404	62
55.0596	207
57.0617	43
59.0534	62
70.0686	38
72.0836	603
73.0545	33
79.0585	28
81.073	38
83.0506	999
84.0816	120
84.0953	24
87.0448	91
87.0687	43
88.0768	120
98.0606	28
98.0959	419
100.0742	19
116.0683	86
116.0829	28
116.1051	101
158.1154	43
