Mass spectrum: Bosentan; LC-ESI-QTOF; MS2; 60 V
Name: Bosentan
Class: Pharmaceutical
Formula: C27H29N5O6S
Exact mass: 551.1839
SMILES: CC(C)(C)C1=CC=C(C=C1)S(=O)(=O)NC2=C(C(=NC(=N2)C3=NC=CC=N3)OCCO)OC4=CC=CC=C4OC
InChI: InChI=1S/C27H29N5O6S/c1-27(2,3)18-10-12-19(13-11-18)39(34,35)32-23-22(38-21-9-6-5-8-20(21)36-4)26(37-17-16-33)31-25(30-23)24-28-14-7-15-29-24/h5-15,33H,16-17H2,1-4H3,(H,30,31,32)
Instrument: TripleTOF 5600 SCIEX
Instrument type: LC-ESI-QTOF
Ms type: MS2
Ion mode: POSITIVE
Collision energy: 60
Fragmentation mode: CID
Ionization: ESI
Column name: Zorbax Eclipse Plus C18 2.1 mm x 150 mm, 3.5 um, Agilent
Retention time: 12.118 min
Precursor m/z: 552.1911
Precursor type: [M+H]+
m/z	relative intensity
77.0435	39
79.0335	10
80.0182	11
80.0412	38
91.0572	27
95.0513	37
97.0426	56
105.0705	34
106.0414	174
107.0246	14
107.0494	14
108.0573	40
109.0534	12
119.0597	12
120.045	32
121.0685	11
122.0595	74
123.0673	97
124.0515	71
132.0707	24
133.0521	19
133.1022	59
134.0609	27
135.0475	34
135.0668	22
144.0447	10
147.0639	119
148.067	13
149.0466	118
149.0702	18
150.0551	47
161.0691	10
161.1067	32
162.0535	13
175.0617	169
176.0578	29
177.0389	25
189.0671	24
190.071	17
197.0727	20
202.0728	958
203.0793	84
204.056	13
205.0605	16
220.0724	11
224.0932	23
237.0993	26
248.0902	14
252.0882	19
254.1038	11
255.1114	43
264.0897	41
276.0856	65
279.0753	24
280.0826	999
282.0988	11
283.1066	19
292.0855	17
293.0875	10
294.0984	84
310.093	16
311.0985	28
324.1091	19
