Mass spectrum: Diphenyl phosphate; LC-ESI-QTOF; MS2; 140 V
Name: Diphenyl phosphate
Class: Industrial_process
Formula: C12H11O4P
Exact mass: 250.0395
SMILES: C1=CC=C(C=C1)OP(=O)(O)OC2=CC=CC=C2
InChI: InChI=1S/C12H11O4P/c13-17(14,15-11-7-3-1-4-8-11)16-12-9-5-2-6-10-12/h1-10H,(H,13,14)
Instrument: TripleTOF 5600 SCIEX
Instrument type: LC-ESI-QTOF
Ms type: MS2
Ion mode: POSITIVE
Collision energy: 140
Fragmentation mode: CID
Ionization: ESI
Column name: Zorbax Eclipse Plus C18 2.1 mm x 150 mm, 3.5 um, Agilent
Retention time: 8.14 min
Precursor m/z: 251.0468
Precursor type: [M+H]+
m/z	relative intensity
49.0076	237
50.0153	999
51.0229	713
