Mass spectrum: N-Methyl-perfluorooctane-1-sulphonamide; LC-ESI-QTOF; MS2; 50 V
Name: N-Methyl-perfluorooctane-1-sulphonamide
Formula: C9H4F17NO2S
Exact mass: 512.9691
SMILES: CNS(=O)(=O)C(C(C(C(C(C(C(C(F)(F)F)(F)F)(F)F)(F)F)(F)F)(F)F)(F)F)(F)F
InChI: InChI=1S/C9H4F17NO2S/c1-27-30(28,29)9(25,26)7(20,21)5(16,17)3(12,13)2(10,11)4(14,15)6(18,19)8(22,23)24/h27H,1H3
Instrument: TripleTOF 6600 SCIEX
Instrument type: LC-ESI-QTOF
Ms type: MS2
Ion mode: NEGATIVE
Collision energy: 50
Fragmentation mode: CID
Ionization: ESI
Column name: Zorbax Eclipse Plus C18 2.1 mm x 150 mm, 3.5 um, Agilent
Retention time: 15.621 min
Precursor m/z: 511.9618
Precursor type: [M-H]-
m/z	relative intensity
63.9593	128
64.9677	445
82.9582	123
111.9844	222
118.9904	415
125.9937	19
168.9868	999
187.9904	29
218.9824	257
237.9858	44
254.9834	29
268.9825	59
387.9739	49
511.9533	178
