Mass spectrum: Mebendazole; LC-ESI-QTOF; MS2; 70 V
Name: Mebendazole
Class: Pharmaceutical
Formula: C16H13N3O3
Exact mass: 295.0957
SMILES: COC(=O)Nc1[nH]c2cc(ccc2n1)C(=O)c3ccccc3
InChI: InChI=1S/C16H13N3O3/c1-22-16(21)19-15-17-12-8-7-11(9-13(12)18-15)14(20)10-5-3-2-4-6-10/h2-9H,1H3,(H2,17,18,19,21)
Instrument: TripleTOF 5600 SCIEX
Instrument type: LC-ESI-QTOF
Ms type: MS2
Ion mode: POSITIVE
Collision energy: 70
Fragmentation mode: CID
Ionization: ESI
Column name: Zorbax Eclipse Plus C18 2.1 mm x 150 mm, 3.5 um, Agilent
Retention time: 8.672 min
Precursor m/z: 296.103
Precursor type: [M+H]+
m/z	relative intensity
77.0422	999
78.0372	11
103.0283	20
104.037	90
105.0353	197
130.039	94
131.0234	18
131.0467	78
132.0559	26
139.0532	21
140.0476	22
158.0343	21
159.0419	101
166.0652	31
167.0712	12
181.0762	11
186.0387	11
