Mass spectrum: 5-(3,4,5-Trimethoxybenzoyl)-2,4-pyrimidinediamine; LC-ESI-QTOF; MS2; 50 V
Name: 5-(3,4,5-Trimethoxybenzoyl)-2,4-pyrimidinediamine
Class: Pharmaceutical; Transformation_product; Transformation_product-Metabolite
Formula: C14H16N4O4
Exact mass: 304.1172
SMILES: COc1cc(cc(c1OC)OC)C(=O)c2cnc(nc2N)N
InChI: InChI=1S/C14H16N4O4/c1-20-9-4-7(5-10(21-2)12(9)22-3)11(19)8-6-17-14(16)18-13(8)15/h4-6H,1-3H3,(H4,15,16,17,18)
Instrument: TripleTOF 5600 SCIEX
Instrument type: LC-ESI-QTOF
Ms type: MS2
Ion mode: POSITIVE
Collision energy: 50
Fragmentation mode: CID
Ionization: ESI
Column name: Zorbax Eclipse Plus C18 2.1 mm x 150 mm, 3.5 um, Agilent
Retention time: 5.86 min
Precursor m/z: 305.1244
Precursor type: [M+H]+
m/z	relative intensity
68.0174	282
70.0318	62
77.0411	33
79.0565	9
80.0523	13
81.0348	22
83.0516	23
94.0401	22
95.0251	979
105.0343	14
105.0446	11
106.041	33
107.0587	68
109.0274	15
109.049	11
109.0592	11
110.0586	232
111.0654	72
118.0299	9
119.0603	11
120.0206	37
121.0292	26
122.0368	12
123.0448	19
124.0535	15
128.0484	13
131.0601	22
133.0277	33
134.0362	15
135.0509	47
137.0453	999
139.0737	12
143.058	18
145.075	20
146.0227	64
146.0585	13
147.0639	28
148.0742	51
149.0215	33
149.0737	19
151.0391	47
152.0458	28
154.0584	9
155.0609	15
156.0448	20
157.0778	15
158.0442	14
159.0562	29
160.0424	13
160.0726	23
161.0248	24
161.0798	34
163.0511	392
165.0181	73
167.0692	15
168.0529	15
170.0719	26
171.056	57
172.0609	45
173.0764	102
174.0613	15
175.0611	25
176.0676	116
177.0762	73
179.0328	50
183.0587	24
184.0403	13
184.0543	22
185.0425	11
185.0822	146
186.0586	12
187.0674	17
187.0978	97
188.0443	121
188.1029	17
189.0775	66
190.0848	12
191.0913	11
195.0645	33
196.051	15
198.0659	34
198.0895	15
199.0671	41
199.0974	66
200.069	132
201.0762	668
202.0485	34
203.0513	30
204.034	12
204.0628	42
205.0698	67
212.0447	23
213.0763	156
214.0163	18
214.0838	77
215.0551	15
215.0923	717
216.0298	33
216.0999	58
217.0703	124
218.0814	26
219.0776	19
219.0934	19
225.0771	41
226.0616	18
227.0573	18
227.092	28
228.0657	28
229.0707	284
230.078	17
231.0406	44
231.0849	17
232.0574	20
233.0528	39
241.0736	18
242.0509	11
242.0772	44
243.0876	303
244.0635	14
244.0951	161
245.0652	121
246.0747	344
247.0821	135
253.07	29
254.0816	34
257.0673	69
258.0458	14
259.0836	217
260.0908	22
261.0971	78
269.0679	42
271.083	369
272.0625	13
273.0585	90
275.0771	423
287.0766	11
289.0929	369
