Mass spectrum: Estrone; LC-ESI-QTOF; MS2; 80 V
Name: Estrone
Class: Pharmaceutical
Formula: C18H22O2
Exact mass: 270.162
SMILES: CC12CCC3C(C1CCC2=O)CCC4=C3C=CC(=C4)O
InChI: InChI=1S/C18H22O2/c1-18-9-8-14-13-5-3-12(19)10-11(13)2-4-15(14)16(18)6-7-17(18)20/h3,5,10,14-16,19H,2,4,6-9H2,1H3
Instrument: TripleTOF 5600 SCIEX
Instrument type: LC-ESI-QTOF
Ms type: MS2
Ion mode: POSITIVE
Collision energy: 80
Fragmentation mode: CID
Ionization: ESI
Column name: Zorbax Eclipse Plus C18 2.1 mm x 150 mm, 3.5 um, Agilent
Retention time: 11.224 min
Precursor m/z: 271.1693
Precursor type: [M+H]+
m/z	relative intensity
39.0231	24
41.0388	19
43.018	43
50.0151	12
51.023	59
53.0387	14
55.018	25
63.023	25
65.0387	113
66.0464	13
67.0541	36
71.0497	12
75.0228	12
77.0385	650
78.0461	26
79.0544	271
81.07	30
89.0386	97
90.0462	10
91.0542	356
93.0702	10
94.0417	49
101.0383	19
102.0466	51
103.0541	325
104.0621	13
105.0699	295
107.0493	211
114.0461	16
115.0541	999
116.062	307
117.0702	26
118.0411	21
126.0462	51
127.0542	377
128.0618	572
129.0698	115
131.0492	264
131.0831	11
132.0572	75
133.0649	87
139.0546	69
140.0611	14
141.07	161
144.057	376
145.0652	20
151.0542	71
152.0622	314
153.0698	171
154.0775	21
155.0591	14
155.0857	14
157.0652	166
158.0715	12
163.0543	17
164.0626	43
165.0702	279
166.0773	20
167.0857	15
168.0581	17
169.0652	33
170.0727	11
171.0813	10
176.0631	44
177.071	35
178.0781	94
179.086	26
181.0654	199
182.071	38
189.0694	18
194.0733	19
195.0804	10
