Mass spectrum: Malachite green cation; LC-ESI-QTOF; MS2; 90 V
Name: Malachite green cation
Class: Industrial_process; Pigment; Antimicrobial; Fungicide
Formula: [C23H25N2]+
Exact mass: 329.2012
SMILES: CN(C)C1=CC=C(C=C1)C(=C2C=CC(=[N+](C)C)C=C2)C3=CC=CC=C3
InChI: InChI=1S/C23H25N2/c1-24(2)21-14-10-19(11-15-21)23(18-8-6-5-7-9-18)20-12-16-22(17-13-20)25(3)4/h5-17H,1-4H3/q+1
Instrument: TripleTOF 5600 SCIEX
Instrument type: LC-ESI-QTOF
Ms type: MS2
Ion mode: POSITIVE
Collision energy: 90
Fragmentation mode: CID
Ionization: ESI
Column name: Zorbax Eclipse Plus C18 2.1 mm x 150 mm, 3.5 um, Agilent
Retention time: 9.29 min
Precursor m/z: 329.2012
Precursor type: [M]+
m/z	relative intensity
152.0623	74
163.0547	101
164.0613	297
165.07	742
189.0712	114
190.0644	67
191.0745	80
192.0822	242
193.0906	67
202.0767	94
208.112	74
213.0713	67
215.0847	249
219.0935	60
226.0767	229
227.0868	94
228.0916	134
237.071	54
238.0803	87
239.0853	999
240.0943	256
241.1014	351
253.0889	54
254.097	141
267.1092	60
268.1132	283
284.1415	54
