Mass spectrum: Amitrole; LC-ESI-QTOF; MS2; 20 V
Name: Amitrole
Class: Herbicide
Formula: C2H4N4
Exact mass: 84.0436
SMILES: C1=NNC(=N1)N
InChI: InChI=1S/C2H4N4/c3-2-4-1-5-6-2/h1H,(H3,3,4,5,6)
Instrument: TripleTOF 6600 SCIEX
Instrument type: LC-ESI-QTOF
Ms type: MS2
Ion mode: POSITIVE
Collision energy: 20
Fragmentation mode: CID
Ionization: ESI
Column name: Zorbax Eclipse Plus C18 2.1 mm x 150 mm, 3.5 um, Agilent
Retention time: 1.218 min
Precursor m/z: 85.0509
Precursor type: [M+H]+
m/z	relative intensity
43.029	127
57.0446	119
58.0396	51
85.051	999
