Mass spectrum: 2-Aminobenzimidazole; LC-ESI-QTOF; MS2; 110 V
Name: 2-Aminobenzimidazole
Class: Transformation_product; Fungicide
Formula: C7H7N3
Exact mass: 133.064
SMILES: C1=CC=C2C(=C1)NC(=N2)N
InChI: InChI=1S/C7H7N3/c8-7-9-5-3-1-2-4-6(5)10-7/h1-4H,(H3,8,9,10)
Instrument: TripleTOF 6600 SCIEX
Instrument type: LC-ESI-QTOF
Ms type: MS2
Ion mode: POSITIVE
Collision energy: 110
Fragmentation mode: CID
Ionization: ESI
Column name: Zorbax Eclipse Plus C18 2.1 mm x 150 mm, 3.5 um, Agilent
Retention time: 4.787 min
Precursor m/z: 134.0713
Precursor type: [M+H]+
m/z	relative intensity
35.9992	233
37.0073	999
38.0023	53
38.015	610
39.0229	474
40.018	21
42.0213	50
43.029	201
49.007	118
50.0148	204
51.0097	50
51.0226	50
52.0178	118
59.9993	28
61.0069	183
62.015	186
63.0233	114
73.0065	17
74.014	25
75.0108	14
