Mass spectrum: C-desmethyl-metoprolol; LC-ESI-QTOF; MS2; 120 V
Name: C-desmethyl-metoprolol
Formula: C14H23NO3
Exact mass: 253.1678
SMILES: CCNCC(COC1=CC=C(C=C1)CCOC)O
InChI: InChI=1S/C14H23NO3/c1-3-15-10-13(16)11-18-14-6-4-12(5-7-14)8-9-17-2/h4-7,13,15-16H,3,8-11H2,1-2H3
Instrument: TripleTOF 5600 SCIEX
Instrument type: LC-ESI-QTOF
Ms type: MS2
Ion mode: POSITIVE
Collision energy: 120
Fragmentation mode: CID
Ionization: ESI
Column name: Zorbax Eclipse Plus C18 2.1 mm x 150 mm, 3.5 um, Agilent
Retention time: 5.422 min
Precursor m/z: 254.1751
Precursor type: [M+H]+
m/z	relative intensity
37.0074	41
39.0231	158
41.0388	49
44.0501	83
45.0336	58
49.008	66
50.0156	316
51.0233	999
56.0493	33
58.0654	291
62.0148	41
63.0231	141
65.0385	249
70.065	33
74.0145	91
75.0241	66
76.0304	58
77.0385	774
78.0469	49
89.0395	108
91.0547	216
102.0459	49
115.0542	66
