Mass spectrum: 2`-Deoxyadenosine 5`-monophosphate; LC-ESI-QTOF; MS2; 130 V
Name: 2`-Deoxyadenosine 5`-monophosphate
Formula: C10H14N5O6P
Exact mass: 331.0682
SMILES: OC1C(COP(O)(O)=O)OC(N2C3=C(C(N)=NC=N3)N=C2)C1
InChI: InChI=1S/C10H14N5O6P/c11-9-8-10(13-3-12-9)15(4-14-8)7-1-5(16)6(21-7)2-20-22(17,18)19/h3-7,16H,1-2H2,(H2,11,12,13)(H2,17,18,19)
Instrument: TripleTOF 5600 SCIEX
Instrument type: LC-ESI-QTOF
Ms type: MS2
Ion mode: POSITIVE
Collision energy: 130
Fragmentation mode: CID
Ionization: ESI
Column name: Zorbax Eclipse Plus C18 2.1 mm x 150 mm, 3.5 um, Agilent
Retention time: 2.173 min
Precursor m/z: 332.0755
Precursor type: [M+H]+
m/z	relative intensity
38.0029	39
40.0188	95
43.0193	19
43.0291	39
50.0163	19
51.0234	95
53.0137	35
53.0394	736
55.0297	195
62.9629	111
65.0137	664
67.03	226
71.0125	15
77.0138	107
80.9736	103
81.0339	999
82.0392	43
92.0246	608
94.0403	39
98.9844	43
109.0526	43
119.0352	509
136.0621	19
