Mass spectrum: Bupropion; LC-ESI-QTOF; MS2; 50 V
Name: Bupropion
Class: Pharmaceutical
Formula: C13H18ClNO
Exact mass: 239.1077
SMILES: CC(C(=O)C1=CC(=CC=C1)Cl)NC(C)(C)C
InChI: InChI=1S/C13H18ClNO/c1-9(15-13(2,3)4)12(16)10-6-5-7-11(14)8-10/h5-9,15H,1-4H3
Instrument: TripleTOF 5600 SCIEX
Instrument type: LC-ESI-QTOF
Ms type: MS2
Ion mode: POSITIVE
Collision energy: 50
Fragmentation mode: CID
Ionization: ESI
Column name: Zorbax Eclipse Plus C18 2.1 mm x 150 mm, 3.5 um, Agilent
Retention time: 6.717 min
Precursor m/z: 240.115
Precursor type: [M+H]+
m/z	relative intensity
57.0746	50
77.0408	83
103.0545	249
104.0612	20
110.998	27
130.0651	999
131.0724	564
132.055	12
138.9921	11
139.0297	106
151.0177	38
166.0403	10
