Mass spectrum: Kresoxim-methyl; LC-ESI-QTOF; MS2; 140 V
Name: Kresoxim-methyl
Class: Fungicide
Formula: C18H19NO4
Exact mass: 313.1314
SMILES: CC1=CC=CC=C1OCC2=CC=CC=C2C(=NOC)C(=O)OC
InChI: InChI=1S/C18H19NO4/c1-13-8-4-7-11-16(13)23-12-14-9-5-6-10-15(14)17(19-22-3)18(20)21-2/h4-11H,12H2,1-3H3
Instrument: TripleTOF 6600 SCIEX
Instrument type: LC-ESI-QTOF
Ms type: MS2
Ion mode: POSITIVE
Collision energy: 140
Fragmentation mode: CID
Ionization: ESI
Column name: Zorbax Eclipse Plus C18 2.1 mm x 150 mm, 3.5 um, Agilent
Retention time: 13.809 min
Precursor m/z: 314.1387
Precursor type: [M+H]+
m/z	relative intensity
37.0074	96
38.0143	85
39.0227	375
50.0154	290
51.0224	676
59.9993	53
61.0069	171
62.0137	408
63.0222	784
64.0174	64
65.0383	85
74.0149	569
75.0211	300
76.0295	225
77.037	386
78.0458	53
85.0061	75
86.0142	182
87.0212	247
89.0369	515
91.0529	53
97.0061	42
98.0134	343
99.0216	161
100.0287	42
101.0366	64
102.045	182
110.014	150
111.0237	96
113.037	139
115.0533	150
122.0126	107
123.0237	42
124.0307	53
125.0381	118
126.0455	257
127.0533	85
128.0527	42
137.0403	107
139.0537	214
140.0502	64
149.0378	128
150.0449	999
151.0526	418
152.0604	214
161.0385	107
162.0456	96
163.0519	547
164.0516	107
164.066	75
165.0704	118
166.0635	53
174.0446	128
175.0533	85
176.0596	225
187.0445	53
189.0612	64
190.0709	53
