Mass spectrum: N,N`-diphenyl-p-phenylenediamine; LC-ESI-QTOF; MS2; 70 V
Name: N,N`-diphenyl-p-phenylenediamine
Class: Industrial_process
Formula: C18H16N2
Exact mass: 260.1313
SMILES: N(c1ccccc1)c2ccc(Nc3ccccc3)cc2
InChI: InChI=1S/C18H16N2/c1-3-7-15(8-4-1)19-17-11-13-18(14-12-17)20-16-9-5-2-6-10-16/h1-14,19-20H
Instrument: TripleTOF 5600 SCIEX
Instrument type: LC-ESI-QTOF
Ms type: MS2
Ion mode: POSITIVE
Collision energy: 70
Fragmentation mode: CID
Ionization: ESI
Column name: Zorbax Eclipse Plus C18 2.1 mm x 150 mm, 3.5 um, Agilent
Retention time: 14.544 min
Precursor m/z: 261.1386
Precursor type: [M+H]+
m/z	relative intensity
53.0436	44
65.0424	39
66.0499	57
77.0417	134
78.0437	43
79.043	22
80.0528	708
81.059	52
89.0392	12
90.0364	44
91.0439	79
92.0497	16
93.0581	71
101.0383	14
102.0442	10
103.0547	13
104.0508	12
105.0446	26
106.0517	18
106.0653	11
107.0611	999
114.0446	11
115.0535	68
116.0575	43
117.0567	64
118.0522	107
127.0534	79
128.0601	248
129.0665	207
130.0679	114
131.0685	17
139.0528	125
140.0529	132
141.0574	75
142.0633	24
143.0711	48
144.0773	16
154.0637	82
155.0677	80
156.0796	107
157.0858	35
165.0557	15
166.0638	321
167.0717	415
168.0761	212
169.0747	53
181.0747	101
182.082	198
183.0902	211
184.0978	129
193.0714	15
