Mass spectrum: 2-(4-Chlorophenyl)benzimidazole; LC-ESI-QTOF; MS2; 100 V
Name: 2-(4-Chlorophenyl)benzimidazole
Class: Pharmaceutical
Formula: C13H9ClN2
Exact mass: 228.0454
SMILES: C1=CC=C2C(=C1)NC(=N2)C3=CC=C(C=C3)Cl
InChI: InChI=1S/C13H9ClN2/c14-10-7-5-9(6-8-10)13-15-11-3-1-2-4-12(11)16-13/h1-8H,(H,15,16)
Instrument: TripleTOF 5600 SCIEX
Instrument type: LC-ESI-QTOF
Ms type: MS2
Ion mode: POSITIVE
Collision energy: 100
Fragmentation mode: CID
Ionization: ESI
Column name: Zorbax Eclipse Plus C18 2.1 mm x 150 mm, 3.5 um, Agilent
Retention time: 6.754 min
Precursor m/z: 229.0527
Precursor type: [M+H]+
m/z	relative intensity
52.0293	81
64.0376	107
65.0462	999
72.9895	14
73.015	14
74.0197	207
75.0294	179
76.0238	25
76.0361	16
77.0446	88
84.9892	18
86.0203	21
87.0259	35
88.0238	11
88.036	21
89.0425	329
90.0347	14
90.0489	11
91.0448	56
92.0529	21
98.017	14
99.0279	25
102.0423	14
104.0535	11
111.0012	21
111.0192	9
112.0263	11
113.0404	119
114.0355	25
114.0493	16
115.0538	32
116.0505	11
118.0532	11
126.0439	16
137.0387	70
138.0478	58
139.0533	196
140.0503	158
164.049	191
165.0541	49
166.066	32
167.0632	11
191.0577	42
192.0676	37
