Mass spectrum: Amantadine; LC-ESI-QTOF; MS2; 40 V
Name: Amantadine
Class: Pharmaceutical
Formula: C10H17N
Exact mass: 151.1361
SMILES: C1C2CC3CC1CC(C2)(C3)N
InChI: InChI=1S/C10H17N/c11-10-4-7-1-8(5-10)3-9(2-7)6-10/h7-9H,1-6,11H2
Instrument: TripleTOF 5600 SCIEX
Instrument type: LC-ESI-QTOF
Ms type: MS2
Ion mode: POSITIVE
Collision energy: 40
Fragmentation mode: CID
Ionization: ESI
Column name: Zorbax Eclipse Plus C18 2.1 mm x 150 mm, 3.5 um, Agilent
Retention time: 5.148 min
Precursor m/z: 152.1434
Precursor type: [M+H]+
m/z	relative intensity
39.0228	18
41.0382	29
50.0151	11
51.0228	42
53.0383	19
55.0543	45
65.0388	60
67.054	178
69.069	33
77.0387	629
78.0458	15
79.0541	635
81.0701	233
91.054	390
93.0699	520
94.0774	14
105.07	73
107.0855	304
133.102	16
135.1168	999
152.1443	33
