Mass spectrum: Reactive Orange; LC-ESI-QTOF; MS2; 50 V
Name: Reactive Orange
Formula: C20H19N3O11S3
Exact mass: 573.0182
SMILES: CC(=O)NC1=CC2=C(C(=C(C=C2C=C1)S(=O)(=O)O)N=NC3=CC=C(C=C3)S(=O)(=O)CCOS(=O)(=O)O)O
InChI: InChI=1S/C20H19N3O11S3/c1-12(24)21-15-3-2-13-10-18(36(28,29)30)19(20(25)17(13)11-15)23-22-14-4-6-16(7-5-14)35(26,27)9-8-34-37(31,32)33/h2-7,10-11,25H,8-9H2,1H3,(H,21,24)(H,28,29,30)(H,31,32,33)
Instrument: TripleTOF 6600 SCIEX
Instrument type: LC-ESI-QTOF
Ms type: MS2
Ion mode: POSITIVE
Collision energy: 50
Fragmentation mode: CID
Ionization: ESI
Column name: Zorbax Eclipse Plus C18 2.1 mm x 150 mm, 3.5 um, Agilent
Retention time: 5.751 min
Precursor m/z: 574.0255
Precursor type: [M+H]+
m/z	relative intensity
74.9888	31
80.0482	15
81.0324	73
92.0487	10
93.057	13
108.0438	999
136.0744	30
156.0108	41
159.053	44
170.0468	527
171.0544	100
211.051	12
212.0589	18
213.0647	57
214.0512	12
232.0796	11
233.0923	122
234.0783	20
248.0826	11
249.0841	23
260.0811	104
261.0889	508
262.0721	23
277.0934	11
302.0914	139
303.1004	326
304.1077	14
340.0729	15
343.0749	22
352.0751	22
358.0849	189
367.0637	20
368.0704	29
370.0867	64
386.0794	154
394.0859	16
400.0937	33
412.0959	57
434.05	14
438.0412	17
466.0315	28
476.0539	32
