Mass spectrum: 4-Carboxy-9-acridanone; LC-ESI-QTOF; MS2; 70 V
Name: 4-Carboxy-9-acridanone
Class: Pharmaceutical; Antimicrobial
Formula: C14H9NO3
Exact mass: 239.0582
SMILES: c1ccc2c(c1)c(=O)c3cccc(c3[nH]2)C(=O)O
InChI: InChI=1S/C14H9NO3/c16-13-8-4-1-2-7-11(8)15-12-9(13)5-3-6-10(12)14(17)18/h1-7H,(H,15,16)(H,17,18)
Instrument: TripleTOF 5600 SCIEX
Instrument type: LC-ESI-QTOF
Ms type: MS2
Ion mode: NEGATIVE
Collision energy: 70
Fragmentation mode: CID
Ionization: ESI
Column name: Zorbax Eclipse Plus C18 2.1 mm x 150 mm, 3.5 um, Agilent
Retention time: 8.816 min
Precursor m/z: 238.051
Precursor type: [M-H]-
m/z	relative intensity
65.9994	124
89.0253	62
90.0345	62
116.0527	41
140.05	145
144.0481	166
164.0513	478
165.0574	249
166.0668	83
168.0492	166
192.0455	541
193.0543	291
194.0633	999
