Mass spectrum: Prallethrin; LC-ESI-QTOF; MS2; 40 V
Name: Prallethrin
Class: Insecticide
Formula: C19H24O3
Exact mass: 300.1725
SMILES: CC1=C(C(=O)CC1OC(=O)C2C(C2(C)C)C=C(C)C)CC#C
InChI: InChI=1S/C19H24O3/c1-7-8-13-12(4)16(10-15(13)20)22-18(21)17-14(9-11(2)3)19(17,5)6/h1,9,14,16-17H,8,10H2,2-6H3
Instrument: TripleTOF 6600 SCIEX
Instrument type: LC-ESI-QTOF
Ms type: MS2
Ion mode: POSITIVE
Collision energy: 40
Fragmentation mode: CID
Ionization: ESI
Column name: Zorbax Eclipse Plus C18 2.1 mm x 150 mm, 3.5 um, Agilent
Retention time: 14.861 min
Precursor m/z: 301.1798
Precursor type: [M+H]+
m/z	relative intensity
41.0391	39
43.0182	19
43.0552	32
50.0152	14
51.0239	48
53.0391	10
55.0185	86
55.0548	39
57.0704	37
59.0497	30
65.0393	35
67.0551	98
69.0339	16
69.0704	91
77.0394	835
79.055	946
81.0705	443
83.0502	10
83.0865	16
85.0654	16
91.0546	88
93.0712	44
95.0508	34
95.0858	91
103.0552	558
105.0463	16
105.0707	999
107.0868	21
109.0657	41
109.1011	16
113.0595	17
115.0546	91
118.0418	17
119.0865	25
121.0649	37
121.1026	75
123.118	377
128.0611	12
129.071	17
131.0857	12
132.0574	10
133.0656	145
133.0995	10
141.071	14
142.08	17
143.0869	10
149.0965	16
151.113	25
156.0943	14
157.1023	14
