Mass spectrum: Azoxystrobin; LC-ESI-QTOF; MS2; 40 V
Name: Azoxystrobin
Class: Fungicide
Formula: C22H17N3O5
Exact mass: 403.1168
SMILES: COC=C(C1=CC=CC=C1OC2=NC=NC(=C2)OC3=CC=CC=C3C#N)C(=O)OC
InChI: InChI=1S/C22H17N3O5/c1-27-13-17(22(26)28-2)16-8-4-6-10-19(16)30-21-11-20(24-14-25-21)29-18-9-5-3-7-15(18)12-23/h3-11,13-14H,1-2H3
Instrument: TripleTOF 6600 SCIEX
Instrument type: LC-ESI-QTOF
Ms type: MS2
Ion mode: POSITIVE
Collision energy: 40
Fragmentation mode: CID
Ionization: ESI
Column name: Zorbax Eclipse Plus C18 2.1 mm x 150 mm, 3.5 um, Agilent
Retention time: 12.114 min
Precursor m/z: 404.1241
Precursor type: [M+H]+
m/z	relative intensity
129.0436	17
133.0506	10
134.0586	39
143.0585	21
145.0268	12
145.0506	12
156.0429	52
169.0385	18
171.0532	18
172.0379	72
183.054	95
199.0487	19
200.033	25
201.0414	43
201.0622	19
210.0413	45
210.0623	18
216.0646	46
272.0814	33
273.0659	17
273.0861	29
287.0805	19
300.0762	40
301.085	120
303.0756	11
315.0998	18
316.1066	58
328.0718	146
329.0805	999
344.1033	730
372.0983	550
