Mass spectrum: Benzyldimethyl(tetradecyl-carbamoylmethyl)ammonium; LC-ESI-QTOF; MS2; 40 V
Name: Benzyldimethyl(tetradecyl-carbamoylmethyl)ammonium
Class: Antimicrobial
Formula: C25H45N2O
Exact mass: 389.3526
InChI: InChI=1S/C25H44N2O/c1-4-5-6-7-8-9-10-11-12-13-14-18-21-26-25(28)23-27(2,3)22-24-19-16-15-17-20-24/h15-17,19-20H,4-14,18,21-23H2,1-3H3/p+1
Instrument: TripleTOF 5600 SCIEX
Instrument type: LC-ESI-QTOF
Ms type: CID
Ion mode: POSITIVE
Collision energy: 40
Ionization: ESI
Column name: Zorbax Eclipse Plus C18 2.1 mm x 150 mm, 3.5 um, Agilent
Retention time: 13.085 min
Precursor m/z: 389.3526
Precursor type: [M]+
m/z	relative intensity
58.07	58
91.0559	999
226.2529	288
297.2902	403
389.3535	266
