Mass spectrum: 3-Acetamidophenol; LC-ESI-QTOF; MS2; 60 V
Name: 3-Acetamidophenol
Class: Pharmaceutical
Formula: C8H9NO2
Exact mass: 151.0633
SMILES: CC(=O)Nc1cccc(O)c1
InChI: InChI=1S/C8H9NO2/c1-6(10)9-7-3-2-4-8(11)5-7/h2-5,11H,1H3,(H,9,10)
Instrument: TripleTOF 5600 SCIEX
Instrument type: LC-ESI-QTOF
Ms type: MS2
Ion mode: NEGATIVE
Collision energy: 60
Fragmentation mode: CID
Ionization: ESI
Column name: Zorbax Eclipse Plus C18 2.1 mm x 150 mm, 3.5 um, Agilent
Retention time: 5.683 min
Precursor m/z: 150.0561
Precursor type: [M-H]-
m/z	relative intensity
39.015	111
39.0279	111
40.0237	444
40.0328	222
41.0047	333
42.0023	999
42.0137	111
44.9999	444
45.0072	111
58.0324	111
65.0387	111
65.9986	444
66.0344	333
67.018	222
67.0241	111
92.0116	333
107.0346	111
