Mass spectrum: Metconazole; LC-ESI-QTOF; MS2; 150 V
Name: Metconazole
Class: Fungicide
Formula: C17H22ClN3O
Exact mass: 319.1451
SMILES: CC1(CCC(C1(CN2C=NC=N2)O)CC3=CC=C(C=C3)Cl)C
InChI: InChI=1S/C17H22ClN3O/c1-16(2)8-7-14(9-13-3-5-15(18)6-4-13)17(16,22)10-21-12-19-11-20-21/h3-6,11-12,14,22H,7-10H2,1-2H3
Instrument: TripleTOF 6600 SCIEX
Instrument type: LC-ESI-QTOF
Ms type: MS2
Ion mode: POSITIVE
Collision energy: 150
Fragmentation mode: CID
Ionization: ESI
Column name: Zorbax Eclipse Plus C18 2.1 mm x 150 mm, 3.5 um, Agilent
Retention time: 13.024 min
Precursor m/z: 320.1524
Precursor type: [M+H]+
m/z	relative intensity
35.9993	17
37.0074	72
38.0153	64
39.0232	185
41.0389	15
42.0213	120
43.0293	999
46.9678	50
48.9836	97
49.007	28
50.0148	105
51.023	103
59.9992	21
61.0071	150
62.0151	359
63.0229	661
64.0301	36
65.0379	42
70.0399	795
72.9837	307
74.0149	72
74.9993	15
75.0224	53
76.0304	20
77.0383	58
78.0455	12
87.0223	12
89.0382	456
90.0459	31
91.0538	12
96.9842	15
98.9991	59
102.0451	25
115.0536	83
125.0154	12
126.0459	18
127.054	14
128.0614	18
