Mass spectrum: 2-isopropyl-5,6-dimethyl-1H-benzimidazole; LC-ESI-QTOF; MS2; 60 V
Name: 2-isopropyl-5,6-dimethyl-1H-benzimidazole
Formula: C12H16N2
Exact mass: 188.1313
SMILES: CC1=CC2=C(C=C1C)N=C(N2)C(C)C
InChI: InChI=1S/C12H16N2/c1-7(2)12-13-10-5-8(3)9(4)6-11(10)14-12/h5-7H,1-4H3,(H,13,14)
Instrument: TripleTOF 6600 SCIEX
Instrument type: LC-ESI-QTOF
Ms type: MS2
Ion mode: POSITIVE
Collision energy: 60
Fragmentation mode: CID
Ionization: ESI
Column name: Zorbax Eclipse Plus C18 2.1 mm x 150 mm, 3.5 um, Agilent
Retention time: 6.482 min
Precursor m/z: 189.1386
Precursor type: [M+H]+
m/z	relative intensity
41.0382	11
51.0223	14
65.0373	18
77.038	340
78.0449	19
79.0525	25
80.0484	19
91.0534	242
92.0478	16
93.0686	193
103.0529	63
104.0484	73
105.0562	41
106.0634	12
117.0556	26
118.0631	40
119.0711	15
120.08	505
130.0636	29
131.0597	365
132.0671	99
144.0666	23
145.0746	108
146.0837	17
147.0901	46
157.0751	647
158.083	413
159.0892	21
171.0897	52
172.0979	23
173.1064	999
