Mass spectrum: Hydrocortisone; LC-ESI-QTOF; MS2; 70 V
Name: Hydrocortisone
Class: Pharmaceutical
Formula: C21H30O5
Exact mass: 362.2093
SMILES: C[C@]12CCC(=O)C=C1CC[C@H]3[C@@H]4CC[C@](O)(C(=O)CO)[C@@]4(C)C[C@H](O)[C@H]23
InChI: InChI=1S/C21H30O5/c1-19-7-5-13(23)9-12(19)3-4-14-15-6-8-21(26,17(25)11-22)20(15,2)10-16(24)18(14)19/h9,14-16,18,22,24,26H,3-8,10-11H2,1-2H3/t14-,15-,16-,18+,19-,20-,21-/m0/s1
Instrument: TripleTOF 5600 SCIEX
Instrument type: LC-ESI-QTOF
Ms type: MS2
Ion mode: POSITIVE
Collision energy: 70
Fragmentation mode: CID
Ionization: ESI
Column name: Zorbax Eclipse Plus C18 2.1 mm x 150 mm, 3.5 um, Agilent
Retention time: 8.323 min
Precursor m/z: 363.2166
Precursor type: [M+H]+
m/z	relative intensity
43.0264	63
43.0417	19
55.0239	23
65.0445	73
67.0583	122
69.0748	26
77.0417	570
77.0763	33
79.0564	391
81.036	16
81.0731	139
83.0512	89
91.0557	999
93.071	275
94.0406	16
95.0501	16
95.0856	79
97.0655	238
99.0453	19
102.0477	19
103.0543	152
104.0628	36
105.0703	670
105.0964	16
107.0487	63
107.0848	76
109.0648	146
115.0535	401
116.061	82
117.0688	288
119.0853	272
121.0644	700
121.101	23
123.0795	116
127.0527	139
128.0615	564
129.0695	461
130.0764	165
131.0499	26
131.0853	262
133.0655	49
133.0994	49
135.0792	26
141.0695	398
142.0773	252
143.0846	185
144.0577	29
144.0952	53
145.0635	39
145.0995	139
146.0722	23
146.1094	13
147.0804	56
147.1159	63
148.0871	49
151.053	19
152.0612	96
153.0691	205
154.0779	126
155.0843	255
156.0919	46
157.0665	39
157.101	102
158.0736	29
158.1098	13
159.0799	63
159.1168	36
161.094	19
163.1123	46
165.0694	325
166.0781	86
167.085	192
168.092	63
169.0638	23
169.1008	89
170.0738	26
171.0757	26
171.1157	56
172.0857	26
173.0954	29
174.1019	26
178.0758	112
179.0842	179
180.0923	39
181.0629	33
181.1012	96
182.1082	43
183.0803	43
183.1134	63
185.094	36
189.067	23
190.078	39
191.0854	63
192.0921	39
193.1012	82
194.1046	29
195.0821	26
195.1159	56
196.0869	19
196.1221	16
197.0967	46
197.131	29
202.0784	16
203.0847	36
204.0913	16
205.0994	49
206.1075	23
207.1172	29
209.127	16
211.1123	23
215.0876	33
218.1158	13
219.1217	16
221.1317	16
225.1631	19
226.1332	16
227.142	26
235.1492	13
239.144	16
253.1586	46
