Mass spectrum: Dimethachlor; LC-ESI-QTOF; MS2; 70 V
Name: Dimethachlor
Class: Herbicide
Formula: C13H18ClNO2
Exact mass: 255.1026
SMILES: CC1=C(C(=CC=C1)C)N(CCOC)C(=O)CCl
InChI: InChI=1S/C13H18ClNO2/c1-10-5-4-6-11(2)13(10)15(7-8-17-3)12(16)9-14/h4-6H,7-9H2,1-3H3
Instrument: TripleTOF 6600 SCIEX
Instrument type: LC-ESI-QTOF
Ms type: MS2
Ion mode: POSITIVE
Collision energy: 70
Fragmentation mode: CID
Ionization: ESI
Column name: Zorbax Eclipse Plus C18 2.1 mm x 150 mm, 3.5 um, Agilent
Retention time: 10.992 min
Precursor m/z: 256.1099
Precursor type: [M+H]+
m/z	relative intensity
39.0233	12
46.9686	23
48.9843	233
49.0068	11
50.0153	37
51.0234	168
65.0389	48
77.039	999
78.0469	20
79.0547	402
89.0381	33
90.0462	52
91.0542	233
93.0697	17
102.0465	20
103.0542	235
104.0608	15
105.0452	36
105.0701	217
106.065	50
107.0728	34
115.0543	50
116.0554	28
117.0573	446
118.0652	178
120.081	31
130.0652	167
131.0724	112
132.0427	9
132.0808	220
133.0875	25
134.0965	12
143.072	9
144.0803	23
146.0963	17
148.1127	18
