Mass spectrum: Metalaxyl; LC-ESI-QTOF; MS2; 130 V
Name: Metalaxyl
Class: Fungicide
Formula: C15H21NO4
Exact mass: 279.1471
SMILES: CC1=C(C(=CC=C1)C)N(C(C)C(=O)OC)C(=O)COC
InChI: InChI=1S/C15H21NO4/c1-10-7-6-8-11(2)14(10)16(13(17)9-19-4)12(3)15(18)20-5/h6-8,12H,9H2,1-5H3
Instrument: TripleTOF 6600 SCIEX
Instrument type: LC-ESI-QTOF
Ms type: MS2
Ion mode: POSITIVE
Collision energy: 130
Fragmentation mode: CID
Ionization: ESI
Column name: Zorbax Eclipse Plus C18 2.1 mm x 150 mm, 3.5 um, Agilent
Retention time: 10.17 min
Precursor m/z: 280.1543
Precursor type: [M+H]+
m/z	relative intensity
37.0077	74
38.0148	37
39.0232	214
45.0335	121
49.0072	74
50.0148	438
51.0227	886
52.0303	46
53.0389	65
61.008	56
62.0152	102
63.0226	308
65.0383	336
74.0147	65
75.0235	56
77.0386	999
78.0467	74
79.0526	56
80.0492	46
89.0381	756
90.0456	196
91.0542	289
102.0464	93
103.0538	102
104.0478	46
105.0446	56
115.0539	168
117.0558	196
128.0502	37
130.064	74
