Mass spectrum: Erlotinib; LC-ESI-QTOF; MS2; 90 V
Name: Erlotinib
Class: Pharmaceutical
Formula: C22H23N3O4
Exact mass: 393.1689
SMILES: COCCOC1=C(C=C2C(=C1)C(=NC=N2)NC3=CC=CC(=C3)C#C)OCCOC
InChI: InChI=1S/C22H23N3O4/c1-4-16-6-5-7-17(12-16)25-22-18-13-20(28-10-8-26-2)21(29-11-9-27-3)14-19(18)23-15-24-22/h1,5-7,12-15H,8-11H2,2-3H3,(H,23,24,25)
Instrument: TripleTOF 5600 SCIEX
Instrument type: LC-ESI-QTOF
Ms type: MS2
Ion mode: NEGATIVE
Collision energy: 90
Fragmentation mode: CID
Ionization: ESI
Column name: Zorbax Eclipse Plus C18 2.1 mm x 150 mm, 3.5 um, Agilent
Retention time: 7.429 min
Precursor m/z: 392.1616
Precursor type: [M-H]-
m/z	relative intensity
66.0055	66
133.0169	99
134.0257	166
141.0465	366
143.0225	66
144.0185	99
164.0518	99
165.044	299
167.0609	133
189.0475	399
190.0559	199
191.0614	532
192.0559	199
201.055	99
216.0554	865
218.0661	133
218.0778	133
219.0551	333
220.0528	133
227.0467	66
228.0555	199
229.063	166
230.071	133
244.0515	999
245.0547	333
246.0645	66
257.0641	199
258.0663	299
272.0404	66
272.0631	66
273.0552	166
274.0587	599
276.0739	66
