Mass spectrum: Mitomycin A; LC-ESI-QTOF; MS2; 120 V
Name: Mitomycin A
Class: Pharmaceutical
Formula: C16H19N3O6
Exact mass: 349.1274
SMILES: COC1=C(C)C(=O)C2=C([C@H](COC(N)=O)[C@]3(OC)[C@@H]4N[C@@H]4CN23)C1=O
InChI: InChI=1S/C16H19N3O6/c1-6-11(20)10-9(12(21)13(6)23-2)7(5-25-15(17)22)16(24-3)14-8(18-14)4-19(10)16/h7-8,14,18H,4-5H2,1-3H3,(H2,17,22)/t7-,8+,14+,16-/m0/s1
Instrument: TripleTOF 5600 SCIEX
Instrument type: LC-ESI-QTOF
Ms type: MS2
Ion mode: POSITIVE
Collision energy: 120
Fragmentation mode: CID
Ionization: ESI
Column name: Zorbax Eclipse Plus C18 2.1 mm x 150 mm, 3.5 um, Agilent
Retention time: 7.046 min
Precursor m/z: 350.1347
Precursor type: [M+H]+
m/z	relative intensity
63.0457	44
65.0423	151
66.0374	35
67.0488	53
74.0195	98
75.0253	142
76.0214	44
76.0328	133
77.041	999
77.0723	44
78.0357	231
78.047	80
79.0582	44
80.0513	71
87.0236	44
88.0322	71
89.0391	695
90.0344	62
90.048	169
91.0551	240
91.0685	62
92.0496	98
101.0385	133
102.033	71
102.0458	133
103.0412	53
103.0533	160
104.049	419
105.0464	44
113.0368	62
114.0429	187
115.0403	80
115.0542	472
116.0489	231
117.0557	321
118.0508	53
118.0649	98
126.0466	35
127.0542	124
128.0481	249
129.0445	80
129.0577	124
130.0466	44
130.0659	231
131.0595	133
140.0481	196
141.0545	231
142.0512	89
142.0638	115
143.0627	89
153.0501	53
154.0643	107
155.0604	579
156.0652	222
157.0751	98
166.0569	44
168.0663	160
169.0734	133
170.0611	44
181.076	80
