Mass spectrum: Disperse brown 1; LC-ESI-QTOF; MS2; 40 V
Name: Disperse brown 1
Formula: C16H15Cl3N4O4
Exact mass: 432.0159
SMILES: C1=CC(=C(C=C1N(CCO)CCO)Cl)N=NC2=C(C=C(C=C2Cl)[N+](=O)[O-])Cl
InChI: InChI=1S/C16H15Cl3N4O4/c17-12-7-10(22(3-5-24)4-6-25)1-2-15(12)20-21-16-13(18)8-11(23(26)27)9-14(16)19/h1-2,7-9,24-25H,3-6H2
Instrument: TripleTOF 6600 SCIEX
Instrument type: LC-ESI-QTOF
Ms type: MS2
Ion mode: POSITIVE
Collision energy: 40
Fragmentation mode: CID
Ionization: ESI
Column name: Zorbax Eclipse Plus C18 2.1 mm x 150 mm, 3.5 um, Agilent
Retention time: 12.39 min
Precursor m/z: 433.0232
Precursor type: [M+H]+
m/z	relative intensity
70.0657	18
98.9841	13
109.9785	10
114.0544	131
131.0597	20
140.0283	13
141.0228	10
143.9529	17
145.0754	30
149.0692	27
152.0281	11
153.0213	287
157.0759	15
158.0346	15
161.0712	17
163.087	100
166.0396	119
167.0378	18
170.0381	59
175.0873	40
179.0397	28
183.031	32
184.0523	98
185.0461	255
189.9467	88
193.0972	54
197.0486	726
217.9499	76
228.068	153
310.9791	18
311.9917	15
324.9925	54
340.9771	11
343.0118	25
349.0357	17
356.0194	18
356.9727	811
357.9798	97
358.9872	139
367.0364	91
369.0222	34
370.9875	158
371.9975	39
387.0315	561
388.9981	52
402.0059	599
415.0244	71
433.0255	999
