Mass spectrum: Estradiol; LC-ESI-QTOF; MS2; 80 V
Name: Estradiol
Class: Pharmaceutical
Formula: C18H24O2
Exact mass: 272.1776
SMILES: CC12CCC3C(C1CCC2O)CCC4=C3C=CC(=C4)O
InChI: InChI=1S/C18H24O2/c1-18-9-8-14-13-5-3-12(19)10-11(13)2-4-15(14)16(18)6-7-17(18)20/h3,5,10,14-17,19-20H,2,4,6-9H2,1H3
Instrument: TripleTOF 5600 SCIEX
Instrument type: LC-ESI-QTOF
Ms type: MS2
Ion mode: POSITIVE
Collision energy: 80
Fragmentation mode: CID
Ionization: ESI
Column name: Zorbax Eclipse Plus C18 2.1 mm x 150 mm, 3.5 um, Agilent
Retention time: 10.403 min
Precursor m/z: 273.1849
Precursor type: [M+H]+
m/z	relative intensity
39.0227	16
41.0381	17
50.0148	14
51.0225	82
53.0391	11
55.0172	36
55.0542	29
65.0384	48
67.0542	75
77.0387	999
78.0451	19
79.0542	223
81.0331	10
81.0699	45
89.038	12
91.0543	168
93.07	30
95.0851	17
103.0542	50
105.0699	52
107.0494	548
115.0543	123
116.0613	33
117.0701	11
127.0548	32
128.0616	44
129.0669	15
131.0498	32
141.0691	10
144.0571	23
157.0662	11
