Mass spectrum: Anagrelide; LC-ESI-QTOF; MS2; 70 V
Name: Anagrelide
Class: Pharmaceutical
Formula: C10H7Cl2N3O
Exact mass: 254.9966
SMILES: c1cc(c(c2c1NC3=NC(=O)CN3C2)Cl)Cl
InChI: InChI=1S/C10H7Cl2N3O/c11-6-1-2-7-5(9(6)12)3-15-4-8(16)14-10(15)13-7/h1-2H,3-4H2,(H,13,14,16)
Instrument: TripleTOF 5600 SCIEX
Instrument type: LC-ESI-QTOF
Ms type: MS2
Ion mode: POSITIVE
Collision energy: 70
Fragmentation mode: CID
Ionization: ESI
Column name: Zorbax Eclipse Plus C18 2.1 mm x 150 mm, 3.5 um, Agilent
Retention time: 7.666 min
Precursor m/z: 256.0039
Precursor type: [M+H]+
m/z	relative intensity
61.983	63
73.0102	26
74.0172	127
75.0252	116
76.0199	30
84.9861	26
89.0386	30
99.0105	90
100.0187	999
100.0482	33
101.0254	18
102.0348	319
108.9841	446
109.9911	30
110.9999	67
111.9935	15
112.0047	30
122.9987	37
127.0282	60
128.0371	33
129.0438	251
130.0389	30
135.9943	619
136.0383	18
137.0017	709
138.0101	37
144.9605	552
151.0172	56
156.9577	15
158.9627	18
163.0063	78
164.0003	262
171.9704	379
172.9661	90
196.9666	18
198.9828	176
