Mass spectrum: Rhein; LC-ESI-QTOF; MS2; 130 V
Name: Rhein
Class: Metabolite
Formula: C15H8O6
Exact mass: 284.0321
SMILES: C1=CC2=C(C(=C1)O)C(=O)C3=C(C=C(C=C3C2=O)C(=O)O)O
InChI: InChI=1S/C15H8O6/c16-9-3-1-2-7-11(9)14(19)12-8(13(7)18)4-6(15(20)21)5-10(12)17/h1-5,16-17H,(H,20,21)
Instrument: TripleTOF 5600 SCIEX
Instrument type: LC-ESI-QTOF
Ms type: MS2
Ion mode: POSITIVE
Collision energy: 130
Fragmentation mode: CID
Ionization: ESI
Column name: Zorbax Eclipse Plus C18 2.1 mm x 150 mm, 3.5 um, Agilent
Retention time: 10.796 min
Precursor m/z: 285.0394
Precursor type: [M+H]+
m/z	relative intensity
39.0231	291
50.0156	333
51.0226	582
61.0076	333
62.015	499
63.023	707
65.0379	166
74.0141	999
75.0223	749
77.0385	499
86.0154	582
87.0237	416
98.0163	249
102.0464	208
126.0469	249
