Mass spectrum: Amlodipine; LC-ESI-QTOF; MS2; 90 V
Name: Amlodipine
Class: Pharmaceutical
Formula: C20H25ClN2O5
Exact mass: 408.1452
SMILES: CCOC(=O)C1=C(COCCN)NC(=C(C1c2ccccc2Cl)C(=O)OC)C
InChI: InChI=1S/C20H25ClN2O5/c1-4-28-20(25)18-15(11-27-10-9-22)23-12(2)16(19(24)26-3)17(18)13-7-5-6-8-14(13)21/h5-8,17,23H,4,9-11,22H2,1-3H3
Instrument: TripleTOF 5600 SCIEX
Instrument type: LC-ESI-QTOF
Ms type: MS2
Ion mode: POSITIVE
Collision energy: 90
Fragmentation mode: CID
Ionization: ESI
Column name: Zorbax Eclipse Plus C18 2.1 mm x 150 mm, 3.5 um, Agilent
Retention time: 8.432 min
Precursor m/z: 409.1525
Precursor type: [M+H]+
m/z	relative intensity
42.0431	70
44.0578	149
65.0431	62
67.0219	35
70.0335	10
72.0516	27
74.0213	29
74.0627	21
75.0264	157
77.0416	146
78.0457	13
80.0524	16
88.034	16
89.0406	59
91.0535	24
92.0516	125
93.0364	13
93.0571	16
93.0679	16
94.0662	29
96.0465	16
99.0014	19
100.0385	13
101.0399	479
101.0652	19
102.0473	645
103.0546	13
104.051	21
105.0329	16
108.0472	13
111.0001	76
113.0382	48
114.0463	182
115.0546	710
116.0487	38
116.062	111
117.0571	13
120.0447	176
122.0608	27
122.0741	16
125.0152	76
125.0392	27
126.0452	87
127.0546	261
128.0618	506
129.0435	103
129.057	29
129.0688	46
130.0773	29
132.043	13
136.0404	32
137.0157	405
138.0115	19
138.0486	35
138.9952	87
139.0551	193
140.0292	48
140.0505	171
141.0693	198
142.0434	51
142.0649	266
143.0734	340
144.0602	16
148.0392	215
149.0162	999
149.0605	13
150.0508	40
151.0555	166
152.0621	454
153.0703	255
154.066	225
155.0259	27
155.0501	27
155.0705	13
156.0454	24
156.0821	84
157.0516	16
157.088	24
161.0167	38
162.0232	35
163.0297	21
163.0541	13
164.0278	43
164.0601	24
165.0098	54
165.0695	38
166.0654	138
167.0733	302
168.0581	29
168.0817	231
169.0656	24
169.0886	48
170.0593	40
173.0153	62
175.0321	38
176.0341	68
177.0326	21
177.0566	35
178.0431	70
178.0663	155
179.0732	119
180.0583	24
180.0804	394
181.0646	54
181.0889	87
182.0607	51
183.0688	32
184.0773	21
186.0243	10
187.0324	19
188.028	16
189.0106	27
190.0441	27
192.0814	10
193.0542	10
193.0905	24
194.0596	43
194.0963	24
195.068	70
195.0927	10
195.104	16
196.0771	215
197.0833	59
198.0958	38
201.0337	24
202.0422	40
203.0507	24
204.058	81
206.0609	43
207.0655	13
207.0796	10
208.0746	46
209.0842	35
210.0912	16
212.0701	19
214.0421	54
215.0266	19
215.0509	16
216.0229	13
217.0344	13
220.0819	13
222.0868	21
224.0698	51
225.0788	57
230.0367	54
231.063	21
232.0529	62
239.0966	16
242.0382	10
244.0538	13
256.0188	19
260.0479	16
