Mass spectrum: N-(1,3-Dimethylbutyl)-N`-phenyl-p-phenylenediamine; LC-ESI-QTOF; MS2; 70 V
Name: N-(1,3-Dimethylbutyl)-N`-phenyl-p-phenylenediamine
Class: Industrial_process
Formula: C18H24N2
Exact mass: 268.1939
SMILES: CC(C)CC(C)NC1=CC=C(C=C1)NC2=CC=CC=C2
InChI: InChI=1S/C18H24N2/c1-14(2)13-15(3)19-17-9-11-18(12-10-17)20-16-7-5-4-6-8-16/h4-12,14-15,19-20H,13H2,1-3H3
Instrument: TripleTOF 6600 SCIEX
Instrument type: LC-ESI-QTOF
Ms type: MS2
Ion mode: POSITIVE
Collision energy: 70
Fragmentation mode: CID
Ionization: ESI
Column name: Zorbax Eclipse Plus C18 2.1 mm x 150 mm, 3.5 um, Agilent
Retention time: 9.189 min
Precursor m/z: 269.2012
Precursor type: [M+H]+
m/z	relative intensity
39.0221	12
41.0378	13
43.0533	11
51.022	10
53.0378	60
63.0219	25
65.0378	46
66.0457	67
77.0377	38
78.0329	13
79.0408	18
80.0491	738
81.0561	48
90.0329	26
91.0405	37
92.0484	34
93.0566	174
105.0435	21
106.051	20
107.06	999
108.067	41
115.0531	35
117.0556	21
118.0519	79
127.0527	13
128.0595	18
129.0683	28
130.0639	43
139.0533	73
140.0496	49
143.0724	27
154.0646	15
155.0665	14
156.08	67
166.0644	248
167.0723	237
168.0743	54
169.0767	27
181.0759	35
182.0833	93
183.0911	133
184.0985	113
