Mass spectrum: 3-Desmethyl-trimethoprim; LC-ESI-QTOF; MS2; 70 V
Name: 3-Desmethyl-trimethoprim
Class: Pharmaceutical; Transformation_product; Transformation_product-Metabolite
Formula: C13H16N4O3
Exact mass: 276.1222
SMILES: OC1=CC(CC2=CN=C(N=C2N)N)=CC(OC)=C1OC
InChI: InChI=1S/C13H16N4O3/c1-19-10-5-7(4-9(18)11(10)20-2)3-8-6-16-13(15)17-12(8)14/h4-6,18H,3H2,1-2H3,(H4,14,15,16,17)
Instrument: TripleTOF 5600 SCIEX
Instrument type: LC-ESI-QTOF
Ms type: MS2
Ion mode: POSITIVE
Collision energy: 70
Fragmentation mode: CID
Ionization: ESI
Column name: Zorbax Eclipse Plus C18 2.1 mm x 150 mm, 3.5 um, Agilent
Retention time: 5.021 min
Precursor m/z: 277.1295
Precursor type: [M+H]+
m/z	relative intensity
41.0386	21
43.0414	88
52.0287	32
53.0153	10
54.0432	166
65.0447	84
66.0524	12
67.0344	12
67.0598	41
68.0297	12
68.0438	121
69.0493	30
75.0275	17
77.044	268
78.0396	41
78.0514	28
79.0349	103
79.0587	25
80.0516	43
81.0495	999
82.0567	28
83.0519	75
89.0417	64
90.0386	23
91.0582	75
92.0531	77
93.0402	47
94.0559	69
94.0666	99
95.0509	10
95.0608	17
96.0569	62
97.0663	21
101.0421	64
102.0374	90
103.0309	23
103.0545	69
104.0516	252
105.0429	125
106.0431	185
106.066	28
107.0558	101
108.0575	38
109.0519	88
110.0346	10
110.0595	166
111.0462	12
111.0685	34
114.0369	34
115.0437	30
116.0504	168
117.0534	95
118.0436	28
118.0655	131
119.0618	192
120.055	129
121.0296	34
121.0755	105
122.0626	38
123.0486	60
123.0674	717
124.0755	131
126.0344	19
127.0415	12
128.0505	257
129.0466	153
130.04	54
130.0656	25
131.0602	192
132.046	108
132.0616	43
133.0678	99
134.0642	58
135.0674	62
140.0549	15
141.0456	43
142.0359	15
142.053	43
143.0406	15
143.0614	138
144.0499	155
145.0761	192
146.0706	255
147.067	445
148.0395	30
148.0744	544
149.0229	73
149.0788	164
150.0565	12
151.0401	58
153.0452	71
154.0409	12
155.0574	32
156.0485	149
157.0414	47
157.0623	19
158.0713	64
159.0639	95
160.0449	43
160.0791	69
161.0823	196
162.0564	21
162.088	23
163.0984	58
164.0337	15
167.0477	15
168.0541	23
169.0429	15
169.0623	10
170.0715	203
171.0588	67
172.0425	67
172.0758	77
173.062	15
173.0824	125
174.0661	77
174.0917	12
175.0592	54
175.098	56
176.0726	41
177.0696	23
183.068	12
184.0462	10
184.0765	32
185.0804	77
186.0671	45
186.0895	17
187.0504	17
187.0673	12
187.0986	272
189.0683	43
189.0859	17
191.0937	32
197.0832	41
198.0686	10
198.0893	10
199.0529	17
200.0731	30
201.0744	41
202.058	17
203.0899	38
213.0788	41
214.0753	15
215.0644	12
215.0895	36
217.1069	17
219.0889	105
229.0717	54
230.0791	12
231.0895	51
233.0996	10
245.0639	10
259.0869	23
261.0964	28
