Mass spectrum: Flecainide meta-O-dealkylated; LC-ESI-QTOF; MS2; 50 V
Name: Flecainide meta-O-dealkylated
Class: Pharmaceutical; Transformation_product; Transformation_product-Metabolite
Formula: C15H19F3N2O3
Exact mass: 332.1348
SMILES: C1CCNC(C1)CNC(=O)C2=C(C=CC(=C2)O)OCC(F)(F)F
InChI: InChI=1S/C15H19F3N2O3/c16-15(17,18)9-23-13-5-4-11(21)7-12(13)14(22)20-8-10-3-1-2-6-19-10/h4-5,7,10,19,21H,1-3,6,8-9H2,(H,20,22)
Instrument: TripleTOF 5600 SCIEX
Instrument type: LC-ESI-QTOF
Ms type: MS2
Ion mode: POSITIVE
Collision energy: 50
Fragmentation mode: CID
Ionization: ESI
Column name: Zorbax Eclipse Plus C18 2.1 mm x 150 mm, 3.5 um, Agilent
Retention time: 5.586 min
Precursor m/z: 333.1421
Precursor type: [M+H]+
m/z	relative intensity
44.0615	12
79.0578	47
80.0292	25
81.0734	84
82.068	57
84.083	29
97.0892	15
98.0974	127
99.0245	25
108.0201	75
125.038	12
127.0178	227
133.027	10
136.0138	405
137.0218	31
143.0282	95
149.0198	10
155.0118	273
164.0322	10
171.0222	205
172.0314	27
199.0163	138
205.0414	15
216.098	69
219.0218	999
232.0926	19
233.1001	46
316.1102	70
