Mass spectrum: Mesosulfuron-methyl; LC-ESI-QTOF; MS2; 130 V
Name: Mesosulfuron-methyl
Class: Herbicide
Formula: C17H21N5O9S2
Exact mass: 503.0781
SMILES: COC(=O)c1ccc(CN[S](C)(=O)=O)cc1[S](=O)(=O)NC(=O)Nc2nc(OC)cc(OC)n2
InChI: InChI=1S/C17H21N5O9S2/c1-29-13-8-14(30-2)20-16(19-13)21-17(24)22-33(27,28)12-7-10(9-18-32(4,25)26)5-6-11(12)15(23)31-3/h5-8,18H,9H2,1-4H3,(H2,19,20,21,22,24)
Instrument: TripleTOF 5600 SCIEX
Instrument type: LC-ESI-QTOF
Ms type: MS2
Ion mode: POSITIVE
Collision energy: 130
Fragmentation mode: CID
Ionization: ESI
Column name: Zorbax Eclipse Plus C18 2.1 mm x 150 mm, 3.5 um, Agilent
Retention time: 10.025 min
Precursor m/z: 504.0853
Precursor type: [M+H]+
m/z	relative intensity
51.0279	29
56.0176	35
57.051	23
65.0175	65
65.0422	29
68.0165	65
69.0002	94
69.0118	82
71.0633	53
77.0405	242
81.0484	35
82.0317	41
83.0264	999
83.0573	23
90.0366	82
92.0271	106
93.0093	443
100.0383	41
104.0492	88
109.0405	35
110.0364	23
118.0292	159
119.0358	35
138.0282	41
139.0497	177
140.0455	53
166.0245	29
