Mass spectrum: Doxycycline; LC-ESI-QTOF; MS2; 110 V
Name: Doxycycline
Class: Antimicrobial; Pharmaceutical
Formula: C22H24N2O8
Exact mass: 444.1533
SMILES: CC1C2C(C3C(C(=O)C(=C(C3(C(=O)C2=C(C4=C1C=CC=C4O)O)O)O)C(=O)N)N(C)C)O
InChI: InChI=1S/C22H24N2O8/c1-7-8-5-4-6-9(25)11(8)16(26)12-10(7)17(27)14-15(24(2)3)18(28)13(21(23)31)20(30)22(14,32)19(12)29/h4-7,10,14-15,17,25-27,30,32H,1-3H3,(H2,23,31)
Instrument: TripleTOF 5600 SCIEX
Instrument type: LC-ESI-QTOF
Ms type: MS2
Ion mode: POSITIVE
Collision energy: 110
Fragmentation mode: CID
Ionization: ESI
Column name: Zorbax Eclipse Plus C18 2.1 mm x 150 mm, 3.5 um, Agilent
Retention time: 6.499 min
Precursor m/z: 445.1605
Precursor type: [M+H]+
m/z	relative intensity
58.0738	79
69.005	79
70.0717	95
77.0427	237
89.0416	95
91.0586	317
98.0638	111
101.0421	95
103.0577	63
114.0505	63
115.057	951
116.0674	79
117.0737	79
126.0481	111
127.0562	983
128.063	555
129.0716	126
131.0505	142
139.0555	840
140.0651	412
141.0731	253
144.0555	206
145.0694	158
150.0508	79
151.0545	380
152.0626	888
153.0731	301
154.0811	79
155.0498	126
163.0514	206
164.0619	269
165.0713	999
168.0574	856
169.0701	126
176.062	333
177.0693	158
178.0771	253
180.0575	111
181.0644	222
182.0735	79
189.0728	317
192.0623	63
193.0699	126
194.0695	63
196.0545	222
197.0619	190
198.0693	79
205.0641	79
210.0712	63
221.0543	142
226.0611	111
