Mass spectrum: Clopidogrel; LC-ESI-QTOF; MS2; 80 V
Name: Clopidogrel
Class: Pharmaceutical
Formula: C16H16ClNO2S
Exact mass: 321.059
SMILES: COC(=O)C(c1ccccc1Cl)N2CCc3c(ccs3)C2
InChI: InChI=1S/C16H16ClNO2S/c1-20-16(19)15(12-4-2-3-5-13(12)17)18-8-6-14-11(10-18)7-9-21-14/h2-5,7,9,15H,6,8,10H2,1H3
Instrument: TripleTOF 5600 SCIEX
Instrument type: LC-ESI-QTOF
Ms type: MS2
Ion mode: POSITIVE
Collision energy: 80
Fragmentation mode: CID
Ionization: ESI
Column name: Zorbax Eclipse Plus C18 2.1 mm x 150 mm, 3.5 um, Agilent
Retention time: 12.465 min
Precursor m/z: 322.0663
Precursor type: [M+H]+
m/z	relative intensity
45.0407	41
51.0299	63
65.0427	139
74.0181	12
75.0252	35
77.042	642
89.0402	190
90.0471	60
91.0562	676
92.0621	15
99.0003	96
105.0337	302
110.9991	180
112.0068	99
117.0562	23
125.0156	999
125.0549	11
133.0285	121
138.9947	597
140.002	68
148.0511	16
155.0258	465
