Mass spectrum: Cyprodinil; LC-ESI-QTOF; MS2; 110 V
Name: Cyprodinil
Class: Fungicide
Formula: C14H15N3
Exact mass: 225.1266
SMILES: CC1=CC(=NC(=N1)NC2=CC=CC=C2)C3CC3
InChI: InChI=1S/C14H15N3/c1-10-9-13(11-7-8-11)17-14(15-10)16-12-5-3-2-4-6-12/h2-6,9,11H,7-8H2,1H3,(H,15,16,17)
Instrument: TripleTOF 6600 SCIEX
Instrument type: LC-ESI-QTOF
Ms type: MS2
Ion mode: POSITIVE
Collision energy: 110
Fragmentation mode: CID
Ionization: ESI
Column name: Zorbax Eclipse Plus C18 2.1 mm x 150 mm, 3.5 um, Agilent
Retention time: 10.83 min
Precursor m/z: 226.1339
Precursor type: [M+H]+
m/z	relative intensity
35.9992	20
37.0072	124
38.0147	113
39.0231	445
40.0173	16
40.0308	13
41.0258	32
41.0382	32
42.0337	119
47.9989	9
49.0069	136
50.015	724
51.0229	999
52.0175	57
52.0312	16
53.0382	53
54.0334	41
61.007	46
62.0146	89
63.0226	212
64.0173	27
64.0296	32
65.0253	18
65.0383	272
66.0337	20
66.0459	78
67.0288	36
67.0411	43
73.0071	13
74.0142	83
75.0096	16
75.0226	55
76.018	25
76.0306	23
77.038	184
78.0332	43
78.0458	11
80.0487	53
86.0132	16
87.0222	20
88.0301	18
89.0387	55
90.033	13
91.0412	25
91.0539	18
92.049	57
93.0565	29
98.0154	11
102.0335	11
104.0484	16
106.064	11
113.0373	20
114.0331	9
115.0525	11
137.0379	11
139.0541	20
140.0493	13
150.0452	13
152.0529	13
164.0481	25
