Mass spectrum: Flunixin; LC-ESI-QTOF; MS2; 50 V
Name: Flunixin
Class: Pharmaceutical
Formula: C14H11F3N2O2
Exact mass: 296.0773
SMILES: CC1=C(C=CC=C1NC2=C(C=CC=N2)C(=O)O)C(F)(F)F
InChI: InChI=1S/C14H11F3N2O2/c1-8-10(14(15,16)17)5-2-6-11(8)19-12-9(13(20)21)4-3-7-18-12/h2-7H,1H3,(H,18,19)(H,20,21)
Instrument: TripleTOF 5600 SCIEX
Instrument type: LC-ESI-QTOF
Ms type: MS2
Ion mode: POSITIVE
Collision energy: 50
Fragmentation mode: CID
Ionization: ESI
Column name: Zorbax Eclipse Plus C18 2.1 mm x 150 mm, 3.5 um, Agilent
Retention time: 11.023 min
Precursor m/z: 297.0845
Precursor type: [M+H]+
m/z	relative intensity
78.0386	15
109.0469	170
119.0308	29
139.0371	21
140.051	16
147.0369	11
159.0426	93
164.0488	10
167.0613	19
180.0694	11
181.0765	103
182.0839	40
184.0563	118
186.0599	26
191.061	38
192.0695	19
195.0545	16
209.0701	86
210.0767	179
211.0664	103
212.0489	14
214.0485	11
216.0503	31
217.0578	22
219.0555	18
230.0648	13
231.0728	51
234.0519	22
235.0484	23
236.0556	329
237.041	28
239.0613	124
241.0564	44
244.0443	11
249.0634	24
250.0715	10
251.079	11
257.0508	11
258.0603	20
259.0678	216
261.0614	11
263.0425	32
264.0494	999
277.0593	33
278.0656	14
279.0736	451
