Mass spectrum: Inabenfide; LC-ESI-QTOF; MS2; 40 V
Name: Inabenfide
Formula: C19H15ClN2O2
Exact mass: 338.0822
SMILES: C1=CC=C(C=C1)C(C2=C(C=CC(=C2)Cl)NC(=O)C3=CC=NC=C3)O
InChI: InChI=1S/C19H15ClN2O2/c20-15-6-7-17(22-19(24)14-8-10-21-11-9-14)16(12-15)18(23)13-4-2-1-3-5-13/h1-12,18,23H,(H,22,24)
Instrument: TripleTOF 6600 SCIEX
Instrument type: LC-ESI-QTOF
Ms type: MS2
Ion mode: POSITIVE
Collision energy: 40
Fragmentation mode: CID
Ionization: ESI
Column name: Zorbax Eclipse Plus C18 2.1 mm x 150 mm, 3.5 um, Agilent
Retention time: 10.231 min
Precursor m/z: 339.0895
Precursor type: [M+H]+
m/z	relative intensity
79.0408	160
80.0487	509
108.0431	13
165.0678	12
166.0042	11
167.0719	16
168.0795	14
169.0879	50
179.0711	17
180.0709	11
181.0751	21
207.0667	34
214.0412	153
215.0368	69
216.044	21
230.0955	12
231.1031	10
241.0886	20
242.0365	13
243.0314	20
243.1027	33
244.039	127
253.0638	10
256.0982	13
257.1068	53
258.1157	64
264.0558	13
266.0727	25
268.0989	10
276.0573	21
277.0625	12
278.0724	32
279.0799	23
285.1015	31
286.1091	61
291.0671	26
292.0754	48
293.0832	72
303.0671	16
320.0713	13
321.0796	999
