Mass spectrum: Benalaxyl; LC-ESI-QTOF; MS2; 110 V
Name: Benalaxyl
Class: Fungicide
Formula: C20H23NO3
Exact mass: 325.1678
SMILES: CC1=C(C(=CC=C1)C)N(C(C)C(=O)OC)C(=O)CC2=CC=CC=C2
InChI: InChI=1S/C20H23NO3/c1-14-9-8-10-15(2)19(14)21(16(3)20(23)24-4)18(22)13-17-11-6-5-7-12-17/h5-12,16H,13H2,1-4H3
Instrument: TripleTOF 6600 SCIEX
Instrument type: LC-ESI-QTOF
Ms type: MS2
Ion mode: POSITIVE
Collision energy: 110
Fragmentation mode: CID
Ionization: ESI
Column name: Zorbax Eclipse Plus C18 2.1 mm x 150 mm, 3.5 um, Agilent
Retention time: 13.881 min
Precursor m/z: 326.1751
Precursor type: [M+H]+
m/z	relative intensity
37.0068	48
38.0148	49
39.0226	376
41.0386	84
50.0146	44
51.0224	194
53.038	12
61.0064	20
62.0146	39
63.0223	116
65.0382	999
77.0379	835
78.0315	16
78.0452	69
79.0536	233
80.0482	28
89.0367	35
90.0461	12
91.0537	961
93.0562	13
93.0678	16
102.0457	19
103.0525	136
104.0482	18
105.0442	22
105.0688	31
106.0643	336
115.0526	32
117.056	67
118.0641	55
120.0797	184
130.065	12
132.08	40
152.0618	13
180.0789	10
