Mass spectrum: Ritonavir; LC-ESI-QTOF; MS2; 50 V
Name: Ritonavir
Class: Pharmaceutical
Formula: C37H48N6O5S2
Exact mass: 720.3128
SMILES: CC(C)C1=NC(=CS1)CN(C)C(=O)NC(C(C)C)C(=O)NC(CC2=CC=CC=C2)CC(C(CC3=CC=CC=C3)NC(=O)OCC4=CN=CS4)O
InChI: InChI=1S/C37H48N6O5S2/c1-24(2)33(42-36(46)43(5)20-29-22-49-35(40-29)25(3)4)34(45)39-28(16-26-12-8-6-9-13-26)18-32(44)31(17-27-14-10-7-11-15-27)41-37(47)48-21-30-19-38-23-50-30/h6-15,19,22-25,28,31-33,44H,16-18,20-21H2,1-5H3,(H,39,45)(H,41,47)(H,42,46)
Instrument: TripleTOF 6600 SCIEX
Instrument type: LC-ESI-QTOF
Ms type: MS2
Ion mode: POSITIVE
Collision energy: 50
Fragmentation mode: CID
Ionization: ESI
Column name: Zorbax Eclipse Plus C18 2.1 mm x 150 mm, 3.5 um, Agilent
Retention time: 12.676 min
Precursor m/z: 721.3201
Precursor type: [M+H]+
m/z	relative intensity
98.0043	64
120.0789	17
140.0508	396
169.0754	26
171.093	559
184.0715	23
197.0724	999
237.0465	14
250.1577	110
266.1544	29
268.0922	14
268.1463	824
296.14	81
311.1764	20
347.1544	69
365.164	52
382.1927	34
408.1735	29
426.1802	58
489.2292	14
