Mass spectrum: Diethylamino hydroxybenzoyl hexyl benzoate; LC-ESI-QTOF; MS2; 120 V
Name: Diethylamino hydroxybenzoyl hexyl benzoate
Formula: C24H31NO4
Exact mass: 397.2253
SMILES: CCCCCCOC(=O)C1=CC=CC=C1C(=O)C2=C(C=C(C=C2)N(CC)CC)O
InChI: InChI=1S/C24H31NO4/c1-4-7-8-11-16-29-24(28)20-13-10-9-12-19(20)23(27)21-15-14-18(17-22(21)26)25(5-2)6-3/h9-10,12-15,17,26H,4-8,11,16H2,1-3H3
Instrument: TripleTOF 6600 SCIEX
Instrument type: LC-ESI-QTOF
Ms type: MS2
Ion mode: POSITIVE
Collision energy: 120
Fragmentation mode: CID
Ionization: ESI
Column name: Zorbax Eclipse Plus C18 2.1 mm x 150 mm, 3.5 um, Agilent
Retention time: 17.769 min
Precursor m/z: 398.2326
Precursor type: [M+H]+
m/z	relative intensity
39.0232	102
41.0385	33
43.0542	13
51.0227	21
53.0383	19
63.0226	25
65.0386	241
68.0128	14
75.0224	15
76.0305	14
77.0382	147
78.0336	10
80.0491	117
87.0223	14
89.0379	89
91.0527	16
93.0335	21
101.0377	20
102.0461	34
105.0334	20
108.044	10
113.0379	77
114.0455	28
115.0537	246
119.0126	14
120.0436	10
121.0281	12
125.0369	23
126.0455	73
127.0539	154
128.0609	145
137.0377	29
138.0456	86
139.0541	999
140.0546	90
141.0691	49
149.0379	14
150.0452	73
151.0536	120
152.061	177
153.0593	37
154.0644	71
155.0533	25
163.0528	12
164.0543	32
165.0691	48
166.0411	17
166.064	49
167.0487	29
167.0713	48
168.0566	136
176.0608	20
177.0569	25
178.0631	13
182.0603	12
183.0439	10
184.0514	32
191.0729	13
194.0365	22
194.0566	24
195.0654	46
196.0491	17
197.0589	25
210.0293	13
223.0617	11
