Mass spectrum: 10,11-Dihydro-10,11-epoxycarbamazepine; LC-ESI-QTOF; MS2; 60 V
Name: 10,11-Dihydro-10,11-epoxycarbamazepine
Class: Metabolite
Formula: C15H12N2O2
Exact mass: 252.0899
SMILES: C1=CC=C2C(=C1)C3C(O3)C4=CC=CC=C4N2C(=O)N
InChI: InChI=1S/C15H12N2O2/c16-15(18)17-11-7-3-1-5-9(11)13-14(19-13)10-6-2-4-8-12(10)17/h1-8,13-14H,(H2,16,18)
Instrument: TripleTOF 5600 SCIEX
Instrument type: LC-ESI-QTOF
Ms type: MS2
Ion mode: POSITIVE
Collision energy: 60
Fragmentation mode: CID
Ionization: ESI
Column name: Zorbax Eclipse Plus C18 2.1 mm x 150 mm, 3.5 um, Agilent
Retention time: 7.593 min
Precursor m/z: 253.0972
Precursor type: [M+H]+
m/z	relative intensity
77.0383	11
127.0545	14
128.0496	27
139.0536	15
140.0573	16
151.0542	53
152.062	198
153.069	38
154.065	13
165.0698	30
166.0649	48
167.0731	203
177.0556	13
178.0653	103
179.0727	208
180.0805	999
182.0957	15
191.0716	12
192.0793	18
193.0875	14
