Mass spectrum: Tris(4-methylphenyl) phosphate; LC-ESI-QTOF; MS2; 90 V
Name: Tris(4-methylphenyl) phosphate
Class: Industrial_process
Formula: C21H21O4P
Exact mass: 368.1177
SMILES: CC1=CC=C(C=C1)OP(=O)(OC2=CC=C(C=C2)C)OC3=CC=C(C=C3)C
InChI: InChI=1S/C21H21O4P/c1-16-4-10-19(11-5-16)23-26(22,24-20-12-6-17(2)7-13-20)25-21-14-8-18(3)9-15-21/h4-15H,1-3H3
Instrument: TripleTOF 6600 SCIEX
Instrument type: LC-ESI-QTOF
Ms type: MS2
Ion mode: POSITIVE
Collision energy: 90
Fragmentation mode: CID
Ionization: ESI
Column name: Zorbax Eclipse Plus C18 2.1 mm x 150 mm, 3.5 um, Agilent
Retention time: 15.924 min
Precursor m/z: 369.125
Precursor type: [M+H]+
m/z	relative intensity
39.0222	70
41.0377	11
51.0221	15
62.0142	12
63.022	28
65.0381	364
77.0377	77
79.0533	12
89.0377	17
91.0537	148
107.0482	18
115.0537	69
128.0614	13
139.0541	55
141.0691	13
151.0545	16
152.062	72
153.0695	13
163.0546	59
164.0624	168
165.0709	999
166.0783	13
176.063	16
177.0705	15
178.0781	49
181.0656	33
194.0726	19
195.0813	90
226.0793	14
239.0867	72
252.0956	14
