Mass spectrum: Triphenylphosphine sulfide; LC-ESI-QTOF; MS2; 80 V
Name: Triphenylphosphine sulfide
Class: Industrial_process
Formula: C18H15PS
Exact mass: 294.0632
SMILES: S=[P](c1ccccc1)(c2ccccc2)c3ccccc3
InChI: InChI=1S/C18H15PS/c20-19(16-10-4-1-5-11-16,17-12-6-2-7-13-17)18-14-8-3-9-15-18/h1-15H
Instrument: TripleTOF 5600 SCIEX
Instrument type: LC-ESI-QTOF
Ms type: MS2
Ion mode: POSITIVE
Collision energy: 80
Fragmentation mode: CID
Ionization: ESI
Column name: Zorbax Eclipse Plus C18 2.1 mm x 150 mm, 3.5 um, Agilent
Retention time: 14.508 min
Precursor m/z: 295.0705
Precursor type: [M+H]+
m/z	relative intensity
51.0296	74
62.9499	930
63.0019	14
77.0416	212
79.9828	14
80.9926	31
89.0401	17
95.0069	14
107.005	671
108.0122	71
115.0542	177
126.045	22
133.0206	43
138.047	11
138.9767	410
139.0554	123
141.0691	20
151.0557	37
152.062	648
153.0733	14
157.0206	289
170.028	28
181.0193	71
182.029	20
183.0364	999
184.035	20
