Mass spectrum: N-acetyl-sitagliptin; LC-ESI-QTOF; MS2; 140 V
Name: N-acetyl-sitagliptin
Class: Metabolite; Pharmaceutical
Formula: C18H17F6N5O2
Exact mass: 449.1286
SMILES: CC(=O)NC(CC1=CC(=C(C=C1F)F)F)CC(=O)N2CCN3C(=NN=C3C(F)(F)F)C2
InChI: InChI=1S/C18H17F6N5O2/c1-9(30)25-11(4-10-5-13(20)14(21)7-12(10)19)6-16(31)28-2-3-29-15(8-28)26-27-17(29)18(22,23)24/h5,7,11H,2-4,6,8H2,1H3,(H,25,30)
Instrument: TripleTOF 5600 SCIEX
Instrument type: LC-ESI-QTOF
Ms type: MS2
Ion mode: NEGATIVE
Collision energy: 140
Fragmentation mode: CID
Ionization: ESI
Column name: Zorbax Eclipse Plus C18 2.1 mm x 150 mm, 3.5 um, Agilent
Retention time: 8.852 min
Precursor m/z: 448.1214
Precursor type: [M-H]-
m/z	relative intensity
41.0158	166
42.0006	249
52.0207	333
58.0309	83
64.0077	124
68.9959	999
85.0088	208
105.0126	166
109.0114	83
110.0126	83
111.0057	124
111.0226	124
112.0165	83
121.0166	249
125.0208	41
131.0303	416
133.0039	41
149.0202	416
151.0376	249
152.0254	83
