Mass spectrum: 2-N-methyl-lamotrigine; LC-ESI-QTOF; MS2; 50 V
Name: 2-N-methyl-lamotrigine
Class: Metabolite; Pharmaceutical
Formula: C10H9Cl2N5
Exact mass: 269.0235
SMILES: CN1N=C(C2=CC=CC(Cl)=C2Cl)C(N)=NC1=N
InChI: InChI=1S/C10H9Cl2N5/c1-17-10(14)15-9(13)8(16-17)5-3-2-4-6(11)7(5)12/h2-4H,1H3,(H3,13,14,15)
Instrument: TripleTOF 5600 SCIEX
Instrument type: LC-ESI-QTOF
Ms type: MS2
Ion mode: POSITIVE
Collision energy: 50
Fragmentation mode: CID
Ionization: ESI
Column name: Zorbax Eclipse Plus C18 2.1 mm x 150 mm, 3.5 um, Agilent
Retention time: 6.444 min
Precursor m/z: 270.0308
Precursor type: [M+H]+
m/z	relative intensity
43.0374	34
57.0509	999
72.0582	49
82.0414	14
100.0176	12
108.9837	28
114.0344	54
122.9996	54
123.9957	19
130.0651	33
131.0607	10
132.9605	36
135.9945	60
137.003	15
138.0111	22
144.9608	95
149.0017	18
150.01	49
158.9781	17
159.9714	92
164.0021	38
164.0244	18
165.0209	76
166.0283	81
170.9641	55
171.9714	347
172.9683	46
173.9867	20
183.973	17
184.9795	357
185.9742	109
191.0253	32
192.0326	20
196.9683	13
198.9821	21
200.9984	265
234.0548	57
243.0193	25
270.032	382
