Mass spectrum: Terfenadine; LC-ESI-QTOF; MS2; 110 V
Name: Terfenadine
Class: Pharmaceutical
Formula: C32H41NO2
Exact mass: 471.3137
SMILES: CC(C)(C)C1=CC=C(C=C1)C(CCCN2CCC(CC2)C(C3=CC=CC=C3)(C4=CC=CC=C4)O)O
InChI: InChI=1S/C32H41NO2/c1-31(2,3)26-18-16-25(17-19-26)30(34)15-10-22-33-23-20-29(21-24-33)32(35,27-11-6-4-7-12-27)28-13-8-5-9-14-28/h4-9,11-14,16-19,29-30,34-35H,10,15,20-24H2,1-3H3
Instrument: TripleTOF 6600 SCIEX
Instrument type: LC-ESI-QTOF
Ms type: MS2
Ion mode: POSITIVE
Collision energy: 110
Fragmentation mode: CID
Ionization: ESI
Column name: Zorbax Eclipse Plus C18 2.1 mm x 150 mm, 3.5 um, Agilent
Retention time: 10.223 min
Precursor m/z: 472.321
Precursor type: [M+H]+
m/z	relative intensity
39.0216	154
41.0368	185
55.0519	61
57.068	154
65.0367	195
68.0471	102
70.0641	41
77.0363	216
79.0514	82
80.0469	61
82.0628	82
91.0518	999
96.0789	82
98.0939	102
103.0518	92
105.0678	92
115.0519	525
116.0591	51
117.0669	453
118.0757	92
127.0507	154
128.0593	597
129.067	267
131.0829	82
141.067	92
142.0763	51
143.0805	72
152.059	133
155.0564	41
165.0666	123
178.0735	92
189.0661	92
191.0825	82
202.0751	205
203.0822	185
215.0833	102
217.0983	92
