Mass spectrum: 2-(4-Chlorophenyl)benzimidazole; LC-ESI-QTOF; MS2; 130 V
Name: 2-(4-Chlorophenyl)benzimidazole
Class: Pharmaceutical
Formula: C13H9ClN2
Exact mass: 228.0454
SMILES: C1=CC=C2C(=C1)NC(=N2)C3=CC=C(C=C3)Cl
InChI: InChI=1S/C13H9ClN2/c14-10-7-5-9(6-8-10)13-15-11-3-1-2-4-12(11)16-13/h1-8H,(H,15,16)
Instrument: TripleTOF 5600 SCIEX
Instrument type: LC-ESI-QTOF
Ms type: MS2
Ion mode: POSITIVE
Collision energy: 130
Fragmentation mode: CID
Ionization: ESI
Column name: Zorbax Eclipse Plus C18 2.1 mm x 150 mm, 3.5 um, Agilent
Retention time: 6.754 min
Precursor m/z: 229.0527
Precursor type: [M+H]+
m/z	relative intensity
51.0209	41
52.0291	302
64.0355	193
65.0457	747
73.0131	184
74.0206	999
75.0284	302
76.0234	83
77.0428	50
84.9881	58
85.0091	41
86.018	125
87.0274	134
88.032	41
89.0425	209
91.0437	50
98.0201	58
110.0138	33
113.0397	83
114.0461	41
137.038	117
138.0473	41
139.0547	92
164.0479	50
