Mass spectrum: 1-Cyclohexyl-3-(2-methylphenyl)urea; LC-ESI-QTOF; MS2; 130 V
Name: 1-Cyclohexyl-3-(2-methylphenyl)urea
Formula: C14H20N2O
Exact mass: 232.1576
SMILES: O=C(NC1CCCCC1)Nc2ccccc2C
InChI: InChI=1S/C14H20N2O/c1-11-7-5-6-10-13(11)16-14(17)15-12-8-3-2-4-9-12/h5-7,10,12H,2-4,8-9H2,1H3,(H2,15,16,17)
Instrument: TripleTOF 6600 SCIEX
Instrument type: LC-ESI-QTOF
Ms type: MS2
Ion mode: POSITIVE
Collision energy: 130
Fragmentation mode: CID
Ionization: ESI
Column name: Zorbax Eclipse Plus C18 2.1 mm x 150 mm, 3.5 um, Agilent
Retention time: 11.026 min
Precursor m/z: 233.1649
Precursor type: [M+H]+
m/z	relative intensity
35.999	39
37.007	264
38.0144	266
39.0227	999
40.0295	16
41.025	12
41.0377	29
42.0327	18
44.0124	20
49.0061	35
50.0144	206
51.022	200
52.017	52
53.0373	18
54.0325	41
61.0065	43
62.014	60
63.0215	62
65.0375	329
66.0332	31
66.045	85
67.0396	18
74.0125	12
77.037	39
78.0321	18
92.0478	56
93.0561	27
