Mass spectrum: 4-Hydroxy-1-(2-hydroxyethyl)-2,2,6,6-tetramethylpiperidine; LC-ESI-QTOF; MS2; 130 V
Name: 4-Hydroxy-1-(2-hydroxyethyl)-2,2,6,6-tetramethylpiperidine
Formula: C11H23NO2
Exact mass: 201.1729
SMILES: CC1(CC(CC(N1CCO)(C)C)O)C
InChI: InChI=1S/C11H23NO2/c1-10(2)7-9(14)8-11(3,4)12(10)5-6-13/h9,13-14H,5-8H2,1-4H3
Instrument: TripleTOF 6600 SCIEX
Instrument type: LC-ESI-QTOF
Ms type: CID
Ion mode: POSITIVE
Collision energy: 130
Ionization: ESI
Column name: Zorbax Eclipse Plus C18 2.1 mm x 150 mm, 3.5 um, Agilent
Retention time: 2.162 min
Precursor m/z: 202.1802
Precursor type: [M+H]+
m/z	relative intensity
37.0065	374
38.0145	312
39.0223	999
42.0332	811
