Mass spectrum: Flufenacet ESA; LC-ESI-QTOF; MS2; 90 V
Name: Flufenacet ESA
Class: Herbicide; Transformation_product
Formula: C11H14FNO4S
Exact mass: 275.0628
SMILES: CC(C)N(C1=CC=C(C=C1)F)C(=O)CS(=O)(=O)O
InChI: InChI=1S/C11H14FNO4S/c1-8(2)13(11(14)7-18(15,16)17)10-5-3-9(12)4-6-10/h3-6,8H,7H2,1-2H3,(H,15,16,17)
Instrument: TripleTOF 6600 SCIEX
Instrument type: LC-ESI-QTOF
Ms type: MS2
Ion mode: POSITIVE
Collision energy: 90
Fragmentation mode: CID
Ionization: ESI
Column name: Zorbax Eclipse Plus C18 2.1 mm x 150 mm, 3.5 um, Agilent
Retention time: 6.781 min
Precursor m/z: 276.07
Precursor type: [M+H]+
m/z	relative intensity
31.0169	20
39.0231	45
41.038	39
50.0147	28
51.0225	76
57.0131	93
59.0121	12
59.0284	24
63.0226	39
64.0295	20
64.9689	12
65.0384	99
69.0131	22
70.0207	18
73.007	18
74.0147	364
75.0228	999
77.038	136
80.9641	16
83.0286	239
84.0364	68
89.0376	16
92.0489	35
95.0288	624
96.0368	107
97.045	45
104.0474	10
107.0291	37
108.0369	10
109.0443	134
110.0396	18
111.0473	97
112.055	20
123.035	163
124.0567	20
134.039	12
135.0475	12
