Mass spectrum: 11alpha-Hydroxyprogesterone; LC-ESI-QTOF; MS2; 40 V
Name: 11alpha-Hydroxyprogesterone
Class: Pharmaceutical; Metabolite
Formula: C21H30O3
Exact mass: 330.2195
SMILES: CC(=O)C1CC[C@H]2[C@@H]3CCC4=CC(=O)CC[C@]4(C)[C@H]3[C@H](O)C[C@]12C
InChI: InChI=1S/C21H30O3/c1-12(22)16-6-7-17-15-5-4-13-10-14(23)8-9-20(13,2)19(15)18(24)11-21(16,17)3/h10,15-19,24H,4-9,11H2,1-3H3/t15-,16?,17-,18+,19+,20-,21+/m0/s1
Instrument: TripleTOF 5600 SCIEX
Instrument type: LC-ESI-QTOF
Ms type: MS2
Ion mode: POSITIVE
Collision energy: 40
Fragmentation mode: CID
Ionization: ESI
Column name: Zorbax Eclipse Plus C18 2.1 mm x 150 mm, 3.5 um, Agilent
Retention time: 10.293 min
Precursor m/z: 331.2268
Precursor type: [M+H]+
m/z	relative intensity
43.0264	257
43.0545	21
55.0211	18
55.0586	18
65.0434	21
67.0578	123
69.0352	14
69.0728	32
71.0531	72
77.0414	152
79.0556	228
81.0719	257
83.0508	301
83.0837	18
85.0649	326
91.0553	352
91.0744	18
91.0868	32
93.0704	308
94.0431	18
95.0511	29
95.0855	308
97.0652	704
103.0544	29
105.0702	573
107.0497	76
107.0851	286
108.0597	18
109.0637	323
109.0994	72
111.0772	18
115.0539	58
117.0689	163
119.0854	308
121.0642	999
121.0988	148
123.0802	831
123.1107	32
127.0535	18
128.0631	83
129.0694	141
130.0767	36
131.0851	345
132.0968	14
133.0676	47
133.1003	446
135.0786	192
135.1177	108
137.0965	101
141.0678	54
142.0762	83
143.0843	247
144.0937	29
145.0646	43
145.0999	450
147.0795	174
147.1164	254
148.0891	21
149.0944	105
149.131	72
151.1085	14
153.071	29
154.0773	18
155.0847	108
156.0946	101
157.0633	18
157.1002	276
158.1082	18
159.0796	87
159.0948	14
159.1157	410
160.1226	14
161.095	145
161.1303	116
163.1106	308
163.1429	21
165.071	36
166.0783	14
167.0845	47
168.0929	21
169.0991	203
170.1102	50
171.0779	32
171.1159	345
173.093	90
173.1303	356
174.1039	18
175.1098	196
175.1464	112
177.1274	199
179.0837	25
179.1384	36
180.0917	14
181.0992	79
182.1084	32
183.1154	185
184.1226	18
185.0944	39
185.1312	203
185.1559	18
186.142	32
187.1112	98
187.1454	119
189.1248	119
189.1612	32
191.1415	87
193.1003	25
194.1093	21
195.116	112
196.1242	36
197.1306	203
198.1024	14
199.1114	50
199.1453	138
201.1261	94
201.1649	39
203.1428	98
205.1628	18
206.1043	18
207.1152	50
208.1288	14
209.1322	90
210.1373	18
211.1117	58
211.1464	156
213.1261	69
213.1633	181
214.136	18
215.1428	83
217.1568	58
221.1296	76
222.1437	32
223.1442	18
223.1644	18
225.1281	50
225.1628	119
227.1422	58
227.1752	29
228.1464	14
229.1571	159
231.1701	72
235.1446	50
237.1616	156
239.1417	145
240.1538	21
243.174	72
248.1556	14
249.1633	36
251.1759	61
252.1865	21
253.1569	43
253.1931	312
255.1725	268
265.1562	18
267.1726	76
267.2131	21
269.1891	101
271.2036	395
277.1924	123
285.1832	54
295.2047	733
295.2414	18
298.1874	25
313.2156	624
331.2243	679
