Mass spectrum: 2-Methylbenzimidazole; LC-ESI-QTOF; MS2; 60 V
Name: 2-Methylbenzimidazole
Formula: C8H8N2
Exact mass: 132.0687
SMILES: CC1=NC2=CC=CC=C2N1
InChI: InChI=1S/C8H8N2/c1-6-9-7-4-2-3-5-8(7)10-6/h2-5H,1H3,(H,9,10)
Instrument: TripleTOF 6600 SCIEX
Instrument type: LC-ESI-QTOF
Ms type: MS2
Ion mode: POSITIVE
Collision energy: 60
Fragmentation mode: CID
Ionization: ESI
Column name: Zorbax Eclipse Plus C18 2.1 mm x 150 mm, 3.5 um, Agilent
Retention time: 4.68 min
Precursor m/z: 133.076
Precursor type: [M+H]+
m/z	relative intensity
35.999	27
37.0073	187
38.0151	157
39.023	999
42.0335	12
50.0148	13
51.0226	31
52.0177	25
62.0144	18
63.0224	82
64.0305	35
65.0383	682
77.0386	26
91.0416	61
92.0483	26
118.0522	11
131.0603	21
