Mass spectrum: 2,3,4-Trihydroxybenzophenone; LC-ESI-QTOF; MS2; 60 V
Name: 2,3,4-Trihydroxybenzophenone
Class: Industrial_process
Formula: C13H10O4
Exact mass: 230.0579
SMILES: Oc1ccc(c(O)c1O)C(=O)c2ccccc2
InChI: InChI=1S/C13H10O4/c14-10-7-6-9(12(16)13(10)17)11(15)8-4-2-1-3-5-8/h1-7,14,16-17H
Instrument: TripleTOF 5600 SCIEX
Instrument type: LC-ESI-QTOF
Ms type: MS2
Ion mode: POSITIVE
Collision energy: 60
Fragmentation mode: CID
Ionization: ESI
Column name: Zorbax Eclipse Plus C18 2.1 mm x 150 mm, 3.5 um, Agilent
Retention time: 9.396 min
Precursor m/z: 231.0652
Precursor type: [M+H]+
m/z	relative intensity
51.0274	192
77.0409	999
79.0194	183
105.0322	82
153.0172	54
