Mass spectrum: Amitriptyline; LC-ESI-QTOF; MS2; 70 V
Name: Amitriptyline
Class: Pharmaceutical
Formula: C20H23N
Exact mass: 277.183
SMILES: CN(C)CCC=C1C2=CC=CC=C2CCC3=CC=CC=C31
InChI: InChI=1S/C20H23N/c1-21(2)15-7-12-20-18-10-5-3-8-16(18)13-14-17-9-4-6-11-19(17)20/h3-6,8-12H,7,13-15H2,1-2H3
Instrument: TripleTOF 6600 SCIEX
Instrument type: LC-ESI-QTOF
Ms type: MS2
Ion mode: POSITIVE
Collision energy: 70
Fragmentation mode: CID
Ionization: ESI
Column name: Zorbax Eclipse Plus C18 2.1 mm x 150 mm, 3.5 um, Agilent
Retention time: 8.708 min
Precursor m/z: 278.1903
Precursor type: [M+H]+
m/z	relative intensity
39.023	13
42.0338	12
51.023	34
58.0648	19
63.0228	11
65.0387	147
77.0388	203
79.0541	55
84.0805	13
89.0383	18
91.0545	479
102.0458	11
103.054	51
105.0696	41
115.0543	377
116.0619	13
117.0694	46
126.0459	13
127.054	100
128.062	208
129.0697	25
139.0541	17
141.0696	42
151.0543	22
152.0622	116
153.0696	38
155.06	17
163.0547	10
164.0615	18
165.0696	218
176.0618	48
177.0699	49
178.0779	379
179.0849	10
188.0618	10
189.0703	491
190.0781	114
191.0856	170
200.0621	14
201.0703	47
202.0781	999
203.0857	236
204.0926	23
215.0858	228
216.0934	36
217.1012	53
