Mass spectrum: Amlodipine; LC-ESI-QTOF; MS2; 30 V
Name: Amlodipine
Class: Pharmaceutical
Formula: C20H25ClN2O5
Exact mass: 408.1452
SMILES: CCOC(=O)C1=C(COCCN)NC(=C(C1c2ccccc2Cl)C(=O)OC)C
InChI: InChI=1S/C20H25ClN2O5/c1-4-28-20(25)18-15(11-27-10-9-22)23-12(2)16(19(24)26-3)17(18)13-7-5-6-8-14(13)21/h5-8,17,23H,4,9-11,22H2,1-3H3
Instrument: TripleTOF 5600 SCIEX
Instrument type: LC-ESI-QTOF
Ms type: MS2
Ion mode: POSITIVE
Collision energy: 30
Fragmentation mode: CID
Ionization: ESI
Column name: Zorbax Eclipse Plus C18 2.1 mm x 150 mm, 3.5 um, Agilent
Retention time: 8.432 min
Precursor m/z: 409.1525
Precursor type: [M+H]+
m/z	relative intensity
165.0093	16
170.0597	63
178.0413	13
184.0754	11
202.0855	37
206.0367	380
208.0605	109
212.0706	21
213.0776	31
220.0524	228
238.063	999
248.0472	127
260.047	25
286.0627	23
288.0408	32
294.0895	595
295.107	93
303.0891	64
316.0732	13
320.0671	40
331.0834	14
334.0838	138
346.0822	13
360.0999	65
377.1262	257
392.1251	18
