Mass spectrum: Methadone; LC-ESI-QTOF; MS2; 70 V
Name: Methadone
Class: Pharmaceutical
Formula: C21H27NO
Exact mass: 309.2093
SMILES: CCC(=O)C(CC(C)N(C)C)(C1=CC=CC=C1)C2=CC=CC=C2
InChI: InChI=1S/C21H27NO/c1-5-20(23)21(16-17(2)22(3)4,18-12-8-6-9-13-18)19-14-10-7-11-15-19/h6-15,17H,5,16H2,1-4H3
Instrument: TripleTOF 6600 SCIEX
Instrument type: LC-ESI-QTOF
Ms type: MS2
Ion mode: POSITIVE
Collision energy: 70
Fragmentation mode: CID
Ionization: ESI
Column name: Zorbax Eclipse Plus C18 2.1 mm x 150 mm, 3.5 um, Agilent
Retention time: 8.79 min
Precursor m/z: 310.2166
Precursor type: [M+H]+
m/z	relative intensity
51.0227	64
57.0328	14
65.038	52
77.0381	999
79.0536	28
91.0536	409
103.0531	37
105.034	237
115.0536	200
116.0609	13
117.0691	53
127.0525	35
128.0615	89
129.0687	28
141.0683	26
152.0615	74
153.0688	10
165.0694	241
166.0767	24
167.0848	21
178.0772	60
179.0833	11
189.0692	35
190.077	14
191.0843	26
194.0717	44
202.0773	248
203.085	154
204.0931	67
215.0848	50
216.0936	16
217.101	44
