Mass spectrum: L-Thyronine; LC-ESI-QTOF; MS2; 90 V
Name: L-Thyronine
Class: Pharmaceutical
Formula: C15H15NO4
Exact mass: 273.1001
SMILES: N[C@@H](Cc1ccc(Oc2ccc(O)cc2)cc1)C(O)=O
InChI: InChI=1S/C15H15NO4/c16-14(15(18)19)9-10-1-5-12(6-2-10)20-13-7-3-11(17)4-8-13/h1-8,14,17H,9,16H2,(H,18,19)/t14-/m0/s1
Instrument: TripleTOF 5600 SCIEX
Instrument type: LC-ESI-QTOF
Ms type: MS2
Ion mode: POSITIVE
Collision energy: 90
Fragmentation mode: CID
Ionization: ESI
Column name: Zorbax Eclipse Plus C18 2.1 mm x 150 mm, 3.5 um, Agilent
Retention time: 5.619 min
Precursor m/z: 274.1074
Precursor type: [M+H]+
m/z	relative intensity
39.0231	101
50.0145	33
51.0231	80
53.0386	128
63.0217	33
65.0385	425
66.0458	148
76.0307	27
77.0387	377
78.0462	33
81.0335	371
89.0392	87
90.0465	33
91.0546	999
94.0397	155
102.046	40
104.0496	168
109.0278	33
115.054	222
117.0574	229
118.0654	735
128.0609	101
139.0524	80
152.0613	101
163.0524	60
164.0607	47
165.0714	54
