Mass spectrum: Bis(2-isopropylphenyl) phenyl phosphate; LC-ESI-QTOF; MS2; 120 V
Name: Bis(2-isopropylphenyl) phenyl phosphate
Formula: C24H27O4P
Exact mass: 410.1647
SMILES: CC(C)C1=CC=CC=C1OP(=O)(OC2=CC=CC=C2)OC3=CC=CC=C3C(C)C
InChI: InChI=1S/C24H27O4P/c1-18(2)21-14-8-10-16-23(21)27-29(25,26-20-12-6-5-7-13-20)28-24-17-11-9-15-22(24)19(3)4/h5-19H,1-4H3
Instrument: TripleTOF 6600 SCIEX
Instrument type: LC-ESI-QTOF
Ms type: MS2
Ion mode: POSITIVE
Collision energy: 120
Fragmentation mode: CID
Ionization: ESI
Column name: Zorbax Eclipse Plus C18 2.1 mm x 150 mm, 3.5 um, Agilent
Retention time: 17.429 min
Precursor m/z: 411.172
Precursor type: [M+H]+
m/z	relative intensity
37.0072	29
38.0149	20
39.0231	244
41.0387	47
49.0073	17
50.0149	89
51.0231	537
61.0074	12
62.0149	22
63.0226	55
65.0385	999
74.0142	11
77.0384	679
78.0454	34
89.0377	18
91.0539	642
92.0255	14
102.0452	28
103.0542	12
115.0531	72
125.0373	25
126.0453	118
127.0535	34
128.0609	17
139.0532	171
140.0618	17
150.0457	127
151.0537	335
152.062	748
163.0534	17
164.0616	20
165.0697	34
168.056	85
176.0612	12
178.0769	22
179.0608	25
200.0621	14
201.0709	15
202.0784	20
224.0622	20
225.0687	18
226.0772	119
