Mass spectrum: Edetol; LC-ESI-QTOF; MS2; 120 V
Name: Edetol
Formula: C14H32N2O4
Exact mass: 292.2362
SMILES: CC(CN(CCN(CC(C)O)CC(C)O)CC(C)O)O
InChI: InChI=1S/C14H32N2O4/c1-11(17)7-15(8-12(2)18)5-6-16(9-13(3)19)10-14(4)20/h11-14,17-20H,5-10H2,1-4H3
Instrument: TripleTOF 6600 SCIEX
Instrument type: LC-ESI-QTOF
Ms type: MS2
Ion mode: POSITIVE
Collision energy: 120
Fragmentation mode: CID
Ionization: ESI
Column name: Zorbax Eclipse Plus C18 2.1 mm x 150 mm, 3.5 um, Agilent
Retention time: 2.645 min
Precursor m/z: 293.2435
Precursor type: [M+H]+
m/z	relative intensity
31.0178	191
37.0068	95
38.0146	109
39.0227	999
41.0255	82
41.0386	328
42.0336	246
43.0172	136
44.0498	68
54.0339	123
56.049	109
68.0492	68
