Mass spectrum: Terbutrynesulfoxide; LC-ESI-QTOF; MS2; 50 V
Name: Terbutrynesulfoxide
Class: Transformation_product; Herbicide; Pesticide; Transformation_product-Metabolite
Formula: C10H19N5OS
Exact mass: 257.131
SMILES: CCNC1=NC(=NC(=N1)S(=O)C)NC(C)(C)C
InChI: InChI=1S/C10H19N5OS/c1-6-11-7-12-8(15-10(2,3)4)14-9(13-7)17(5)16/h6H2,1-5H3,(H2,11,12,13,14,15)
Instrument: TripleTOF 5600 SCIEX
Instrument type: LC-ESI-QTOF
Ms type: MS2
Ion mode: POSITIVE
Collision energy: 50
Fragmentation mode: CID
Ionization: ESI
Column name: Zorbax Eclipse Plus C18 2.1 mm x 150 mm, 3.5 um, Agilent
Retention time: 8.816 min
Precursor m/z: 258.1383
Precursor type: [M+H]+
m/z	relative intensity
43.0417	174
44.0491	11
44.0607	44
55.0388	87
56.0449	26
57.0531	29
58.0733	75
59.0559	26
59.9979	14
68.0319	999
69.0155	789
69.0372	80
70.0469	72
71.0665	387
71.9967	173
82.0449	31
83.0658	74
84.0497	10
84.0615	10
84.9908	594
85.0565	39
86.0399	639
86.0623	54
89.0211	83
94.0455	13
95.0536	29
96.0601	625
97.0445	470
98.0636	102
99.0048	75
110.0491	123
111.034	27
111.0603	360
112.0665	365
113.0197	197
113.0853	19
114.0155	23
114.069	506
114.9995	24
117.0498	54
121.0523	67
122.061	84
124.0645	167
125.084	13
127.0098	192
127.0485	15
128.0585	35
132.0227	10
138.0794	388
139.0874	693
140.0954	31
141.0245	148
142.045	33
154.0733	20
155.0399	291
156.0888	256
157.0217	24
159.0201	18
163.0983	19
166.1103	15
168.0346	27
169.0372	13
172.0303	29
180.1245	13
184.0657	45
185.0488	27
187.0528	184
