Mass spectrum: Dimethenamid-OA; LC-ESI-QTOF; MS2; 20 V
Name: Dimethenamid-OA
Class: Transformation_product; Herbicide
Formula: C12H17NO4S
Exact mass: 271.0878
SMILES: Cc1csc(c1N(C(C)COC)C(=O)C(=O)O)C
InChI: InChI=1S/C12H17NO4S/c1-7-6-18-9(3)10(7)13(8(2)5-17-4)11(14)12(15)16/h6,8H,5H2,1-4H3,(H,15,16)
Instrument: TripleTOF 6600 SCIEX
Instrument type: LC-ESI-QTOF
Ms type: MS2
Ion mode: POSITIVE
Collision energy: 20
Fragmentation mode: CID
Ionization: ESI
Column name: Zorbax Eclipse Plus C18 2.1 mm x 150 mm, 3.5 um, Agilent
Retention time: 8.208 min
Precursor m/z: 272.0951
Precursor type: [M+H]+
m/z	relative intensity
73.0653	25
111.0258	16
126.0369	13
138.0369	15
154.0317	22
166.0675	15
168.0844	32
196.0793	29
198.0941	10
200.1093	12
226.0871	9
240.0687	999
272.093	14
