Mass spectrum: Propaquizafop; LC-ESI-QTOF; MS2; 140 V
Name: Propaquizafop
Class: Herbicide
Formula: C22H22ClN3O5
Exact mass: 443.1248
SMILES: CC(Oc1ccc(Oc2cnc3cc(Cl)ccc3n2)cc1)C(=O)OCCON=C(C)C
InChI: InChI=1S/C22H22ClN3O5/c1-14(2)26-29-11-10-28-22(27)15(3)30-17-5-7-18(8-6-17)31-21-13-24-20-12-16(23)4-9-19(20)25-21/h4-9,12-13,15H,10-11H2,1-3H3
Instrument: TripleTOF 6600 SCIEX
Instrument type: LC-ESI-QTOF
Ms type: MS2
Ion mode: POSITIVE
Collision energy: 140
Fragmentation mode: CID
Ionization: ESI
Column name: Zorbax Eclipse Plus C18 2.1 mm x 150 mm, 3.5 um, Agilent
Retention time: 15.307 min
Precursor m/z: 444.1321
Precursor type: [M+H]+
m/z	relative intensity
39.0232	88
41.0389	34
42.0337	34
50.0153	61
51.0232	95
54.0336	41
55.018	54
55.0419	116
56.0495	157
61.9791	27
62.0147	34
63.0227	88
65.0388	95
70.0652	102
72.9836	54
73.0074	82
74.015	157
75.0226	150
77.0378	109
86.0148	34
87.0222	27
88.0184	34
89.0394	61
91.0544	95
99.0106	335
99.0437	61
100.0185	999
102.0337	88
108.984	61
109.992	47
112.0232	34
113.0378	68
114.0335	41
115.0538	34
123.0005	34
126.0438	27
128.0486	27
130.0415	27
135.9963	88
137.0027	41
137.0383	150
138.0336	88
138.0467	123
139.0432	27
139.0544	75
140.0495	95
141.0478	27
151.047	27
152.0497	41
153.0492	27
154.0484	54
162.0354	41
163.0071	34
163.0434	41
164.0002	102
164.0495	602
165.0462	68
165.0582	54
174.009	27
177.0532	34
179.0616	54
189.0463	75
190.0518	54
191.0623	75
192.0668	68
