Mass spectrum: Disperse Red 1; LC-ESI-QTOF; MS2; 70 V
Name: Disperse Red 1
Formula: C16H18N4O3
Exact mass: 314.1379
SMILES: CCN(CCO)C1=CC=C(C=C1)N=NC2=CC=C(C=C2)[N+](=O)[O-]
InChI: InChI=1S/C16H18N4O3/c1-2-19(11-12-21)15-7-3-13(4-8-15)17-18-14-5-9-16(10-6-14)20(22)23/h3-10,21H,2,11-12H2,1H3
Instrument: TripleTOF X500R SCIEX
Instrument type: LC-ESI-QTOF
Ms type: MS2
Ion mode: POSITIVE
Collision energy: 70
Fragmentation mode: CID
Ionization: ESI
Column name: Zorbax Eclipse Plus C18 2.1 mm x 150 mm, 3.5 um, Agilent
Retention time: 12.973 min
Precursor m/z: 315.1452
Precursor type: [M+H]+
m/z	relative intensity
39.0231	42
50.0154	153
51.0221	51
63.0229	68
64.0311	119
65.039	162
75.0232	700
76.0315	426
77.039	298
78.0445	42
79.0551	111
80.0507	51
91.0529	136
92.026	273
92.049	333
93.0635	51
103.0555	93
104.0498	358
105.0574	691
105.0722	76
106.0656	999
117.0578	119
118.0657	213
119.0612	384
120.0817	76
122.0247	59
130.0637	51
131.0633	102
132.0749	119
133.0848	76
134.0971	358
145.0771	68
146.0888	34
147.0917	153
150.0291	85
151.0547	42
152.0625	68
164.0497	51
180.0833	59
182.0845	34
209.0944	145
