Mass spectrum: Spiroxamine; LC-ESI-QTOF; MS2; 130 V
Name: Spiroxamine
Class: Fungicide
Formula: C18H35NO2
Exact mass: 297.2668
SMILES: CCCN(CC)CC1COC2(O1)CCC(CC2)C(C)(C)C
InChI: InChI=1S/C18H35NO2/c1-6-12-19(7-2)13-16-14-20-18(21-16)10-8-15(9-11-18)17(3,4)5/h15-16H,6-14H2,1-5H3
Instrument: TripleTOF 6600 SCIEX
Instrument type: LC-ESI-QTOF
Ms type: MS2
Ion mode: POSITIVE
Collision energy: 130
Fragmentation mode: CID
Ionization: ESI
Column name: Zorbax Eclipse Plus C18 2.1 mm x 150 mm, 3.5 um, Agilent
Retention time: 9.51 min
Precursor m/z: 298.2741
Precursor type: [M+H]+
m/z	relative intensity
30.0329	130
37.0063	130
38.0143	195
39.0226	999
41.038	825
42.033	195
43.0534	108
44.0487	130
58.0639	86
