Mass spectrum: 6-Acetylcodeine; LC-ESI-QTOF; MS2; 110 V
Name: 6-Acetylcodeine
Class: Pharmaceutical; Transformation_product
Formula: C20H23NO4
Exact mass: 341.1627
SMILES: CC(=O)OC1C=CC2C3CC4=C5C2(C1OC5=C(C=C4)OC)CCN3C
InChI: InChI=1S/C20H23NO4/c1-11(22)24-16-7-5-13-14-10-12-4-6-15(23-3)18-17(12)20(13,19(16)25-18)8-9-21(14)2/h4-7,13-14,16,19H,8-10H2,1-3H3
Instrument: TripleTOF 5600 SCIEX
Instrument type: LC-ESI-QTOF
Ms type: MS2
Ion mode: POSITIVE
Collision energy: 110
Fragmentation mode: CID
Ionization: ESI
Column name: Zorbax Eclipse Plus C18 2.1 mm x 150 mm, 3.5 um, Agilent
Retention time: 6.207 min
Precursor m/z: 342.17
Precursor type: [M+H]+
m/z	relative intensity
43.0267	104
51.0277	17
58.0706	15
65.042	29
75.0266	13
76.0339	10
77.0415	136
78.0493	32
89.0402	72
90.0476	12
91.0558	37
101.0395	26
102.0466	86
103.0546	28
113.0384	30
114.0465	32
115.0546	422
116.0621	17
118.0393	10
125.0383	12
126.0468	109
127.0542	251
128.0622	241
129.0693	10
131.0484	18
139.0546	239
140.0618	26
141.0697	75
143.0491	10
150.046	131
151.0546	356
152.0624	999
153.0694	138
154.0724	10
155.0492	54
162.0466	13
163.0541	192
164.0618	190
165.0701	338
167.0744	10
168.0567	27
169.0663	16
175.0537	10
176.062	92
177.0695	30
178.078	58
181.0652	59
183.044	10
187.0549	16
188.062	18
189.0698	111
190.0728	12
191.0753	12
200.061	16
203.0728	11
204.0813	18
