Mass spectrum: 1-(2,6-Dichlorophenyl)-2-indolinone; LC-ESI-QTOF; MS2; 140 V
Name: 1-(2,6-Dichlorophenyl)-2-indolinone
Class: Pharmaceutical; Transformation_product; Diclofenac-lactam
Formula: C14H9Cl2NO
Exact mass: 277.0061
SMILES: C1C2=CC=CC=C2N(C1=O)C3=C(C=CC=C3Cl)Cl
InChI: InChI=1S/C14H9Cl2NO/c15-10-5-3-6-11(16)14(10)17-12-7-2-1-4-9(12)8-13(17)18/h1-7H,8H2
Instrument: TripleTOF 5600 SCIEX
Instrument type: LC-ESI-QTOF
Ms type: MS2
Ion mode: POSITIVE
Collision energy: 140
Fragmentation mode: CID
Ionization: ESI
Column name: Zorbax Eclipse Plus C18 2.1 mm x 150 mm, 3.5 um, Agilent
Retention time: 12.191 min
Precursor m/z: 278.0134
Precursor type: [M+H]+
m/z	relative intensity
49.016	42
50.0258	359
62.0233	132
63.029	206
73.0138	222
74.0212	999
75.0137	31
75.0282	475
76.0364	190
77.0444	718
78.0509	31
83.9797	37
85.0126	58
86.0192	100
87.0285	111
88.0248	26
89.0427	132
97.0132	47
98.0182	459
99.0255	396
100.0314	79
101.0423	74
102.0483	79
104.0503	21
109.0087	21
110.0191	84
111.0221	58
113.042	52
114.0358	21
122.0176	105
123.0234	84
124.029	74
125.0407	116
126.0487	195
127.0451	47
128.0474	37
134.0148	26
137.0408	26
149.0394	142
150.0469	724
151.0542	274
152.0519	95
153.0576	21
175.0418	74
176.0495	95
177.0571	95
178.0653	47
