Mass spectrum: 1-(3,4-Dichlorophenyl)urea; LC-ESI-QTOF; MS2; 110 V
Name: 1-(3,4-Dichlorophenyl)urea
Class: Herbicide; Transformation_product
Formula: C7H6Cl2N2O
Exact mass: 203.9857
SMILES: C1=CC(=C(C=C1NC(=O)N)Cl)Cl
InChI: InChI=1S/C7H6Cl2N2O/c8-5-2-1-4(3-6(5)9)11-7(10)12/h1-3H,(H3,10,11,12)
Instrument: TripleTOF 5600 SCIEX
Instrument type: LC-ESI-QTOF
Ms type: MS2
Ion mode: POSITIVE
Collision energy: 110
Fragmentation mode: CID
Ionization: ESI
Column name: Zorbax Eclipse Plus C18 2.1 mm x 150 mm, 3.5 um, Agilent
Retention time: 8.797 min
Precursor m/z: 204.993
Precursor type: [M+H]+
m/z	relative intensity
44.0253	207
61.0155	94
62.022	150
63.0289	301
65.0449	452
72.9914	226
73.0131	339
74.0197	999
83.9785	75
