Mass spectrum: Medroxyprogesterone; LC-ESI-QTOF; MS2; 130 V
Name: Medroxyprogesterone
Class: Pharmaceutical
Formula: C22H32O3
Exact mass: 344.2351
SMILES: CC1CC2C(CCC3(C2CCC3(C(=O)C)O)C)C4(C1=CC(=O)CC4)C
InChI: InChI=1S/C22H32O3/c1-13-11-16-17(20(3)8-5-15(24)12-19(13)20)6-9-21(4)18(16)7-10-22(21,25)14(2)23/h12-13,16-18,25H,5-11H2,1-4H3
Instrument: TripleTOF 6600 SCIEX
Instrument type: LC-ESI-QTOF
Ms type: MS2
Ion mode: POSITIVE
Collision energy: 130
Fragmentation mode: CID
Ionization: ESI
Column name: Zorbax Eclipse Plus C18 2.1 mm x 150 mm, 3.5 um, Agilent
Retention time: 12.524 min
Precursor m/z: 345.2424
Precursor type: [M+H]+
m/z	relative intensity
37.0074	65
38.0154	70
39.023	386
41.0386	215
43.018	316
49.0078	35
50.015	195
51.023	567
53.0385	120
55.0176	95
55.0539	90
57.0329	20
63.0233	60
65.0383	331
66.0456	30
67.0538	100
74.0148	20
75.0232	20
77.0385	999
78.0465	85
79.0544	215
81.0344	35
82.0407	30
89.038	90
91.054	381
94.0395	30
97.0638	20
102.0455	80
103.0532	70
105.0446	40
105.0687	30
107.0479	80
115.0542	496
116.0616	30
117.0702	40
126.0463	30
127.0533	110
128.0617	321
129.069	50
131.0514	25
139.0546	40
141.0697	85
151.054	65
152.0617	145
153.0687	70
155.0615	30
164.0635	30
165.0691	130
176.0627	30
178.0767	65
189.069	45
