Mass spectrum: Metolachlor ESA; LC-ESI-QTOF; MS2; 150 V
Name: Metolachlor ESA
Class: Herbicide; Transformation_product-Metabolite
Formula: C15H23NO5S
Exact mass: 329.1297
SMILES: CCC1=CC=CC(=C1N(C(C)COC)C(=O)CS(=O)(=O)O)C
InChI: InChI=1S/C15H23NO5S/c1-5-13-8-6-7-11(2)15(13)16(12(3)9-21-4)14(17)10-22(18,19)20/h6-8,12H,5,9-10H2,1-4H3,(H,18,19,20)
Instrument: TripleTOF 5600 SCIEX
Instrument type: LC-ESI-QTOF
Ms type: MS2
Ion mode: POSITIVE
Collision energy: 150
Fragmentation mode: CID
Ionization: ESI
Column name: Zorbax Eclipse Plus C18 2.1 mm x 150 mm, 3.5 um, Agilent
Retention time: 8.247 min
Precursor m/z: 330.137
Precursor type: [M+H]+
m/z	relative intensity
45.0433	119
51.032	319
65.0432	399
77.0403	999
78.0493	119
89.04	499
90.0467	199
91.057	479
102.0469	159
103.0534	199
103.0654	79
115.0553	479
117.0562	179
127.0527	99
128.0551	219
129.0589	79
130.064	459
141.0583	99
142.0655	199
143.0735	219
144.0815	99
