Mass spectrum: Cortisone; LC-ESI-QTOF; MS2; 40 V
Name: Cortisone
Class: Pharmaceutical
Formula: C21H28O5
Exact mass: 360.1937
SMILES: C[C@]12CCC(=O)C=C1CC[C@H]3[C@@H]4CC[C@](O)(C(=O)CO)[C@@]4(C)CC(=O)[C@H]23
InChI: InChI=1S/C21H28O5/c1-19-7-5-13(23)9-12(19)3-4-14-15-6-8-21(26,17(25)11-22)20(15,2)10-16(24)18(14)19/h9,14-15,18,22,26H,3-8,10-11H2,1-2H3/t14-,15-,18+,19-,20-,21-/m0/s1
Instrument: TripleTOF 5600 SCIEX
Instrument type: LC-ESI-QTOF
Ms type: MS2
Ion mode: POSITIVE
Collision energy: 40
Fragmentation mode: CID
Ionization: ESI
Column name: Zorbax Eclipse Plus C18 2.1 mm x 150 mm, 3.5 um, Agilent
Retention time: 8.396 min
Precursor m/z: 361.201
Precursor type: [M+H]+
m/z	relative intensity
67.0597	15
77.0428	52
79.0588	56
81.0739	59
83.0526	47
91.0574	100
93.0734	156
95.0882	40
97.0669	85
103.0555	11
105.0726	211
107.0522	27
107.0887	136
109.0669	23
115.0572	27
117.0722	51
119.0871	127
121.0667	294
121.1029	69
123.0816	56
128.0642	37
129.0731	46
130.0797	20
131.0874	73
133.0667	30
133.104	56
135.0818	68
135.1175	57
137.0986	17
139.0762	32
141.0726	25
142.0801	22
143.0887	73
145.0694	25
145.1044	192
147.0832	107
147.12	17
148.0915	54
149.0986	34
153.0719	17
154.0813	11
155.0881	42
157.0659	13
157.1035	61
158.0791	13
159.0834	51
159.12	40
161.0994	66
161.1305	13
163.0788	17
163.1149	999
163.1527	11
165.0708	17
165.0929	11
166.0806	10
167.0911	30
168.097	13
169.1047	51
171.0836	40
171.12	51
173.0978	78
174.1077	15
175.1135	23
179.088	22
180.0962	11
181.1055	42
183.121	54
185.0984	27
185.1349	28
187.0779	11
187.1157	39
189.0923	28
189.1301	39
191.1074	18
192.0964	11
193.1042	25
194.1121	13
195.12	54
196.1251	10
197.0979	20
197.1353	42
199.1155	46
199.152	22
201.0965	10
201.1297	27
203.0898	11
203.108	13
205.104	15
206.1131	11
207.1051	10
207.1202	39
208.1259	11
209.0981	11
209.1373	56
210.1096	11
211.113	25
211.1494	34
213.1312	23
213.1637	17
215.1097	17
215.1462	17
217.1248	18
219.122	20
221.1354	30
223.1154	42
223.1519	34
224.1211	10
225.1319	52
225.1655	27
226.1411	13
227.1438	49
233.138	17
235.1487	18
237.1334	17
237.1662	35
239.1462	80
239.1833	35
240.1567	13
241.1277	27
241.1618	85
242.1678	25
243.1414	57
243.1755	15
247.1518	17
249.1317	23
249.1724	13
251.145	25
251.1822	17
253.1615	25
255.1408	18
255.1777	40
256.1889	28
257.1618	23
257.1959	20
258.1659	100
261.169	17
263.1479	13
265.1596	90
266.1744	20
267.1431	28
267.1772	98
269.158	59
269.1954	13
271.1646	13
277.1659	18
279.1769	42
281.1583	23
283.1727	92
284.1814	52
285.1527	22
285.1872	54
295.1714	25
297.1877	35
299.1678	117
300.1796	34
301.1817	112
307.1738	54
313.1845	51
315.1999	11
317.1754	18
325.1834	64
343.1944	124
361.2063	733
