Mass spectrum: 3,3`-Dinitrobisphenol A; LC-ESI-QTOF; MS2; 80 V
Name: 3,3`-Dinitrobisphenol A
Class: Transformation_product
Formula: C15H14N2O6
Exact mass: 318.0852
SMILES: CC(C1=CC=C(O)C([N+]([O-])=O)=C1)(C2=CC([N+]([O-])=O)=C(O)C=C2)C
InChI: InChI=1S/C15H14N2O6/c1-15(2,9-3-5-13(18)11(7-9)16(20)21)10-4-6-14(19)12(8-10)17(22)23/h3-8,18-19H,1-2H3
Instrument: TripleTOF 5600 SCIEX
Instrument type: LC-ESI-QTOF
Ms type: MS2
Ion mode: NEGATIVE
Collision energy: 80
Fragmentation mode: CID
Ionization: ESI
Column name: Zorbax Eclipse Plus C18 2.1 mm x 150 mm, 3.5 um, Agilent
Retention time: 13.85 min
Precursor m/z: 317.0779
Precursor type: [M-H]-
m/z	relative intensity
45.996	131
138.0476	230
143.0507	69
151.0554	237
152.0619	71
154.0427	147
166.0429	74
167.0512	192
168.0578	90
179.0499	159
180.0552	80
182.0375	183
192.0444	52
195.0468	140
196.0526	184
209.0492	249
212.0364	999
213.0373	74
226.0516	491
227.0571	72
