Mass spectrum: Tolfenamic acid; LC-ESI-QTOF; MS2; 120 V
Name: Tolfenamic acid
Class: Pharmaceutical
Formula: C14H12ClNO2
Exact mass: 261.0557
SMILES: Cc1cc(Nc2ccccc2C(O)=O)ccc1Cl
InChI: InChI=1S/C14H12ClNO2/c1-9-8-10(6-7-12(9)15)16-13-5-3-2-4-11(13)14(17)18/h2-8,16H,1H3,(H,17,18)
Instrument: TripleTOF 5600 SCIEX
Instrument type: LC-ESI-QTOF
Ms type: MS2
Ion mode: POSITIVE
Collision energy: 120
Fragmentation mode: CID
Ionization: ESI
Column name: Zorbax Eclipse Plus C18 2.1 mm x 150 mm, 3.5 um, Agilent
Retention time: 14.052 min
Precursor m/z: 262.0629
Precursor type: [M+H]+
m/z	relative intensity
51.0284	384
63.0568	32
64.0357	38
65.0416	65
72.9865	38
73.0079	21
74.0186	411
75.0257	521
75.0586	21
76.0332	137
77.0402	620
78.048	49
85.0086	32
86.0162	192
87.0238	279
88.0194	60
88.0318	32
89.0394	411
92.0288	21
98.0144	181
99.0233	98
100.0307	71
101.0382	257
102.0322	32
102.0456	164
110.0144	49
111.0219	49
113.0379	411
114.0324	98
115.0533	104
122.0169	27
123.0207	32
124.0288	54
125.0379	170
126.0448	450
127.0531	148
128.0503	98
128.0692	21
137.037	186
138.0454	87
139.0539	170
139.0982	27
140.0479	225
149.0387	87
150.0458	960
151.053	999
152.0596	702
153.0548	93
162.0475	27
164.0478	104
175.043	27
176.0478	98
177.0562	247
178.063	312
179.0699	76
