Mass spectrum: 4-Hydroxy-1H-benzotriazole; LC-ESI-QTOF; MS2; 30 V
Name: 4-Hydroxy-1H-benzotriazole
Class: Industrial_process; Transformation_product; Transformation_product-Metabolite
Formula: C6H5N3O
Exact mass: 135.0433
SMILES: c1cc2c(c(c1)O)[nH]nn2
InChI: InChI=1S/C6H5N3O/c10-5-3-1-2-4-6(5)8-9-7-4/h1-3,10H,(H,7,8,9)
Instrument: TripleTOF 5600 SCIEX
Instrument type: LC-ESI-QTOF
Ms type: MS2
Ion mode: POSITIVE
Collision energy: 30
Fragmentation mode: CID
Ionization: ESI
Column name: Zorbax Eclipse Plus C18 2.1 mm x 150 mm, 3.5 um, Agilent
Retention time: 5.337 min
Precursor m/z: 136.0505
Precursor type: [M+H]+
m/z	relative intensity
53.0442	318
54.039	65
68.0173	12
78.0369	17
79.0436	10
80.0518	999
81.035	175
90.0353	95
108.044	35
136.0502	847
