Mass spectrum: Disperse brown 1; LC-ESI-QTOF; MS2; 120 V
Name: Disperse brown 1
Formula: C16H15Cl3N4O4
Exact mass: 432.0159
SMILES: C1=CC(=C(C=C1N(CCO)CCO)Cl)N=NC2=C(C=C(C=C2Cl)[N+](=O)[O-])Cl
InChI: InChI=1S/C16H15Cl3N4O4/c17-12-7-10(22(3-5-24)4-6-25)1-2-15(12)20-21-16-13(18)8-11(23(26)27)9-14(16)19/h1-2,7-9,24-25H,3-6H2
Instrument: TripleTOF 6600 SCIEX
Instrument type: LC-ESI-QTOF
Ms type: MS2
Ion mode: POSITIVE
Collision energy: 120
Fragmentation mode: CID
Ionization: ESI
Column name: Zorbax Eclipse Plus C18 2.1 mm x 150 mm, 3.5 um, Agilent
Retention time: 12.39 min
Precursor m/z: 433.0232
Precursor type: [M+H]+
m/z	relative intensity
45.0333	56
51.0233	101
62.0144	44
63.0233	134
65.0385	89
72.9841	202
74.0148	426
75.0229	213
76.0168	246
77.0383	202
78.0343	89
80.9746	56
83.9757	145
89.0398	179
90.033	291
90.0459	44
91.0411	44
91.0511	78
92.0506	89
96.9842	89
99.0001	67
102.0382	67
103.0316	89
104.0497	246
105.0486	89
107.9769	314
108.9836	999
111.0004	56
117.0527	134
117.0629	67
117.9355	44
118.0564	224
123.0214	67
123.9926	168
126.0097	56
130.0645	67
138.0099	56
139.0223	44
142.948	67
143.9516	44
149.0396	56
150.0469	78
152.0077	56
164.0487	44
