Mass spectrum: Adenosine; LC-ESI-QTOF; MS2; 20 V
Name: Adenosine
Class: Pharmaceutical; Natural_product
Formula: C10H13N5O4
Exact mass: 267.0968
SMILES: Nc1ncnc2n(cnc12)C3OC(CO)C(O)C3O
InChI: InChI=1S/C10H13N5O4/c11-8-5-9(13-2-12-8)15(3-14-5)10-7(18)6(17)4(1-16)19-10/h2-4,6-7,10,16-18H,1H2,(H2,11,12,13)
Instrument: TripleTOF 5600 SCIEX
Instrument type: LC-ESI-QTOF
Ms type: MS2
Ion mode: POSITIVE
Collision energy: 20
Fragmentation mode: CID
Ionization: ESI
Column name: Zorbax Eclipse Plus C18 2.1 mm x 150 mm, 3.5 um, Agilent
Retention time: 3.196 min
Precursor m/z: 268.104
Precursor type: [M+H]+
m/z	relative intensity
136.0621	999
268.1036	318
