Mass spectrum: Ampicillin; LC-ESI-QTOF; MS2; 130 V
Name: Ampicillin
Class: Pharmaceutical
Formula: C16H19N3O4S
Exact mass: 349.1096
SMILES: CC1(C)S[C@@H]2[C@H](NC(=O)[C@H](N)c3ccccc3)C(=O)N2[C@H]1C(O)=O
InChI: InChI=1S/C16H19N3O4S/c1-16(2)11(15(22)23)19-13(21)10(14(19)24-16)18-12(20)9(17)8-6-4-3-5-7-8/h3-7,9-11,14H,17H2,1-2H3,(H,18,20)(H,22,23)/t9-,10-,11+,14-/m1/s1
Instrument: TripleTOF 5600 SCIEX
Instrument type: LC-ESI-QTOF
Ms type: MS2
Ion mode: POSITIVE
Collision energy: 130
Fragmentation mode: CID
Ionization: ESI
Column name: Zorbax Eclipse Plus C18 2.1 mm x 150 mm, 3.5 um, Agilent
Retention time: 5.367 min
Precursor m/z: 350.1169
Precursor type: [M+H]+
m/z	relative intensity
39.0295	36
43.0258	29
51.029	123
53.0438	29
58.9993	102
64.0338	29
65.0424	313
70.0672	36
75.0256	43
77.0413	999
77.0686	51
79.0567	554
86.0074	43
87.0262	36
89.0399	495
90.0473	262
91.0556	627
101.0412	36
103.0535	65
106.0646	211
116.052	29
117.0566	204
121.0103	145
