Mass spectrum: Terbinafine; LC-ESI-QTOF; MS2; 60 V
Name: Terbinafine
Class: Pharmaceutical; Fungicide
Formula: C21H25N
Exact mass: 291.1987
SMILES: CC(C)(C)C#C/C=C/CN(C)CC1=CC=CC2=CC=CC=C21
InChI: InChI=1S/C21H25N/c1-21(2,3)15-8-5-9-16-22(4)17-19-13-10-12-18-11-6-7-14-20(18)19/h5-7,9-14H,16-17H2,1-4H3/b9-5+
Instrument: TripleTOF 5600 SCIEX
Instrument type: LC-ESI-QTOF
Ms type: MS2
Ion mode: POSITIVE
Collision energy: 60
Fragmentation mode: CID
Ionization: ESI
Column name: Zorbax Eclipse Plus C18 2.1 mm x 150 mm, 3.5 um, Agilent
Retention time: 9.655 min
Precursor m/z: 292.206
Precursor type: [M+H]+
m/z	relative intensity
65.043	10
77.0422	169
79.0568	35
89.0402	16
91.0565	143
93.0712	32
103.0547	13
105.0703	13
115.0551	809
139.0542	15
141.0703	999
