Mass spectrum: Citric acid; LC-ESI-QTOF; MS2; 60 V
Name: Citric acid
Formula: C6H8O7
Exact mass: 192.027
SMILES: OC(CC(O)(C(O)=O)CC(O)=O)=O
InChI: InChI=1S/C6H8O7/c7-3(8)1-6(13,5(11)12)2-4(9)10/h13H,1-2H2,(H,7,8)(H,9,10)(H,11,12)
Instrument: TripleTOF 5600 SCIEX
Instrument type: LC-ESI-QTOF
Ms type: MS2
Ion mode: POSITIVE
Collision energy: 60
Fragmentation mode: CID
Ionization: ESI
Column name: Zorbax Eclipse Plus C18 2.1 mm x 150 mm, 3.5 um, Agilent
Retention time: 2.078 min
Precursor m/z: 193.0343
Precursor type: [M+H]+
m/z	relative intensity
68.9974	999
87.0064	47
