Mass spectrum: Cocamidopropyl betaine; LC-ESI-QTOF; MS2; 80 V
Name: Cocamidopropyl betaine
Formula: C19H38N2O3
Exact mass: 342.2882
SMILES: CCCCCCCCCCCC(=O)NCCC[N+](C)(C)CC(=O)[O-]
InChI: InChI=1S/C19H38N2O3/c1-4-5-6-7-8-9-10-11-12-14-18(22)20-15-13-16-21(2,3)17-19(23)24/h4-17H2,1-3H3,(H-,20,22,23,24)
Instrument: TripleTOF 6600 SCIEX
Instrument type: LC-ESI-QTOF
Ms type: MS2
Ion mode: POSITIVE
Collision energy: 80
Fragmentation mode: CID
Ionization: ESI
Column name: Zorbax Eclipse Plus C18 2.1 mm x 150 mm, 3.5 um, Agilent
Retention time: 10.623 min
Precursor m/z: 343.2955
Precursor type: [M+H]+
m/z	relative intensity
30.0332	49
37.008	39
38.0145	34
39.0231	359
41.0387	999
43.0423	19
43.0542	994
55.0535	152
57.0699	654
58.0647	108
67.0536	182
71.0848	39
79.0539	39
81.0699	88
95.0848	59
