Mass spectrum: Methylecgonidine; LC-ESI-QTOF; MS2; 80 V
Name: Methylecgonidine
Class: Metabolite
Formula: C10H15NO2
Exact mass: 181.1103
SMILES: CN1C2CCC1C(=CC2)C(=O)OC
InChI: InChI=1S/C10H15NO2/c1-11-7-3-5-8(10(12)13-2)9(11)6-4-7/h5,7,9H,3-4,6H2,1-2H3
Instrument: TripleTOF 6600 SCIEX
Instrument type: LC-ESI-QTOF
Ms type: MS2
Ion mode: POSITIVE
Collision energy: 80
Fragmentation mode: CID
Ionization: ESI
Column name: Zorbax Eclipse Plus C18 2.1 mm x 150 mm, 3.5 um, Agilent
Retention time: 4.43 min
Precursor m/z: 182.1176
Precursor type: [M+H]+
m/z	relative intensity
37.0071	153
38.0152	128
39.023	999
41.0383	102
42.0338	166
50.0148	140
51.0227	397
52.0307	64
53.0384	102
56.05	76
63.0232	166
65.0384	397
77.0383	204
79.0535	64
80.0489	64
89.0381	358
91.0539	115
106.0644	64
