Mass spectrum: Bosentan; LC-ESI-QTOF; MS2; 100 V
Name: Bosentan
Class: Pharmaceutical
Formula: C27H29N5O6S
Exact mass: 551.1839
SMILES: CC(C)(C)C1=CC=C(C=C1)S(=O)(=O)NC2=C(C(=NC(=N2)C3=NC=CC=N3)OCCO)OC4=CC=CC=C4OC
InChI: InChI=1S/C27H29N5O6S/c1-27(2,3)18-10-12-19(13-11-18)39(34,35)32-23-22(38-21-9-6-5-8-20(21)36-4)26(37-17-16-33)31-25(30-23)24-28-14-7-15-29-24/h5-15,33H,16-17H2,1-4H3,(H,30,31,32)
Instrument: TripleTOF 5600 SCIEX
Instrument type: LC-ESI-QTOF
Ms type: MS2
Ion mode: POSITIVE
Collision energy: 100
Fragmentation mode: CID
Ionization: ESI
Column name: Zorbax Eclipse Plus C18 2.1 mm x 150 mm, 3.5 um, Agilent
Retention time: 12.118 min
Precursor m/z: 552.1911
Precursor type: [M+H]+
m/z	relative intensity
52.0277	15
65.0448	50
69.0505	11
77.0433	129
78.0515	63
79.0337	243
79.0569	25
80.0189	15
80.0416	423
81.0476	10
89.0401	10
91.0567	90
92.0533	29
93.0375	86
95.0496	33
97.042	49
102.0356	41
103.0549	11
104.0511	79
105.0671	87
106.0419	999
107.026	25
107.0497	44
108.0576	50
109.0297	22
109.0535	14
115.0522	30
116.0499	45
117.0674	21
118.0521	30
118.078	10
119.0391	10
119.0618	65
120.0453	438
121.0291	27
122.0605	51
123.0669	37
124.0519	10
130.0372	24
131.0611	59
132.0445	42
132.0677	35
133.0537	37
134.0547	62
135.0535	73
143.0609	25
144.0446	47
145.043	9
146.0262	10
146.0539	10
147.0633	243
148.0754	12
149.0458	27
157.0486	24
158.0603	13
171.0556	15
174.0785	31
175.0435	12
175.0589	54
197.0798	31
202.0727	15
207.0667	11
221.0788	10
223.0579	9
224.0934	25
225.0788	10
249.0817	11
252.0892	13
263.0576	53
264.0921	11
279.0825	9
280.0817	136
