Mass spectrum: Pethoxamid; LC-ESI-QTOF; MS2; 130 V
Name: Pethoxamid
Class: Herbicide
Formula: C16H22ClNO2
Exact mass: 295.1339
SMILES: CCOCCN(C(=O)CCl)C(=C(C)C)C1=CC=CC=C1
InChI: InChI=1S/C16H22ClNO2/c1-4-20-11-10-18(15(19)12-17)16(13(2)3)14-8-6-5-7-9-14/h5-9H,4,10-12H2,1-3H3
Instrument: TripleTOF 6600 SCIEX
Instrument type: LC-ESI-QTOF
Ms type: MS2
Ion mode: POSITIVE
Collision energy: 130
Fragmentation mode: CID
Ionization: ESI
Column name: Zorbax Eclipse Plus C18 2.1 mm x 150 mm, 3.5 um, Agilent
Retention time: 12.961 min
Precursor m/z: 296.1412
Precursor type: [M+H]+
m/z	relative intensity
37.007	136
38.015	149
39.023	765
41.0388	77
48.9835	32
50.0146	155
51.0227	363
61.0064	103
62.0144	181
63.0224	434
65.0379	992
74.0144	84
75.0219	110
76.0299	32
77.0377	363
78.0451	38
87.0217	32
88.0296	38
89.0375	505
91.0532	317
102.0449	90
114.0444	45
115.0529	999
126.0446	45
127.0528	64
128.0603	155
