Mass spectrum: Omeprazole sulfide 5-carboxylic acid; LC-ESI-QTOF; MS2; 40 V
Name: Omeprazole sulfide 5-carboxylic acid
Class: Metabolite; Pharmaceutical
Formula: C17H17N3O4S
Exact mass: 359.094
SMILES: CC1=C(C(=CN=C1CSC2=NC3=C(N2)C=C(C=C3)OC)C(=O)O)OC
InChI: InChI=1S/C17H17N3O4S/c1-9-14(18-7-11(16(21)22)15(9)24-3)8-25-17-19-12-5-4-10(23-2)6-13(12)20-17/h4-7H,8H2,1-3H3,(H,19,20)(H,21,22)
Instrument: TripleTOF 5600 SCIEX
Instrument type: LC-ESI-QTOF
Ms type: MS2
Ion mode: POSITIVE
Collision energy: 40
Fragmentation mode: CID
Ionization: ESI
Column name: Zorbax Eclipse Plus C18 2.1 mm x 150 mm, 3.5 um, Agilent
Retention time: 5.75 min
Precursor m/z: 360.1013
Precursor type: [M+H]+
m/z	relative intensity
79.0522	14
80.055	14
92.0546	10
97.0153	12
106.0538	16
106.066	41
107.0755	256
108.0466	10
112.0234	17
120.0462	16
122.0612	117
124.0237	22
134.0485	239
135.0686	210
136.0223	49
136.0772	16
137.0172	14
137.0829	10
148.0404	39
149.0712	999
150.0552	190
151.0626	14
152.0168	70
152.0688	25
161.0686	45
162.0557	12
162.0793	31
163.0625	58
165.0116	119
166.0485	10
168.0488	23
180.0177	404
180.0633	86
181.0439	21
181.0715	113
210.1012	11
212.0365	899
237.0884	46
238.0957	68
252.1108	18
253.1195	139
265.0832	44
266.0932	21
268.106	43
281.113	34
282.1256	13
284.0996	28
294.0847	16
298.1168	13
308.1006	11
309.1128	14
312.0952	121
326.1122	81
327.1198	448
328.0756	18
360.0982	419
