Mass spectrum: Miconazole; LC-ESI-QTOF; MS2; 150 V
Name: Miconazole
Class: Fungicide; Pharmaceutical
Formula: C18H14Cl4N2O
Exact mass: 413.986
SMILES: Clc1ccc(COC(Cn2ccnc2)c3ccc(Cl)cc3Cl)c(Cl)c1
InChI: InChI=1S/C18H14Cl4N2O/c19-13-2-1-12(16(21)7-13)10-25-18(9-24-6-5-23-11-24)15-4-3-14(20)8-17(15)22/h1-8,11,18H,9-10H2
Instrument: TripleTOF 5600 SCIEX
Instrument type: LC-ESI-QTOF
Ms type: MS2
Ion mode: POSITIVE
Collision energy: 150
Fragmentation mode: CID
Ionization: ESI
Column name: Zorbax Eclipse Plus C18 2.1 mm x 150 mm, 3.5 um, Agilent
Retention time: 10.658 min
Precursor m/z: 414.9933
Precursor type: [M+H]+
m/z	relative intensity
48.9893	19
69.0468	23
72.9874	464
75.0258	18
81.0465	55
82.9467	55
87.0256	30
88.032	69
89.0408	999
96.9847	146
99.0004	150
102.0459	14
106.9456	17
122.9994	186
124.0065	43
132.9599	77
158.9758	25
