Mass spectrum: Diflufenican; LC-ESI-QTOF; MS2; 30 V
Name: Diflufenican
Class: Herbicide
Formula: C19H11F5N2O2
Exact mass: 394.0741
SMILES: C1=CC(=CC(=C1)OC2=C(C=CC=N2)C(=O)NC3=C(C=C(C=C3)F)F)C(F)(F)F
InChI: InChI=1S/C19H11F5N2O2/c20-12-6-7-16(15(21)10-12)26-17(27)14-5-2-8-25-18(14)28-13-4-1-3-11(9-13)19(22,23)24/h1-10H,(H,26,27)
Instrument: TripleTOF 6600 SCIEX
Instrument type: LC-ESI-QTOF
Ms type: MS2
Ion mode: NEGATIVE
Collision energy: 30
Fragmentation mode: CID
Ionization: ESI
Column name: Zorbax Eclipse Plus C18 2.1 mm x 150 mm, 3.5 um, Agilent
Retention time: 14.853 min
Precursor m/z: 393.0668
Precursor type: [M-H]-
m/z	relative intensity
161.0218	70
185.052	84
212.0357	25
218.0427	11
229.0411	21
238.0488	39
252.0446	124
269.0619	9
272.0505	999
288.0527	11
289.0598	35
309.0648	101
325.0587	54
328.0591	23
329.0702	216
345.0666	28
353.0546	117
373.0597	96
