Mass spectrum: Chlorpropham; LC-ESI-QTOF; MS2; 10 V
Name: Chlorpropham
Class: Herbicide
Formula: C10H12ClNO2
Exact mass: 213.0557
InChI: InChI=1S/C10H12ClNO2/c1-7(2)14-10(13)12-9-5-3-4-8(11)6-9/h3-7H,1-2H3,(H,12,13)
Instrument: TripleTOF 5600 SCIEX
Instrument type: LC-ESI-QTOF
Ms type: CID
Ion mode: POSITIVE
Collision energy: 10
Ionization: ESI
Column name: Zorbax Eclipse Plus C18 2.1 mm x 150 mm, 3.5 um, Agilent
Retention time: 12.592 min
Precursor m/z: 214.0629
Precursor type: [M+H]+
m/z	relative intensity
140.9994	34
154.0056	48
158.0254	72
172.0164	999
