Mass spectrum: 2,4,7,9-Tetramethyl-5-decyne-4,7-diol; LC-ESI-QTOF; MS2; 20 V
Name: 2,4,7,9-Tetramethyl-5-decyne-4,7-diol
Class: Industrial_process
Formula: C14H26O2
Exact mass: 226.1933
SMILES: CC(C)CC(C)(O)C#CC(C)(O)CC(C)C
InChI: InChI=1S/C14H26O2/c1-11(2)9-13(5,15)7-8-14(6,16)10-12(3)4/h11-12,15-16H,9-10H2,1-6H3
Instrument: TripleTOF 5600 SCIEX
Instrument type: LC-ESI-QTOF
Ms type: MS2
Ion mode: POSITIVE
Collision energy: 20
Fragmentation mode: CID
Ionization: ESI
Column name: Zorbax Eclipse Plus C18 2.1 mm x 150 mm, 3.5 um, Agilent
Retention time: 12.4 min
Precursor m/z: 209.1898
Precursor type: [M-H2O+H]+
m/z	relative intensity
83.09	71
85.1037	67
95.0874	175
107.0868	83
109.1028	94
111.081	56
121.103	67
125.0975	247
135.1171	190
139.1124	55
153.1275	295
167.1436	87
191.1806	80
209.1902	999
