Mass spectrum: Benalaxyl; LC-ESI-QTOF; MS2; 150 V
Name: Benalaxyl
Class: Fungicide
Formula: C20H23NO3
Exact mass: 325.1678
SMILES: CC1=C(C(=CC=C1)C)N(C(C)C(=O)OC)C(=O)CC2=CC=CC=C2
InChI: InChI=1S/C20H23NO3/c1-14-9-8-10-15(2)19(14)21(16(3)20(23)24-4)18(22)13-17-11-6-5-7-12-17/h5-12,16H,13H2,1-4H3
Instrument: TripleTOF 6600 SCIEX
Instrument type: LC-ESI-QTOF
Ms type: MS2
Ion mode: POSITIVE
Collision energy: 150
Fragmentation mode: CID
Ionization: ESI
Column name: Zorbax Eclipse Plus C18 2.1 mm x 150 mm, 3.5 um, Agilent
Retention time: 13.881 min
Precursor m/z: 326.1751
Precursor type: [M+H]+
m/z	relative intensity
35.9988	39
37.0069	234
38.0147	180
39.0229	999
41.0382	75
49.007	26
50.0146	254
51.0226	585
53.0369	18
59.9979	16
61.0067	82
62.0145	137
63.0226	231
65.0379	554
66.0447	13
74.0139	27
75.0226	16
77.038	536
78.0453	34
79.0534	49
80.0487	22
89.038	93
90.0459	18
91.0536	178
102.0462	9
103.0531	22
104.0489	22
105.0441	11
106.0642	27
115.0553	13
117.0573	22
120.0782	13
152.0605	9
