Mass spectrum: Clonazepam; LC-ESI-QTOF; MS2; 50 V
Name: Clonazepam
Class: Pharmaceutical
Formula: C15H10ClN3O3
Exact mass: 315.0411
SMILES: C1C(=O)NC2=C(C=C(C=C2)[N+](=O)[O-])C(=N1)C3=CC=CC=C3Cl
InChI: InChI=1S/C15H10ClN3O3/c16-12-4-2-1-3-10(12)15-11-7-9(19(21)22)5-6-13(11)18-14(20)8-17-15/h1-7H,8H2,(H,18,20)
Instrument: TripleTOF 6600 SCIEX
Instrument type: LC-ESI-QTOF
Ms type: MS2
Ion mode: POSITIVE
Collision energy: 50
Fragmentation mode: CID
Ionization: ESI
Column name: Zorbax Eclipse Plus C18 2.1 mm x 150 mm, 3.5 um, Agilent
Retention time: 9.867 min
Precursor m/z: 316.0484
Precursor type: [M+H]+
m/z	relative intensity
103.0414	27
104.0492	46
105.0568	18
125.0143	13
129.0436	21
130.0521	46
138.0105	13
151.0528	46
152.0617	31
153.0711	19
165.0694	38
166.0653	28
167.0732	55
168.0792	11
177.0573	20
178.0647	79
179.0722	140
180.0809	145
186.0222	35
190.0657	252
191.0736	66
192.0784	47
193.0865	54
195.0925	44
198.0227	15
199.0298	18
201.0328	11
202.0302	18
205.0765	226
206.0838	361
207.0918	320
213.0339	78
214.0424	999
223.0874	13
224.0265	36
226.0403	20
227.0481	22
228.0541	35
229.0532	11
234.0767	18
235.0872	18
239.0375	10
240.045	35
241.0532	869
242.0614	57
269.0477	102
270.0561	479
