Mass spectrum: Imazamox; LC-ESI-QTOF; MS2; 150 V
Name: Imazamox
Class: Herbicide
Formula: C15H19N3O4
Exact mass: 305.1376
SMILES: CC(C)C1(C(=O)NC(=N1)C2=C(C=C(C=N2)COC)C(=O)O)C
InChI: InChI=1S/C15H19N3O4/c1-8(2)15(3)14(21)17-12(18-15)11-10(13(19)20)5-9(6-16-11)7-22-4/h5-6,8H,7H2,1-4H3,(H,19,20)(H,17,18,21)
Instrument: TripleTOF 6600 SCIEX
Instrument type: LC-ESI-QTOF
Ms type: MS2
Ion mode: POSITIVE
Collision energy: 150
Fragmentation mode: CID
Ionization: ESI
Column name: Zorbax Eclipse Plus C18 2.1 mm x 150 mm, 3.5 um, Agilent
Retention time: 6.853 min
Precursor m/z: 306.1448
Precursor type: [M+H]+
m/z	relative intensity
35.9979	40
37.0061	265
38.0139	203
39.0218	835
41.0373	122
42.0324	346
43.0399	40
45.0319	71
49.0059	122
50.0136	326
51.0087	40
51.0211	336
52.0164	397
52.0291	50
53.0367	50
56.0479	132
59.9978	132
61.0055	999
62.0132	560
63.0084	61
63.021	682
64.0166	101
64.0288	61
65.0239	40
65.0362	71
70.063	132
75.008	132
76.0157	132
78.0322	81
85.9998	91
87.0084	254
88.0158	285
103.0258	61
