Mass spectrum: 5-Aminosalicylic acid; LC-ESI-QTOF; MS2; 80 V
Name: 5-Aminosalicylic acid
Class: Pharmaceutical
Formula: C7H7NO3
Exact mass: 153.0426
SMILES: C1=CC(=C(C=C1N)C(=O)O)O
InChI: InChI=1S/C7H7NO3/c8-4-1-2-6(9)5(3-4)7(10)11/h1-3,9H,8H2,(H,10,11)
Instrument: TripleTOF 6600 SCIEX
Instrument type: LC-ESI-QTOF
Ms type: MS2
Ion mode: POSITIVE
Collision energy: 80
Fragmentation mode: CID
Ionization: ESI
Column name: Zorbax Eclipse Plus C18 2.1 mm x 150 mm, 3.5 um, Agilent
Retention time: 2.181 min
Precursor m/z: 154.0499
Precursor type: [M+H]+
m/z	relative intensity
30.0341	28
35.9995	90
37.0072	462
38.0025	129
38.0148	355
39.0228	999
40.0186	28
44.0132	33
44.9972	22
49.0068	67
50.0151	299
51.0106	28
51.0227	321
52.018	152
52.0303	33
53.0017	242
53.012	62
53.0385	953
54.0334	349
55.0169	33
59.9985	39
61.0069	428
62.0145	835
63.0224	361
73.0067	50
74.0146	383
75.0225	84
78.0338	39
80.0483	253
