Mass spectrum: Rifaximin; LC-ESI-QTOF; MS2; 140 V
Name: Rifaximin
Class: Pharmaceutical
Formula: C43H51N3O11
Exact mass: 785.3524
SMILES: CC1C=CC=C(C(=O)NC2=C(C3=C(C4=C(C(=C3O)C)OC(C4=O)(OC=CC(C(C(C(C(C(C1O)C)O)C)OC(=O)C)C)OC)C)C5=C2N6C=CC(=CC6=N5)C)O)C
InChI: InChI=1S/C43H51N3O11/c1-19-14-16-46-28(18-19)44-32-29-30-37(50)25(7)40-31(29)41(52)43(9,57-40)55-17-15-27(54-10)22(4)39(56-26(8)47)24(6)36(49)23(5)35(48)20(2)12-11-13-21(3)42(53)45-33(34(32)46)38(30)51/h11-18,20,22-24,27,35-36,39,48-51H,1-10H3,(H,45,53)
Instrument: TripleTOF 6600 SCIEX
Instrument type: LC-ESI-QTOF
Ms type: MS2
Ion mode: POSITIVE
Collision energy: 140
Fragmentation mode: CID
Ionization: ESI
Column name: Zorbax Eclipse Plus C18 2.1 mm x 150 mm, 3.5 um, Agilent
Retention time: 11.765 min
Precursor m/z: 786.3597
Precursor type: [M+H]+
m/z	relative intensity
39.0222	74
41.038	168
43.0171	269
43.0532	33
53.038	40
55.0174	27
55.0531	216
65.0374	175
67.0531	513
69.0324	67
69.0687	87
77.0375	485
78.0451	27
79.0531	492
81.0689	161
83.0476	47
91.053	999
92.0484	155
92.0609	27
93.0683	236
94.075	27
95.0477	249
95.0846	485
97.0634	80
103.0526	134
105.0685	580
107.0481	114
107.0843	229
108.056	128
109.0638	249
109.0997	47
115.0529	161
116.0608	47
117.0687	155
118.0765	33
119.0581	27
119.0842	222
121.0639	87
121.0997	54
123.0795	141
127.0543	60
128.0615	114
129.069	182
130.0764	134
131.0838	87
132.0926	33
133.0639	87
133.1006	67
135.0786	94
141.0684	87
142.0761	87
143.0846	101
144.0924	47
145.0653	47
145.1005	67
147.08	74
148.0871	67
153.0684	54
155.0597	27
155.084	67
156.0921	33
157.0999	40
159.0794	33
163.1098	94
165.0679	80
166.0773	33
169.1	47
173.0946	40
178.0742	47
179.0862	60
180.0909	33
181.098	40
182.0781	33
183.0798	27
191.073	27
192.0666	33
192.086	40
193.0749	33
193.0976	33
194.0837	33
195.0847	33
197.0957	40
204.0785	33
205.0727	94
205.097	27
206.0857	67
207.091	80
208.087	33
208.0984	40
209.0966	40
217.0759	67
217.0855	40
218.083	155
219.0915	445
220.0987	290
221.094	33
221.1059	87
222.0761	47
222.1011	60
223.0878	27
229.0741	54
230.0842	87
231.0918	108
232.0979	242
233.1064	216
234.0782	40
234.1025	310
235.0863	80
235.11	80
236.0804	33
236.1109	33
237.0967	60
242.0805	27
243.0906	134
244.0941	134
245.0701	40
245.1014	182
246.1012	87
247.0867	222
247.1072	40
248.0938	303
248.1188	60
249.1026	216
250.0732	33
250.0974	94
251.0831	40
255.0889	67
256.0997	87
258.0817	33
258.1014	108
259.0848	87
260.075	47
260.0943	47
260.1174	40
261.102	182
262.0988	256
263.0789	60
263.109	202
264.0915	74
264.113	128
265.0835	47
265.0969	80
266.0919	80
267.0854	33
269.0937	33
270.0993	101
271.0866	101
271.1092	54
272.0948	128
273.0981	134
274.0989	121
275.0793	94
276.0878	121
276.112	94
277.0986	168
278.097	67
278.1274	40
279.1021	67
286.0956	80
287.0794	47
287.1023	67
288.0881	54
288.111	168
289.0976	222
290.0928	317
291.1066	263
292.0787	27
292.1079	229
293.1031	27
294.0913	33
299.0805	40
299.1115	40
300.0894	74
301.0993	168
302.0935	128
303.0794	74
303.1005	60
304.0866	67
304.1083	54
305.0884	40
305.1104	27
306.1245	128
307.1085	40
308.1121	40
312.1076	67
314.0955	40
314.1244	40
315.0779	33
315.1016	60
316.0824	87
316.1085	128
317.0919	344
318.0923	168
319.1073	114
320.1016	67
327.0861	27
327.1108	27
328.0771	40
329.092	168
330.0997	33
331.1052	80
332.08	54
332.1043	317
333.0863	74
333.1235	33
334.118	141
335.101	40
335.1487	27
338.0994	54
340.1117	33
342.0898	60
343.1058	33
344.1041	168
345.0867	209
346.0929	209
347.101	155
347.1395	33
348.1094	54
348.155	33
350.1353	47
351.1337	47
352.1062	27
352.1431	67
355.1097	54
358.118	33
359.1309	40
360.0992	344
361.1065	155
362.1138	209
363.1391	67
365.1115	33
366.1223	60
366.1639	47
368.1378	47
370.0831	33
372.0973	40
376.1436	80
380.1405	80
381.1217	33
382.1204	60
385.1023	40
386.116	33
392.1374	47
394.1195	54
398.1176	101
400.1256	27
404.1362	47
408.1057	33
408.1312	27
410.1214	33
412.129	33
418.118	33
422.108	40
424.1281	47
432.1364	121
435.12	134
435.1446	33
436.1341	128
437.1363	47
438.1489	47
446.1508	33
448.1281	54
448.1635	67
450.1459	101
452.1672	40
476.164	40
