Mass spectrum: Itraconazole; LC-ESI-QTOF; MS2; 70 V
Name: Itraconazole
Class: Pharmaceutical
Formula: C35H38Cl2N8O4
Exact mass: 704.2393
SMILES: CCC(C)N1C(=O)N(C=N1)C2=CC=C(C=C2)N3CCN(CC3)C4=CC=C(C=C4)OCC5COC(O5)(CN6C=NC=N6)C7=C(C=C(C=C7)Cl)Cl
InChI: InChI=1S/C35H38Cl2N8O4/c1-3-25(2)45-34(46)44(24-40-45)29-7-5-27(6-8-29)41-14-16-42(17-15-41)28-9-11-30(12-10-28)47-19-31-20-48-35(49-31,21-43-23-38-22-39-43)32-13-4-26(36)18-33(32)37/h4-13,18,22-25,31H,3,14-17,19-21H2,1-2H3
Instrument: TripleTOF 5600 SCIEX
Instrument type: LC-ESI-QTOF
Ms type: MS2
Ion mode: POSITIVE
Collision energy: 70
Fragmentation mode: CID
Ionization: ESI
Column name: Zorbax Eclipse Plus C18 2.1 mm x 150 mm, 3.5 um, Agilent
Retention time: 13.565 min
Precursor m/z: 705.2466
Precursor type: [M+H]+
m/z	relative intensity
55.0288	55
82.0388	111
105.0702	55
117.0606	55
118.0655	111
119.0761	166
120.0808	111
121.0517	166
129.068	55
130.0608	55
130.0662	55
133.05	55
136.0781	55
146.0957	277
148.0739	166
158.9758	111
158.9887	55
159.0705	55
162.0884	55
172.1142	55
174.0919	222
184.079	55
186.9728	111
188.1155	55
189.0803	222
192.0992	166
200.1058	277
201.0767	55
203.086	55
203.0944	333
215.0853	111
215.1011	111
229.1036	55
230.1008	55
245.1411	55
256.0071	444
259.1577	222
271.1588	333
279.0881	111
299.1806	55
321.1573	55
335.1523	666
348.1762	111
348.1963	111
376.1528	55
376.1795	333
376.1965	111
392.206	999
