Mass spectrum: 2-Morpholin-4-yl-benzothiazole; LC-ESI-QTOF; MS2; 40 V
Name: 2-Morpholin-4-yl-benzothiazole
Class: Industrial_process
Formula: C11H12N2OS
Exact mass: 220.067
SMILES: c1ccc2c(c1)nc(s2)N3CCOCC3
InChI: InChI=1S/C11H12N2OS/c1-2-4-10-9(3-1)12-11(15-10)13-5-7-14-8-6-13/h1-4H,5-8H2
Instrument: TripleTOF 5600 SCIEX
Instrument type: LC-ESI-QTOF
Ms type: MS2
Ion mode: POSITIVE
Collision energy: 40
Fragmentation mode: CID
Ionization: ESI
Column name: Zorbax Eclipse Plus C18 2.1 mm x 150 mm, 3.5 um, Agilent
Retention time: 9.363 min
Precursor m/z: 221.0743
Precursor type: [M+H]+
m/z	relative intensity
45.0396	13
55.0583	18
57.0749	17
65.0437	150
67.0581	29
68.9837	20
74.0082	18
77.0415	62
79.0561	26
80.0515	81
81.0719	24
89.0395	11
90.047	18
91.0551	59
92.0504	40
96.0043	20
103.0552	9
104.0493	18
105.0457	20
105.0694	26
106.0649	36
108.0019	51
109.0114	953
109.1009	25
111.0806	19
116.049	39
117.0573	265
118.0571	14
119.0849	19
121.0646	18
123.0125	19
123.0243	12
124.0214	150
134.0053	71
135.0133	99
136.0218	762
137.0951	15
144.0675	42
148.0202	39
149.0276	91
150.0373	950
151.0323	74
160.0219	23
161.0153	17
162.0364	23
163.0323	61
175.0321	168
176.0418	21
177.0484	999
188.0387	11
189.0471	44
203.0636	40
219.059	28
221.0744	866
