Mass spectrum: Mefenpyr-diethyl; LC-ESI-QTOF; MS2; 40 V
Name: Mefenpyr-diethyl
Class: Herbicide
Formula: C16H18Cl2N2O4
Exact mass: 372.0644
SMILES: CCOC(=O)C1=NN(C(C1)(C)C(=O)OCC)C2=C(C=C(C=C2)Cl)Cl
InChI: InChI=1S/C16H18Cl2N2O4/c1-4-23-14(21)12-9-16(3,15(22)24-5-2)20(19-12)13-7-6-10(17)8-11(13)18/h6-8H,4-5,9H2,1-3H3
Instrument: TripleTOF 5600 SCIEX
Instrument type: LC-ESI-QTOF
Ms type: MS2
Ion mode: POSITIVE
Collision energy: 40
Fragmentation mode: CID
Ionization: ESI
Column name: Zorbax Eclipse Plus C18 2.1 mm x 150 mm, 3.5 um, Agilent
Retention time: 14.581 min
Precursor m/z: 373.0716
Precursor type: [M+H]+
m/z	relative intensity
99.002	14
108.9861	42
123.9965	21
125.0034	15
132.9619	296
144.962	339
151.0207	11
155.0624	10
159.9724	959
160.9803	70
163.0202	15
164.0271	23
165.0334	25
172.968	362
173.9871	31
183.9696	11
184.9677	21
185.988	576
189.0232	49
190.0291	80
191.0374	9
192.0448	23
209.9856	10
218.0251	10
224.9972	39
226.0064	37
227.0133	91
243.0088	23
252.9939	634
280.9886	10
298.9991	713
326.0009	12
327.0304	999
