Mass spectrum: Lenalidomide; LC-ESI-QTOF; MS2; 100 V
Name: Lenalidomide
Class: Pharmaceutical
Formula: C13H13N3O3
Exact mass: 259.0957
SMILES: Nc1cccc2C(=O)N(Cc12)C3CCC(=O)NC3=O
InChI: InChI=1S/C13H13N3O3/c14-9-3-1-2-7-8(9)6-16(13(7)19)10-4-5-11(17)15-12(10)18/h1-3,10H,4-6,14H2,(H,15,17,18)
Instrument: TripleTOF 5600 SCIEX
Instrument type: LC-ESI-QTOF
Ms type: MS2
Ion mode: POSITIVE
Collision energy: 100
Fragmentation mode: CID
Ionization: ESI
Column name: Zorbax Eclipse Plus C18 2.1 mm x 150 mm, 3.5 um, Agilent
Retention time: 5.24 min
Precursor m/z: 260.103
Precursor type: [M+H]+
m/z	relative intensity
65.0431	345
77.0417	999
77.078	76
78.0356	96
89.0387	192
92.0502	96
104.0487	441
115.0531	134
