Mass spectrum: O-Desmethyl amisulpride; LC-ESI-QTOF; MS2; 60 V
Name: O-Desmethyl amisulpride
Class: Pharmaceutical; Transformation_product; Transformation_product-Metabolite
Formula: C16H25N3O4S
Exact mass: 355.1566
SMILES: CCN1CCCC1CNC(=O)c2cc(c(cc2O)N)S(=O)(=O)CC
InChI: InChI=1S/C16H25N3O4S/c1-3-19-7-5-6-11(19)10-18-16(21)12-8-15(24(22,23)4-2)13(17)9-14(12)20/h8-9,11,20H,3-7,10,17H2,1-2H3,(H,18,21)
Instrument: TripleTOF 5600 SCIEX
Instrument type: LC-ESI-QTOF
Ms type: MS2
Ion mode: POSITIVE
Collision energy: 60
Fragmentation mode: CID
Ionization: ESI
Column name: Zorbax Eclipse Plus C18 2.1 mm x 150 mm, 3.5 um, Agilent
Retention time: 5.619 min
Precursor m/z: 356.1639
Precursor type: [M+H]+
m/z	relative intensity
55.0588	13
56.0546	33
58.0702	52
67.0585	11
82.0676	11
84.0835	282
86.9912	10
98.0965	24
99.9853	30
107.037	38
107.9905	18
108.0201	15
110.0968	18
112.1128	999
126.0005	60
129.1376	12
135.0314	128
135.9845	23
153.9953	122
163.9795	19
181.9906	697
200.0009	87
228.0319	194
