Mass spectrum: 4-Methyl-5-thiazoleethanol; LC-ESI-QTOF; MS2; 40 V
Name: 4-Methyl-5-thiazoleethanol
Class: Food_additive; Metabolite; Pharmaceutical
Formula: C6H9NOS
Exact mass: 143.0405
SMILES: CC1=C(SC=N1)CCO
InChI: InChI=1S/C6H9NOS/c1-5-6(2-3-8)9-4-7-5/h4,8H,2-3H2,1H3
Instrument: TripleTOF 6600 SCIEX
Instrument type: LC-ESI-QTOF
Ms type: MS2
Ion mode: POSITIVE
Collision energy: 40
Fragmentation mode: CID
Ionization: ESI
Column name: Zorbax Eclipse Plus C18 2.1 mm x 150 mm, 3.5 um, Agilent
Retention time: 4.251 min
Precursor m/z: 144.0478
Precursor type: [M+H]+
m/z	relative intensity
39.0226	24
42.0338	68
44.9791	46
53.0382	35
54.0333	13
55.0417	33
55.0536	23
58.9947	39
65.0383	92
68.0493	16
69.0572	19
70.9944	222
72.0024	87
78.0338	16
80.0489	128
84.002	11
85.0101	109
86.0178	68
96.0036	13
97.0095	16
98.0054	38
99.0252	35
112.0208	856
113.0286	999
126.0365	98
144.0472	20
