Mass spectrum: Omeprazole 4-desmethylthioether; LC-ESI-QTOF; MS2; 40 V
Name: Omeprazole 4-desmethylthioether
Class: Metabolite; Pharmaceutical
Formula: C16H17N3O2S
Exact mass: 315.1041
SMILES: Cc1cnc(c(c1O)C)CSc2[nH]c3ccc(cc3n2)OC
InChI: InChI=1S/C16H17N3O2S/c1-9-7-17-14(10(2)15(9)20)8-22-16-18-12-5-4-11(21-3)6-13(12)19-16/h4-7H,8H2,1-3H3,(H,17,20)(H,18,19)
Instrument: TripleTOF 5600 SCIEX
Instrument type: LC-ESI-QTOF
Ms type: MS2
Ion mode: POSITIVE
Collision energy: 40
Fragmentation mode: CID
Ionization: ESI
Column name: Zorbax Eclipse Plus C18 2.1 mm x 150 mm, 3.5 um, Agilent
Retention time: 6.17 min
Precursor m/z: 316.1114
Precursor type: [M+H]+
m/z	relative intensity
65.0436	12
79.0556	13
81.072	19
91.0566	29
93.0582	41
94.0656	62
96.082	26
106.0529	27
107.073	13
108.0805	216
109.0894	55
118.0652	12
122.0608	33
123.0668	12
124.0774	12
134.0485	202
136.0759	697
137.083	341
140.0537	36
149.0708	690
166.0319	61
167.0391	17
168.0476	999
168.0868	13
180.0336	12
181.0418	48
240.1143	34
267.1024	13
268.1078	111
282.1226	38
283.1309	231
284.0872	24
316.1099	258
