Mass spectrum: 4'-O-Demethyl pantoprazole sulfide; LC-ESI-QTOF; MS2; 70 V
Name: 4'-O-Demethyl pantoprazole sulfide
Class: Pharmaceutical; Transformation_product-Metabolite
Formula: C15H13F2N3O3S
Exact mass: 353.0646
SMILES: COC1=C(NC=CC1=O)CSC2=NC3=C(N2)C=C(C=C3)OC(F)F
InChI: InChI=1S/C15H13F2N3O3S/c1-22-13-11(18-5-4-12(13)21)7-24-15-19-9-3-2-8(23-14(16)17)6-10(9)20-15/h2-6,14H,7H2,1H3,(H,18,21)(H,19,20)
Instrument: TripleTOF 6600 SCIEX
Instrument type: LC-ESI-QTOF
Ms type: MS2
Ion mode: POSITIVE
Collision energy: 70
Fragmentation mode: CID
Ionization: ESI
Column name: Zorbax Eclipse Plus C18 2.1 mm x 150 mm, 3.5 um, Agilent
Retention time: 7.57 min
Precursor m/z: 354.0719
Precursor type: [M+H]+
m/z	relative intensity
39.0221	80
41.0389	12
42.0331	92
43.0169	14
51.0228	11
53.0014	10
53.0379	815
54.0328	22
55.0168	37
63.0219	127
65.0373	77
66.0089	47
66.0327	27
66.0449	13
67.017	234
67.0398	162
68.0119	59
68.0481	28
70.0275	41
78.0323	39
80.0108	33
80.0483	660
81.0318	106
82.0264	19
82.0634	90
83.0356	11
90.0326	140
92.0482	74
93.0558	140
94.027	86
95.0352	183
96.0428	161
98.0586	24
99.0128	63
106.0527	10
107.0584	32
108.043	999
109.0501	54
110.0583	354
111.0297	22
117.0433	104
118.0506	152
120.0414	73
121.0514	10
124.0391	51
125.0456	25
125.9992	119
126.0531	62
127.0065	185
134.0449	24
135.0542	420
136.0374	309
138.0531	96
140.0146	110
142.0302	29
147.0538	10
155.0014	143
159.0527	18
165.0107	28
166.0169	50
170.0264	71
185.0515	63
209.0496	33
210.0593	10
211.0719	26
216.0154	19
228.0809	11
278.0782	13
