Mass spectrum: Sulfapyridine; LC-ESI-QTOF; MS2; 50 V
Name: Sulfapyridine
Class: Antimicrobial; Pharmaceutical
Formula: C11H11N3O2S
Exact mass: 249.0572
SMILES: C1=CC=NC(=C1)NS(=O)(=O)C2=CC=C(C=C2)N
InChI: InChI=1S/C11H11N3O2S/c12-9-4-6-10(7-5-9)17(15,16)14-11-3-1-2-8-13-11/h1-8H,12H2,(H,13,14)
Instrument: TripleTOF 5600 SCIEX
Instrument type: LC-ESI-QTOF
Ms type: MS2
Ion mode: POSITIVE
Collision energy: 50
Fragmentation mode: CID
Ionization: ESI
Column name: Zorbax Eclipse Plus C18 2.1 mm x 150 mm, 3.5 um, Agilent
Retention time: 5.55 min
Precursor m/z: 250.0645
Precursor type: [M+H]+
m/z	relative intensity
65.0451	670
66.0404	34
67.0465	109
78.0368	158
80.0526	279
92.0511	999
93.0566	126
94.0537	103
95.0613	390
108.0439	786
140.0482	22
156.0097	21
156.0638	16
157.0729	27
166.0509	18
167.0576	179
168.0668	69
183.0764	85
184.0841	155
