Mass spectrum: Benzyl-dimethyl-tetradecylammonium; LC-ESI-QTOF; MS2; 110 V
Name: Benzyl-dimethyl-tetradecylammonium
Class: Industrial_process; Pharmaceutical
Formula: C23H42N
Exact mass: 332.3312
SMILES: CCCCCCCCCCCCCC[N+](C)(C)Cc1ccccc1
InChI: InChI=1S/C23H42N/c1-4-5-6-7-8-9-10-11-12-13-14-18-21-24(2,3)22-23-19-16-15-17-20-23/h15-17,19-20H,4-14,18,21-22H2,1-3H3/q+1
Instrument: TripleTOF 5600 SCIEX
Instrument type: LC-ESI-QTOF
Ms type: CID
Ion mode: POSITIVE
Collision energy: 110
Ionization: ESI
Column name: Zorbax Eclipse Plus C18 2.1 mm x 150 mm, 3.5 um, Agilent
Retention time: 12.775 min
Precursor m/z: 332.3312
Precursor type: [M]+
m/z	relative intensity
58.0706	110
65.0436	528
91.056	999
