Mass spectrum: Edetol; LC-ESI-QTOF; MS2; 100 V
Name: Edetol
Formula: C14H32N2O4
Exact mass: 292.2362
SMILES: CC(CN(CCN(CC(C)O)CC(C)O)CC(C)O)O
InChI: InChI=1S/C14H32N2O4/c1-11(17)7-15(8-12(2)18)5-6-16(9-13(3)19)10-14(4)20/h11-14,17-20H,5-10H2,1-4H3
Instrument: TripleTOF 6600 SCIEX
Instrument type: LC-ESI-QTOF
Ms type: MS2
Ion mode: POSITIVE
Collision energy: 100
Fragmentation mode: CID
Ionization: ESI
Column name: Zorbax Eclipse Plus C18 2.1 mm x 150 mm, 3.5 um, Agilent
Retention time: 2.645 min
Precursor m/z: 293.2435
Precursor type: [M+H]+
m/z	relative intensity
31.0175	213
38.0152	67
39.0226	999
41.0382	774
42.0337	246
43.0184	78
43.0419	44
44.0486	123
45.0338	101
54.0333	78
56.0489	213
58.0647	44
59.048	89
68.0499	67
69.0571	56
70.0632	78
80.0491	56
82.063	67
