Mass spectrum: Hydroxy-DEET; LC-ESI-QTOF; MS2; 60 V
Name: Hydroxy-DEET
Class: Metabolite
Formula: C12H17NO2
Exact mass: 207.1259
SMILES: CCN(CC)C(=O)C1=CC(=CC=C1)CO
InChI: InChI=1S/C12H17NO2/c1-3-13(4-2)12(15)11-7-5-6-10(8-11)9-14/h5-8,14H,3-4,9H2,1-2H3
Instrument: TripleTOF 5600 SCIEX
Instrument type: LC-ESI-QTOF
Ms type: MS2
Ion mode: POSITIVE
Collision energy: 60
Fragmentation mode: CID
Ionization: ESI
Column name: Zorbax Eclipse Plus C18 2.1 mm x 150 mm, 3.5 um, Agilent
Retention time: 6.973 min
Precursor m/z: 208.1332
Precursor type: [M+H]+
m/z	relative intensity
44.0265	26
61.015	11
62.0227	31
63.0312	224
65.0457	27
77.0444	206
79.0585	13
89.0433	999
91.0587	38
105.0362	10
107.0515	10
134.062	11
135.0451	13
