Mass spectrum: Bixafen; LC-ESI-QTOF; MS2; 40 V
Name: Bixafen
Class: Fungicide
Formula: C18H12Cl2F3N3O
Exact mass: 413.031
SMILES: CN1C=C(C(=N1)C(F)F)C(=O)NC2=C(C=C(C=C2)F)C3=CC(=C(C=C3)Cl)Cl
InChI: InChI=1S/C18H12Cl2F3N3O/c1-26-8-12(16(25-26)17(22)23)18(27)24-15-5-3-10(21)7-11(15)9-2-4-13(19)14(20)6-9/h2-8,17H,1H3,(H,24,27)
Instrument: TripleTOF 6600 SCIEX
Instrument type: LC-ESI-QTOF
Ms type: MS2
Ion mode: POSITIVE
Collision energy: 40
Fragmentation mode: CID
Ionization: ESI
Column name: Zorbax Eclipse Plus C18 2.1 mm x 150 mm, 3.5 um, Agilent
Retention time: 13.359 min
Precursor m/z: 414.0382
Precursor type: [M+H]+
m/z	relative intensity
42.0342	27
109.0389	53
129.0443	22
159.0356	70
204.0117	24
229.0082	24
231.0229	24
263.9771	64
265.9928	999
269.0285	12
270.0326	10
277.9907	20
282.0453	19
283.0429	23
289.9961	10
291.0559	11
291.971	46
296.0379	40
303.0009	76
303.0799	16
304.089	64
305.0033	31
310.055	108
311.0583	27
317.0057	17
329.9884	27
331.0146	17
332.0261	24
333.0041	13
338.0489	586
339.0559	32
346.0306	461
354.0175	13
356.0158	26
372.0064	13
374.0254	738
394.0287	14
