Mass spectrum: Isoxaben; LC-ESI-QTOF; MS2; 70 V
Name: Isoxaben
Class: Herbicide
Formula: C18H24N2O4
Exact mass: 332.1736
SMILES: CCC(C)(CC)C1=NOC(=C1)NC(=O)C2=C(C=CC=C2OC)OC
InChI: InChI=1S/C18H24N2O4/c1-6-18(3,7-2)14-11-15(24-20-14)19-17(21)16-12(22-4)9-8-10-13(16)23-5/h8-11H,6-7H2,1-5H3,(H,19,21)
Instrument: TripleTOF 6600 SCIEX
Instrument type: LC-ESI-QTOF
Ms type: MS2
Ion mode: POSITIVE
Collision energy: 70
Fragmentation mode: CID
Ionization: ESI
Column name: Zorbax Eclipse Plus C18 2.1 mm x 150 mm, 3.5 um, Agilent
Retention time: 12.747 min
Precursor m/z: 333.1809
Precursor type: [M+H]+
m/z	relative intensity
51.0228	16
55.0177	14
63.0226	11
64.0298	10
75.0222	38
77.0379	130
79.0169	39
79.0528	12
92.0247	61
94.0406	10
107.0122	999
120.0192	17
122.0355	425
135.0423	13
150.0301	235
165.0533	75
