Mass spectrum: N-ethyl-4-menthane-3-carboxamide; LC-ESI-QTOF; MS2; 60 V
Name: N-ethyl-4-menthane-3-carboxamide
Class: Food_additive; Personal_care_product
Formula: C13H25NO
Exact mass: 211.1936
SMILES: CCNC(=O)C1CC(CCC1C(C)C)C
InChI: InChI=1S/C13H25NO/c1-5-14-13(15)12-8-10(4)6-7-11(12)9(2)3/h9-12H,5-8H2,1-4H3,(H,14,15)
Instrument: TripleTOF 6600 SCIEX
Instrument type: LC-ESI-QTOF
Ms type: MS2
Ion mode: POSITIVE
Collision energy: 60
Fragmentation mode: CID
Ionization: ESI
Column name: Zorbax Eclipse Plus C18 2.1 mm x 150 mm, 3.5 um, Agilent
Retention time: 11.775 min
Precursor m/z: 212.2009
Precursor type: [M+H]+
m/z	relative intensity
35.9993	11
37.0068	41
38.0023	21
38.0148	43
39.0227	312
41.0384	415
42.0334	20
43.0176	21
43.0539	81
44.0131	999
46.0284	83
46.0651	29
51.0223	21
53.013	13
53.0385	135
54.0339	49
55.0179	303
55.0539	822
56.0487	26
57.0695	28
58.0649	17
65.0382	56
67.0424	10
67.0538	129
69.0334	23
69.0693	68
70.0651	20
72.0439	72
74.0598	31
77.038	116
79.0536	146
80.0496	20
81.0332	38
81.069	113
82.0639	33
83.0485	32
83.0849	21
84.0794	15
91.0535	104
93.0693	20
94.0639	32
95.0484	11
95.0844	31
98.0591	40
100.0749	43
105.0696	29
108.0808	14
112.075	10
122.0959	11
126.0906	11
