Mass spectrum: Chloridazone-methyl-desphenyl; LC-ESI-QTOF; MS2; 70 V
Name: Chloridazone-methyl-desphenyl
Class: Herbicide; Transformation_product
Formula: C5H6ClN3O
Exact mass: 159.0199
SMILES: CN1C(=O)C(=C(C=N1)N)Cl
InChI: InChI=1S/C5H6ClN3O/c1-9-5(10)4(6)3(7)2-8-9/h2H,7H2,1H3
Instrument: TripleTOF 6600 SCIEX
Instrument type: LC-ESI-QTOF
Ms type: MS2
Ion mode: POSITIVE
Collision energy: 70
Fragmentation mode: CID
Ionization: ESI
Column name: Zorbax Eclipse Plus C18 2.1 mm x 150 mm, 3.5 um, Agilent
Retention time: 4.787 min
Precursor m/z: 160.0272
Precursor type: [M+H]+
m/z	relative intensity
40.0162	0
41.0245	249
42.0313	249
46.968	249
48.9824	249
51.0095	249
52.0172	999
53.0123	249
53.022	999
60.9837	249
69.0465	249
71.9756	499
87.993	249
88.9935	499
