Mass spectrum: Omeprazole sulfide 5-carboxylic acid; LC-ESI-QTOF; MS2; 90 V
Name: Omeprazole sulfide 5-carboxylic acid
Class: Metabolite; Pharmaceutical
Formula: C17H17N3O4S
Exact mass: 359.094
SMILES: CC1=C(C(=CN=C1CSC2=NC3=C(N2)C=C(C=C3)OC)C(=O)O)OC
InChI: InChI=1S/C17H17N3O4S/c1-9-14(18-7-11(16(21)22)15(9)24-3)8-25-17-19-12-5-4-10(23-2)6-13(12)20-17/h4-7H,8H2,1-3H3,(H,19,20)(H,21,22)
Instrument: TripleTOF 5600 SCIEX
Instrument type: LC-ESI-QTOF
Ms type: MS2
Ion mode: POSITIVE
Collision energy: 90
Fragmentation mode: CID
Ionization: ESI
Column name: Zorbax Eclipse Plus C18 2.1 mm x 150 mm, 3.5 um, Agilent
Retention time: 5.75 min
Precursor m/z: 360.1013
Precursor type: [M+H]+
m/z	relative intensity
42.0445	26
43.0285	51
51.0319	35
52.0376	29
53.012	11
53.0463	39
63.0288	23
65.0449	96
66.038	17
66.0511	42
67.0599	43
68.9865	19
77.0433	107
78.0393	91
79.0268	11
79.0477	258
80.0159	18
80.0539	176
82.9981	39
85.0143	34
89.0425	10
90.0371	22
91.0456	29
92.0536	149
93.0487	153
94.068	38
94.9973	13
96.0055	25
97.0138	165
104.052	43
105.0483	42
106.0614	999
107.0754	274
108.0462	42
108.0841	62
109.0128	38
110.0071	96
110.9937	15
112.0239	26
118.0305	25
118.0612	26
119.0405	10
119.0597	23
120.0449	27
122.0077	25
122.0623	46
123.0146	46
123.07	10
124.0225	66
133.0425	22
134.0063	34
134.0489	476
136.0212	79
137.0177	457
138.0236	11
147.0556	27
149.0704	62
149.9995	11
150.0564	15
151.0094	13
152.0164	103
152.0706	17
155.0619	10
165.0121	254
166.0214	18
167.06	18
168.0663	14
169.0761	11
177.996	31
179.062	11
180.0117	34
192.0704	13
193.0634	10
194.0745	33
222.0651	23
223.0707	19
224.0819	13
236.0763	10
