Mass spectrum: Tramadol-N-oxide; LC-ESI-QTOF; MS2; 140 V
Name: Tramadol-N-oxide
Class: Pharmaceutical
Formula: C16H25NO3
Exact mass: 279.1834
SMILES: [O-][N+](C)(C)C[C@H]2CCCC[C@]2(O)c1cc(OC)ccc1
InChI: InChI=1S/C16H25NO3/c1-17(2,19)12-14-7-4-5-10-16(14,18)13-8-6-9-15(11-13)20-3/h6,8-9,11,14,18H,4-5,7,10,12H2,1-3H3/t14-,16+/m1/s1
Instrument: TripleTOF 5600 SCIEX
Instrument type: LC-ESI-QTOF
Ms type: MS2
Ion mode: POSITIVE
Collision energy: 140
Fragmentation mode: CID
Ionization: ESI
Column name: Zorbax Eclipse Plus C18 2.1 mm x 150 mm, 3.5 um, Agilent
Retention time: 6.334 min
Precursor m/z: 280.1907
Precursor type: [M+H]+
m/z	relative intensity
42.0438	367
43.0256	75
43.0503	37
44.0579	103
53.0446	32
56.0551	47
58.0714	523
60.0065	61
60.0491	75
64.0356	381
65.0429	650
66.0497	70
67.0586	28
74.0189	174
75.0259	136
76.0332	117
77.0413	999
77.0741	32
78.0496	457
79.0571	32
86.0178	42
87.0264	32
89.0403	475
91.0556	287
92.026	188
94.0421	37
102.0465	202
103.0547	37
115.0541	862
126.0457	89
127.055	131
128.0622	212
