Mass spectrum: Norethynodrel; LC-ESI-QTOF; MS2; 50 V
Name: Norethynodrel
Class: Pharmaceutical
Formula: C20H26O2
Exact mass: 298.1933
SMILES: C[C@]12CC[C@H]3[C@@H](CCC4=C3CCC(=O)C4)[C@@H]1CC[C@@]2(O)C#C
InChI: InChI=1S/C20H26O2/c1-3-20(22)11-9-18-17-6-4-13-12-14(21)5-7-15(13)16(17)8-10-19(18,20)2/h1,16-18,22H,4-12H2,2H3/t16-,17-,18+,19+,20+/m1/s1
Instrument: TripleTOF 5600 SCIEX
Instrument type: LC-ESI-QTOF
Ms type: MS2
Ion mode: POSITIVE
Collision energy: 50
Fragmentation mode: CID
Ionization: ESI
Column name: Zorbax Eclipse Plus C18 2.1 mm x 150 mm, 3.5 um, Agilent
Retention time: 11.133 min
Precursor m/z: 299.2006
Precursor type: [M+H]+
m/z	relative intensity
43.0284	11
53.0433	19
55.0226	28
55.0589	82
65.0428	74
67.0584	178
69.0728	15
77.0417	389
79.0574	634
81.0347	14
81.0724	401
83.0516	485
91.0566	999
93.0711	259
95.0497	28
95.0859	90
97.0651	19
103.0543	105
104.0615	19
105.0706	582
107.0494	201
107.0855	93
109.0653	979
109.0991	63
111.0817	18
115.0541	302
116.0621	116
117.0695	347
119.0855	303
121.0655	33
121.0994	81
123.0802	50
123.1167	12
127.0536	76
128.062	357
129.0696	386
130.0772	116
131.0851	261
133.0647	51
133.1009	71
135.0795	170
135.1164	27
141.0692	192
142.0775	158
143.0846	253
144.0924	25
145.0643	14
145.101	144
146.0731	10
147.0798	42
147.1164	19
148.0887	10
149.0958	51
152.0613	24
153.0691	95
154.0771	72
155.0852	144
156.0927	93
157.0645	12
157.0999	108
158.1111	14
159.0793	20
159.1159	38
161.0962	62
161.1289	33
163.1124	16
165.0692	108
166.0778	41
167.0853	81
168.0938	31
169.0997	76
170.1064	15
171.1156	93
173.0944	12
173.1319	25
175.1122	31
178.0774	51
179.0847	74
180.0922	31
181.1015	59
182.1095	11
183.1146	41
184.1266	11
185.1323	20
187.1121	10
187.1474	11
188.1191	15
191.0853	32
192.093	25
193.0999	47
194.1079	14
195.1161	25
197.0966	11
197.1313	14
203.0835	11
205.1005	33
206.1091	14
207.1148	19
209.1356	11
213.1623	16
219.1164	11
221.1336	10
