Mass spectrum: 2-Hydroxycarbamazepine; LC-ESI-QTOF; MS2; 90 V
Name: 2-Hydroxycarbamazepine
Class: Pharmaceutical; Metabolite; Transformation_product-Metabolite
Formula: C15H12N2O2
Exact mass: 252.0899
SMILES: NC(=O)N1c2ccccc2C=Cc3cc(O)ccc13
InChI: InChI=1S/C15H12N2O2/c16-15(19)17-13-4-2-1-3-10(13)5-6-11-9-12(18)7-8-14(11)17/h1-9,18H,(H2,16,19)
Instrument: TripleTOF 5600 SCIEX
Instrument type: LC-ESI-QTOF
Ms type: MS2
Ion mode: POSITIVE
Collision energy: 90
Fragmentation mode: CID
Ionization: ESI
Column name: Zorbax Eclipse Plus C18 2.1 mm x 150 mm, 3.5 um, Agilent
Retention time: 7.476 min
Precursor m/z: 253.0972
Precursor type: [M+H]+
m/z	relative intensity
52.0269	10
65.0431	43
74.0177	52
75.0259	95
76.0331	13
77.0416	282
78.0489	28
86.0181	16
87.0268	28
88.033	21
89.0411	282
90.0487	36
91.0558	20
98.0167	18
99.0252	25
101.0398	117
102.0336	21
102.0467	57
103.0552	15
104.0499	23
105.0345	10
111.025	11
113.0389	154
114.0341	33
114.0473	50
115.055	280
116.0491	60
117.0585	26
125.0385	52
126.0467	141
127.0547	231
128.0524	226
130.0661	11
137.0395	40
138.0464	57
139.055	810
140.0501	527
141.0595	16
149.0381	20
150.0471	181
151.055	473
152.0623	999
153.0623	149
154.0657	83
161.0388	16
162.0468	52
163.0552	367
164.0564	224
165.0689	120
166.0657	357
167.0738	94
176.0497	23
177.0594	117
178.0658	488
179.0736	166
180.0555	15
180.0813	282
181.0679	13
182.0624	11
188.051	73
189.0578	72
190.066	219
191.073	122
192.0813	11
206.0603	21
207.0659	25
208.0777	15
