Mass spectrum: Warfarin; LC-ESI-QTOF; MS2; 50 V
Name: Warfarin
Class: Pesticide
Formula: C19H16O4
Exact mass: 308.1049
SMILES: CC(=O)CC(C1=CC=CC=C1)C2=C(C3=CC=CC=C3OC2=O)O
InChI: InChI=1S/C19H16O4/c1-12(20)11-15(13-7-3-2-4-8-13)17-18(21)14-9-5-6-10-16(14)23-19(17)22/h2-10,15,21H,11H2,1H3
Instrument: TripleTOF 6600 SCIEX
Instrument type: LC-ESI-QTOF
Ms type: MS2
Ion mode: NEGATIVE
Collision energy: 50
Fragmentation mode: CID
Ionization: ESI
Column name: Zorbax Eclipse Plus C18 2.1 mm x 150 mm, 3.5 um, Agilent
Retention time: 11.631 min
Precursor m/z: 307.0976
Precursor type: [M-H]-
m/z	relative intensity
41.0025	59
57.0335	316
83.0119	13
92.025	30
93.0328	42
101.0376	18
117.034	999
120.0196	12
130.0416	107
141.0709	11
157.0646	15
161.0237	347
193.0671	28
195.0802	30
205.0669	22
206.0741	91
219.0821	23
221.06	21
221.0968	11
222.0672	17
223.0766	13
249.056	29
250.0637	274
261.0905	10
