Mass spectrum: Fluoxastrobin; LC-ESI-QTOF; MS2; 90 V
Name: Fluoxastrobin
Class: Fungicide
Formula: C21H16ClFN4O5
Exact mass: 458.0793
SMILES: CON=C(C1=CC=CC=C1OC2=C(C(=NC=N2)OC3=CC=CC=C3Cl)F)C4=NOCCO4
InChI: InChI=1S/C21H16ClFN4O5/c1-28-26-18(21-27-30-11-10-29-21)13-6-2-4-8-15(13)31-19-17(23)20(25-12-24-19)32-16-9-5-3-7-14(16)22/h2-9,12H,10-11H2,1H3
Instrument: TripleTOF 6600 SCIEX
Instrument type: LC-ESI-QTOF
Ms type: MS2
Ion mode: POSITIVE
Collision energy: 90
Fragmentation mode: CID
Ionization: ESI
Column name: Zorbax Eclipse Plus C18 2.1 mm x 150 mm, 3.5 um, Agilent
Retention time: 13.269 min
Precursor m/z: 459.0866
Precursor type: [M+H]+
m/z	relative intensity
39.0226	26
43.0175	59
45.0327	13
50.0139	48
51.0226	141
61.0062	13
62.0147	30
63.0221	117
64.0175	28
64.0293	55
65.0379	137
69.9917	30
70.0088	15
72.9826	19
73.0055	55
74.0151	265
75.0224	999
76.0176	61
76.0299	209
77.0376	406
78.0332	90
81.0117	19
84.9824	50
86.0124	13
88.0298	22
89.0248	22
89.0377	26
90.0333	293
90.973	13
91.0409	81
92.0252	101
92.048	24
93.0326	59
94.022	24
95.0282	207
96.0222	13
98.9997	77
99.024	11
100.0169	68
101.0234	11
101.0317	11
102.0327	901
103.0395	53
104.0244	22
104.0383	57
105.0131	13
105.0326	167
106.021	86
107.0278	174
108.0277	48
109.0305	11
110.9984	826
112.0075	26
113.0257	50
114.0324	90
115.0399	81
116.0363	72
117.0424	44
118.0257	15
118.0503	26
119.0354	75
120.0227	13
120.0433	50
121.0312	141
122.0386	137
122.9977	19
123.0334	88
127.0282	39
127.9998	30
128.0368	44
129.0095	15
129.044	280
130.0387	735
131.0182	11
132.0227	194
133.031	437
134.0392	83
135.0321	13
137.0034	24
137.0244	46
138.0093	121
139.0045	322
139.0285	13
140.0366	99
140.9878	86
141.0403	19
142.0377	15
143.0022	13
143.0239	11
143.0484	13
144.0308	53
145.0361	72
146.0239	44
147.0337	50
147.9949	17
148.0294	26
149.0265	125
150.0337	214
151.0516	28
152.0597	15
154.0398	46
154.989	15
155.0285	22
155.0618	11
157.0391	11
158.0315	17
159.0333	99
160.0418	194
161.027	154
162.01	11
162.0327	28
163.0061	11
163.9989	11
165.0587	11
166.002	11
166.0372	15
168.0001	117
168.0322	22
169.0399	223
170.0399	28
170.0509	35
171.0319	15
171.0479	15
173.0355	11
174.0347	17
175.0281	70
176.0476	92
177.0158	13
177.0555	79
178.0289	35
178.0621	22
179.0579	22
181.0436	24
182.0444	11
184.0254	13
185.036	17
187.0317	17
187.0526	11
188.0372	545
189.0434	17
190.0614	11
191.022	11
191.0616	13
193.0509	15
194.0364	19
195.0468	48
196.0535	103
197.0556	55
198.0716	13
200.0403	11
201.0417	13
202.0486	57
203.0602	86
204.0552	28
205.0406	13
208.0529	33
213.0316	13
215.0583	41
217.0693	17
218.0735	11
221.0491	55
222.0568	26
223.0668	61
224.0479	37
225.0519	35
228.0526	17
230.0351	41
230.0682	13
231.0298	11
231.0527	17
232.065	11
234.0547	11
235.053	17
241.0664	22
248.0642	24
250.0531	95
251.0592	70
261.0696	22
263.0599	17
279.0568	41
306.0612	15
