Mass spectrum: 5-(3,4,5-Trimethoxybenzoyl)-2,4-pyrimidinediamine; LC-ESI-QTOF; MS2; 80 V
Name: 5-(3,4,5-Trimethoxybenzoyl)-2,4-pyrimidinediamine
Class: Pharmaceutical; Transformation_product; Transformation_product-Metabolite
Formula: C14H16N4O4
Exact mass: 304.1172
SMILES: COc1cc(cc(c1OC)OC)C(=O)c2cnc(nc2N)N
InChI: InChI=1S/C14H16N4O4/c1-20-9-4-7(5-10(21-2)12(9)22-3)11(19)8-6-17-14(16)18-13(8)15/h4-6H,1-3H3,(H4,15,16,17,18)
Instrument: TripleTOF 5600 SCIEX
Instrument type: LC-ESI-QTOF
Ms type: MS2
Ion mode: POSITIVE
Collision energy: 80
Fragmentation mode: CID
Ionization: ESI
Column name: Zorbax Eclipse Plus C18 2.1 mm x 150 mm, 3.5 um, Agilent
Retention time: 5.86 min
Precursor m/z: 305.1244
Precursor type: [M+H]+
m/z	relative intensity
40.0315	18
41.034	13
43.037	26
43.0463	26
52.0292	21
53.0114	21
53.0441	58
55.0323	21
65.0188	29
65.0423	130
66.0138	13
66.0361	24
66.0505	18
67.0268	93
67.0438	13
68.0174	999
69.0003	26
69.0121	13
69.0475	32
70.0326	64
71.0152	16
75.026	21
76.0333	24
77.041	272
78.0366	24
78.0462	16
79.0214	18
79.0443	29
80.0288	32
80.0514	152
81.0349	50
81.0446	16
83.0498	69
89.0403	64
90.037	138
91.0625	13
92.0284	88
92.0508	32
93.0073	24
93.0375	50
93.0563	13
94.0054	18
94.0401	34
94.0518	53
95.0254	665
101.0386	45
102.0333	37
102.0456	21
103.0449	56
104.0498	109
105.0433	184
106.0509	157
107.0134	29
107.0443	21
107.0592	178
108.0215	48
108.0485	18
109.028	32
109.0522	85
110.0585	170
111.0645	21
114.033	72
115.0425	32
116.0487	114
117.044	50
117.0609	34
118.0331	34
118.0577	72
119.0595	64
120.0194	72
120.0539	66
120.0691	13
121.0284	120
121.0618	29
122.0324	21
123.0429	16
124.0583	13
126.0339	18
127.0383	24
128.0487	96
129.0434	98
130.0354	96
131.0592	128
132.0494	53
133.026	10
134.0451	32
134.0593	13
134.0716	10
135.065	72
136.015	48
136.0632	16
137.0222	48
137.046	90
140.0499	18
141.0441	90
142.0313	21
142.0505	37
143.0228	18
143.0592	77
144.0531	112
145.0405	18
145.0638	18
145.0791	16
146.0249	56
146.0557	29
146.0691	24
147.0652	245
148.0407	26
148.0746	72
149.0241	32
150.0519	24
151.0382	42
153.0402	37
154.0354	42
154.0505	13
155.0605	56
156.0472	69
157.0381	34
157.0805	10
158.0478	72
158.0702	10
159.0586	69
160.0401	37
161.0812	53
162.0536	13
162.065	13
163.0612	66
167.049	10
168.0559	61
169.0402	29
170.0692	29
171.0622	186
172.0427	24
172.0708	53
173.0564	16
173.0804	66
174.0474	18
174.0611	34
175.0566	61
176.0696	66
177.079	21
182.0326	13
182.0613	10
183.0444	21
183.0646	18
184.0523	53
184.0748	16
185.0804	53
187.0552	82
187.0936	18
189.0769	125
196.0515	26
197.0353	16
197.0809	21
199.0612	32
200.0449	13
200.0682	173
201.0775	157
202.0557	16
203.0427	26
203.0558	13
203.0619	10
213.0768	58
215.0531	18
215.0902	16
217.0741	72
225.0783	18
229.0744	34
245.0659	37
