Mass spectrum: Flumioxazin; LC-ESI-QTOF; MS2; 40 V
Name: Flumioxazin
Class: Herbicide; Fungicide
Formula: C19H15FN2O4
Exact mass: 354.1016
SMILES: C#CCN1c2cc(c(cc2OCC1=O)F)N3C(=O)C4=C(C3=O)CCCC4
InChI: InChI=1S/C19H15FN2O4/c1-2-7-21-15-9-14(13(20)8-16(15)26-10-17(21)23)22-18(24)11-5-3-4-6-12(11)19(22)25/h1,8-9H,3-7,10H2
Instrument: TripleTOF 6600 SCIEX
Instrument type: LC-ESI-QTOF
Ms type: MS2
Ion mode: POSITIVE
Collision energy: 40
Fragmentation mode: CID
Ionization: ESI
Column name: Zorbax Eclipse Plus C18 2.1 mm x 150 mm, 3.5 um, Agilent
Retention time: 11.704 min
Precursor m/z: 355.1089
Precursor type: [M+H]+
m/z	relative intensity
51.0201	35
75.0216	35
77.0369	178
79.0542	178
80.0481	35
81.0705	107
91.0535	35
101.0381	35
107.0483	392
121.0427	214
134.0398	71
134.0614	71
138.0375	35
140.0512	35
148.0538	356
149.0398	142
149.0619	35
156.0411	71
160.0416	35
172.0524	107
175.0401	35
176.05	499
177.0502	142
178.0517	35
179.0274	35
188.0777	71
189.0455	71
190.0524	107
191.0596	35
192.0431	35
198.0653	214
200.0771	35
203.0652	107
204.04	107
205.0456	71
205.0778	35
209.11	35
210.0604	71
212.0804	35
213.0431	71
213.0872	71
219.0583	107
221.0705	107
223.0636	214
229.0764	71
230.0586	142
231.0587	71
231.0924	35
232.0402	35
232.077	71
239.064	35
239.0775	71
243.0577	142
249.0597	71
251.0812	107
251.0948	71
253.0754	35
253.0848	71
257.0734	107
258.0622	71
258.0952	71
259.0499	499
260.0697	71
266.0839	71
267.0892	35
269.0697	107
271.05	142
271.0896	214
274.0877	107
279.072	107
285.0697	535
285.1009	35
286.0832	71
287.0809	356
297.0645	35
299.083	999
300.0569	71
301.1003	142
313.0964	214
316.0981	178
327.0844	107
327.115	428
355.1121	535
