Mass spectrum: Estrone; LC-ESI-QTOF; MS2; 40 V
Name: Estrone
Class: Pharmaceutical
Formula: C18H22O2
Exact mass: 270.162
SMILES: CC12CCC3C(C1CCC2=O)CCC4=C3C=CC(=C4)O
InChI: InChI=1S/C18H22O2/c1-18-9-8-14-13-5-3-12(19)10-11(13)2-4-15(14)16(18)6-7-17(18)20/h3,5,10,14-16,19H,2,4,6-9H2,1H3
Instrument: TripleTOF 5600 SCIEX
Instrument type: LC-ESI-QTOF
Ms type: MS2
Ion mode: POSITIVE
Collision energy: 40
Fragmentation mode: CID
Ionization: ESI
Column name: Zorbax Eclipse Plus C18 2.1 mm x 150 mm, 3.5 um, Agilent
Retention time: 11.224 min
Precursor m/z: 271.1693
Precursor type: [M+H]+
m/z	relative intensity
43.018	25
55.0177	10
67.0541	52
69.0694	10
71.049	31
77.0385	55
79.0541	109
81.0697	133
91.0539	123
93.0697	79
95.0849	36
103.0538	34
105.0695	331
107.049	109
107.0838	33
109.1007	19
115.0537	89
116.0612	30
117.0694	42
119.0852	11
121.0646	50
127.0537	66
128.0616	63
129.0695	69
131.0826	308
132.0563	19
133.064	999
141.0693	332
143.0847	15
144.0563	369
145.0643	309
147.0801	67
152.0619	10
153.0694	52
154.0778	15
155.0847	43
157.0641	954
158.0724	22
159.0796	995
165.0697	108
167.0854	71
169.0709	51
169.0973	23
170.0717	27
171.0803	156
172.0888	92
173.0953	54
178.0772	33
179.0851	216
181.0648	70
181.0981	14
182.0724	140
183.08	271
184.0874	154
185.0958	145
193.1011	30
195.0802	39
196.0878	62
197.0955	519
198.1036	237
201.127	14
209.0957	62
210.1024	16
211.1116	173
212.1186	39
213.1268	128
223.1118	14
224.1193	14
225.1276	23
238.1347	16
253.1585	61
