Mass spectrum: 17alpha-Hydroxyprogesterone; LC-ESI-QTOF; MS2; 130 V
Name: 17alpha-Hydroxyprogesterone
Class: Pharmaceutical
Formula: C21H30O3
Exact mass: 330.2195
SMILES: CC(=O)[C@@]1(O)CC[C@H]2[C@@H]3CCC4=CC(=O)CC[C@]4(C)[C@H]3CC[C@]12C
InChI: InChI=1S/C21H30O3/c1-13(22)21(24)11-8-18-16-5-4-14-12-15(23)6-9-19(14,2)17(16)7-10-20(18,21)3/h12,16-18,24H,4-11H2,1-3H3/t16-,17+,18+,19+,20+,21+/m1/s1
Instrument: TripleTOF 5600 SCIEX
Instrument type: LC-ESI-QTOF
Ms type: MS2
Ion mode: POSITIVE
Collision energy: 130
Fragmentation mode: CID
Ionization: ESI
Column name: Zorbax Eclipse Plus C18 2.1 mm x 150 mm, 3.5 um, Agilent
Retention time: 11.808 min
Precursor m/z: 331.2268
Precursor type: [M+H]+
m/z	relative intensity
43.0257	369
55.0237	72
55.0589	54
65.0421	329
66.0513	43
67.0574	104
69.0369	14
77.0409	999
78.0476	65
79.0567	333
81.036	25
81.0712	47
83.0486	14
89.0401	61
91.0549	423
93.0719	18
94.0401	14
94.0478	25
97.0653	119
102.0457	72
103.0544	50
104.0603	14
105.0684	28
107.0492	43
109.0632	54
115.0535	387
116.0619	18
117.0712	21
126.0441	28
127.0546	123
128.0606	242
129.0715	32
139.0541	25
141.0684	72
151.0555	43
152.0604	123
153.067	21
164.0601	32
165.0681	79
166.0813	18
178.0769	28
