Mass spectrum: Amitrole; LC-ESI-QTOF; MS2; 50 V
Name: Amitrole
Class: Herbicide
Formula: C2H4N4
Exact mass: 84.0436
SMILES: C1=NNC(=N1)N
InChI: InChI=1S/C2H4N4/c3-2-4-1-5-6-2/h1H,(H3,3,4,5,6)
Instrument: TripleTOF 6600 SCIEX
Instrument type: LC-ESI-QTOF
Ms type: MS2
Ion mode: POSITIVE
Collision energy: 50
Fragmentation mode: CID
Ionization: ESI
Column name: Zorbax Eclipse Plus C18 2.1 mm x 150 mm, 3.5 um, Agilent
Retention time: 1.218 min
Precursor m/z: 85.0509
Precursor type: [M+H]+
m/z	relative intensity
28.018	22
29.0134	35
30.0336	10
31.029	23
41.0134	20
42.0211	184
43.0291	999
58.0398	22
