Mass spectrum: Etrimfos; LC-ESI-QTOF; MS2; 40 V
Name: Etrimfos
Class: Insecticide
Formula: C10H17N2O4PS
Exact mass: 292.0647
SMILES: CCC1=NC(=CC(=N1)OP(=S)(OC)OC)OCC
InChI: InChI=1S/C10H17N2O4PS/c1-5-8-11-9(15-6-2)7-10(12-8)16-17(18,13-3)14-4/h7H,5-6H2,1-4H3
Instrument: TripleTOF 6600 SCIEX
Instrument type: LC-ESI-QTOF
Ms type: MS2
Ion mode: POSITIVE
Collision energy: 40
Fragmentation mode: CID
Ionization: ESI
Column name: Zorbax Eclipse Plus C18 2.1 mm x 150 mm, 3.5 um, Agilent
Retention time: 14.241 min
Precursor m/z: 293.072
Precursor type: [M+H]+
m/z	relative intensity
44.9788	17
46.9939	58
56.0489	53
62.0178	17
68.0122	53
78.9935	207
84.0798	11
94.0043	14
100.038	18
109.0037	204
110.9652	88
123.0542	50
124.9811	999
127.0143	28
134.9647	12
142.9914	127
155.0802	20
164.046	38
177.9703	12
233.0136	39
265.0394	26
