Mass spectrum: Losartan; LC-ESI-QTOF; MS2; 20 V
Name: Losartan
Class: Pharmaceutical
Formula: C22H23ClN6O
Exact mass: 422.1622
SMILES: CCCCc1nc(c(n1Cc2ccc(cc2)c3ccccc3c4n[nH]nn4)CO)Cl
InChI: InChI=1S/C22H23ClN6O/c1-2-3-8-20-24-21(23)19(14-30)29(20)13-15-9-11-16(12-10-15)17-6-4-5-7-18(17)22-25-27-28-26-22/h4-7,9-12,30H,2-3,8,13-14H2,1H3,(H,25,26,27,28)
Instrument: TripleTOF 5600 SCIEX
Instrument type: LC-ESI-QTOF
Ms type: MS2
Ion mode: POSITIVE
Collision energy: 20
Fragmentation mode: CID
Ionization: ESI
Column name: Zorbax Eclipse Plus C18 2.1 mm x 150 mm, 3.5 um, Agilent
Retention time: 9.819 min
Precursor m/z: 423.1695
Precursor type: [M+H]+
m/z	relative intensity
171.0676	36
192.0806	36
207.0914	406
235.0971	90
258.1016	17
294.0788	12
324.1477	14
341.1744	74
362.1415	43
377.152	532
405.1579	999
423.1691	386
