Mass spectrum: (3-Methyl-2-butenyl)(triphenyl)phosphorane; LC-ESI-QTOF; MS2; 50 V
Name: (3-Methyl-2-butenyl)(triphenyl)phosphorane
Class: Industrial_process
Formula: [C23H24P]+
Exact mass: 331.161
SMILES: CC(=CC[P+](C1=CC=CC=C1)(C2=CC=CC=C2)C3=CC=CC=C3)C
InChI: InChI=1S/C23H24P/c1-20(2)18-19-24(21-12-6-3-7-13-21,22-14-8-4-9-15-22)23-16-10-5-11-17-23/h3-18H,19H2,1-2H3/q+1
Instrument: TripleTOF 6600 SCIEX
Instrument type: LC-ESI-QTOF
Ms type: MS2
Ion mode: POSITIVE
Collision energy: 50
Fragmentation mode: CID
Ionization: ESI
Column name: Zorbax Eclipse Plus C18 2.1 mm x 150 mm, 3.5 um, Agilent
Retention time: 9.017 min
Precursor m/z: 331.161
Precursor type: [M]+
m/z	relative intensity
69.0741	157
183.0387	999
185.0538	167
263.0991	371
