Mass spectrum: Ifosfamide; LC-ESI-QTOF; MS2; 60 V
Name: Ifosfamide
Class: Pharmaceutical
Formula: C7H15Cl2N2O2P
Exact mass: 260.0248
SMILES: ClCCN[P]1(=O)OCCCN1CCCl
InChI: InChI=1S/C7H15Cl2N2O2P/c8-2-4-10-14(12)11(6-3-9)5-1-7-13-14/h1-7H2,(H,10,12)
Instrument: TripleTOF 5600 SCIEX
Instrument type: LC-ESI-QTOF
Ms type: MS2
Ion mode: POSITIVE
Collision energy: 60
Fragmentation mode: CID
Ionization: ESI
Column name: Zorbax Eclipse Plus C18 2.1 mm x 150 mm, 3.5 um, Agilent
Retention time: 7.429 min
Precursor m/z: 261.0321
Precursor type: [M+H]+
m/z	relative intensity
42.0439	13
56.054	62
56.0616	35
62.97	10
63.005	999
63.0516	13
63.9979	21
78.0132	125
78.0281	13
79.9934	30
87.9965	10
92.0276	420
92.0604	13
97.955	16
97.9681	10
98.939	114
106.0024	16
108.9611	13
118.0063	16
120.0645	10
123.9686	10
125.9495	40
127.9668	13
128.0254	10
153.9826	38
