Mass spectrum: Thioxanthen-9-one; LC-ESI-QTOF; MS2; 90 V
Name: Thioxanthen-9-one
Formula: C13H8OS
Exact mass: 212.0296
SMILES: C1=CC=C2C(=C1)C(=O)C3=CC=CC=C3S2
InChI: InChI=1S/C13H8OS/c14-13-9-5-1-3-7-11(9)15-12-8-4-2-6-10(12)13/h1-8H
Instrument: TripleTOF 6600 SCIEX
Instrument type: LC-ESI-QTOF
Ms type: MS2
Ion mode: POSITIVE
Collision energy: 90
Fragmentation mode: CID
Ionization: ESI
Column name: Zorbax Eclipse Plus C18 2.1 mm x 150 mm, 3.5 um, Agilent
Retention time: 13.479 min
Precursor m/z: 213.0369
Precursor type: [M+H]+
m/z	relative intensity
39.0232	28
44.9789	20
50.0147	66
51.0231	64
61.0069	31
62.0148	61
63.023	139
65.038	54
67.971	17
68.9792	274
74.015	96
75.0221	45
76.0306	55
77.0386	61
78.0459	13
80.9795	13
81.9869	69
85.0062	21
86.0146	63
87.0223	109
88.0306	67
89.0384	358
90.0456	33
92.9794	47
98.0149	75
99.0223	48
100.0306	13
102.046	71
108.0025	42
110.0136	13
113.0387	235
114.0459	104
115.0544	160
125.0373	33
126.0464	144
134.0175	70
137.0385	77
138.0455	94
139.0538	999
149.0385	12
150.0464	282
151.0537	284
152.0619	206
158.0176	33
179.0592	11
182.0167	21
183.0263	34
184.0347	17
