Mass spectrum: Norgestrel; LC-ESI-QTOF; MS2; 140 V
Name: Norgestrel
Class: Pharmaceutical
Formula: C21H28O2
Exact mass: 312.2089
SMILES: CCC12CCC3C(C1CCC2(C#C)O)CCC4=CC(=O)CCC34
InChI: InChI=1S/C21H28O2/c1-3-20-11-9-17-16-8-6-15(22)13-14(16)5-7-18(17)19(20)10-12-21(20,23)4-2/h2,13,16-19,23H,3,5-12H2,1H3
Instrument: TripleTOF 5600 SCIEX
Instrument type: LC-ESI-QTOF
Ms type: MS2
Ion mode: POSITIVE
Collision energy: 140
Fragmentation mode: CID
Ionization: ESI
Column name: Zorbax Eclipse Plus C18 2.1 mm x 150 mm, 3.5 um, Agilent
Retention time: 12.063 min
Precursor m/z: 313.2162
Precursor type: [M+H]+
m/z	relative intensity
43.0304	46
53.0131	51
55.029	40
66.0525	35
67.0606	51
74.0192	51
75.03	51
76.0363	51
77.0452	999
78.0533	102
79.0613	148
83.0566	56
87.0268	35
89.0432	220
91.0596	435
101.0423	30
102.0496	169
103.0577	61
105.0747	20
114.0499	30
115.057	655
126.0502	81
127.0571	194
128.0651	327
139.0583	76
141.0726	46
150.0494	56
151.0582	66
152.0635	102
163.0561	71
164.0624	25
165.0707	46
176.0665	30
189.0748	30
