Mass spectrum: Losartan; LC-ESI-QTOF; MS2; 140 V
Name: Losartan
Class: Pharmaceutical
Formula: C22H23ClN6O
Exact mass: 422.1622
SMILES: CCCCc1nc(c(n1Cc2ccc(cc2)c3ccccc3c4n[nH]nn4)CO)Cl
InChI: InChI=1S/C22H23ClN6O/c1-2-3-8-20-24-21(23)19(14-30)29(20)13-15-9-11-16(12-10-15)17-6-4-5-7-18(17)22-25-27-28-26-22/h4-7,9-12,30H,2-3,8,13-14H2,1H3,(H,25,26,27,28)
Instrument: TripleTOF 5600 SCIEX
Instrument type: LC-ESI-QTOF
Ms type: MS2
Ion mode: NEGATIVE
Collision energy: 140
Fragmentation mode: CID
Ionization: ESI
Column name: Zorbax Eclipse Plus C18 2.1 mm x 150 mm, 3.5 um, Agilent
Retention time: 9.819 min
Precursor m/z: 421.1549
Precursor type: [M-H]-
m/z	relative intensity
42.0124	635
113.9982	227
127.0083	999
