Mass spectrum: Acridone; LC-ESI-QTOF; MS2; 120 V
Name: Acridone
Class: Metabolite; Pharmaceutical; Transformation_product; Transformation_product-Metabolite
Formula: C13H9NO
Exact mass: 195.0684
SMILES: O=C1c2ccccc2Nc3ccccc13
InChI: InChI=1S/C13H9NO/c15-13-9-5-1-3-7-11(9)14-12-8-4-2-6-10(12)13/h1-8H,(H,14,15)
Instrument: TripleTOF 5600 SCIEX
Instrument type: LC-ESI-QTOF
Ms type: MS2
Ion mode: NEGATIVE
Collision energy: 120
Fragmentation mode: CID
Ionization: ESI
Column name: Zorbax Eclipse Plus C18 2.1 mm x 150 mm, 3.5 um, Agilent
Retention time: 8.5 min
Precursor m/z: 194.0611
Precursor type: [M-H]-
m/z	relative intensity
38.0065	210
41.0045	105
41.0111	105
42.0018	210
42.0206	52
48.0024	262
50.0045	630
63.0149	52
65.0028	210
65.9988	999
71.9997	105
73.0065	157
73.014	52
74.0031	105
87.0099	105
