Mass spectrum: Fluorescein; LC-ESI-QTOF; MS2; 100 V
Name: Fluorescein
Class: Industrial_process; Pharmaceutical
Formula: C20H12O5
Exact mass: 332.0685
SMILES: C1=CC=C2C(=C1)C(=O)OC23C4=C(C=C(C=C4)O)OC5=C3C=CC(=C5)O
InChI: InChI=1S/C20H12O5/c21-11-5-7-15-17(9-11)24-18-10-12(22)6-8-16(18)20(15)14-4-2-1-3-13(14)19(23)25-20/h1-10,21-22H
Instrument: TripleTOF 5600 SCIEX
Instrument type: LC-ESI-QTOF
Ms type: MS2
Ion mode: POSITIVE
Collision energy: 100
Fragmentation mode: CID
Ionization: ESI
Column name: Zorbax Eclipse Plus C18 2.1 mm x 150 mm, 3.5 um, Agilent
Retention time: 9.527 min
Precursor m/z: 333.0757
Precursor type: [M+H]+
m/z	relative intensity
51.0212	10
65.038	10
68.9961	20
77.0376	63
89.0382	20
101.0396	16
102.0453	32
115.0535	71
126.0464	30
127.0541	51
128.0613	30
137.0316	18
139.0534	73
149.038	14
150.0467	59
151.0548	141
152.0622	143
155.0505	22
162.0454	20
163.0549	129
164.0604	30
165.0693	61
174.0472	20
175.0565	71
176.0617	262
177.066	26
178.0783	38
181.0631	10
186.0479	14
187.0552	184
188.063	114
189.0697	387
198.0458	10
199.0541	45
200.0622	619
201.0702	514
202.0782	999
203.0865	26
205.0626	43
211.0527	108
212.0657	38
213.0703	453
214.0746	18
215.0842	49
218.0748	12
221.0615	12
224.0607	26
229.0638	131
230.0756	20
231.0777	30
242.071	30
258.0674	69
287.0682	14
