Mass spectrum: Tiamulin; LC-ESI-QTOF; MS2; 140 V
Name: Tiamulin
Class: Antimicrobial; Pharmaceutical
Formula: C28H47NO4S
Exact mass: 493.3226
SMILES: CCN(CC)CCSCC(=O)OC1CC(C(C(C23CCC(C1(C2C(=O)CC3)C)C)C)O)(C)C=C
InChI: InChI=1S/C28H47NO4S/c1-8-26(6)17-22(33-23(31)18-34-16-15-29(9-2)10-3)27(7)19(4)11-13-28(20(5)25(26)32)14-12-21(30)24(27)28/h8,19-20,22,24-25,32H,1,9-18H2,2-7H3
Instrument: TripleTOF 6600 SCIEX
Instrument type: LC-ESI-QTOF
Ms type: MS2
Ion mode: POSITIVE
Collision energy: 140
Fragmentation mode: CID
Ionization: ESI
Column name: Zorbax Eclipse Plus C18 2.1 mm x 150 mm, 3.5 um, Agilent
Retention time: 8.661 min
Precursor m/z: 494.3299
Precursor type: [M+H]+
m/z	relative intensity
37.0071	35
38.0147	25
39.0225	248
41.0384	273
43.0177	138
43.0546	14
44.0496	27
44.9791	750
45.0331	18
46.9944	79
50.0146	15
51.0227	106
53.0383	76
55.0171	35
55.0537	126
60.0023	12
61.0099	15
62.9891	37
63.0216	15
65.0375	252
66.0452	19
67.0536	124
73.0094	180
74.095	27
77.0378	999
78.0452	62
79.0534	459
80.0623	10
81.0685	63
89.0377	27
91.0533	915
92.0613	13
93.0687	59
95.0479	20
102.045	28
103.0519	165
104.0606	51
105.0431	18
105.0689	266
107.0471	16
107.0843	17
109.0641	10
115.0533	527
116.0606	77
117.0681	152
118.076	19
119.0834	65
121.0642	11
126.045	14
127.0536	115
128.0609	470
129.0691	207
130.0784	23
131.0502	16
131.085	30
133.0625	15
141.0685	266
142.0764	65
143.0849	29
151.0521	10
152.0613	113
153.0679	117
154.0751	24
155.0572	17
155.0843	48
165.0687	136
166.0762	24
167.0842	29
178.0763	28
179.0836	24
