Mass spectrum: Mirtazapine; LC-ESI-QTOF; MS2; 60 V
Name: Mirtazapine
Class: Pharmaceutical
Formula: C17H19N3
Exact mass: 265.1579
SMILES: CN1CCN2C(C1)C3=CC=CC=C3CC4=C2N=CC=C4
InChI: InChI=1S/C17H19N3/c1-19-9-10-20-16(12-19)15-7-3-2-5-13(15)11-14-6-4-8-18-17(14)20/h2-8,16H,9-12H2,1H3
Instrument: TripleTOF 5600 SCIEX
Instrument type: LC-ESI-QTOF
Ms type: MS2
Ion mode: POSITIVE
Collision energy: 60
Fragmentation mode: CID
Ionization: ESI
Column name: Zorbax Eclipse Plus C18 2.1 mm x 150 mm, 3.5 um, Agilent
Retention time: 5.459 min
Precursor m/z: 266.1652
Precursor type: [M+H]+
m/z	relative intensity
58.0743	13
65.0457	59
70.0709	12
72.0863	80
77.0432	14
78.0394	20
89.0415	13
90.0384	16
91.0566	42
92.0522	100
103.0567	21
105.071	13
115.0554	78
116.0502	46
117.0462	55
127.0554	21
128.0571	27
129.0642	10
130.0659	45
131.0634	37
139.056	17
140.058	27
141.0693	43
144.0807	27
150.0463	10
151.0551	101
152.0613	59
153.062	46
154.0635	19
165.0697	29
166.0654	65
167.0732	258
168.0813	149
177.0575	29
178.0655	123
179.0729	123
180.0804	128
181.0811	20
191.0724	31
192.0716	40
193.0767	217
194.0839	999
195.0919	573
205.0745	39
206.0823	19
207.0888	41
209.1076	14
216.0833	10
218.0848	34
219.0916	61
