Mass spectrum: Dimethenamid-ESA; LC-ESI-QTOF; MS2; 70 V
Name: Dimethenamid-ESA
Class: Transformation_product; Herbicide; Metabolite
Formula: C12H19NO5S2
Exact mass: 321.0705
SMILES: CC1=CSC(=C1N(C(C)COC)C(=O)CS(=O)(=O)O)C
InChI: InChI=1S/C12H19NO5S2/c1-8-6-19-10(3)12(8)13(9(2)5-18-4)11(14)7-20(15,16)17/h6,9H,5,7H2,1-4H3,(H,15,16,17)
Instrument: TripleTOF 6600 SCIEX
Instrument type: LC-ESI-QTOF
Ms type: MS2
Ion mode: POSITIVE
Collision energy: 70
Fragmentation mode: CID
Ionization: ESI
Column name: Zorbax Eclipse Plus C18 2.1 mm x 150 mm, 3.5 um, Agilent
Retention time: 7.036 min
Precursor m/z: 322.0778
Precursor type: [M+H]+
m/z	relative intensity
39.0233	84
41.0389	132
42.0342	58
43.0178	84
44.9797	89
45.0336	185
51.0232	31
53.0385	47
55.0541	31
58.995	137
59.9896	37
65.0395	227
66.0462	42
67.0547	179
68.0498	26
70.9954	105
73.0657	26
77.0387	290
78.0457	121
79.0536	174
80.0493	216
81.0585	31
81.0688	47
82.0654	68
85.0114	74
91.042	31
91.0541	354
92.0498	47
93.0575	158
93.0693	79
94.0654	581
95.0728	206
97.0107	417
98.0185	31
99.0263	121
103.055	31
104.0485	158
105.0572	169
105.0688	84
106.0645	142
107.0722	58
107.0854	31
108.0808	190
109.011	84
110.0189	52
111.026	697
112.022	137
112.0335	63
113.031	52
113.0407	26
115.0554	111
116.0617	26
117.0575	148
117.068	74
118.0646	597
119.0351	52
119.0729	750
120.0798	195
121.0094	26
122.0066	31
122.0958	47
123.0127	47
123.0255	52
124.0215	222
125.0291	84
125.0416	290
126.0372	999
127.0446	47
128.0523	47
132.0805	227
133.0884	179
134.0184	121
134.096	311
135.0261	163
136.0215	158
137.0295	253
138.0369	491
139.0453	31
140.0514	68
148.0204	42
149.042	121
150.0367	486
151.0446	264
152.0167	829
152.0527	755
153.0612	31
164.0517	37
166.0318	190
166.0681	248
