Mass spectrum: 2-Morpholin-4-yl-benzothiazole; LC-ESI-QTOF; MS2; 60 V
Name: 2-Morpholin-4-yl-benzothiazole
Class: Industrial_process
Formula: C11H12N2OS
Exact mass: 220.067
SMILES: c1ccc2c(c1)nc(s2)N3CCOCC3
InChI: InChI=1S/C11H12N2OS/c1-2-4-10-9(3-1)12-11(15-10)13-5-7-14-8-6-13/h1-4H,5-8H2
Instrument: TripleTOF 5600 SCIEX
Instrument type: LC-ESI-QTOF
Ms type: MS2
Ion mode: POSITIVE
Collision energy: 60
Fragmentation mode: CID
Ionization: ESI
Column name: Zorbax Eclipse Plus C18 2.1 mm x 150 mm, 3.5 um, Agilent
Retention time: 9.363 min
Precursor m/z: 221.0743
Precursor type: [M+H]+
m/z	relative intensity
45.0414	15
55.059	13
65.0438	378
68.9829	75
77.0415	107
79.0571	21
80.0525	136
89.0399	31
90.0372	33
90.0474	24
91.0438	19
91.0555	34
92.0497	24
96.0039	67
97.0122	11
104.0496	10
105.0447	30
105.0692	12
106.064	23
106.9964	15
108.0029	155
109.0115	999
116.0505	33
117.0574	173
118.0516	26
122.0055	24
123.0134	50
124.0211	72
134.0052	63
135.0134	94
136.0216	244
148.0208	36
149.0285	49
150.0341	151
151.0314	49
162.0364	14
163.0312	19
175.0321	83
177.0465	23
189.0478	11
