Mass spectrum: Rifaximin; LC-ESI-QTOF; MS2; 110 V
Name: Rifaximin
Class: Pharmaceutical
Formula: C43H51N3O11
Exact mass: 785.3524
SMILES: CC1C=CC=C(C(=O)NC2=C(C3=C(C4=C(C(=C3O)C)OC(C4=O)(OC=CC(C(C(C(C(C(C1O)C)O)C)OC(=O)C)C)OC)C)C5=C2N6C=CC(=CC6=N5)C)O)C
InChI: InChI=1S/C43H51N3O11/c1-19-14-16-46-28(18-19)44-32-29-30-37(50)25(7)40-31(29)41(52)43(9,57-40)55-17-15-27(54-10)22(4)39(56-26(8)47)24(6)36(49)23(5)35(48)20(2)12-11-13-21(3)42(53)45-33(34(32)46)38(30)51/h11-18,20,22-24,27,35-36,39,48-51H,1-10H3,(H,45,53)
Instrument: TripleTOF 6600 SCIEX
Instrument type: LC-ESI-QTOF
Ms type: MS2
Ion mode: POSITIVE
Collision energy: 110
Fragmentation mode: CID
Ionization: ESI
Column name: Zorbax Eclipse Plus C18 2.1 mm x 150 mm, 3.5 um, Agilent
Retention time: 11.765 min
Precursor m/z: 808.3416
Precursor type: [M+Na]+
m/z	relative intensity
67.0538	81
79.0545	61
81.0698	61
91.0547	142
93.0706	71
95.0499	61
95.0856	173
105.0692	112
107.0846	81
109.0636	91
123.0797	61
245.1103	61
248.0944	132
249.1023	122
263.116	112
264.0886	50
273.1033	81
276.0918	142
277.0988	305
290.103	61
291.1132	326
301.0997	316
304.0839	101
305.0924	163
313.0848	142
317.0922	122
319.1088	458
329.0932	295
332.0833	132
332.0966	71
334.1134	50
340.0689	152
345.0874	50
346.0971	61
347.1035	999
354.085	224
355.0935	142
360.0995	61
361.1106	50
362.1154	224
368.0706	61
369.0862	132
370.0944	61
382.0813	795
383.0889	856
384.0957	142
385.1025	132
