Mass spectrum: Acetylsulfamethoxazole; LC-ESI-QTOF; MS2; 90 V
Name: Acetylsulfamethoxazole
Class: Metabolite; Pharmaceutical
Formula: C12H13N3O4S
Exact mass: 295.0627
SMILES: CC1=CC(=NO1)NS(=O)(=O)C2=CC=C(C=C2)NC(=O)C
InChI: InChI=1S/C12H13N3O4S/c1-8-7-12(14-19-8)15-20(17,18)11-5-3-10(4-6-11)13-9(2)16/h3-7H,1-2H3,(H,13,16)(H,14,15)
Instrument: TripleTOF 5600 SCIEX
Instrument type: LC-ESI-QTOF
Ms type: MS2
Ion mode: POSITIVE
Collision energy: 90
Fragmentation mode: CID
Ionization: ESI
Column name: Zorbax Eclipse Plus C18 2.1 mm x 150 mm, 3.5 um, Agilent
Retention time: 7.411 min
Precursor m/z: 296.07
Precursor type: [M+H]+
m/z	relative intensity
43.0289	63
43.0366	42
65.0456	999
66.0536	31
77.0435	260
78.0371	69
79.0574	37
80.0542	441
91.0446	42
92.0549	154
93.0598	143
94.0676	26
102.0337	26
104.0495	31
106.0663	21
107.0618	21
108.0456	116
119.0616	26
146.0736	26
