Mass spectrum: Bezafibrate-d4; LC-ESI-QTOF; MS2; 40 V
Name: Bezafibrate-d4
Class: Surrogate_standard
Formula: C19H16ClNO4 2H4
Exact mass: 365.1332
InChI: InChI=1S/C19H20ClNO4/c1-19(2,18(23)24)25-16-9-3-13(4-10-16)11-12-21-17(22)14-5-7-15(20)8-6-14/h3-10H,11-12H2,1-2H3,(H,21,22)(H,23,24)/i5D,6D,7D,8D
Instrument: TripleTOF 6600 SCIEX
Instrument type: LC-ESI-QTOF
Ms type: CID
Ion mode: POSITIVE
Collision energy: 40
Ionization: ESI
Column name: Zorbax Eclipse Plus C18 2.1 mm x 150 mm, 3.5 um, Agilent
Retention time: 11.05 min
Precursor m/z: 366.1393
Precursor type: [M+H]+
m/z	relative intensity
77.0341	9
91.0539	16
93.0691	8
103.0503	31
115.0234	34
119.0871	7
120.0635	11
121.0631	470
142.0108	12
143.0181	999
144.0087	7
161.0934	98
178.1214	14
207.1008	33
266.0231	14
280.101	253
320.1344	464
348.1351	16
366.1418	16
