Mass spectrum: 2-(Morpholinodithio)benzothiazole; LC-ESI-QTOF; MS2; 50 V
Name: 2-(Morpholinodithio)benzothiazole
Class: Industrial_process
Formula: C11H12N2OS3
Exact mass: 284.0112
SMILES: C1COCCN1SSC2=NC3=CC=CC=C3S2
InChI: InChI=1S/C11H12N2OS3/c1-2-4-10-9(3-1)12-11(15-10)16-17-13-5-7-14-8-6-13/h1-4H,5-8H2
Instrument: TripleTOF 5600 SCIEX
Instrument type: LC-ESI-QTOF
Ms type: MS2
Ion mode: POSITIVE
Collision energy: 50
Fragmentation mode: CID
Ionization: ESI
Column name: Zorbax Eclipse Plus C18 2.1 mm x 150 mm, 3.5 um, Agilent
Retention time: 13.833 min
Precursor m/z: 285.0185
Precursor type: [M+H]+
m/z	relative intensity
44.0618	33
56.0588	147
58.0714	19
59.0058	23
59.9992	542
61.0206	118
74.0675	19
84.0467	19
86.0637	152
88.0256	470
89.0087	71
90.0407	166
90.0533	19
108.0087	33
109.0136	28
118.034	999
122.0058	42
123.0187	28
124.0224	19
135.0154	71
136.0213	42
139.9732	47
165.9798	223
166.9861	437
167.9937	280
199.9636	28
