Mass spectrum: 2,2`-Dihydroxy-4-methoxybenzophenone; LC-ESI-QTOF; MS2; 50 V
Name: 2,2`-Dihydroxy-4-methoxybenzophenone
Class: Personal_care_product
Formula: C14H12O4
Exact mass: 244.0736
SMILES: COc1ccc(c(O)c1)C(=O)c2ccccc2O
InChI: InChI=1S/C14H12O4/c1-18-9-6-7-11(13(16)8-9)14(17)10-4-2-3-5-12(10)15/h2-8,15-16H,1H3
Instrument: TripleTOF 5600 SCIEX
Instrument type: LC-ESI-QTOF
Ms type: MS2
Ion mode: POSITIVE
Collision energy: 50
Fragmentation mode: CID
Ionization: ESI
Column name: Zorbax Eclipse Plus C18 2.1 mm x 150 mm, 3.5 um, Agilent
Retention time: 11.753 min
Precursor m/z: 245.0808
Precursor type: [M+H]+
m/z	relative intensity
65.043	736
67.0592	23
77.0411	13
80.0281	43
93.0346	438
95.0499	289
102.0452	13
108.0204	135
121.0288	999
121.0654	9
123.0436	31
128.0611	37
139.0539	19
151.0388	356
