Mass spectrum: Carazolol; LC-ESI-QTOF; MS2; 110 V
Name: Carazolol
Class: Pharmaceutical
Formula: C18H22N2O2
Exact mass: 298.1681
SMILES: CC(C)NCC(O)COc1cccc2[nH]c3ccccc3c12
InChI: InChI=1S/C18H22N2O2/c1-12(2)19-10-13(21)11-22-17-9-5-8-16-18(17)14-6-3-4-7-15(14)20-16/h3-9,12-13,19-21H,10-11H2,1-2H3
Instrument: TripleTOF 5600 SCIEX
Instrument type: LC-ESI-QTOF
Ms type: MS2
Ion mode: POSITIVE
Collision energy: 110
Fragmentation mode: CID
Ionization: ESI
Column name: Zorbax Eclipse Plus C18 2.1 mm x 150 mm, 3.5 um, Agilent
Retention time: 6.882 min
Precursor m/z: 299.1754
Precursor type: [M+H]+
m/z	relative intensity
56.0559	118
58.0714	50
65.0419	45
72.0847	24
74.0174	28
74.063	24
75.0259	94
76.0346	26
77.041	261
78.0494	41
86.016	22
87.0238	45
88.0322	30
89.0403	349
90.0479	60
91.0565	22
98.0158	15
99.0232	11
101.0391	120
102.0469	118
103.0558	18
113.0386	269
114.0388	105
115.0539	240
116.0497	37
117.0566	47
125.0374	39
126.0467	152
127.054	451
128.061	539
129.0446	15
129.0718	16
130.0659	28
137.0375	39
138.0457	75
139.0544	999
140.0495	507
140.0803	15
141.0562	15
141.0703	13
149.0377	9
150.0463	86
151.0543	107
152.0485	28
152.062	71
153.0569	60
154.065	293
155.0669	20
163.0541	82
164.057	111
165.0689	124
166.065	402
167.0732	156
176.0623	20
177.0562	45
178.0644	48
189.0574	18
190.0651	141
190.0896	15
191.0736	225
192.0804	31
202.0654	15
203.0719	13
