Mass spectrum: Tetrahydroharman-3-carboxylic acid; LC-ESI-QTOF; MS2; 80 V
Name: Tetrahydroharman-3-carboxylic acid
Formula: C13H14N2O2
Exact mass: 230.1055
SMILES: CC1C2=C(CC(N1)C(=O)O)C3=CC=CC=C3N2
InChI: InChI=1S/C13H14N2O2/c1-7-12-9(6-11(14-7)13(16)17)8-4-2-3-5-10(8)15-12/h2-5,7,11,14-15H,6H2,1H3,(H,16,17)
Instrument: TripleTOF 6600 SCIEX
Instrument type: LC-ESI-QTOF
Ms type: MS2
Ion mode: POSITIVE
Collision energy: 80
Fragmentation mode: CID
Ionization: ESI
Column name: Zorbax Eclipse Plus C18 2.1 mm x 150 mm, 3.5 um, Agilent
Retention time: 5.62 min
Precursor m/z: 231.1128
Precursor type: [M+H]+
m/z	relative intensity
39.0229	27
50.0146	10
51.0228	87
61.0057	11
62.0127	22
63.0218	68
65.0379	68
74.0141	23
75.022	88
76.0297	24
77.0381	484
78.0454	15
89.038	398
90.0455	167
91.0529	122
101.0365	116
102.0324	14
102.0455	90
103.0533	96
113.0375	15
114.0451	22
115.0538	999
116.0491	39
116.0608	40
117.0567	206
126.0445	26
127.0528	86
128.0544	471
129.0432	46
129.0653	20
130.0639	147
139.0533	119
140.0487	91
141.0575	41
142.0638	109
143.0701	110
154.064	90
155.0601	23
156.0782	27
166.0633	141
167.0725	192
168.0809	15
