Mass spectrum: Febantel; LC-ESI-QTOF; MS2; 140 V
Name: Febantel
Class: Pharmaceutical
Formula: C20H22N4O6S
Exact mass: 446.126
SMILES: COCC(=O)Nc1cc(Sc2ccccc2)ccc1NC(NC(=O)OC)=NC(=O)OC
InChI: InChI=1S/C20H22N4O6S/c1-28-12-17(25)21-16-11-14(31-13-7-5-4-6-8-13)9-10-15(16)22-18(23-19(26)29-2)24-20(27)30-3/h4-11H,12H2,1-3H3,(H,21,25)(H2,22,23,24,26,27)
Instrument: TripleTOF 5600 SCIEX
Instrument type: LC-ESI-QTOF
Ms type: MS2
Ion mode: POSITIVE
Collision energy: 140
Fragmentation mode: CID
Ionization: ESI
Column name: Zorbax Eclipse Plus C18 2.1 mm x 150 mm, 3.5 um, Agilent
Retention time: 13.085 min
Precursor m/z: 447.1333
Precursor type: [M+H]+
m/z	relative intensity
45.0421	631
45.0748	48
51.0289	132
52.0248	42
52.039	42
63.0434	30
64.0352	132
65.031	54
65.0428	433
68.0155	30
68.9833	343
69.0101	36
69.0198	36
69.996	54
74.0178	36
75.0131	72
75.0252	108
76.0234	379
76.0447	48
76.0734	30
77.0297	439
77.0403	487
77.0672	30
78.0362	252
78.0494	48
79.0458	90
79.0581	36
80.0527	54
81.9895	30
83.027	48
88.0196	84
89.0285	210
89.0397	84
90.0352	240
90.0467	36
90.0619	42
91.0288	48
91.0437	541
92.0385	54
92.0502	54
92.9819	42
93.0586	72
93.9734	30
94.9962	126
96.0023	30
101.027	60
101.0399	42
102.0352	114
102.0492	36
103.0342	282
104.0372	722
105.044	240
106.0545	48
108.0031	48
109.0108	126
113.0387	144
114.047	66
115.0279	66
115.0536	210
116.0373	529
117.0445	180
118.0513	409
118.0776	24
119.0587	36
119.9914	66
121.0007	36
122.0062	210
123.0145	30
125.0391	48
125.0552	36
126.0456	186
127.0541	589
128.039	24
128.0599	78
129.0446	96
130.0392	174
131.0277	30
131.0503	343
134.0176	48
135.0021	36
137.0395	102
138.0466	150
139.0543	999
140.0494	457
141.0533	30
142.0372	42
143.0464	60
144.0553	66
145.0105	60
145.0399	36
145.0629	36
146.0353	42
146.9992	42
147.0254	30
150.046	180
151.0537	174
152.0558	349
153.0565	96
154.0656	90
158.0178	72
158.0304	36
159.0128	42
159.0423	132
163.0427	54
164.0491	505
165.0561	84
166.0665	114
167.078	42
169.0104	162
170.0163	144
171.0261	794
172.023	60
172.0502	114
175.041	30
176.0496	48
177.058	180
178.0528	42
179.0582	30
182.0179	132
183.0167	186
184.0308	144
185.0262	30
186.034	36
191.0594	30
192.0694	42
193.0705	24
195.015	66
196.0215	583
197.0301	102
198.0373	54
208.022	90
209.0306	180
210.0235	102
211.033	72
223.0337	36
224.041	138
265.0344	24
