Mass spectrum: Ethofumesate; LC-ESI-QTOF; MS2; 90 V
Name: Ethofumesate
Class: Herbicide
Formula: C13H18O5S
Exact mass: 286.0875
SMILES: CCOC1C(c2cc(ccc2O1)OS(=O)(=O)C)(C)C
InChI: InChI=1S/C13H18O5S/c1-5-16-12-13(2,3)10-8-9(18-19(4,14)15)6-7-11(10)17-12/h6-8,12H,5H2,1-4H3
Instrument: TripleTOF 6600 SCIEX
Instrument type: LC-ESI-QTOF
Ms type: MS2
Ion mode: POSITIVE
Collision energy: 90
Fragmentation mode: CID
Ionization: ESI
Column name: Zorbax Eclipse Plus C18 2.1 mm x 150 mm, 3.5 um, Agilent
Retention time: 12.56 min
Precursor m/z: 287.0948
Precursor type: [M+H]+
m/z	relative intensity
37.0065	66
39.0241	66
41.0396	66
43.0181	199
51.0226	266
53.0392	133
65.0377	333
77.0379	999
79.0547	133
89.0381	133
91.0527	266
103.0547	66
115.0535	266
