Mass spectrum: 1-Hydroxybenzotriazol; LC-ESI-QTOF; MS2; 80 V
Name: 1-Hydroxybenzotriazol
Class: Pharmaceutical; Industrial_process; Transformation_product
Formula: C6H5N3O
Exact mass: 135.0433
SMILES: c1ccc2c(c1)nnn2O
InChI: InChI=1S/C6H5N3O/c10-9-6-4-2-1-3-5(6)7-8-9/h1-4,10H
Instrument: TripleTOF 5600 SCIEX
Instrument type: LC-ESI-QTOF
Ms type: MS2
Ion mode: POSITIVE
Collision energy: 80
Fragmentation mode: CID
Ionization: ESI
Column name: Zorbax Eclipse Plus C18 2.1 mm x 150 mm, 3.5 um, Agilent
Retention time: 5.24 min
Precursor m/z: 136.0505
Precursor type: [M+H]+
m/z	relative intensity
41.0363	12
49.0141	15
50.0223	33
51.016	18
51.0273	45
52.025	260
60.0036	64
61.0129	401
62.0206	784
63.0279	999
64.0227	21
64.0342	12
65.0302	42
75.0136	33
76.0221	33
