Mass spectrum: Cyproterone; LC-ESI-QTOF; MS2; 90 V
Name: Cyproterone
Class: Pharmaceutical
Formula: C22H27ClO3
Exact mass: 374.1649
SMILES: CC(=O)C1(CCC2C1(CCC3C2C=C(C4=CC(=O)C5CC5C34C)Cl)C)O
InChI: InChI=1S/C22H27ClO3/c1-11(24)22(26)7-5-14-12-9-18(23)17-10-19(25)13-8-16(13)21(17,3)15(12)4-6-20(14,22)2/h9-10,12-16,26H,4-8H2,1-3H3
Instrument: TripleTOF 5600 SCIEX
Instrument type: LC-ESI-QTOF
Ms type: MS2
Ion mode: POSITIVE
Collision energy: 90
Fragmentation mode: CID
Ionization: ESI
Column name: Zorbax Eclipse Plus C18 2.1 mm x 150 mm, 3.5 um, Agilent
Retention time: 11.881 min
Precursor m/z: 375.1721
Precursor type: [M+H]+
m/z	relative intensity
41.038	28
43.0179	269
51.0227	28
55.0543	35
59.0503	42
65.0388	77
67.0537	70
77.0386	418
78.0472	35
79.0538	177
83.048	42
89.0411	49
91.054	694
93.0685	77
94.0409	49
102.0473	35
103.0535	113
104.063	35
105.0698	262
107.0493	42
115.0545	644
116.0619	106
117.07	120
119.0853	42
121.0648	35
125.0128	35
126.0489	28
127.0541	226
128.0626	602
129.0687	304
130.0768	70
131.0488	77
131.0855	49
132.0578	35
133.1026	42
139.0546	49
141.0691	644
142.0768	141
143.0875	49
144.0531	63
145.0637	49
151.0544	85
152.0618	510
153.0683	368
154.0787	92
155.0532	35
155.0858	120
157.0673	77
164.0626	49
165.0695	999
166.0758	148
167.085	170
168.0564	42
168.0915	42
169.0657	70
169.1007	49
176.0645	63
177.0691	70
178.077	680
179.0871	368
180.0952	92
181.0642	141
181.0984	70
182.0712	49
183.0851	42
189.069	304
190.0774	233
191.0845	396
192.0905	127
193.0997	106
194.0709	49
195.1179	77
201.0701	28
202.0766	403
203.0857	333
204.0956	106
205.0629	63
205.102	177
206.1141	35
207.0796	113
208.0878	35
215.0839	375
216.0924	77
217.097	92
218.0718	77
219.0814	92
219.1166	49
220.0832	49
221.097	56
226.0742	35
227.0891	35
228.0938	99
229.1019	85
230.1145	35
231.0826	77
232.0904	77
233.0967	42
234.0986	35
234.1094	35
239.086	42
247.1096	35
