Mass spectrum: Ritalinic acid; LC-ESI-QTOF; MS2; 70 V
Name: Ritalinic acid
Class: Pharmaceutical; Metabolite
Formula: C13H17NO2
Exact mass: 219.1259
SMILES: OC(=O)C(C1CCCCN1)c2ccccc2
InChI: InChI=1S/C13H17NO2/c15-13(16)12(10-6-2-1-3-7-10)11-8-4-5-9-14-11/h1-3,6-7,11-12,14H,4-5,8-9H2,(H,15,16)
Instrument: TripleTOF 5600 SCIEX
Instrument type: LC-ESI-QTOF
Ms type: MS2
Ion mode: POSITIVE
Collision energy: 70
Fragmentation mode: CID
Ionization: ESI
Column name: Zorbax Eclipse Plus C18 2.1 mm x 150 mm, 3.5 um, Agilent
Retention time: 4.91 min
Precursor m/z: 220.1332
Precursor type: [M+H]+
m/z	relative intensity
55.0536	102
56.0497	635
65.0382	102
67.0549	45
68.0495	45
69.0567	56
77.0381	102
84.0806	999
91.0536	249
115.0549	147
127.0552	45
128.0624	124
