Mass spectrum: 2,4-Dichlorophenoxyacetic acid; LC-ESI-QTOF; MS2; 110 V
Name: 2,4-Dichlorophenoxyacetic acid
Class: Herbicide
Formula: C8H6Cl2O3
Exact mass: 219.9694
SMILES: c1cc(c(cc1Cl)Cl)OCC(=O)O
InChI: InChI=1S/C8H6Cl2O3/c9-5-1-2-7(6(10)3-5)13-4-8(11)12/h1-3H,4H2,(H,11,12)
Instrument: TripleTOF 6600 SCIEX
Instrument type: LC-ESI-QTOF
Ms type: CID
Ion mode: NEGATIVE
Collision energy: 110
Ionization: ESI
Column name: Zorbax Eclipse Plus C18 2.1 mm x 150 mm, 3.5 um, Agilent
Retention time: 10.224 min
Precursor m/z: 218.9621
Precursor type: [M-H]-
m/z	relative intensity
34.9699	999
