Mass spectrum: Disperse Orange 37; LC-ESI-QTOF; MS2; 40 V
Name: Disperse Orange 37
Formula: C17H15Cl2N5O2
Exact mass: 391.0603
SMILES: CCN(CCC#N)C1=CC=C(C=C1)N=NC2=C(C=C(C=C2Cl)[N+](=O)[O-])Cl
InChI: InChI=1S/C17H15Cl2N5O2/c1-2-23(9-3-8-20)13-6-4-12(5-7-13)21-22-17-15(18)10-14(24(25)26)11-16(17)19/h4-7,10-11H,2-3,9H2,1H3
Instrument: TripleTOF X500R SCIEX
Instrument type: LC-ESI-QTOF
Ms type: MS2
Ion mode: POSITIVE
Collision energy: 40
Fragmentation mode: CID
Ionization: ESI
Column name: Zorbax Eclipse Plus C18 2.1 mm x 150 mm, 3.5 um, Agilent
Retention time: 15.169 min
Precursor m/z: 392.0676
Precursor type: [M+H]+
m/z	relative intensity
92.0499	14
104.0501	26
105.0582	41
106.0655	13
106.9455	16
118.0658	22
119.0614	24
120.0817	123
133.0894	169
134.097	39
143.9535	22
145.0763	74
147.092	66
148.0873	30
172.0875	29
173.0836	11
173.1064	10
187.1108	20
189.9461	60
217.9534	56
242.0759	10
277.0183	45
305.0504	146
317.0817	53
323.0109	295
338.0349	22
346.0762	22
351.042	999
352.048	111
364.0391	19
392.0688	224
