Mass spectrum: Leucomalachite green; LC-ESI-QTOF; MS2; 110 V
Name: Leucomalachite green
Class: Metabolite
Formula: C23H26N2
Exact mass: 330.2096
SMILES: CN(C)C1=CC=C(C=C1)C(C2=CC=CC=C2)C3=CC=C(C=C3)N(C)C
InChI: InChI=1S/C23H26N2/c1-24(2)21-14-10-19(11-15-21)23(18-8-6-5-7-9-18)20-12-16-22(17-13-20)25(3)4/h5-17,23H,1-4H3
Instrument: TripleTOF 6600 SCIEX
Instrument type: LC-ESI-QTOF
Ms type: MS2
Ion mode: POSITIVE
Collision energy: 110
Fragmentation mode: CID
Ionization: ESI
Column name: Zorbax Eclipse Plus C18 2.1 mm x 150 mm, 3.5 um, Agilent
Retention time: 9.974 min
Precursor m/z: 331.2169
Precursor type: [M+H]+
m/z	relative intensity
51.0226	11
63.0222	11
65.0371	15
77.0377	39
89.0368	25
91.0528	19
102.0451	11
115.053	111
126.0456	35
127.0527	67
128.0606	37
130.0627	15
139.0534	101
140.049	23
141.0686	25
142.0684	13
144.0795	13
150.0448	37
151.0526	173
152.061	999
153.0686	603
154.0626	17
154.0751	21
155.0592	13
156.081	11
163.053	139
164.061	199
165.0687	783
166.0721	153
167.0715	75
168.08	21
170.0969	11
176.06	11
177.0573	33
178.0652	77
179.0707	111
180.0797	343
181.0866	77
182.0947	11
189.068	31
191.0733	25
192.0777	51
193.0744	11
193.0879	47
194.0953	373
195.1032	37
196.1113	31
200.0614	11
201.068	15
202.0768	45
205.0742	17
206.084	13
207.0898	81
208.0973	57
213.0685	29
215.0828	43
221.1042	17
223.1214	49
225.0684	11
226.0775	103
227.0849	41
228.092	67
229.0972	17
237.0688	19
238.0768	13
239.0853	81
240.0851	23
241.0956	29
252.0774	11
253.09	13
254.0943	55
255.1023	19
256.1121	15
268.1091	11
