Mass spectrum: Flavanone; LC-ESI-QTOF; MS2; 100 V
Name: Flavanone
Class: Personal_care_product
Formula: C15H12O2
Exact mass: 224.0837
SMILES: C1C(OC2=CC=CC=C2C1=O)C3=CC=CC=C3
InChI: InChI=1S/C15H12O2/c16-13-10-15(11-6-2-1-3-7-11)17-14-9-5-4-8-12(13)14/h1-9,15H,10H2
Instrument: TripleTOF 5600 SCIEX
Instrument type: LC-ESI-QTOF
Ms type: MS2
Ion mode: POSITIVE
Collision energy: 100
Fragmentation mode: CID
Ionization: ESI
Column name: Zorbax Eclipse Plus C18 2.1 mm x 150 mm, 3.5 um, Agilent
Retention time: 12.61 min
Precursor m/z: 225.091
Precursor type: [M+H]+
m/z	relative intensity
37.0065	99
38.0148	122
39.0228	399
50.015	199
51.0229	921
53.0024	44
62.0128	55
63.024	88
65.0385	344
74.0154	188
75.023	133
76.0318	55
77.0385	999
98.0146	55
102.0465	133
126.0459	99
127.051	55
149.0406	88
150.0469	366
151.0545	244
152.0629	144
176.0618	77
