Mass spectrum: 3-Methyl-4-(methylthio)phenol; LC-ESI-QTOF; MS2; 80 V
Name: 3-Methyl-4-(methylthio)phenol
Class: Industrial_process
Formula: C8H10OS
Exact mass: 154.0452
SMILES: CC1=C(C=CC(=C1)O)SC
InChI: InChI=1S/C8H10OS/c1-6-5-7(9)3-4-8(6)10-2/h3-5,9H,1-2H3
Instrument: TripleTOF 6600 SCIEX
Instrument type: LC-ESI-QTOF
Ms type: MS2
Ion mode: POSITIVE
Collision energy: 80
Fragmentation mode: CID
Ionization: ESI
Column name: Zorbax Eclipse Plus C18 2.1 mm x 150 mm, 3.5 um, Agilent
Retention time: 9.802 min
Precursor m/z: 155.0525
Precursor type: [M+H]+
m/z	relative intensity
37.0075	161
39.0236	242
44.9799	242
50.0155	647
51.0233	999
63.0237	134
77.0386	404
