Mass spectrum: Dronabinol; LC-ESI-QTOF; MS2; 120 V
Name: Dronabinol
Class: Pharmaceutical
Formula: C21H30O2
Exact mass: 314.2246
SMILES: CCCCCC1=CC(=C2C3C=C(CCC3C(OC2=C1)(C)C)C)O
InChI: InChI=1S/C21H30O2/c1-5-6-7-8-15-12-18(22)20-16-11-14(2)9-10-17(16)21(3,4)23-19(20)13-15/h11-13,16-17,22H,5-10H2,1-4H3
Instrument: TripleTOF 6600 SCIEX
Instrument type: LC-ESI-QTOF
Ms type: MS2
Ion mode: POSITIVE
Collision energy: 120
Fragmentation mode: CID
Ionization: ESI
Column name: Zorbax Eclipse Plus C18 2.1 mm x 150 mm, 3.5 um, Agilent
Retention time: 17.589 min
Precursor m/z: 315.2319
Precursor type: [M+H]+
m/z	relative intensity
35.9997	19
37.0072	153
38.0034	15
38.0142	122
39.0225	999
41.0382	485
43.0172	27
43.0541	23
49.0077	19
50.0142	90
51.0222	442
53.0379	51
55.0172	27
63.0217	55
65.038	323
66.0448	27
67.0534	31
74.0138	23
75.0221	31
76.0309	35
77.0377	927
78.046	82
79.0525	153
89.0377	110
91.0527	343
102.0453	47
103.0513	47
105.0411	27
107.0498	27
115.0535	307
116.0632	15
126.0443	23
127.0517	59
128.0594	134
131.0474	23
139.0512	31
141.067	27
152.0583	75
163.0552	19
165.0677	23
