Mass spectrum: Emtricitabine S-oxide; LC-ESI-QTOF; MS2; 30 V
Name: Emtricitabine S-oxide
Class: Metabolite
Formula: C8H10FN3O4S
Exact mass: 263.0376
SMILES: C1C(OC(S1=O)CO)N2C=C(C(=NC2=O)N)F
InChI: InChI=1S/C8H10FN3O4S/c9-4-1-12(8(14)11-7(4)10)5-3-17(15)6(2-13)16-5/h1,5-6,13H,2-3H2,(H2,10,11,14)
Instrument: TripleTOF 5600 SCIEX
Instrument type: LC-ESI-QTOF
Ms type: MS2
Ion mode: POSITIVE
Collision energy: 30
Fragmentation mode: CID
Ionization: ESI
Column name: Zorbax Eclipse Plus C18 2.1 mm x 150 mm, 3.5 um, Agilent
Retention time: 2.868 min
Precursor m/z: 264.0449
Precursor type: [M+H]+
m/z	relative intensity
113.0132	25
130.0401	999
156.0573	22
172.0498	35
246.0265	12
