Mass spectrum: Flutriafol; LC-ESI-QTOF; MS2; 140 V
Name: Flutriafol
Class: Fungicide
Formula: C16H13F2N3O
Exact mass: 301.1027
SMILES: C1=CC=C(C(=C1)C(CN2C=NC=N2)(C3=CC=C(C=C3)F)O)F
InChI: InChI=1S/C16H13F2N3O/c17-13-7-5-12(6-8-13)16(22,9-21-11-19-10-20-21)14-3-1-2-4-15(14)18/h1-8,10-11,22H,9H2
Instrument: TripleTOF 6600 SCIEX
Instrument type: LC-ESI-QTOF
Ms type: MS2
Ion mode: POSITIVE
Collision energy: 140
Fragmentation mode: CID
Ionization: ESI
Column name: Zorbax Eclipse Plus C18 2.1 mm x 150 mm, 3.5 um, Agilent
Retention time: 10.047 min
Precursor m/z: 302.11
Precursor type: [M+H]+
m/z	relative intensity
30.9988	12
37.0073	12
38.0157	10
39.0226	17
42.0211	20
43.0293	158
49.0072	10
50.0151	40
51.0228	19
57.0132	62
61.0073	17
62.0145	26
63.023	33
68.0055	13
69.0131	61
70.0398	84
73.007	129
74.0151	999
75.0228	325
83.0284	25
95.029	13
98.0144	40
122.0135	35
123.0226	11
146.0136	13
181.0445	10
