Mass spectrum: Tritosulfuron; LC-ESI-QTOF; MS2; 150 V
Name: Tritosulfuron
Class: Herbicide
Formula: C13H9F6N5O4S
Exact mass: 445.0279
SMILES: COC1=NC(=NC(=N1)NC(=O)NS(=O)(=O)C2=CC=CC=C2C(F)(F)F)C(F)(F)F
InChI: InChI=1S/C13H9F6N5O4S/c1-28-11-21-8(13(17,18)19)20-9(23-11)22-10(25)24-29(26,27)7-5-3-2-4-6(7)12(14,15)16/h2-5H,1H3,(H2,20,21,22,23,24,25)
Instrument: TripleTOF 6600 SCIEX
Instrument type: LC-ESI-QTOF
Ms type: MS2
Ion mode: NEGATIVE
Collision energy: 150
Fragmentation mode: CID
Ionization: ESI
Column name: Zorbax Eclipse Plus C18 2.1 mm x 150 mm, 3.5 um, Agilent
Retention time: 12.261 min
Precursor m/z: 444.0207
Precursor type: [M-H]-
m/z	relative intensity
40.0063	134
41.0144	745
41.9983	152
55.0282	26
66.009	999
68.9947	88
161.0115	10
