Mass spectrum: Progesterone; LC-ESI-QTOF; MS2; 20 V
Name: Progesterone
Class: Pharmaceutical
Formula: C21H30O2
Exact mass: 314.2246
SMILES: CC(=O)[C@H]1CC[C@H]2[C@@H]3CCC4=CC(=O)CC[C@]4(C)[C@H]3CC[C@]12C
InChI: InChI=1S/C21H30O2/c1-13(22)17-6-7-18-16-5-4-14-12-15(23)8-10-20(14,2)19(16)9-11-21(17,18)3/h12,16-19H,4-11H2,1-3H3/t16-,17+,18-,19-,20-,21+/m0/s1
Instrument: TripleTOF 5600 SCIEX
Instrument type: LC-ESI-QTOF
Ms type: MS2
Ion mode: POSITIVE
Collision energy: 20
Fragmentation mode: CID
Ionization: ESI
Column name: Zorbax Eclipse Plus C18 2.1 mm x 150 mm, 3.5 um, Agilent
Retention time: 13.796 min
Precursor m/z: 315.2319
Precursor type: [M+H]+
m/z	relative intensity
79.0565	10
81.0711	18
83.051	31
85.0663	35
95.0873	17
97.0668	999
109.0657	689
109.0977	12
119.0848	15
121.102	23
123.0796	72
131.0861	11
133.1002	17
135.1156	19
137.0947	16
145.1008	24
147.1159	35
149.1317	12
159.115	29
161.132	15
163.1109	20
171.1148	18
173.1312	38
175.1472	18
177.1265	45
183.1166	13
185.1311	15
187.147	20
189.1262	31
191.1413	20
197.1329	17
199.1461	10
201.1621	39
213.1622	28
215.1436	21
215.1784	58
223.1469	28
227.1773	34
229.1562	31
233.1882	44
237.1631	13
239.1784	74
241.1569	43
245.1877	50
