Mass spectrum: Cyproterone; LC-ESI-QTOF; MS2; 130 V
Name: Cyproterone
Class: Pharmaceutical
Formula: C22H27ClO3
Exact mass: 374.1649
SMILES: CC(=O)C1(CCC2C1(CCC3C2C=C(C4=CC(=O)C5CC5C34C)Cl)C)O
InChI: InChI=1S/C22H27ClO3/c1-11(24)22(26)7-5-14-12-9-18(23)17-10-19(25)13-8-16(13)21(17,3)15(12)4-6-20(14,22)2/h9-10,12-16,26H,4-8H2,1-3H3
Instrument: TripleTOF 5600 SCIEX
Instrument type: LC-ESI-QTOF
Ms type: MS2
Ion mode: POSITIVE
Collision energy: 130
Fragmentation mode: CID
Ionization: ESI
Column name: Zorbax Eclipse Plus C18 2.1 mm x 150 mm, 3.5 um, Agilent
Retention time: 11.881 min
Precursor m/z: 375.1721
Precursor type: [M+H]+
m/z	relative intensity
39.0229	46
41.0382	38
43.0183	240
51.0229	85
65.0386	162
77.0389	549
78.0477	77
79.0545	77
89.0388	139
91.0547	441
102.0453	116
103.0546	123
105.0708	38
114.0487	30
115.0541	999
116.0636	46
126.0466	131
127.0551	302
128.0619	487
129.0694	69
131.0488	61
139.0539	193
141.0696	317
150.045	69
151.0532	309
152.063	689
153.0695	116
163.0548	92
164.0649	178
165.0695	813
176.0629	224
177.0701	154
178.0776	333
188.0631	61
189.0704	619
190.079	69
191.0841	69
200.0594	131
201.0702	100
202.0783	449
203.0858	69
213.0697	92
214.0809	30
215.083	154
215.0955	61
226.0757	116
227.0804	30
228.0913	85
231.0805	38
