Mass spectrum: N-[2-[(2-Bromo-4,6-dinitrophenyl)azo]-5-(diethylamino)phenyl]acetamide; LC-ESI-QTOF; MS2; 150 V
Name: N-[2-[(2-Bromo-4,6-dinitrophenyl)azo]-5-(diethylamino)phenyl]acetamide
Formula: C18H19BrN6O5
Exact mass: 478.06
SMILES: CCN(CC)C1=CC(=C(C=C1)N=NC2=C(C=C(C=C2Br)[N+](=O)[O-])[N+](=O)[O-])NC(=O)C
InChI: InChI=1S/C18H19BrN6O5/c1-4-23(5-2)12-6-7-15(16(9-12)20-11(3)26)21-22-18-14(19)8-13(24(27)28)10-17(18)25(29)30/h6-10H,4-5H2,1-3H3,(H,20,26)
Instrument: TripleTOF 6600 SCIEX
Instrument type: LC-ESI-QTOF
Ms type: MS2
Ion mode: POSITIVE
Collision energy: 150
Fragmentation mode: CID
Ionization: ESI
Column name: Zorbax Eclipse Plus C18 2.1 mm x 150 mm, 3.5 um, Agilent
Retention time: 16.579 min
Precursor m/z: 479.0673
Precursor type: [M+H]+
m/z	relative intensity
39.0218	102
42.0324	57
43.0174	230
50.014	25
51.0214	153
52.0172	44
52.0295	198
53.0379	179
54.0339	32
62.0142	70
63.0224	128
64.0299	38
65.0374	550
66.0333	51
66.0455	128
67.0397	64
74.0144	44
75.0224	76
76.0182	38
77.0375	518
78.0324	352
79.0282	108
79.0397	243
79.0526	57
80.0481	653
87.0201	32
88.0294	64
89.0376	172
90.0321	115
90.0465	25
91.0405	236
91.0531	44
92.049	403
93.0557	999
94.0631	89
99.0218	25
102.0321	38
103.0416	38
104.0487	134
105.0438	294
106.051	51
106.0628	198
107.0364	38
107.061	64
113.0362	102
114.0329	70
115.0489	57
116.0471	64
117.0437	128
118.0502	217
119.0594	236
120.0569	51
121.075	51
126.0444	57
129.051	44
131.0608	70
133.0602	140
134.0439	32
134.0633	32
137.0353	57
138.0338	57
138.045	76
139.0526	224
140.0472	300
141.0549	44
146.0707	83
147.0516	51
150.0387	70
151.045	115
152.0457	38
153.0525	32
154.0587	38
155.0597	32
161.0654	25
164.05	249
165.0508	140
166.0627	44
167.0611	38
179.0566	38
191.056	38
193.0614	38
206.0772	25
