Mass spectrum: Oseltamivir carboxylic acid; LC-ESI-QTOF; MS2; 70 V
Name: Oseltamivir carboxylic acid
Class: Pharmaceutical; Metabolite; Transformation_product
Formula: C14H24N2O4
Exact mass: 284.1736
SMILES: CCC(CC)O[C@@H]1C=C(C[C@H](N)[C@H]1NC(C)=O)C(O)=O
InChI: InChI=1S/C14H24N2O4/c1-4-10(5-2)20-12-7-9(14(18)19)6-11(15)13(12)16-8(3)17/h7,10-13H,4-6,15H2,1-3H3,(H,16,17)(H,18,19)/t11-,12+,13+/m0/s1
Instrument: TripleTOF 5600 SCIEX
Instrument type: LC-ESI-QTOF
Ms type: MS2
Ion mode: POSITIVE
Collision energy: 70
Fragmentation mode: CID
Ionization: ESI
Column name: Zorbax Eclipse Plus C18 2.1 mm x 150 mm, 3.5 um, Agilent
Retention time: 5.65 min
Precursor m/z: 285.1809
Precursor type: [M+H]+
m/z	relative intensity
43.0243	48
55.0588	14
60.0474	14
65.043	890
66.0515	25
67.0455	39
67.0576	291
68.0531	57
77.0415	999
77.0702	11
78.0361	34
80.0514	228
81.061	19
82.0673	151
83.06	14
92.0508	744
93.034	97
93.0583	316
94.0307	25
94.066	679
95.0505	14
108.0448	17
108.0671	22
109.0518	22
109.0752	48
110.0599	82
119.0608	68
120.0445	562
137.0701	31
138.0543	88
