Mass spectrum: Diethylamino hydroxybenzoyl hexyl benzoate; LC-ESI-QTOF; MS2; 90 V
Name: Diethylamino hydroxybenzoyl hexyl benzoate
Formula: C24H31NO4
Exact mass: 397.2253
SMILES: CCCCCCOC(=O)C1=CC=CC=C1C(=O)C2=C(C=C(C=C2)N(CC)CC)O
InChI: InChI=1S/C24H31NO4/c1-4-7-8-11-16-29-24(28)20-13-10-9-12-19(20)23(27)21-15-14-18(17-22(21)26)25(5-2)6-3/h9-10,12-15,17,26H,4-8,11,16H2,1-3H3
Instrument: TripleTOF 6600 SCIEX
Instrument type: LC-ESI-QTOF
Ms type: MS2
Ion mode: POSITIVE
Collision energy: 90
Fragmentation mode: CID
Ionization: ESI
Column name: Zorbax Eclipse Plus C18 2.1 mm x 150 mm, 3.5 um, Agilent
Retention time: 17.769 min
Precursor m/z: 398.2326
Precursor type: [M+H]+
m/z	relative intensity
39.0231	71
41.0389	46
43.0543	45
53.0389	11
65.0385	528
68.0125	17
77.0383	153
78.0332	15
80.049	178
89.0381	24
91.0534	31
92.0486	21
93.0332	242
94.0414	13
102.0457	13
103.0547	13
104.0246	10
104.0493	10
105.0332	117
108.0437	100
109.0508	26
113.0381	21
114.045	15
115.0537	283
118.064	11
119.012	42
120.043	10
121.0298	285
122.0585	36
125.0371	10
126.046	21
127.0534	144
128.0611	179
129.0682	41
133.0281	10
136.0394	19
136.0745	16
138.0448	35
139.0541	999
140.0583	132
141.0692	191
143.0489	17
149.0228	141
150.045	31
151.0535	224
152.0612	340
153.0674	107
154.0646	194
155.0506	51
156.0556	19
156.08	42
157.0635	14
164.068	99
165.069	117
166.0642	116
167.0559	324
168.0566	390
169.0642	58
170.0355	12
176.0612	30
177.0589	46
178.0657	73
179.0525	20
179.0707	16
180.0544	58
180.0796	35
181.0634	73
182.0599	145
183.0444	46
183.0648	34
184.0516	265
190.0633	15
191.0736	18
192.0785	19
193.0528	13
193.0853	17
194.0371	47
194.0572	85
194.0957	13
195.0663	528
196.0522	457
197.0592	189
204.0799	33
206.0584	46
207.0697	12
208.0754	36
210.0343	146
210.0892	22
211.0629	77
212.0703	97
220.0745	67
222.0447	64
223.0625	375
224.0694	168
225.0777	18
237.0427	14
238.0497	50
238.085	15
240.1007	32
248.0689	10
252.0653	14
266.0805	97
