Mass spectrum: Sulfasalazine; LC-ESI-QTOF; MS2; 40 V
Name: Sulfasalazine
Class: Pharmaceutical
Formula: C18H14N4O5S
Exact mass: 398.0685
SMILES: C1=CC=NC(=C1)NS(=O)(=O)C2=CC=C(C=C2)NN=C3C=CC(=O)C(=C3)C(=O)O
InChI: InChI=1S/C18H14N4O5S/c23-16-9-6-13(11-15(16)18(24)25)21-20-12-4-7-14(8-5-12)28(26,27)22-17-3-1-2-10-19-17/h1-11,20H,(H,19,22)(H,24,25)
Instrument: TripleTOF 5600 SCIEX
Instrument type: LC-ESI-QTOF
Ms type: MS2
Ion mode: POSITIVE
Collision energy: 40
Fragmentation mode: CID
Ionization: ESI
Column name: Zorbax Eclipse Plus C18 2.1 mm x 150 mm, 3.5 um, Agilent
Retention time: 9.217 min
Precursor m/z: 399.0758
Precursor type: [M+H]+
m/z	relative intensity
67.0485	42
81.0375	11
91.0216	82
93.0467	15
94.057	174
95.0638	12
119.0153	357
137.0246	64
139.056	75
140.0527	10
147.0202	220
155.0605	22
157.0077	14
157.0778	32
165.0302	130
167.0607	24
168.066	32
169.076	32
183.0556	11
185.037	12
185.0698	27
186.0526	11
195.052	27
197.0693	12
211.0494	16
213.066	205
223.0501	570
224.0561	30
225.0652	13
226.0625	23
239.0443	202
241.0633	130
261.1044	17
287.0117	39
287.0802	42
289.1081	21
315.0868	83
317.1018	411
333.0964	104
335.1135	22
381.0632	999
399.0734	322
