Mass spectrum: Daidzein; LC-ESI-QTOF; MS2; 80 V
Name: Daidzein
Class: Pharmaceutical; Natural_product
Formula: C15H10O4
Exact mass: 254.0579
SMILES: Oc1ccc(cc1)C2=COc3cc(O)ccc3C2=O
InChI: InChI=1S/C15H10O4/c16-10-3-1-9(2-4-10)13-8-19-14-7-11(17)5-6-12(14)15(13)18/h1-8,16-17H
Instrument: TripleTOF 5600 SCIEX
Instrument type: LC-ESI-QTOF
Ms type: MS2
Ion mode: POSITIVE
Collision energy: 80
Fragmentation mode: CID
Ionization: ESI
Column name: Zorbax Eclipse Plus C18 2.1 mm x 150 mm, 3.5 um, Agilent
Retention time: 7.744 min
Precursor m/z: 255.0652
Precursor type: [M+H]+
m/z	relative intensity
37.0073	34
38.0155	28
39.0233	189
41.0383	17
50.0155	31
51.0232	103
52.031	14
53.0386	83
55.0183	20
61.008	11
62.0147	37
63.0229	114
64.0303	11
65.039	996
68.9977	140
74.0156	31
75.0229	91
76.0323	22
77.039	407
78.0471	111
81.0339	200
89.0393	155
90.0465	20
91.0544	370
92.0249	17
101.0393	37
102.0467	120
103.0543	40
105.0338	86
107.0501	14
113.0411	17
114.0486	14
115.0544	384
116.0617	20
118.0415	28
119.0508	11
125.0386	22
126.0466	100
127.0547	152
128.0627	287
131.048	37
137.0237	25
139.0539	57
140.0592	14
141.0685	126
144.0571	14
150.0463	114
151.0542	333
152.0621	999
153.0712	60
155.0484	20
163.0549	40
165.0715	20
168.0581	34
169.0656	25
181.0678	57
197.0603	34
