Mass spectrum: 4-Hydroxytrimethoprim; LC-ESI-QTOF; MS2; 50 V
Name: 4-Hydroxytrimethoprim
Class: Pharmaceutical; Transformation_product
Formula: C14H18N4O4
Exact mass: 306.1328
SMILES: COc1cc(cc(c1OC)OC)Cc2c(nc(nc2O)N)N
InChI: InChI=1S/C14H18N4O4/c1-20-9-5-7(6-10(21-2)11(9)22-3)4-8-12(15)17-14(16)18-13(8)19/h5-6H,4H2,1-3H3,(H5,15,16,17,18,19)
Instrument: TripleTOF 5600 SCIEX
Instrument type: LC-ESI-QTOF
Ms type: MS2
Ion mode: POSITIVE
Collision energy: 50
Fragmentation mode: CID
Ionization: ESI
Column name: Zorbax Eclipse Plus C18 2.1 mm x 150 mm, 3.5 um, Agilent
Retention time: 5.43 min
Precursor m/z: 307.1401
Precursor type: [M+H]+
m/z	relative intensity
43.0376	26
52.0243	19
54.0394	16
55.0226	34
60.0601	11
69.0482	54
80.0157	154
86.0378	9
91.0546	10
97.0413	874
122.0352	53
136.0512	14
137.0601	35
138.0668	10
139.062	999
148.0521	101
151.0391	14
173.0487	14
181.0853	115
