Mass spectrum: Esculetin; LC-ESI-QTOF; MS2; 30 V
Name: Esculetin
Class: Pharmaceutical
Formula: C9H6O4
Exact mass: 178.0266
SMILES: Oc1cc2OC(=O)C=Cc2cc1O
InChI: InChI=1S/C9H6O4/c10-6-3-5-1-2-9(12)13-8(5)4-7(6)11/h1-4,10-11H
Instrument: TripleTOF 5600 SCIEX
Instrument type: LC-ESI-QTOF
Ms type: MS2
Ion mode: POSITIVE
Collision energy: 30
Fragmentation mode: CID
Ionization: ESI
Column name: Zorbax Eclipse Plus C18 2.1 mm x 150 mm, 3.5 um, Agilent
Retention time: 5.732 min
Precursor m/z: 179.0339
Precursor type: [M+H]+
m/z	relative intensity
77.0397	187
89.0393	40
95.0489	20
105.0332	147
123.0433	999
133.0277	552
135.0434	50
151.0376	60
179.0323	324
