Mass spectrum: O-desmethyl-venlafaxine; LC-ESI-QTOF; MS2; 110 V
Name: O-desmethyl-venlafaxine
Class: Metabolite; Pharmaceutical; Transformation_product-Metabolite
Formula: C16H25NO2
Exact mass: 263.1885
SMILES: CN(C)CC(C1=CC=C(C=C1)O)C2(CCCCC2)O
InChI: InChI=1S/C16H25NO2/c1-17(2)12-15(13-6-8-14(18)9-7-13)16(19)10-4-3-5-11-16/h6-9,15,18-19H,3-5,10-12H2,1-2H3
Instrument: TripleTOF 5600 SCIEX
Instrument type: LC-ESI-QTOF
Ms type: MS2
Ion mode: POSITIVE
Collision energy: 110
Fragmentation mode: CID
Ionization: ESI
Column name: Zorbax Eclipse Plus C18 2.1 mm x 150 mm, 3.5 um, Agilent
Retention time: 5.367 min
Precursor m/z: 264.1958
Precursor type: [M+H]+
m/z	relative intensity
42.0484	259
43.0335	16
43.0545	60
44.0609	20
55.0265	64
56.0591	34
58.0739	957
65.0455	120
66.0533	20
77.0443	999
78.0534	37
79.0592	164
81.039	18
81.0749	53
89.0434	55
91.0574	139
94.0466	27
102.0479	13
103.0575	30
105.0734	11
107.051	176
115.0549	136
116.0632	11
119.0514	18
126.0472	13
127.0605	16
128.0616	16
