Mass spectrum: Food Yellow 3 free acid; LC-ESI-QTOF; MS2; 110 V
Name: Food Yellow 3 free acid
Formula: C16H12N2O7S2
Exact mass: 408.0086
SMILES: C1=CC(=CC=C1N=NC2=C(C=CC3=C2C=CC(=C3)S(=O)(=O)O)O)S(=O)(=O)O
InChI: InChI=1S/C16H12N2O7S2/c19-15-8-1-10-9-13(27(23,24)25)6-7-14(10)16(15)18-17-11-2-4-12(5-3-11)26(20,21)22/h1-9,19H,(H,20,21,22)(H,23,24,25)
Instrument: TripleTOF 6600 SCIEX
Instrument type: LC-ESI-QTOF
Ms type: MS2
Ion mode: POSITIVE
Collision energy: 110
Fragmentation mode: CID
Ionization: ESI
Column name: Zorbax Eclipse Plus C18 2.1 mm x 150 mm, 3.5 um, Agilent
Retention time: 5.59 min
Precursor m/z: 409.0159
Precursor type: [M+H]+
m/z	relative intensity
37.0074	9
39.023	89
50.0148	58
51.0227	60
53.0385	206
61.0063	22
62.0153	59
63.0227	251
64.0178	11
64.9687	30
65.0381	294
73.0065	16
74.0147	512
75.0106	39
75.0221	121
76.0188	19
76.0303	150
77.0378	47
80.0493	999
81.0337	41
87.0221	31
88.0183	14
88.0303	25
89.0383	357
90.0345	14
92.0486	106
98.0147	77
99.0213	190
100.0293	547
101.0263	60
101.0394	17
102.0454	20
108.0442	148
109.053	14
114.0323	48
115.0403	11
116.0494	11
126.0341	38
127.0411	351
128.048	11
129.0497	10
149.0387	10
151.0534	16
163.0545	12
164.0504	17
174.0441	11
175.0552	37
176.0554	25
177.0535	10
189.0574	14
190.064	44
201.0569	70
202.0635	34
216.0679	47
217.0775	30
227.0609	23
228.0697	30
229.0756	66
