Mass spectrum: Clonidine; LC-ESI-QTOF; MS2; 120 V
Name: Clonidine
Class: Pharmaceutical
Formula: C9H9Cl2N3
Exact mass: 229.0174
SMILES: C1CN=C(N1)NC2=C(C=CC=C2Cl)Cl
InChI: InChI=1S/C9H9Cl2N3/c10-6-2-1-3-7(11)8(6)14-9-12-4-5-13-9/h1-3H,4-5H2,(H2,12,13,14)
Instrument: TripleTOF 6600 SCIEX
Instrument type: LC-ESI-QTOF
Ms type: MS2
Ion mode: POSITIVE
Collision energy: 120
Fragmentation mode: CID
Ionization: ESI
Column name: Zorbax Eclipse Plus C18 2.1 mm x 150 mm, 3.5 um, Agilent
Retention time: 5.408 min
Precursor m/z: 230.0246
Precursor type: [M+H]+
m/z	relative intensity
37.0068	105
38.0143	70
39.0228	82
41.0252	47
42.0211	82
42.0334	141
43.0287	82
46.968	199
48.9831	188
49.0065	82
50.0149	188
51.0225	164
59.999	58
61.0067	317
62.0145	305
63.0093	58
63.0226	305
64.0183	211
72.983	493
73.0062	305
74.0144	999
75.0094	70
75.022	211
76.0168	94
82.9441	82
83.9752	58
84.9837	58
99.0078	82
