Mass spectrum: Fenpropimorph; LC-ESI-QTOF; MS2; 60 V
Name: Fenpropimorph
Class: Pharmaceutical; Fungicide
Formula: C20H33NO
Exact mass: 303.2562
SMILES: CC(CN1C[C@H](C)O[C@H](C)C1)Cc2ccc(cc2)C(C)(C)C
InChI: InChI=1S/C20H33NO/c1-15(12-21-13-16(2)22-17(3)14-21)11-18-7-9-19(10-8-18)20(4,5)6/h7-10,15-17H,11-14H2,1-6H3/t15?,16-,17+
Instrument: TripleTOF 5600 SCIEX
Instrument type: LC-ESI-QTOF
Ms type: MS2
Ion mode: POSITIVE
Collision energy: 60
Fragmentation mode: CID
Ionization: ESI
Column name: Zorbax Eclipse Plus C18 2.1 mm x 150 mm, 3.5 um, Agilent
Retention time: 9.527 min
Precursor m/z: 304.2635
Precursor type: [M+H]+
m/z	relative intensity
55.0599	16
56.0556	12
57.0761	65
70.069	29
77.0417	39
79.0575	49
91.0565	282
93.0709	19
98.0975	103
103.0548	36
104.0626	73
105.0709	420
107.0856	58
115.0546	117
116.0617	16
116.1071	10
117.0705	999
119.0863	545
130.1225	11
131.0855	100
132.0938	870
145.1011	26
146.1087	18
147.1172	296
159.1169	10
