Mass spectrum: Azacyclonol; LC-ESI-QTOF; MS2; 150 V
Name: Azacyclonol
Class: Pharmaceutical
Formula: C18H21NO
Exact mass: 267.1623
SMILES: OC(C1CCNCC1)(C2=CC=CC=C2)C3=CC=CC=C3
InChI: InChI=1S/C18H21NO/c20-18(15-7-3-1-4-8-15,16-9-5-2-6-10-16)17-11-13-19-14-12-17/h1-10,17,19-20H,11-14H2
Instrument: TripleTOF 5600 SCIEX
Instrument type: LC-ESI-QTOF
Ms type: MS2
Ion mode: POSITIVE
Collision energy: 150
Fragmentation mode: CID
Ionization: ESI
Column name: Zorbax Eclipse Plus C18 2.1 mm x 150 mm, 3.5 um, Agilent
Retention time: 6.644 min
Precursor m/z: 268.1696
Precursor type: [M+H]+
m/z	relative intensity
37.0072	176
38.0148	146
39.023	572
42.034	190
44.0488	58
49.0067	117
50.0151	661
51.0231	999
52.0312	73
56.0497	102
61.007	220
62.0154	484
63.0231	661
65.0385	646
74.015	484
75.0226	220
76.0306	146
77.0386	528
78.0478	117
86.0139	161
87.0227	161
89.0382	205
91.0547	205
98.0147	161
102.0443	190
113.0391	88
115.0536	264
126.0473	88
127.0499	73
128.0602	73
139.0538	88
150.0449	161
151.0524	88
163.057	205
187.0527	132
