Mass spectrum: 3-(4-Bromobutyl)-6-methylpyrimidin-4-one; LC-ESI-QTOF; MS2; 70 V
Name: 3-(4-Bromobutyl)-6-methylpyrimidin-4-one
Formula: C9H13BrN2O
Exact mass: 244.0211
SMILES: CC1=CC(=O)N(C=N1)CCCCBr
InChI: InChI=1S/C9H13BrN2O/c1-8-6-9(13)12(7-11-8)5-3-2-4-10/h6-7H,2-5H2,1H3
Instrument: TripleTOF 6600 SCIEX
Instrument type: LC-ESI-QTOF
Ms type: MS2
Ion mode: POSITIVE
Collision energy: 70
Fragmentation mode: CID
Ionization: ESI
Column name: Zorbax Eclipse Plus C18 2.1 mm x 150 mm, 3.5 um, Agilent
Retention time: 7.281 min
Precursor m/z: 245.0284
Precursor type: [M+H]+
m/z	relative intensity
37.0067	19
38.0018	19
39.0227	115
41.0379	47
42.0335	851
43.0173	35
44.0129	99
44.0492	31
45.0441	51
53.0383	39
55.0533	282
56.0481	47
66.0343	27
67.0169	175
68.0125	83
70.0279	127
83.0599	23
84.0437	999
92.9323	43
93.0443	15
106.9488	83
111.0542	79
