Mass spectrum: Flavanone; LC-ESI-QTOF; MS2; 40 V
Name: Flavanone
Class: Personal_care_product
Formula: C15H12O2
Exact mass: 224.0837
SMILES: C1C(OC2=CC=CC=C2C1=O)C3=CC=CC=C3
InChI: InChI=1S/C15H12O2/c16-13-10-15(11-6-2-1-3-7-11)17-14-9-5-4-8-12(13)14/h1-9,15H,10H2
Instrument: TripleTOF 5600 SCIEX
Instrument type: LC-ESI-QTOF
Ms type: MS2
Ion mode: POSITIVE
Collision energy: 40
Fragmentation mode: CID
Ionization: ESI
Column name: Zorbax Eclipse Plus C18 2.1 mm x 150 mm, 3.5 um, Agilent
Retention time: 12.61 min
Precursor m/z: 225.091
Precursor type: [M+H]+
m/z	relative intensity
65.0386	265
77.0382	129
79.0539	32
91.0545	38
93.0331	280
101.0385	15
103.0542	479
107.0501	11
119.0501	12
121.0285	999
129.0338	19
131.0485	114
147.0439	32
152.0597	17
153.0698	10
165.0711	10
177.0683	16
178.0774	358
179.0855	90
181.0649	69
182.0712	20
207.0785	23
210.0663	60
