Mass spectrum: Sertraline; LC-ESI-QTOF; MS2; 20 V
Name: Sertraline
Class: Pharmaceutical
Formula: C17H17Cl2N
Exact mass: 305.0738
SMILES: CN[C@H]1CC[C@H](c2c1cccc2)c3ccc(c(c3)Cl)Cl
InChI: InChI=1S/C17H17Cl2N/c1-20-17-9-7-12(13-4-2-3-5-14(13)17)11-6-8-15(18)16(19)10-11/h2-6,8,10,12,17,20H,7,9H2,1H3/t12-,17-/m0/s1
Instrument: TripleTOF 5600 SCIEX
Instrument type: LC-ESI-QTOF
Ms type: CID
Ion mode: POSITIVE
Collision energy: 20
Ionization: ESI
Column name: Zorbax Eclipse Plus C18 2.1 mm x 150 mm, 3.5 um, Agilent
Retention time: 8.925 min
Precursor m/z: 306.0811
Precursor type: [M+H]+
m/z	relative intensity
91.0561	65
129.0706	210
158.9769	999
196.9921	19
