Mass spectrum: Neburon; LC-ESI-QTOF; MS2; 100 V
Name: Neburon
Class: Herbicide
Formula: C12H16Cl2N2O
Exact mass: 274.064
SMILES: CCCCN(C)C(=O)Nc1ccc(Cl)c(Cl)c1
InChI: InChI=1S/C12H16Cl2N2O/c1-3-4-7-16(2)12(17)15-9-5-6-10(13)11(14)8-9/h5-6,8H,3-4,7H2,1-2H3,(H,15,17)
Instrument: TripleTOF 5600 SCIEX
Instrument type: LC-ESI-QTOF
Ms type: MS2
Ion mode: POSITIVE
Collision energy: 100
Fragmentation mode: CID
Ionization: ESI
Column name: Zorbax Eclipse Plus C18 2.1 mm x 150 mm, 3.5 um, Agilent
Retention time: 13.559 min
Precursor m/z: 275.0712
Precursor type: [M+H]+
m/z	relative intensity
57.0747	412
58.0346	412
65.0427	477
72.9871	651
73.0137	195
74.0174	999
75.0273	152
82.9473	390
83.9814	86
90.035	173
91.0479	108
92.0512	282
96.985	152
98.9987	130
100.0087	152
106.9452	195
108.9826	347
125.0014	325
127.0175	456
132.96	673
132.9869	86
