Mass spectrum: N-[4-(1H-benzimidazol-2-yl)phenyl]-N,N-dimethylamine; LC-ESI-QTOF; MS2; 100 V
Name: N-[4-(1H-benzimidazol-2-yl)phenyl]-N,N-dimethylamine
Class: Pharmaceutical
Formula: C15H15N3
Exact mass: 237.1266
SMILES: CN(C)C1=CC=C(C=C1)C2=NC3=CC=CC=C3N2
InChI: InChI=1S/C15H15N3/c1-18(2)12-9-7-11(8-10-12)15-16-13-5-3-4-6-14(13)17-15/h3-10H,1-2H3,(H,16,17)
Instrument: TripleTOF 5600 SCIEX
Instrument type: LC-ESI-QTOF
Ms type: MS2
Ion mode: POSITIVE
Collision energy: 100
Fragmentation mode: CID
Ionization: ESI
Column name: Zorbax Eclipse Plus C18 2.1 mm x 150 mm, 3.5 um, Agilent
Retention time: 6.517 min
Precursor m/z: 238.1339
Precursor type: [M+H]+
m/z	relative intensity
41.0426	11
52.0285	62
64.0381	225
65.0462	999
74.02	23
75.028	76
76.0223	23
76.0344	36
77.0445	278
78.038	14
78.0526	11
87.0293	13
89.0424	423
90.0462	159
91.0438	161
92.0527	181
101.0413	18
102.036	139
103.0436	24
104.0514	74
113.0391	84
114.0421	39
115.0542	97
116.0503	42
117.057	21
118.0539	47
119.0617	13
127.0563	34
128.0507	27
129.0463	40
130.0411	26
131.0611	10
137.0405	30
138.0462	105
139.0556	487
140.0504	360
141.0568	17
143.062	94
150.0456	10
152.0514	15
153.0447	20
154.0643	26
155.062	11
164.0497	345
165.0558	168
166.0656	370
167.069	168
168.0714	37
179.0608	20
181.076	13
190.0508	11
191.0606	223
192.0683	789
193.0758	516
194.0833	46
205.08	10
206.0739	11
