Mass spectrum: Propaquizafop; LC-ESI-QTOF; MS2; 60 V
Name: Propaquizafop
Class: Herbicide
Formula: C22H22ClN3O5
Exact mass: 443.1248
SMILES: CC(Oc1ccc(Oc2cnc3cc(Cl)ccc3n2)cc1)C(=O)OCCON=C(C)C
InChI: InChI=1S/C22H22ClN3O5/c1-14(2)26-29-11-10-28-22(27)15(3)30-17-5-7-18(8-6-17)31-21-13-24-20-12-16(23)4-9-19(20)25-21/h4-9,12-13,15H,10-11H2,1-3H3
Instrument: TripleTOF 6600 SCIEX
Instrument type: LC-ESI-QTOF
Ms type: MS2
Ion mode: POSITIVE
Collision energy: 60
Fragmentation mode: CID
Ionization: ESI
Column name: Zorbax Eclipse Plus C18 2.1 mm x 150 mm, 3.5 um, Agilent
Retention time: 15.307 min
Precursor m/z: 444.1321
Precursor type: [M+H]+
m/z	relative intensity
42.034	20
55.0178	25
55.0418	29
56.0249	16
56.0499	608
65.0389	100
70.0652	999
73.0281	20
77.0386	20
91.0544	491
99.044	306
100.0525	310
100.0757	411
104.0612	25
119.0485	100
120.0592	41
126.0111	33
131.0469	25
133.0646	41
135.9936	54
137.0034	20
137.0587	16
145.0677	20
147.0445	79
153.0212	16
163.006	814
164.0012	100
164.0128	67
164.0507	33
165.0211	62
165.0563	54
177.0199	41
178.0298	25
179.0591	33
180.0687	62
181.0154	29
181.0884	25
188.0278	37
189.021	20
191.0622	46
192.0686	453
193.0774	83
194.0845	20
200.0261	33
201.0348	20
202.0304	58
203.0379	20
207.056	16
207.0916	163
208.0654	100
208.1001	138
215.0383	176
216.0465	20
218.0848	75
220.0633	29
221.0714	54
226.0329	41
227.0378	83
228.046	172
229.0553	92
235.0857	71
236.0945	25
239.0377	37
243.0342	130
243.0679	222
244.0396	33
249.0636	25
252.0478	29
253.0527	121
255.0335	990
256.0399	100
257.0488	298
268.038	25
269.0485	25
270.0198	29
271.0641	130
281.047	37
284.0343	29
285.0439	365
299.0586	88
