Mass spectrum: Octrizole; LC-ESI-QTOF; MS2; 100 V
Name: Octrizole
Class: Industrial_process
Formula: C20H25N3O
Exact mass: 323.1998
SMILES: CC(C)(C)CC(C)(C)C1=CC(=C(C=C1)O)N2N=C3C=CC=CC3=N2
InChI: InChI=1S/C20H25N3O/c1-19(2,3)13-20(4,5)14-10-11-18(24)17(12-14)23-21-15-8-6-7-9-16(15)22-23/h6-12,24H,13H2,1-5H3
Instrument: TripleTOF 5600 SCIEX
Instrument type: LC-ESI-QTOF
Ms type: MS2
Ion mode: POSITIVE
Collision energy: 100
Fragmentation mode: CID
Ionization: ESI
Column name: Zorbax Eclipse Plus C18 2.1 mm x 150 mm, 3.5 um, Agilent
Retention time: 19.562 min
Precursor m/z: 324.207
Precursor type: [M+H]+
m/z	relative intensity
63.0287	36
65.0457	999
77.0434	522
78.0536	45
79.0593	125
80.0528	36
89.0407	62
91.0587	189
92.0519	270
103.0545	125
105.0451	72
105.0724	180
107.0519	54
115.0563	153
117.0586	45
120.0582	54
127.0583	90
128.0524	45
128.0644	45
133.0662	54
139.0531	99
140.0532	62
151.0527	54
152.0636	108
153.0721	72
154.0651	108
164.0605	54
165.0716	62
166.0613	108
167.069	135
180.0773	108
191.069	45
192.0585	36
