Mass spectrum: Trifloxystrobin acid; LC-ESI-QTOF; MS2; 130 V
Name: Trifloxystrobin acid
Class: Metabolite; Fungicide; Transformation_product
Formula: C19H17F3N2O4
Exact mass: 394.114
SMILES: FC(F)(F)c1cccc(c1)C(\C)=N\OCc2ccccc2C(=N\O)\C(=O)OC
InChI: InChI=1S/C19H17F3N2O4/c1-12(13-7-5-8-15(10-13)19(20,21)22)24-28-11-14-6-3-4-9-16(14)17(23-26)18(25)27-2/h3-10,26H,11H2,1-2H3/b23-17-,24-12+
Instrument: TripleTOF 5600 SCIEX
Instrument type: LC-ESI-QTOF
Ms type: MS2
Ion mode: POSITIVE
Collision energy: 130
Fragmentation mode: CID
Ionization: ESI
Column name: Zorbax Eclipse Plus C18 2.1 mm x 150 mm, 3.5 um, Agilent
Retention time: 13.286 min
Precursor m/z: 395.1213
Precursor type: [M+H]+
m/z	relative intensity
51.0147	38
51.0319	16
57.0249	20
65.0468	30
69.0018	101
69.0232	14
73.0155	16
74.0216	294
75.029	824
77.0442	46
81.0193	24
88.0224	19
89.0433	999
90.05	199
91.0581	12
92.9979	12
95.0117	16
95.0326	560
99.0071	88
104.0526	20
105.0153	16
109.0474	16
116.0512	222
117.0583	38
119.0139	46
123.0379	25
125.0223	178
145.0268	251
