Mass spectrum: Flurtamone; LC-ESI-QTOF; MS2; 50 V
Name: Flurtamone
Class: Herbicide
Formula: C18H14F3NO2
Exact mass: 333.0977
SMILES: CNC1=C(C(=O)C(O1)C2=CC=CC=C2)C3=CC(=CC=C3)C(F)(F)F
InChI: InChI=1S/C18H14F3NO2/c1-22-17-14(12-8-5-9-13(10-12)18(19,20)21)15(23)16(24-17)11-6-3-2-4-7-11/h2-10,16,22H,1H3
Instrument: TripleTOF 6600 SCIEX
Instrument type: LC-ESI-QTOF
Ms type: MS2
Ion mode: POSITIVE
Collision energy: 50
Fragmentation mode: CID
Ionization: ESI
Column name: Zorbax Eclipse Plus C18 2.1 mm x 150 mm, 3.5 um, Agilent
Retention time: 11.864 min
Precursor m/z: 334.105
Precursor type: [M+H]+
m/z	relative intensity
58.0288	37
77.0387	95
103.0543	26
105.034	218
120.0811	58
151.0361	13
169.0264	12
171.0422	19
177.0703	10
178.0789	999
196.0692	22
197.0225	35
207.0618	175
209.0771	24
214.0599	10
227.0683	695
246.0666	46
247.0749	484
275.0697	36
