Mass spectrum: Paroxetine; LC-ESI-QTOF; MS2; 70 V
Name: Paroxetine
Class: Pharmaceutical
Formula: C19H20FNO3
Exact mass: 329.1427
SMILES: C1CNCC(C1C2=CC=C(C=C2)F)COC3=CC4=C(C=C3)OCO4
InChI: InChI=1S/C19H20FNO3/c20-15-3-1-13(2-4-15)17-7-8-21-10-14(17)11-22-16-5-6-18-19(9-16)24-12-23-18/h1-6,9,14,17,21H,7-8,10-12H2
Instrument: TripleTOF 5600 SCIEX
Instrument type: LC-ESI-QTOF
Ms type: MS2
Ion mode: POSITIVE
Collision energy: 70
Fragmentation mode: CID
Ionization: ESI
Column name: Zorbax Eclipse Plus C18 2.1 mm x 150 mm, 3.5 um, Agilent
Retention time: 7.812 min
Precursor m/z: 330.15
Precursor type: [M+H]+
m/z	relative intensity
37.0072	22
38.015	10
39.0229	126
41.0387	228
42.0339	65
43.0545	38
44.0496	291
56.0495	73
65.0385	70
67.0414	12
67.0539	17
68.0496	73
68.9969	12
70.0651	707
75.0225	15
77.0382	111
81.033	58
82.065	91
83.0292	114
89.0388	20
91.0534	17
93.0332	58
95.03	10
96.0362	12
96.0803	17
101.0386	53
103.054	253
109.0448	999
115.0539	461
116.0619	27
121.0276	17
121.0439	53
123.0436	12
123.0607	197
127.0535	68
128.0613	68
130.0649	12
133.0447	410
134.0523	68
135.0603	821
136.0683	38
137.0204	20
141.07	15
145.0435	25
146.0528	202
147.0599	174
148.0656	83
149.0768	12
150.0727	25
151.0391	55
159.0575	30
161.0749	45
163.0942	17
164.0868	15
192.1166	25
