Mass spectrum: Miconazole; LC-ESI-QTOF; MS2; 90 V
Name: Miconazole
Class: Fungicide; Pharmaceutical
Formula: C18H14Cl4N2O
Exact mass: 413.986
SMILES: Clc1ccc(COC(Cn2ccnc2)c3ccc(Cl)cc3Cl)c(Cl)c1
InChI: InChI=1S/C18H14Cl4N2O/c19-13-2-1-12(16(21)7-13)10-25-18(9-24-6-5-23-11-24)15-4-3-14(20)8-17(15)22/h1-8,11,18H,9-10H2
Instrument: TripleTOF 5600 SCIEX
Instrument type: LC-ESI-QTOF
Ms type: MS2
Ion mode: POSITIVE
Collision energy: 90
Fragmentation mode: CID
Ionization: ESI
Column name: Zorbax Eclipse Plus C18 2.1 mm x 150 mm, 3.5 um, Agilent
Retention time: 10.658 min
Precursor m/z: 414.9933
Precursor type: [M+H]+
m/z	relative intensity
69.0477	24
72.987	69
81.047	12
88.0319	16
89.0408	319
96.9848	31
99.0005	144
123.0004	617
124.0076	215
132.9607	104
158.9768	999
