Mass spectrum: Octhilinone; LC-ESI-QTOF; MS2; 130 V
Name: Octhilinone
Class: Fungicide; Antimicrobial
Formula: C11H19NOS
Exact mass: 213.1187
SMILES: CCCCCCCCN1C(=O)C=CS1
InChI: InChI=1S/C11H19NOS/c1-2-3-4-5-6-7-9-12-11(13)8-10-14-12/h8,10H,2-7,9H2,1H3
Instrument: TripleTOF 6600 SCIEX
Instrument type: LC-ESI-QTOF
Ms type: MS2
Ion mode: POSITIVE
Collision energy: 130
Fragmentation mode: CID
Ionization: ESI
Column name: Zorbax Eclipse Plus C18 2.1 mm x 150 mm, 3.5 um, Agilent
Retention time: 11.855 min
Precursor m/z: 214.126
Precursor type: [M+H]+
m/z	relative intensity
31.9719	58
35.9998	135
37.0077	470
38.0029	146
38.0157	434
39.0233	999
40.0178	41
41.0389	146
44.0134	217
44.9799	252
45.9749	117
46.9824	52
47.9901	47
52.0058	41
52.0189	23
53.0026	182
53.0133	58
55.9712	29
56.9796	934
57.9872	411
58.9959	88
