Mass spectrum: Sunitinib; LC-ESI-QTOF; MS2; 140 V
Name: Sunitinib
Class: Pharmaceutical
Formula: C22H27FN4O2
Exact mass: 398.2118
SMILES: CCN(CC)CCNC(=O)C1=C(NC(=C1C)C=C2C3=C(C=CC(=C3)F)NC2=O)C
InChI: InChI=1S/C22H27FN4O2/c1-5-27(6-2)10-9-24-22(29)20-13(3)19(25-14(20)4)12-17-16-11-15(23)7-8-18(16)26-21(17)28/h7-8,11-12,25H,5-6,9-10H2,1-4H3,(H,24,29)(H,26,28)
Instrument: TripleTOF 5600 SCIEX
Instrument type: LC-ESI-QTOF
Ms type: MS2
Ion mode: NEGATIVE
Collision energy: 140
Fragmentation mode: CID
Ionization: ESI
Column name: Zorbax Eclipse Plus C18 2.1 mm x 150 mm, 3.5 um, Agilent
Retention time: 6.516 min
Precursor m/z: 397.2045
Precursor type: [M-H]-
m/z	relative intensity
42.002	799
42.0098	399
114.037	599
134.0624	199
139.0263	999
158.0443	199
159.0358	399
164.0477	199
187.0244	199
209.0545	199
