Mass spectrum: Epoxiconazole; LC-ESI-QTOF; MS2; 90 V
Name: Epoxiconazole
Class: Fungicide
Formula: C17H13ClFN3O
Exact mass: 329.0731
SMILES: C1=CC=C(C(=C1)[C@H]2[C@@](O2)(CN3C=NC=N3)C4=CC=C(C=C4)F)Cl
InChI: InChI=1S/C17H13ClFN3O/c18-15-4-2-1-3-14(15)16-17(23-16,9-22-11-20-10-21-22)12-5-7-13(19)8-6-12/h1-8,10-11,16H,9H2/t16-,17+/m0/s1
Instrument: TripleTOF 5600 SCIEX
Instrument type: LC-ESI-QTOF
Ms type: MS2
Ion mode: POSITIVE
Collision energy: 90
Fragmentation mode: CID
Ionization: ESI
Column name: Zorbax Eclipse Plus C18 2.1 mm x 150 mm, 3.5 um, Agilent
Retention time: 12.465 min
Precursor m/z: 330.0804
Precursor type: [M+H]+
m/z	relative intensity
43.0385	10
51.0302	49
70.0441	128
73.0111	32
74.0188	300
75.0262	999
77.0414	60
95.0304	705
101.0391	905
110.9998	17
120.0369	23
121.0449	309
123.032	137
129.0446	271
176.0609	11
194.0546	11
196.0698	17
