Mass spectrum: 2-Benzylimidazole; LC-ESI-QTOF; MS2; 60 V
Name: 2-Benzylimidazole
Class: Pharmaceutical
Formula: C10H12N2
Exact mass: 160.1
SMILES: C1CN=C(N1)CC2=CC=CC=C2
InChI: InChI=1S/C10H12N2/c1-2-4-9(5-3-1)8-10-11-6-7-12-10/h1-5H,6-8H2,(H,11,12)
Instrument: TripleTOF 5600 SCIEX
Instrument type: LC-ESI-QTOF
Ms type: MS2
Ion mode: POSITIVE
Collision energy: 60
Fragmentation mode: CID
Ionization: ESI
Column name: Zorbax Eclipse Plus C18 2.1 mm x 150 mm, 3.5 um, Agilent
Retention time: 4.619 min
Precursor m/z: 161.1073
Precursor type: [M+H]+
m/z	relative intensity
37.0074	11
39.023	59
41.0387	14
42.0336	9
44.0496	15
51.023	22
61.0072	11
62.0146	14
63.0227	51
65.0388	756
77.0383	63
89.0387	34
90.044	11
91.0541	999
103.0545	28
116.0491	12
117.0575	18
130.0653	11
