Mass spectrum: Flumioxazin; LC-ESI-QTOF; MS2; 80 V
Name: Flumioxazin
Class: Herbicide
Formula: C19H15FN2O4
Exact mass: 354.1016
SMILES: C#CCN1c2cc(c(cc2OCC1=O)F)N3C(=O)C4=C(C3=O)CCCC4
InChI: InChI=1S/C19H15FN2O4/c1-2-7-21-15-9-14(13(20)8-16(15)26-10-17(21)23)22-18(24)11-5-3-4-6-12(11)19(22)25/h1,8-9H,3-7,10H2
Instrument: TripleTOF 6600 SCIEX
Instrument type: LC-ESI-QTOF
Ms type: MS2
Ion mode: POSITIVE
Collision energy: 80
Fragmentation mode: CID
Ionization: ESI
Column name: Zorbax Eclipse Plus C18 2.1 mm x 150 mm, 3.5 um, Agilent
Retention time: 11.704 min
Precursor m/z: 355.1089
Precursor type: [M+H]+
m/z	relative intensity
51.0219	199
75.023	266
76.0172	66
77.0383	999
79.0534	599
80.0588	66
91.0542	66
95.0289	66
96.0242	199
97.0291	66
101.0368	266
107.0267	266
107.0455	199
108.0363	66
115.0343	133
116.0492	66
120.0345	133
121.043	133
123.0329	66
124.017	133
128.0462	133
129.0428	133
130.0265	66
133.0422	133
134.0387	133
135.0223	266
135.0458	66
139.0518	66
140.0487	66
141.0447	199
146.0449	133
147.0443	66
148.0325	133
148.0546	266
149.0593	66
151.0303	199
151.0579	66
152.0141	133
154.0633	66
158.0421	66
162.0336	133
163.031	199
165.0438	66
167.0703	66
168.0367	133
171.0542	133
172.0542	133
173.0486	133
176.0482	199
177.0596	199
179.023	66
179.0631	133
184.0541	133
185.0633	66
193.0753	66
199.0669	266
203.0569	133
205.0748	66
210.0588	266
259.0461	66
