Mass spectrum: Octrizole; LC-ESI-QTOF; MS2; 130 V
Name: Octrizole
Class: Industrial_process
Formula: C20H25N3O
Exact mass: 323.1998
SMILES: CC(C)(C)CC(C)(C)C1=CC(=C(C=C1)O)N2N=C3C=CC=CC3=N2
InChI: InChI=1S/C20H25N3O/c1-19(2,3)13-20(4,5)14-10-11-18(24)17(12-14)23-21-15-8-6-7-9-16(15)22-23/h6-12,24H,13H2,1-5H3
Instrument: TripleTOF 5600 SCIEX
Instrument type: LC-ESI-QTOF
Ms type: MS2
Ion mode: POSITIVE
Collision energy: 130
Fragmentation mode: CID
Ionization: ESI
Column name: Zorbax Eclipse Plus C18 2.1 mm x 150 mm, 3.5 um, Agilent
Retention time: 19.562 min
Precursor m/z: 324.207
Precursor type: [M+H]+
m/z	relative intensity
63.0271	133
65.0458	999
77.043	976
79.0604	133
89.0441	133
91.0574	222
92.0521	111
103.0564	133
105.0461	133
115.0596	88
127.0554	133
128.0478	133
139.0571	177
140.0501	199
151.0558	155
163.0489	111
166.0655	111
