Mass spectrum: Metolachlor OA; LC-ESI-QTOF; MS2; 30 V
Name: Metolachlor OA
Class: Herbicide
Formula: C15H21NO4
Exact mass: 279.1471
SMILES: CCC1=CC=CC(=C1N(C(C)COC)C(=O)C(=O)O)C
InChI: InChI=1S/C15H21NO4/c1-5-12-8-6-7-10(2)13(12)16(11(3)9-20-4)14(17)15(18)19/h6-8,11H,5,9H2,1-4H3,(H,18,19)
Instrument: TripleTOF 5600 SCIEX
Instrument type: LC-ESI-QTOF
Ms type: MS2
Ion mode: POSITIVE
Collision energy: 30
Fragmentation mode: CID
Ionization: ESI
Column name: Zorbax Eclipse Plus C18 2.1 mm x 150 mm, 3.5 um, Agilent
Retention time: 9.915 min
Precursor m/z: 280.1543
Precursor type: [M+H]+
m/z	relative intensity
59.0545	9
73.0668	51
117.0681	11
118.0646	21
119.0823	35
120.0836	15
129.064	15
130.0664	19
131.072	73
132.0812	37
133.0916	23
134.0957	71
144.0788	97
145.0867	9
146.0955	221
147.1025	11
148.1107	167
159.1031	13
160.0765	19
160.112	45
162.0887	45
174.1267	49
176.1428	119
184.1093	13
202.124	37
204.1374	21
220.1313	63
248.1275	999
