Mass spectrum: Disperse orange 3; LC-ESI-QTOF; MS2; 50 V
Name: Disperse orange 3
Formula: C12H10N4O2
Exact mass: 242.0804
SMILES: C1=CC(=CC=C1N)N=NC2=CC=C(C=C2)[N+](=O)[O-]
InChI: InChI=1S/C12H10N4O2/c13-9-1-3-10(4-2-9)14-15-11-5-7-12(8-6-11)16(17)18/h1-8H,13H2
Instrument: TripleTOF 6600 SCIEX
Instrument type: LC-ESI-QTOF
Ms type: MS2
Ion mode: POSITIVE
Collision energy: 50
Fragmentation mode: CID
Ionization: ESI
Column name: Zorbax Eclipse Plus C18 2.1 mm x 150 mm, 3.5 um, Agilent
Retention time: 12.729 min
Precursor m/z: 243.0877
Precursor type: [M+H]+
m/z	relative intensity
50.0141	152
62.0136	11
63.0213	159
64.0295	109
65.0369	58
66.0447	84
73.0051	13
74.0136	120
75.0216	999
76.0294	754
79.0399	60
92.0244	168
92.0472	113
93.056	481
105.0431	74
106.0509	39
107.0584	11
150.027	13
167.0701	14
