Mass spectrum: Ametryn; LC-ESI-QTOF; MS2; 150 V
Name: Ametryn
Class: Herbicide
Formula: C9H17N5S
Exact mass: 227.1205
SMILES: CCNc1nc(NC(C)C)nc(SC)n1
InChI: InChI=1S/C9H17N5S/c1-5-10-7-12-8(11-6(2)3)14-9(13-7)15-4/h6H,5H2,1-4H3,(H2,10,11,12,13,14)
Instrument: TripleTOF 5600 SCIEX
Instrument type: LC-ESI-QTOF
Ms type: MS2
Ion mode: POSITIVE
Collision energy: 150
Fragmentation mode: CID
Ionization: ESI
Column name: Zorbax Eclipse Plus C18 2.1 mm x 150 mm, 3.5 um, Agilent
Retention time: 8.651 min
Precursor m/z: 228.1277
Precursor type: [M+H]+
m/z	relative intensity
41.0218	151
42.0349	134
43.0379	999
44.0582	16
53.0185	33
55.0336	13
57.9787	255
58.9865	154
59.0016	20
59.9952	178
68.0281	763
74.0086	20
84.9865	104
