Mass spectrum: L-Thyronine; LC-ESI-QTOF; MS2; 80 V
Name: L-Thyronine
Class: Pharmaceutical
Formula: C15H15NO4
Exact mass: 273.1001
SMILES: N[C@@H](Cc1ccc(Oc2ccc(O)cc2)cc1)C(O)=O
InChI: InChI=1S/C15H15NO4/c16-14(15(18)19)9-10-1-5-12(6-2-10)20-13-7-3-11(17)4-8-13/h1-8,14,17H,9,16H2,(H,18,19)/t14-/m0/s1
Instrument: TripleTOF 5600 SCIEX
Instrument type: LC-ESI-QTOF
Ms type: MS2
Ion mode: POSITIVE
Collision energy: 80
Fragmentation mode: CID
Ionization: ESI
Column name: Zorbax Eclipse Plus C18 2.1 mm x 150 mm, 3.5 um, Agilent
Retention time: 5.619 min
Precursor m/z: 274.1074
Precursor type: [M+H]+
m/z	relative intensity
39.0233	58
51.0222	35
53.0381	105
65.0381	346
66.0461	188
76.028	23
77.038	293
78.0468	35
79.0545	23
81.033	534
89.0386	58
91.0537	869
92.0633	41
93.0319	29
93.0562	35
94.0408	329
102.047	52
103.0551	41
104.0491	235
107.047	29
109.0268	105
115.0536	334
117.0569	158
118.0645	999
119.0723	94
127.0532	47
128.0614	88
139.0542	88
141.0684	41
151.0553	29
152.0599	70
153.0685	29
163.0533	41
164.063	58
165.0682	52
181.0661	29
