Mass spectrum: Clopidogrel; LC-ESI-QTOF; MS2; 70 V
Name: Clopidogrel
Class: Pharmaceutical
Formula: C16H16ClNO2S
Exact mass: 321.059
SMILES: COC(=O)C(c1ccccc1Cl)N2CCc3c(ccs3)C2
InChI: InChI=1S/C16H16ClNO2S/c1-20-16(19)15(12-4-2-3-5-13(12)17)18-8-6-14-11(10-18)7-9-21-14/h2-5,7,9,15H,6,8,10H2,1H3
Instrument: TripleTOF 5600 SCIEX
Instrument type: LC-ESI-QTOF
Ms type: MS2
Ion mode: POSITIVE
Collision energy: 70
Fragmentation mode: CID
Ionization: ESI
Column name: Zorbax Eclipse Plus C18 2.1 mm x 150 mm, 3.5 um, Agilent
Retention time: 12.465 min
Precursor m/z: 322.0663
Precursor type: [M+H]+
m/z	relative intensity
45.0414	45
51.0295	24
65.0429	59
75.0257	10
77.0422	385
89.0407	84
90.048	20
91.057	611
92.0629	12
99.001	38
105.0348	308
110.9999	61
112.0077	46
117.0576	16
125.0165	999
133.0288	94
138.9952	259
140.0023	44
148.0523	24
152.0268	29
154.0433	10
155.0269	931
