Mass spectrum: Mefenpyr-diethyl; LC-ESI-QTOF; MS2; 60 V
Name: Mefenpyr-diethyl
Class: Herbicide
Formula: C16H18Cl2N2O4
Exact mass: 372.0644
SMILES: CCOC(=O)C1=NN(C(C1)(C)C(=O)OCC)C2=C(C=C(C=C2)Cl)Cl
InChI: InChI=1S/C16H18Cl2N2O4/c1-4-23-14(21)12-9-16(3,15(22)24-5-2)20(19-12)13-7-6-10(17)8-11(13)18/h6-8H,4-5,9H2,1-3H3
Instrument: TripleTOF 5600 SCIEX
Instrument type: LC-ESI-QTOF
Ms type: MS2
Ion mode: POSITIVE
Collision energy: 60
Fragmentation mode: CID
Ionization: ESI
Column name: Zorbax Eclipse Plus C18 2.1 mm x 150 mm, 3.5 um, Agilent
Retention time: 14.581 min
Precursor m/z: 373.0716
Precursor type: [M+H]+
m/z	relative intensity
72.9908	10
74.0217	22
82.9475	13
99.0025	34
108.9855	157
123.9964	33
125.004	49
132.9616	999
144.9616	672
151.0188	29
155.0613	33
158.9766	13
159.9719	675
160.9789	70
162.0128	12
163.019	44
164.0266	49
165.0343	28
172.9672	261
173.9875	24
183.972	27
184.966	17
185.9872	738
189.0217	149
190.0298	146
191.0369	13
192.044	14
197.9856	14
218.0243	17
224.999	26
227.0129	16
252.9931	183
298.9984	21
