Mass spectrum: Rifaximin; LC-ESI-QTOF; MS2; 60 V
Name: Rifaximin
Class: Pharmaceutical
Formula: C43H51N3O11
Exact mass: 785.3524
SMILES: CC1C=CC=C(C(=O)NC2=C(C3=C(C4=C(C(=C3O)C)OC(C4=O)(OC=CC(C(C(C(C(C(C1O)C)O)C)OC(=O)C)C)OC)C)C5=C2N6C=CC(=CC6=N5)C)O)C
InChI: InChI=1S/C43H51N3O11/c1-19-14-16-46-28(18-19)44-32-29-30-37(50)25(7)40-31(29)41(52)43(9,57-40)55-17-15-27(54-10)22(4)39(56-26(8)47)24(6)36(49)23(5)35(48)20(2)12-11-13-21(3)42(53)45-33(34(32)46)38(30)51/h11-18,20,22-24,27,35-36,39,48-51H,1-10H3,(H,45,53)
Instrument: TripleTOF 6600 SCIEX
Instrument type: LC-ESI-QTOF
Ms type: MS2
Ion mode: POSITIVE
Collision energy: 60
Fragmentation mode: CID
Ionization: ESI
Column name: Zorbax Eclipse Plus C18 2.1 mm x 150 mm, 3.5 um, Agilent
Retention time: 11.765 min
Precursor m/z: 786.3597
Precursor type: [M+H]+
m/z	relative intensity
39.0228	10
41.0379	17
43.0172	48
55.054	20
57.0322	12
65.037	12
67.0532	81
69.0326	48
69.0684	45
71.0478	12
77.0372	45
79.0526	81
81.0685	76
83.0475	30
83.0842	10
85.0258	10
85.0634	28
91.0527	125
93.0684	163
95.0478	135
95.066	15
95.0841	526
97.0262	15
97.0632	107
97.0991	17
99.0439	12
99.0798	15
103.0521	12
105.0683	143
107.0476	17
107.0842	393
108.0551	15
109.0637	217
109.1001	104
111.0427	28
111.0787	99
113.0585	22
115.0527	20
117.0685	43
119.0842	148
120.0869	10
121.0631	112
121.0993	145
123.0791	692
123.115	38
125.0578	20
125.0949	94
127.0734	15
128.0598	17
129.0679	12
130.0762	40
131.0844	61
133.0627	51
133.0998	153
135.0791	306
135.1153	122
137.0582	28
137.0944	97
137.1308	38
139.0746	35
139.1097	28
141.0694	12
141.0896	10
142.076	12
143.0844	56
144.0913	20
145.0634	10
145.0998	252
147.0792	38
147.1154	235
149.0572	25
149.0948	68
149.1308	20
151.0742	794
151.1102	33
153.0899	137
155.0843	20
155.1065	12
156.0924	22
157.0997	89
158.1064	22
159.0792	30
159.1161	120
160.0871	30
161.0948	288
161.1305	28
163.0784	15
163.1107	746
165.1261	68
167.1037	10
169.0989	22
170.108	22
171.0796	15
171.1158	71
172.0887	10
172.1234	22
173.095	186
173.1316	143
174.0991	15
175.1102	176
175.147	33
177.0912	94
177.1255	48
179.1049	132
181.1209	38
183.1152	35
184.1208	10
185.0955	25
185.1317	79
186.102	22
187.1104	35
187.1479	33
189.0894	15
189.1274	38
191.1054	247
191.142	12
193.1214	45
195.1143	38
197.1314	28
198.1391	22
199.1114	51
199.1473	20
201.1266	99
203.1053	20
203.1419	68
207.1156	12
209.1157	12
209.1317	68
211.1127	20
211.1457	30
213.1267	63
213.1615	12
215.1414	22
217.1209	35
217.1598	15
219.1372	43
221.1314	12
221.155	12
223.1111	17
223.1473	48
225.1244	15
225.1625	30
227.1442	33
229.1216	12
231.137	68
237.1256	30
237.1596	10
241.1571	20
246.1401	15
249.1265	12
251.1804	17
253.1562	25
255.137	12
261.1644	28
269.189	28
271.1708	20
279.1754	28
292.1035	12
297.185	68
301.0927	10
305.1117	17
306.1215	17
315.1962	40
319.1079	20
332.1068	22
344.1084	25
345.0848	20
346.0938	99
347.1026	337
348.108	102
349.1129	22
357.2089	28
358.1078	20
359.1123	25
360.0983	63
361.0536	10
361.1065	250
362.1135	999
363.1202	86
364.1264	22
372.098	15
373.1115	25
388.0929	45
390.1208	25
398.1097	12
399.1245	12
400.1267	17
405.1319	12
406.1409	25
412.1275	25
413.142	12
414.1463	12
425.1337	17
426.1446	28
427.1533	10
432.1217	15
436.1352	28
436.1661	10
437.1354	15
438.1418	20
439.1512	35
440.1602	10
441.143	10
446.1492	10
448.1666	35
449.1494	20
450.147	48
452.1591	38
454.1345	22
456.1535	33
464.1609	25
464.2025	15
465.1669	135
466.1772	224
467.183	109
468.1915	53
476.1601	17
478.1757	30
479.1851	17
480.1871	17
482.1719	35
483.1814	10
484.1831	43
490.1919	12
494.1699	132
495.18	97
496.1858	112
504.1883	20
506.2072	38
507.2075	12
509.1958	28
510.2019	22
512.1806	43
518.2062	17
524.2174	35
534.2026	20
538.1962	48
552.2154	20
553.2225	33
554.2315	12
571.2508	12
604.2759	12
622.2935	17
623.3007	25
640.2805	25
650.2831	15
650.3225	20
658.2917	122
676.3017	229
677.3008	15
682.317	33
690.3213	40
694.3098	58
700.3104	15
708.3271	104
709.3395	15
710.3128	10
718.3126	160
726.3405	12
736.326	342
737.3307	30
750.3431	12
754.3324	48
768.3496	58
