Mass spectrum: Trioctylphosphine oxide; LC-ESI-QTOF; MS2; 60 V
Name: Trioctylphosphine oxide
Class: Industrial_process
Formula: C24H51OP
Exact mass: 386.3678
SMILES: CCCCCCCCP(=O)(CCCCCCCC)CCCCCCCC
InChI: InChI=1S/C24H51OP/c1-4-7-10-13-16-19-22-26(25,23-20-17-14-11-8-5-2)24-21-18-15-12-9-6-3/h4-24H2,1-3H3
Instrument: TripleTOF 5600 SCIEX
Instrument type: LC-ESI-QTOF
Ms type: MS2
Ion mode: POSITIVE
Collision energy: 60
Fragmentation mode: CID
Ionization: ESI
Column name: Zorbax Eclipse Plus C18 2.1 mm x 150 mm, 3.5 um, Agilent
Retention time: 22.9 min
Precursor m/z: 387.375
Precursor type: [M+H]+
m/z	relative intensity
63.0073	34
64.0147	33
69.0767	28
77.0209	35
78.0289	165
91.0353	33
92.0431	107
105.0496	35
106.0572	20
119.0648	38
133.08	47
147.0947	47
161.1105	43
163.1263	21
175.1262	48
189.141	113
203.1564	80
205.1726	14
217.1715	77
219.1885	12
231.1873	185
245.203	160
259.2194	47
273.2345	61
275.2501	109
287.2485	22
289.2636	10
301.2652	334
303.2801	60
317.2965	102
331.3128	47
345.3288	18
387.3747	999
