Mass spectrum: 6alpha-Methylprednisolone; LC-ESI-QTOF; MS2; 90 V
Name: 6alpha-Methylprednisolone
Class: Pharmaceutical
Formula: C22H30O5
Exact mass: 374.2093
SMILES: C[C@H]1C[C@H]2[C@@H]3CC[C@](O)(C(=O)CO)[C@@]3(C)C[C@H](O)[C@@H]2[C@@]4(C)C=CC(=O)C=C14
InChI: InChI=1S/C22H30O5/c1-12-8-14-15-5-7-22(27,18(26)11-23)21(15,3)10-17(25)19(14)20(2)6-4-13(24)9-16(12)20/h4,6,9,12,14-15,17,19,23,25,27H,5,7-8,10-11H2,1-3H3/t12-,14-,15-,17-,19+,20-,21-,22-/m0/s1
Instrument: TripleTOF 5600 SCIEX
Instrument type: LC-ESI-QTOF
Ms type: MS2
Ion mode: POSITIVE
Collision energy: 90
Fragmentation mode: CID
Ionization: ESI
Column name: Zorbax Eclipse Plus C18 2.1 mm x 150 mm, 3.5 um, Agilent
Retention time: 9.016 min
Precursor m/z: 375.2166
Precursor type: [M+H]+
m/z	relative intensity
43.024	36
55.0602	36
65.0423	101
77.0407	528
79.056	159
81.0719	36
89.0447	43
91.0553	999
93.0704	72
103.0538	130
105.0694	340
105.095	36
107.0501	57
107.0858	94
115.0531	933
115.084	36
116.0605	108
116.0747	28
117.0699	101
117.0796	65
119.0846	50
121.0634	260
127.052	195
128.061	463
129.0685	275
131.0477	188
131.0835	72
132.0573	50
133.1005	28
135.0792	94
139.058	43
141.0685	441
142.0775	130
144.0573	65
145.0632	173
146.0728	79
151.0576	72
152.0617	369
153.0686	246
154.0773	36
155.084	72
157.0634	180
158.073	65
165.0694	651
166.0763	115
167.0848	86
168.0567	36
169.0661	72
171.0793	94
172.0888	28
176.0605	28
177.0685	94
178.0767	412
179.0846	195
180.093	36
181.0642	260
182.07	28
185.0951	36
189.0703	202
190.0733	180
191.0854	137
192.0941	50
194.0731	144
195.0797	224
196.0869	36
197.098	28
201.0702	50
202.0774	238
203.0863	152
204.0981	57
205.0664	86
205.1025	57
206.0714	65
207.0777	144
208.087	123
209.0955	43
215.0853	115
216.0952	36
218.0795	36
219.0818	123
220.0885	43
221.0948	65
229.1088	43
231.0791	65
245.0944	50
