Mass spectrum: L-Thyronine; LC-ESI-QTOF; MS2; 50 V
Name: L-Thyronine
Class: Pharmaceutical
Formula: C15H15NO4
Exact mass: 273.1001
SMILES: N[C@@H](Cc1ccc(Oc2ccc(O)cc2)cc1)C(O)=O
InChI: InChI=1S/C15H15NO4/c16-14(15(18)19)9-10-1-5-12(6-2-10)20-13-7-3-11(17)4-8-13/h1-8,14,17H,9,16H2,(H,18,19)/t14-/m0/s1
Instrument: TripleTOF 5600 SCIEX
Instrument type: LC-ESI-QTOF
Ms type: MS2
Ion mode: POSITIVE
Collision energy: 50
Fragmentation mode: CID
Ionization: ESI
Column name: Zorbax Eclipse Plus C18 2.1 mm x 150 mm, 3.5 um, Agilent
Retention time: 5.619 min
Precursor m/z: 274.1074
Precursor type: [M+H]+
m/z	relative intensity
53.0386	25
65.0379	161
66.0456	42
77.0374	38
79.054	17
81.0337	348
91.0549	161
92.0624	46
93.0336	63
94.0413	735
102.0441	17
103.0533	42
104.0486	72
106.0647	21
107.047	21
109.0286	548
115.0545	102
117.0667	38
118.0652	999
119.0505	29
119.0728	939
120.084	21
128.0605	29
141.0701	352
144.0611	17
152.0614	25
153.0714	46
155.0877	25
165.0687	170
168.0576	63
169.0639	144
181.0669	42
194.0742	25
197.0612	38
210.068	34
211.0773	55
215.0691	80
