Mass spectrum: Fenbendazole; LC-ESI-QTOF; MS2; 40 V
Name: Fenbendazole
Class: Pharmaceutical
Formula: C15H13N3O2S
Exact mass: 299.0728
SMILES: COC(=O)Nc1[nH]c2cc(Sc3ccccc3)ccc2n1
InChI: InChI=1S/C15H13N3O2S/c1-20-15(19)18-14-16-12-8-7-11(9-13(12)17-14)21-10-5-3-2-4-6-10/h2-9H,1H3,(H2,16,17,18,19)
Instrument: TripleTOF 5600 SCIEX
Instrument type: LC-ESI-QTOF
Ms type: MS2
Ion mode: POSITIVE
Collision energy: 40
Fragmentation mode: CID
Ionization: ESI
Column name: Zorbax Eclipse Plus C18 2.1 mm x 150 mm, 3.5 um, Agilent
Retention time: 9.947 min
Precursor m/z: 300.0801
Precursor type: [M+H]+
m/z	relative intensity
104.0371	15
109.0108	57
122.0054	15
131.0477	66
159.0428	752
190.0071	197
191.0138	30
198.0363	12
226.0556	16
240.0594	19
268.0536	999
