Mass spectrum: Dipyridamole; LC-ESI-QTOF; MS2; 70 V
Name: Dipyridamole
Class: Pharmaceutical
Formula: C24H40N8O4
Exact mass: 504.3173
SMILES: OCCN(CCO)c1nc(N2CCCCC2)c3nc(nc(N4CCCCC4)c3n1)N(CCO)CCO
InChI: InChI=1S/C24H40N8O4/c33-15-11-31(12-16-34)23-26-20-19(21(27-23)29-7-3-1-4-8-29)25-24(32(13-17-35)14-18-36)28-22(20)30-9-5-2-6-10-30/h33-36H,1-18H2
Instrument: TripleTOF 5600 SCIEX
Instrument type: LC-ESI-QTOF
Ms type: MS2
Ion mode: POSITIVE
Collision energy: 70
Fragmentation mode: CID
Ionization: ESI
Column name: Zorbax Eclipse Plus C18 2.1 mm x 150 mm, 3.5 um, Agilent
Retention time: 7.666 min
Precursor m/z: 505.3245
Precursor type: [M+H]+
m/z	relative intensity
70.0702	18
84.0809	20
114.054	45
162.076	12
174.0787	22
175.0783	14
176.0812	15
177.1068	11
187.0738	20
188.0891	11
189.0894	36
190.0937	48
191.091	34
192.0865	18
193.0965	14
200.0894	15
201.0866	26
202.0825	31
203.1024	22
204.1008	45
205.1055	26
206.1024	34
208.1072	12
213.09	11
214.0945	12
215.1042	50
216.1007	59
217.1046	41
218.1094	44
219.1083	18
220.1167	44
221.1153	11
227.1046	26
228.1082	47
229.1156	33
230.1143	58
231.1038	61
232.1152	28
233.1134	53
234.1154	47
239.1044	11
240.1181	12
241.1189	22
242.1163	42
242.1386	12
243.1029	12
243.1242	39
244.1283	45
245.1108	12
245.1326	47
246.1092	56
246.1351	15
247.1284	47
248.1241	71
249.1223	36
250.1114	11
252.1288	14
253.123	12
254.1145	17
255.1353	36
256.1313	36
257.1214	34
257.1488	37
258.147	52
259.1287	50
259.1537	17
260.1267	61
260.143	17
260.1651	12
261.1387	58
262.1412	22
263.1341	47
267.1368	11
268.1302	17
269.1224	11
269.1443	31
270.1468	61
271.1321	78
272.1248	26
272.1584	75
273.1525	104
274.1456	50
274.1764	31
275.1503	69
276.1545	14
277.139	41
278.1374	17
280.1464	11
281.1481	15
282.1427	14
284.1308	15
284.1625	89
285.1538	52
285.1724	22
286.1374	12
286.1738	78
287.1427	47
287.1698	36
288.1571	59
288.1882	11
289.168	56
290.1393	15
290.1785	26
291.1577	14
292.1512	20
293.1473	14
295.1632	18
296.1629	22
297.1707	28
298.1391	15
298.1774	45
299.1308	9
299.1671	89
300.1558	67
300.191	20
301.159	58
301.1806	53
302.1731	282
303.1729	56
304.1574	20
304.1887	59
305.1734	22
310.1781	26
311.1752	29
312.1567	25
312.1857	37
313.1843	56
314.1725	113
315.1655	66
315.1989	12
316.1521	12
316.1883	287
317.1821	206
318.1706	18
318.1995	61
319.1819	15
321.1685	14
325.1898	23
326.1711	26
326.2008	14
327.1946	15
328.1892	160
329.1839	113
330.1696	25
330.2022	91
331.1616	17
331.1997	134
332.185	48
333.1807	12
334.177	11
334.2009	22
337.183	18
339.2081	34
340.1872	36
341.188	39
341.216	42
342.2027	52
343.1969	121
344.1833	29
344.2147	18
345.2132	22
346.1978	284
348.1847	11
348.2138	132
353.2235	12
354.2007	26
355.1971	97
355.2339	42
356.2188	67
357.212	74
358.1989	55
359.1934	17
360.2115	105
361.2077	112
367.2368	52
368.2203	33
369.2154	69
369.2548	11
370.241	9
371.2321	36
372.2143	33
373.2098	101
374.2303	36
375.2234	33
378.2239	42
381.2546	23
382.2361	28
383.231	91
384.2395	23
385.1983	11
385.2456	999
386.2305	55
387.2235	97
397.2484	71
398.2308	11
398.2566	18
399.2608	404
400.2458	12
401.2381	72
402.2238	22
402.2553	11
404.2375	75
411.2627	127
412.2509	39
413.2379	37
415.261	71
416.2402	11
417.2353	88
417.2753	26
419.2506	20
420.2349	14
422.2502	14
427.2537	61
429.2727	969
431.2511	110
441.2617	14
443.2904	53
449.2593	31
459.2803	33
461.3033	18
487.3159	39
503.3128	20
505.3209	93
