Mass spectrum: Telmisartan; LC-ESI-QTOF; MS2; 120 V
Name: Telmisartan
Class: Pharmaceutical
Formula: C33H30N4O2
Exact mass: 514.2369
SMILES: CCCc1nc2c(C)cc(cc2n1Cc3ccc(cc3)c4ccccc4C(O)=O)c5nc6ccccc6n5C
InChI: InChI=1S/C33H30N4O2/c1-4-9-30-35-31-21(2)18-24(32-34-27-12-7-8-13-28(27)36(32)3)19-29(31)37(30)20-22-14-16-23(17-15-22)25-10-5-6-11-26(25)33(38)39/h5-8,10-19H,4,9,20H2,1-3H3,(H,38,39)
Instrument: TripleTOF 5600 SCIEX
Instrument type: LC-ESI-QTOF
Ms type: MS2
Ion mode: NEGATIVE
Collision energy: 120
Fragmentation mode: CID
Ionization: ESI
Column name: Zorbax Eclipse Plus C18 2.1 mm x 150 mm, 3.5 um, Agilent
Retention time: 8.861 min
Precursor m/z: 513.2296
Precursor type: [M-H]-
m/z	relative intensity
205.0817	166
218.0758	166
230.0703	66
232.0909	99
244.0776	133
245.0864	133
257.0869	299
259.0994	699
269.079	133
270.0913	266
271.1014	999
272.11	199
