Mass spectrum: Clodinafop-Propargyl; LC-ESI-QTOF; MS2; 100 V
Name: Clodinafop-Propargyl
Class: Herbicide
Formula: C17H13ClFNO4
Exact mass: 349.0517
SMILES: CC(C(=O)OCC#C)OC1=CC=C(C=C1)OC2=C(C=C(C=N2)Cl)F
InChI: InChI=1S/C17H13ClFNO4/c1-3-8-22-17(21)11(2)23-13-4-6-14(7-5-13)24-16-15(19)9-12(18)10-20-16/h1,4-7,9-11H,8H2,2H3
Instrument: TripleTOF 6600 SCIEX
Instrument type: LC-ESI-QTOF
Ms type: MS2
Ion mode: POSITIVE
Collision energy: 100
Fragmentation mode: CID
Ionization: ESI
Column name: Zorbax Eclipse Plus C18 2.1 mm x 150 mm, 3.5 um, Agilent
Retention time: 13.951 min
Precursor m/z: 350.059
Precursor type: [M+H]+
m/z	relative intensity
37.0056	105
39.0217	394
50.0134	315
51.0211	473
57.0117	210
62.0132	210
63.0211	999
64.0285	184
65.0367	788
69.0113	131
74.013	578
75.0087	341
75.0209	788
76.0167	184
77.0371	788
81.012	131
81.0321	262
86.0132	131
91.0525	525
94.0065	157
96.0225	157
101.0368	289
102.0436	157
103.9806	184
105.0132	157
106.0186	341
107.0272	157
108.0227	236
109.9773	867
120.0346	131
127.0391	105
128.0473	131
129.0422	131
129.9825	394
131.0266	552
132.0212	131
132.0364	473
133.0447	184
139.039	157
140.9901	105
149.0372	157
158.0385	972
159.0476	368
