Mass spectrum: Norlidocaine; LC-ESI-QTOF; MS2; 100 V
Name: Norlidocaine
Class: Pharmaceutical; Metabolite; Transformation_product-Metabolite
Formula: C12H18N2O
Exact mass: 206.1419
SMILES: CCNCC(=O)Nc1c(cccc1C)C
InChI: InChI=1S/C12H18N2O/c1-4-13-8-11(15)14-12-9(2)6-5-7-10(12)3/h5-7,13H,4,8H2,1-3H3,(H,14,15)
Instrument: TripleTOF 6600 SCIEX
Instrument type: LC-ESI-QTOF
Ms type: MS2
Ion mode: POSITIVE
Collision energy: 100
Fragmentation mode: CID
Ionization: ESI
Column name: Zorbax Eclipse Plus C18 2.1 mm x 150 mm, 3.5 um, Agilent
Retention time: 5.349 min
Precursor m/z: 207.1492
Precursor type: [M+H]+
m/z	relative intensity
30.0338	323
37.0071	77
38.0024	175
38.0153	63
39.0228	253
40.0058	28
42.0335	140
49.0072	63
50.0152	429
51.023	999
52.0065	42
53.0134	70
53.0384	56
58.0654	112
62.015	77
63.0232	168
65.0387	232
67.0406	42
74.0145	35
77.0387	794
78.0332	49
79.0538	154
80.0498	77
89.0386	246
91.0534	112
105.0447	35
106.0651	260
