Mass spectrum: 3-Alizarinsulfonic acid; LC-ESI-QTOF; MS2; 140 V
Name: 3-Alizarinsulfonic acid
Formula: C14H8O7S
Exact mass: 319.9991
SMILES: C1=CC=C2C(=C1)C(=O)C3=CC(=C(C(=C3C2=O)O)O)S(=O)(=O)O
InChI: InChI=1S/C14H8O7S/c15-11-6-3-1-2-4-7(6)12(16)10-8(11)5-9(22(19,20)21)13(17)14(10)18/h1-5,17-18H,(H,19,20,21)
Instrument: TripleTOF 6600 SCIEX
Instrument type: LC-ESI-QTOF
Ms type: MS2
Ion mode: POSITIVE
Collision energy: 140
Fragmentation mode: CID
Ionization: ESI
Column name: Zorbax Eclipse Plus C18 2.1 mm x 150 mm, 3.5 um, Agilent
Retention time: 8.229 min
Precursor m/z: 321.0064
Precursor type: [M+H]+
m/z	relative intensity
39.0204	47
51.0219	999
53.0009	95
73.0051	47
73.0097	47
74.0151	570
75.0224	428
76.029	47
77.0394	142
85.0082	47
86.0145	47
87.021	95
98.0153	142
99.0215	47
111.0231	47
