Mass spectrum: Dimethenamid-OA; LC-ESI-QTOF; MS2; 40 V
Name: Dimethenamid-OA
Class: Transformation_product; Herbicide
Formula: C12H17NO4S
Exact mass: 271.0878
SMILES: Cc1csc(c1N(C(C)COC)C(=O)C(=O)O)C
InChI: InChI=1S/C12H17NO4S/c1-7-6-18-9(3)10(7)13(8(2)5-17-4)11(14)12(15)16/h6,8H,5H2,1-4H3,(H,15,16)
Instrument: TripleTOF 6600 SCIEX
Instrument type: LC-ESI-QTOF
Ms type: MS2
Ion mode: NEGATIVE
Collision energy: 40
Fragmentation mode: CID
Ionization: ESI
Column name: Zorbax Eclipse Plus C18 2.1 mm x 150 mm, 3.5 um, Agilent
Retention time: 8.208 min
Precursor m/z: 270.0805
Precursor type: [M-H]-
m/z	relative intensity
31.0186	121
32.9802	121
57.9741	60
66.0336	90
70.9944	211
73.0104	121
81.9733	90
83.9901	151
97.0095	302
98.0056	999
110.0191	60
111.0268	181
122.0056	211
123.0289	60
124.0211	181
125.0295	151
136.0241	151
137.0287	90
139.059	60
148.0218	242
150.0381	484
151.0461	121
152.0535	514
162.0371	211
164.0548	242
166.0682	817
167.0407	181
198.0963	60
