Mass spectrum: Fluconazole; LC-ESI-QTOF; MS2; 40 V
Name: Fluconazole
Class: Pharmaceutical
Formula: C13H12F2N6O
Exact mass: 306.1041
SMILES: OC(Cn1cncn1)(Cn2cncn2)c3ccc(F)cc3F
InChI: InChI=1S/C13H12F2N6O/c14-10-1-2-11(12(15)3-10)13(22,4-20-8-16-6-18-20)5-21-9-17-7-19-21/h1-3,6-9,22H,4-5H2
Instrument: TripleTOF 5600 SCIEX
Instrument type: LC-ESI-QTOF
Ms type: MS2
Ion mode: POSITIVE
Collision energy: 40
Fragmentation mode: CID
Ionization: ESI
Column name: Zorbax Eclipse Plus C18 2.1 mm x 150 mm, 3.5 um, Agilent
Retention time: 6.343 min
Precursor m/z: 307.1113
Precursor type: [M+H]+
m/z	relative intensity
70.044	423
75.0254	11
82.0419	15
83.0507	11
101.0225	17
101.0389	119
119.0298	35
121.0452	404
127.0357	665
129.0454	37
139.0357	641
141.0155	47
141.0509	412
141.0786	13
145.0431	35
146.0381	11
147.0349	13
149.04	43
151.0353	563
153.041	17
164.0449	13
166.0464	90
169.046	999
172.0574	15
173.0516	117
177.0463	21
193.0581	56
200.0614	223
220.0682	804
238.0789	288
