Mass spectrum: 4,4`-Methylenebis(2-chloroaniline); LC-ESI-QTOF; MS2; 80 V
Name: 4,4`-Methylenebis(2-chloroaniline)
Formula: C13H12Cl2N2
Exact mass: 266.0378
SMILES: C1=CC(=C(C=C1CC2=CC(=C(C=C2)N)Cl)Cl)N
InChI: InChI=1S/C13H12Cl2N2/c14-10-6-8(1-3-12(10)16)5-9-2-4-13(17)11(15)7-9/h1-4,6-7H,5,16-17H2
Instrument: TripleTOF 6600 SCIEX
Instrument type: LC-ESI-QTOF
Ms type: MS2
Ion mode: POSITIVE
Collision energy: 80
Fragmentation mode: CID
Ionization: ESI
Column name: Zorbax Eclipse Plus C18 2.1 mm x 150 mm, 3.5 um, Agilent
Retention time: 11.747 min
Precursor m/z: 267.045
Precursor type: [M+H]+
m/z	relative intensity
50.0153	27
51.0232	230
63.0225	20
65.0385	22
74.016	13
75.0227	61
76.0306	11
77.0385	956
78.0346	52
78.046	57
79.0418	11
89.0387	46
91.0551	20
92.0481	11
98.0173	9
99.0234	18
101.0396	39
102.045	50
103.0561	20
104.0499	429
105.0575	65
113.0141	11
113.0397	16
114.0445	16
115.054	288
116.0628	37
117.057	16
123.001	13
125.0391	81
126.0462	148
127.0178	16
127.0543	171
128.0605	113
129.0462	18
130.065	48
138.0497	13
139.0537	390
140.0258	325
140.049	159
140.0633	72
141.0688	122
142.0635	22
143.0724	59
149.0397	35
150.0461	487
151.0541	999
152.0618	837
153.0575	130
154.0648	107
155.0595	46
162.0479	35
163.0547	31
164.0281	20
164.0489	16
165.0546	24
166.066	457
167.0728	615
168.0807	126
169.0692	11
176.0496	29
177.0573	342
178.0646	253
179.0598	124
180.0809	48
181.0765	11
192.0664	44
193.0774	72
194.0865	79
195.0921	61
197.0133	14
