Mass spectrum: Tridemorph; LC-ESI-QTOF; MS2; 40 V
Name: Tridemorph
Class: Fungicide
Formula: C19H39NO
Exact mass: 297.3032
SMILES: CCCCCCCCCCCCCN1CC(OC(C1)C)C
InChI: InChI=1S/C19H39NO/c1-4-5-6-7-8-9-10-11-12-13-14-15-20-16-18(2)21-19(3)17-20/h18-19H,4-17H2,1-3H3
Instrument: TripleTOF 5600 SCIEX
Instrument type: LC-ESI-QTOF
Ms type: MS2
Ion mode: POSITIVE
Collision energy: 40
Fragmentation mode: CID
Ionization: ESI
Column name: Zorbax Eclipse Plus C18 2.1 mm x 150 mm, 3.5 um, Agilent
Retention time: 10.439 min
Precursor m/z: 298.3104
Precursor type: [M+H]+
m/z	relative intensity
39.0234	13
41.0384	28
43.0546	35
57.07	82
59.0498	11
70.0642	13
71.0851	48
72.0801	15
85.1011	21
98.0966	117
112.1115	10
116.1076	41
130.1232	140
240.2679	18
298.3115	999
