Mass spectrum: 3,4-Methylenedioxy-N-ethylamphetamine; LC-ESI-QTOF; MS2; 140 V
Name: 3,4-Methylenedioxy-N-ethylamphetamine
Class: Pharmaceutical
Formula: C12H17NO2
Exact mass: 207.1259
SMILES: CCNC(C)CC1=CC2=C(C=C1)OCO2
InChI: InChI=1S/C12H17NO2/c1-3-13-9(2)6-10-4-5-11-12(7-10)15-8-14-11/h4-5,7,9,13H,3,6,8H2,1-2H3
Instrument: TripleTOF 6600 SCIEX
Instrument type: LC-ESI-QTOF
Ms type: MS2
Ion mode: POSITIVE
Collision energy: 140
Fragmentation mode: CID
Ionization: ESI
Column name: Zorbax Eclipse Plus C18 2.1 mm x 150 mm, 3.5 um, Agilent
Retention time: 5.673 min
Precursor m/z: 208.1332
Precursor type: [M+H]+
m/z	relative intensity
35.9989	39
37.0072	198
38.0044	29
38.0147	132
39.0228	190
49.0068	212
50.0149	999
51.0226	442
59.999	34
61.0065	144
62.0146	164
63.0219	117
73.0069	30
74.0146	80
75.0219	12
77.0374	23
89.0372	14
