Mass spectrum: Bentazone; LC-ESI-QTOF; MS2; 40 V
Name: Bentazone
Class: Herbicide
Formula: C10H12N2O3S
Exact mass: 240.0569
SMILES: CC(C)N1C(=O)c2ccccc2NS1(=O)=O
InChI: InChI=1S/C10H12N2O3S/c1-7(2)12-10(13)8-5-3-4-6-9(8)11-16(12,14)15/h3-7,11H,1-2H3
Instrument: TripleTOF 6600 SCIEX
Instrument type: LC-ESI-QTOF
Ms type: MS2
Ion mode: NEGATIVE
Collision energy: 40
Fragmentation mode: CID
Ionization: ESI
Column name: Zorbax Eclipse Plus C18 2.1 mm x 150 mm, 3.5 um, Agilent
Retention time: 9.867 min
Precursor m/z: 239.0496
Precursor type: [M-H]-
m/z	relative intensity
41.9987	21
76.0312	69
77.0388	16
79.9567	26
105.0344	69
116.0376	28
117.0461	92
132.0335	999
133.0412	341
175.0874	123
195.9939	52
197.0028	222
239.0493	170
