Mass spectrum: Medroxyprogesterone; LC-ESI-QTOF; MS2; 140 V
Name: Medroxyprogesterone
Class: Pharmaceutical
Formula: C22H32O3
Exact mass: 344.2351
SMILES: CC1CC2C(CCC3(C2CCC3(C(=O)C)O)C)C4(C1=CC(=O)CC4)C
InChI: InChI=1S/C22H32O3/c1-13-11-16-17(20(3)8-5-15(24)12-19(13)20)6-9-21(4)18(16)7-10-22(21,25)14(2)23/h12-13,16-18,25H,5-11H2,1-4H3
Instrument: TripleTOF 6600 SCIEX
Instrument type: LC-ESI-QTOF
Ms type: MS2
Ion mode: POSITIVE
Collision energy: 140
Fragmentation mode: CID
Ionization: ESI
Column name: Zorbax Eclipse Plus C18 2.1 mm x 150 mm, 3.5 um, Agilent
Retention time: 12.524 min
Precursor m/z: 345.2424
Precursor type: [M+H]+
m/z	relative intensity
36.0002	24
37.0076	104
38.0151	98
39.0231	425
41.0385	197
43.0179	333
49.007	74
50.0149	320
51.0233	740
53.0385	117
55.0184	98
55.0537	61
62.0154	37
63.0225	92
65.0385	382
66.046	30
67.053	67
74.0148	30
75.023	43
77.0386	999
78.0461	123
79.054	203
81.0337	30
82.0421	30
89.0385	117
91.0547	320
102.0455	117
103.054	49
105.0443	37
105.0692	24
107.0482	67
115.0542	462
117.0692	24
126.0461	67
127.0536	129
128.0618	277
129.0688	43
139.0553	37
141.0699	74
150.0463	43
151.0536	74
152.0613	166
153.0701	43
155.0591	37
163.0543	43
164.061	49
165.0698	98
178.0774	37
189.0712	37
