Mass spectrum: Dehydroaripiprazole; LC-ESI-QTOF; MS2; 110 V
Name: Dehydroaripiprazole
Class: Metabolite; Pharmaceutical; Transformation_product-Metabolite
Formula: C23H25Cl2N3O2
Exact mass: 445.1324
SMILES: C1CN(CCN1CCCCOC2=CC3=C(C=C2)C=CC(=O)N3)C4=C(C(=CC=C4)Cl)Cl
InChI: InChI=1S/C23H25Cl2N3O2/c24-19-4-3-5-21(23(19)25)28-13-11-27(12-14-28)10-1-2-15-30-18-8-6-17-7-9-22(29)26-20(17)16-18/h3-9,16H,1-2,10-15H2,(H,26,29)
Instrument: TripleTOF 5600 SCIEX
Instrument type: LC-ESI-QTOF
Ms type: MS2
Ion mode: POSITIVE
Collision energy: 110
Fragmentation mode: CID
Ionization: ESI
Column name: Zorbax Eclipse Plus C18 2.1 mm x 150 mm, 3.5 um, Agilent
Retention time: 7.84 min
Precursor m/z: 446.1397
Precursor type: [M+H]+
m/z	relative intensity
39.0227	52
41.0385	78
42.0331	105
55.0531	105
56.049	446
63.0216	78
70.0646	118
74.0132	65
75.0215	105
77.0382	92
84.0797	354
89.0379	999
90.0462	144
91.0536	276
96.0788	65
98.0957	157
101.0376	105
108.9836	289
110.9999	144
116.0486	591
117.0565	906
118.0637	289
125.0124	78
128.0495	210
132.9602	78
138.0081	92
144.0448	197
144.9595	591
151.0175	144
152.0261	578
158.977	78
164.0276	157
165.0237	78
171.9729	328
172.9655	210
188.0023	105
212.9959	65
