Mass spectrum: Azathioprine; LC-ESI-QTOF; MS2; 40 V
Name: Azathioprine
Class: Pharmaceutical
Formula: C9H7N7O2S
Exact mass: 277.0382
SMILES: Cn1cnc(c1Sc2ncnc3nc[nH]c23)[N+]([O-])=O
InChI: InChI=1S/C9H7N7O2S/c1-15-4-14-7(16(17)18)9(15)19-8-5-6(11-2-10-5)12-3-13-8/h2-4H,1H3,(H,10,11,12,13)
Instrument: TripleTOF 5600 SCIEX
Instrument type: LC-ESI-QTOF
Ms type: MS2
Ion mode: POSITIVE
Collision energy: 40
Fragmentation mode: CID
Ionization: ESI
Column name: Zorbax Eclipse Plus C18 2.1 mm x 150 mm, 3.5 um, Agilent
Retention time: 5.367 min
Precursor m/z: 278.0455
Precursor type: [M+H]+
m/z	relative intensity
57.9803	151
67.0326	544
69.0131	75
74.0087	317
81.0468	151
84.9871	741
86.0082	75
106.0387	75
113.0163	317
119.0361	438
120.0429	317
121.0513	121
134.0597	75
136.0369	105
142.0065	469
145.0492	90
146.0465	121
152.0146	499
153.0205	90
159.054	121
160.062	121
164.0138	862
165.0219	590
172.0612	544
174.0759	196
176.0167	227
177.0208	423
191.0243	90
199.071	953
204.033	999
205.0412	650
231.0428	544
