Mass spectrum: Simazine; LC-ESI-QTOF; MS2; 40 V
Name: Simazine
Class: Herbicide
Formula: C7H12ClN5
Exact mass: 201.0781
SMILES: CCNc1nc(Cl)nc(NCC)n1
InChI: InChI=1S/C7H12ClN5/c1-3-9-6-11-5(8)12-7(13-6)10-4-2/h3-4H2,1-2H3,(H2,9,10,11,12,13)
Instrument: TripleTOF 5600 SCIEX
Instrument type: LC-ESI-QTOF
Ms type: MS2
Ion mode: POSITIVE
Collision energy: 40
Fragmentation mode: CID
Ionization: ESI
Column name: Zorbax Eclipse Plus C18 2.1 mm x 150 mm, 3.5 um, Agilent
Retention time: 8.925 min
Precursor m/z: 202.0854
Precursor type: [M+H]+
m/z	relative intensity
43.0387	237
61.9835	218
62.0058	11
68.0286	999
71.0641	296
79.0088	50
90.012	13
96.0562	432
104.0015	911
110.0532	9
124.0867	124
124.1075	15
132.0318	210
138.0771	17
146.0216	25
166.107	35
174.053	25
202.0861	29
