Mass spectrum: Spirodiclofen-enol; LC-ESI-QTOF; MS2; 120 V
Name: Spirodiclofen-enol
Formula: C15H14Cl2O3
Exact mass: 312.032
SMILES: C1CCC2(CC1)C(=C(C(=O)O2)C3=C(C=C(C=C3)Cl)Cl)O
InChI: InChI=1S/C15H14Cl2O3/c16-9-4-5-10(11(17)8-9)12-13(18)15(20-14(12)19)6-2-1-3-7-15/h4-5,8,18H,1-3,6-7H2
Instrument: TripleTOF 6600 SCIEX
Instrument type: LC-ESI-QTOF
Ms type: MS2
Ion mode: POSITIVE
Collision energy: 120
Fragmentation mode: CID
Ionization: ESI
Column name: Zorbax Eclipse Plus C18 2.1 mm x 150 mm, 3.5 um, Agilent
Retention time: 12.261 min
Precursor m/z: 313.0393
Precursor type: [M+H]+
m/z	relative intensity
37.0071	54
38.0148	41
39.023	164
41.0389	61
46.968	61
50.0146	96
51.0228	188
59.9992	51
61.0071	243
62.0143	312
62.9638	17
63.0227	257
65.0381	54
71.9749	154
72.9838	961
73.0069	72
74.0149	999
75.0226	456
76.03	48
77.0384	260
78.0451	17
82.9441	147
83.9987	20
84.9825	34
85.0075	236
86.0145	597
87.0225	916
88.0305	82
89.0383	381
95.9749	92
96.9831	298
98.0147	178
98.9987	30
99.0225	65
100.0296	20
101.0372	37
102.0463	48
106.9449	566
108.9832	68
110.9987	30
113.0383	199
114.0449	37
115.0531	243
120.9833	27
121.9903	151
122.9987	51
124.0101	17
125.0366	20
126.0452	151
127.0523	58
128.0605	54
129.0443	17
130.9443	37
136.0067	20
137.0385	20
138.0458	17
139.0036	24
139.0538	205
149.0141	24
149.0375	17
150.0448	178
151.0526	254
152.0613	315
155.0626	20
156.959	106
161.0368	20
162.0441	30
163.0538	219
164.0606	48
165.0684	78
175.0532	24
176.0613	278
177.0663	41
178.076	41
179.0593	20
