Mass spectrum: Metoprolol; LC-ESI-QTOF; MS2; 20 V
Name: Metoprolol
Class: Pharmaceutical
Formula: C15H25NO3
Exact mass: 267.1834
SMILES: CC(C)NCC(COC1=CC=C(C=C1)CCOC)O
InChI: InChI=1S/C15H25NO3/c1-12(2)16-10-14(17)11-19-15-6-4-13(5-7-15)8-9-18-3/h4-7,12,14,16-17H,8-11H2,1-3H3
Instrument: TripleTOF 6600 SCIEX
Instrument type: LC-ESI-QTOF
Ms type: MS2
Ion mode: POSITIVE
Collision energy: 20
Fragmentation mode: CID
Ionization: ESI
Column name: Zorbax Eclipse Plus C18 2.1 mm x 150 mm, 3.5 um, Agilent
Retention time: 6.14 min
Precursor m/z: 268.1907
Precursor type: [M+H]+
m/z	relative intensity
72.0805	13
74.0597	14
98.0959	17
116.1065	42
121.064	11
159.0798	15
176.1063	10
191.1063	37
218.1535	14
226.1441	18
268.1942	999
