Mass spectrum: Metolachlor OA; LC-ESI-QTOF; MS2; 80 V
Name: Metolachlor OA
Class: Herbicide; Transformation_product-Metabolite
Formula: C15H21NO4
Exact mass: 279.1471
SMILES: CCC1=CC=CC(=C1N(C(C)COC)C(=O)C(=O)O)C
InChI: InChI=1S/C15H21NO4/c1-5-12-8-6-7-10(2)13(12)16(11(3)9-20-4)14(17)15(18)19/h6-8,11H,5,9H2,1-4H3,(H,18,19)
Instrument: TripleTOF 5600 SCIEX
Instrument type: LC-ESI-QTOF
Ms type: MS2
Ion mode: POSITIVE
Collision energy: 80
Fragmentation mode: CID
Ionization: ESI
Column name: Zorbax Eclipse Plus C18 2.1 mm x 150 mm, 3.5 um, Agilent
Retention time: 9.915 min
Precursor m/z: 280.1543
Precursor type: [M+H]+
m/z	relative intensity
45.0444	175
65.0416	210
73.0691	87
77.0422	438
90.0494	70
91.0556	928
93.0595	87
103.0555	227
115.055	473
117.0568	385
117.0732	87
118.0646	227
119.0791	140
128.0608	122
130.0658	999
131.0718	175
132.0795	105
143.0757	105
144.0801	262
145.0914	122
