Mass spectrum: Dehydroaripiprazole; LC-ESI-QTOF; MS2; 80 V
Name: Dehydroaripiprazole
Class: Metabolite
Formula: C23H25Cl2N3O2
Exact mass: 445.1324
SMILES: C1CN(CCN1CCCCOC2=CC3=C(C=C2)C=CC(=O)N3)C4=C(C(=CC=C4)Cl)Cl
InChI: InChI=1S/C23H25Cl2N3O2/c24-19-4-3-5-21(23(19)25)28-13-11-27(12-14-28)10-1-2-15-30-18-8-6-17-7-9-22(29)26-20(17)16-18/h3-9,16H,1-2,10-15H2,(H,26,29)
Instrument: TripleTOF 5600 SCIEX
Instrument type: LC-ESI-QTOF
Ms type: MS2
Ion mode: POSITIVE
Collision energy: 80
Fragmentation mode: CID
Ionization: ESI
Column name: Zorbax Eclipse Plus C18 2.1 mm x 150 mm, 3.5 um, Agilent
Retention time: 7.84 min
Precursor m/z: 446.1397
Precursor type: [M+H]+
m/z	relative intensity
42.0339	39
44.0494	59
55.0541	112
56.0493	344
69.07	92
70.0649	165
84.0803	430
89.0375	172
90.0446	33
91.0536	86
96.08	92
98.0962	999
101.0378	46
108.9849	46
111.0004	39
116.0496	463
117.0573	224
118.0644	244
125.0119	33
128.0489	310
138.0099	39
144.0441	357
144.9613	145
146.0588	72
151.0171	59
152.0257	529
153.0332	277
158.9757	46
162.0536	52
164.0247	86
165.0316	79
166.0423	46
171.9714	549
172.9673	105
173.9856	99
174.0542	52
188.0037	264
193.0498	39
200.0007	125
212.9972	52
227.0108	52
228.0201	125
285.0937	39
