Mass spectrum: Reserpine; LC-ESI-QTOF; MS2; 50 V
Name: Reserpine
Class: Natural_product; Pharmaceutical
Formula: C33H40N2O9
Exact mass: 608.2734
SMILES: COC1C(CC2CN3CCC4=C(C3CC2C1C(=O)OC)NC5=C4C=CC(=C5)OC)OC(=O)C6=CC(=C(C(=C6)OC)OC)OC
InChI: InChI=1S/C33H40N2O9/c1-38-19-7-8-20-21-9-10-35-16-18-13-27(44-32(36)17-11-25(39-2)30(41-4)26(12-17)40-3)31(42-5)28(33(37)43-6)22(18)15-24(35)29(21)34-23(20)14-19/h7-8,11-12,14,18,22,24,27-28,31,34H,9-10,13,15-16H2,1-6H3
Instrument: TripleTOF 5600 SCIEX
Instrument type: LC-ESI-QTOF
Ms type: MS2
Ion mode: POSITIVE
Collision energy: 50
Fragmentation mode: CID
Ionization: ESI
Column name: Zorbax Eclipse Plus C18 2.1 mm x 150 mm, 3.5 um, Agilent
Retention time: 8.6 min
Precursor m/z: 609.2807
Precursor type: [M+H]+
m/z	relative intensity
131.0743	11
139.0765	10
143.0741	13
148.0766	22
152.0475	15
159.068	26
160.0764	31
162.0916	10
167.0704	27
174.0915	672
176.1058	12
186.0916	13
188.1069	30
190.0855	11
192.1025	91
195.0648	999
200.1065	36
201.1027	10
204.1026	34
212.1069	11
214.1094	10
215.1163	22
222.1115	12
224.1272	68
227.1177	12
236.1269	169
238.1211	18
250.1196	10
253.131	12
262.1215	10
265.1303	12
276.1376	26
288.1369	21
290.1179	11
304.1296	20
305.1642	14
316.1327	10
322.1404	19
333.156	25
334.1438	13
336.1577	82
348.1554	38
365.1841	234
368.1815	45
380.1865	12
397.2112	461
402.1532	11
413.208	11
434.1775	27
436.1935	43
448.1951	349
577.256	56
609.2781	198
