Mass spectrum: Desmetryn; LC-ESI-QTOF; MS2; 90 V
Name: Desmetryn
Class: Herbicide
Formula: C8H15N5S
Exact mass: 213.1048
SMILES: CC(C)NC1=NC(=NC(=N1)NC)SC
InChI: InChI=1S/C8H15N5S/c1-5(2)10-7-11-6(9-3)12-8(13-7)14-4/h5H,1-4H3,(H2,9,10,11,12,13)
Instrument: TripleTOF 6600 SCIEX
Instrument type: LC-ESI-QTOF
Ms type: MS2
Ion mode: POSITIVE
Collision energy: 90
Fragmentation mode: CID
Ionization: ESI
Column name: Zorbax Eclipse Plus C18 2.1 mm x 150 mm, 3.5 um, Agilent
Retention time: 7.281 min
Precursor m/z: 214.1121
Precursor type: [M+H]+
m/z	relative intensity
37.0056	20
38.0138	20
39.0219	122
41.0123	65
41.0376	77
42.02	77
42.0323	57
43.0281	999
44.9779	207
45.9725	16
46.9936	167
53.0114	93
55.0278	346
57.0432	905
57.9723	40
58.9807	93
59.9885	118
68.0226	680
71.9886	28
74.004	134
82.038	383
84.983	93
