Mass spectrum: 2-N-methyl-lamotrigine; LC-ESI-QTOF; MS2; 90 V
Name: 2-N-methyl-lamotrigine
Class: Metabolite; Pharmaceutical
Formula: C10H9Cl2N5
Exact mass: 269.0235
SMILES: CN1N=C(C2=CC=CC(Cl)=C2Cl)C(N)=NC1=N
InChI: InChI=1S/C10H9Cl2N5/c1-17-10(14)15-9(13)8(16-17)5-3-2-4-6(11)7(5)12/h2-4H,1H3,(H3,13,14,15)
Instrument: TripleTOF 5600 SCIEX
Instrument type: LC-ESI-QTOF
Ms type: MS2
Ion mode: POSITIVE
Collision energy: 90
Fragmentation mode: CID
Ionization: ESI
Column name: Zorbax Eclipse Plus C18 2.1 mm x 150 mm, 3.5 um, Agilent
Retention time: 6.444 min
Precursor m/z: 270.0308
Precursor type: [M+H]+
m/z	relative intensity
57.0492	999
68.0269	16
72.0578	25
72.9869	161
73.0076	22
74.0169	306
74.0573	16
75.025	96
76.0201	12
76.0314	22
77.0411	58
84.9834	19
86.0173	12
87.0223	58
88.0185	93
88.0322	41
89.0383	35
90.0335	12
96.9843	70
99.0095	135
100.0182	528
102.0354	45
103.0518	12
106.9451	19
108.9831	219
110.9987	22
114.0327	219
115.0296	12
115.0432	48
121.9895	32
122.9986	522
123.994	74
125.0021	16
132.9592	38
135.9941	80
137.0023	12
138.0088	35
144.9603	29
149.0046	19
150.0094	38
156.9597	25
164.0008	38
171.9704	29
