Mass spectrum: Metoclopramide; LC-ESI-QTOF; MS2; 40 V
Name: Metoclopramide
Class: Pharmaceutical
Formula: C14H22ClN3O2
Exact mass: 299.1401
SMILES: CCN(CC)CCNC(=O)C1=CC(=C(C=C1OC)N)Cl
InChI: InChI=1S/C14H22ClN3O2/c1-4-18(5-2)7-6-17-14(19)10-8-11(15)12(16)9-13(10)20-3/h8-9H,4-7,16H2,1-3H3,(H,17,19)
Instrument: TripleTOF 5600 SCIEX
Instrument type: LC-ESI-QTOF
Ms type: MS2
Ion mode: POSITIVE
Collision energy: 40
Fragmentation mode: CID
Ionization: ESI
Column name: Zorbax Eclipse Plus C18 2.1 mm x 150 mm, 3.5 um, Agilent
Retention time: 5.459 min
Precursor m/z: 300.1473
Precursor type: [M+H]+
m/z	relative intensity
90.0382	21
93.0608	18
100.115	27
113.0044	26
120.0462	17
126.0122	48
128.0281	26
129.0109	11
140.9989	90
147.0574	10
148.0636	53
154.0058	19
156.0216	107
168.0086	89
168.9922	75
170	34
182.0242	15
183.032	430
184.0158	999
211.0265	22
212.0341	447
227.0575	946
