Mass spectrum: Pirimicarb; LC-ESI-QTOF; MS2; 90 V
Name: Pirimicarb
Class: Insecticide
Formula: C11H18N4O2
Exact mass: 238.143
SMILES: CC1=C(N=C(N=C1OC(=O)N(C)C)N(C)C)C
InChI: InChI=1S/C11H18N4O2/c1-7-8(2)12-10(14(3)4)13-9(7)17-11(16)15(5)6/h1-6H3
Instrument: TripleTOF 6600 SCIEX
Instrument type: LC-ESI-QTOF
Ms type: MS2
Ion mode: POSITIVE
Collision energy: 90
Fragmentation mode: CID
Ionization: ESI
Column name: Zorbax Eclipse Plus C18 2.1 mm x 150 mm, 3.5 um, Agilent
Retention time: 6.157 min
Precursor m/z: 239.1503
Precursor type: [M+H]+
m/z	relative intensity
39.0229	38
42.0337	290
44.0496	116
53.0386	58
54.0333	77
55.0284	87
56.0129	572
58.0649	77
66.0342	38
68.0495	67
69.0081	77
69.0442	368
70.0517	77
71.0601	48
72.0441	999
85.0769	48
93.0438	126
