Mass spectrum: Isotianil; LC-ESI-QTOF; MS2; 20 V
Name: Isotianil
Class: Fungicide
Formula: C11H5Cl2N3OS
Exact mass: 296.953
SMILES: C1=CC=C(C(=C1)C#N)NC(=O)C2=C(C(=NS2)Cl)Cl
InChI: InChI=1S/C11H5Cl2N3OS/c12-8-9(18-16-10(8)13)11(17)15-7-4-2-1-3-6(7)5-14/h1-4H,(H,15,17)
Instrument: TripleTOF 5600 SCIEX
Instrument type: LC-ESI-QTOF
Ms type: MS2
Ion mode: NEGATIVE
Collision energy: 20
Fragmentation mode: CID
Ionization: ESI
Column name: Zorbax Eclipse Plus C18 2.1 mm x 150 mm, 3.5 um, Agilent
Retention time: 12.41 min
Precursor m/z: 295.9458
Precursor type: [M-H]-
m/z	relative intensity
151.9139	999
295.9459	81
