Mass spectrum: Lincomycin; LC-ESI-QTOF; MS2; 140 V
Name: Lincomycin
Class: Pharmaceutical
Formula: C18H34N2O6S
Exact mass: 406.2138
SMILES: CCCC1CC(N(C1)C)C(=O)NC(C2C(C(C(C(O2)SC)O)O)O)C(C)O
InChI: InChI=1S/C18H34N2O6S/c1-5-6-10-7-11(20(3)8-10)17(25)19-12(9(2)21)16-14(23)13(22)15(24)18(26-16)27-4/h9-16,18,21-24H,5-8H2,1-4H3,(H,19,25)
Instrument: TripleTOF 5600 SCIEX
Instrument type: LC-ESI-QTOF
Ms type: MS2
Ion mode: POSITIVE
Collision energy: 140
Fragmentation mode: CID
Ionization: ESI
Column name: Zorbax Eclipse Plus C18 2.1 mm x 150 mm, 3.5 um, Agilent
Retention time: 4.875 min
Precursor m/z: 407.221
Precursor type: [M+H]+
m/z	relative intensity
39.0225	80
41.0379	185
42.0333	378
44.0485	40
55.0543	64
67.0407	136
67.0525	72
68.0486	435
69.069	56
70.0645	257
80.049	72
81.0561	64
82.0644	999
83.0726	161
96.0799	145
126.1276	281
