Mass spectrum: Phthalic acid; LC-ESI-QTOF; MS2; 40 V
Name: Phthalic acid
Class: Industrial_process; Transformation_product
Formula: C8H6O4
Exact mass: 166.0266
SMILES: C1=CC=C(C(=C1)C(=O)O)C(=O)O
InChI: InChI=1S/C8H6O4/c9-7(10)5-3-1-2-4-6(5)8(11)12/h1-4H,(H,9,10)(H,11,12)
Instrument: TripleTOF 6600 SCIEX
Instrument type: LC-ESI-QTOF
Ms type: MS2
Ion mode: NEGATIVE
Collision energy: 40
Fragmentation mode: CID
Ionization: ESI
Column name: Zorbax Eclipse Plus C18 2.1 mm x 150 mm, 3.5 um, Agilent
Retention time: 5.73 min
Precursor m/z: 165.0194
Precursor type: [M-H]-
m/z	relative intensity
77.0391	999
121.0302	14
