Mass spectrum: Tramadol-N-oxide; LC-ESI-QTOF; MS2; 100 V
Name: Tramadol-N-oxide
Class: Pharmaceutical; Transformation_product-Metabolite
Formula: C16H25NO3
Exact mass: 279.1834
SMILES: [O-][N+](C)(C)C[C@H]2CCCC[C@]2(O)c1cc(OC)ccc1
InChI: InChI=1S/C16H25NO3/c1-17(2,19)12-14-7-4-5-10-16(14,18)13-8-6-9-15(11-13)20-3/h6,8-9,11,14,18H,4-5,7,10,12H2,1-3H3/t14-,16+/m1/s1
Instrument: TripleTOF 5600 SCIEX
Instrument type: LC-ESI-QTOF
Ms type: MS2
Ion mode: POSITIVE
Collision energy: 100
Fragmentation mode: CID
Ionization: ESI
Column name: Zorbax Eclipse Plus C18 2.1 mm x 150 mm, 3.5 um, Agilent
Retention time: 6.334 min
Precursor m/z: 280.1907
Precursor type: [M+H]+
m/z	relative intensity
42.0437	98
43.0263	27
43.0512	19
44.0609	43
55.0598	49
56.0553	38
58.0713	312
60.05	15
62.0668	10
64.0356	309
65.0432	317
66.0506	35
67.0572	23
75.0262	21
76.0341	20
77.0417	999
77.0718	12
78.0495	358
79.0567	40
84.0843	12
89.0405	114
91.056	408
92.0271	489
94.042	64
94.0648	17
101.0386	16
102.046	110
103.0542	75
105.0727	13
106.0407	13
107.0501	20
115.0541	736
116.0609	66
117.0702	21
121.0646	42
126.0452	35
127.0533	122
128.061	289
129.0693	32
131.0504	27
141.0709	25
144.0556	17
152.0611	23
155.0655	13
