Mass spectrum: 1,4-Dihydroxyanthraquinone; LC-ESI-QTOF; MS2; 30 V
Name: 1,4-Dihydroxyanthraquinone
Formula: C14H8O4
Exact mass: 240.0423
SMILES: C1=CC=C2C(=C1)C(=O)C3=C(C=CC(=C3C2=O)O)O
InChI: InChI=1S/C14H8O4/c15-9-5-6-10(16)12-11(9)13(17)7-3-1-2-4-8(7)14(12)18/h1-6,15-16H
Instrument: TripleTOF X500R SCIEX
Instrument type: LC-ESI-QTOF
Ms type: MS2
Ion mode: POSITIVE
Collision energy: 30
Fragmentation mode: CID
Ionization: ESI
Column name: Zorbax Eclipse Plus C18 2.1 mm x 150 mm, 3.5 um, Agilent
Retention time: 13.708 min
Precursor m/z: 241.0496
Precursor type: [M+H]+
m/z	relative intensity
105.0337	22
115.0565	12
127.054	12
128.0623	25
129.0698	97
139.0547	62
141.069	34
143.0488	36
157.065	342
159.0443	9
167.0496	71
171.044	11
185.0598	537
187.0402	11
195.0439	82
199.0393	51
213.0548	382
223.0416	42
241.0494	999
