Mass spectrum: (1-(3,4-Dimethoxybenzoyl)-undecyl)-trimethyl-ammonium; LC-ESI-QTOF; MS2; 130 V
Name: (1-(3,4-Dimethoxybenzoyl)-undecyl)-trimethyl-ammonium
Formula: C23H40NO3
Exact mass: 378.3003
SMILES: CCCCCCCCCCC(C(=O)c1ccc(c(c1)OC)OC)[N+](C)(C)C
InChI: InChI=1S/C23H40NO3/c1-7-8-9-10-11-12-13-14-15-20(24(2,3)4)23(25)19-16-17-21(26-5)22(18-19)27-6/h16-18,20H,7-15H2,1-6H3/q+1
Instrument: TripleTOF 5600 SCIEX
Instrument type: LC-ESI-QTOF
Ms type: MS2
Ion mode: POSITIVE
Collision energy: 130
Fragmentation mode: CID
Ionization: ESI
Column name: Zorbax Eclipse Plus C18 2.1 mm x 150 mm, 3.5 um, Agilent
Retention time: 10.896 min
Precursor m/z: 378.3003
Precursor type: [M]+
m/z	relative intensity
44.0581	168
45.0651	53
55.0216	65
58.0702	178
60.0858	144
64.0346	164
65.0417	458
66.0499	441
77.0412	999
78.0474	57
79.0201	135
79.0566	106
89.0388	94
92.0258	248
94.041	82
105.0331	125
107.0122	222
107.0486	127
121.0282	289
