Mass spectrum: Boc-Asp(OBzl)-OH; LC-ESI-QTOF; MS2; 120 V
Name: Boc-Asp(OBzl)-OH
Formula: C16H21NO6
Exact mass: 323.1369
SMILES: CC(C)(C)OC(=O)NC(CC(=O)OCC1=CC=CC=C1)C(=O)O
InChI: InChI=1S/C16H21NO6/c1-16(2,3)23-15(21)17-12(14(19)20)9-13(18)22-10-11-7-5-4-6-8-11/h4-8,12H,9-10H2,1-3H3,(H,17,21)(H,19,20)
Instrument: TripleTOF 6600 SCIEX
Instrument type: LC-ESI-QTOF
Ms type: MS2
Ion mode: POSITIVE
Collision energy: 120
Fragmentation mode: CID
Ionization: ESI
Column name: Zorbax Eclipse Plus C18 2.1 mm x 150 mm, 3.5 um, Agilent
Retention time: 10.749 min
Precursor m/z: 346.1261
Precursor type: [M+Na]+
m/z	relative intensity
37.0056	124
39.0223	374
41.0359	124
51.0209	249
65.0368	999
91.0513	374
91.061	124
