Mass spectrum: Trimethoprim; LC-ESI-QTOF; MS2; 80 V
Name: Trimethoprim
Class: Pharmaceutical
Formula: C14H18N4O3
Exact mass: 290.1379
SMILES: COC1=CC(=CC(=C1OC)OC)CC2=CN=C(N=C2N)N
InChI: InChI=1S/C14H18N4O3/c1-19-10-5-8(6-11(20-2)12(10)21-3)4-9-7-17-14(16)18-13(9)15/h5-7H,4H2,1-3H3,(H4,15,16,17,18)
Instrument: TripleTOF 5600 SCIEX
Instrument type: LC-ESI-QTOF
Ms type: MS2
Ion mode: POSITIVE
Collision energy: 80
Fragmentation mode: CID
Ionization: ESI
Column name: Zorbax Eclipse Plus C18 2.1 mm x 150 mm, 3.5 um, Agilent
Retention time: 5.112 min
Precursor m/z: 291.1452
Precursor type: [M+H]+
m/z	relative intensity
41.0259	55
43.0291	85
50.0153	13
51.0232	27
52.018	55
53.0391	13
54.0339	211
55.0178	16
55.0419	18
60.0567	11
63.0224	41
64.0308	11
65.0387	120
66.0458	16
67.0287	20
67.0421	9
67.0546	30
68.037	192
68.9978	34
69.0446	41
75.0229	30
76.0304	13
77.0389	367
78.0334	32
78.0466	20
79.0294	72
79.0537	69
80.0372	23
80.0504	44
81.0451	773
82.0398	11
82.0528	32
83.0479	139
88.0317	16
89.0388	169
90.0335	55
90.0449	20
91.0547	197
92.0494	85
93.0347	16
93.0454	16
93.057	41
94.0403	32
94.065	69
95.049	25
96.0562	58
97.0629	20
101.0392	69
102.0342	116
103.0543	171
104.0358	13
104.0491	162
105.0407	148
105.0689	13
106.041	120
106.0655	23
107.0487	88
107.0607	58
108.0558	39
109.0518	148
110.0593	250
111.066	34
113.0378	27
114.0353	44
114.0472	16
115.0548	371
116.0499	232
117.0504	255
118.0469	271
119.0608	213
120.0566	90
121.0279	20
121.0497	11
121.0761	44
122.0609	18
123.0451	32
123.0666	302
124.0743	74
126.0336	20
127.043	41
127.0542	11
128.0504	202
129.0466	160
130.0425	81
130.0647	106
131.059	253
132.0483	127
132.0782	25
133.0289	25
133.0612	39
133.0763	27
134.0494	13
134.0694	78
135.0455	18
135.0672	411
137.0596	23
140.0507	216
141.0471	67
142.0565	160
143.0457	34
143.0602	109
144.056	529
145.0329	13
145.0544	27
145.0731	92
146.0691	199
147.0652	220
148.0748	109
149.0808	127
152.0505	23
153.0452	44
154.0371	30
155.061	67
156.0474	102
157.0379	20
157.0774	60
158.0724	72
159.0395	13
159.0631	58
159.0862	23
160.0761	58
161.0822	999
162.0564	30
162.0894	48
166.0518	13
167.0594	55
168.0575	46
169.0413	25
169.0717	20
170.0704	95
171.0613	83
172.0434	78
172.0732	65
173.0492	16
173.0833	95
174.0656	37
174.0883	18
175.0635	76
175.1	88
176.0663	27
180.0595	20
182.0727	32
183.0558	13
183.0715	11
184.0769	69
185.0831	185
186.0422	11
186.0664	60
186.0908	34
187.0557	27
187.0967	88
189.0755	99
194.0638	11
196.0707	11
197.0831	27
198.0659	20
198.0956	18
199.0637	18
199.0984	53
200.0715	18
201.0722	18
201.0874	11
203.0942	53
211.0961	11
213.0605	13
213.0796	41
214.0601	30
214.0842	16
215.0925	23
217.0688	13
227.0937	23
229.0708	27
230.0793	39
231.0864	95
