Mass spectrum: Carbendazim; LC-ESI-QTOF; MS2; 50 V
Name: Carbendazim
Class: Fungicide; Metabolite; Pharmaceutical; Biocide
Formula: C9H9N3O2
Exact mass: 191.0695
SMILES: COC(=O)Nc1[nH]c2ccccc2n1
InChI: InChI=1S/C9H9N3O2/c1-14-9(13)12-8-10-6-4-2-3-5-7(6)11-8/h2-5H,1H3,(H2,10,11,12,13)
Instrument: TripleTOF 5600 SCIEX
Instrument type: LC-ESI-QTOF
Ms type: MS2
Ion mode: POSITIVE
Collision energy: 50
Fragmentation mode: CID
Ionization: ESI
Column name: Zorbax Eclipse Plus C18 2.1 mm x 150 mm, 3.5 um, Agilent
Retention time: 5.075 min
Precursor m/z: 192.0768
Precursor type: [M+H]+
m/z	relative intensity
65.0433	475
78.0359	68
79.0445	35
80.0517	16
90.0357	523
92.051	367
105.0458	999
106.0292	19
106.0522	71
117.0448	281
118.0521	31
132.0563	997
133.0417	24
133.0633	106
159.0435	13
160.0512	868
