Mass spectrum: Bromoxynil; LC-ESI-QTOF; MS2; 40 V
Name: Bromoxynil
Class: Herbicide; Metabolite
Formula: C7H3Br2NO
Exact mass: 274.8581
SMILES: C1=C(C=C(C(=C1Br)O)Br)C#N
InChI: InChI=1S/C7H3Br2NO/c8-5-1-4(3-10)2-6(9)7(5)11/h1-2,11H
Instrument: TripleTOF 6600 SCIEX
Instrument type: LC-ESI-QTOF
Ms type: MS2
Ion mode: NEGATIVE
Collision energy: 40
Fragmentation mode: CID
Ionization: ESI
Column name: Zorbax Eclipse Plus C18 2.1 mm x 150 mm, 3.5 um, Agilent
Retention time: 9.892 min
Precursor m/z: 273.8508
Precursor type: [M-H]-
m/z	relative intensity
78.9101	999
166.9227	18
193.9067	15
273.8272	354
