Mass spectrum: Ethyl-N-(4-aminophenyl)carbamate; LC-ESI-QTOF; MS2; 70 V
Name: Ethyl-N-(4-aminophenyl)carbamate
Class: Industrial_process
Formula: C9H12N2O2
Exact mass: 180.0899
SMILES: CCOC(=O)Nc1ccc(cc1)N
InChI: InChI=1S/C9H12N2O2/c1-2-13-9(12)11-8-5-3-7(10)4-6-8/h3-6H,2,10H2,1H3,(H,11,12)
Instrument: TripleTOF 5600 SCIEX
Instrument type: LC-ESI-QTOF
Ms type: MS2
Ion mode: POSITIVE
Collision energy: 70
Fragmentation mode: CID
Ionization: ESI
Column name: Zorbax Eclipse Plus C18 2.1 mm x 150 mm, 3.5 um, Agilent
Retention time: 4.863 min
Precursor m/z: 181.0972
Precursor type: [M+H]+
m/z	relative intensity
51.0283	38
52.0236	14
52.0359	14
53.0445	386
54.0409	50
64.0566	11
65.0427	831
66.0382	17
66.0494	262
67.0447	32
75.0258	11
77.0417	17
78.0347	50
79.0427	58
80.0517	999
81.0585	73
90.0344	512
91.043	26
92.0503	226
93.0585	615
105.0448	64
106.0521	67
107.0606	324
107.0959	11
108.0674	144
109.0749	11
134.0462	11
