Mass spectrum: Iobitridol; LC-ESI-QTOF; MS2; 40 V
Name: Iobitridol
Class: Pharmaceutical
Formula: C20H28I3N3O9
Exact mass: 834.896
SMILES: CN(CC(O)CO)C(=O)c1c(I)c(NC(=O)C(CO)CO)c(I)c(c1I)C(=O)N(C)CC(O)CO
InChI: InChI=1S/C20H28I3N3O9/c1-25(3-10(31)7-29)19(34)12-14(21)13(20(35)26(2)4-11(32)8-30)16(23)17(15(12)22)24-18(33)9(5-27)6-28/h9-11,27-32H,3-8H2,1-2H3,(H,24,33)
Instrument: TripleTOF 5600 SCIEX
Instrument type: LC-ESI-QTOF
Ms type: MS2
Ion mode: POSITIVE
Collision energy: 40
Fragmentation mode: CID
Ionization: ESI
Column name: Zorbax Eclipse Plus C18 2.1 mm x 150 mm, 3.5 um, Agilent
Retention time: 4.58 min
Precursor m/z: 835.9032
Precursor type: [M+H]+
m/z	relative intensity
400.9985	36
413.8106	16
416.988	19
449.0179	32
456.9908	23
467.8155	16
474.9984	147
497.8379	23
499.8526	16
500.88	13
515.8393	23
522.0779	16
528.8722	13
554.8943	49
575.9247	78
584.906	105
602.9107	999
625.7356	23
628.7709	19
628.7988	101
671.9482	23
689.9818	13
690.0035	13
712.8281	39
715.846	29
715.8703	39
730.8236	42
733.8389	36
733.8706	98
817.8895	197
835.8934	683
