Mass spectrum: Oxazepam; LC-ESI-QTOF; MS2; 120 V
Name: Oxazepam
Class: Pharmaceutical
Formula: C15H11ClN2O2
Exact mass: 286.0509
SMILES: C1=CC=C(C=C1)C2=NC(C(=O)NC3=C2C=C(C=C3)Cl)O
InChI: InChI=1S/C15H11ClN2O2/c16-10-6-7-12-11(8-10)13(9-4-2-1-3-5-9)18-15(20)14(19)17-12/h1-8,15,20H,(H,17,19)
Instrument: TripleTOF 6600 SCIEX
Instrument type: LC-ESI-QTOF
Ms type: MS2
Ion mode: POSITIVE
Collision energy: 120
Fragmentation mode: CID
Ionization: ESI
Column name: Zorbax Eclipse Plus C18 2.1 mm x 150 mm, 3.5 um, Agilent
Retention time: 9.314 min
Precursor m/z: 287.0582
Precursor type: [M+H]+
m/z	relative intensity
37.007	23
38.0149	16
39.0227	44
46.968	15
48.984	27
49.0073	110
50.0152	526
51.0231	999
52.018	43
60.984	11
61.0069	39
61.979	30
62.0149	70
63.0228	237
64.0178	37
64.0308	50
65.0264	18
65.0381	100
66.0457	83
72.9844	172
73.0066	127
74.0152	462
75.0226	279
76.0186	30
76.0308	50
77.0385	415
78.0455	15
84.9836	31
86.015	27
87.022	34
88.0176	13
89.0383	54
90.0333	45
91.0411	70
92.0488	23
93.0567	41
98.0149	90
99.0107	511
100.0179	248
101.0384	23
102.0338	12
102.0455	28
104.0487	13
108.9843	11
110.0151	16
110.9994	13
111.0223	15
113.0389	63
114.0328	14
114.0465	16
115.0534	34
118.0528	12
122.0145	17
123.0221	22
123.995	15
124.0307	16
125.0381	46
126.046	63
127.0424	16
127.0541	11
137.0387	23
138.0466	34
139.0536	143
140.049	146
149.0385	53
150.0467	322
151.0543	109
152.0483	14
152.0614	24
153.0456	10
164.0491	69
165.0563	28
166.0647	62
167.0723	25
175.0417	26
176.0484	20
177.0573	61
178.0647	15
191.0615	31
192.0682	62
193.0759	13
