Mass spectrum: Ethisterone; LC-ESI-QTOF; MS2; 90 V
Name: Ethisterone
Class: Pharmaceutical; Metabolite
Formula: C21H28O2
Exact mass: 312.2089
SMILES: C[C@]12CCC(=O)C=C1CC[C@@H]3[C@@H]2CC[C@@]4(C)[C@H]3CC[C@@]4(O)C#C
InChI: InChI=1S/C21H28O2/c1-4-21(23)12-9-18-16-6-5-14-13-15(22)7-10-19(14,2)17(16)8-11-20(18,21)3/h1,13,16-18,23H,5-12H2,2-3H3/t16-,17+,18+,19+,20+,21+/m1/s1
Instrument: TripleTOF 5600 SCIEX
Instrument type: LC-ESI-QTOF
Ms type: MS2
Ion mode: POSITIVE
Collision energy: 90
Fragmentation mode: CID
Ionization: ESI
Column name: Zorbax Eclipse Plus C18 2.1 mm x 150 mm, 3.5 um, Agilent
Retention time: 11.662 min
Precursor m/z: 313.2162
Precursor type: [M+H]+
m/z	relative intensity
43.0248	88
51.0284	84
53.0443	84
55.0232	101
55.0587	54
57.0386	16
65.0425	231
66.0524	33
67.0575	151
69.0377	29
69.0741	59
77.0416	999
77.0742	21
78.0476	25
79.0566	775
81.0357	33
81.0723	236
82.0436	16
83.0507	54
89.0386	25
89.0506	25
91.0552	636
93.0725	67
94.0417	46
95.0486	21
95.0849	29
97.0656	581
102.0462	59
103.055	96
105.0695	96
107.0493	50
109.0646	349
109.0897	21
115.0538	425
115.0798	33
116.0621	46
117.0706	50
119.0873	25
123.0815	54
127.0537	105
128.0619	434
129.07	139
141.0695	172
142.0777	25
152.062	92
153.0699	88
154.0765	25
155.0851	33
165.0678	80
166.0755	29
178.0759	29
189.0673	37
191.0869	21
202.0773	29
