Mass spectrum: Tolfenamic acid; LC-ESI-QTOF; MS2; 40 V
Name: Tolfenamic acid
Class: Pharmaceutical
Formula: C14H12ClNO2
Exact mass: 261.0557
SMILES: Cc1cc(Nc2ccccc2C(O)=O)ccc1Cl
InChI: InChI=1S/C14H12ClNO2/c1-9-8-10(6-7-12(9)15)16-13-5-3-2-4-11(13)14(17)18/h2-8,16H,1H3,(H,17,18)
Instrument: TripleTOF 5600 SCIEX
Instrument type: LC-ESI-QTOF
Ms type: MS2
Ion mode: POSITIVE
Collision energy: 40
Fragmentation mode: CID
Ionization: ESI
Column name: Zorbax Eclipse Plus C18 2.1 mm x 150 mm, 3.5 um, Agilent
Retention time: 14.052 min
Precursor m/z: 262.0629
Precursor type: [M+H]+
m/z	relative intensity
139.0534	12
140.0486	18
151.0533	14
152.0614	50
153.0683	19
154.0638	10
165.0564	15
166.0653	143
178.0641	29
179.0725	127
180.0807	657
181.0872	87
183.0671	25
191.0731	10
194.0591	50
201.0328	187
207.0667	43
208.0753	558
209.0832	999
214.0415	18
229.0282	453
242.036	19
243.0435	22
244.0518	952
