Mass spectrum: Pyrimethanil; LC-ESI-QTOF; MS2; 80 V
Name: Pyrimethanil
Class: Fungicide
Formula: C12H13N3
Exact mass: 199.1109
SMILES: CC1=CC(=NC(=N1)NC2=CC=CC=C2)C
InChI: InChI=1S/C12H13N3/c1-9-8-10(2)14-12(13-9)15-11-6-4-3-5-7-11/h3-8H,1-2H3,(H,13,14,15)
Instrument: TripleTOF 6600 SCIEX
Instrument type: LC-ESI-QTOF
Ms type: MS2
Ion mode: POSITIVE
Collision energy: 80
Fragmentation mode: CID
Ionization: ESI
Column name: Zorbax Eclipse Plus C18 2.1 mm x 150 mm, 3.5 um, Agilent
Retention time: 9.225 min
Precursor m/z: 200.1182
Precursor type: [M+H]+
m/z	relative intensity
35.9995	12
37.0073	40
38.0147	36
39.023	188
40.0182	19
41.026	40
42.0341	536
49.0071	40
50.0151	320
51.0231	999
52.0175	23
52.0308	10
53.0382	99
54.0335	25
61.0082	16
62.0151	25
63.0227	82
65.0381	229
66.0334	29
66.0456	40
67.0291	173
67.0402	89
74.0148	31
75.0224	55
76.0176	14
76.0306	23
77.0382	322
78.0336	19
80.0481	27
87.0225	29
88.0301	42
89.038	80
90.0337	12
90.0456	12
91.041	14
92.0486	36
93.0565	33
95.0595	12
101.0382	16
102.0332	16
102.0444	12
103.0403	12
105.0441	12
113.0381	114
114.0331	21
114.0452	42
115.0532	42
118.052	10
126.0456	21
127.0535	55
128.0483	19
128.0604	10
140.0486	123
142.0524	12
154.0635	19
155.0594	27
166.0513	12
179.0589	12
180.0688	10
181.0763	23
