Mass spectrum: Phenacetin; LC-ESI-QTOF; MS2; 40 V
Name: Phenacetin
Class: Pharmaceutical
Formula: C10H13NO2
Exact mass: 179.0946
SMILES: CCOC1=CC=C(C=C1)NC(=O)C
InChI: InChI=1S/C10H13NO2/c1-3-13-10-6-4-9(5-7-10)11-8(2)12/h4-7H,3H2,1-2H3,(H,11,12)
Instrument: TripleTOF 5600 SCIEX
Instrument type: LC-ESI-QTOF
Ms type: MS2
Ion mode: POSITIVE
Collision energy: 40
Fragmentation mode: CID
Ionization: ESI
Column name: Zorbax Eclipse Plus C18 2.1 mm x 150 mm, 3.5 um, Agilent
Retention time: 7.622 min
Precursor m/z: 180.1019
Precursor type: [M+H]+
m/z	relative intensity
39.0227	38
43.0179	168
65.0388	770
67.0413	29
67.0543	10
77.0395	15
80.0498	43
81.0569	21
82.0654	113
92.0498	343
93.034	632
93.0554	109
108.0446	13
109.0527	128
110.0602	999
121.0404	13
134.0598	14
138.0914	34
