Mass spectrum: 2-(2-Methoxyphenyl)-1H-Benzimidazole; LC-ESI-QTOF; MS2; 50 V
Name: 2-(2-Methoxyphenyl)-1H-Benzimidazole
Class: Pharmaceutical
Formula: C14H12N2O
Exact mass: 224.095
SMILES: COc1ccccc1c2[nH]c3ccccc3n2
InChI: InChI=1S/C14H12N2O/c1-17-13-9-5-2-6-10(13)14-15-11-7-3-4-8-12(11)16-14/h2-9H,1H3,(H,15,16)
Instrument: TripleTOF 5600 SCIEX
Instrument type: LC-ESI-QTOF
Ms type: MS2
Ion mode: POSITIVE
Collision energy: 50
Fragmentation mode: CID
Ionization: ESI
Column name: Zorbax Eclipse Plus C18 2.1 mm x 150 mm, 3.5 um, Agilent
Retention time: 6.225 min
Precursor m/z: 225.1022
Precursor type: [M+H]+
m/z	relative intensity
65.0427	22
77.0413	9
92.0513	33
129.0576	13
143.0601	47
154.0649	33
155.0611	29
156.0688	231
169.0758	34
180.0668	16
181.0765	999
182.084	833
210.0785	163
