Mass spectrum: 3-Desmethyl-trimethoprim; LC-ESI-QTOF; MS2; 60 V
Name: 3-Desmethyl-trimethoprim
Class: Pharmaceutical; Transformation_product
Formula: C13H16N4O3
Exact mass: 276.1222
SMILES: OC1=CC(CC2=CN=C(N=C2N)N)=CC(OC)=C1OC
InChI: InChI=1S/C13H16N4O3/c1-19-10-5-7(4-9(18)11(10)20-2)3-8-6-16-13(15)17-12(8)14/h4-6,18H,3H2,1-2H3,(H4,14,15,16,17)
Instrument: TripleTOF 5600 SCIEX
Instrument type: LC-ESI-QTOF
Ms type: MS2
Ion mode: POSITIVE
Collision energy: 60
Fragmentation mode: CID
Ionization: ESI
Column name: Zorbax Eclipse Plus C18 2.1 mm x 150 mm, 3.5 um, Agilent
Retention time: 5.021 min
Precursor m/z: 277.1295
Precursor type: [M+H]+
m/z	relative intensity
43.0402	23
52.0285	10
54.0419	43
68.043	52
77.0421	58
78.0515	12
79.0343	15
79.0577	16
81.0493	626
83.0514	37
89.0421	16
91.0575	17
92.0526	16
93.0356	11
94.0433	11
94.0614	44
95.0535	15
96.0585	20
101.0406	15
102.0421	25
103.0551	22
104.0512	83
105.0429	31
106.0415	91
106.0659	11
107.056	44
108.0561	13
109.0528	40
110.0594	152
111.0672	48
114.0356	10
116.0496	48
117.0451	10
117.0581	18
118.0655	30
119.0482	12
119.0612	63
120.0542	25
121.0286	15
121.0768	55
122.0619	18
123.041	9
123.0672	999
124.0748	107
128.05	135
129.048	71
130.0418	17
130.066	13
131.0597	96
132.0462	71
133.0627	14
133.0744	25
134.0722	11
135.0654	36
141.0445	12
142.0539	11
143.0601	60
144.0536	80
145.0758	89
146.0718	153
147.065	187
148.0744	385
149.0242	54
149.0807	156
150.0546	11
151.039	64
153.0438	33
155.0593	10
156.0475	91
157.0394	15
157.0639	9
158.0674	39
159.066	68
160.0433	25
160.0821	37
161.0814	150
162.0552	10
162.0877	26
163.0962	59
164.0335	12
168.0564	11
170.0707	162
171.0543	25
171.0792	10
172.04	55
172.0724	48
173.0809	152
174.0647	89
174.0873	19
175.061	39
175.0966	49
176.0691	29
177.0686	28
183.0659	16
184.0762	17
185.0806	58
186.0655	33
187.056	17
187.0979	397
188.1076	19
189.0734	93
189.1092	13
191.0891	60
197.0828	28
198.0635	27
199.0511	10
199.0957	18
200.0729	18
201.0739	38
202.0621	19
203.0915	61
213.074	21
214.0603	24
214.0835	16
215.093	62
216.0792	12
216.1024	10
217.1084	26
219.0874	310
229.0725	28
230.0786	26
231.0864	122
233.1025	27
243.0873	12
245.1032	14
259.0805	93
261.0968	232
