Mass spectrum: Trioctylphosphine oxide; LC-ESI-QTOF; MS2; 40 V
Name: Trioctylphosphine oxide
Class: Industrial_process
Formula: C24H51OP
Exact mass: 386.3678
SMILES: CCCCCCCCP(=O)(CCCCCCCC)CCCCCCCC
InChI: InChI=1S/C24H51OP/c1-4-7-10-13-16-19-22-26(25,23-20-17-14-11-8-5-2)24-21-18-15-12-9-6-3/h4-24H2,1-3H3
Instrument: TripleTOF 5600 SCIEX
Instrument type: LC-ESI-QTOF
Ms type: MS2
Ion mode: POSITIVE
Collision energy: 40
Fragmentation mode: CID
Ionization: ESI
Column name: Zorbax Eclipse Plus C18 2.1 mm x 150 mm, 3.5 um, Agilent
Retention time: 22.9 min
Precursor m/z: 387.375
Precursor type: [M+H]+
m/z	relative intensity
78.0288	28
92.0427	25
147.0953	10
161.1099	10
175.1255	11
189.1412	24
203.1564	21
217.1709	18
231.1872	36
245.203	36
259.218	13
273.2332	21
275.2488	46
287.2489	10
301.2654	63
303.2801	32
317.2962	54
331.3117	31
345.3301	12
386.1515	34
387.3743	999
388.3808	28
