Mass spectrum: 4-Hydroxytrimethoprim; LC-ESI-QTOF; MS2; 120 V
Name: 4-Hydroxytrimethoprim
Class: Pharmaceutical; Transformation_product
Formula: C14H18N4O4
Exact mass: 306.1328
SMILES: COc1cc(cc(c1OC)OC)Cc2c(nc(nc2O)N)N
InChI: InChI=1S/C14H18N4O4/c1-20-9-5-7(6-10(21-2)11(9)22-3)4-8-12(15)17-14(16)18-13(8)19/h5-6H,4H2,1-3H3,(H5,15,16,17,18,19)
Instrument: TripleTOF 5600 SCIEX
Instrument type: LC-ESI-QTOF
Ms type: MS2
Ion mode: POSITIVE
Collision energy: 120
Fragmentation mode: CID
Ionization: ESI
Column name: Zorbax Eclipse Plus C18 2.1 mm x 150 mm, 3.5 um, Agilent
Retention time: 5.43 min
Precursor m/z: 307.1401
Precursor type: [M+H]+
m/z	relative intensity
43.0381	999
44.0206	111
51.0289	259
52.0234	924
54.0393	240
55.0216	111
65.0423	166
68.0259	111
69.0109	111
77.0411	277
80.015	92
89.041	554
91.0561	129
94.0423	111
97.0388	111
