Mass spectrum: 2-[(Dimethylamino)methyl]benzonitrile; LC-ESI-QTOF; MS2; 50 V
Name: 2-[(Dimethylamino)methyl]benzonitrile
Formula: C10H12N2
Exact mass: 160.1
SMILES: CN(C)CC1=CC=CC=C1C#N
InChI: InChI=1S/C10H12N2/c1-12(2)8-10-6-4-3-5-9(10)7-11/h3-6H,8H2,1-2H3
Instrument: TripleTOF X500R SCIEX
Instrument type: LC-ESI-QTOF
Ms type: MS2
Ion mode: POSITIVE
Collision energy: 50
Fragmentation mode: CID
Ionization: ESI
Column name: Zorbax Eclipse Plus C18 2.1 mm x 150 mm, 3.5 um, Agilent
Retention time: 4.371 min
Precursor m/z: 161.1073
Precursor type: [M+H]+
m/z	relative intensity
39.0229	94
41.0389	22
44.0493	67
62.0149	10
63.0229	294
64.0185	26
65.0389	66
66.034	10
88.0185	22
89.0383	999
90.0343	155
91.0535	27
116.0494	510
117.0576	66
118.0648	10
