Mass spectrum: Sudan III; LC-ESI-QTOF; MS2; 30 V
Name: Sudan III
Formula: C22H16N4O
Exact mass: 352.1324
SMILES: C1=CC=C(C=C1)N=NC2=CC=C(C=C2)N=NC3=C(C=CC4=CC=CC=C43)O
InChI: InChI=1S/C22H16N4O/c27-21-15-10-16-6-4-5-9-20(16)22(21)26-25-19-13-11-18(12-14-19)24-23-17-7-2-1-3-8-17/h1-15,27H
Instrument: TripleTOF X500R SCIEX
Instrument type: LC-ESI-QTOF
Ms type: MS2
Ion mode: POSITIVE
Collision energy: 30
Fragmentation mode: CID
Ionization: ESI
Column name: Zorbax Eclipse Plus C18 2.1 mm x 150 mm, 3.5 um, Agilent
Retention time: 19.216 min
Precursor m/z: 353.1397
Precursor type: [M+H]+
m/z	relative intensity
59.0318	24
60.0327	9
73.0477	18
77.039	290
92.0501	88
99.0636	26
100.0643	16
105.0462	24
115.0557	29
120.0564	340
128.0506	126
141.0707	72
143.049	92
151.0567	11
156.0453	512
167.0748	36
168.0818	54
171.0572	49
181.0772	11
182.083	13
196.0883	635
197.096	690
197.1415	11
198.1035	195
219.0914	24
231.0932	23
232.0834	19
233.1016	18
247.0886	70
248.0939	46
262.0961	11
336.1381	60
353.1411	999
