Mass spectrum: Ethyl-2-cyano-3.3-diphenylacrylate; LC-ESI-QTOF; MS2; 130 V
Name: Ethyl-2-cyano-3.3-diphenylacrylate
Class: Industrial_process; Personal_care_product
Formula: C18H15NO2
Exact mass: 277.1103
SMILES: CCOC(=O)C(=C(C1=CC=CC=C1)C2=CC=CC=C2)C#N
InChI: InChI=1S/C18H15NO2/c1-2-21-18(20)16(13-19)17(14-9-5-3-6-10-14)15-11-7-4-8-12-15/h3-12H,2H2,1H3
Instrument: TripleTOF 5600 SCIEX
Instrument type: LC-ESI-QTOF
Ms type: MS2
Ion mode: POSITIVE
Collision energy: 130
Fragmentation mode: CID
Ionization: ESI
Column name: Zorbax Eclipse Plus C18 2.1 mm x 150 mm, 3.5 um, Agilent
Retention time: 13.596 min
Precursor m/z: 278.1176
Precursor type: [M+H]+
m/z	relative intensity
73.0134	77
74.0206	727
75.0292	426
76.0355	193
77.0432	678
78.0538	38
85.0114	58
86.0198	116
87.026	164
89.0402	77
97.0102	58
98.0167	678
99.0091	38
99.0245	290
100.0344	106
101.0406	58
102.0478	193
109.0084	38
110.0153	135
111.0242	77
113.0369	58
122.0156	213
123.0225	174
124.0313	106
125.0319	48
125.0415	58
126.0479	155
127.053	58
134.017	48
148.0308	87
149.0391	368
150.0459	999
151.054	261
152.0643	48
162.0484	48
163.0497	48
173.0428	87
174.0454	504
174.0658	38
175.049	290
176.0617	184
187.0471	58
200.0515	58
201.0567	67
