Mass spectrum: Iopromide; LC-ESI-QTOF; MS2; 70 V
Name: Iopromide
Class: Pharmaceutical
Formula: C18H24I3N3O8
Exact mass: 790.8698
SMILES: COCC(=O)Nc1c(I)c(C(=O)NCC(O)CO)c(I)c(c1I)C(=O)N(C)CC(O)CO
InChI: InChI=1S/C18H24I3N3O8/c1-24(4-9(28)6-26)18(31)12-13(19)11(17(30)22-3-8(27)5-25)14(20)16(15(12)21)23-10(29)7-32-2/h8-9,25-28H,3-7H2,1-2H3,(H,22,30)(H,23,29)
Instrument: TripleTOF 5600 SCIEX
Instrument type: LC-ESI-QTOF
Ms type: MS2
Ion mode: POSITIVE
Collision energy: 70
Fragmentation mode: CID
Ionization: ESI
Column name: Zorbax Eclipse Plus C18 2.1 mm x 150 mm, 3.5 um, Agilent
Retention time: 4.895 min
Precursor m/z: 791.877
Precursor type: [M+H]+
m/z	relative intensity
172.0013	11
173.0058	11
203.021	15
204.0265	11
245.0568	15
255.9241	24
259.0694	39
277.0849	13
283.9178	64
284.9255	19
285.9381	11
286.948	19
287.955	41
291.0948	39
297.9384	15
298.9058	68
298.9306	48
298.97	17
299.9146	999
311.9134	35
311.9463	11
312.9439	68
313.9311	99
314.9273	13
314.9403	37
315.9498	13
316.9402	17
325.9351	26
326.9015	137
326.964	19
328.9357	17
329.9279	19
330.9287	30
330.9573	15
340.9375	11
342.9534	22
343.9408	13
353.9241	11
354.9598	39
356.9444	13
356.9738	11
357.9194	152
367.8086	11
368.9719	13
370.9548	24
372.9688	114
382.8309	30
385.8173	22
386.9815	97
399.9541	28
400.9974	53
404.9897	33
409.816	15
410.8258	44
413.8116	79
413.8433	35
413.9721	64
414.8534	22
419.0103	39
423.7959	386
424.8271	22
425.817	194
426.8297	28
430.9658	24
438.8105	11
438.8476	13
440.8351	53
441.8423	44
444.9873	33
456.8595	15
468.8603	11
469.8318	15
485.8344	59
496.8494	24
498.8611	22
510.8491	11
510.8695	11
527.8685	143
540.8768	22
541.8762	28
558.8886	198
572.8998	97
595.7473	11
