Mass spectrum: 1,3-Diphenylurea; LC-ESI-QTOF; MS2; 50 V
Name: 1,3-Diphenylurea
Class: Natural_product; Industrial_process
Formula: C13H12N2O
Exact mass: 212.095
SMILES: O=C(Nc1ccccc1)Nc2ccccc2
InChI: InChI=1S/C13H12N2O/c16-13(14-11-7-3-1-4-8-11)15-12-9-5-2-6-10-12/h1-10H,(H2,14,15,16)
Instrument: TripleTOF 5600 SCIEX
Instrument type: LC-ESI-QTOF
Ms type: MS2
Ion mode: POSITIVE
Collision energy: 50
Fragmentation mode: CID
Ionization: ESI
Column name: Zorbax Eclipse Plus C18 2.1 mm x 150 mm, 3.5 um, Agilent
Retention time: 10.768 min
Precursor m/z: 213.1022
Precursor type: [M+H]+
m/z	relative intensity
65.0432	35
67.0573	11
77.0429	999
92.0513	82
93.0588	60
94.0671	421
120.0441	11
