Mass spectrum: Tetraoctylphosphonium; LC-ESI-QTOF; MS2; 100 V
Name: Tetraoctylphosphonium
Formula: [C32H68P]+
Exact mass: 483.5053
SMILES: CCCCCCCC[P+](CCCCCCCC)(CCCCCCCC)CCCCCCCC
InChI: InChI=1S/C32H68P/c1-5-9-13-17-21-25-29-33(30-26-22-18-14-10-6-2,31-27-23-19-15-11-7-3)32-28-24-20-16-12-8-4/h5-32H2,1-4H3/q+1
Instrument: TripleTOF 5600 SCIEX
Instrument type: LC-ESI-QTOF
Ms type: MS2
Ion mode: POSITIVE
Collision energy: 100
Fragmentation mode: CID
Ionization: ESI
Column name: Zorbax Eclipse Plus C18 2.1 mm x 150 mm, 3.5 um, Agilent
Retention time: 16.405 min
Precursor m/z: 483.5053
Precursor type: [M]+
m/z	relative intensity
39.0233	55
41.0389	127
43.0543	98
44.989	58
45.9969	105
48.0127	76
55.0541	148
56.9889	63
57.0696	66
59.004	140
61.02	322
62.0278	540
69.0695	126
73.0196	74
74.0272	51
75.0351	527
76.043	999
88.0421	123
89.0497	304
90.0577	327
101.0502	63
102.0578	77
103.0657	309
115.0662	182
116.0737	77
117.0816	293
129.0819	148
131.0973	369
143.0975	106
145.1139	401
157.1137	119
159.13	275
171.1304	89
173.1458	291
185.1441	84
187.161	429
199.1608	63
201.1769	328
213.1786	63
215.1925	406
227.1916	85
229.2083	505
241.2088	89
243.2235	343
255.2246	89
257.24	228
269.2393	68
271.2575	140
285.2716	322
299.2857	187
313.3019	132
327.3176	294
341.3322	166
355.352	63
