Mass spectrum: Hostavin VSU P; LC-ESI-QTOF; MS2; 10 V
Name: Hostavin VSU P
Formula: C18H20N2O3
Exact mass: 312.1474
SMILES: CCC1=CC=CC=C1NC(=O)C(=O)NC2=CC=CC=C2OCC
InChI: InChI=1S/C18H20N2O3/c1-3-13-9-5-6-10-14(13)19-17(21)18(22)20-15-11-7-8-12-16(15)23-4-2/h5-12H,3-4H2,1-2H3,(H,19,21)(H,20,22)
Instrument: TripleTOF 5600 SCIEX
Instrument type: LC-ESI-QTOF
Ms type: MS2
Ion mode: POSITIVE
Collision energy: 10
Fragmentation mode: CID
Ionization: ESI
Column name: Zorbax Eclipse Plus C18 2.1 mm x 150 mm, 3.5 um, Agilent
Retention time: 15.402 min
Precursor m/z: 313.1547
Precursor type: [M+H]+
m/z	relative intensity
122.0956	15
138.0903	32
148.0757	13
313.1537	999
