Mass spectrum: 2,4-Dichlorobenzoic acid; LC-ESI-QTOF; MS2; 40 V
Name: 2,4-Dichlorobenzoic acid
Class: Transformation_product
Formula: C7H4Cl2O2
Exact mass: 189.9588
SMILES: C1=CC(=C(C=C1Cl)Cl)C(=O)O
InChI: InChI=1S/C7H4Cl2O2/c8-4-1-2-5(7(10)11)6(9)3-4/h1-3H,(H,10,11)
Instrument: TripleTOF 6600 SCIEX
Instrument type: LC-ESI-QTOF
Ms type: MS2
Ion mode: NEGATIVE
Collision energy: 40
Fragmentation mode: CID
Ionization: ESI
Column name: Zorbax Eclipse Plus C18 2.1 mm x 150 mm, 3.5 um, Agilent
Retention time: 9.641 min
Precursor m/z: 188.9515
Precursor type: [M-H]-
m/z	relative intensity
34.969	999
