Mass spectrum: Fluxapyroxad; LC-ESI-QTOF; MS2; 100 V
Name: Fluxapyroxad
Class: Fungicide
Formula: C18H12F5N3O
Exact mass: 381.0901
SMILES: Cn1cc(c(n1)C(F)F)C(=O)Nc2ccccc2c3cc(c(c(c3)F)F)F
InChI: InChI=1S/C18H12F5N3O/c1-26-8-11(16(25-26)17(22)23)18(27)24-14-5-3-2-4-10(14)9-6-12(19)15(21)13(20)7-9/h2-8,17H,1H3,(H,24,27)
Instrument: TripleTOF 6600 SCIEX
Instrument type: LC-ESI-QTOF
Ms type: MS2
Ion mode: NEGATIVE
Collision energy: 100
Fragmentation mode: CID
Ionization: ESI
Column name: Zorbax Eclipse Plus C18 2.1 mm x 150 mm, 3.5 um, Agilent
Retention time: 12.239 min
Precursor m/z: 380.0828
Precursor type: [M-H]-
m/z	relative intensity
40.0192	102
41.998	243
48.0005	230
49.0079	307
50.003	896
63.0239	448
64.0184	64
65.0137	192
68.0056	76
91.0291	999
160.019	51
180.0244	102
200.0306	115
220.0385	64
