Mass spectrum: Alachlor; LC-ESI-QTOF; MS2; 90 V
Name: Alachlor
Class: Herbicide
Formula: C14H20ClNO2
Exact mass: 269.1183
SMILES: CCC1=C(C(=CC=C1)CC)N(COC)C(=O)CCl
InChI: InChI=1S/C14H20ClNO2/c1-4-11-7-6-8-12(5-2)14(11)16(10-18-3)13(17)9-15/h6-8H,4-5,9-10H2,1-3H3
Instrument: TripleTOF 6600 SCIEX
Instrument type: LC-ESI-QTOF
Ms type: MS2
Ion mode: POSITIVE
Collision energy: 90
Fragmentation mode: CID
Ionization: ESI
Column name: Zorbax Eclipse Plus C18 2.1 mm x 150 mm, 3.5 um, Agilent
Retention time: 13.233 min
Precursor m/z: 270.1255
Precursor type: [M+H]+
m/z	relative intensity
31.0173	172
39.0225	86
45.0325	308
48.9829	172
51.0218	61
65.0367	172
77.0368	542
79.0522	123
89.0367	209
90.045	283
91.053	431
103.0538	185
105.0682	148
106.0616	86
115.0532	357
117.0561	999
118.0628	123
127.0526	86
128.0608	111
130.0625	370
131.0707	86
132.08	185
143.0721	61
146.0925	74
155.0595	61
