Mass spectrum: Acetochlor; LC-ESI-QTOF; MS2; 100 V
Name: Acetochlor
Class: Herbicide
Formula: C14H20ClNO2
Exact mass: 269.1183
SMILES: CCC1=CC=CC(=C1N(COCC)C(=O)CCl)C
InChI: InChI=1S/C14H20ClNO2/c1-4-12-8-6-7-11(3)14(12)16(10-18-5-2)13(17)9-15/h6-8H,4-5,9-10H2,1-3H3
Instrument: TripleTOF 6600 SCIEX
Instrument type: LC-ESI-QTOF
Ms type: MS2
Ion mode: POSITIVE
Collision energy: 100
Fragmentation mode: CID
Ionization: ESI
Column name: Zorbax Eclipse Plus C18 2.1 mm x 150 mm, 3.5 um, Agilent
Retention time: 13.251 min
Precursor m/z: 270.1255
Precursor type: [M+H]+
m/z	relative intensity
31.0179	305
39.0228	138
45.0324	166
48.9822	305
63.0206	138
65.0366	305
77.0369	721
78.0439	111
79.0544	194
89.037	888
90.0454	416
91.0524	666
93.0561	111
103.0523	305
105.0678	166
115.0526	471
116.051	194
117.0556	999
127.0547	166
128.063	222
130.0633	471
132.0788	111
143.0631	111
