Mass spectrum: Cyclophosphamide; LC-ESI-QTOF; MS2; 40 V
Name: Cyclophosphamide
Class: Pharmaceutical
Formula: C7H15Cl2N2O2P
Exact mass: 260.0248
SMILES: C1CNP(=O)(OC1)N(CCCl)CCCl
InChI: InChI=1S/C7H15Cl2N2O2P/c8-2-5-11(6-3-9)14(12)10-4-1-7-13-14/h1-7H2,(H,10,12)
Instrument: TripleTOF 5600 SCIEX
Instrument type: LC-ESI-QTOF
Ms type: MS2
Ion mode: POSITIVE
Collision energy: 40
Fragmentation mode: CID
Ionization: ESI
Column name: Zorbax Eclipse Plus C18 2.1 mm x 150 mm, 3.5 um, Agilent
Retention time: 7.465 min
Precursor m/z: 261.0321
Precursor type: [M+H]+
m/z	relative intensity
44.0632	13
56.0592	163
58.0735	58
63.0081	269
70.0719	30
78.0146	62
91.9929	109
94.0086	35
102.0134	43
104.0283	31
106.011	20
106.0436	222
111.9736	10
120.0219	312
123.9725	10
140.004	999
141.9825	31
142.0187	342
155.9991	15
185.0247	15
233.0014	176
261.0314	296
