Mass spectrum: Terbinafine; LC-ESI-QTOF; MS2; 130 V
Name: Terbinafine
Class: Pharmaceutical; Fungicide
Formula: C21H25N
Exact mass: 291.1987
SMILES: CN(C\C=C\C#CC(C)(C)C)Cc1cccc2ccccc12
InChI: InChI=1S/C21H25N/c1-21(2,3)15-8-5-9-16-22(4)17-19-13-10-12-18-11-6-7-14-20(18)19/h5-7,9-14H,16-17H2,1-4H3/b9-5+
Instrument: TripleTOF 5600 SCIEX
Instrument type: LC-ESI-QTOF
Ms type: MS2
Ion mode: POSITIVE
Collision energy: 130
Fragmentation mode: CID
Ionization: ESI
Column name: Zorbax Eclipse Plus C18 2.1 mm x 150 mm, 3.5 um, Agilent
Retention time: 9.655 min
Precursor m/z: 292.206
Precursor type: [M+H]+
m/z	relative intensity
65.0434	281
74.0181	44
75.0255	36
76.0331	25
77.0415	134
78.0485	10
79.0558	10
86.0168	22
87.0242	37
88.0322	13
89.0409	496
91.0555	129
102.0466	29
113.0385	31
114.0456	25
115.0547	999
139.054	108
141.0691	10
