Mass spectrum: Abacavir; LC-ESI-QTOF; MS2; 100 V
Name: Abacavir
Class: Pharmaceutical
Formula: C14H18N6O
Exact mass: 286.1542
SMILES: Nc1nc(NC2CC2)c3ncn([C@@H]4C[C@H](CO)C=C4)c3n1
InChI: InChI=1S/C14H18N6O/c15-14-18-12(17-9-2-3-9)11-13(19-14)20(7-16-11)10-4-1-8(5-10)6-21/h1,4,7-10,21H,2-3,5-6H2,(H3,15,17,18,19)/t8-,10+/m1/s1
Instrument: TripleTOF 5600 SCIEX
Instrument type: LC-ESI-QTOF
Ms type: MS2
Ion mode: POSITIVE
Collision energy: 100
Fragmentation mode: CID
Ionization: ESI
Column name: Zorbax Eclipse Plus C18 2.1 mm x 150 mm, 3.5 um, Agilent
Retention time: 5.094 min
Precursor m/z: 287.1615
Precursor type: [M+H]+
m/z	relative intensity
42.0431	15
43.0369	35
43.0583	11
52.0243	11
53.0192	53
53.0438	11
54.0271	31
54.039	12
55.0347	99
58.0696	12
65.0177	116
65.042	51
66.0253	40
66.0371	11
67.0312	14
67.0587	191
68.0287	71
68.0522	12
77.0423	999
78.0367	32
79.0318	11
79.0569	281
80.0265	83
80.0482	11
81.0348	52
82.0418	36
92.0256	112
93.0326	10
94.0407	33
95.061	10
105.0447	19
106.0398	31
107.0356	160
108.0429	124
109.0509	72
119.0354	16
133.0438	33
134.0462	75
175.071	15
