Mass spectrum: Losartan; LC-ESI-QTOF; MS2; 80 V
Name: Losartan
Class: Pharmaceutical
Formula: C22H23ClN6O
Exact mass: 422.1622
SMILES: CCCCc1nc(c(n1Cc2ccc(cc2)c3ccccc3c4n[nH]nn4)CO)Cl
InChI: InChI=1S/C22H23ClN6O/c1-2-3-8-20-24-21(23)19(14-30)29(20)13-15-9-11-16(12-10-15)17-6-4-5-7-18(17)22-25-27-28-26-22/h4-7,9-12,30H,2-3,8,13-14H2,1H3,(H,25,26,27,28)
Instrument: TripleTOF 5600 SCIEX
Instrument type: LC-ESI-QTOF
Ms type: MS2
Ion mode: POSITIVE
Collision energy: 80
Fragmentation mode: CID
Ionization: ESI
Column name: Zorbax Eclipse Plus C18 2.1 mm x 150 mm, 3.5 um, Agilent
Retention time: 9.819 min
Precursor m/z: 423.1695
Precursor type: [M+H]+
m/z	relative intensity
77.0416	78
80.0514	28
102.0341	13
115.0547	31
127.0542	47
128.0488	15
128.0606	10
129.0445	14
138.0471	15
139.0544	45
140.0499	102
141.0589	14
142.0298	78
150.0469	32
151.0549	339
152.0625	593
153.0697	166
154.0664	27
163.0545	149
164.0556	149
165.07	381
166.0661	62
167.0731	55
168.0693	13
171.0666	13
176.0564	20
177.0583	130
178.0667	307
179.0734	311
180.0806	329
181.0764	16
188.0502	17
189.0575	59
190.0655	396
191.0713	78
192.0698	281
204.0745	13
205.0767	999
206.0843	154
207.091	44
214.066	48
216.0821	14
241.0755	13
