Mass spectrum: Triadimenol; LC-ESI-QTOF; MS2; 150 V
Name: Triadimenol
Class: Fungicide
Formula: C14H18ClN3O2
Exact mass: 295.1088
SMILES: CC(C)(C)C(C(N1C=NC=N1)OC2=CC=C(C=C2)Cl)O
InChI: InChI=1S/C14H18ClN3O2/c1-14(2,3)12(19)13(18-9-16-8-17-18)20-11-6-4-10(15)5-7-11/h4-9,12-13,19H,1-3H3
Instrument: TripleTOF 6600 SCIEX
Instrument type: LC-ESI-QTOF
Ms type: MS2
Ion mode: POSITIVE
Collision energy: 150
Fragmentation mode: CID
Ionization: ESI
Column name: Zorbax Eclipse Plus C18 2.1 mm x 150 mm, 3.5 um, Agilent
Retention time: 11.487 min
Precursor m/z: 296.116
Precursor type: [M+H]+
m/z	relative intensity
37.0078	137
38.0158	114
39.0233	510
41.0395	53
42.0213	137
43.018	190
43.0297	999
49.0068	38
50.0155	236
51.0245	114
70.0399	533
73.0078	152
74.0146	869
75.0231	122
