Mass spectrum: Diphenhydramine-N-oxide; LC-ESI-QTOF; MS2; 40 V
Name: Diphenhydramine-N-oxide
Class: Transformation_product
Formula: C17H21NO2
Exact mass: 271.1572
SMILES: C[N+](C)(CCOC(C1=CC=CC=C1)C2=CC=CC=C2)[O-]
InChI: InChI=1S/C17H21NO2/c1-18(2,19)13-14-20-17(15-9-5-3-6-10-15)16-11-7-4-8-12-16/h3-12,17H,13-14H2,1-2H3
Instrument: TripleTOF 5600 SCIEX
Instrument type: LC-ESI-QTOF
Ms type: MS2
Ion mode: POSITIVE
Collision energy: 40
Fragmentation mode: CID
Ionization: ESI
Column name: Zorbax Eclipse Plus C18 2.1 mm x 150 mm, 3.5 um, Agilent
Retention time: 8.07 min
Precursor m/z: 272.1641
Precursor type: [M+H]+
m/z	relative intensity
58.0711	14
77.0411	12
88.0778	53
115.0541	8
128.0617	23
141.0694	22
151.0539	43
152.0624	387
153.0683	9
155.0855	27
164.0597	5
165.0701	438
166.0773	159
166.5636	8
167.086	999
183.0808	6
