Mass spectrum: Ketoconazole; LC-ESI-QTOF; MS2; 150 V
Name: Ketoconazole
Class: Fungicide; Pharmaceutical
Formula: C26H28Cl2N4O4
Exact mass: 530.1488
SMILES: CC(=O)N1CCN(CC1)C2=CC=C(C=C2)OCC3COC(O3)(CN4C=CN=C4)C5=C(C=C(C=C5)Cl)Cl
InChI: InChI=1S/C26H28Cl2N4O4/c1-19(33)31-10-12-32(13-11-31)21-3-5-22(6-4-21)34-15-23-16-35-26(36-23,17-30-9-8-29-18-30)24-7-2-20(27)14-25(24)28/h2-9,14,18,23H,10-13,15-17H2,1H3
Instrument: TripleTOF 5600 SCIEX
Instrument type: LC-ESI-QTOF
Ms type: MS2
Ion mode: POSITIVE
Collision energy: 150
Fragmentation mode: CID
Ionization: ESI
Column name: Zorbax Eclipse Plus C18 2.1 mm x 150 mm, 3.5 um, Agilent
Retention time: 7.94 min
Precursor m/z: 531.156
Precursor type: [M+H]+
m/z	relative intensity
42.0468	19
43.0285	32
54.0442	134
56.0571	32
65.0451	131
69.0522	55
70.0711	19
71.0655	16
72.9894	46
74.0215	62
75.0281	23
77.0435	279
78.0491	36
79.0572	42
80.0539	36
81.0497	999
82.0576	170
83.0647	19
88.035	26
89.0416	180
91.0579	124
92.0504	23
93.0365	111
93.0625	19
94.044	88
94.0663	16
96.9848	19
98.016	55
99.0045	52
99.0251	147
101.0384	23
102.0493	29
103.0562	108
104.0548	29
106.0653	29
107.0517	19
108.9848	131
109.0383	19
111.0003	19
114.0471	36
115.0551	187
116.049	23
117.0585	55
118.0678	49
120.0447	98
121.0402	16
121.051	16
122.0609	29
123.0003	338
124.0092	39
127.0524	105
128.0653	26
130.0658	55
131.0495	59
131.0734	13
132.9635	29
133.0559	16
133.9927	19
134.0599	16
135.0021	72
136.0085	85
142.0674	16
143.0721	23
144.0794	26
144.9609	59
149.0144	19
156.0719	16
158.0609	29
158.9756	108
163.0106	19
169.9632	52
172.9661	23
