Mass spectrum: Octrizole; LC-ESI-QTOF; MS2; 70 V
Name: Octrizole
Class: Industrial_process
Formula: C20H25N3O
Exact mass: 323.1998
SMILES: CC(C)(C)CC(C)(C)C1=CC(=C(C=C1)O)N2N=C3C=CC=CC3=N2
InChI: InChI=1S/C20H25N3O/c1-19(2,3)13-20(4,5)14-10-11-18(24)17(12-14)23-21-15-8-6-7-9-16(15)22-23/h6-12,24H,13H2,1-5H3
Instrument: TripleTOF 5600 SCIEX
Instrument type: LC-ESI-QTOF
Ms type: MS2
Ion mode: POSITIVE
Collision energy: 70
Fragmentation mode: CID
Ionization: ESI
Column name: Zorbax Eclipse Plus C18 2.1 mm x 150 mm, 3.5 um, Agilent
Retention time: 19.562 min
Precursor m/z: 324.207
Precursor type: [M+H]+
m/z	relative intensity
65.0459	578
77.0432	235
78.0536	28
79.0585	134
80.0531	50
91.0583	235
92.0538	999
93.0375	28
103.0571	112
105.0437	33
105.0727	218
106.0796	22
107.0502	50
107.0606	33
115.0579	44
117.0569	39
119.0526	129
119.0639	67
120.0565	173
128.0596	39
129.0732	28
130.0636	39
133.0668	258
134.0736	78
139.0554	56
140.0508	22
152.0646	22
153.0697	50
154.0657	95
155.0683	39
156.0764	28
165.0719	95
166.0653	89
167.0721	230
168.0713	44
168.0836	28
180.0818	162
181.0687	44
181.0916	33
182.0649	28
182.0809	28
183.0673	117
184.0763	44
191.0678	33
192.0812	39
194.0722	28
196.0748	89
196.1134	22
208.077	39
209.0823	129
210.0906	56
223.0974	33
252.109	39
