Mass spectrum: Salicylamide; LC-ESI-QTOF; MS2; 40 V
Name: Salicylamide
Formula: C7H7NO2
Exact mass: 137.0477
SMILES: C1=CC=C(C(=C1)C(=O)N)O
InChI: InChI=1S/C7H7NO2/c8-7(10)5-3-1-2-4-6(5)9/h1-4,9H,(H2,8,10)
Instrument: TripleTOF X500R SCIEX
Instrument type: LC-ESI-QTOF
Ms type: MS2
Ion mode: NEGATIVE
Collision energy: 40
Fragmentation mode: CID
Ionization: ESI
Column name: Zorbax Eclipse Plus C18 2.1 mm x 150 mm, 3.5 um, Agilent
Retention time: 6.236 min
Precursor m/z: 136.0404
Precursor type: [M-H]-
m/z	relative intensity
39.0241	28
41.0031	86
41.9983	999
65.0029	141
65.0393	224
75.0234	35
90.0343	44
91.0186	253
93.0339	793
118.0292	147
