Mass spectrum: Diphenhydramine; LC-ESI-QTOF; MS2; 120 V
Name: Diphenhydramine
Class: Pharmaceutical
Formula: C17H21NO
Exact mass: 255.1623
SMILES: CN(C)CCOC(c1ccccc1)c2ccccc2
InChI: InChI=1S/C17H21NO/c1-18(2)13-14-19-17(15-9-5-3-6-10-15)16-11-7-4-8-12-16/h3-12,17H,13-14H2,1-2H3
Instrument: TripleTOF 5600 SCIEX
Instrument type: LC-ESI-QTOF
Ms type: MS2
Ion mode: POSITIVE
Collision energy: 120
Fragmentation mode: CID
Ionization: ESI
Column name: Zorbax Eclipse Plus C18 2.1 mm x 150 mm, 3.5 um, Agilent
Retention time: 7.721 min
Precursor m/z: 256.1696
Precursor type: [M+H]+
m/z	relative intensity
44.0579	12
60.0025	13
65.0436	137
73.0112	14
74.0189	177
75.0262	91
76.0341	153
77.0414	144
78.0492	86
85.0099	32
86.0167	102
87.025	122
88.0309	14
89.0406	357
91.0548	40
98.0163	105
99.0239	54
100.0312	29
101.0389	20
102.0471	204
110.0146	28
111.0233	26
113.0393	110
114.0468	15
115.0546	529
122.0141	10
125.0381	51
126.0464	227
127.0547	73
128.0618	58
137.0384	52
138.047	38
139.0546	379
149.0389	26
150.0467	334
151.0542	210
152.0625	73
161.0413	35
162.0468	135
163.0542	999
164.0623	398
165.0699	351
