Mass spectrum: Venlafaxine-N-oxide; LC-ESI-QTOF; MS2; 90 V
Name: Venlafaxine-N-oxide
Class: Pharmaceutical; Metabolite; Transformation_product; Transformation_product-Metabolite
Formula: C17H27NO3
Exact mass: 293.1991
SMILES: C[N+](C)(CC(c1ccc(cc1)OC)C2(CCCCC2)O)[O-]
InChI: InChI=1S/C17H27NO3/c1-18(2,20)13-16(17(19)11-5-4-6-12-17)14-7-9-15(21-3)10-8-14/h7-10,16,19H,4-6,11-13H2,1-3H3
Instrument: TripleTOF 5600 SCIEX
Instrument type: LC-ESI-QTOF
Ms type: MS2
Ion mode: POSITIVE
Collision energy: 90
Fragmentation mode: CID
Ionization: ESI
Column name: Zorbax Eclipse Plus C18 2.1 mm x 150 mm, 3.5 um, Agilent
Retention time: 7.246 min
Precursor m/z: 294.2064
Precursor type: [M+H]+
m/z	relative intensity
55.0607	16
58.072	13
65.044	134
76.0324	18
77.0418	648
78.0497	999
79.057	105
81.0725	116
91.0562	414
93.0711	15
99.0811	10
103.0559	29
106.0418	82
107.049	35
115.0549	39
121.0648	781
