Mass spectrum: Omethoate; LC-ESI-QTOF; MS2; 40 V
Name: Omethoate
Class: Insecticide; Transformation_product
Formula: C5H12NO4PS
Exact mass: 213.0225
SMILES: CNC(=O)CSP(=O)(OC)OC
InChI: InChI=1S/C5H12NO4PS/c1-6-5(7)4-12-11(8,9-2)10-3/h4H2,1-3H3,(H,6,7)
Instrument: TripleTOF 6600 SCIEX
Instrument type: LC-ESI-QTOF
Ms type: MS2
Ion mode: POSITIVE
Collision energy: 40
Fragmentation mode: CID
Ionization: ESI
Column name: Zorbax Eclipse Plus C18 2.1 mm x 150 mm, 3.5 um, Agilent
Retention time: 4.837 min
Precursor m/z: 214.0298
Precursor type: [M+H]+
m/z	relative intensity
42.0328	11
44.0484	35
44.978	18
46.9682	10
46.994	40
61.0094	11
62.017	11
72.0426	15
76.0202	34
78.993	207
104.0148	23
109.0037	999
124.9806	859
127.0136	36
