Mass spectrum: Oxibendazole; LC-ESI-QTOF; MS2; 60 V
Name: Oxibendazole
Class: Pharmaceutical
Formula: C12H15N3O3
Exact mass: 249.1113
SMILES: CCCOC1=CC2=C(C=C1)N=C(N2)NC(=O)OC
InChI: InChI=1S/C12H15N3O3/c1-3-6-18-8-4-5-9-10(7-8)14-11(13-9)15-12(16)17-2/h4-5,7H,3,6H2,1-2H3,(H2,13,14,15,16)
Instrument: TripleTOF 5600 SCIEX
Instrument type: LC-ESI-QTOF
Ms type: MS2
Ion mode: POSITIVE
Collision energy: 60
Fragmentation mode: CID
Ionization: ESI
Column name: Zorbax Eclipse Plus C18 2.1 mm x 150 mm, 3.5 um, Agilent
Retention time: 6.663 min
Precursor m/z: 250.1186
Precursor type: [M+H]+
m/z	relative intensity
43.0288	27
51.0223	15
53.0384	98
66.0337	47
68.0127	23
69.0088	15
76.0177	20
78.0341	98
79.0417	72
80.0498	397
81.0334	211
92.0369	76
93.0091	40
93.045	77
94.0524	15
96.0467	11
103.0292	37
105.0439	33
106.0289	296
108.0446	221
119.048	96
120.0563	112
121.0397	365
122.025	20
122.0464	10
130.0402	232
131.0236	51
133.0394	88
134.0476	141
147.0431	135
148.0509	999
149.0372	21
149.0582	56
158.0345	78
159.0442	16
175.0385	83
176.0459	693
