Mass spectrum: 7-Amino-4-methylcoumarin; LC-ESI-QTOF; MS2; 40 V
Name: 7-Amino-4-methylcoumarin
Formula: C10H9NO2
Exact mass: 175.0633
SMILES: CC1=CC(=O)OC2=C1C=CC(=C2)N
InChI: InChI=1S/C10H9NO2/c1-6-4-10(12)13-9-5-7(11)2-3-8(6)9/h2-5H,11H2,1H3
Instrument: TripleTOF X500R SCIEX
Instrument type: LC-ESI-QTOF
Ms type: MS2
Ion mode: POSITIVE
Collision energy: 40
Fragmentation mode: CID
Ionization: ESI
Column name: Zorbax Eclipse Plus C18 2.1 mm x 150 mm, 3.5 um, Agilent
Retention time: 7.107 min
Precursor m/z: 176.0706
Precursor type: [M+H]+
m/z	relative intensity
39.0233	26
40.0179	12
42.0343	31
51.0237	48
54.0334	12
63.0225	9
65.0386	43
66.0476	16
67.0188	33
68.0134	115
77.0388	485
78.0458	12
79.0546	55
80.0501	21
81.0699	21
89.0385	43
90.047	14
91.0547	171
92.0518	36
93.0592	299
94.0665	82
102.0464	79
103.0546	999
104.0497	260
105.0622	164
106.0655	62
107.05	16
109.0651	55
110.0595	24
115.0548	299
117.0574	381
118.0658	180
119.0735	132
120.0814	921
121.0624	14
130.0658	250
131.0498	60
131.0741	82
132.081	48
133.0526	212
134.0613	21
146.0631	38
147.0667	14
148.0756	77
159.0457	16
176.0711	523
