Mass spectrum: Doxorubicin; LC-ESI-QTOF; MS2; 20 V
Name: Doxorubicin
Class: Pharmaceutical
Formula: C27H29NO11
Exact mass: 543.1741
SMILES: C[C@H]1[C@H]([C@H](C[C@@H](O1)O[C@H]2C[C@@](Cc3c2c(c4c(c3O)C(=O)c5cccc(c5C4=O)OC)O)(C(=O)CO)O)N)O
InChI: InChI=1S/C27H29NO11/c1-10-22(31)13(28)6-17(38-10)39-15-8-27(36,16(30)9-29)7-12-19(15)26(35)21-20(24(12)33)23(32)11-4-3-5-14(37-2)18(11)25(21)34/h3-5,10,13,15,17,22,29,31,33,35-36H,6-9,28H2,1-2H3/t10-,13-,15-,17-,22+,27-/m0/s1
Instrument: TripleTOF 5600 SCIEX
Instrument type: LC-ESI-QTOF
Ms type: MS2
Ion mode: POSITIVE
Collision energy: 20
Fragmentation mode: CID
Ionization: ESI
Column name: Zorbax Eclipse Plus C18 2.1 mm x 150 mm, 3.5 um, Agilent
Retention time: 7.064 min
Precursor m/z: 544.1813
Precursor type: [M+H]+
m/z	relative intensity
86.0629	12
113.0578	11
130.0865	130
148.0972	19
321.0747	71
361.0687	84
379.0808	248
397.0922	999
508.155	11
526.1698	37
544.1808	408
