Mass spectrum: Albendazole; LC-ESI-QTOF; MS2; 80 V
Name: Albendazole
Class: Pharmaceutical
Formula: C12H15N3O2S
Exact mass: 265.0885
SMILES: CCCSc1ccc2nc(NC(=O)OC)[nH]c2c1
InChI: InChI=1S/C12H15N3O2S/c1-3-6-18-8-4-5-9-10(7-8)14-11(13-9)15-12(16)17-2/h4-5,7H,3,6H2,1-2H3,(H2,13,14,15,16)
Instrument: TripleTOF 5600 SCIEX
Instrument type: LC-ESI-QTOF
Ms type: MS2
Ion mode: POSITIVE
Collision energy: 80
Fragmentation mode: CID
Ionization: ESI
Column name: Zorbax Eclipse Plus C18 2.1 mm x 150 mm, 3.5 um, Agilent
Retention time: 8.546 min
Precursor m/z: 266.0958
Precursor type: [M+H]+
m/z	relative intensity
51.0301	18
52.0247	10
52.0371	17
57.9924	16
64.0353	13
65.0296	70
66.0371	30
67.045	10
68.9831	76
69.0108	16
69.9903	77
75.0132	10
76.0216	183
77.0297	556
78.0367	126
79.0444	130
81.9898	109
82.9847	64
83.9914	32
84.0044	14
90.0359	69
91.0436	29
92.0392	576
92.9805	72
93.0464	67
93.9887	140
94.0567	14
94.9961	103
95.9904	11
96.004	141
103.0333	193
104.0382	999
105.0452	173
106.0525	33
108.9988	444
109.9939	28
110.0054	60
111.0145	22
116.0368	33
118.039	15
118.0519	30
119.0484	659
119.9901	75
120.0552	52
120.9987	271
122.0062	366
123.0138	80
130.0403	324
131.0256	12
131.0484	941
132.055	34
133.0631	60
135.0013	80
136.0092	518
137.0173	59
146.0347	22
147.0016	21
147.0431	87
148.0083	13
149.0174	29
158.0351	131
159.0435	868
160.0503	25
162.0125	87
163.0203	199
164.0278	42
190.0072	69
191.0149	150
