Mass spectrum: Purine; LC-ESI-QTOF; MS2; 80 V
Name: Purine
Class: Metabolite
Formula: C5H4N4
Exact mass: 120.0436
SMILES: C1(NC=N2)=C2C=NC=N1
InChI: InChI=1S/C5H4N4/c1-4-5(8-2-6-1)9-3-7-4/h1-3H,(H,6,7,8,9)
Instrument: TripleTOF 5600 SCIEX
Instrument type: LC-ESI-QTOF
Ms type: MS2
Ion mode: NEGATIVE
Collision energy: 80
Fragmentation mode: CID
Ionization: ESI
Column name: Zorbax Eclipse Plus C18 2.1 mm x 150 mm, 3.5 um, Agilent
Retention time: 2.566 min
Precursor m/z: 119.0363
Precursor type: [M-H]-
m/z	relative intensity
40.0069	66
41.0144	266
50.0028	91
64.0063	999
65.0142	316
66.0097	66
