Mass spectrum: 14-Hydroxycodeinone; LC-ESI-QTOF; MS2; 20 V
Name: 14-Hydroxycodeinone
Class: Pharmaceutical; Transformation_product
Formula: C18H19NO4
Exact mass: 313.1314
SMILES: COc1ccc2C[C@H]3N(C)CC[C@@]45C(Oc1c24)C(=O)C=C[C@@]35O
InChI: InChI=1S/C18H19NO4/c1-19-8-7-17-14-10-3-4-12(22-2)15(14)23-16(17)11(20)5-6-18(17,21)13(19)9-10/h3-6,13,16,21H,7-9H2,1-2H3/t13-,16?,17+,18-/m1/s1
Instrument: TripleTOF 5600 SCIEX
Instrument type: LC-ESI-QTOF
Ms type: MS2
Ion mode: POSITIVE
Collision energy: 20
Fragmentation mode: CID
Ionization: ESI
Column name: Zorbax Eclipse Plus C18 2.1 mm x 150 mm, 3.5 um, Agilent
Retention time: 5.367 min
Precursor m/z: 314.1387
Precursor type: [M+H]+
m/z	relative intensity
227.0691	19
239.0973	23
254.1173	164
255.101	25
264.1016	26
268.1325	33
281.1044	60
296.1275	999
314.1378	883
