Mass spectrum: Betaxolol; LC-ESI-QTOF; MS2; 70 V
Name: Betaxolol
Class: Pharmaceutical
Formula: C18H29NO3
Exact mass: 307.2147
SMILES: CC(C)NCC(COC1=CC=C(C=C1)CCOCC2CC2)O
InChI: InChI=1S/C18H29NO3/c1-14(2)19-11-17(20)13-22-18-7-5-15(6-8-18)9-10-21-12-16-3-4-16/h5-8,14,16-17,19-20H,3-4,9-13H2,1-2H3
Instrument: TripleTOF 5600 SCIEX
Instrument type: LC-ESI-QTOF
Ms type: MS2
Ion mode: POSITIVE
Collision energy: 70
Fragmentation mode: CID
Ionization: ESI
Column name: Zorbax Eclipse Plus C18 2.1 mm x 150 mm, 3.5 um, Agilent
Retention time: 7.064 min
Precursor m/z: 308.222
Precursor type: [M+H]+
m/z	relative intensity
42.0495	12
43.029	18
44.0626	28
55.0269	25
56.0594	521
58.0732	126
67.0612	36
70.0726	12
72.0856	118
74.0662	211
77.0443	890
78.0548	49
79.0598	312
81.0734	23
84.0852	36
89.0446	20
91.0584	999
93.075	92
98.1019	33
100.1164	49
102.0517	36
103.0578	513
104.0645	82
105.0366	12
105.0731	291
107.0538	38
115.0572	451
116.0638	116
116.1097	28
117.0733	90
119.0517	18
119.0866	20
120.059	12
121.0672	149
127.0573	113
128.0635	302
129.0718	98
130.0799	23
131.0513	54
131.084	23
133.0669	59
141.0718	139
142.0806	15
143.0853	15
144.0578	80
145.0664	36
147.0805	12
152.0622	10
153.0707	20
157.0655	36
159.0816	20
171.0829	10
