Mass spectrum: Tramadol-N-oxide; LC-ESI-QTOF; MS2; 150 V
Name: Tramadol-N-oxide
Class: Pharmaceutical
Formula: C16H25NO3
Exact mass: 279.1834
SMILES: [O-][N+](C)(C)C[C@H]2CCCC[C@]2(O)c1cc(OC)ccc1
InChI: InChI=1S/C16H25NO3/c1-17(2,19)12-14-7-4-5-10-16(14,18)13-8-6-9-15(11-13)20-3/h6,8-9,11,14,18H,4-5,7,10,12H2,1-3H3/t14-,16+/m1/s1
Instrument: TripleTOF 5600 SCIEX
Instrument type: LC-ESI-QTOF
Ms type: MS2
Ion mode: POSITIVE
Collision energy: 150
Fragmentation mode: CID
Ionization: ESI
Column name: Zorbax Eclipse Plus C18 2.1 mm x 150 mm, 3.5 um, Agilent
Retention time: 6.334 min
Precursor m/z: 280.1907
Precursor type: [M+H]+
m/z	relative intensity
42.0439	572
43.0267	106
53.0418	39
55.0248	33
56.0562	39
58.0713	592
60.0054	73
60.0489	66
64.0347	326
65.0433	652
66.0526	73
74.0182	279
75.0258	139
76.033	153
77.041	999
78.0495	359
86.0172	59
87.0251	46
89.041	419
91.055	166
92.0265	106
102.047	193
103.0551	33
115.054	666
126.0484	66
127.0526	126
128.0611	119
