Mass spectrum: Pantothenic acid; LC-ESI-QTOF; MS2; 60 V
Name: Pantothenic acid
Formula: C9H17NO5
Exact mass: 219.1107
SMILES: CC(C)(CO)C(C(=O)NCCC(=O)O)O
InChI: InChI=1S/C9H17NO5/c1-9(2,5-11)7(14)8(15)10-4-3-6(12)13/h7,11,14H,3-5H2,1-2H3,(H,10,15)(H,12,13)
Instrument: TripleTOF 6600 SCIEX
Instrument type: LC-ESI-QTOF
Ms type: MS2
Ion mode: POSITIVE
Collision energy: 60
Fragmentation mode: CID
Ionization: ESI
Column name: Zorbax Eclipse Plus C18 2.1 mm x 150 mm, 3.5 um, Agilent
Retention time: 4.792 min
Precursor m/z: 220.118
Precursor type: [M+H]+
m/z	relative intensity
30.033	318
37.0068	54
38.0147	54
39.0222	636
41.0386	812
42.0333	494
43.018	999
45.0326	98
55.0167	43
55.0544	131
56.0127	658
57.0682	43
59.0484	76
65.0379	197
67.0535	450
70.0283	625
72.0428	43
79.0535	54
80.0489	109
81.0553	76
95.0487	98
