Mass spectrum: 4-Amino-2,6-dimethoxypyrimidine; LC-ESI-QTOF; MS2; 30 V
Name: 4-Amino-2,6-dimethoxypyrimidine
Class: Pharmaceutical
Formula: C6H9N3O2
Exact mass: 155.0695
SMILES: COC1=NC(=NC(=C1)N)OC
InChI: InChI=1S/C6H9N3O2/c1-10-5-3-4(7)8-6(9-5)11-2/h3H,1-2H3,(H2,7,8,9)
Instrument: TripleTOF 5600 SCIEX
Instrument type: LC-ESI-QTOF
Ms type: MS2
Ion mode: POSITIVE
Collision energy: 30
Fragmentation mode: CID
Ionization: ESI
Column name: Zorbax Eclipse Plus C18 2.1 mm x 150 mm, 3.5 um, Agilent
Retention time: 4.656 min
Precursor m/z: 156.0768
Precursor type: [M+H]+
m/z	relative intensity
43.0468	21
54.0427	23
55.0252	16
56.0583	74
57.0529	157
58.0366	82
67.036	526
68.0184	77
70.0581	33
72.0504	151
81.028	10
81.0491	121
82.0333	731
83.0276	16
83.0528	10
84.0351	89
84.0595	23
85.0675	43
89.0744	53
92.0268	56
98.0497	265
99.0573	226
111.0203	356
111.0413	42
112.0518	73
113.06	404
114.0429	17
124.0284	16
124.0513	368
125.0347	17
139.0496	50
140.0457	48
141.0539	999
156.0772	964
