Mass spectrum: Fluorescein; LC-ESI-QTOF; MS2; 50 V
Name: Fluorescein
Class: Industrial_process; Pharmaceutical
Formula: C20H12O5
Exact mass: 332.0685
SMILES: C1=CC=C2C(=C1)C(=O)OC23C4=C(C=C(C=C4)O)OC5=C3C=CC(=C5)O
InChI: InChI=1S/C20H12O5/c21-11-5-7-15-17(9-11)24-18-10-12(22)6-8-16(18)20(15)14-4-2-1-3-13(14)19(23)25-20/h1-10,21-22H
Instrument: TripleTOF 5600 SCIEX
Instrument type: LC-ESI-QTOF
Ms type: MS2
Ion mode: POSITIVE
Collision energy: 50
Fragmentation mode: CID
Ionization: ESI
Column name: Zorbax Eclipse Plus C18 2.1 mm x 150 mm, 3.5 um, Agilent
Retention time: 9.527 min
Precursor m/z: 333.0757
Precursor type: [M+H]+
m/z	relative intensity
178.0786	10
184.051	10
189.0714	29
190.0783	20
191.0866	16
196.0539	11
201.0685	13
202.0783	151
203.086	89
213.0704	29
214.0791	15
215.0856	112
218.0731	26
229.0506	54
230.0723	14
231.0808	229
233.0948	33
241.0669	19
242.0726	40
243.0788	42
245.0581	13
247.0743	25
258.068	93
259.0757	195
260.0844	45
261.0897	57
263.0701	12
270.0648	10
271.0766	238
274.0624	11
286.0637	38
287.0713	763
289.0865	396
305.0798	66
315.0649	90
333.0765	999
