Mass spectrum: 2,2`-Dihydroxy-4,4`-dimethoxybenzophenone; LC-ESI-QTOF; MS2; 110 V
Name: 2,2`-Dihydroxy-4,4`-dimethoxybenzophenone
Class: Industrial_process; Personal_care_product
Formula: C15H14O5
Exact mass: 274.0841
SMILES: COc1ccc(c(O)c1)C(=O)c2ccc(OC)cc2O
InChI: InChI=1S/C15H14O5/c1-19-9-3-5-11(13(16)7-9)15(18)12-6-4-10(20-2)8-14(12)17/h3-8,16-17H,1-2H3
Instrument: TripleTOF 5600 SCIEX
Instrument type: LC-ESI-QTOF
Ms type: MS2
Ion mode: POSITIVE
Collision energy: 110
Fragmentation mode: CID
Ionization: ESI
Column name: Zorbax Eclipse Plus C18 2.1 mm x 150 mm, 3.5 um, Agilent
Retention time: 12.683 min
Precursor m/z: 275.0914
Precursor type: [M+H]+
m/z	relative intensity
41.0092	99
51.0289	979
53.0086	279
65.043	459
68.9998	999
74.0177	119
75.0266	99
77.0433	139
79.02	179
80.0277	499
89.0401	219
95.0494	79
102.0478	159
108.0206	279
115.0549	219
