Mass spectrum: Lomefloxacin; LC-ESI-QTOF; MS2; 110 V
Name: Lomefloxacin
Class: Pharmaceutical; Antimicrobial
Formula: C17H19F2N3O3
Exact mass: 351.1394
SMILES: CCn1cc(c(=O)c2c1c(c(c(c2)F)N3CCNC(C3)C)F)C(=O)O
InChI: InChI=1S/C17H19F2N3O3/c1-3-21-8-11(17(24)25)16(23)10-6-12(18)15(13(19)14(10)21)22-5-4-20-9(2)7-22/h6,8-9,20H,3-5,7H2,1-2H3,(H,24,25)
Instrument: TripleTOF 5600 SCIEX
Instrument type: LC-ESI-QTOF
Ms type: MS2
Ion mode: POSITIVE
Collision energy: 110
Fragmentation mode: CID
Ionization: ESI
Column name: Zorbax Eclipse Plus C18 2.1 mm x 150 mm, 3.5 um, Agilent
Retention time: 5.44 min
Precursor m/z: 352.1467
Precursor type: [M+H]+
m/z	relative intensity
75.0276	166
88.019	208
94.0219	166
99.009	208
99.0227	291
100.019	416
101.039	208
106.0239	208
107.0295	582
112.0138	541
113.0251	166
114.0294	249
119.0269	291
120.0341	208
124.0149	499
125.0197	999
126.0288	790
132.0229	541
133.0323	166
133.0445	208
134.0412	333
139.0232	541
140.0466	166
145.0284	208
146.0408	291
147.0469	499
148.0544	374
150.0135	416
151.0262	333
152.0318	624
153.0412	208
157.0181	374
158.0384	208
160.0532	249
166.0452	333
173.0506	499
178.0102	166
178.0334	291
