Mass spectrum: Disperse brown 1; LC-ESI-QTOF; MS2; 50 V
Name: Disperse brown 1
Formula: C16H15Cl3N4O4
Exact mass: 432.0159
SMILES: C1=CC(=C(C=C1N(CCO)CCO)Cl)N=NC2=C(C=C(C=C2Cl)[N+](=O)[O-])Cl
InChI: InChI=1S/C16H15Cl3N4O4/c17-12-7-10(22(3-5-24)4-6-25)1-2-15(12)20-21-16-13(18)8-11(23(26)27)9-14(16)19/h1-2,7-9,24-25H,3-6H2
Instrument: TripleTOF 6600 SCIEX
Instrument type: LC-ESI-QTOF
Ms type: MS2
Ion mode: POSITIVE
Collision energy: 50
Fragmentation mode: CID
Ionization: ESI
Column name: Zorbax Eclipse Plus C18 2.1 mm x 150 mm, 3.5 um, Agilent
Retention time: 12.39 min
Precursor m/z: 433.0232
Precursor type: [M+H]+
m/z	relative intensity
70.0652	19
98.9838	19
106.9456	13
109.9805	11
114.0552	65
117.0564	15
118.0659	13
119.0593	24
123.9943	13
126.0101	19
128.026	13
130.0623	9
131.0608	32
133.0805	13
135.0663	13
139.0075	40
139.0186	21
140.027	26
141.0218	19
143.9531	92
144.0778	9
145.0742	51
149.072	34
152.0134	15
152.026	28
153.0219	491
157.0767	11
158.0375	44
159.947	13
163.0872	69
166.0428	69
167.0361	53
170.0362	40
171.9583	23
175.0875	30
179.0389	32
183.0326	32
184.0512	71
185.0487	115
189.9456	132
193.0972	26
197.0502	555
217.9529	88
228.0669	32
310.9787	147
311.986	17
312.9946	26
323.0149	42
324.995	59
328.9522	11
340.9706	13
342.97	40
343.0129	17
349.028	19
356.0054	17
356.0247	24
356.9729	999
357.9785	42
358.9902	59
367.0361	30
367.0532	23
370.9854	59
387.0324	182
389.0124	13
402.0061	46
402.032	9
433.0285	28
