Mass spectrum: Tiamulin; LC-ESI-QTOF; MS2; 70 V
Name: Tiamulin
Class: Antimicrobial; Pharmaceutical
Formula: C28H47NO4S
Exact mass: 493.3226
SMILES: CCN(CC)CCSCC(=O)OC1CC(C(C(C23CCC(C1(C2C(=O)CC3)C)C)C)O)(C)C=C
InChI: InChI=1S/C28H47NO4S/c1-8-26(6)17-22(33-23(31)18-34-16-15-29(9-2)10-3)27(7)19(4)11-13-28(20(5)25(26)32)14-12-21(30)24(27)28/h8,19-20,22,24-25,32H,1,9-18H2,2-7H3
Instrument: TripleTOF 6600 SCIEX
Instrument type: LC-ESI-QTOF
Ms type: MS2
Ion mode: POSITIVE
Collision energy: 70
Fragmentation mode: CID
Ionization: ESI
Column name: Zorbax Eclipse Plus C18 2.1 mm x 150 mm, 3.5 um, Agilent
Retention time: 8.661 min
Precursor m/z: 494.3299
Precursor type: [M+H]+
m/z	relative intensity
39.0226	13
41.0382	34
43.0176	74
44.9789	86
45.0328	13
46.9946	21
53.0376	10
55.0537	59
65.0383	16
67.0539	96
69.069	41
71.0482	13
72.0788	13
73.0099	647
74.0955	131
77.0377	76
79.0535	180
81.0689	221
83.0479	18
83.0854	15
91.0205	18
91.0532	188
93.0691	204
95.0842	122
97.0639	25
99.0425	14
100.111	65
101.0043	93
103.0533	15
105.069	292
107.0847	204
109.0638	53
109.0994	54
111.0792	15
115.0528	25
117.0687	74
119.0152	999
119.0853	32
121.0652	37
121.0998	164
123.0801	35
123.1156	11
125.0946	13
128.0613	39
129.0686	58
130.0756	25
131.0842	146
133.0641	14
133.1002	228
135.0795	47
135.1158	39
137.0946	18
141.0683	28
142.0767	43
143.0845	79
144.0926	31
145.1004	153
147.0791	24
147.1157	84
149.0947	91
149.1306	17
153.0681	10
154.0748	15
155.0836	51
156.0931	38
157.0996	80
158.1094	22
159.0774	14
159.1147	106
161.0954	37
161.1306	36
163.1107	125
167.0831	24
168.0918	17
169.0998	55
170.1074	25
171.1157	51
173.0944	13
173.1315	61
175.1097	35
175.1474	22
177.1249	39
181.1	20
182.1086	20
183.1146	36
185.1303	33
187.1104	13
187.146	25
189.127	13
192.1036	68
195.1155	14
196.1238	11
197.1306	23
199.1463	18
201.1609	13
211.1479	11
