Mass spectrum: Propyzamid; LC-ESI-QTOF; MS2; 100 V
Name: Propyzamid
Class: Herbicide
Formula: C12H11Cl2NO
Exact mass: 255.0218
SMILES: CC(C)(C#C)NC(=O)c1cc(cc(c1)Cl)Cl
InChI: InChI=1S/C12H11Cl2NO/c1-4-12(2,3)15-11(16)8-5-9(13)7-10(14)6-8/h1,5-7H,2-3H3,(H,15,16)
Instrument: TripleTOF 6600 SCIEX
Instrument type: LC-ESI-QTOF
Ms type: MS2
Ion mode: POSITIVE
Collision energy: 100
Fragmentation mode: CID
Ionization: ESI
Column name: Zorbax Eclipse Plus C18 2.1 mm x 150 mm, 3.5 um, Agilent
Retention time: 12.435 min
Precursor m/z: 256.0291
Precursor type: [M+H]+
m/z	relative intensity
35.9998	13
37.0076	69
38.0152	53
39.0233	229
41.0386	49
44.0134	186
49.007	33
50.0151	123
51.0228	83
65.0379	19
73.0069	113
74.0152	999
75.0234	156
83.9771	33
84.9839	36
108.9839	153
109.9913	16
