Mass spectrum: Sulpiride; LC-ESI-QTOF; MS2; 90 V
Name: Sulpiride
Class: Pharmaceutical
Formula: C15H23N3O4S
Exact mass: 341.1409
SMILES: CCN1CCCC1CNC(=O)c2cc(ccc2OC)[S](N)(=O)=O
InChI: InChI=1S/C15H23N3O4S/c1-3-18-8-4-5-11(18)10-17-15(19)13-9-12(23(16,20)21)6-7-14(13)22-2/h6-7,9,11H,3-5,8,10H2,1-2H3,(H,17,19)(H2,16,20,21)
Instrument: TripleTOF 5600 SCIEX
Instrument type: LC-ESI-QTOF
Ms type: MS2
Ion mode: POSITIVE
Collision energy: 90
Fragmentation mode: CID
Ionization: ESI
Column name: Zorbax Eclipse Plus C18 2.1 mm x 150 mm, 3.5 um, Agilent
Retention time: 4.958 min
Precursor m/z: 342.1482
Precursor type: [M+H]+
m/z	relative intensity
39.0306	58
42.0432	95
44.0594	36
51.0292	161
52.0384	183
55.0601	132
56.0557	404
58.0717	301
65.0425	161
67.0584	58
68.055	66
70.07	271
74.0192	124
75.0263	991
76.0343	396
77.0413	220
78.0492	323
79.0186	51
79.0448	205
80.0512	66
81.0336	44
82.068	183
83.0744	29
84.0831	999
90.0356	80
91.0191	550
95.0515	29
96.0825	58
97.0892	51
98.0975	639
103.0185	29
104.027	95
105.036	88
106.0395	73
107.0126	352
107.0359	190
108.0195	44
108.0441	73
109.0278	36
110.0968	73
110.9868	58
112.1118	499
119.0115	102
133.0289	88
134.0342	323
135.0091	44
138.984	80
154.9802	396
198.9909	51
214.016	36
