Mass spectrum: Fenarimol; LC-ESI-QTOF; MS2; 80 V
Name: Fenarimol
Class: Fungicide
Formula: C17H12Cl2N2O
Exact mass: 330.0327
SMILES: C1=CC=C(C(=C1)C(C2=CC=C(C=C2)Cl)(C3=CN=CN=C3)O)Cl
InChI: InChI=1S/C17H12Cl2N2O/c18-14-7-5-12(6-8-14)17(22,13-9-20-11-21-10-13)15-3-1-2-4-16(15)19/h1-11,22H
Instrument: TripleTOF 6600 SCIEX
Instrument type: LC-ESI-QTOF
Ms type: MS2
Ion mode: POSITIVE
Collision energy: 80
Fragmentation mode: CID
Ionization: ESI
Column name: Zorbax Eclipse Plus C18 2.1 mm x 150 mm, 3.5 um, Agilent
Retention time: 11.9 min
Precursor m/z: 331.04
Precursor type: [M+H]+
m/z	relative intensity
51.0231	16
52.0177	26
54.0338	291
74.0148	92
75.0228	525
76.0305	23
77.0379	26
81.0442	198
84.9834	29
101.0373	16
102.0468	19
103.054	33
110.9994	979
114.0441	16
128.0498	19
130.063	26
139.0033	469
139.0533	13
140.05	23
149.0155	16
150.0477	16
151.0546	66
152.0614	66
158.0588	23
161.0404	19
162.0463	16
163.054	172
164.0628	36
165.0684	52
175.0558	16
176.0615	152
177.0686	76
178.0772	115
187.0545	373
188.0623	357
189.0704	999
190.0676	33
198.0243	23
199.0313	33
202.0645	23
203.0722	66
204.0806	92
205.064	69
214.0646	105
215.0735	29
216.0801	66
217.0652	19
223.032	89
232.9944	19
238.0418	29
241.0757	19
242.0856	29
243.0931	13
