Mass spectrum: Godecke; LC-ESI-QTOF; MS2; 40 V
Name: Godecke
Class: Transformation_product; Pharmaceutical
Formula: C9H14O2
Exact mass: 154.0994
SMILES: C1CCC2(CC1)CC(=O)OC2
InChI: InChI=1S/C9H14O2/c10-8-6-9(7-11-8)4-2-1-3-5-9/h1-7H2
Instrument: TripleTOF 5600 SCIEX
Instrument type: LC-ESI-QTOF
Ms type: CID
Ion mode: POSITIVE
Collision energy: 40
Ionization: ESI
Column name: Zorbax Eclipse Plus C18 2.1 mm x 150 mm, 3.5 um, Agilent
Retention time: 9.655 min
Precursor m/z: 155.1067
Precursor type: [M+H]+
m/z	relative intensity
41.0388	76
55.0545	211
65.0381	134
67.0539	787
77.0373	268
91.0545	441
93.0688	249
95.0851	999
109.0999	96
119.0844	172
