Mass spectrum: Aclonifen; LC-ESI-QTOF; MS2; 60 V
Name: Aclonifen
Class: Herbicide
Formula: C12H9ClN2O3
Exact mass: 264.0302
SMILES: Nc1c(Cl)c(Oc2ccccc2)ccc1[N+]([O-])=O
InChI: InChI=1S/C12H9ClN2O3/c13-11-10(18-8-4-2-1-3-5-8)7-6-9(12(11)14)15(16)17/h1-7H,14H2
Instrument: TripleTOF 5600 SCIEX
Instrument type: LC-ESI-QTOF
Ms type: MS2
Ion mode: POSITIVE
Collision energy: 60
Fragmentation mode: CID
Ionization: ESI
Column name: Zorbax Eclipse Plus C18 2.1 mm x 150 mm, 3.5 um, Agilent
Retention time: 13.815 min
Precursor m/z: 265.0374
Precursor type: [M+H]+
m/z	relative intensity
52.0248	112
65.0437	37
72.9862	25
76.0196	29
77.0414	999
77.0664	33
78.0367	45
78.0499	20
80.0149	455
84.9881	25
86.0172	29
88.0321	83
89.0404	29
90.037	16
96.9836	25
101.0393	62
102.046	54
103.0543	25
112.0155	29
112.0272	41
112.9779	16
113.0048	29
113.0268	29
113.0395	25
114.047	29
115.054	62
123.997	16
125.0035	66
126.0459	158
127.0541	982
128.0611	380
129.0542	20
131.0491	37
138.0341	296
139.0414	355
140.0365	20
140.0489	108
140.9979	37
147.0012	25
149.0117	20
152.0504	33
153.0568	192
154.0647	530
155.0493	731
156.0534	45
156.081	16
162.0188	29
164.03	16
165.0451	121
166.053	54
167.0363	54
173.0135	25
174.0069	45
181.053	91
182.0601	973
183.068	150
190.0223	25
190.0428	29
193.0363	20
194.0451	20
203.0125	33
216.0185	66
217.0283	213
