Mass spectrum: 2-Phenyl-1H-benzimidazol-4-amine; LC-ESI-QTOF; MS2; 150 V
Name: 2-Phenyl-1H-benzimidazol-4-amine
Class: Pharmaceutical
Formula: C13H11N3
Exact mass: 209.0953
SMILES: C1=CC=C(C=C1)C2=NC3=C(N2)C=CC=C3N
InChI: InChI=1S/C13H11N3/c14-10-7-4-8-11-12(10)16-13(15-11)9-5-2-1-3-6-9/h1-8H,14H2,(H,15,16)
Instrument: TripleTOF 5600 SCIEX
Instrument type: LC-ESI-QTOF
Ms type: MS2
Ion mode: POSITIVE
Collision energy: 150
Fragmentation mode: CID
Ionization: ESI
Column name: Zorbax Eclipse Plus C18 2.1 mm x 150 mm, 3.5 um, Agilent
Retention time: 5.276 min
Precursor m/z: 210.1026
Precursor type: [M+H]+
m/z	relative intensity
52.0285	999
74.0214	768
75.0274	192
85.0097	307
86.0171	384
