Mass spectrum: Aminophenazone; LC-ESI-QTOF; MS2; 100 V
Name: Aminophenazone
Class: Pharmaceutical; Transformation_product-Metabolite
Formula: C13H17N3O
Exact mass: 231.1372
SMILES: CC1=C(C(=O)N(N1C)C2=CC=CC=C2)N(C)C
InChI: InChI=1S/C13H17N3O/c1-10-12(14(2)3)13(17)16(15(10)4)11-8-6-5-7-9-11/h5-9H,1-4H3
Instrument: TripleTOF 5600 SCIEX
Instrument type: LC-ESI-QTOF
Ms type: MS2
Ion mode: POSITIVE
Collision energy: 100
Fragmentation mode: CID
Ionization: ESI
Column name: Zorbax Eclipse Plus C18 2.1 mm x 150 mm, 3.5 um, Agilent
Retention time: 4.71 min
Precursor m/z: 232.1444
Precursor type: [M+H]+
m/z	relative intensity
42.048	270
43.0557	25
44.0599	19
54.0434	61
55.0483	38
55.0574	19
56.0585	999
57.065	25
58.0737	235
68.0564	45
70.0711	119
72.0851	29
77.0445	277
81.0495	67
82.0575	19
83.0659	109
89.0435	32
97.0799	406
104.056	16
