Mass spectrum: 3,3-Diphenylacrylonitrile; LC-ESI-QTOF; MS2; 120 V
Name: 3,3-Diphenylacrylonitrile
Formula: C15H11N
Exact mass: 205.0891
SMILES: C1=CC=C(C=C1)C(=CC#N)C2=CC=CC=C2
InChI: InChI=1S/C15H11N/c16-12-11-15(13-7-3-1-4-8-13)14-9-5-2-6-10-14/h1-11H
Instrument: TripleTOF 6600 SCIEX
Instrument type: LC-ESI-QTOF
Ms type: MS2
Ion mode: POSITIVE
Collision energy: 120
Fragmentation mode: CID
Ionization: ESI
Column name: Zorbax Eclipse Plus C18 2.1 mm x 150 mm, 3.5 um, Agilent
Retention time: 13.746 min
Precursor m/z: 206.0964
Precursor type: [M+H]+
m/z	relative intensity
49.006	142
50.0139	999
51.022	805
62.0136	61
63.0208	71
73.0061	81
74.0142	744
75.0221	122
77.037	50
86.0137	91
87.0227	81
98.0132	132
99.0195	50
110.0136	81
122.0128	71
150.0416	50
174.0494	81
