Mass spectrum: Estradiol; LC-ESI-QTOF; MS2; 70 V
Name: Estradiol
Class: Pharmaceutical
Formula: C18H24O2
Exact mass: 272.1776
SMILES: CC12CCC3C(C1CCC2O)CCC4=C3C=CC(=C4)O
InChI: InChI=1S/C18H24O2/c1-18-9-8-14-13-5-3-12(19)10-11(13)2-4-15(14)16(18)6-7-17(18)20/h3,5,10,14-17,19-20H,2,4,6-9H2,1H3
Instrument: TripleTOF 5600 SCIEX
Instrument type: LC-ESI-QTOF
Ms type: MS2
Ion mode: POSITIVE
Collision energy: 70
Fragmentation mode: CID
Ionization: ESI
Column name: Zorbax Eclipse Plus C18 2.1 mm x 150 mm, 3.5 um, Agilent
Retention time: 10.403 min
Precursor m/z: 273.1849
Precursor type: [M+H]+
m/z	relative intensity
39.0227	12
41.0383	15
50.0146	12
51.0223	40
53.0384	13
55.0175	32
55.0541	34
65.0382	34
67.0541	113
77.0386	999
78.0462	10
79.0541	309
81.0332	10
81.0695	72
89.0381	12
91.054	214
93.0699	67
95.0846	30
103.0546	71
105.0698	105
107.0492	966
107.0861	10
109.1019	26
115.0539	123
116.0626	47
117.0676	14
119.0846	11
127.0541	48
128.0614	39
129.0703	21
131.0492	39
132.056	13
133.0645	21
141.0694	22
144.0568	59
145.0631	15
152.0617	11
157.0658	26
