Mass spectrum: Thiamine Disulfide; LC-ESI-QTOF; MS2; 40 V
Name: Thiamine Disulfide
Class: Pharmaceutical
Formula: C24H34N8O4S2
Exact mass: 562.2144
SMILES: CC1=NC=C(C(=N1)N)CN(C=O)C(=C(CCO)SSC(=C(C)N(CC2=CN=C(N=C2N)C)C=O)CCO)C
InChI: InChI=1S/C24H34N8O4S2/c1-15(31(13-35)11-19-9-27-17(3)29-23(19)25)21(5-7-33)37-38-22(6-8-34)16(2)32(14-36)12-20-10-28-18(4)30-24(20)26/h9-10,13-14,33-34H,5-8,11-12H2,1-4H3,(H2,25,27,29)(H2,26,28,30)
Instrument: TripleTOF 6600 SCIEX
Instrument type: LC-ESI-QTOF
Ms type: MS2
Ion mode: POSITIVE
Collision energy: 40
Fragmentation mode: CID
Ionization: ESI
Column name: Zorbax Eclipse Plus C18 2.1 mm x 150 mm, 3.5 um, Agilent
Retention time: 4.48 min
Precursor m/z: 563.2217
Precursor type: [M+H]+
m/z	relative intensity
110.0706	498
122.0702	92
123.0785	659
124.0864	999
137.0816	16
139.0964	20
144.0469	30
149.0811	30
167.0923	42
204.1128	19
219.0694	17
221.1398	132
223.1005	21
231.125	12
233.085	33
234.0929	13
247.1017	14
249.1355	84
251.096	13
253.1121	146
254.1198	38
263.0969	282
264.1045	235
265.1124	112
281.1073	102
282.1156	34
283.1233	147
442.1618	50
545.2146	61
563.225	130
