Mass spectrum: 2,3,4-Trihydroxybenzophenone; LC-ESI-QTOF; MS2; 40 V
Name: 2,3,4-Trihydroxybenzophenone
Class: Industrial_process
Formula: C13H10O4
Exact mass: 230.0579
SMILES: Oc1ccc(c(O)c1O)C(=O)c2ccccc2
InChI: InChI=1S/C13H10O4/c14-10-7-6-9(12(16)13(10)17)11(15)8-4-2-1-3-5-8/h1-7,14,16-17H
Instrument: TripleTOF 5600 SCIEX
Instrument type: LC-ESI-QTOF
Ms type: MS2
Ion mode: NEGATIVE
Collision energy: 40
Fragmentation mode: CID
Ionization: ESI
Column name: Zorbax Eclipse Plus C18 2.1 mm x 150 mm, 3.5 um, Agilent
Retention time: 9.396 min
Precursor m/z: 229.0506
Precursor type: [M-H]-
m/z	relative intensity
51.0259	122
67.0204	122
79.0177	101
95.014	203
101.0391	122
107.0139	550
123.0085	999
124.0168	530
124.0378	61
127.055	163
129.0704	101
141.0709	265
143.0468	81
145.0637	81
151.0039	570
155.0516	224
157.0637	61
171.0537	61
185.0606	122
199.0415	61
229.0464	203
