Mass spectrum: Linezolid; LC-ESI-QTOF; MS2; 150 V
Name: Linezolid
Class: Pharmaceutical
Formula: C16H20FN3O4
Exact mass: 337.1438
SMILES: CC(=O)NCC1CN(C(=O)O1)C2=CC(=C(C=C2)N3CCOCC3)F
InChI: InChI=1S/C16H20FN3O4/c1-11(21)18-9-13-10-20(16(22)24-13)12-2-3-15(14(17)8-12)19-4-6-23-7-5-19/h2-3,8,13H,4-7,9-10H2,1H3,(H,18,21)
Instrument: TripleTOF 5600 SCIEX
Instrument type: LC-ESI-QTOF
Ms type: MS2
Ion mode: POSITIVE
Collision energy: 150
Fragmentation mode: CID
Ionization: ESI
Column name: Zorbax Eclipse Plus C18 2.1 mm x 150 mm, 3.5 um, Agilent
Retention time: 6.936 min
Precursor m/z: 338.1511
Precursor type: [M+H]+
m/z	relative intensity
39.0239	58
43.0184	87
50.0156	155
51.0231	300
56.0497	155
57.0144	320
61.0079	87
62.0152	155
63.0238	349
65.0387	38
70.0223	58
73.0082	77
74.0161	611
75.0238	999
76.0185	116
77.0387	223
78.0341	106
81.0145	339
82.0205	126
83.0307	339
84.0371	48
87.0253	67
88.0256	77
89.0396	349
90.0462	58
91.0525	58
94.0224	67
95.03	300
96.0349	96
99.025	58
100.0199	58
101.0386	184
102.0359	58
107.0295	824
108.0379	203
109.0459	184
114.0358	77
115.0451	67
120.0386	58
122.0406	48
128.0515	48
133.0487	58
135.0492	48
140.0518	38
146.0406	48
148.0585	67
