Mass spectrum: Propranolol; LC-ESI-QTOF; MS2; 80 V
Name: Propranolol
Class: Pharmaceutical
Formula: C16H21NO2
Exact mass: 259.1572
SMILES: CC(C)NCC(O)COc1cccc2ccccc12
InChI: InChI=1S/C16H21NO2/c1-12(2)17-10-14(18)11-19-16-9-5-7-13-6-3-4-8-15(13)16/h3-9,12,14,17-18H,10-11H2,1-2H3
Instrument: TripleTOF 5600 SCIEX
Instrument type: LC-ESI-QTOF
Ms type: MS2
Ion mode: POSITIVE
Collision energy: 80
Fragmentation mode: CID
Ionization: ESI
Column name: Zorbax Eclipse Plus C18 2.1 mm x 150 mm, 3.5 um, Agilent
Retention time: 7.356 min
Precursor m/z: 260.1645
Precursor type: [M+H]+
m/z	relative intensity
44.0585	13
56.0552	195
58.0701	160
65.0435	27
72.0842	40
74.0194	12
74.0632	42
75.0265	60
77.0424	461
78.0489	30
84.0844	15
87.0274	11
89.0408	79
91.0569	74
100.1129	16
101.0399	101
102.0481	95
115.0554	589
116.0639	20
117.0695	12
125.0386	17
126.0473	229
127.0554	972
128.0633	999
129.0498	16
129.0704	41
139.0549	141
140.0641	16
150.0478	15
151.0539	58
152.0631	287
152.0878	11
153.0706	134
154.0806	13
155.0596	40
163.0556	58
164.0639	57
165.0711	70
168.0585	11
