Mass spectrum: N,N`-diphenyl-p-phenylenediamine; LC-ESI-QTOF; MS2; 120 V
Name: N,N`-diphenyl-p-phenylenediamine
Class: Industrial_process
Formula: C18H16N2
Exact mass: 260.1313
SMILES: N(c1ccccc1)c2ccc(Nc3ccccc3)cc2
InChI: InChI=1S/C18H16N2/c1-3-7-15(8-4-1)19-17-11-13-18(14-12-17)20-16-9-5-2-6-10-16/h1-14,19-20H
Instrument: TripleTOF 5600 SCIEX
Instrument type: LC-ESI-QTOF
Ms type: MS2
Ion mode: POSITIVE
Collision energy: 120
Fragmentation mode: CID
Ionization: ESI
Column name: Zorbax Eclipse Plus C18 2.1 mm x 150 mm, 3.5 um, Agilent
Retention time: 14.544 min
Precursor m/z: 261.1386
Precursor type: [M+H]+
m/z	relative intensity
52.0218	17
52.0326	55
53.0449	455
54.0403	34
64.0344	45
65.026	13
65.0424	205
66.0502	59
67.0447	13
74.017	97
75.0256	187
76.0308	41
77.0418	462
78.0442	205
79.042	24
79.0527	17
80.0527	999
86.0162	38
87.0239	118
88.0298	38
89.0242	20
89.0402	344
90.0332	45
90.0437	114
91.0438	27
91.0533	24
92.0514	20
93.0577	31
98.0156	31
99.0217	17
101.0397	87
102.0462	125
103.0506	59
104.0528	17
105.0452	31
107.0601	62
113.0378	240
114.0344	24
114.0438	80
115.0367	17
115.0544	160
116.0566	52
126.047	76
127.0545	236
127.0782	17
128.0589	295
129.065	83
130.0646	27
137.0388	48
138.0437	48
139.0535	365
140.0514	274
141.0518	48
153.0585	48
154.0648	93
155.0658	24
164.0487	38
165.0561	31
166.0637	97
167.0701	52
181.078	48
