Mass spectrum: Amethopterin; LC-ESI-QTOF; MS2; 80 V
Name: Amethopterin
Class: Pharmaceutical
Formula: C20H22N8O5
Exact mass: 454.1713
SMILES: CN(Cc1cnc2nc(N)nc(N)c2n1)c3ccc(cc3)C(=O)NC(CCC(O)=O)C(O)=O
InChI: InChI=1S/C20H22N8O5/c1-28(9-11-8-23-17-15(24-11)16(21)26-20(22)27-17)12-4-2-10(3-5-12)18(31)25-13(19(32)33)6-7-14(29)30/h2-5,8,13H,6-7,9H2,1H3,(H,25,31)(H,29,30)(H,32,33)(H4,21,22,23,26,27)
Instrument: TripleTOF 5600 SCIEX
Instrument type: LC-ESI-QTOF
Ms type: MS2
Ion mode: POSITIVE
Collision energy: 80
Fragmentation mode: CID
Ionization: ESI
Column name: Zorbax Eclipse Plus C18 2.1 mm x 150 mm, 3.5 um, Agilent
Retention time: 5.057 min
Precursor m/z: 455.1786
Precursor type: [M+H]+
m/z	relative intensity
77.0385	44
79.0288	40
79.0533	97
80.0244	18
80.0375	15
94.0407	12
106.0396	204
106.0649	135
107.0366	18
107.0496	31
108.0553	44
118.041	15
121.0513	163
131.0338	15
132.0432	15
133.0509	664
134.0596	516
135.0613	59
146.0474	12
148.0624	223
149.07	31
150.0757	44
158.0467	28
159.0542	63
160.0614	91
175.0729	999
176.0807	258
177.0905	25
