Mass spectrum: Metazachlor; LC-ESI-QTOF; MS2; 50 V
Name: Metazachlor
Class: Herbicide
Formula: C14H16ClN3O
Exact mass: 277.0982
SMILES: Cc1cccc(C)c1N(Cn2cccn2)C(=O)CCl
InChI: InChI=1S/C14H16ClN3O/c1-11-5-3-6-12(2)14(11)18(13(19)9-15)10-17-8-4-7-16-17/h3-8H,9-10H2,1-2H3
Instrument: TripleTOF 5600 SCIEX
Instrument type: LC-ESI-QTOF
Ms type: MS2
Ion mode: POSITIVE
Collision energy: 50
Fragmentation mode: CID
Ionization: ESI
Column name: Zorbax Eclipse Plus C18 2.1 mm x 150 mm, 3.5 um, Agilent
Retention time: 11.114 min
Precursor m/z: 278.1055
Precursor type: [M+H]+
m/z	relative intensity
76.9817	15
77.0416	25
79.0565	45
91.0551	13
103.0546	60
105.0696	449
106.0769	14
107.0848	16
117.0569	10
119.0723	15
132.0804	21
134.0961	999
