Mass spectrum: N-[2-[(2-Bromo-4,6-dinitrophenyl)azo]-5-(diethylamino)phenyl]acetamide; LC-ESI-QTOF; MS2; 140 V
Name: N-[2-[(2-Bromo-4,6-dinitrophenyl)azo]-5-(diethylamino)phenyl]acetamide
Formula: C18H19BrN6O5
Exact mass: 478.06
SMILES: CCN(CC)C1=CC(=C(C=C1)N=NC2=C(C=C(C=C2Br)[N+](=O)[O-])[N+](=O)[O-])NC(=O)C
InChI: InChI=1S/C18H19BrN6O5/c1-4-23(5-2)12-6-7-15(16(9-12)20-11(3)26)21-22-18-14(19)8-13(24(27)28)10-17(18)25(29)30/h6-10H,4-5H2,1-3H3,(H,20,26)
Instrument: TripleTOF 6600 SCIEX
Instrument type: LC-ESI-QTOF
Ms type: MS2
Ion mode: POSITIVE
Collision energy: 140
Fragmentation mode: CID
Ionization: ESI
Column name: Zorbax Eclipse Plus C18 2.1 mm x 150 mm, 3.5 um, Agilent
Retention time: 16.579 min
Precursor m/z: 479.0673
Precursor type: [M+H]+
m/z	relative intensity
39.0224	41
42.0333	36
43.0172	178
50.0145	22
51.0218	68
52.0172	27
52.0303	109
53.0365	96
54.0326	22
62.0153	36
63.0223	82
64.0274	22
65.0376	412
66.0322	27
66.0455	119
67.0418	32
68.0496	18
74.0127	22
75.021	22
76.017	18
77.0378	389
78.0331	197
79.0276	91
79.0417	132
79.054	36
80.0488	646
81.0548	36
82.0629	18
87.023	22
88.0175	22
88.0297	22
89.0365	109
90.0331	132
91.0404	174
92.0483	435
93.056	999
94.0647	155
95.0595	32
99.0207	27
102.0349	41
104.0482	109
105.0435	256
106.053	87
106.0652	128
107.0374	54
107.0585	77
107.0673	36
109.0767	22
113.0386	73
114.036	50
115.0459	41
116.0481	32
117.0459	137
118.0515	132
118.0633	22
119.0587	311
120.0616	50
121.075	119
125.0371	36
126.0416	36
127.0438	45
131.0597	54
132.0551	50
132.0666	22
133.0464	22
133.063	164
134.067	41
134.0845	22
137.037	45
138.0305	18
138.0432	73
139.0519	348
140.0465	197
142.0559	22
146.0688	164
147.0545	87
147.0738	22
148.062	27
150.0377	22
151.0437	64
152.0506	100
153.0414	22
164.0485	187
165.0556	137
166.0592	77
167.063	36
168.0553	32
177.0464	22
178.0575	45
179.055	36
179.064	22
180.0515	27
191.0595	32
192.0613	22
193.0636	41
194.064	27
204.0545	27
205.0747	22
221.0836	41
