Mass spectrum: Chloroxuron; LC-ESI-QTOF; MS2; 120 V
Name: Chloroxuron
Class: Herbicide
Formula: C15H15ClN2O2
Exact mass: 290.0822
SMILES: CN(C)C(=O)Nc1ccc(Oc2ccc(Cl)cc2)cc1
InChI: InChI=1S/C15H15ClN2O2/c1-18(2)15(19)17-12-5-9-14(10-6-12)20-13-7-3-11(16)4-8-13/h3-10H,1-2H3,(H,17,19)
Instrument: TripleTOF 5600 SCIEX
Instrument type: LC-ESI-QTOF
Ms type: MS2
Ion mode: POSITIVE
Collision energy: 120
Fragmentation mode: CID
Ionization: ESI
Column name: Zorbax Eclipse Plus C18 2.1 mm x 150 mm, 3.5 um, Agilent
Retention time: 12.103 min
Precursor m/z: 291.0895
Precursor type: [M+H]+
m/z	relative intensity
44.0652	14
51.029	17
56.0183	157
56.0372	12
72.0484	999
72.9876	27
73.0099	27
74.019	494
75.026	342
76.0342	27
77.0409	54
78.0483	17
80.0515	27
84.9866	54
87.0252	14
88.0311	17
89.0405	27
101.04	14
102.0479	44
110.9993	9
113.0405	24
114.0502	17
126.0473	14
127.0529	27
128.0616	29
139.0544	72
