Mass spectrum: Aminophenazone; LC-ESI-QTOF; MS2; 60 V
Name: Aminophenazone
Class: Pharmaceutical
Formula: C13H17N3O
Exact mass: 231.1372
SMILES: CC1=C(C(=O)N(N1C)C2=CC=CC=C2)N(C)C
InChI: InChI=1S/C13H17N3O/c1-10-12(14(2)3)13(17)16(15(10)4)11-8-6-5-7-9-11/h5-9H,1-4H3
Instrument: TripleTOF 5600 SCIEX
Instrument type: LC-ESI-QTOF
Ms type: MS2
Ion mode: POSITIVE
Collision energy: 60
Fragmentation mode: CID
Ionization: ESI
Column name: Zorbax Eclipse Plus C18 2.1 mm x 150 mm, 3.5 um, Agilent
Retention time: 4.71 min
Precursor m/z: 232.1444
Precursor type: [M+H]+
m/z	relative intensity
42.0465	110
43.0558	11
44.0617	19
55.0506	20
56.059	648
57.0643	27
58.0744	448
67.0488	10
68.0562	15
70.072	185
72.0867	114
77.0442	181
79.0595	31
81.049	11
82.0695	20
83.0669	74
84.085	24
91.0605	14
95.0643	10
96.0719	10
97.0805	999
98.0875	44
104.0544	16
106.0688	97
111.0939	48
117.0602	14
118.0659	12
123.0578	23
130.067	11
132.0819	12
