Mass spectrum: Abacavir carboxylic acid; LC-ESI-QTOF; MS2; 40 V
Name: Abacavir carboxylic acid
Class: Pharmaceutical; Metabolite; Transformation_product
Formula: C14H16N6O2
Exact mass: 300.1335
SMILES: C1CC1NC2=NC(=NC3=C2N=CN3C4CC(C=C4)C(=O)O)N
InChI: InChI=1S/C14H16N6O2/c15-14-18-11(17-8-2-3-8)10-12(19-14)20(6-16-10)9-4-1-7(5-9)13(21)22/h1,4,6-9H,2-3,5H2,(H,21,22)(H3,15,17,18,19)
Instrument: TripleTOF 5600 SCIEX
Instrument type: LC-ESI-QTOF
Ms type: MS2
Ion mode: POSITIVE
Collision energy: 40
Fragmentation mode: CID
Ionization: ESI
Column name: Zorbax Eclipse Plus C18 2.1 mm x 150 mm, 3.5 um, Agilent
Retention time: 5.194 min
Precursor m/z: 301.1408
Precursor type: [M+H]+
m/z	relative intensity
58.0699	30
65.0423	20
67.0584	78
83.051	33
93.0344	22
109.051	60
111.0439	27
119.035	10
122.0707	10
134.0461	111
136.0609	15
147.0662	17
149.0814	49
150.0653	404
163.0726	20
164.093	53
174.0775	268
175.0716	12
191.1038	999
