Mass spectrum: 2-Amino-5-methyl-1,3,4-thiadiazole; LC-ESI-QTOF; MS2; 110 V
Name: 2-Amino-5-methyl-1,3,4-thiadiazole
Class: Industrial_process
Formula: C3H5N3S
Exact mass: 115.0204
SMILES: CC1=NN=C(S1)N
InChI: InChI=1S/C3H5N3S/c1-2-5-6-3(4)7-2/h1H3,(H2,4,6)
Instrument: TripleTOF 6600 SCIEX
Instrument type: LC-ESI-QTOF
Ms type: MS2
Ion mode: POSITIVE
Collision energy: 110
Fragmentation mode: CID
Ionization: ESI
Column name: Zorbax Eclipse Plus C18 2.1 mm x 150 mm, 3.5 um, Agilent
Retention time: 2.467 min
Precursor m/z: 116.0277
Precursor type: [M+H]+
m/z	relative intensity
31.9706	454
32.9785	68
41.0128	63
42.0202	348
42.0322	21
43.0283	999
43.9706	187
44.9782	93
45.9735	556
46.9812	106
47.9895	38
56.9783	25
57.9862	68
58.9812	34
58.994	25
59.9888	178
