Mass spectrum: Propamocarb; LC-ESI-QTOF; MS2; 100 V
Name: Propamocarb
Class: Fungicide
Formula: C9H20N2O2
Exact mass: 188.1525
SMILES: CCCOC(=O)NCCCN(C)C
InChI: InChI=1S/C9H20N2O2/c1-4-8-13-9(12)10-6-5-7-11(2)3/h4-8H2,1-3H3,(H,10,12)
Instrument: TripleTOF 6600 SCIEX
Instrument type: LC-ESI-QTOF
Ms type: MS2
Ion mode: POSITIVE
Collision energy: 100
Fragmentation mode: CID
Ionization: ESI
Column name: Zorbax Eclipse Plus C18 2.1 mm x 150 mm, 3.5 um, Agilent
Retention time: 4.882 min
Precursor m/z: 189.1598
Precursor type: [M+H]+
m/z	relative intensity
30.0344	165
35.9996	39
37.0078	220
38.0029	70
38.0161	173
39.0232	660
41.0394	125
42.0341	999
43.0417	180
44.0486	125
44.9982	228
58.066	55
