Mass spectrum: Doxycycline; LC-ESI-QTOF; MS2; 150 V
Name: Doxycycline
Class: Antimicrobial; Pharmaceutical
Formula: C22H24N2O8
Exact mass: 444.1533
SMILES: CC1C2C(C3C(C(=O)C(=C(C3(C(=O)C2=C(C4=C1C=CC=C4O)O)O)O)C(=O)N)N(C)C)O
InChI: InChI=1S/C22H24N2O8/c1-7-8-5-4-6-9(25)11(8)16(26)12-10(7)17(27)14-15(24(2)3)18(28)13(21(23)31)20(30)22(14,32)19(12)29/h4-7,10,14-15,17,25-27,30,32H,1-3H3,(H2,23,31)
Instrument: TripleTOF 5600 SCIEX
Instrument type: LC-ESI-QTOF
Ms type: MS2
Ion mode: POSITIVE
Collision energy: 150
Fragmentation mode: CID
Ionization: ESI
Column name: Zorbax Eclipse Plus C18 2.1 mm x 150 mm, 3.5 um, Agilent
Retention time: 6.499 min
Precursor m/z: 445.1605
Precursor type: [M+H]+
m/z	relative intensity
77.0442	322
89.0428	169
91.0579	230
102.0494	107
113.0418	122
115.0568	829
126.0503	230
127.0545	307
128.0642	368
131.0509	76
139.0558	999
140.0617	61
141.0717	61
150.0446	322
151.0555	307
152.0633	522
153.0679	61
163.0553	353
164.061	169
165.0706	307
168.0612	76
169.065	61
176.0615	199
178.0768	61
189.0666	107
