Mass spectrum: Prosulfuron; LC-ESI-QTOF; MS2; 150 V
Name: Prosulfuron
Class: Herbicide
Formula: C15H16F3N5O4S
Exact mass: 419.0875
SMILES: CC1=NC(=NC(=N1)OC)NC(=O)NS(=O)(=O)C2=CC=CC=C2CCC(F)(F)F
InChI: InChI=1S/C15H16F3N5O4S/c1-9-19-12(22-14(20-9)27-2)21-13(24)23-28(25,26)11-6-4-3-5-10(11)7-8-15(16,17)18/h3-6H,7-8H2,1-2H3,(H2,19,20,21,22,23,24)
Instrument: TripleTOF 6600 SCIEX
Instrument type: LC-ESI-QTOF
Ms type: MS2
Ion mode: POSITIVE
Collision energy: 150
Fragmentation mode: CID
Ionization: ESI
Column name: Zorbax Eclipse Plus C18 2.1 mm x 150 mm, 3.5 um, Agilent
Retention time: 11.847 min
Precursor m/z: 420.0948
Precursor type: [M+H]+
m/z	relative intensity
30.0319	31
30.996	44
33.0107	53
37.0048	35
39.0213	107
41.0112	98
42.0315	582
43.027	976
44.011	49
50.0131	22
51.0206	53
56.0481	125
57.011	586
57.0421	197
58.0269	156
59.0263	76
61.0046	49
62.0127	129
63.0207	318
67.0268	22
68.0221	371
69.0054	515
77.036	49
78.0431	22
81.0107	62
83.0262	999
89.0358	107
107.0291	31
109.0419	134
133.0416	35
