Mass spectrum: Phenothiazine; LC-ESI-QTOF; MS2; 120 V
Name: Phenothiazine
Class: Pharmaceutical
Formula: C12H9NS
Exact mass: 199.0456
SMILES: C1=CC=C2C(=C1)NC3=CC=CC=C3S2
InChI: InChI=1S/C12H9NS/c1-3-7-11-9(5-1)13-10-6-2-4-8-12(10)14-11/h1-8,13H
Instrument: TripleTOF 6600 SCIEX
Instrument type: LC-ESI-QTOF
Ms type: MS2
Ion mode: POSITIVE
Collision energy: 120
Fragmentation mode: CID
Ionization: ESI
Column name: Zorbax Eclipse Plus C18 2.1 mm x 150 mm, 3.5 um, Agilent
Retention time: 13.113 min
Precursor m/z: 200.0529
Precursor type: [M+H]+
m/z	relative intensity
35.9986	29
37.0061	196
38.0142	124
39.0222	255
44.9782	214
49.0061	202
50.0141	999
51.0218	915
52.0163	41
52.0285	41
57.9863	29
59.998	47
61.006	535
62.0138	773
63.0215	981
64.0172	47
64.0262	35
65.0368	65
67.9705	112
68.978	969
69.9837	41
73.0056	71
74.0136	683
75.0214	315
76.0155	41
76.0285	65
77.0367	148
80.9771	47
81.9861	59
83.9963	35
85.005	190
86.0129	428
87.0208	315
88.0167	47
88.0291	53
89.0367	249
91.9694	29
92.9779	83
94.9929	35
97.0056	35
98.0132	184
99.0196	29
101.0369	29
102.0441	29
109.0045	35
110.012	71
111.0204	53
113.0371	160
114.033	41
115.0519	23
126.0441	65
127.0462	35
137.037	47
138.0425	59
139.0512	89
140.0479	53
164.0486	29
