Mass spectrum: Econazole; LC-ESI-QTOF; MS2; 130 V
Name: Econazole
Class: Pharmaceutical; Fungicide
Formula: C18H15Cl3N2O
Exact mass: 380.025
SMILES: Clc1ccc(COC(Cn2ccnc2)c3ccc(Cl)cc3Cl)cc1
InChI: InChI=1S/C18H15Cl3N2O/c19-14-3-1-13(2-4-14)11-24-18(10-23-8-7-22-12-23)16-6-5-15(20)9-17(16)21/h1-9,12,18H,10-11H2
Instrument: TripleTOF 5600 SCIEX
Instrument type: LC-ESI-QTOF
Ms type: MS2
Ion mode: POSITIVE
Collision energy: 130
Fragmentation mode: CID
Ionization: ESI
Column name: Zorbax Eclipse Plus C18 2.1 mm x 150 mm, 3.5 um, Agilent
Retention time: 10.056 min
Precursor m/z: 381.0323
Precursor type: [M+H]+
m/z	relative intensity
48.9892	19
64.0344	28
65.0419	36
69.0479	26
72.9875	322
75.0023	33
75.0263	20
81.0471	48
89.041	999
90.0482	277
96.9854	17
99.0008	491
101.0385	12
102.0466	15
125.0151	337
