Mass spectrum: 2-Hydroxybenzothiazole; LC-ESI-QTOF; MS2; 100 V
Name: 2-Hydroxybenzothiazole
Class: Industrial_process
Formula: C7H5NOS
Exact mass: 151.0092
SMILES: C1=CC=C2C(=C1)NC(=O)S2
InChI: InChI=1S/C7H5NOS/c9-7-8-5-3-1-2-4-6(5)10-7/h1-4H,(H,8,9)
Instrument: TripleTOF 5600 SCIEX
Instrument type: LC-ESI-QTOF
Ms type: MS2
Ion mode: POSITIVE
Collision energy: 100
Fragmentation mode: CID
Ionization: ESI
Column name: Zorbax Eclipse Plus C18 2.1 mm x 150 mm, 3.5 um, Agilent
Retention time: 7.776 min
Precursor m/z: 152.0165
Precursor type: [M+H]+
m/z	relative intensity
39.0233	43
53.0379	105
64.032	105
65.0384	666
68.979	105
80.0498	999
90.0343	289
91.0414	394
92.0489	122
97.0101	131
106.9949	43
108.0022	43
109.0102	289
119.0366	341
124.0205	157
134.005	70
152.0158	96
