Mass spectrum: Tiamulin; LC-ESI-QTOF; MS2; 80 V
Name: Tiamulin
Class: Antimicrobial; Pharmaceutical
Formula: C28H47NO4S
Exact mass: 493.3226
SMILES: CCN(CC)CCSCC(=O)OC1CC(C(C(C23CCC(C1(C2C(=O)CC3)C)C)C)O)(C)C=C
InChI: InChI=1S/C28H47NO4S/c1-8-26(6)17-22(33-23(31)18-34-16-15-29(9-2)10-3)27(7)19(4)11-13-28(20(5)25(26)32)14-12-21(30)24(27)28/h8,19-20,22,24-25,32H,1,9-18H2,2-7H3
Instrument: TripleTOF 6600 SCIEX
Instrument type: LC-ESI-QTOF
Ms type: MS2
Ion mode: POSITIVE
Collision energy: 80
Fragmentation mode: CID
Ionization: ESI
Column name: Zorbax Eclipse Plus C18 2.1 mm x 150 mm, 3.5 um, Agilent
Retention time: 8.661 min
Precursor m/z: 494.3299
Precursor type: [M+H]+
m/z	relative intensity
39.0232	28
41.0382	61
43.0177	114
43.0539	12
44.979	136
45.0332	28
46.9943	39
53.0374	17
55.0174	19
55.054	109
61.0093	12
65.0377	28
67.0537	162
69.0331	12
69.0688	62
71.0483	15
72.0799	24
73.0102	999
74.0958	172
77.0377	134
79.0536	304
81.0691	292
83.0483	30
83.084	11
90.9833	12
91.0222	27
91.0535	344
93.0689	318
95.0479	20
95.0847	170
97.0621	28
99.043	11
100.1111	66
101.0046	92
103.0528	31
104.0628	10
105.069	454
107.0497	10
107.0847	240
109.0634	59
109.1001	59
111.0792	24
115.0534	42
116.0616	17
117.0692	120
119.0154	791
119.0448	14
119.0659	53
119.0848	115
121.0634	44
121.1003	193
123.0793	43
125.0954	12
128.0604	79
129.0686	112
130.0766	48
131.0843	182
132.092	11
133.063	23
133.1003	263
135.0796	50
135.1148	34
137.0953	15
141.0686	55
142.0765	85
143.0837	114
144.0924	44
145.0994	176
147.0794	35
147.1153	74
149.095	120
149.1322	11
153.0701	29
154.0776	22
155.0844	69
156.0918	67
157.1002	90
158.1074	31
159.0804	16
159.1163	101
161.094	38
161.1327	36
163.1108	96
167.0846	41
168.0916	26
169.0996	57
170.1068	29
171.1159	48
173.0966	16
173.1309	39
175.1097	30
175.1476	15
177.1283	23
181.1006	34
182.1074	24
183.1158	45
185.1308	24
187.1462	18
192.1028	18
195.1185	19
196.1245	16
197.1317	26
199.1487	11
211.1481	11
