Mass spectrum: Iotalamic acid; LC-ESI-QTOF; MS2; 90 V
Name: Iotalamic acid
Class: Pharmaceutical
Formula: C11H9I3N2O4
Exact mass: 613.7697
SMILES: CNC(c1c(I)c(C(O)=O)c(I)c(NC(C)=O)c1I)=O
InChI: InChI=1S/C11H9I3N2O4/c1-3(17)16-9-7(13)4(10(18)15-2)6(12)5(8(9)14)11(19)20/h1-2H3,(H,15,18)(H,16,17)(H,19,20)
Instrument: TripleTOF 5600 SCIEX
Instrument type: LC-ESI-QTOF
Ms type: MS2
Ion mode: POSITIVE
Collision energy: 90
Fragmentation mode: CID
Ionization: ESI
Column name: Zorbax Eclipse Plus C18 2.1 mm x 150 mm, 3.5 um, Agilent
Retention time: 4.565 min
Precursor m/z: 614.7769
Precursor type: [M+H]+
m/z	relative intensity
78.0361	42
90.0365	53
91.0424	74
102.0332	85
105.0203	63
106.029	42
107.0355	63
118.0518	116
119.0353	53
130.0287	138
131.0359	180
132.0432	95
133.0522	127
135.0322	127
146.0249	53
146.0443	85
147.0306	74
158.0237	244
159.0556	53
176.0353	63
177.041	999
187.0485	95
191.0492	42
203.9293	116
204.9368	95
231.9246	53
232.9347	148
233.9445	85
244.9513	74
245.9362	85
256.9224	53
257.9416	201
272.9302	74
273.9355	191
284.9308	170
301.9297	223
381.8171	42
383.8364	42
387.835	74
