Mass spectrum: Sunitinib; LC-ESI-QTOF; MS2; 70 V
Name: Sunitinib
Class: Pharmaceutical
Formula: C22H27FN4O2
Exact mass: 398.2118
SMILES: CCN(CC)CCNC(=O)C1=C(NC(=C1C)C=C2C3=C(C=CC(=C3)F)NC2=O)C
InChI: InChI=1S/C22H27FN4O2/c1-5-27(6-2)10-9-24-22(29)20-13(3)19(25-14(20)4)12-17-16-11-15(23)7-8-18(16)26-21(17)28/h7-8,11-12,25H,5-6,9-10H2,1-4H3,(H,24,29)(H,26,28)
Instrument: TripleTOF 5600 SCIEX
Instrument type: LC-ESI-QTOF
Ms type: MS2
Ion mode: POSITIVE
Collision energy: 70
Fragmentation mode: CID
Ionization: ESI
Column name: Zorbax Eclipse Plus C18 2.1 mm x 150 mm, 3.5 um, Agilent
Retention time: 6.516 min
Precursor m/z: 399.2191
Precursor type: [M+H]+
m/z	relative intensity
65.0426	13
92.0502	19
94.0657	11
100.1126	22
108.0438	21
116.0486	10
118.0629	11
119.0605	22
120.0428	13
122.039	21
133.0447	33
134.0404	22
134.0599	16
135.047	21
136.0566	18
140.0482	11
144.046	14
145.0443	13
146.0393	98
147.0497	11
148.0564	95
150.0352	122
151.0533	22
152.0627	11
153.0687	11
157.0444	17
158.0396	12
159.0599	48
160.0548	38
161.0664	14
162.0347	14
163.0498	15
164.0539	17
165.07	23
166.0642	35
167.0743	11
169.0445	115
170.0379	11
170.0524	45
171.0357	180
172.0559	94
173.0549	25
174.0348	33
174.0724	11
175.0534	11
176.0508	48
177.0599	22
180.0812	36
182.0512	19
183.0613	314
184.0561	142
185.0644	490
186.0719	247
187.0688	27
188.0507	22
189.0465	330
190.0655	151
191.0745	26
192.0673	29
193.0439	23
194.0482	18
195.0477	104
196.0569	425
197.0612	60
198.0723	125
199.0787	41
200.0522	22
200.0869	251
201.0587	28
201.0828	10
202.0664	33
206.0841	15
207.0936	47
208.0562	102
209.0641	661
210.0719	952
210.109	14
211.0688	230
212.0524	12
212.0788	241
213.059	88
213.0823	51
214.0668	288
215.0624	62
216.0691	22
217.0773	30
219.0477	59
220.0566	388
221.0576	34
222.0639	121
223.0706	35
224.0733	81
225.0567	12
225.082	66
226.0667	111
226.0897	61
227.0686	15
227.0986	333
228.0594	15
228.0822	135
234.0782	16
235.0689	27
235.0874	62
236.0756	198
237.0831	522
238.0684	999
239.0648	201
239.0853	241
240.0702	354
241.0772	29
247.0676	11
249.0714	38
250.0527	10
250.0722	11
253.0777	139
254.087	80
254.1086	55
255.0942	446
264.0977	19
265.078	52
266.0777	42
267.0562	16
267.0874	44
268.0659	52
268.1017	14
282.1021	32
283.0893	624
