Mass spectrum: Octyl-decyl-dimethylammonium; LC-ESI-QTOF; MS2; 120 V
Name: Octyl-decyl-dimethylammonium
Class: Antimicrobial; Fungicide; Biocide
Formula: [C20H44N]+
Exact mass: 298.3468
SMILES: CCCCCCCCCC[N+](C)(C)CCCCCCCC
InChI: InChI=1S/C20H44N/c1-5-7-9-11-13-14-16-18-20-21(3,4)19-17-15-12-10-8-6-2/h5-20H2,1-4H3/q+1
Instrument: TripleTOF 5600 SCIEX
Instrument type: LC-ESI-QTOF
Ms type: MS2
Ion mode: POSITIVE
Collision energy: 120
Fragmentation mode: CID
Ionization: ESI
Column name: Zorbax Eclipse Plus C18 2.1 mm x 150 mm, 3.5 um, Agilent
Retention time: 12.371 min
Precursor m/z: 298.3468
Precursor type: [M]+
m/z	relative intensity
58.0694	999
