Mass spectrum: Sotalol; LC-ESI-QTOF; MS2; 40 V
Name: Sotalol
Class: Pharmaceutical
Formula: C12H20N2O3S
Exact mass: 272.1195
InChI: InChI=1S/C12H20N2O3S/c1-9(2)13-8-12(15)10-4-6-11(7-5-10)14-18(3,16)17/h4-7,9,12-15H,8H2,1-3H3
Instrument: TripleTOF 5600 SCIEX
Instrument type: LC-ESI-QTOF
Ms type: CID
Ion mode: POSITIVE
Collision energy: 40
Ionization: ESI
Column name: Zorbax Eclipse Plus C18 2.1 mm x 150 mm, 3.5 um, Agilent
Retention time: 4.583 min
Precursor m/z: 273.1267
Precursor type: [M+H]+
m/z	relative intensity
79.0584	21
93.059	10
106.0661	226
107.0741	106
116.0497	79
117.058	58
118.0653	54
119.0621	24
132.0685	55
133.0766	999
134.0844	309
176.1307	79
213.0695	127
