Mass spectrum: Oxycodone; LC-ESI-QTOF; MS2; 40 V
Name: Oxycodone
Class: Pharmaceutical
Formula: C18H21NO4
Exact mass: 315.1471
SMILES: CN1CCC23C4C(=O)CCC2(C1CC5=C3C(=C(C=C5)OC)O4)O
InChI: InChI=1S/C18H21NO4/c1-19-8-7-17-14-10-3-4-12(22-2)15(14)23-16(17)11(20)5-6-18(17,21)13(19)9-10/h3-4,13,16,21H,5-9H2,1-2H3
Instrument: TripleTOF 6600 SCIEX
Instrument type: LC-ESI-QTOF
Ms type: MS2
Ion mode: POSITIVE
Collision energy: 40
Fragmentation mode: CID
Ionization: ESI
Column name: Zorbax Eclipse Plus C18 2.1 mm x 150 mm, 3.5 um, Agilent
Retention time: 5.206 min
Precursor m/z: 316.1543
Precursor type: [M+H]+
m/z	relative intensity
58.0637	11
70.064	34
94.063	23
108.0793	14
115.0524	19
128.0602	12
129.0683	17
131.0475	27
131.0834	12
132.0562	13
132.0793	18
141.0688	27
143.0462	10
144.0554	15
152.0604	17
153.0675	60
155.084	13
157.0633	10
159.0446	16
159.0788	40
160.0505	23
160.0741	17
161.06	16
161.0809	23
165.0681	21
167.0835	24
168.0798	14
169.0639	31
170.07	12
171.079	26
172.0491	17
172.0796	13
174.0659	10
174.0893	18
175.0744	201
178.0779	12
179.0827	20
181.0639	132
181.0862	31
182.0721	16
182.0938	17
183.0793	23
184.0509	12
184.0759	10
184.1086	11
185.0581	12
186.0657	12
187.074	181
188.0697	12
189.0904	18
194.0952	14
195.0775	37
196.0791	21
196.1098	24
197.0594	22
197.0829	41
198.0672	24
198.089	54
199.0743	123
200.0787	15
201.0891	19
202.0849	51
207.0792	17
208.0795	11
209.0854	21
210.0658	13
210.0877	43
211.0717	29
211.0913	18
212.1051	366
213.0996	222
214.0903	10
215.1028	37
220.1091	10
221.0839	28
222.0909	15
223.0736	11
223.0969	19
224.0807	15
224.1048	107
225.0888	99
226.0861	212
227.1026	62
228.1016	53
228.1372	35
229.0854	13
238.1203	23
239.1008	47
240.1004	153
241.108	999
242.1164	44
243.1233	10
248.1041	17
249.113	15
252.0985	35
254.0804	17
254.1157	59
255.0996	32
255.1252	27
256.1329	547
264.1029	15
265.1085	21
266.117	51
267.1039	19
268.0988	34
269.1053	24
270.113	41
270.1451	33
280.1319	36
282.111	26
283.1199	39
298.1433	842
316.1542	67
