Mass spectrum: 6-Methylthioguanine; LC-ESI-QTOF; MS2; 70 V
Name: 6-Methylthioguanine
Class: Metabolite; Pharmaceutical
Formula: C6H7N5S
Exact mass: 181.0422
SMILES: CSc1nc(N)nc2nc[nH]c12
InChI: InChI=1S/C6H7N5S/c1-12-5-3-4(9-2-8-3)10-6(7)11-5/h2H,1H3,(H3,7,8,9,10,11)
Instrument: TripleTOF 5600 SCIEX
Instrument type: LC-ESI-QTOF
Ms type: MS2
Ion mode: POSITIVE
Collision energy: 70
Fragmentation mode: CID
Ionization: ESI
Column name: Zorbax Eclipse Plus C18 2.1 mm x 150 mm, 3.5 um, Agilent
Retention time: 4.912 min
Precursor m/z: 182.0495
Precursor type: [M+H]+
m/z	relative intensity
43.0372	117
53.019	723
53.0362	55
54.0254	267
55.0337	220
55.0459	39
55.9749	62
56.9831	31
65.0168	574
66.0248	125
67.0319	70
68.027	629
68.0506	39
69.9775	196
70.9858	999
71.9939	39
80.0253	353
81.0338	165
81.9771	125
82.9833	723
83.9915	47
84.9885	31
92.0247	173
95.9776	39
97.9933	165
99.002	55
107.035	133
108.0427	117
122.9874	31
125.004	39
126.0096	47
134.0466	86
