Mass spectrum: Daidzein; LC-ESI-QTOF; MS2; 110 V
Name: Daidzein
Class: Pharmaceutical; Natural_product
Formula: C15H10O4
Exact mass: 254.0579
SMILES: Oc1ccc(cc1)C2=COc3cc(O)ccc3C2=O
InChI: InChI=1S/C15H10O4/c16-10-3-1-9(2-4-10)13-8-19-14-7-11(17)5-6-12(14)15(13)18/h1-8,16-17H
Instrument: TripleTOF 5600 SCIEX
Instrument type: LC-ESI-QTOF
Ms type: MS2
Ion mode: POSITIVE
Collision energy: 110
Fragmentation mode: CID
Ionization: ESI
Column name: Zorbax Eclipse Plus C18 2.1 mm x 150 mm, 3.5 um, Agilent
Retention time: 7.744 min
Precursor m/z: 255.0652
Precursor type: [M+H]+
m/z	relative intensity
35.9991	61
37.0075	216
38.0153	144
39.0234	896
49.0074	61
50.0153	205
51.0233	638
52.0308	61
53.0033	61
53.0394	102
61.0076	123
62.0157	278
63.0232	597
65.0389	999
68.9969	288
73.0068	51
74.015	308
75.0228	463
76.0309	185
77.0386	690
78.0461	154
81.0326	61
86.0162	61
87.0232	61
88.0315	51
89.0378	442
91.0539	154
98.0148	123
99.0244	82
101.0374	51
102.0461	298
105.034	61
113.0369	51
115.0544	463
125.0398	72
126.0459	308
127.0556	123
139.0539	216
149.036	61
150.0472	422
151.0534	360
152.0611	360
