Mass spectrum: Thioxanthen-9-one; LC-ESI-QTOF; MS2; 10 V
Name: Thioxanthen-9-one
Formula: C13H8OS
Exact mass: 212.0296
SMILES: C1=CC=C2C(=C1)C(=O)C3=CC=CC=C3S2
InChI: InChI=1S/C13H8OS/c14-13-9-5-1-3-7-11(9)15-12-8-4-2-6-10(12)13/h1-8H
Instrument: TripleTOF 6600 SCIEX
Instrument type: LC-ESI-QTOF
Ms type: MS2
Ion mode: POSITIVE
Collision energy: 10
Fragmentation mode: CID
Ionization: ESI
Column name: Zorbax Eclipse Plus C18 2.1 mm x 150 mm, 3.5 um, Agilent
Retention time: 13.479 min
Precursor m/z: 213.0369
Precursor type: [M+H]+
m/z	relative intensity
213.0406	999
