Mass spectrum: 2,4,6-Triiodoaniline; LC-ESI-QTOF; MS2; 100 V
Name: 2,4,6-Triiodoaniline
Class: Pharmaceutical; Transformation_product
Formula: C6H4I3N
Exact mass: 470.7478
InChI: InChI=1S/C6H4I3N/c7-3-1-4(8)6(10)5(9)2-3/h1-2H,10H2
Instrument: TripleTOF 5600 SCIEX
Instrument type: LC-ESI-QTOF
Ms type: CID
Ion mode: POSITIVE
Collision energy: 100
Ionization: ESI
Column name: Zorbax Eclipse Plus C18 2.1 mm x 150 mm, 3.5 um, Agilent
Retention time: 16.077 min
Precursor m/z: 471.7551
Precursor type: [M+H]+
m/z	relative intensity
52.0254	71
64.0351	301
65.0294	79
74.0176	93
88.0194	35
89.027	71
90.0354	546
91.0435	999
188.9221	64
190.934	107
200.9182	287
216.9379	71
217.9472	129
