Mass spectrum: 4-Aminoantipyrine; LC-ESI-QTOF; MS2; 40 V
Name: 4-Aminoantipyrine
Class: Transformation_product
Formula: C11H13N3O
Exact mass: 203.1059
SMILES: CC1=C(C(=O)N(N1C)C2=CC=CC=C2)N
InChI: InChI=1S/C11H13N3O/c1-8-10(12)11(15)14(13(8)2)9-6-4-3-5-7-9/h3-7H,12H2,1-2H3
Instrument: TripleTOF 5600 SCIEX
Instrument type: LC-ESI-QTOF
Ms type: MS2
Ion mode: POSITIVE
Collision energy: 40
Fragmentation mode: CID
Ionization: ESI
Column name: Zorbax Eclipse Plus C18 2.1 mm x 150 mm, 3.5 um, Agilent
Retention time: 4.783 min
Precursor m/z: 204.1131
Precursor type: [M+H]+
m/z	relative intensity
42.034	32
44.0501	16
56.0498	999
58.0655	37
68.0498	17
77.0389	264
83.0605	134
85.0758	11
91.0549	18
93.0576	15
94.0656	292
103.0548	15
104.0493	77
115.0544	15
117.0576	24
118.0656	35
128.0495	94
130.0647	40
132.0455	12
132.0803	63
145.0768	18
146.0604	18
159.0903	33
160.088	18
188.0832	12
