Mass spectrum: Acridone; LC-ESI-QTOF; MS2; 150 V
Name: Acridone
Class: Metabolite; Pharmaceutical; Transformation_product
Formula: C13H9NO
Exact mass: 195.0684
SMILES: O=C1c2ccccc2Nc3ccccc13
InChI: InChI=1S/C13H9NO/c15-13-9-5-1-3-7-11(9)14-12-8-4-2-6-10(12)13/h1-8H,(H,14,15)
Instrument: TripleTOF 5600 SCIEX
Instrument type: LC-ESI-QTOF
Ms type: MS2
Ion mode: POSITIVE
Collision energy: 150
Fragmentation mode: CID
Ionization: ESI
Column name: Zorbax Eclipse Plus C18 2.1 mm x 150 mm, 3.5 um, Agilent
Retention time: 8.5 min
Precursor m/z: 196.0757
Precursor type: [M+H]+
m/z	relative intensity
52.023	49
52.035	24
60.0044	343
62.0479	31
73.0106	405
74.0186	999
75.0129	81
75.0256	62
76.0243	37
84.0021	187
85.0098	824
86.0171	599
87.0252	137
89.0425	49
97.0085	124
98.0153	268
99.0213	24
107.9993	56
109.0082	106
110.0167	87
111.0202	24
