Mass spectrum: N,N-Dimethyldecanamide; LC-ESI-QTOF; MS2; 120 V
Name: N,N-Dimethyldecanamide
Class: Industrial_process
Formula: C12H25NO
Exact mass: 199.1936
SMILES: CCCCCCCCCC(=O)N(C)C
InChI: InChI=1S/C12H25NO/c1-4-5-6-7-8-9-10-11-12(14)13(2)3/h4-11H2,1-3H3
Instrument: TripleTOF 6600 SCIEX
Instrument type: LC-ESI-QTOF
Ms type: MS2
Ion mode: POSITIVE
Collision energy: 120
Fragmentation mode: CID
Ionization: ESI
Column name: Zorbax Eclipse Plus C18 2.1 mm x 150 mm, 3.5 um, Agilent
Retention time: 13.577 min
Precursor m/z: 200.2009
Precursor type: [M+H]+
m/z	relative intensity
30.0334	53
35.9989	20
37.0068	172
38.0025	65
38.0144	155
39.0224	542
41.0375	53
42.033	98
43.0173	187
43.0411	14
44.049	999
46.0649	23
53.0121	17
54.0322	11
55.0164	14
56.0119	11
58.0278	80
