Mass spectrum: Ethyl 2,4-diaminopyrimidine-5-carboxylate; LC-ESI-QTOF; MS2; 120 V
Name: Ethyl 2,4-diaminopyrimidine-5-carboxylate
Class: Pharmaceutical
Formula: C7H10N4O2
Exact mass: 182.0804
SMILES: CCOC(=O)C1=CN=C(N=C1N)N
InChI: InChI=1S/C7H10N4O2/c1-2-13-6(12)4-3-10-7(9)11-5(4)8/h3H,2H2,1H3,(H4,8,9,10,11)
Instrument: TripleTOF 5600 SCIEX
Instrument type: LC-ESI-QTOF
Ms type: MS2
Ion mode: POSITIVE
Collision energy: 120
Fragmentation mode: CID
Ionization: ESI
Column name: Zorbax Eclipse Plus C18 2.1 mm x 150 mm, 3.5 um, Agilent
Retention time: 4.607 min
Precursor m/z: 183.0877
Precursor type: [M+H]+
m/z	relative intensity
38.0182	137
39.0237	68
40.0328	688
41.0251	137
41.0368	365
42.0452	144
43.0417	840
44.0258	27
51.0222	89
52.0277	558
53.011	330
55.0377	41
65.0212	62
66.0302	62
67.0365	68
68.031	999
