Mass spectrum: Prochloraz; LC-ESI-QTOF; MS2; 70 V
Name: Prochloraz
Class: Fungicide
Formula: C15H16Cl3N3O2
Exact mass: 375.0308
SMILES: CCCN(CCOc1c(cc(cc1Cl)Cl)Cl)C(=O)n2ccnc2
InChI: InChI=1S/C15H16Cl3N3O2/c1-2-4-20(15(22)21-5-3-19-10-21)6-7-23-14-12(17)8-11(16)9-13(14)18/h3,5,8-10H,2,4,6-7H2,1H3
Instrument: TripleTOF 6600 SCIEX
Instrument type: LC-ESI-QTOF
Ms type: MS2
Ion mode: POSITIVE
Collision energy: 70
Fragmentation mode: CID
Ionization: ESI
Column name: Zorbax Eclipse Plus C18 2.1 mm x 150 mm, 3.5 um, Agilent
Retention time: 11.258 min
Precursor m/z: 376.0381
Precursor type: [M+H]+
m/z	relative intensity
38.0025	24
39.0229	123
41.0388	524
42.0339	444
43.0544	487
44.0496	49
56.0497	468
57.0571	80
70.0286	783
70.0651	573
72.0438	24
72.9838	61
82.9453	111
89.0377	43
98.0599	24
106.9447	111
107.9761	43
111.0008	61
123.0008	80
125.0151	154
125.985	30
132.96	333
138.0133	30
142.9452	172
146.9743	30
153.0116	37
158.9768	104
159.9811	30
160.9542	74
161.9634	505
166.921	999
167.0133	37
169.9681	30
172.9648	49
174.9716	37
178.9207	61
179.9292	191
180.021	24
194.9156	117
196.9319	92
206.9268	43
