Mass spectrum: Oxazepam; LC-ESI-QTOF; MS2; 40 V
Name: Oxazepam
Class: Pharmaceutical
Formula: C15H11ClN2O2
Exact mass: 286.0509
SMILES: C1=CC=C(C=C1)C2=NC(C(=O)NC3=C2C=C(C=C3)Cl)O
InChI: InChI=1S/C15H11ClN2O2/c16-10-6-7-12-11(8-10)13(9-4-2-1-3-5-9)18-15(20)14(19)17-12/h1-8,15,20H,(H,17,19)
Instrument: TripleTOF 6600 SCIEX
Instrument type: LC-ESI-QTOF
Ms type: MS2
Ion mode: POSITIVE
Collision energy: 40
Fragmentation mode: CID
Ionization: ESI
Column name: Zorbax Eclipse Plus C18 2.1 mm x 150 mm, 3.5 um, Agilent
Retention time: 9.314 min
Precursor m/z: 287.0582
Precursor type: [M+H]+
m/z	relative intensity
77.0385	24
93.0573	47
104.0497	259
118.0522	13
128.026	70
138.0107	22
153.0216	70
163.006	120
166.005	16
195.0922	17
205.0758	15
207.0682	13
214.0422	15
229.0527	19
231.0689	85
241.0536	999
257.0478	25
269.0478	20
