Mass spectrum: Fingolimod; LC-ESI-QTOF; MS2; 90 V
Name: Fingolimod
Class: Pharmaceutical
Formula: C19H33NO2
Exact mass: 307.2511
SMILES: CCCCCCCCC1=CC=C(C=C1)CCC(CO)(CO)N
InChI: InChI=1S/C19H33NO2/c1-2-3-4-5-6-7-8-17-9-11-18(12-10-17)13-14-19(20,15-21)16-22/h9-12,21-22H,2-8,13-16,20H2,1H3
Instrument: TripleTOF 6600 SCIEX
Instrument type: LC-ESI-QTOF
Ms type: MS2
Ion mode: POSITIVE
Collision energy: 90
Fragmentation mode: CID
Ionization: ESI
Column name: Zorbax Eclipse Plus C18 2.1 mm x 150 mm, 3.5 um, Agilent
Retention time: 10.17 min
Precursor m/z: 308.2584
Precursor type: [M+H]+
m/z	relative intensity
37.0074	33
38.0012	33
38.0155	33
39.022	213
41.0377	253
43.0529	99
50.0139	46
51.0216	133
55.0528	33
57.0689	33
63.021	39
65.0375	432
77.0372	566
78.0451	73
79.0528	193
89.036	39
91.0529	999
102.0444	86
103.0523	206
104.0599	26
105.0685	146
115.052	532
116.0607	39
117.0678	53
127.0515	179
128.06	572
129.0689	79
141.0676	313
153.0681	39
155.0582	53
155.0826	39
