Mass spectrum: Mefenpyr-diethyl; LC-ESI-QTOF; MS2; 110 V
Name: Mefenpyr-diethyl
Class: Herbicide
Formula: C16H18Cl2N2O4
Exact mass: 372.0644
SMILES: CCOC(=O)C1=NN(C(C1)(C)C(=O)OCC)C2=C(C=C(C=C2)Cl)Cl
InChI: InChI=1S/C16H18Cl2N2O4/c1-4-23-14(21)12-9-16(3,15(22)24-5-2)20(19-12)13-7-6-10(17)8-11(13)18/h6-8H,4-5,9H2,1-3H3
Instrument: TripleTOF 5600 SCIEX
Instrument type: LC-ESI-QTOF
Ms type: MS2
Ion mode: POSITIVE
Collision energy: 110
Fragmentation mode: CID
Ionization: ESI
Column name: Zorbax Eclipse Plus C18 2.1 mm x 150 mm, 3.5 um, Agilent
Retention time: 14.581 min
Precursor m/z: 373.0716
Precursor type: [M+H]+
m/z	relative intensity
48.9961	11
72.9905	325
73.0124	32
74.0213	679
75.0294	90
77.0427	22
82.9502	339
83.9823	11
84.9887	21
88.0224	21
89.0419	25
90.0378	55
96.9864	80
97.9929	25
99.0021	56
99.0248	22
100.0193	30
101.0412	39
102.0375	20
106.9479	108
108.9862	999
109.9934	40
111.0031	16
114.0363	42
123.0007	17
123.9972	31
125.0043	110
126.0355	44
127.0441	49
128.0508	74
129.054	17
130.0679	11
132.9619	802
136.007	25
144.9623	246
151.0192	21
153.0454	65
154.0412	12
154.0523	27
155.0618	23
156.9626	22
159.9701	12
160.9801	18
162.0144	23
164.0256	40
172.9676	52
185.987	23
189.0213	67
