Mass spectrum: Febantel; LC-ESI-QTOF; MS2; 70 V
Name: Febantel
Class: Pharmaceutical
Formula: C20H22N4O6S
Exact mass: 446.126
SMILES: COCC(=O)Nc1cc(Sc2ccccc2)ccc1NC(NC(=O)OC)=NC(=O)OC
InChI: InChI=1S/C20H22N4O6S/c1-28-12-17(25)21-16-11-14(31-13-7-5-4-6-8-13)9-10-15(16)22-18(23-19(26)29-2)24-20(27)30-3/h4-11H,12H2,1-3H3,(H,21,25)(H2,22,23,24,26,27)
Instrument: TripleTOF 5600 SCIEX
Instrument type: LC-ESI-QTOF
Ms type: MS2
Ion mode: POSITIVE
Collision energy: 70
Fragmentation mode: CID
Ionization: ESI
Column name: Zorbax Eclipse Plus C18 2.1 mm x 150 mm, 3.5 um, Agilent
Retention time: 13.085 min
Precursor m/z: 447.1333
Precursor type: [M+H]+
m/z	relative intensity
45.0428	234
56.019	10
59.0196	13
65.0442	66
69.049	13
77.0423	18
78.0501	43
83.0267	138
91.0456	13
103.0419	10
104.0367	10
104.0475	11
105.0474	13
106.054	11
109.0118	847
110.0166	10
116.0371	78
118.0528	310
119.0635	14
122.006	69
129.0454	21
130.0428	43
130.0616	14
131.0481	41
131.0591	66
132.069	49
133.0396	10
134.006	13
134.0472	27
135.0552	22
139.0546	62
142.0409	26
143.0482	195
144.0305	23
144.0557	14
144.0671	10
145.0408	46
145.0636	103
146.0469	71
146.0717	13
147.0009	29
149.0167	157
150.024	11
151.056	10
154.0648	27
158.0345	39
158.0687	14
159.0003	50
159.0433	520
159.0788	22
160.0505	26
160.0861	10
161.0349	66
163.0312	11
164.0487	18
166.064	15
167.0713	11
170.0355	54
171.0424	693
172.0306	10
172.0504	199
173.058	166
174.0127	25
174.0417	19
174.9971	21
176.0268	11
176.0474	13
177.0579	21
178.0666	15
180.0808	11
183.0258	221
184.0353	63
185.0419	33
186.0321	131
186.0589	11
187.0398	17
190.0068	149
191.0145	26
191.061	18
192.0663	19
193.0721	10
194.084	10
196.022	59
197.0279	18
198.0376	213
199.0444	95
202.0074	239
202.0493	17
203.015	181
204.0215	19
204.0769	111
205.0778	55
206.0777	21
207.0906	30
208.0225	33
209.0293	285
210.0371	113
211.0324	38
212.051	17
213.0455	49
214.0479	11
219.0793	77
222.0661	10
223.0317	55
224.0405	202
225.0237	10
225.0478	314
226.0572	18
227.0634	198
229.0361	107
233.0573	11
234.0647	26
235.0331	15
235.0738	57
236.0439	14
237.0481	246
238.0485	175
239.0614	161
240.0612	62
242.0432	11
246.0666	131
247.074	90
248.0819	117
250.0409	25
251.0495	15
252.0228	27
252.0606	55
253.0441	73
254.0498	15
264.0321	15
265.031	149
266.0388	999
267.0464	391
268.0543	253
269.0777	14
278.0377	110
280.0539	737
282.068	30
