Mass spectrum: Spirodiclofen-enol; LC-ESI-QTOF; MS2; 40 V
Name: Spirodiclofen-enol
Formula: C15H14Cl2O3
Exact mass: 312.032
SMILES: C1CCC2(CC1)C(=C(C(=O)O2)C3=C(C=C(C=C3)Cl)Cl)O
InChI: InChI=1S/C15H14Cl2O3/c16-9-4-5-10(11(17)8-9)12-13(18)15(20-14(12)19)6-2-1-3-7-15/h4-5,8,18H,1-3,6-7H2
Instrument: TripleTOF 6600 SCIEX
Instrument type: LC-ESI-QTOF
Ms type: CID
Ion mode: NEGATIVE
Collision energy: 40
Ionization: ESI
Column name: Zorbax Eclipse Plus C18 2.1 mm x 150 mm, 3.5 um, Agilent
Retention time: 12.261 min
Precursor m/z: 311.0247
Precursor type: [M-H]-
m/z	relative intensity
34.9702	401
168.9627	507
183.0124	11
184.9576	171
249.0254	276
311.0258	999
