Mass spectrum: 5-Methyl-5-phenylhydantoin; LC-ESI-QTOF; MS2; 30 V
Name: 5-Methyl-5-phenylhydantoin
Formula: C10H10N2O2
Exact mass: 190.0742
SMILES: CC1(C(=O)NC(=O)N1)C2=CC=CC=C2
InChI: InChI=1S/C10H10N2O2/c1-10(7-5-3-2-4-6-7)8(13)11-9(14)12-10/h2-6H,1H3,(H2,11,12,13,14)
Instrument: TripleTOF 6600 SCIEX
Instrument type: LC-ESI-QTOF
Ms type: MS2
Ion mode: NEGATIVE
Collision energy: 30
Fragmentation mode: CID
Ionization: ESI
Column name: Zorbax Eclipse Plus C18 2.1 mm x 150 mm, 3.5 um, Agilent
Retention time: 6.482 min
Precursor m/z: 189.0669
Precursor type: [M-H]-
m/z	relative intensity
40.02	437
41.999	999
77.0387	437
174.0442	312
189.0665	187
