Mass spectrum: Clonazepam; LC-ESI-QTOF; MS2; 60 V
Name: Clonazepam
Class: Pharmaceutical
Formula: C15H10ClN3O3
Exact mass: 315.0411
SMILES: C1C(=O)NC2=C(C=C(C=C2)[N+](=O)[O-])C(=N1)C3=CC=CC=C3Cl
InChI: InChI=1S/C15H10ClN3O3/c16-12-4-2-1-3-10(12)15-11-7-9(19(21)22)5-6-13(11)18-14(20)8-17-15/h1-7H,8H2,(H,18,20)
Instrument: TripleTOF 6600 SCIEX
Instrument type: LC-ESI-QTOF
Ms type: MS2
Ion mode: NEGATIVE
Collision energy: 60
Fragmentation mode: CID
Ionization: ESI
Column name: Zorbax Eclipse Plus C18 2.1 mm x 150 mm, 3.5 um, Agilent
Retention time: 9.867 min
Precursor m/z: 314.0338
Precursor type: [M-H]-
m/z	relative intensity
34.9693	999
41.998	264
45.9932	99
139.043	66
140.0482	189
164.0499	115
165.0566	49
176.0508	49
188.0498	74
191.0614	363
192.0459	123
203.0626	57
205.0529	148
219.0564	941
221.0475	41
230.0457	41
231.0528	206
232.0622	74
247.0503	355
251.044	90
