Mass spectrum: Erlotinib; LC-ESI-QTOF; MS2; 130 V
Name: Erlotinib
Class: Pharmaceutical
Formula: C22H23N3O4
Exact mass: 393.1689
SMILES: COCCOC1=C(C=C2C(=C1)C(=NC=N2)NC3=CC=CC(=C3)C#C)OCCOC
InChI: InChI=1S/C22H23N3O4/c1-4-16-6-5-7-17(12-16)25-22-18-13-20(28-10-8-26-2)21(29-11-9-27-3)14-19(18)23-15-24-22/h1,5-7,12-15H,8-11H2,2-3H3,(H,23,24,25)
Instrument: TripleTOF 5600 SCIEX
Instrument type: LC-ESI-QTOF
Ms type: MS2
Ion mode: POSITIVE
Collision energy: 130
Fragmentation mode: CID
Ionization: ESI
Column name: Zorbax Eclipse Plus C18 2.1 mm x 150 mm, 3.5 um, Agilent
Retention time: 7.429 min
Precursor m/z: 394.1761
Precursor type: [M+H]+
m/z	relative intensity
39.0229	22
49.0071	11
50.0149	69
51.023	210
52.018	45
53.0396	21
55.0175	39
59.0491	19
61.0078	21
62.0153	24
63.0233	54
65.0385	48
66.0341	31
67.0427	15
68.0129	12
68.0492	18
73.0071	44
74.0154	432
75.0233	999
76.0186	68
77.0275	108
77.0381	73
78.0343	72
79.0181	34
80.014	32
81.0334	22
86.016	12
87.0224	29
88.019	99
89.0391	163
90.0348	12
90.0461	31
91.0546	39
93.0455	38
94.03	11
96.0445	18
98.0156	27
99.0225	90
100.0183	14
100.0319	18
101.0389	225
102.0343	28
102.0465	28
103.0313	15
104.0384	49
105.0455	28
106.0285	27
108.0218	44
113.0393	54
114.0348	27
115.0346	12
115.0542	49
116.0491	45
117.0571	32
121.0393	25
122.015	11
123.0229	59
124.0314	15
125.0392	109
126.0462	71
127.0417	29
127.0535	56
128.0506	45
129.0444	19
130.0419	9
135.0295	15
137.039	55
138.0432	90
139.0552	112
140.0497	132
141.0571	18
142.0546	12
148.0307	15
149.0392	223
150.0465	311
151.0543	179
152.0495	146
153.0521	71
154.0657	25
155.0611	19
161.0375	29
162.0458	28
163.0516	61
164.0507	234
165.0523	98
166.0627	58
167.0671	32
174.0323	12
174.0448	9
175.0426	150
176.0507	274
177.056	147
178.0506	19
178.0645	39
179.0605	61
180.0608	12
186.0316	17
187.0443	21
188.0501	68
189.0508	32
190.0572	52
191.0607	102
192.0694	150
193.0762	38
201.0506	18
202.0533	41
203.0613	217
204.059	38
205.0766	25
213.0477	25
214.0539	11
215.0614	12
216.0603	18
217.0659	42
218.0735	29
228.0547	15
230.0721	78
231.0774	21
246.0677	28
