Mass spectrum: Meperidine; LC-ESI-QTOF; MS2; 70 V
Name: Meperidine
Class: Pharmaceutical
Formula: C15H21NO2
Exact mass: 247.1572
SMILES: CCOC(=O)C1(CCN(CC1)C)C2=CC=CC=C2
InChI: InChI=1S/C15H21NO2/c1-3-18-14(17)15(9-11-16(2)12-10-15)13-7-5-4-6-8-13/h4-8H,3,9-12H2,1-2H3
Instrument: TripleTOF 6600 SCIEX
Instrument type: LC-ESI-QTOF
Ms type: MS2
Ion mode: POSITIVE
Collision energy: 70
Fragmentation mode: CID
Ionization: ESI
Column name: Zorbax Eclipse Plus C18 2.1 mm x 150 mm, 3.5 um, Agilent
Retention time: 6.573 min
Precursor m/z: 248.1645
Precursor type: [M+H]+
m/z	relative intensity
39.0227	21
41.0381	16
42.0337	312
43.0409	15
44.0493	263
51.0226	27
53.0379	25
55.0537	18
57.0568	16
58.0642	11
63.0219	11
65.038	149
68.049	12
70.0647	280
77.0381	486
79.0534	42
80.0486	15
81.0564	18
82.0645	58
89.0377	27
91.0535	999
94.0643	23
96.0801	57
102.045	32
103.0537	489
105.0416	12
105.0698	35
115.0535	513
116.0615	136
117.0679	36
127.0533	55
128.0612	190
129.0688	72
130.0743	11
131.0836	22
143.0723	16
158.0949	16
167.0725	10
174.1268	29
