Mass spectrum: Fenarimol; LC-ESI-QTOF; MS2; 30 V
Name: Fenarimol
Class: Fungicide
Formula: C17H12Cl2N2O
Exact mass: 330.0327
SMILES: C1=CC=C(C(=C1)C(C2=CC=C(C=C2)Cl)(C3=CN=CN=C3)O)Cl
InChI: InChI=1S/C17H12Cl2N2O/c18-14-7-5-12(6-8-14)17(22,13-9-20-11-21-10-13)15-3-1-2-4-16(15)19/h1-11,22H
Instrument: TripleTOF 6600 SCIEX
Instrument type: LC-ESI-QTOF
Ms type: MS2
Ion mode: POSITIVE
Collision energy: 30
Fragmentation mode: CID
Ionization: ESI
Column name: Zorbax Eclipse Plus C18 2.1 mm x 150 mm, 3.5 um, Agilent
Retention time: 11.9 min
Precursor m/z: 331.04
Precursor type: [M+H]+
m/z	relative intensity
81.0449	217
138.9947	95
156.0683	12
183.0542	10
189.0698	15
191.0378	11
192.0451	14
219.0328	13
223.0328	11
233.0854	13
235.008	23
238.0425	13
240.0581	18
250.0412	10
251.0042	68
251.0492	25
252.0349	100
259.0091	276
266.0376	10
267.0679	26
268.0544	999
276.0348	20
278.0608	33
286.0184	12
287.0026	15
295.0641	18
304.0308	91
313.0301	15
331.0426	673
