Mass spectrum: N,N-dimethylbenzylamine; LC-ESI-QTOF; MS2; 50 V
Name: N,N-dimethylbenzylamine
Class: Industrial_process
Formula: C9H13N
Exact mass: 135.1048
SMILES: CN(C)CC1=CC=CC=C1
InChI: InChI=1S/C9H13N/c1-10(2)8-9-6-4-3-5-7-9/h3-7H,8H2,1-2H3
Instrument: TripleTOF 5600 SCIEX
Instrument type: LC-ESI-QTOF
Ms type: MS2
Ion mode: POSITIVE
Collision energy: 50
Fragmentation mode: CID
Ionization: ESI
Column name: Zorbax Eclipse Plus C18 2.1 mm x 150 mm, 3.5 um, Agilent
Retention time: 4.419 min
Precursor m/z: 136.1121
Precursor type: [M+H]+
m/z	relative intensity
37.0076	15
38.0151	12
39.0233	111
41.0384	30
51.0232	29
65.0388	920
91.0544	999
