Mass spectrum: Linezolid; LC-ESI-QTOF; MS2; 40 V
Name: Linezolid
Class: Pharmaceutical
Formula: C16H20FN3O4
Exact mass: 337.1438
SMILES: CC(=O)NCC1CN(C(=O)O1)C2=CC(=C(C=C2)N3CCOCC3)F
InChI: InChI=1S/C16H20FN3O4/c1-11(21)18-9-13-10-20(16(22)24-13)12-2-3-15(14(17)8-12)19-4-6-23-7-5-19/h2-3,8,13H,4-7,9-10H2,1H3,(H,18,21)
Instrument: TripleTOF 5600 SCIEX
Instrument type: LC-ESI-QTOF
Ms type: MS2
Ion mode: POSITIVE
Collision energy: 40
Fragmentation mode: CID
Ionization: ESI
Column name: Zorbax Eclipse Plus C18 2.1 mm x 150 mm, 3.5 um, Agilent
Retention time: 6.936 min
Precursor m/z: 338.1511
Precursor type: [M+H]+
m/z	relative intensity
44.0501	12
45.0344	14
56.0502	180
77.0378	9
84.0448	19
85.0552	14
97.0447	14
98.0612	28
103.0545	14
104.0527	12
108.0218	12
109.0439	28
110.0524	16
111.0501	26
112.054	12
115.0536	33
116.0486	57
116.0691	12
117.0562	38
118.0646	26
122.0413	36
123.0495	50
124.0559	96
125.0518	43
126.0621	9
127.0527	12
128.0493	19
129.0572	14
130.064	40
131.0605	48
133.0751	19
134.0388	14
135.0478	350
136.0549	180
137.0603	223
138.0666	74
139.0659	52
142.0652	67
143.0673	45
144.0789	40
145.0813	19
146.0386	36
147.0501	40
148.0564	792
149.0599	389
150.0703	146
151.0665	264
152.0748	117
153.0835	156
154.0677	19
154.089	9
155.0634	14
156.0702	40
157.0767	45
158.0844	9
159.0911	31
161.0609	79
162.0716	292
163.0674	521
164.0774	60
165.0616	12
165.0823	338
166.0892	28
167.0958	40
168.0787	28
169.0765	336
170.0809	28
171.0911	88
172.0564	76
173.0619	16
174.0601	326
175.0682	62
176.0765	79
177.0473	40
177.0824	230
178.0899	45
179.0638	31
179.0746	9
179.0978	122
180.0854	60
181.087	144
182.0819	14
183.0574	19
183.0934	21
185.1076	64
187.0666	127
187.1029	9
188.0718	21
188.0861	9
189.0827	405
190.0891	112
191.0982	468
192.0781	9
192.1031	26
195.0568	24
195.0938	662
196.067	28
196.1017	165
197.0718	79
197.1087	96
200.09	9
201.0895	12
202.0908	16
203.1011	14
203.1213	9
205.0791	28
205.11	24
206.0875	14
206.1061	9
207.0967	24
208.1245	12
209.1101	276
215.1183	199
217.1155	64
221.1124	64
222.1046	76
223.0868	26
223.1234	86
233.1098	14
234.0873	16
234.1091	12
235.1249	638
236.1184	12
238.1021	40
239.0789	19
239.1271	14
241.0985	242
244.1426	14
246.1269	28
249.1266	43
250.0976	52
251.1044	28
252.1139	160
252.1534	12
253.1038	16
253.1296	9
278.1335	72
279.1228	16
294.1414	24
294.161	146
296.1416	967
297.1147	14
338.1527	999
