Mass spectrum: Meclofenamic acid; LC-ESI-QTOF; MS2; 150 V
Name: Meclofenamic acid
Class: Pharmaceutical
Formula: C14H11Cl2NO2
Exact mass: 295.0167
SMILES: Cc1ccc(c(c1Cl)Nc2ccccc2C(=O)O)Cl
InChI: InChI=1S/C14H11Cl2NO2/c1-8-6-7-10(15)13(12(8)16)17-11-5-3-2-4-9(11)14(18)19/h2-7,17H,1H3,(H,18,19)
Instrument: TripleTOF 5600 SCIEX
Instrument type: LC-ESI-QTOF
Ms type: MS2
Ion mode: POSITIVE
Collision energy: 150
Fragmentation mode: CID
Ionization: ESI
Column name: Zorbax Eclipse Plus C18 2.1 mm x 150 mm, 3.5 um, Agilent
Retention time: 13.705 min
Precursor m/z: 296.024
Precursor type: [M+H]+
m/z	relative intensity
52.025	31
52.0364	31
73.0092	62
74.0176	951
75.0111	55
75.0249	700
76.019	70
76.0324	283
77.0406	448
78.0486	55
85.0097	102
86.0163	220
87.0236	204
88.0212	39
88.033	47
89.0395	110
98.0143	652
99.023	479
100.017	31
100.03	110
101.0382	102
102.0323	39
102.0452	117
102.0622	47
110.0138	149
111.0236	78
113.0394	62
122.0125	141
123.0077	47
123.0203	62
124.0295	86
125.0369	196
126.0449	235
126.0683	39
127.041	39
127.0549	31
128.0462	47
137.0376	47
149.037	188
149.056	39
150.045	999
151.0528	401
152.0578	157
175.0405	78
176.0484	125
177.0552	125
178.0602	31
