Mass spectrum: Allethrin; LC-ESI-QTOF; MS2; 70 V
Name: Allethrin
Class: Insecticide
Formula: C19H26O3
Exact mass: 302.1882
SMILES: CC(C)=CC1C(C(=O)OC2CC(=O)C(=C2C)CC=C)C1(C)C
InChI: InChI=1S/C19H26O3/c1-7-8-13-12(4)16(10-15(13)20)22-18(21)17-14(9-11(2)3)19(17,5)6/h7,9,14,16-17H,1,8,10H2,2-6H3
Instrument: TripleTOF 5600 SCIEX
Instrument type: LC-ESI-QTOF
Ms type: MS2
Ion mode: POSITIVE
Collision energy: 70
Fragmentation mode: CID
Ionization: ESI
Column name: Zorbax Eclipse Plus C18 2.1 mm x 150 mm, 3.5 um, Agilent
Retention time: 16.132 min
Precursor m/z: 303.1955
Precursor type: [M+H]+
m/z	relative intensity
51.0285	20
55.0597	42
65.0425	234
67.0577	83
69.0727	25
77.0413	469
79.057	429
81.0718	148
85.0668	14
91.0559	999
92.0642	17
93.0714	105
94.0422	17
95.0495	14
95.0851	25
103.0551	54
105.0701	257
107.0488	40
107.0856	94
109.0639	31
115.0538	240
116.0624	25
117.0698	40
119.0834	17
120.0559	17
121.0641	48
121.1007	28
123.1179	11
128.0611	40
129.0691	31
133.0644	28
135.079	42
141.0695	31
143.083	14
