Mass spectrum: Pentaethyleneglycol dimethyl ether-candidate; LC-ESI-QTOF; MS2; 40 V
Name: Pentaethyleneglycol dimethyl ether-candidate
Class: Industrial_process
Formula: C12H26O6
Exact mass: 266.1729
SMILES: COCCOCCOCCOCCOCCOC
InChI: InChI=1S/C12H26O6/c1-13-3-5-15-7-9-17-11-12-18-10-8-16-6-4-14-2/h3-12H2,1-2H3
Instrument: TripleTOF 6600 SCIEX
Instrument type: LC-ESI-QTOF
Ms type: MS2
Ion mode: POSITIVE
Collision energy: 40
Fragmentation mode: CID
Ionization: ESI
Column name: Zorbax Eclipse Plus C18 2.1 mm x 150 mm, 3.5 um, Agilent
Retention time: 6.36 min
Precursor m/z: 284.2057
Precursor type: [M+NH4]+
m/z	relative intensity
45.0328	24
58.8684	16
59.0471	999
81.0642	15
89.0563	25
94.0687	9
99.041	19
103.0716	486
123.1149	14
136.0387	13
147.0974	39
159.0748	11
169.091	13
178.0717	13
178.8976	17
180.0238	11
184.0868	13
194.0603	16
202.0736	10
206.1028	10
206.9026	14
212.0887	12
214.9179	10
220.077	31
224.0833	12
224.907	22
234.0096	11
238.0385	11
242.9274	14
266.101	13
284.1388	24
284.1782	21
284.29	11
