Mass spectrum: Tolcapone; LC-ESI-QTOF; MS2; 40 V
Name: Tolcapone
Class: Pharmaceutical
Formula: C14H11NO5
Exact mass: 273.0637
SMILES: CC1=CC=C(C=C1)C(=O)C2=CC(=C(C(=C2)O)O)[N+](=O)[O-]
InChI: InChI=1S/C14H11NO5/c1-8-2-4-9(5-3-8)13(17)10-6-11(15(19)20)14(18)12(16)7-10/h2-7,16,18H,1H3
Instrument: TripleTOF 5600 SCIEX
Instrument type: LC-ESI-QTOF
Ms type: MS2
Ion mode: NEGATIVE
Collision energy: 40
Fragmentation mode: CID
Ionization: ESI
Column name: Zorbax Eclipse Plus C18 2.1 mm x 150 mm, 3.5 um, Agilent
Retention time: 11.114 min
Precursor m/z: 272.0564
Precursor type: [M-H]-
m/z	relative intensity
115.055	71
141.0712	197
153.0593	64
159.0459	86
169.0664	467
181.0665	999
182.0618	598
185.0605	63
197.0615	207
198.0575	49
210.0561	95
214.0643	128
224.0472	113
225.056	745
241.0513	197
242.0588	319
255.0542	143
272.0558	116
