Mass spectrum: Favipiravir; LC-ESI-QTOF; MS2; 40 V
Name: Favipiravir
Class: Pharmaceutical
Formula: C5H4FN3O2
Exact mass: 157.0288
SMILES: C1=C(N=C(C(=O)N1)C(=O)N)F
InChI: InChI=1S/C5H4FN3O2/c6-2-1-8-5(11)3(9-2)4(7)10/h1H,(H2,7,10)(H,8,11)
Instrument: TripleTOF 6600 SCIEX
Instrument type: LC-ESI-QTOF
Ms type: MS2
Ion mode: NEGATIVE
Collision energy: 40
Fragmentation mode: CID
Ionization: ESI
Column name: Zorbax Eclipse Plus C18 2.1 mm x 150 mm, 3.5 um, Agilent
Retention time: 4.84 min
Precursor m/z: 156.0215
Precursor type: [M-H]-
m/z	relative intensity
38.004	196
41.998	999
50.0029	47
64.0058	117
65.0133	479
65.9975	660
83.0038	47
85.0198	338
86.0035	62
93.0069	39
113.0149	715
138.0102	39
