Mass spectrum: Reactive Orange; LC-ESI-QTOF; MS2; 100 V
Name: Reactive Orange
Formula: C20H19N3O11S3
Exact mass: 573.0182
SMILES: CC(=O)NC1=CC2=C(C(=C(C=C2C=C1)S(=O)(=O)O)N=NC3=CC=C(C=C3)S(=O)(=O)CCOS(=O)(=O)O)O
InChI: InChI=1S/C20H19N3O11S3/c1-12(24)21-15-3-2-13-10-18(36(28,29)30)19(20(25)17(13)11-15)23-22-14-4-6-16(7-5-14)35(26,27)9-8-34-37(31,32)33/h2-7,10-11,25H,8-9H2,1H3,(H,21,24)(H,28,29,30)(H,31,32,33)
Instrument: TripleTOF 6600 SCIEX
Instrument type: LC-ESI-QTOF
Ms type: MS2
Ion mode: POSITIVE
Collision energy: 100
Fragmentation mode: CID
Ionization: ESI
Column name: Zorbax Eclipse Plus C18 2.1 mm x 150 mm, 3.5 um, Agilent
Retention time: 5.751 min
Precursor m/z: 574.0255
Precursor type: [M+H]+
m/z	relative intensity
43.0172	15
44.9786	15
46.9946	31
53.0385	37
63.0219	10
65.0376	36
68.0122	40
74.989	28
77.0371	31
80.049	187
81.0328	897
88.03	14
89.0378	15
91.04	27
92.0487	98
93.0564	32
103.0396	28
104.0479	139
108.0436	999
114.0325	63
115.0402	119
116.0479	95
117.0557	31
129.044	182
130.0517	190
131.0589	191
132.0438	11
141.0441	11
142.0518	948
143.0585	104
169.0389	11
170.0462	768
171.0527	72
172.0366	32
176.0605	13
178.0637	16
179.0706	16
189.0624	10
203.0648	12
204.0779	77
205.0748	184
206.0827	137
215.0576	22
216.0673	32
217.0719	21
218.0814	13
220.085	33
230.0706	13
231.0767	41
232.0854	223
233.0924	333
234.0756	27
243.0796	15
244.0824	36
245.0945	18
248.0757	16
260.0811	55
261.0864	87
262.0774	13
