Mass spectrum: Terbutaline; LC-ESI-QTOF; MS2; 40 V
Name: Terbutaline
Class: Pharmaceutical
Formula: C12H19NO3
Exact mass: 225.1365
SMILES: CC(C)(C)NCC(C1=CC(=CC(=C1)O)O)O
InChI: InChI=1S/C12H19NO3/c1-12(2,3)13-7-11(16)8-4-9(14)6-10(15)5-8/h4-6,11,13-16H,7H2,1-3H3
Instrument: TripleTOF 5600 SCIEX
Instrument type: LC-ESI-QTOF
Ms type: MS2
Ion mode: POSITIVE
Collision energy: 40
Fragmentation mode: CID
Ionization: ESI
Column name: Zorbax Eclipse Plus C18 2.1 mm x 150 mm, 3.5 um, Agilent
Retention time: 4.546 min
Precursor m/z: 226.1438
Precursor type: [M+H]+
m/z	relative intensity
57.0701	90
68.9964	82
77.0378	237
79.0544	131
84.0803	26
91.0538	18
92.0491	22
107.0489	999
109.064	33
110.0357	101
110.062	52
116.0481	26
123.0407	33
125.0598	659
134.0585	26
135.0445	75
152.071	889
