Mass spectrum: Indoxacarb; LC-ESI-QTOF; MS2; 130 V
Name: Indoxacarb
Class: Insecticide
Formula: C22H17ClF3N3O7
Exact mass: 527.0707
SMILES: COC(=O)[C@]12Cc3cc(ccc3C1=NN(CO2)C(=O)N(c4ccc(cc4)OC(F)(F)F)C(=O)OC)Cl
InChI: InChI=1S/C22H17ClF3N3O7/c1-33-18(30)21-10-12-9-13(23)3-8-16(12)17(21)27-28(11-35-21)19(31)29(20(32)34-2)14-4-6-15(7-5-14)36-22(24,25)26/h3-9H,10-11H2,1-2H3/t21-/m0/s1
Instrument: TripleTOF 5600 SCIEX
Instrument type: LC-ESI-QTOF
Ms type: MS2
Ion mode: POSITIVE
Collision energy: 130
Fragmentation mode: CID
Ionization: ESI
Column name: Zorbax Eclipse Plus C18 2.1 mm x 150 mm, 3.5 um, Agilent
Retention time: 15.019 min
Precursor m/z: 528.078
Precursor type: [M+H]+
m/z	relative intensity
51.0302	127
56.02	198
59.0188	64
65.0441	15
68.9998	346
69.9952	18
72.9868	64
73.008	11
74.0188	86
75.0265	212
76.0203	13
76.0329	19
77.0421	265
78.0379	614
83.031	23
86.0165	16
87.0245	49
88.0315	78
89.0407	244
90.0351	65
93.0565	11
95.0299	37
96.9846	43
97.0334	15
98.0153	70
99.0236	340
100.0224	249
101.0389	187
102.0467	152
103.0548	23
104.0504	39
106.0297	999
108.9835	17
109.0319	20
110.9979	22
113.0386	248
114.0392	475
115.054	624
116.0579	73
123.0001	650
124.0067	176
125.0178	23
125.0368	10
126.0356	308
127.0433	582
128.0613	238
129.039	25
129.0559	17
130.0661	20
134.0239	643
134.9987	85
136.0073	348
137.0142	26
140.0491	81
141.0552	67
142.0639	47
146.9999	66
147.0271	25
148.0018	119
149.0153	373
150.0106	466
151.0178	11
152.0025	126
153.0465	13
154.039	85
155.0604	29
157.0273	29
161.0025	76
162.0106	163
163.0018	37
164.0016	31
164.0239	15
167.0254	16
175.0231	61
176.0237	54
189.0212	11
203.0184	114
