Mass spectrum: Cocaethylene; LC-ESI-QTOF; MS2; 40 V
Name: Cocaethylene
Class: Metabolite
Formula: C18H23NO4
Exact mass: 317.1627
SMILES: CCOC(=O)C1C2CCC(N2C)CC1OC(=O)C3=CC=CC=C3
InChI: InChI=1S/C18H23NO4/c1-3-22-18(21)16-14-10-9-13(19(14)2)11-15(16)23-17(20)12-7-5-4-6-8-12/h4-8,13-16H,3,9-11H2,1-2H3
Instrument: TripleTOF 6600 SCIEX
Instrument type: LC-ESI-QTOF
Ms type: MS2
Ion mode: POSITIVE
Collision energy: 40
Fragmentation mode: CID
Ionization: ESI
Column name: Zorbax Eclipse Plus C18 2.1 mm x 150 mm, 3.5 um, Agilent
Retention time: 7.013 min
Precursor m/z: 318.17
Precursor type: [M+H]+
m/z	relative intensity
44.0508	24
65.0396	12
67.0431	15
67.0548	47
68.0505	18
70.066	11
77.0396	92
79.055	12
81.07	15
82.0664	999
83.0499	16
83.0737	41
91.055	186
93.0336	20
93.0705	47
94.0656	30
96.081	33
105.0346	373
108.0816	197
111.0448	50
119.0497	190
122.097	137
132.0815	16
135.0684	12
140.071	22
150.0919	248
168.1023	116
196.134	931
