Mass spectrum: Naproxen; LC-ESI-QTOF; MS2; 60 V
Name: Naproxen
Class: Pharmaceutical
Formula: C14H14O3
Exact mass: 230.0943
SMILES: COc1ccc2cc(ccc2c1)C(C)C(O)=O
InChI: InChI=1S/C14H14O3/c1-9(14(15)16)10-3-4-12-8-13(17-2)6-5-11(12)7-10/h3-9H,1-2H3,(H,15,16)
Instrument: TripleTOF 5600 SCIEX
Instrument type: LC-ESI-QTOF
Ms type: MS2
Ion mode: POSITIVE
Collision energy: 60
Fragmentation mode: CID
Ionization: ESI
Column name: Zorbax Eclipse Plus C18 2.1 mm x 150 mm, 3.5 um, Agilent
Retention time: 10.907 min
Precursor m/z: 231.1016
Precursor type: [M+H]+
m/z	relative intensity
77.0416	42
89.0402	24
102.0463	20
114.0455	20
115.0542	880
115.083	10
126.0457	14
127.0536	104
128.062	179
129.07	26
139.0534	20
140.0628	14
141.0693	999
142.0436	16
142.0768	114
143.0493	20
144.0576	10
150.0473	18
151.0541	100
152.0619	490
153.0691	390
154.077	55
155.0496	40
155.0873	12
158.0709	18
168.0578	12
169.0651	161
170.0722	67
