Mass spectrum: Lomefloxacin; LC-ESI-QTOF; MS2; 50 V
Name: Lomefloxacin
Class: Pharmaceutical; Antimicrobial
Formula: C17H19F2N3O3
Exact mass: 351.1394
SMILES: CCn1cc(c(=O)c2c1c(c(c(c2)F)N3CCNC(C3)C)F)C(=O)O
InChI: InChI=1S/C17H19F2N3O3/c1-3-21-8-11(17(24)25)16(23)10-6-12(18)15(13(19)14(10)21)22-5-4-20-9(2)7-22/h6,8-9,20H,3-5,7H2,1-2H3,(H,24,25)
Instrument: TripleTOF 5600 SCIEX
Instrument type: LC-ESI-QTOF
Ms type: MS2
Ion mode: POSITIVE
Collision energy: 50
Fragmentation mode: CID
Ionization: ESI
Column name: Zorbax Eclipse Plus C18 2.1 mm x 150 mm, 3.5 um, Agilent
Retention time: 5.44 min
Precursor m/z: 352.1467
Precursor type: [M+H]+
m/z	relative intensity
134.0399	22
153.0382	22
155.0596	33
161.0568	28
162.0354	45
166.0337	22
166.0458	50
167.0429	33
167.0503	28
173.0509	28
174.0559	50
176.0527	22
179.0433	22
181.0319	50
182.0409	39
186.061	28
187.0653	50
188.0667	28
190.0662	22
193.0579	50
194.0645	248
195.0488	225
196.0465	67
197.0528	84
199.0658	28
202.053	129
203.0608	118
203.0983	33
206.0307	28
207.0757	39
208.0556	84
208.079	90
209.0545	135
215.0259	28
215.061	67
216.0664	62
217.0763	163
220.0481	39
221.0541	45
222.0592	220
223.0674	270
224.076	50
225.0819	50
228.0937	28
229.1018	22
230.0808	67
230.107	33
235.0275	33
235.0682	67
236.0501	39
236.0741	174
237.0838	999
238.0916	28
243.0546	79
243.1161	186
244.0508	129
245.1068	33
249.047	395
250.0942	22
251.1002	101
258.1403	39
262.0949	28
263.0636	135
263.0993	33
265.1137	468
271.0748	45
272.0805	39
286.098	124
291.1006	73
306.1054	112
314.1322	129
334.1382	129
