Mass spectrum: Isorhamnetin; LC-ESI-QTOF; MS2; 50 V
Name: Isorhamnetin
Class: Pharmaceutical; Metabolite
Formula: C16H12O7
Exact mass: 316.0583
SMILES: COc1cc(ccc1O)C2=C(O)C(=O)c3c(O)cc(O)cc3O2
InChI: InChI=1S/C16H12O7/c1-22-11-4-7(2-3-9(11)18)16-15(21)14(20)13-10(19)5-8(17)6-12(13)23-16/h2-6,17-19,21H,1H3
Instrument: TripleTOF 5600 SCIEX
Instrument type: LC-ESI-QTOF
Ms type: MS2
Ion mode: POSITIVE
Collision energy: 50
Fragmentation mode: CID
Ionization: ESI
Column name: Zorbax Eclipse Plus C18 2.1 mm x 150 mm, 3.5 um, Agilent
Retention time: 9.418 min
Precursor m/z: 317.0656
Precursor type: [M+H]+
m/z	relative intensity
65.0435	46
68.9995	26
92.0274	184
93.0348	98
108.0212	26
121.0287	78
122.0358	39
126.0297	52
131.0491	46
136.0128	26
137.0241	39
152.01	32
153.0179	999
155.0493	65
171.0412	39
177.0174	32
179.0333	65
183.0443	65
187.0376	39
189.0545	59
192.0425	52
199.0372	32
200.0474	72
201.0541	98
203.0331	289
217.0503	486
218.0545	72
219.0272	78
228.0405	387
229.0498	414
231.0278	124
232.0394	32
245.0438	492
246.0512	138
256.0395	39
257.0447	144
259.0251	39
273.041	111
274.0481	170
284.0315	39
285.0371	164
287.0135	39
301.0299	39
302.0425	131
