Mass spectrum: Pyrimethanil; LC-ESI-QTOF; MS2; 90 V
Name: Pyrimethanil
Class: Fungicide
Formula: C12H13N3
Exact mass: 199.1109
SMILES: CC1=CC(=NC(=N1)NC2=CC=CC=C2)C
InChI: InChI=1S/C12H13N3/c1-9-8-10(2)14-12(13-9)15-11-6-4-3-5-7-11/h3-8H,1-2H3,(H,13,14,15)
Instrument: TripleTOF 6600 SCIEX
Instrument type: LC-ESI-QTOF
Ms type: MS2
Ion mode: POSITIVE
Collision energy: 90
Fragmentation mode: CID
Ionization: ESI
Column name: Zorbax Eclipse Plus C18 2.1 mm x 150 mm, 3.5 um, Agilent
Retention time: 9.225 min
Precursor m/z: 200.1182
Precursor type: [M+H]+
m/z	relative intensity
35.9989	22
37.0073	72
38.0152	52
39.0231	228
40.0181	25
41.0259	37
42.0339	450
49.0072	67
50.0152	498
51.023	999
52.0176	22
53.0387	60
54.0338	20
61.0067	22
62.0143	40
63.0227	100
64.0187	12
65.0262	15
65.0383	145
66.0333	20
66.0459	30
67.029	135
67.0405	50
74.0143	45
75.0224	47
76.0184	20
76.0299	12
77.0381	163
78.0329	20
80.0486	22
86.0149	15
87.0221	30
88.0301	32
89.0373	52
90.0334	17
91.0414	15
92.0484	20
101.0374	17
102.0322	15
102.0465	12
113.0377	83
114.0322	25
114.0451	20
115.0537	17
126.0438	17
127.0521	22
140.0482	47
166.0586	10
179.0609	15
