Mass spectrum: Norlidocaine; LC-ESI-QTOF; MS2; 70 V
Name: Norlidocaine
Class: Pharmaceutical; Metabolite; Transformation_product-Metabolite
Formula: C12H18N2O
Exact mass: 206.1419
SMILES: CCNCC(=O)Nc1c(cccc1C)C
InChI: InChI=1S/C12H18N2O/c1-4-13-8-11(15)14-12-9(2)6-5-7-10(12)3/h5-7,13H,4,8H2,1-3H3,(H,14,15)
Instrument: TripleTOF 6600 SCIEX
Instrument type: LC-ESI-QTOF
Ms type: MS2
Ion mode: POSITIVE
Collision energy: 70
Fragmentation mode: CID
Ionization: ESI
Column name: Zorbax Eclipse Plus C18 2.1 mm x 150 mm, 3.5 um, Agilent
Retention time: 5.349 min
Precursor m/z: 207.1492
Precursor type: [M+H]+
m/z	relative intensity
30.0341	236
38.0028	37
39.0231	16
42.0342	23
50.0147	21
51.0231	142
52.0049	14
53.0128	28
53.0397	9
58.0654	999
65.0384	44
77.0385	445
79.0539	146
80.0497	23
89.0383	61
90.0461	44
91.0541	78
103.0544	47
105.0435	16
105.0696	35
106.0649	608
107.0488	16
107.0725	85
117.057	44
118.0643	23
