Mass spectrum: Trospium; LC-ESI-QTOF; MS2; 100 V
Name: Trospium
Class: Pharmaceutical
Formula: [C25H30NO3]+
Exact mass: 392.222
SMILES: C1CC[N+]2(C1)C3CCC2CC(C3)OC(=O)C(C4=CC=CC=C4)(C5=CC=CC=C5)O
InChI: InChI=1S/C25H30NO3/c27-24(25(28,19-9-3-1-4-10-19)20-11-5-2-6-12-20)29-23-17-21-13-14-22(18-23)26(21)15-7-8-16-26/h1-6,9-12,21-23,28H,7-8,13-18H2/q+1
Instrument: TripleTOF 6600 SCIEX
Instrument type: LC-ESI-QTOF
Ms type: MS2
Ion mode: POSITIVE
Collision energy: 100
Fragmentation mode: CID
Ionization: ESI
Column name: Zorbax Eclipse Plus C18 2.1 mm x 150 mm, 3.5 um, Agilent
Retention time: 7.411 min
Precursor m/z: 392.222
Precursor type: [M]+
m/z	relative intensity
39.0221	64
41.0379	64
51.0217	117
54.0321	109
55.0528	76
56.0475	101
65.0361	109
67.0521	230
68.0468	121
69.055	469
70.0628	355
72.0779	202
77.0357	999
79.0512	72
80.0459	113
82.0616	52
91.0501	594
93.0653	145
94.0605	133
96.0768	582
97.0845	586
98.0919	182
108.0762	125
110.092	97
120.0764	101
122.0918	133
136.1076	60
138.1231	283
182.1488	230
