Mass spectrum: Phenacetin; LC-ESI-QTOF; MS2; 40 V
Name: Phenacetin
Class: Pharmaceutical
Formula: C10H13NO2
Exact mass: 179.0946
SMILES: CCOC1=CC=C(C=C1)NC(=O)C
InChI: InChI=1S/C10H13NO2/c1-3-13-10-6-4-9(5-7-10)11-8(2)12/h4-7H,3H2,1-2H3,(H,11,12)
Instrument: TripleTOF 5600 SCIEX
Instrument type: LC-ESI-QTOF
Ms type: MS2
Ion mode: POSITIVE
Collision energy: 40
Fragmentation mode: CID
Ionization: ESI
Column name: Zorbax Eclipse Plus C18 2.1 mm x 150 mm, 3.5 um, Agilent
Retention time: 7.622 min
Precursor m/z: 180.1019
Precursor type: [M+H]+
m/z	relative intensity
38.0154	10
39.023	73
42.0337	11
43.0181	209
55.0542	11
65.0389	756
66.0467	13
67.0412	46
67.054	13
77.0376	21
80.0497	65
81.0569	22
82.065	103
92.0493	283
93.034	527
93.0565	153
108.0451	18
109.0525	143
110.0607	999
121.0393	10
134.0613	22
138.092	206
152.0714	37
162.093	22
180.1024	94
