Mass spectrum: Levocetirizine; LC-ESI-QTOF; MS2; 150 V
Name: Levocetirizine
Class: Pharmaceutical
Formula: C21H25ClN2O3
Exact mass: 388.1554
SMILES: C1CN(CCN1CCOCC(=O)O)[C@H](C2=CC=CC=C2)C3=CC=C(C=C3)Cl
InChI: InChI=1S/C21H25ClN2O3/c22-19-8-6-18(7-9-19)21(17-4-2-1-3-5-17)24-12-10-23(11-13-24)14-15-27-16-20(25)26/h1-9,21H,10-16H2,(H,25,26)/t21-/m1/s1
Instrument: TripleTOF 6600 SCIEX
Instrument type: LC-ESI-QTOF
Ms type: MS2
Ion mode: POSITIVE
Collision energy: 150
Fragmentation mode: CID
Ionization: ESI
Column name: Zorbax Eclipse Plus C18 2.1 mm x 150 mm, 3.5 um, Agilent
Retention time: 9.671 min
Precursor m/z: 389.1627
Precursor type: [M+H]+
m/z	relative intensity
62.0153	45
63.0237	152
65.0389	83
72.9836	53
87.0235	53
88.0313	30
89.039	221
91.0562	45
113.04	106
115.0552	549
126.0449	45
137.038	30
138.0476	45
139.0543	472
150.0459	30
162.0471	99
163.0549	999
164.0626	625
165.0711	617
