Mass spectrum: Erlotinib; LC-ESI-QTOF; MS2; 90 V
Name: Erlotinib
Class: Pharmaceutical
Formula: C22H23N3O4
Exact mass: 393.1689
SMILES: COCCOC1=C(C=C2C(=C1)C(=NC=N2)NC3=CC=CC(=C3)C#C)OCCOC
InChI: InChI=1S/C22H23N3O4/c1-4-16-6-5-7-17(12-16)25-22-18-13-20(28-10-8-26-2)21(29-11-9-27-3)14-19(18)23-15-24-22/h1,5-7,12-15H,8-11H2,2-3H3,(H,23,24,25)
Instrument: TripleTOF 5600 SCIEX
Instrument type: LC-ESI-QTOF
Ms type: MS2
Ion mode: POSITIVE
Collision energy: 90
Fragmentation mode: CID
Ionization: ESI
Column name: Zorbax Eclipse Plus C18 2.1 mm x 150 mm, 3.5 um, Agilent
Retention time: 7.429 min
Precursor m/z: 394.1761
Precursor type: [M+H]+
m/z	relative intensity
50.0154	15
51.0232	91
52.0192	17
53.0388	29
55.018	61
59.0495	77
63.0235	15
65.0394	66
67.0422	13
68.0494	45
73.0071	14
74.0149	120
75.0232	738
76.0185	14
77.026	30
77.0385	46
78.0341	145
79.018	72
80.0131	37
80.0509	13
81.0341	145
88.0186	31
89.0388	123
90.0335	24
90.0461	50
91.0189	21
91.0542	289
93.0456	42
94.053	11
95.0622	13
96.0446	161
97.0275	66
101.0392	999
102.0347	27
102.045	15
103.0435	11
104.0152	11
104.0374	130
105.0453	74
106.0292	279
107.0125	29
107.0367	11
108.021	42
109.0289	141
113.0387	18
115.0301	50
115.0542	36
116.0503	114
117.0574	235
118.0658	33
121.0403	72
122.0481	11
124.0396	47
125.0383	42
126.0464	21
127.0541	100
128.0498	114
129.0449	117
130.0437	14
130.0633	11
132.0082	31
132.0308	18
133.0398	33
134.0246	68
134.0464	15
135.0317	91
136.0398	49
137.0347	31
138.0467	17
139.0554	62
140.0495	98
141.0575	21
141.0685	15
142.0519	26
143.0254	17
143.0611	49
145.0401	13
148.0493	10
149.0372	97
149.0606	13
150.0444	312
151.0545	443
152.0511	314
153.0579	132
154.0652	139
155.0609	58
160.0286	15
160.0538	10
161.0358	411
162.036	31
162.051	11
163.0533	53
164.0508	103
165.0555	95
166.0651	133
167.0712	122
168.0733	47
169.0742	20
174.0403	18
175.0419	34
176.0506	359
177.0577	360
178.0649	351
179.0614	186
180.0476	11
180.0688	75
181.0747	78
182.0618	15
183.0571	27
187.0493	17
188.0509	98
189.0576	55
190.0646	106
191.0622	88
192.0689	301
193.0765	427
194.0675	20
194.0826	31
195.0929	46
200.0543	11
201.0441	11
201.0667	14
202.0549	36
203.0618	564
204.0682	255
205.0768	455
206.0694	180
207.078	78
208.0673	21
209.073	30
210.0634	11
211.0522	11
213.0459	34
214.0532	33
215.0618	90
216.0711	31
217.0668	85
218.0732	117
219.0798	132
220.0884	449
221.0709	229
222.0719	13
222.1011	15
223.0629	11
223.0886	11
228.0623	11
229.0617	10
230.0727	587
231.0807	469
232.089	110
233.0714	24
234.0739	26
235.073	11
236.0713	17
237.0677	117
242.0738	18
243.0815	31
244.0903	14
246.0675	270
247.0762	100
248.0822	174
249.0908	15
250.0761	11
250.0954	10
251.0831	21
258.0688	36
259.0534	36
259.0744	103
260.0829	97
261.0646	18
274.0661	21
275.0715	141
276.0783	285
278.0937	55
