Mass spectrum: Itraconazole; LC-ESI-QTOF; MS2; 150 V
Name: Itraconazole
Class: Pharmaceutical
Formula: C35H38Cl2N8O4
Exact mass: 704.2393
SMILES: CCC(C)N1C(=O)N(C=N1)C2=CC=C(C=C2)N3CCN(CC3)C4=CC=C(C=C4)OCC5COC(O5)(CN6C=NC=N6)C7=C(C=C(C=C7)Cl)Cl
InChI: InChI=1S/C35H38Cl2N8O4/c1-3-25(2)45-34(46)44(24-40-45)29-7-5-27(6-8-29)41-14-16-42(17-15-41)28-9-11-30(12-10-28)47-19-31-20-48-35(49-31,21-43-23-38-22-39-43)32-13-4-26(36)18-33(32)37/h4-13,18,22-25,31H,3,14-17,19-21H2,1-2H3
Instrument: TripleTOF 5600 SCIEX
Instrument type: LC-ESI-QTOF
Ms type: MS2
Ion mode: POSITIVE
Collision energy: 150
Fragmentation mode: CID
Ionization: ESI
Column name: Zorbax Eclipse Plus C18 2.1 mm x 150 mm, 3.5 um, Agilent
Retention time: 13.565 min
Precursor m/z: 705.2466
Precursor type: [M+H]+
m/z	relative intensity
56.0544	0
77.034	124
77.042	124
79.0538	249
89.0423	249
91.0536	749
92.0518	124
103.0543	249
104.0489	374
105.0384	124
105.0572	374
106.0648	124
107.0489	124
115.05	124
117.058	0
117.0697	249
118.0653	749
119.0716	249
120.0527	249
120.0809	124
123.0022	124
124.0116	0
130.058	124
131.0639	249
132.0702	124
133.0407	124
144.0832	374
158.9778	999
160.055	124
161.0623	124
