Mass spectrum: Meperidine; LC-ESI-QTOF; MS2; 150 V
Name: Meperidine
Class: Pharmaceutical
Formula: C15H21NO2
Exact mass: 247.1572
SMILES: CCOC(=O)C1(CCN(CC1)C)C2=CC=CC=C2
InChI: InChI=1S/C15H21NO2/c1-3-18-14(17)15(9-11-16(2)12-10-15)13-7-5-4-6-8-13/h4-8H,3,9-12H2,1-2H3
Instrument: TripleTOF 6600 SCIEX
Instrument type: LC-ESI-QTOF
Ms type: MS2
Ion mode: POSITIVE
Collision energy: 150
Fragmentation mode: CID
Ionization: ESI
Column name: Zorbax Eclipse Plus C18 2.1 mm x 150 mm, 3.5 um, Agilent
Retention time: 6.573 min
Precursor m/z: 248.1645
Precursor type: [M+H]+
m/z	relative intensity
30.034	26
35.999	55
37.0071	263
38.0027	29
38.0149	196
39.0227	647
40.0182	31
41.0257	96
41.0379	23
42.0337	618
43.0411	28
44.0494	287
49.0068	96
50.0148	793
51.0227	999
52.0302	19
53.0388	14
54.0337	14
59.999	26
61.0066	178
62.0146	299
63.0224	331
65.0381	135
67.0425	11
73.0067	35
74.0141	246
75.023	82
76.03	37
77.0377	158
78.0456	19
80.0491	32
85.0062	23
86.0151	50
87.0222	25
89.0378	82
91.053	19
102.0457	26
115.0544	84
126.0438	16
128.0595	14
