Mass spectrum: Acetonyltriphenylphosphonium; LC-ESI-QTOF; MS2; 30 V
Name: Acetonyltriphenylphosphonium
Class: Industrial_process
Formula: [C21H20OP]+
Exact mass: 319.1246
SMILES: CC(=O)C[P+](C1=CC=CC=C1)(C2=CC=CC=C2)C3=CC=CC=C3
InChI: InChI=1S/C21H20OP/c1-18(22)17-23(19-11-5-2-6-12-19,20-13-7-3-8-14-20)21-15-9-4-10-16-21/h2-16H,17H2,1H3/q+1
Instrument: TripleTOF 5600 SCIEX
Instrument type: LC-ESI-QTOF
Ms type: MS2
Ion mode: POSITIVE
Collision energy: 30
Fragmentation mode: CID
Ionization: ESI
Column name: Zorbax Eclipse Plus C18 2.1 mm x 150 mm, 3.5 um, Agilent
Retention time: 7.28 min
Precursor m/z: 319.1246
Precursor type: [M]+
m/z	relative intensity
201.0458	126
262.09	106
275.0977	216
277.1131	78
279.0917	488
319.1234	999
