Mass spectrum: Deethylatrazine; LC-ESI-QTOF; MS2; 130 V
Name: Deethylatrazine
Class: Transformation_product; Herbicide; Metabolite
Formula: C6H10ClN5
Exact mass: 187.0625
SMILES: CC(C)NC1=NC(=NC(=N1)N)Cl
InChI: InChI=1S/C6H10ClN5/c1-3(2)9-6-11-4(7)10-5(8)12-6/h3H,1-2H3,(H3,8,9,10,11,12)
Instrument: TripleTOF 6600 SCIEX
Instrument type: LC-ESI-QTOF
Ms type: CID
Ion mode: POSITIVE
Collision energy: 130
Ionization: ESI
Column name: Zorbax Eclipse Plus C18 2.1 mm x 150 mm, 3.5 um, Agilent
Retention time: 6.911 min
Precursor m/z: 188.0698
Precursor type: [M+H]+
m/z	relative intensity
37.0071	87
38.0028	46
38.0159	105
39.0229	157
41.0135	146
41.0377	35
42.0213	169
43.0294	999
53.0132	128
61.9791	771
68.0238	122
