Mass spectrum: Metalaxyl; LC-ESI-QTOF; MS2; 50 V
Name: Metalaxyl
Class: Fungicide
Formula: C15H21NO4
Exact mass: 279.1471
SMILES: CC1=C(C(=CC=C1)C)N(C(C)C(=O)OC)C(=O)COC
InChI: InChI=1S/C15H21NO4/c1-10-7-6-8-11(2)14(10)16(13(17)9-19-4)12(3)15(18)20-5/h6-8,12H,9H2,1-5H3
Instrument: TripleTOF 6600 SCIEX
Instrument type: LC-ESI-QTOF
Ms type: MS2
Ion mode: POSITIVE
Collision energy: 50
Fragmentation mode: CID
Ionization: ESI
Column name: Zorbax Eclipse Plus C18 2.1 mm x 150 mm, 3.5 um, Agilent
Retention time: 10.17 min
Precursor m/z: 280.1543
Precursor type: [M+H]+
m/z	relative intensity
45.0338	999
77.0383	36
79.0535	65
91.0542	98
93.0702	15
103.0539	53
105.0697	299
106.0643	20
106.0771	31
107.0854	36
115.0549	33
117.0572	125
118.0646	105
119.0728	23
119.0847	75
120.0804	60
121.0879	40
128.0616	23
130.0646	319
131.073	111
132.0806	733
133.0881	242
134.0961	638
135.067	20
143.0714	11
143.084	13
144.0805	225
145.0886	556
146.0963	100
147.1027	30
148.1119	337
149.0836	21
150.0904	55
158.096	16
160.112	935
162.1276	170
164.1062	48
192.1379	25
