Mass spectrum: Iminostilbene; LC-ESI-QTOF; MS2; 120 V
Name: Iminostilbene
Class: Pharmaceutical
Formula: C14H11N
Exact mass: 193.0891
SMILES: C1=CC=C2C(=C1)C=CC3=CC=CC=C3N2
InChI: InChI=1S/C14H11N/c1-3-7-13-11(5-1)9-10-12-6-2-4-8-14(12)15-13/h1-10,15H
Instrument: TripleTOF 6600 SCIEX
Instrument type: LC-ESI-QTOF
Ms type: MS2
Ion mode: POSITIVE
Collision energy: 120
Fragmentation mode: CID
Ionization: ESI
Column name: Zorbax Eclipse Plus C18 2.1 mm x 150 mm, 3.5 um, Agilent
Retention time: 13.175 min
Precursor m/z: 194.0964
Precursor type: [M+H]+
m/z	relative intensity
35.9964	52
37.0041	252
38.0003	12
38.0117	169
39.0197	471
49.0029	141
50.0109	900
51.0186	627
52.0137	23
52.0259	32
59.9938	33
61.0019	378
62.0098	715
63.0175	999
64.0119	30
64.0248	19
65.0328	65
73.0008	126
74.0086	894
75.0161	326
76.0113	31
76.0234	77
77.0314	66
83.9917	24
84.9996	213
86.0073	394
87.015	288
88.0103	38
88.0222	33
89.0305	264
96.9981	68
98.0064	474
99.0016	34
99.0135	78
100.009	11
100.0207	15
101.0289	15
102.0367	19
108.9971	94
110.0049	167
111.0007	22
111.0127	66
113.0282	116
114.0231	23
115.0436	33
120.9962	23
122.0038	92
122.9996	18
123.0113	16
126.0349	23
134.0025	20
137.0259	81
138.0336	11
139.0412	34
140.037	20
149.0255	10
150.0326	54
161.0242	108
162.0311	99
163.0392	127
164.0343	34
188.0321	60
189.041	21
