Mass spectrum: Losartan; LC-ESI-QTOF; MS2; 40 V
Name: Losartan
Class: Pharmaceutical
Formula: C22H23ClN6O
Exact mass: 422.1622
SMILES: CCCCc1nc(c(n1Cc2ccc(cc2)c3ccccc3c4n[nH]nn4)CO)Cl
InChI: InChI=1S/C22H23ClN6O/c1-2-3-8-20-24-21(23)19(14-30)29(20)13-15-9-11-16(12-10-15)17-6-4-5-7-18(17)22-25-27-28-26-22/h4-7,9-12,30H,2-3,8,13-14H2,1H3,(H,25,26,27,28)
Instrument: TripleTOF 5600 SCIEX
Instrument type: LC-ESI-QTOF
Ms type: CID
Ion mode: NEGATIVE
Collision energy: 40
Ionization: ESI
Column name: Zorbax Eclipse Plus C18 2.1 mm x 150 mm, 3.5 um, Agilent
Retention time: 9.819 min
Precursor m/z: 421.1549
Precursor type: [M-H]-
m/z	relative intensity
113.9996	60
127.0071	999
155.0385	50
156.0456	183
157.0536	733
169.0546	106
179.0871	751
187.0648	370
193.0653	68
195.0815	157
272.1432	86
291.0714	60
320.1104	52
335.1312	219
363.1362	57
421.1549	595
