Mass spectrum: Rifaximin; LC-ESI-QTOF; MS2; 110 V
Name: Rifaximin
Class: Pharmaceutical
Formula: C43H51N3O11
Exact mass: 785.3524
SMILES: CC1C=CC=C(C(=O)NC2=C(C3=C(C4=C(C(=C3O)C)OC(C4=O)(OC=CC(C(C(C(C(C(C1O)C)O)C)OC(=O)C)C)OC)C)C5=C2N6C=CC(=CC6=N5)C)O)C
InChI: InChI=1S/C43H51N3O11/c1-19-14-16-46-28(18-19)44-32-29-30-37(50)25(7)40-31(29)41(52)43(9,57-40)55-17-15-27(54-10)22(4)39(56-26(8)47)24(6)36(49)23(5)35(48)20(2)12-11-13-21(3)42(53)45-33(34(32)46)38(30)51/h11-18,20,22-24,27,35-36,39,48-51H,1-10H3,(H,45,53)
Instrument: TripleTOF 6600 SCIEX
Instrument type: LC-ESI-QTOF
Ms type: MS2
Ion mode: POSITIVE
Collision energy: 110
Fragmentation mode: CID
Ionization: ESI
Column name: Zorbax Eclipse Plus C18 2.1 mm x 150 mm, 3.5 um, Agilent
Retention time: 11.765 min
Precursor m/z: 786.3597
Precursor type: [M+H]+
m/z	relative intensity
39.022	54
41.0379	115
43.0171	255
43.0532	30
55.0169	24
55.0531	158
57.0322	42
65.0376	134
67.0532	456
69.0325	121
69.0688	127
71.0485	30
77.0374	347
78.0454	30
79.053	377
80.0601	30
81.0684	255
83.048	60
85.0643	24
91.0529	889
92.0476	42
92.0599	36
93.0686	353
94.0735	36
95.0482	310
95.0691	24
95.0843	852
97.0631	152
103.0528	85
104.0606	30
105.0431	30
105.0687	785
107.0476	91
107.0843	554
108.0556	103
109.0637	365
109.0996	85
111.0442	30
111.0788	103
115.0533	152
116.0596	54
117.0687	164
118.0771	30
119.0597	54
119.0841	347
121.0634	194
121.0993	134
122.0719	36
123.0794	395
123.1178	30
125.0958	36
127.0529	30
128.0609	121
129.0687	158
130.0761	164
131.0845	176
132.0905	36
133.0643	188
133.1001	158
135.0788	201
135.115	48
136.0866	30
137.0948	36
141.0687	60
142.0759	152
143.0843	134
144.0909	42
145.0634	42
145.0999	237
146.0701	60
146.1071	42
147.0792	85
147.115	91
148.0869	103
149.0959	91
151.0746	60
153.0681	42
155.0839	121
156.091	60
157.0993	103
158.072	60
158.1083	67
159.0794	42
159.1177	73
160.0879	67
161.0944	103
163.1113	268
165.0689	54
166.0731	30
170.1092	85
171.0787	30
173.0954	85
173.1313	42
175.1117	30
179.0844	48
180.0919	36
181.1012	36
183.1177	30
186.1024	54
191.0843	24
193.0993	42
195.0781	36
195.1154	36
205.0751	36
206.081	36
219.0912	121
220.0993	121
221.1047	36
221.1307	24
231.0895	54
232.0991	36
233.093	48
233.1087	85
234.0769	24
234.1031	91
235.0848	36
237.0921	24
243.0888	42
244.0875	36
245.1026	73
246.1003	54
247.0872	115
248.0934	164
248.1134	36
249.1019	146
256.0868	30
257.1086	30
258.1012	30
260.1166	48
261.1015	140
262.0952	73
263.1136	152
264.0902	67
264.1114	67
265.0897	36
266.0898	30
271.0881	67
272.093	73
273.1014	115
274.0978	73
275.0814	67
275.1193	24
276.0888	140
276.1087	30
277.097	213
278.0914	30
278.1028	42
278.1305	48
280.1073	30
286.0951	36
287.1039	36
288.0859	24
288.1124	85
289.0976	152
290.0911	188
291.1057	420
292.1086	243
293.0949	30
293.1166	24
299.08	36
300.1073	24
301.0971	201
302.0918	121
303.0793	67
303.108	79
304.0849	36
304.1087	91
305.0924	170
305.1173	67
306.1246	237
307.1104	97
308.1096	42
314.0912	67
315.0994	30
316.1081	225
317.0906	225
317.1201	30
318.0931	158
319.1049	219
320.1019	91
326.0929	30
327.0983	30
328.1072	24
329.0918	152
330.0879	60
331.1051	121
332.0777	79
332.1037	280
333.0851	67
333.1069	42
334.1207	261
340.1055	42
341.1215	24
342.0926	24
343.1015	30
344.1032	328
344.1442	30
345.0869	292
346.0965	383
346.1223	48
347.1011	432
348.1086	127
348.1484	42
349.114	36
350.1273	30
356.1041	36
358.1086	73
359.1065	103
360.0985	529
361.1052	304
362.1142	999
363.1182	73
363.1385	60
364.1434	30
367.1316	67
368.1382	109
370.1254	30
371.0996	30
372.1004	127
372.143	30
373.105	30
374.1152	54
376.1485	54
377.1528	30
380.1468	30
381.1459	48
382.1181	67
382.1505	36
384.1339	36
385.1108	42
387.122	91
390.1212	48
392.1342	30
394.1557	60
396.1337	79
396.1773	30
398.1138	152
398.1493	30
399.1209	42
400.1274	79
404.1379	30
408.1337	60
410.151	67
411.1411	30
412.126	67
418.1181	36
420.1369	36
422.1503	60
424.1308	48
426.144	79
432.1318	54
433.1441	67
434.1506	48
435.1193	73
436.1299	194
437.1329	73
438.1419	164
446.1502	85
448.1259	85
448.1651	134
450.1447	280
451.1539	48
452.1602	152
462.1557	36
464.1577	36
466.1755	121
476.1628	48
478.1755	30
490.1761	24
494.1715	30
