Mass spectrum: Diphenhydramine; LC-ESI-QTOF; MS2; 130 V
Name: Diphenhydramine
Class: Pharmaceutical
Formula: C17H21NO
Exact mass: 255.1623
SMILES: CN(C)CCOC(c1ccccc1)c2ccccc2
InChI: InChI=1S/C17H21NO/c1-18(2)13-14-19-17(15-9-5-3-6-10-15)16-11-7-4-8-12-16/h3-12,17H,13-14H2,1-2H3
Instrument: TripleTOF 5600 SCIEX
Instrument type: LC-ESI-QTOF
Ms type: MS2
Ion mode: POSITIVE
Collision energy: 130
Fragmentation mode: CID
Ionization: ESI
Column name: Zorbax Eclipse Plus C18 2.1 mm x 150 mm, 3.5 um, Agilent
Retention time: 7.721 min
Precursor m/z: 256.1696
Precursor type: [M+H]+
m/z	relative intensity
52.0369	17
60.0053	21
65.0426	134
73.0102	30
74.0183	286
75.0257	128
76.0338	164
77.0415	147
78.0494	67
85.0091	62
86.017	188
87.0242	181
88.0313	28
89.0404	385
91.056	28
97.0074	16
98.0161	192
99.0235	72
100.0309	41
101.0401	14
102.0463	144
109.0057	19
110.0153	63
111.022	44
113.0383	133
114.0485	20
115.0542	429
122.0149	27
125.037	47
126.0461	168
127.0527	43
128.06	23
137.0379	82
138.0447	48
139.0538	296
149.037	39
150.0456	288
151.0535	105
152.0608	24
161.0379	72
162.0456	202
163.0535	999
164.0611	230
165.0698	167
