Mass spectrum: Estrone sulfate; LC-ESI-QTOF; MS2; 120 V
Name: Estrone sulfate
Class: Pharmaceutical
Formula: C18H22O5S
Exact mass: 350.1188
SMILES: CC12CCC3C(C1CCC2=O)CCC4=C3C=CC(=C4)OS(=O)(=O)O
InChI: InChI=1S/C18H22O5S/c1-18-9-8-14-13-5-3-12(23-24(20,21)22)10-11(13)2-4-15(14)16(18)6-7-17(18)19/h3,5,10,14-16H,2,4,6-9H2,1H3,(H,20,21,22)
Instrument: TripleTOF 5600 SCIEX
Instrument type: LC-ESI-QTOF
Ms type: MS2
Ion mode: NEGATIVE
Collision energy: 120
Fragmentation mode: CID
Ionization: ESI
Column name: Zorbax Eclipse Plus C18 2.1 mm x 150 mm, 3.5 um, Agilent
Retention time: 11.112 min
Precursor m/z: 349.1115
Precursor type: [M-H]-
m/z	relative intensity
79.9565	209
115.0551	165
130.043	82
143.0508	999
145.0664	139
