Mass spectrum: 4-Methoxyphenol; LC-ESI-QTOF; MS2; 10 V
Name: 4-Methoxyphenol
Class: Food_additive; Industrial_process; Metabolite; Pharmaceutical
Formula: C7H8O2
Exact mass: 124.0524
SMILES: COc1ccc(O)cc1
InChI: InChI=1S/C7H8O2/c1-9-7-4-2-6(8)3-5-7/h2-5,8H,1H3
Instrument: TripleTOF 5600 SCIEX
Instrument type: LC-ESI-QTOF
Ms type: CID
Ion mode: POSITIVE
Collision energy: 10
Ionization: ESI
Column name: Zorbax Eclipse Plus C18 2.1 mm x 150 mm, 3.5 um, Agilent
Retention time: 6.955 min
Precursor m/z: 125.0597
Precursor type: [M+H]+
m/z	relative intensity
65.0408	10
93.0343	37
110.036	148
125.0599	999
