Mass spectrum: Foramsulfuron; LC-ESI-QTOF; MS2; 140 V
Name: Foramsulfuron
Class: Herbicide
Formula: C17H20N6O7S
Exact mass: 452.1114
SMILES: CN(C)C(=O)C1=C(C=C(C=C1)NC=O)S(=O)(=O)NC(=O)NC2=NC(=CC(=N2)OC)OC
InChI: InChI=1S/C17H20N6O7S/c1-23(2)15(25)11-6-5-10(18-9-24)7-12(11)31(27,28)22-17(26)21-16-19-13(29-3)8-14(20-16)30-4/h5-9H,1-4H3,(H,18,24)(H2,19,20,21,22,26)
Instrument: TripleTOF 6600 SCIEX
Instrument type: LC-ESI-QTOF
Ms type: MS2
Ion mode: POSITIVE
Collision energy: 140
Fragmentation mode: CID
Ionization: ESI
Column name: Zorbax Eclipse Plus C18 2.1 mm x 150 mm, 3.5 um, Agilent
Retention time: 8.823 min
Precursor m/z: 453.1187
Precursor type: [M+H]+
m/z	relative intensity
38.0119	47
40.028	71
41.0127	20
41.0365	74
42.02	16
42.0313	27
42.044	33
43.0386	67
44.0595	30
50.0257	23
52.0286	27
53.0126	20
53.0246	13
54.0445	33
55.0399	50
56.0236	179
57.0549	44
61.0164	16
62.0258	33
63.0331	159
64.0292	37
64.0405	27
65.024	372
65.0489	626
66.0307	44
66.0446	40
67.0155	84
68.023	135
69.0076	172
69.018	335
70.0402	44
71.0705	23
77.0483	104
78.0441	257
79.039	16
79.0509	16
79.0632	16
80.06	108
81.054	30
82.0393	60
83.0339	999
90.0444	57
91.0521	27
92.0594	98
93.018	626
93.0669	13
94.0249	30
94.0744	64
95.0352	13
105.0534	243
106.0391	20
106.0732	27
109.0483	13
110.0438	20
119.0671	27
138.0393	27
140.0538	20
