Mass spectrum: Metrafenone; LC-ESI-QTOF; MS2; 50 V
Name: Metrafenone
Class: Fungicide
Formula: C19H21BrO5
Exact mass: 408.0572
SMILES: CC1=CC(=C(C(=C1C(=O)C2=C(C=CC(=C2C)Br)OC)OC)OC)OC
InChI: InChI=1S/C19H21BrO5/c1-10-9-14(23-4)18(24-5)19(25-6)15(10)17(21)16-11(2)12(20)7-8-13(16)22-3/h7-9H,1-6H3
Instrument: TripleTOF 6600 SCIEX
Instrument type: LC-ESI-QTOF
Ms type: MS2
Ion mode: POSITIVE
Collision energy: 50
Fragmentation mode: CID
Ionization: ESI
Column name: Zorbax Eclipse Plus C18 2.1 mm x 150 mm, 3.5 um, Agilent
Retention time: 15.123 min
Precursor m/z: 409.0645
Precursor type: [M+H]+
m/z	relative intensity
77.0418	35
89.0417	45
90.0501	93
91.0579	116
92.0654	70
105.0365	54
106.0435	11
107.0512	11
108.0598	16
109.0685	13
119.052	29
120.0596	130
123.0466	26
134.0387	17
135.0462	42
136.0555	68
137.0619	42
147.0468	22
148.0544	143
149.0627	11
151.0416	65
155.9593	11
163.0404	10
164.0488	16
165.057	284
166.0647	516
168.9667	472
170.9821	13
176.0482	71
179.0341	35
182.9453	59
183.9529	273
193.0515	39
194.0596	178
196.9721	72
209.0819	521
211.9475	189
226.971	999
