Mass spectrum: 4-Chlorosalicylic acid; LC-ESI-QTOF; MS2; 80 V
Name: 4-Chlorosalicylic acid
Class: Industrial_process; Antimicrobial; Pharmaceutical
Formula: C7H5ClO3
Exact mass: 171.9927
SMILES: OC(=O)c1ccc(Cl)cc1O
InChI: InChI=1S/C7H5ClO3/c8-4-1-2-5(7(10)11)6(9)3-4/h1-3,9H,(H,10,11)
Instrument: TripleTOF 5600 SCIEX
Instrument type: LC-ESI-QTOF
Ms type: MS2
Ion mode: NEGATIVE
Collision energy: 80
Fragmentation mode: CID
Ionization: ESI
Column name: Zorbax Eclipse Plus C18 2.1 mm x 150 mm, 3.5 um, Agilent
Retention time: 9.6 min
Precursor m/z: 170.9854
Precursor type: [M-H]-
m/z	relative intensity
41.0071	499
65.0043	999
