Mass spectrum: Hexamethylenetetramine; LC-ESI-QTOF; MS2; 10 V
Name: Hexamethylenetetramine
Class: Food_additive; Industrial_process; Personal_care_product; Pharmaceutical; Antimicrobial
Formula: C6H12N4
Exact mass: 140.1062
SMILES: C1N2CN3CN1CN(C2)C3
InChI: InChI=1S/C6H12N4/c1-7-2-9-4-8(1)5-10(3-7)6-9/h1-6H2
Instrument: TripleTOF 5600 SCIEX
Instrument type: LC-ESI-QTOF
Ms type: MS2
Ion mode: POSITIVE
Collision energy: 10
Fragmentation mode: CID
Ionization: ESI
Column name: Zorbax Eclipse Plus C18 2.1 mm x 150 mm, 3.5 um, Agilent
Retention time: 24.707 min
Precursor m/z: 141.1135
Precursor type: [M+H]+
m/z	relative intensity
85.0787	14
98.073	27
112.0877	81
141.1134	999
