Mass spectrum: Nevirapine; LC-ESI-QTOF; MS2; 100 V
Name: Nevirapine
Class: Pharmaceutical
Formula: C15H14N4O
Exact mass: 266.1168
SMILES: Cc1ccnc2N(C3CC3)c4ncccc4C(=O)Nc12
InChI: InChI=1S/C15H14N4O/c1-9-6-8-17-14-12(9)18-15(20)11-3-2-7-16-13(11)19(14)10-4-5-10/h2-3,6-8,10H,4-5H2,1H3,(H,18,20)
Instrument: TripleTOF 5600 SCIEX
Instrument type: LC-ESI-QTOF
Ms type: MS2
Ion mode: POSITIVE
Collision energy: 100
Fragmentation mode: CID
Ionization: ESI
Column name: Zorbax Eclipse Plus C18 2.1 mm x 150 mm, 3.5 um, Agilent
Retention time: 7.301 min
Precursor m/z: 267.124
Precursor type: [M+H]+
m/z	relative intensity
52.0253	59
52.0358	181
53.0445	504
54.0419	25
62.0401	15
64.0347	34
65.0301	50
65.0418	150
66.0372	137
67.0452	159
68.0524	12
74.0179	68
75.0137	50
75.0254	191
76.0211	435
77.0279	68
77.0411	263
78.0363	999
78.0711	15
79.0305	15
79.0437	238
80.0515	319
87.0238	21
88.0201	43
88.033	37
89.0401	247
89.0718	15
90.0358	222
91.0311	25
91.0425	84
92.0385	125
92.0484	72
93.0455	234
94.0515	12
95.0613	18
99.0231	34
100.0179	28
100.0281	34
101.039	125
102.0335	212
102.0541	18
103.0291	382
103.0727	15
104.0367	81
104.0479	128
105.0205	15
105.0444	187
106.0621	15
107.0604	15
113.0363	37
114.0338	194
115.0413	122
116.0353	21
116.0485	234
117.047	259
118.0392	28
118.0512	109
119.05	21
119.0603	40
120.0563	56
125.0337	12
126.0355	87
127.0409	153
128.0355	40
128.0495	131
129.0439	191
130.0468	75
130.0632	15
131.0608	93
132.0536	18
133.063	15
139.0391	31
140.0484	75
141.0463	84
142.053	206
143.0584	137
144.0544	40
144.0674	12
145.0485	21
145.073	21
151.04	25
152.0468	25
153.0446	109
154.0374	15
154.0503	37
155.0596	209
156.0552	119
157.0628	28
165.0431	21
166.0543	37
167.0542	56
168.0557	147
169.0616	184
170.0703	175
171.0738	28
179.0609	34
180.0564	97
181.0614	59
182.0688	109
183.0769	37
192.0658	21
193.0655	25
194.0689	62
195.0673	75
196.0754	28
197.0816	40
204.052	12
206.0698	43
207.0674	25
218.0725	15
220.0742	25
221.0813	28
