Mass spectrum: Phencyclidine; LC-ESI-QTOF; MS2; 150 V
Name: Phencyclidine
Class: Pharmaceutical
Formula: C17H25N
Exact mass: 243.1987
SMILES: C1CCC(CC1)(C2=CC=CC=C2)N3CCCCC3
InChI: InChI=1S/C17H25N/c1-4-10-16(11-5-1)17(12-6-2-7-13-17)18-14-8-3-9-15-18/h1,4-5,10-11H,2-3,6-9,12-15H2
Instrument: TripleTOF 6600 SCIEX
Instrument type: LC-ESI-QTOF
Ms type: MS2
Ion mode: POSITIVE
Collision energy: 150
Fragmentation mode: CID
Ionization: ESI
Column name: Zorbax Eclipse Plus C18 2.1 mm x 150 mm, 3.5 um, Agilent
Retention time: 7.311 min
Precursor m/z: 244.206
Precursor type: [M+H]+
m/z	relative intensity
30.033	12
35.9983	74
37.0065	446
38.0141	350
39.0222	999
41.0373	40
49.0068	58
50.014	288
51.0217	213
59.9977	29
61.006	136
62.0138	236
63.0216	174
65.0373	143
74.014	52
75.0221	11
77.0362	13
89.0365	19
91.0522	11
115.0549	17
