Mass spectrum: Quercetin; LC-ESI-QTOF; MS2; 40 V
Name: Quercetin
Class: Food_additive; Pharmaceutical
Formula: C15H10O7
Exact mass: 302.0427
SMILES: Oc1cc(O)c2C(=O)C(=C(Oc2c1)c3ccc(O)c(O)c3)O
InChI: InChI=1S/C15H10O7/c16-7-4-10(19)12-11(5-7)22-15(14(21)13(12)20)6-1-2-8(17)9(18)3-6/h1-5,16-19,21H
Instrument: TripleTOF 5600 SCIEX
Instrument type: LC-ESI-QTOF
Ms type: MS2
Ion mode: POSITIVE
Collision energy: 40
Fragmentation mode: CID
Ionization: ESI
Column name: Zorbax Eclipse Plus C18 2.1 mm x 150 mm, 3.5 um, Agilent
Retention time: 8.074 min
Precursor m/z: 303.0495
Precursor type: [M+H]+
m/z	relative intensity
69.0034	199
69.0435	124
93.0443	120
109.0297	205
117.0758	125
121.0349	228
137.0239	637
153.0196	999
155.049	339
163.0371	127
165.0164	159
166.0257	149
173.0606	283
183.0416	224
200.0454	117
201.0489	163
201.0575	211
229.0465	820
229.0626	224
