Mass spectrum: 5-Fluorouracil; LC-ESI-QTOF; MS2; 20 V
Name: 5-Fluorouracil
Class: Pharmaceutical
Formula: C4H3FN2O2
Exact mass: 130.0179
SMILES: C1=C(C(=O)NC(=O)N1)F
InChI: InChI=1S/C4H3FN2O2/c5-2-1-6-4(9)7-3(2)8/h1H,(H2,6,7,8,9)
Instrument: TripleTOF 5600 SCIEX
Instrument type: LC-ESI-QTOF
Ms type: MS2
Ion mode: NEGATIVE
Collision energy: 20
Fragmentation mode: CID
Ionization: ESI
Column name: Zorbax Eclipse Plus C18 2.1 mm x 150 mm, 3.5 um, Agilent
Retention time: 1.291 min
Precursor m/z: 129.0106
Precursor type: [M-H]-
m/z	relative intensity
41.999	433
129.0114	999
