Mass spectrum: Sertaconazole; LC-ESI-QTOF; MS2; 130 V
Name: Sertaconazole
Class: Fungicide; Pharmaceutical; Antimicrobial
Formula: C20H15Cl3N2OS
Exact mass: 435.9971
SMILES: C1=CC2=C(C(=C1)Cl)SC=C2COC(CN3C=CN=C3)C4=C(C=C(C=C4)Cl)Cl
InChI: InChI=1S/C20H15Cl3N2OS/c21-14-4-5-16(18(23)8-14)19(9-25-7-6-24-12-25)26-10-13-11-27-20-15(13)2-1-3-17(20)22/h1-8,11-12,19H,9-10H2
Instrument: TripleTOF 5600 SCIEX
Instrument type: LC-ESI-QTOF
Ms type: MS2
Ion mode: POSITIVE
Collision energy: 130
Fragmentation mode: CID
Ionization: ESI
Column name: Zorbax Eclipse Plus C18 2.1 mm x 150 mm, 3.5 um, Agilent
Retention time: 10.403 min
Precursor m/z: 437.0043
Precursor type: [M+H]+
m/z	relative intensity
68.9831	174
69.0481	33
74.0182	59
75.0257	201
76.0335	66
78.9429	17
81.047	50
88.0324	15
89.0405	15
92.9807	56
94.9961	11
101.0392	231
102.0475	999
110.9997	41
113.0386	24
114.0462	77
118.9954	23
120.0026	37
122.9997	15
129.0448	17
136.0077	17
137.0151	22
145.0111	566
146.0187	140
149.0151	143
154.9716	55
180.9872	63
189.0695	14
200.0644	14
232.0322	18
