Mass spectrum: Nevirapine; LC-ESI-QTOF; MS2; 30 V
Name: Nevirapine
Class: Pharmaceutical
Formula: C15H14N4O
Exact mass: 266.1168
SMILES: Cc1ccnc2N(C3CC3)c4ncccc4C(=O)Nc12
InChI: InChI=1S/C15H14N4O/c1-9-6-8-17-14-12(9)18-15(20)11-3-2-7-16-13(11)19(14)10-4-5-10/h2-3,6-8,10H,4-5H2,1H3,(H,18,20)
Instrument: TripleTOF 5600 SCIEX
Instrument type: LC-ESI-QTOF
Ms type: MS2
Ion mode: POSITIVE
Collision energy: 30
Fragmentation mode: CID
Ionization: ESI
Column name: Zorbax Eclipse Plus C18 2.1 mm x 150 mm, 3.5 um, Agilent
Retention time: 7.301 min
Precursor m/z: 267.124
Precursor type: [M+H]+
m/z	relative intensity
80.0519	30
107.0605	65
108.0675	16
143.0595	13
144.0677	20
160.0624	23
161.0701	52
184.0859	33
197.0816	18
198.0893	45
210.0658	20
210.0881	10
211.0963	14
212.0811	15
222.1017	10
224.1073	12
225.0764	27
226.0845	601
227.092	161
237.0757	24
238.0838	16
239.0919	11
239.1276	38
249.1127	64
250.0959	23
251.0923	31
252.1004	47
267.1233	999
