Mass spectrum: Dimethenamid-ESA; LC-ESI-QTOF; MS2; 120 V
Name: Dimethenamid-ESA
Class: Transformation_product; Herbicide; Metabolite
Formula: C12H19NO5S2
Exact mass: 321.0705
SMILES: CC1=CSC(=C1N(C(C)COC)C(=O)CS(=O)(=O)O)C
InChI: InChI=1S/C12H19NO5S2/c1-8-6-19-10(3)12(8)13(9(2)5-18-4)11(14)7-20(15,16)17/h6,9H,5,7H2,1-4H3,(H,15,16,17)
Instrument: TripleTOF 6600 SCIEX
Instrument type: LC-ESI-QTOF
Ms type: MS2
Ion mode: POSITIVE
Collision energy: 120
Fragmentation mode: CID
Ionization: ESI
Column name: Zorbax Eclipse Plus C18 2.1 mm x 150 mm, 3.5 um, Agilent
Retention time: 7.036 min
Precursor m/z: 322.0778
Precursor type: [M+H]+
m/z	relative intensity
37.0079	160
38.0151	124
39.0233	713
41.0387	285
42.0342	124
43.0186	231
44.9796	660
45.0341	285
50.0162	267
51.0225	553
53.039	481
54.0342	89
57.9877	142
58.9954	553
59.9903	231
63.0232	285
64.0317	160
65.0397	945
66.0465	303
67.0423	124
67.0544	249
68.9799	267
69.9879	71
70.9956	374
77.0389	999
78.0345	196
78.0466	231
79.055	124
80.0496	642
84.0031	124
85.0106	89
89.0378	214
90.0466	142
91.0411	196
91.0537	749
92.049	214
92.9792	71
93.0568	499
94.0648	606
94.9938	107
96.0021	89
97.01	713
103.0527	71
104.0497	356
105.0573	178
106.0643	392
109.0099	196
111.0262	214
112.0209	71
117.0577	535
118.0647	606
123.0132	124
124.0208	107
126.0364	160
134.0171	89
136.0208	553
150.0365	214
