Mass spectrum: Azo Rubin S; LC-ESI-QTOF; MS2; 40 V
Name: Azo Rubin S
Formula: C20H14N2O7S2
Exact mass: 458.0242
SMILES: C1=CC=C2C(=C1)C(=CC=C2S(=O)(=O)O)N=NC3=C(C4=CC=CC=C4C(=C3)S(=O)(=O)O)O
InChI: InChI=1S/C20H14N2O7S2/c23-20-15-8-4-3-7-14(15)19(31(27,28)29)11-17(20)22-21-16-9-10-18(30(24,25)26)13-6-2-1-5-12(13)16/h1-11,23H,(H,24,25,26)(H,27,28,29)
Instrument: TripleTOF 6600 SCIEX
Instrument type: LC-ESI-QTOF
Ms type: MS2
Ion mode: NEGATIVE
Collision energy: 40
Fragmentation mode: CID
Ionization: ESI
Column name: Zorbax Eclipse Plus C18 2.1 mm x 150 mm, 3.5 um, Agilent
Retention time: 7.286 min
Precursor m/z: 228.0053
Precursor type: [M-2H]2-
m/z	relative intensity
50.0036	0
63.9623	29
65.9984	18
79.709	1
79.9575	241
80.9648	2
101.0382	1
102.0346	23
114.0338	0
115.042	7
126.0342	2
129.0346	1
140.0502	16
142.0296	3
143.0501	1
145.0287	9
157.0532	18
158.0379	2
169.4908	4
170.0252	999
171.0294	4
172.0393	5
194.0043	3
206.0033	18
207.0123	0
220.0054	0
220.3185	1
221.015	316
222.0171	1
236.0016	2
282.0672	0
283.0761	1
347.0372	2
