Mass spectrum: Fenpropimorph; LC-ESI-QTOF; MS2; 40 V
Name: Fenpropimorph
Class: Pharmaceutical; Fungicide
Formula: C20H33NO
Exact mass: 303.2562
SMILES: CC(CN1C[C@H](C)O[C@H](C)C1)Cc2ccc(cc2)C(C)(C)C
InChI: InChI=1S/C20H33NO/c1-15(12-21-13-16(2)22-17(3)14-21)11-18-7-9-19(10-8-18)20(4,5)6/h7-10,15-17H,11-14H2,1-6H3/t15?,16-,17+
Instrument: TripleTOF 5600 SCIEX
Instrument type: LC-ESI-QTOF
Ms type: MS2
Ion mode: POSITIVE
Collision energy: 40
Fragmentation mode: CID
Ionization: ESI
Column name: Zorbax Eclipse Plus C18 2.1 mm x 150 mm, 3.5 um, Agilent
Retention time: 9.527 min
Precursor m/z: 304.2635
Precursor type: [M+H]+
m/z	relative intensity
55.0591	9
57.0758	104
70.068	32
72.0833	24
77.0404	11
79.0559	21
81.0711	11
88.0762	14
91.0557	116
93.0703	10
98.0976	309
102.091	29
103.0537	10
104.0616	20
105.0704	233
107.0848	44
112.111	12
115.0537	32
116.1072	205
117.0698	183
119.0854	295
130.1229	277
131.085	34
132.0929	297
145.1002	25
146.1074	9
147.1168	999
161.1318	46
189.1644	54
248.2013	20
304.2635	411
