Mass spectrum: Pyroxsulam; LC-ESI-QTOF; MS2; 130 V
Name: Pyroxsulam
Class: Herbicide
Formula: C14H13F3N6O5S
Exact mass: 434.062
SMILES: COC1=CC(=NC2=NC(=NN12)NS(=O)(=O)C3=C(C=CN=C3OC)C(F)(F)F)OC
InChI: InChI=1S/C14H13F3N6O5S/c1-26-8-6-9(27-2)23-13(19-8)20-12(21-23)22-29(24,25)10-7(14(15,16)17)4-5-18-11(10)28-3/h4-6H,1-3H3,(H,21,22)
Instrument: TripleTOF 6600 SCIEX
Instrument type: LC-ESI-QTOF
Ms type: MS2
Ion mode: NEGATIVE
Collision energy: 130
Fragmentation mode: CID
Ionization: ESI
Column name: Zorbax Eclipse Plus C18 2.1 mm x 150 mm, 3.5 um, Agilent
Retention time: 9.651 min
Precursor m/z: 433.0547
Precursor type: [M-H]-
m/z	relative intensity
40.006	84
41.0137	30
41.9971	78
50.002	48
61.0095	42
64.0044	78
65.0125	193
65.9985	393
66.0086	999
68.9944	139
74.0018	36
76.0203	24
86.0028	48
88.0155	36
89.004	48
89.014	60
90.0075	54
93.005	30
106.0073	24
107.0159	54
108.029	24
114.0071	24
116.0268	30
126.0053	24
157.0152	30
