Mass spectrum: 3,4-Methylenedioxymethamphetamine; LC-ESI-QTOF; MS2; 140 V
Name: 3,4-Methylenedioxymethamphetamine
Class: Pharmaceutical
Formula: C11H15NO2
Exact mass: 193.1103
SMILES: CC(CC1=CC2=C(C=C1)OCO2)NC
InChI: InChI=1S/C11H15NO2/c1-8(12-2)5-9-3-4-10-11(6-9)14-7-13-10/h3-4,6,8,12H,5,7H2,1-2H3
Instrument: TripleTOF 6600 SCIEX
Instrument type: LC-ESI-QTOF
Ms type: MS2
Ion mode: POSITIVE
Collision energy: 140
Fragmentation mode: CID
Ionization: ESI
Column name: Zorbax Eclipse Plus C18 2.1 mm x 150 mm, 3.5 um, Agilent
Retention time: 5.421 min
Precursor m/z: 194.1176
Precursor type: [M+H]+
m/z	relative intensity
35.9992	61
37.0068	252
38.0031	16
38.0145	134
39.0224	153
42.0329	15
49.0064	243
50.0146	999
51.0223	335
59.9982	35
61.0062	169
62.0141	193
63.0219	107
73.0057	37
74.0139	97
77.0388	12
