Mass spectrum: Ethyldiphenylphosphine oxide; LC-ESI-QTOF; MS2; 80 V
Name: Ethyldiphenylphosphine oxide
Class: Industrial_process
Formula: C14H15OP
Exact mass: 230.0861
SMILES: CC[P](=O)(c1ccccc1)c2ccccc2
InChI: InChI=1S/C14H15OP/c1-2-16(15,13-9-5-3-6-10-13)14-11-7-4-8-12-14/h3-12H,2H2,1H3
Instrument: TripleTOF 5600 SCIEX
Instrument type: LC-ESI-QTOF
Ms type: MS2
Ion mode: POSITIVE
Collision energy: 80
Fragmentation mode: CID
Ionization: ESI
Column name: Zorbax Eclipse Plus C18 2.1 mm x 150 mm, 3.5 um, Agilent
Retention time: 8.816 min
Precursor m/z: 231.0933
Precursor type: [M+H]+
m/z	relative intensity
51.0291	189
56.9934	60
65.0425	129
77.0417	504
78.049	220
79.0567	40
80.9937	27
83.0068	92
91.0557	54
102.0469	23
103.0538	23
107.0045	82
109.0198	94
115.0541	111
125.0144	30
126.0468	41
127.054	49
128.0617	40
133.0209	20
139.0538	72
150.0463	34
151.053	164
152.0625	999
153.0692	69
157.02	165
164.062	21
165.0696	160
170.027	67
181.02	94
182.0274	23
183.0353	267
194.0277	61
199.0311	421
