Mass spectrum: Haloxyfop-methyl; LC-ESI-QTOF; MS2; 70 V
Name: Haloxyfop-methyl
Class: Herbicide
Formula: C16H13ClF3NO4
Exact mass: 375.0485
SMILES: COC(=O)C(C)Oc1ccc(Oc2ncc(cc2Cl)C(F)(F)F)cc1
InChI: InChI=1S/C16H13ClF3NO4/c1-9(15(22)23-2)24-11-3-5-12(6-4-11)25-14-13(17)7-10(8-21-14)16(18,19)20/h3-9H,1-2H3
Instrument: TripleTOF 5600 SCIEX
Instrument type: LC-ESI-QTOF
Ms type: MS2
Ion mode: POSITIVE
Collision energy: 70
Fragmentation mode: CID
Ionization: ESI
Column name: Zorbax Eclipse Plus C18 2.1 mm x 150 mm, 3.5 um, Agilent
Retention time: 14.891 min
Precursor m/z: 376.0558
Precursor type: [M+H]+
m/z	relative intensity
65.0419	442
74.0159	56
75.0249	170
77.0406	45
91.0551	999
92.026	68
103.0542	68
139.0391	45
140.049	102
158.0403	68
159.0481	56
159.9757	90
168.0234	113
168.0439	215
175.0169	79
179.9816	238
182.026	79
187.0437	56
188.0334	102
189.0357	192
190.0447	68
197.9908	113
203.0134	124
208.0348	90
209.0424	499
216.0253	351
217.9946	56
218.0386	102
219.0051	79
224.0043	56
232.0137	102
237.0366	113
243.0034	56
246.0271	45
252.0025	90
269.0174	68
269.998	68
272.0072	397
288.0006	363
