Mass spectrum: Desmetryn; LC-ESI-QTOF; MS2; 30 V
Name: Desmetryn
Class: Herbicide
Formula: C8H15N5S
Exact mass: 213.1048
SMILES: CC(C)NC1=NC(=NC(=N1)NC)SC
InChI: InChI=1S/C8H15N5S/c1-5(2)10-7-11-6(9-3)12-8(13-7)14-4/h5H,1-4H3,(H2,9,10,11,12,13)
Instrument: TripleTOF 6600 SCIEX
Instrument type: LC-ESI-QTOF
Ms type: MS2
Ion mode: POSITIVE
Collision energy: 30
Fragmentation mode: CID
Ionization: ESI
Column name: Zorbax Eclipse Plus C18 2.1 mm x 150 mm, 3.5 um, Agilent
Retention time: 7.281 min
Precursor m/z: 214.1121
Precursor type: [M+H]+
m/z	relative intensity
43.028	20
57.0437	140
68.0226	20
74.0044	15
82.0388	318
88.0196	15
91.0311	160
99.0647	36
116.0258	65
124.0606	148
130.0415	69
172.0642	999
214.1104	81
