Mass spectrum: Guaifenesin; LC-ESI-QTOF; MS2; 50 V
Name: Guaifenesin
Formula: C10H14O4
Exact mass: 198.0892
SMILES: COC1=CC=CC=C1OCC(CO)O
InChI: InChI=1S/C10H14O4/c1-13-9-4-2-3-5-10(9)14-7-8(12)6-11/h2-5,8,11-12H,6-7H2,1H3
Instrument: TripleTOF X500R SCIEX
Instrument type: LC-ESI-QTOF
Ms type: MS2
Ion mode: POSITIVE
Collision energy: 50
Fragmentation mode: CID
Ionization: ESI
Column name: Zorbax Eclipse Plus C18 2.1 mm x 150 mm, 3.5 um, Agilent
Retention time: 6.298 min
Precursor m/z: 199.0965
Precursor type: [M+H]+
m/z	relative intensity
31.0182	51
39.0241	68
41.0384	34
45.0331	51
51.0222	292
52.0324	17
53.0408	17
54.0514	17
55.0579	34
57.0334	86
58.0305	17
64.0304	103
65.039	396
72.9865	86
77.0383	792
79.0545	103
81.0353	51
82.0404	17
91.0549	258
92.0268	155
93.029	51
93.0687	17
95.0466	17
100.0773	103
103.0552	51
107.0551	34
110.0363	465
115.0554	17
121.0289	999
122.0368	223
131.0496	17
