Mass spectrum: Amisulbrom; LC-ESI-QTOF; MS2; 60 V
Name: Amisulbrom
Class: Fungicide
Formula: C13H13BrFN5O4S2
Exact mass: 464.9576
SMILES: CC1=C(C2=C(N1S(=O)(=O)C3=NN(C=N3)S(=O)(=O)N(C)C)C=C(C=C2)F)Br
InChI: InChI=1S/C13H13BrFN5O4S2/c1-8-12(14)10-5-4-9(15)6-11(10)20(8)25(21,22)13-16-7-19(17-13)26(23,24)18(2)3/h4-7H,1-3H3
Instrument: TripleTOF 6600 SCIEX
Instrument type: LC-ESI-QTOF
Ms type: MS2
Ion mode: POSITIVE
Collision energy: 60
Fragmentation mode: CID
Ionization: ESI
Column name: Zorbax Eclipse Plus C18 2.1 mm x 150 mm, 3.5 um, Agilent
Retention time: 14.781 min
Precursor m/z: 465.9649
Precursor type: [M+H]+
m/z	relative intensity
44.0482	38
101.0392	10
108.0111	115
128.0477	22
146.0406	30
147.046	67
148.0547	999
160.0451	19
160.0551	15
164.0491	11
175.0676	13
187.0603	34
188.06	14
191.0952	32
215.0728	70
224.9572	15
225.9662	900
226.9736	950
