Mass spectrum: Clozapine; LC-ESI-QTOF; MS2; 70 V
Name: Clozapine
Class: Pharmaceutical
Formula: C18H19ClN4
Exact mass: 326.1298
SMILES: CN1CCN(CC1)C2=NC3=C(C=CC(=C3)Cl)NC4=CC=CC=C42
InChI: InChI=1S/C18H19ClN4/c1-22-8-10-23(11-9-22)18-14-4-2-3-5-15(14)20-16-7-6-13(19)12-17(16)21-18/h2-7,12,20H,8-11H2,1H3
Instrument: TripleTOF 6600 SCIEX
Instrument type: LC-ESI-QTOF
Ms type: MS2
Ion mode: POSITIVE
Collision energy: 70
Fragmentation mode: CID
Ionization: ESI
Column name: Zorbax Eclipse Plus C18 2.1 mm x 150 mm, 3.5 um, Agilent
Retention time: 6.951 min
Precursor m/z: 327.1371
Precursor type: [M+H]+
m/z	relative intensity
42.0338	14
90.0336	14
123.9937	22
138.0453	48
164.0487	182
165.0559	144
166.0631	15
179.0682	10
191.0598	181
192.068	999
193.0752	10
200.0251	14
205.0757	14
206.0826	13
207.0932	10
213.0339	13
215.0359	12
217.0754	11
218.0833	30
220.0859	11
226.0285	79
227.0375	11
234.1047	13
253.0493	17
254.0468	12
