Mass spectrum: N,N`-diphenyl-p-phenylenediamine; LC-ESI-QTOF; MS2; 140 V
Name: N,N`-diphenyl-p-phenylenediamine
Class: Industrial_process
Formula: C18H16N2
Exact mass: 260.1313
SMILES: N(c1ccccc1)c2ccc(Nc3ccccc3)cc2
InChI: InChI=1S/C18H16N2/c1-3-7-15(8-4-1)19-17-11-13-18(14-12-17)20-16-9-5-2-6-10-16/h1-14,19-20H
Instrument: TripleTOF 5600 SCIEX
Instrument type: LC-ESI-QTOF
Ms type: MS2
Ion mode: POSITIVE
Collision energy: 140
Fragmentation mode: CID
Ionization: ESI
Column name: Zorbax Eclipse Plus C18 2.1 mm x 150 mm, 3.5 um, Agilent
Retention time: 14.544 min
Precursor m/z: 261.1386
Precursor type: [M+H]+
m/z	relative intensity
52.0335	246
54.0397	111
54.0495	61
62.0415	61
64.0319	234
65.0414	431
66.0502	74
73.0116	74
74.0183	555
75.0256	678
76.0341	271
77.0411	789
78.0467	209
79.0422	61
80.0519	999
85.0089	98
86.0156	394
87.0245	431
88.0295	222
89.0396	752
90.0452	148
93.0583	49
98.015	123
99.0227	98
100.0252	61
101.0402	74
102.0459	234
103.0514	123
110.0161	49
113.0385	431
114.0319	49
114.0443	123
115.0545	222
116.0518	49
117.0554	61
126.0443	148
127.0519	320
128.0597	111
129.0503	49
129.0656	49
137.0373	111
138.04	74
139.0542	456
140.0492	222
164.0497	61
166.0618	74
