Mass spectrum: 2-Piperidin-3-yl-benzothiazole; LC-ESI-QTOF; MS2; 60 V
Name: 2-Piperidin-3-yl-benzothiazole
Formula: C12H14N2S
Exact mass: 218.0878
SMILES: C1CC(CNC1)C2=NC3=CC=CC=C3S2
InChI: InChI=1S/C12H14N2S/c1-2-6-11-10(5-1)14-12(15-11)9-4-3-7-13-8-9/h1-2,5-6,9,13H,3-4,7-8H2
Instrument: TripleTOF 5600 SCIEX
Instrument type: LC-ESI-QTOF
Ms type: MS2
Ion mode: POSITIVE
Collision energy: 60
Fragmentation mode: CID
Ionization: ESI
Column name: Zorbax Eclipse Plus C18 2.1 mm x 150 mm, 3.5 um, Agilent
Retention time: 5.623 min
Precursor m/z: 219.095
Precursor type: [M+H]+
m/z	relative intensity
44.0498	43
44.9796	131
55.0546	13
57.9871	10
65.0386	75
68.9791	55
70.0648	54
77.0385	82
81.9872	55
89.0388	13
91.0536	14
104.0497	201
108.0031	325
109.0108	377
116.0504	45
117.0568	102
121.0104	126
122.0185	17
130.0641	40
135.0133	13
136.0211	49
146.0061	11
148.0219	747
149.0295	999
160.0211	22
162.0371	140
173.0289	68
174.0373	190
175.0447	59
186.0336	13
190.0688	40
