Mass spectrum: Imazamox; LC-ESI-QTOF; MS2; 130 V
Name: Imazamox
Class: Herbicide
Formula: C15H19N3O4
Exact mass: 305.1376
SMILES: CC(C)C1(C(=O)NC(=N1)C2=C(C=C(C=N2)COC)C(=O)O)C
InChI: InChI=1S/C15H19N3O4/c1-8(2)15(3)14(21)17-12(18-15)11-10(13(19)20)5-9(6-16-11)7-22-4/h5-6,8H,7H2,1-4H3,(H,19,20)(H,17,18,21)
Instrument: TripleTOF 6600 SCIEX
Instrument type: LC-ESI-QTOF
Ms type: MS2
Ion mode: POSITIVE
Collision energy: 130
Fragmentation mode: CID
Ionization: ESI
Column name: Zorbax Eclipse Plus C18 2.1 mm x 150 mm, 3.5 um, Agilent
Retention time: 6.853 min
Precursor m/z: 306.1448
Precursor type: [M+H]+
m/z	relative intensity
35.998	42
37.006	220
38.0139	220
39.0219	999
41.0372	231
42.0324	347
43.0403	84
45.032	94
49.0054	52
50.0136	262
51.0085	42
51.0214	431
52.0167	378
52.0282	63
53.0368	105
56.0479	168
59.9976	105
61.0054	988
62.0135	599
63.0076	63
63.0211	694
64.0166	115
64.0289	178
65.0247	84
65.0361	210
70.0631	336
75.0081	73
76.0158	220
77.0117	52
78.0319	294
85.9998	52
87.0081	252
88.0161	588
89.0232	126
90.0319	84
91.0397	94
92.036	42
92.048	52
104.0463	52
