Mass spectrum: 10,11-Dihydrocarbamazepine; LC-ESI-QTOF; MS2; 130 V
Name: 10,11-Dihydrocarbamazepine
Class: Pharmaceutical; Metabolite
Formula: C15H14N2O
Exact mass: 238.1106
SMILES: NC(=O)N1c2ccccc2CCc3ccccc13
InChI: InChI=1S/C15H14N2O/c16-15(18)17-13-7-3-1-5-11(13)9-10-12-6-2-4-8-14(12)17/h1-8H,9-10H2,(H2,16,18)
Instrument: TripleTOF 5600 SCIEX
Instrument type: LC-ESI-QTOF
Ms type: MS2
Ion mode: POSITIVE
Collision energy: 130
Fragmentation mode: CID
Ionization: ESI
Column name: Zorbax Eclipse Plus C18 2.1 mm x 150 mm, 3.5 um, Agilent
Retention time: 9.235 min
Precursor m/z: 239.1179
Precursor type: [M+H]+
m/z	relative intensity
44.0209	73
51.0287	889
60.004	36
64.0382	54
65.0423	678
73.0097	73
74.0177	999
74.0472	36
75.0257	641
76.0191	54
76.0335	284
77.0411	659
78.0484	54
85.0081	109
86.0179	265
87.0237	311
88.0315	91
89.0392	724
90.0484	54
91.0547	229
98.0152	384
99.0224	174
100.0303	64
101.0385	164
102.046	247
110.0157	82
111.0237	119
113.0373	274
114.0333	45
115.0535	155
122.0149	82
124.03	64
125.0375	155
126.0452	357
127.0406	36
127.0522	100
128.0527	73
137.0373	109
138.0464	45
139.0532	219
140.0489	146
149.0376	201
150.0459	953
151.0527	559
152.0616	284
161.0374	82
162.0463	109
163.0529	430
164.0524	164
165.0688	82
174.0435	64
175.044	91
176.0495	64
177.0574	137
178.0659	137
188.0494	82
189.0559	91
190.0631	137
191.0761	73
