Mass spectrum: Methiocarb; LC-ESI-QTOF; MS2; 40 V
Name: Methiocarb
Class: Acaricide; Insecticide
Formula: C11H15NO2S
Exact mass: 225.0823
SMILES: Cc1cc(cc(c1SC)C)OC(=O)NC
InChI: InChI=1S/C11H15NO2S/c1-7-5-9(14-11(13)12-3)6-8(2)10(7)15-4/h5-6H,1-4H3,(H,12,13)
Instrument: TripleTOF 6600 SCIEX
Instrument type: LC-ESI-QTOF
Ms type: MS2
Ion mode: POSITIVE
Collision energy: 40
Fragmentation mode: CID
Ionization: ESI
Column name: Zorbax Eclipse Plus C18 2.1 mm x 150 mm, 3.5 um, Agilent
Retention time: 11.34614 min
Precursor m/z: 226.0896
Precursor type: [M+H]+
m/z	relative intensity
51.0205	42
65.0356	35
67.0512	24
77.0378	999
78.0426	42
79.0535	102
91.0533	657
93.0689	380
94.0748	19
103.0506	46
104.0605	28
105.0412	25
107.0482	872
109.0626	10
111.023	21
121.0641	880
122.0697	616
123.0772	17
139.019	12
154.0428	46
169.0669	19
