Mass spectrum: Mefloquine; LC-ESI-QTOF; MS2; 90 V
Name: Mefloquine
Class: Pharmaceutical
Formula: C17H16F6N2O
Exact mass: 378.1167
SMILES: C1CCNC(C1)C(C2=CC(=NC3=C2C=CC=C3C(F)(F)F)C(F)(F)F)O
InChI: InChI=1S/C17H16F6N2O/c18-16(19,20)11-5-3-4-9-10(15(26)12-6-1-2-7-24-12)8-13(17(21,22)23)25-14(9)11/h3-5,8,12,15,24,26H,1-2,6-7H2
Instrument: TripleTOF 5600 SCIEX
Instrument type: LC-ESI-QTOF
Ms type: MS2
Ion mode: POSITIVE
Collision energy: 90
Fragmentation mode: CID
Ionization: ESI
Column name: Zorbax Eclipse Plus C18 2.1 mm x 150 mm, 3.5 um, Agilent
Retention time: 8.432 min
Precursor m/z: 379.124
Precursor type: [M+H]+
m/z	relative intensity
54.0414	20
54.0503	14
56.0588	99
65.0455	25
67.0479	115
68.0558	225
69.001	110
70.0701	95
75.0089	14
77.0449	18
80.0542	97
81.0623	11
82.0699	602
83.0775	25
84.0851	161
96.0833	45
99.0064	14
99.0274	20
113.0418	23
115.0531	14
123.0226	18
124.0191	31
125.0209	14
125.0396	44
126.0331	20
126.0481	23
127.0529	40
128.053	18
129.0588	12
131.0309	20
132.038	53
133.0466	137
138.0291	22
138.0452	60
139.0482	73
140.0503	293
141.0163	22
141.0583	16
143.0113	25
143.0288	64
144.0244	53
145.0344	69
146.0399	20
147.0184	16
148.0188	40
149.0195	77
149.0375	36
150.0326	112
151.055	205
152.0287	12
152.0509	293
153.0583	165
154.0664	51
155.0325	18
156.0366	40
157.0452	56
158.0409	194
159.0486	31
161.0203	51
162.0283	66
163.0374	190
164.0494	269
165.0582	411
166.0649	211
167.0153	69
167.03	60
167.0662	62
168.0263	146
169.0438	317
170.0431	174
171.0438	108
172.0228	14
172.0575	12
173.0209	12
174.0247	56
174.0437	11
175.0358	104
176.0389	402
177.0551	257
178.0646	161
179.0611	220
180.0253	14
180.0465	12
180.0688	71
181.0286	167
181.0752	34
182.0393	451
182.0781	11
183.0482	310
184.0553	203
185.0164	20
185.0718	20
186.0275	77
186.0603	11
187.0344	257
188.0338	291
189.0403	594
190.0551	233
191.0353	9
191.0646	91
192.0259	38
192.0666	101
193.0291	91
193.0767	51
194.0237	999
194.0886	14
195.0471	240
195.0924	14
196.0466	381
197.0541	102
198.0239	11
198.0639	22
199.038	73
200.0302	176
200.0504	18
201.0393	236
202.0484	613
203.0628	165
204.0566	11
204.0783	91
205.0259	34
205.0768	66
206.0385	156
206.0845	25
207.0382	178
208.0423	411
209.0501	284
210.0572	101
211.0215	62
211.055	14
212.0319	101
213.0384	323
214.037	650
215.0525	389
216.0635	198
217.0279	33
217.0606	31
217.08	12
218.0248	170
218.0835	12
219.0188	11
219.041	112
219.0941	29
220.0383	365
220.1021	14
221.0394	134
222.0554	154
223.0673	179
224.0303	55
224.0697	12
225.0305	97
226.047	444
227.0466	148
228.0512	249
229.0585	235
230.0229	16
230.0679	91
231.0273	119
231.0959	11
232.0382	174
233.0472	242
234.0535	372
235.057	137
236.0281	18
236.0591	117
237.0387	47
238.0294	639
239.0475	130
240.0515	95
241.0593	112
242.0697	47
243.0166	16
243.0739	205
244.0378	231
245.041	97
246.0529	279
247.0563	132
248.0644	64
249.0688	192
250.0474	16
250.0759	27
251.0393	108
252.0464	328
253.0607	91
254.0653	80
255.0717	97
256.0447	20
256.0776	12
257.043	42
258.0339	178
259.0535	77
260.0656	53
261.0625	29
261.0757	11
262.0271	14
262.0506	11
262.076	22
263.0535	12
263.0781	29
264.0435	185
265.0441	42
265.0616	20
266.0595	20
267.0704	45
269.0828	20
269.0966	27
270.0331	112
270.0961	16
271.0412	47
271.0994	20
271.1122	11
272.0587	69
273.0647	66
274.0731	16
275.0377	12
276.0299	11
276.046	18
277.0448	11
277.0546	18
278.0497	34
278.0673	22
279.0608	44
282.0448	12
283.0433	106
284.0501	42
285.0483	64
288.0463	31
290.0488	11
291.0574	16
292.0703	12
296.0525	47
297.0469	45
298.0489	29
299.0745	16
304.0535	11
305.0603	18
311.0715	16
317.057	12
322.0505	20
323.0643	34
