Mass spectrum: N-desmethyl-venlafaxine; LC-ESI-QTOF; MS2; 30 V
Name: N-desmethyl-venlafaxine
Class: Pharmaceutical; Metabolite
Formula: C16H25NO2
Exact mass: 263.1885
SMILES: CNCC(c1ccc(cc1)OC)C2(CCCCC2)O
InChI: InChI=1S/C16H25NO2/c1-17-12-15(16(18)10-4-3-5-11-16)13-6-8-14(19-2)9-7-13/h6-9,15,17-18H,3-5,10-12H2,1-2H3
Instrument: TripleTOF 5600 SCIEX
Instrument type: LC-ESI-QTOF
Ms type: MS2
Ion mode: POSITIVE
Collision energy: 30
Fragmentation mode: CID
Ionization: ESI
Column name: Zorbax Eclipse Plus C18 2.1 mm x 150 mm, 3.5 um, Agilent
Retention time: 6.444 min
Precursor m/z: 264.1958
Precursor type: [M+H]+
m/z	relative intensity
44.0583	636
69.0718	19
77.0411	11
79.0548	34
81.0704	38
91.0537	79
93.0693	19
107.0487	11
107.0846	49
117.0684	11
119.0878	11
121.0641	999
132.0555	38
135.0785	64
138.1256	19
144.0553	14
145.0637	12
147.0792	706
149.0822	29
158.0707	25
159.0793	202
161.0935	12
163.0971	14
164.1063	47
173.0946	270
183.1173	20
187.1095	17
215.1418	371
246.1839	78
264.1907	11
