Mass spectrum: 1-Oxo-ibuprofen; LC-ESI-QTOF; MS2; 70 V
Name: 1-Oxo-ibuprofen
Class: Pharmaceutical; Transformation_product
Formula: C13H16O3
Exact mass: 220.1099
SMILES: CC(C)C(=O)C1=CC=C(C=C1)C(C)C(=O)O
InChI: InChI=1S/C13H16O3/c1-8(2)12(14)11-6-4-10(5-7-11)9(3)13(15)16/h4-9H,1-3H3,(H,15,16)
Instrument: TripleTOF 5600 SCIEX
Instrument type: LC-ESI-QTOF
Ms type: MS2
Ion mode: POSITIVE
Collision energy: 70
Fragmentation mode: CID
Ionization: ESI
Column name: Zorbax Eclipse Plus C18 2.1 mm x 150 mm, 3.5 um, Agilent
Retention time: 10.239 min
Precursor m/z: 221.1172
Precursor type: [M+H]+
m/z	relative intensity
43.026	322
51.0283	113
53.0445	37
55.0604	69
57.076	63
65.0412	335
67.0577	101
69.0385	31
77.0416	999
77.0676	44
78.0482	113
79.0567	385
81.0719	25
89.0414	50
91.0556	961
93.0729	44
95.0506	25
102.046	56
103.0547	322
104.0621	37
105.0704	309
105.0872	31
107.049	69
115.0533	657
116.0611	69
117.0701	202
119.0864	25
127.0547	120
128.0612	271
129.0679	56
130.0773	31
141.0688	158
