Mass spectrum: Doxorubicin; LC-ESI-QTOF; MS2; 40 V
Name: Doxorubicin
Class: Pharmaceutical
Formula: C27H29NO11
Exact mass: 543.1741
SMILES: C[C@H]1[C@H]([C@H](C[C@@H](O1)O[C@H]2C[C@@](Cc3c2c(c4c(c3O)C(=O)c5cccc(c5C4=O)OC)O)(C(=O)CO)O)N)O
InChI: InChI=1S/C27H29NO11/c1-10-22(31)13(28)6-17(38-10)39-15-8-27(36,16(30)9-29)7-12-19(15)26(35)21-20(24(12)33)23(32)11-4-3-5-14(37-2)18(11)25(21)34/h3-5,10,13,15,17,22,29,31,33,35-36H,6-9,28H2,1-2H3/t10-,13-,15-,17-,22+,27-/m0/s1
Instrument: TripleTOF 5600 SCIEX
Instrument type: LC-ESI-QTOF
Ms type: MS2
Ion mode: POSITIVE
Collision energy: 40
Fragmentation mode: CID
Ionization: ESI
Column name: Zorbax Eclipse Plus C18 2.1 mm x 150 mm, 3.5 um, Agilent
Retention time: 7.064 min
Precursor m/z: 544.1813
Precursor type: [M+H]+
m/z	relative intensity
86.0615	129
113.0606	44
121.0643	22
130.0867	169
135.0423	31
293.0811	26
306.0543	102
315.0647	49
319.0777	17
321.0744	816
333.0751	62
346.0463	548
351.0851	22
359.9344	22
361.0695	999
364.0558	44
379.0802	303
397.0889	205
544.1666	22
