Mass spectrum: Bixafen; LC-ESI-QTOF; MS2; 150 V
Name: Bixafen
Class: Fungicide
Formula: C18H12Cl2F3N3O
Exact mass: 413.031
SMILES: CN1C=C(C(=N1)C(F)F)C(=O)NC2=C(C=C(C=C2)F)C3=CC(=C(C=C3)Cl)Cl
InChI: InChI=1S/C18H12Cl2F3N3O/c1-26-8-12(16(25-26)17(22)23)18(27)24-15-5-3-10(21)7-11(15)9-2-4-13(19)14(20)6-9/h2-8,17H,1H3,(H,24,27)
Instrument: TripleTOF 6600 SCIEX
Instrument type: LC-ESI-QTOF
Ms type: MS2
Ion mode: POSITIVE
Collision energy: 150
Fragmentation mode: CID
Ionization: ESI
Column name: Zorbax Eclipse Plus C18 2.1 mm x 150 mm, 3.5 um, Agilent
Retention time: 13.359 min
Precursor m/z: 414.0382
Precursor type: [M+H]+
m/z	relative intensity
38.0149	35
42.0336	56
43.0295	17
50.0145	17
51.0028	21
51.0221	31
57.0127	56
61.007	24
63.0229	24
68.0053	35
69.0156	17
73.0071	28
74.0147	207
75.0218	274
77.0388	14
81.0132	42
83.0287	17
85.0063	73
86.0139	59
87.0205	59
88.0163	14
92.004	45
93.0123	38
94.0206	77
95.0283	21
97.008	52
98.0145	524
99.0214	376
100.0185	59
105.0117	56
106.018	38
107.0288	52
109.006	52
110.0141	119
111.021	73
112.0164	42
113.0358	21
116.0038	42
117.0105	63
118.0204	70
119.0288	14
119.9985	52
120.0359	17
121.0053	84
122.0136	601
123.0218	794
124.0187	126
125.0358	14
129.0128	56
131.0272	80
132.0253	31
133.0094	24
134.016	52
135.0099	28
135.0215	28
136.0198	35
137.0387	35
140.0046	31
141.012	112
142.0192	70
143.0265	91
144.0363	49
145.0318	45
146.0133	302
147.0138	369
148.0181	313
149.0374	306
150.0311	31
150.0439	91
153.0112	24
154.0085	17
154.0344	14
155.0272	94
156.0246	52
158.0357	56
160.0167	14
161.0358	94
162.0361	35
163.0504	21
164.0455	21
165.013	21
166.0192	105
167.0277	390
168.0362	999
169.0442	256
170.0115	21
170.04	28
170.0509	17
171.0133	49
172.0242	35
173.037	70
174.033	204
175.0409	165
176.0495	38
178.0192	21
179.0283	256
180.0351	182
181.043	161
182.0397	80
185.037	126
186.0321	161
187.0452	80
188.0481	80
191.0194	45
192.0342	123
193.0292	351
194.0402	130
195.0066	14
195.0482	182
197.0402	45
198.044	77
199.0448	109
200.0483	52
200.063	24
201.0568	17
202.0007	21
202.0567	31
203.0267	147
204.0326	228
205.0436	471
206.0398	422
207.0307	24
207.0465	38
208.056	31
210.0281	24
211.0395	35
212.0456	87
213.0439	52
216.0355	59
217.0317	70
218.0332	17
218.0529	94
219.0453	119
220.05	49
221.0555	14
224.0476	35
225.0544	56
226.0658	35
227.063	17
228.0164	14
229.0292	21
229.0441	17
230.0385	232
231.0286	38
231.0423	77
232.0541	49
232.0715	14
233.0456	49
243.0476	38
244.0451	17
244.0559	42
245.0487	28
245.0633	42
246.0578	52
