Mass spectrum: Metoclopramide; LC-ESI-QTOF; MS2; 90 V
Name: Metoclopramide
Class: Pharmaceutical
Formula: C14H22ClN3O2
Exact mass: 299.1401
SMILES: CCN(CC)CCNC(=O)C1=CC(=C(C=C1OC)N)Cl
InChI: InChI=1S/C14H22ClN3O2/c1-4-18(5-2)7-6-17-14(19)10-8-11(15)12(16)9-13(10)20-3/h8-9H,4-7,16H2,1-3H3,(H,17,19)
Instrument: TripleTOF 5600 SCIEX
Instrument type: LC-ESI-QTOF
Ms type: MS2
Ion mode: POSITIVE
Collision energy: 90
Fragmentation mode: CID
Ionization: ESI
Column name: Zorbax Eclipse Plus C18 2.1 mm x 150 mm, 3.5 um, Agilent
Retention time: 5.459 min
Precursor m/z: 300.1473
Precursor type: [M+H]+
m/z	relative intensity
52.0274	18
65.0446	33
66.0528	19
72.9897	66
75.0287	10
78.0395	975
90.038	199
91.0458	26
92.0538	29
93.0608	78
99.003	86
105.0479	97
113.0053	999
114.0125	24
119.0643	17
120.0463	13
126.0122	25
127.0209	20
129.0117	18
139.0071	24
140.0151	54
140.9988	312
148.0645	11
154.008	13
168.0094	106
168.9922	32
170.0002	11
181.016	13
184.018	18
