Mass spectrum: Doxepin; LC-ESI-QTOF; MS2; 130 V
Name: Doxepin
Class: Pharmaceutical
Formula: C19H21NO
Exact mass: 279.1623
SMILES: CN(C)CCC=C1C2=CC=CC=C2COC3=CC=CC=C31
InChI: InChI=1S/C19H21NO/c1-20(2)13-7-11-17-16-9-4-3-8-15(16)14-21-19-12-6-5-10-18(17)19/h3-6,8-12H,7,13-14H2,1-2H3
Instrument: TripleTOF 5600 SCIEX
Instrument type: LC-ESI-QTOF
Ms type: MS2
Ion mode: POSITIVE
Collision energy: 130
Fragmentation mode: CID
Ionization: ESI
Column name: Zorbax Eclipse Plus C18 2.1 mm x 150 mm, 3.5 um, Agilent
Retention time: 7.447 min
Precursor m/z: 280.1696
Precursor type: [M+H]+
m/z	relative intensity
42.0464	43
44.0606	21
55.0279	10
58.0732	52
65.0456	259
73.0147	14
74.0208	160
75.0286	109
76.0361	104
77.0441	434
78.0508	73
79.0579	10
85.0121	33
86.0194	94
87.0271	126
88.0349	21
89.0429	380
91.0577	98
98.0182	133
99.0259	73
100.0343	33
101.0417	33
102.0499	168
109.0106	12
110.0172	41
111.0257	32
113.0409	133
114.049	19
115.0566	522
122.0171	45
123.0248	32
124.0328	19
125.0399	50
126.0481	188
127.0557	73
128.0632	78
134.0162	12
135.0236	17
137.0396	81
138.0476	47
139.0554	348
149.0394	101
150.0473	546
151.055	292
152.0629	123
161.0388	94
162.0473	192
163.0549	999
164.0616	352
165.071	108
173.0432	11
174.0466	166
175.0535	64
176.0615	196
185.038	27
186.0461	81
187.0543	592
188.0611	208
189.0696	332
197.0356	11
198.0452	131
199.0524	90
200.0611	190
201.0692	25
202.075	17
210.046	11
211.0542	109
212.0617	25
213.0682	83
