Mass spectrum: Prednisone; LC-ESI-QTOF; MS2; 60 V
Name: Prednisone
Class: Pharmaceutical
Formula: C21H26O5
Exact mass: 358.178
SMILES: C[C@]12CC(=O)[C@H]3[C@@H](CCC4=CC(=O)C=C[C@]34C)[C@@H]1CC[C@]2(O)C(=O)CO
InChI: InChI=1S/C21H26O5/c1-19-7-5-13(23)9-12(19)3-4-14-15-6-8-21(26,17(25)11-22)20(15,2)10-16(24)18(14)19/h5,7,9,14-15,18,22,26H,3-4,6,8,10-11H2,1-2H3/t14-,15-,18+,19-,20-,21-/m0/s1
Instrument: TripleTOF 5600 SCIEX
Instrument type: LC-ESI-QTOF
Ms type: MS2
Ion mode: POSITIVE
Collision energy: 60
Fragmentation mode: CID
Ionization: ESI
Column name: Zorbax Eclipse Plus C18 2.1 mm x 150 mm, 3.5 um, Agilent
Retention time: 8.469 min
Precursor m/z: 359.1853
Precursor type: [M+H]+
m/z	relative intensity
43.0255	113
53.0439	24
55.0225	39
55.0595	54
65.0425	39
67.0576	148
69.0374	49
69.073	24
77.0408	286
79.0563	286
81.0714	163
83.0531	29
91.0556	825
93.0708	237
95.0502	138
95.086	163
97.0666	34
103.0549	69
104.0637	24
105.0694	321
107.0494	98
107.0855	113
109.0645	89
111.0812	24
115.0537	316
116.0611	64
117.0698	222
119.0503	29
119.085	390
121.0644	568
123.0796	39
127.0537	84
128.0618	336
129.0692	237
130.078	84
131.0494	123
131.0851	262
132.0564	267
133.0635	44
133.101	34
135.0795	113
137.0594	24
141.0696	390
142.0764	74
143.0858	128
144.0568	242
145.0646	450
145.1013	74
146.072	326
147.0797	999
151.0551	34
152.0617	128
153.0694	232
154.0785	79
155.084	133
157.0642	108
157.1024	44
158.0727	494
159.0797	489
160.0894	49
161.0944	133
163.0751	29
165.069	306
166.0766	118
167.0857	133
168.0563	84
168.0951	29
169.062	257
169.0992	93
170.0718	138
171.0801	954
171.1027	29
172.0884	44
173.0953	276
177.0699	39
178.0776	237
179.0847	504
180.0921	84
181.064	331
181.1005	69
182.0717	272
183.0796	202
184.0886	108
185.0602	24
185.0957	103
186.1041	39
187.0748	39
187.1113	44
189.0697	98
189.0913	29
190.0782	79
191.0853	192
192.0933	118
193.1005	153
194.0725	202
194.1083	98
195.08	445
195.1121	24
196.0874	212
197.0949	257
198.1015	44
199.1107	44
201.0697	39
202.0765	113
203.085	163
204.0923	103
205.0656	84
205.1006	133
206.0735	89
206.1085	44
207.0803	405
207.1197	64
208.0885	365
209.0958	341
210.1023	138
211.1118	79
212.1202	54
215.0851	222
216.0925	64
217.1007	89
218.0728	79
218.1092	49
219.0792	207
219.1152	69
220.0875	143
221.0954	385
221.1301	24
222.1026	445
223.0752	29
223.1094	187
224.0839	24
224.1162	34
225.1266	49
227.082	29
227.1034	29
227.148	19
228.0927	54
229.1012	98
230.1097	49
231.0806	178
231.1169	44
232.0878	123
233.0956	267
234.1048	173
235.1111	133
236.119	44
237.1279	118
238.0986	34
238.1319	29
239.1433	54
241.1001	29
242.1088	34
243.1145	49
244.0883	34
245.0966	143
246.103	89
247.1109	187
248.1181	93
249.1265	168
257.0968	59
259.11	24
260.0831	29
260.1209	34
261.1294	34
263.1395	34
264.1489	19
