Mass spectrum: Trifloxystrobin acid; LC-ESI-QTOF; MS2; 140 V
Name: Trifloxystrobin acid
Class: Metabolite; Fungicide; Transformation_product
Formula: C19H17F3N2O4
Exact mass: 394.114
SMILES: FC(F)(F)c1cccc(c1)C(\C)=N\OCc2ccccc2C(=N\O)\C(=O)OC
InChI: InChI=1S/C19H17F3N2O4/c1-12(13-7-5-8-15(10-13)19(20,21)22)24-28-11-14-6-3-4-9-16(14)17(23-26)18(25)27-2/h3-10,26H,11H2,1-2H3/b23-17-,24-12+
Instrument: TripleTOF 5600 SCIEX
Instrument type: LC-ESI-QTOF
Ms type: MS2
Ion mode: POSITIVE
Collision energy: 140
Fragmentation mode: CID
Ionization: ESI
Column name: Zorbax Eclipse Plus C18 2.1 mm x 150 mm, 3.5 um, Agilent
Retention time: 13.286 min
Precursor m/z: 395.1213
Precursor type: [M+H]+
m/z	relative intensity
51.0163	52
51.0343	19
57.0243	27
65.0466	25
69.0022	121
69.0234	13
73.014	46
74.0218	434
75.0294	892
77.0445	44
78.0527	11
81.0183	30
88.0207	30
89.0431	999
90.0466	171
91.0582	13
93.001	9
95.0143	19
95.0329	371
99.0085	85
104.0515	25
116.0518	139
117.0598	30
119.013	42
123.0376	13
125.0216	164
145.0278	144
