Mass spectrum: 4-Phenoxyphenol; LC-ESI-QTOF; MS2; 40 V
Name: 4-Phenoxyphenol
Class: Transformation_product
Formula: C12H10O2
Exact mass: 186.0681
SMILES: Oc1ccc(Oc2ccccc2)cc1
InChI: InChI=1S/C12H10O2/c13-10-6-8-12(9-7-10)14-11-4-2-1-3-5-11/h1-9,13H
Instrument: TripleTOF 5600 SCIEX
Instrument type: LC-ESI-QTOF
Ms type: MS2
Ion mode: POSITIVE
Collision energy: 40
Fragmentation mode: CID
Ionization: ESI
Column name: Zorbax Eclipse Plus C18 2.1 mm x 150 mm, 3.5 um, Agilent
Retention time: 11.066 min
Precursor m/z: 187.0754
Precursor type: [M+H]+
m/z	relative intensity
65.042	231
66.0505	173
77.0411	74
78.0466	33
81.0365	404
89.0411	66
91.0557	49
94.0422	817
109.0282	280
110.034	99
114.0479	49
115.0545	999
139.0546	132
141.0702	677
144.06	66
152.0585	41
168.0564	115
169.0633	140
187.0767	41
