Mass spectrum: 1-Palmitoyl-2-glutaryl-sn-glycero-3-phosphocholine; LC-ESI-QTOF; MS2; 110 V
Name: 1-Palmitoyl-2-glutaryl-sn-glycero-3-phosphocholine
Formula: C29H56NO10P
Exact mass: 609.3642
SMILES: CCCCCCCCCCCCCCCC(=O)OCC(COP(=O)([O-])OCC[N+](C)(C)C)OC(=O)CCCC(=O)O
InChI: InChI=1S/C29H56NO10P/c1-5-6-7-8-9-10-11-12-13-14-15-16-17-20-28(33)37-24-26(40-29(34)21-18-19-27(31)32)25-39-41(35,36)38-23-22-30(2,3)4/h26H,5-25H2,1-4H3,(H-,31,32,35,36)
Instrument: TripleTOF 6600 SCIEX
Instrument type: LC-ESI-QTOF
Ms type: MS2
Ion mode: POSITIVE
Collision energy: 110
Fragmentation mode: CID
Ionization: ESI
Column name: Zorbax Eclipse Plus C18 2.1 mm x 150 mm, 3.5 um, Agilent
Retention time: 15.246 min
Precursor m/z: 610.3715
Precursor type: [M+H]+
m/z	relative intensity
43.0195	11
44.0503	15
45.0341	136
56.05	85
57.0705	13
58.0658	31
60.0813	147
62.9629	17
70.0662	23
71.0734	466
80.9736	116
86.0967	999
87.0437	17
98.9844	765
104.1064	106
124.9998	901
166.0616	79
184.0727	40
