Mass spectrum: Meptazinol; LC-ESI-QTOF; MS2; 40 V
Name: Meptazinol
Class: Pharmaceutical
Formula: C15H23NO
Exact mass: 233.178
SMILES: CCC1(CCCCN(C1)C)C2=CC(=CC=C2)O
InChI: InChI=1S/C15H23NO/c1-3-15(9-4-5-10-16(2)12-15)13-7-6-8-14(17)11-13/h6-8,11,17H,3-5,9-10,12H2,1-2H3
Instrument: TripleTOF 5600 SCIEX
Instrument type: LC-ESI-QTOF
Ms type: MS2
Ion mode: POSITIVE
Collision energy: 40
Fragmentation mode: CID
Ionization: ESI
Column name: Zorbax Eclipse Plus C18 2.1 mm x 150 mm, 3.5 um, Agilent
Retention time: 5.641 min
Precursor m/z: 234.1852
Precursor type: [M+H]+
m/z	relative intensity
44.0495	52
55.0541	32
67.0542	37
70.065	18
77.0387	191
79.0544	96
83.0856	15
84.0811	19
91.0546	67
93.0702	17
95.0857	21
103.0544	38
105.0702	113
107.0495	999
109.101	16
115.0543	20
117.0703	10
119.0853	23
121.0649	93
126.1271	26
128.0622	15
131.0494	26
132.0575	32
133.0656	186
135.0803	20
145.0647	15
146.0732	29
147.0811	108
161.097	96
234.1868	268
