Mass spectrum: 5-Aminofluorescein; LC-ESI-QTOF; MS2; 140 V
Name: 5-Aminofluorescein
Class: Pharmaceutical
Formula: C20H13NO5
Exact mass: 347.0794
SMILES: Nc1ccc2c(c1)C(=O)OC23c4ccc(O)cc4Oc5cc(O)ccc35
InChI: InChI=1S/C20H13NO5/c21-10-1-4-14-13(7-10)19(24)26-20(14)15-5-2-11(22)8-17(15)25-18-9-12(23)3-6-16(18)20/h1-9,22-23H,21H2
Instrument: TripleTOF 5600 SCIEX
Instrument type: LC-ESI-QTOF
Ms type: MS2
Ion mode: POSITIVE
Collision energy: 140
Fragmentation mode: CID
Ionization: ESI
Column name: Zorbax Eclipse Plus C18 2.1 mm x 150 mm, 3.5 um, Agilent
Retention time: 8.159 min
Precursor m/z: 348.0866
Precursor type: [M+H]+
m/z	relative intensity
65.0445	54
74.0192	54
75.0246	73
76.033	30
77.0419	140
86.0165	54
87.0244	60
89.0406	121
98.0167	85
99.0248	60
100.0293	30
101.0397	30
102.0479	60
110.0161	30
113.0392	60
115.0545	121
122.0164	54
123.0214	54
125.039	54
126.0478	146
127.0552	79
137.0385	60
139.0547	115
139.0685	30
149.0377	164
150.0457	517
150.0734	30
151.0541	298
152.0616	164
161.0395	115
162.048	127
163.0541	633
164.0584	115
165.0714	36
174.0463	377
175.0535	194
176.0623	243
177.059	24
185.0385	85
186.0472	182
187.0545	773
188.0615	322
189.0693	395
190.0679	103
198.0453	286
199.056	310
200.0631	999
201.0683	182
202.0748	97
209.0435	30
210.0455	36
211.0535	176
212.0519	140
213.0706	54
214.0655	121
225.0592	48
227.07	36
