Mass spectrum: Paroxetine; LC-ESI-QTOF; MS2; 90 V
Name: Paroxetine
Class: Pharmaceutical
Formula: C19H20FNO3
Exact mass: 329.1427
SMILES: C1CNCC(C1C2=CC=C(C=C2)F)COC3=CC4=C(C=C3)OCO4
InChI: InChI=1S/C19H20FNO3/c20-15-3-1-13(2-4-15)17-7-8-21-10-14(17)11-22-16-5-6-18-19(9-16)24-12-23-18/h1-6,9,14,17,21H,7-8,10-12H2
Instrument: TripleTOF 5600 SCIEX
Instrument type: LC-ESI-QTOF
Ms type: MS2
Ion mode: POSITIVE
Collision energy: 90
Fragmentation mode: CID
Ionization: ESI
Column name: Zorbax Eclipse Plus C18 2.1 mm x 150 mm, 3.5 um, Agilent
Retention time: 7.812 min
Precursor m/z: 330.15
Precursor type: [M+H]+
m/z	relative intensity
37.0073	33
38.0151	27
39.023	148
41.0388	238
42.0343	60
43.055	29
44.0499	234
51.0225	15
53.0018	13
53.0389	11
56.0493	45
57.0145	11
59.0275	11
63.0235	11
65.0389	72
67.0419	11
67.0545	11
68.0496	47
70.0652	344
74.0146	13
75.0231	42
77.0385	182
80.0492	13
81.0334	45
82.0653	47
83.0293	272
89.0384	51
91.0537	13
93.0343	15
95.0281	27
96.0377	15
97.0455	15
101.0385	74
102.0469	18
103.0543	110
107.0282	15
108.0366	18
109.0279	13
109.0448	999
115.0542	603
116.0625	11
121.0275	11
121.0425	42
123.0604	51
125.0396	13
126.0493	11
127.0544	85
128.0623	60
129.0457	18
130.0649	11
133.0447	535
134.0535	36
135.0599	335
137.0209	15
145.0458	15
146.0523	240
147.0597	96
148.0601	29
159.0621	20
