Mass spectrum: 4-Aminosalicylic acid; LC-ESI-QTOF; MS2; 30 V
Name: 4-Aminosalicylic acid
Class: Pharmaceutical
Formula: C7H7NO3
Exact mass: 153.0426
SMILES: Nc1ccc(C(O)=O)c(O)c1
InChI: InChI=1S/C7H7NO3/c8-4-1-2-5(7(10)11)6(9)3-4/h1-3,9H,8H2,(H,10,11)
Instrument: TripleTOF 5600 SCIEX
Instrument type: LC-ESI-QTOF
Ms type: MS2
Ion mode: POSITIVE
Collision energy: 30
Fragmentation mode: CID
Ionization: ESI
Column name: Zorbax Eclipse Plus C18 2.1 mm x 150 mm, 3.5 um, Agilent
Retention time: 5.477 min
Precursor m/z: 154.0499
Precursor type: [M+H]+
m/z	relative intensity
80.0508	303
91.0189	606
92.0502	62
108.0419	71
119.0129	999
136.0389	856
