Mass spectrum: Levamisole; LC-ESI-QTOF; MS2; 100 V
Name: Levamisole
Class: Pharmaceutical
Formula: C11H12N2S
Exact mass: 204.0721
SMILES: c1ccc(cc1)[C@H]2CN3CCSC3=N2
InChI: InChI=1S/C11H12N2S/c1-2-4-9(5-3-1)10-8-13-6-7-14-11(13)12-10/h1-5,10H,6-8H2/t10-/m1/s1
Instrument: TripleTOF 5600 SCIEX
Instrument type: LC-ESI-QTOF
Ms type: MS2
Ion mode: POSITIVE
Collision energy: 100
Fragmentation mode: CID
Ionization: ESI
Column name: Zorbax Eclipse Plus C18 2.1 mm x 150 mm, 3.5 um, Agilent
Retention time: 5.021 min
Precursor m/z: 205.0794
Precursor type: [M+H]+
m/z	relative intensity
42.0442	11
51.0298	845
52.0369	33
57.9924	13
59.0009	44
59.9955	167
64.0361	19
65.043	817
71.9938	33
73.0102	13
74.0181	89
75.0252	86
76.0335	78
77.042	999
78.0491	148
79.0568	11
87.0245	11
89.0406	333
90.0481	47
91.0556	422
101.0392	22
102.0473	92
103.0544	134
115.0549	64
117.0664	13
126.0466	27
127.0538	33
128.0621	36
130.0648	36
