Mass spectrum: Butyl-triphenylphosphonium; LC-ESI-QTOF; MS2; 150 V
Name: Butyl-triphenylphosphonium
Class: Industrial_process
Formula: [C22H24P]+
Exact mass: 319.161
SMILES: CCCC[P+](c1ccccc1)(c2ccccc2)c3ccccc3
InChI: InChI=1S/C22H24P/c1-2-3-19-23(20-13-7-4-8-14-20,21-15-9-5-10-16-21)22-17-11-6-12-18-22/h4-18H,2-3,19H2,1H3/q+1
Instrument: TripleTOF 5600 SCIEX
Instrument type: LC-ESI-QTOF
Ms type: MS2
Ion mode: POSITIVE
Collision energy: 150
Fragmentation mode: CID
Ionization: ESI
Column name: Zorbax Eclipse Plus C18 2.1 mm x 150 mm, 3.5 um, Agilent
Retention time: 8.852 min
Precursor m/z: 319.161
Precursor type: [M]+
m/z	relative intensity
56.9943	97
65.0427	111
74.0177	141
76.0322	139
77.042	100
78.0469	50
78.9752	94
79.9836	308
80.9911	470
87.0237	144
89.0393	448
102.0463	172
103.9805	122
107.0043	999
113.0378	144
115.0539	325
126.0469	434
131.0043	155
139.0539	256
150.0461	445
151.0543	617
152.0627	589
155.0037	133
156.0126	136
157.0198	320
179.0046	133
180.0134	128
181.0199	467
224.062	72
