Mass spectrum: Trioctylphosphine oxide; LC-ESI-QTOF; MS2; 120 V
Name: Trioctylphosphine oxide
Class: Industrial_process
Formula: C24H51OP
Exact mass: 386.3678
SMILES: CCCCCCCCP(=O)(CCCCCCCC)CCCCCCCC
InChI: InChI=1S/C24H51OP/c1-4-7-10-13-16-19-22-26(25,23-20-17-14-11-8-5-2)24-21-18-15-12-9-6-3/h4-24H2,1-3H3
Instrument: TripleTOF 5600 SCIEX
Instrument type: LC-ESI-QTOF
Ms type: MS2
Ion mode: POSITIVE
Collision energy: 120
Fragmentation mode: CID
Ionization: ESI
Column name: Zorbax Eclipse Plus C18 2.1 mm x 150 mm, 3.5 um, Agilent
Retention time: 22.9 min
Precursor m/z: 387.375
Precursor type: [M+H]+
m/z	relative intensity
37.0243	10
44.9996	95
49.9997	10
56.9965	35
59.0124	13
63.0075	999
64.0145	165
65.021	13
67.062	12
69.0764	18
71.0119	13
72.018	32
73.026	24
75.0048	75
77.0208	493
78.0284	235
79.038	15
85.0252	16
89.0195	18
90.0267	15
91.0345	70
92.0429	55
103.0348	35
105.0479	43
117.0491	43
119.064	13
131.064	13
145.08	12
