Mass spectrum: Bixafen; LC-ESI-QTOF; MS2; 40 V
Name: Bixafen
Class: Fungicide
Formula: C18H12Cl2F3N3O
Exact mass: 413.031
SMILES: CN1C=C(C(=N1)C(F)F)C(=O)NC2=C(C=C(C=C2)F)C3=CC(=C(C=C3)Cl)Cl
InChI: InChI=1S/C18H12Cl2F3N3O/c1-26-8-12(16(25-26)17(22)23)18(27)24-15-5-3-10(21)7-11(15)9-2-4-13(19)14(20)6-9/h2-8,17H,1H3,(H,24,27)
Instrument: TripleTOF 6600 SCIEX
Instrument type: LC-ESI-QTOF
Ms type: MS2
Ion mode: POSITIVE
Collision energy: 40
Fragmentation mode: CID
Ionization: ESI
Column name: Zorbax Eclipse Plus C18 2.1 mm x 150 mm, 3.5 um, Agilent
Retention time: 13.359 min
Precursor m/z: 414.0382
Precursor type: [M+H]+
m/z	relative intensity
42.0334	26
109.0391	57
129.0443	21
159.0348	79
204.0126	72
229.0066	59
231.0224	53
247.0742	14
263.9769	98
265.9929	999
268.0299	27
269.0253	15
270.0326	13
275.0832	12
276.0911	10
277.9923	21
282.0439	27
283.0459	27
284.0508	11
289.9942	13
290.9886	11
291.0542	12
291.973	45
295.0343	14
296.0354	45
301.9933	14
303.0001	104
303.0769	24
304.0873	63
305.0067	31
310.052	110
311.0549	19
317.0049	21
318.0137	10
319.0219	10
329.9865	32
331.0177	18
332.024	24
332.9975	16
338.0485	570
339.053	42
346.0297	352
354.0159	16
356.0146	19
372.0055	13
374.0245	650
394.0318	63
