Mass spectrum: 2-Dimethylaminoguanosine; LC-ESI-QTOF; MS2; 100 V
Name: 2-Dimethylaminoguanosine
Class: Pharmaceutical
Formula: C12H17N5O5
Exact mass: 311.123
SMILES: CN(C)C1=NC(=O)c2ncn([C@@H]3O[C@H](CO)[C@@H](O)[C@H]3O)c2N1
InChI: InChI=1S/C12H17N5O5/c1-16(2)12-14-9-6(10(21)15-12)13-4-17(9)11-8(20)7(19)5(3-18)22-11/h4-5,7-8,11,18-20H,3H2,1-2H3,(H,14,15,21)/t5-,7-,8-,11-/m1/s1
Instrument: TripleTOF 5600 SCIEX
Instrument type: LC-ESI-QTOF
Ms type: MS2
Ion mode: POSITIVE
Collision energy: 100
Fragmentation mode: CID
Ionization: ESI
Column name: Zorbax Eclipse Plus C18 2.1 mm x 150 mm, 3.5 um, Agilent
Retention time: 4.565 min
Precursor m/z: 312.1302
Precursor type: [M+H]+
m/z	relative intensity
53.0178	124
55.035	624
55.06	156
71.0156	156
71.0624	999
80.0267	249
82.0413	405
93.0116	156
93.0315	124
108.043	187
110.0341	936
119.0329	124
120.0409	156
122.0584	374
135.0282	561
147.0522	156
