Mass spectrum: Didesmethyl-citalopram; LC-ESI-QTOF; MS2; 130 V
Name: Didesmethyl-citalopram
Class: Pharmaceutical; Metabolite
Formula: C18H17FN2O
Exact mass: 296.1325
SMILES: c1cc(ccc1C2(c3ccc(cc3CO2)C#N)CCCN)F
InChI: InChI=1S/C18H17FN2O/c19-16-5-3-15(4-6-16)18(8-1-9-20)17-7-2-13(11-21)10-14(17)12-22-18/h2-7,10H,1,8-9,12,20H2
Instrument: TripleTOF 5600 SCIEX
Instrument type: LC-ESI-QTOF
Ms type: MS2
Ion mode: POSITIVE
Collision energy: 130
Fragmentation mode: CID
Ionization: ESI
Column name: Zorbax Eclipse Plus C18 2.1 mm x 150 mm, 3.5 um, Agilent
Retention time: 7.575 min
Precursor m/z: 297.1398
Precursor type: [M+H]+
m/z	relative intensity
51.0286	118
57.0196	880
59.0347	88
60.0061	30
61.0443	15
65.0424	45
68.0091	15
69.0165	20
70.0256	25
73.0114	27
74.0182	515
75.026	369
76.0343	55
77.0413	144
81.0165	111
81.0302	12
83.0318	999
83.0785	12
84.0045	10
85.0087	70
86.0168	164
87.0256	237
88.0211	101
89.0408	333
90.035	37
92.0117	12
94.0211	78
95.0301	45
96.0394	22
97.0096	25
98.0154	409
99.0243	222
100.0177	10
100.0315	35
101.0377	32
102.0457	58
105.012	37
106.0248	17
107.0283	146
109.0089	42
109.0443	220
110.0155	121
111.0242	123
112.0194	35
113.0391	184
114.0347	75
115.0546	53
117.0162	15
118.0209	25
119.9994	10
120.0367	93
121.0079	20
122.015	250
123.0077	15
123.0225	159
124.0303	63
125.0373	55
126.0461	68
127.0508	35
128.0553	12
129.0159	25
129.0482	12
130.0226	12
131.0302	60
133.0117	22
133.0443	88
134.0153	63
135.0223	48
136.0165	15
137.0387	70
138.03	12
139.0511	45
140.0506	70
141.0141	30
142.0217	22
143.0314	17
144.0395	101
145.0394	15
146.0158	131
146.0495	20
147.0236	108
148.0177	17
148.0311	53
149.0381	123
150.0459	182
151.0524	45
153.014	15
155.0293	55
156.0382	15
157.0428	50
158.0193	30
159.0146	25
161.0392	192
162.0478	73
163.0554	108
164.0475	25
166.021	22
167.0294	88
168.0385	354
169.043	50
169.0571	15
170.0167	25
170.0538	45
171.0157	45
171.0342	10
172.0224	22
172.037	15
173.0404	73
174.0271	15
174.0472	146
175.043	68
176.0569	22
179.0288	139
180.0381	156
181.0451	247
182.039	15
182.0522	22
185.0386	161
186.0432	144
187.0532	250
188.0478	111
188.0677	12
189.0664	20
190.0217	12
191.0304	50
192.0347	217
193.0404	68
194.054	58
195.0475	22
196.0267	40
197.0392	222
198.0475	407
199.0487	197
200.0635	73
201.0626	15
203.032	80
204.0367	96
205.0442	298
206.045	131
207.0594	30
208.0564	12
209.0365	35
210.0476	80
211.0535	220
212.0517	139
213.0701	45
214.0684	20
215.03	45
216.0371	323
217.0431	232
218.0527	275
219.0517	45
220.0656	10
222.0408	35
222.0597	12
223.0429	141
224.0507	68
225.0567	96
228.0277	10
228.0467	10
229.0427	88
230.0451	111
231.056	58
231.0712	10
232.0641	10
235.0474	15
236.0508	75
237.0585	17
238.0644	32
240.0355	17
241.0432	27
242.0447	68
243.0489	225
245.0692	20
254.0386	12
256.0551	32
