Mass spectrum: 2,2`-Dihydroxy-4,4`-dimethoxybenzophenone; LC-ESI-QTOF; MS2; 130 V
Name: 2,2`-Dihydroxy-4,4`-dimethoxybenzophenone
Class: Industrial_process; Personal_care_product
Formula: C15H14O5
Exact mass: 274.0841
SMILES: COc1ccc(c(O)c1)C(=O)c2ccc(OC)cc2O
InChI: InChI=1S/C15H14O5/c1-19-9-3-5-11(13(16)7-9)15(18)12-6-4-10(20-2)8-14(12)17/h3-8,16-17H,1-2H3
Instrument: TripleTOF 5600 SCIEX
Instrument type: LC-ESI-QTOF
Ms type: MS2
Ion mode: POSITIVE
Collision energy: 130
Fragmentation mode: CID
Ionization: ESI
Column name: Zorbax Eclipse Plus C18 2.1 mm x 150 mm, 3.5 um, Agilent
Retention time: 12.683 min
Precursor m/z: 275.0914
Precursor type: [M+H]+
m/z	relative intensity
51.0286	999
53.0087	253
65.0426	134
69.0006	372
74.0194	164
75.0262	74
76.032	104
79.0211	59
80.0278	74
89.0396	104
