Mass spectrum: Carazolol; LC-ESI-QTOF; MS2; 150 V
Name: Carazolol
Class: Pharmaceutical
Formula: C18H22N2O2
Exact mass: 298.1681
SMILES: CC(C)NCC(O)COc1cccc2[nH]c3ccccc3c12
InChI: InChI=1S/C18H22N2O2/c1-12(2)19-10-13(21)11-22-17-9-5-8-16-18(17)14-6-3-4-7-15(14)20-16/h3-9,12-13,19-21H,10-11H2,1-2H3
Instrument: TripleTOF 5600 SCIEX
Instrument type: LC-ESI-QTOF
Ms type: MS2
Ion mode: POSITIVE
Collision energy: 150
Fragmentation mode: CID
Ionization: ESI
Column name: Zorbax Eclipse Plus C18 2.1 mm x 150 mm, 3.5 um, Agilent
Retention time: 6.882 min
Precursor m/z: 299.1754
Precursor type: [M+H]+
m/z	relative intensity
44.0666	36
56.0541	65
58.0696	57
64.0332	36
65.0425	202
73.0119	50
74.0179	593
74.037	28
75.026	644
76.0327	231
76.0455	28
77.0411	875
78.0488	115
85.0088	108
86.0173	419
86.0395	28
87.0237	557
87.0668	36
88.0272	209
89.04	999
90.0469	72
91.053	28
98.0156	253
99.0239	152
100.032	43
101.0387	195
102.0456	347
103.052	43
110.0137	101
111.023	86
112.0328	101
113.0387	666
113.0618	36
114.0344	94
114.0462	43
115.0548	231
123.0098	28
125.0401	72
126.0458	470
127.0539	405
128.0485	72
128.0602	152
137.0381	333
138.0439	180
139.054	673
140.0499	333
150.0469	202
151.0542	57
152.0487	36
153.057	43
154.0634	72
161.0377	57
162.0473	115
163.0544	318
164.0507	195
166.0637	57
175.0447	50
176.0473	28
188.0514	86
189.057	36
190.0648	94
