Mass spectrum: Sulfasalazine; LC-ESI-QTOF; MS2; 140 V
Name: Sulfasalazine
Class: Pharmaceutical
Formula: C18H14N4O5S
Exact mass: 398.0685
SMILES: C1=CC=NC(=C1)NS(=O)(=O)C2=CC=C(C=C2)NN=C3C=CC(=O)C(=C3)C(=O)O
InChI: InChI=1S/C18H14N4O5S/c23-16-9-6-13(11-15(16)18(24)25)21-20-12-4-7-14(8-5-12)28(26,27)22-17-3-1-2-10-19-17/h1-11,20H,(H,19,22)(H,24,25)
Instrument: TripleTOF 5600 SCIEX
Instrument type: LC-ESI-QTOF
Ms type: MS2
Ion mode: POSITIVE
Collision energy: 140
Fragmentation mode: CID
Ionization: ESI
Column name: Zorbax Eclipse Plus C18 2.1 mm x 150 mm, 3.5 um, Agilent
Retention time: 9.217 min
Precursor m/z: 399.0758
Precursor type: [M+H]+
m/z	relative intensity
41.0397	95
50.0252	108
51.0311	30
52.027	21
55.0273	43
61.0145	39
62.0217	156
63.0306	251
66.0398	21
67.0491	999
75.0295	52
76.0358	52
77.0419	26
78.0403	47
81.0378	56
89.0457	21
91.0212	56
93.0492	17
94.0569	112
113.0417	26
140.0514	30
141.0593	21
