Mass spectrum: Lisofylline; LC-ESI-QTOF; MS2; 80 V
Name: Lisofylline
Class: Pharmaceutical; Metabolite
Formula: C13H20N4O3
Exact mass: 280.1535
SMILES: CC(O)CCCCN1C(=O)N(C)c2ncn(C)c2C1=O
InChI: InChI=1S/C13H20N4O3/c1-9(18)6-4-5-7-17-12(19)10-11(14-8-15(10)2)16(3)13(17)20/h8-9,18H,4-7H2,1-3H3
Instrument: TripleTOF 5600 SCIEX
Instrument type: LC-ESI-QTOF
Ms type: MS2
Ion mode: POSITIVE
Collision energy: 80
Fragmentation mode: CID
Ionization: ESI
Column name: Zorbax Eclipse Plus C18 2.1 mm x 150 mm, 3.5 um, Agilent
Retention time: 6.425 min
Precursor m/z: 281.1608
Precursor type: [M+H]+
m/z	relative intensity
42.044	559
53.0194	149
54.0391	99
54.0509	59
55.0608	179
56.0184	209
56.0348	39
56.0555	119
67.0336	999
67.0597	39
68.0416	229
68.0555	99
69.0484	279
79.0303	39
81.0471	249
82.0539	89
83.0639	229
83.0884	49
85.0429	39
93.045	109
94.0437	89
95.0487	49
108.0562	199
109.0416	49
110.0727	79
120.0556	109
122.0578	209
123.0409	259
138.0646	59
