Mass spectrum: Valsartan; LC-ESI-QTOF; MS2; 80 V
Name: Valsartan
Class: Pharmaceutical
Formula: C24H29N5O3
Exact mass: 435.227
SMILES: CCCCC(=O)N(Cc1ccc(cc1)c2ccccc2c3n[nH]nn3)[C@@H](C(C)C)C(O)=O
InChI: InChI=1S/C24H29N5O3/c1-4-5-10-21(30)29(22(16(2)3)24(31)32)15-17-11-13-18(14-12-17)19-8-6-7-9-20(19)23-25-27-28-26-23/h6-9,11-14,16,22H,4-5,10,15H2,1-3H3,(H,31,32)(H,25,26,27,28)/t22-/m0/s1
Instrument: TripleTOF 5600 SCIEX
Instrument type: LC-ESI-QTOF
Ms type: MS2
Ion mode: POSITIVE
Collision energy: 80
Fragmentation mode: CID
Ionization: ESI
Column name: Zorbax Eclipse Plus C18 2.1 mm x 150 mm, 3.5 um, Agilent
Retention time: 11.443 min
Precursor m/z: 436.2343
Precursor type: [M+H]+
m/z	relative intensity
77.0416	96
80.052	23
102.0347	10
115.0542	39
116.0506	11
117.0568	12
127.0547	70
128.0579	41
129.0448	12
138.0452	21
139.0534	35
140.0492	145
141.0668	25
150.0449	18
151.0547	307
152.0622	933
153.0702	576
154.0644	49
163.0545	248
164.0598	167
165.0693	402
166.0647	92
167.0723	79
168.0685	35
176.0615	65
177.0654	139
178.0763	807
179.073	395
180.0806	801
181.0739	35
188.0496	14
189.0571	69
190.0653	999
191.0716	216
192.0687	440
193.088	50
194.094	16
205.0764	921
206.0841	359
207.0914	115
208.0743	30
