Mass spectrum: Valsartan; LC-ESI-QTOF; MS2; 90 V
Name: Valsartan
Class: Pharmaceutical
Formula: C24H29N5O3
Exact mass: 435.227
SMILES: CCCCC(=O)N(Cc1ccc(cc1)c2ccccc2c3n[nH]nn3)[C@@H](C(C)C)C(O)=O
InChI: InChI=1S/C24H29N5O3/c1-4-5-10-21(30)29(22(16(2)3)24(31)32)15-17-11-13-18(14-12-17)19-8-6-7-9-20(19)23-25-27-28-26-23/h6-9,11-14,16,22H,4-5,10,15H2,1-3H3,(H,31,32)(H,25,26,27,28)/t22-/m0/s1
Instrument: TripleTOF 5600 SCIEX
Instrument type: LC-ESI-QTOF
Ms type: MS2
Ion mode: POSITIVE
Collision energy: 90
Fragmentation mode: CID
Ionization: ESI
Column name: Zorbax Eclipse Plus C18 2.1 mm x 150 mm, 3.5 um, Agilent
Retention time: 11.443 min
Precursor m/z: 436.2343
Precursor type: [M+H]+
m/z	relative intensity
77.041	76
80.052	19
89.0406	10
102.0375	13
113.0372	17
114.0471	14
115.0537	47
116.0514	12
117.0572	10
125.0369	10
126.0454	11
127.0542	94
128.0503	26
128.0618	19
129.0467	10
138.0468	30
139.0541	55
140.0492	149
141.0593	16
150.0472	32
151.0541	373
152.0622	999
153.0695	325
154.0646	35
162.0466	14
163.0543	271
164.0566	209
165.0688	332
166.0651	70
167.0723	41
168.0684	23
176.0614	85
177.0648	202
178.074	621
179.0724	265
180.0809	332
188.0489	26
189.0563	80
190.065	708
191.0675	123
192.0685	276
193.0886	25
203.0609	12
205.0758	711
206.0827	138
207.0913	18
