Mass spectrum: Nafcillin; LC-ESI-QTOF; MS2; 120 V
Name: Nafcillin
Class: Pharmaceutical
Formula: C21H22N2O5S
Exact mass: 414.1249
SMILES: CCOC1=C(C2=CC=CC=C2C=C1)C(=O)NC3C4N(C3=O)C(C(S4)(C)C)C(=O)O
InChI: InChI=1S/C21H22N2O5S/c1-4-28-13-10-9-11-7-5-6-8-12(11)14(13)17(24)22-15-18(25)23-16(20(26)27)21(2,3)29-19(15)23/h5-10,15-16,19H,4H2,1-3H3,(H,22,24)(H,26,27)
Instrument: TripleTOF 6600 SCIEX
Instrument type: LC-ESI-QTOF
Ms type: MS2
Ion mode: POSITIVE
Collision energy: 120
Fragmentation mode: CID
Ionization: ESI
Column name: Zorbax Eclipse Plus C18 2.1 mm x 150 mm, 3.5 um, Agilent
Retention time: 10.616 min
Precursor m/z: 415.1322
Precursor type: [M+H]+
m/z	relative intensity
39.0228	13
62.0145	15
63.0224	70
65.0382	93
75.023	17
77.038	29
87.0224	12
88.0304	11
89.0381	340
113.0372	15
114.0455	52
115.0536	999
126.0452	32
127.0529	77
128.0604	25
139.0526	11
140.0481	15
143.0477	25
151.053	11
152.0596	40
153.0578	10
154.0646	17
155.0598	16
182.0595	12
