Mass spectrum: 4-(Dimethylamino)azobenzene; LC-ESI-QTOF; MS2; 40 V
Name: 4-(Dimethylamino)azobenzene
Formula: C14H15N3
Exact mass: 225.1266
SMILES: CN(C)C1=CC=C(C=C1)N=NC2=CC=CC=C2
InChI: InChI=1S/C14H15N3/c1-17(2)14-10-8-13(9-11-14)16-15-12-6-4-3-5-7-12/h3-11H,1-2H3
Instrument: TripleTOF 6600 SCIEX
Instrument type: LC-ESI-QTOF
Ms type: MS2
Ion mode: POSITIVE
Collision energy: 40
Fragmentation mode: CID
Ionization: ESI
Column name: Zorbax Eclipse Plus C18 2.1 mm x 150 mm, 3.5 um, Agilent
Retention time: 15.513 min
Precursor m/z: 226.1339
Precursor type: [M+H]+
m/z	relative intensity
51.0221	40
65.0374	10
68.0481	10
77.0377	999
79.0529	44
92.0482	30
93.0438	26
95.0475	10
105.044	29
106.0639	143
119.0592	63
120.0798	356
121.0872	92
133.0751	214
134.0816	53
