Mass spectrum: 1-Oxo-ibuprofen; LC-ESI-QTOF; MS2; 50 V
Name: 1-Oxo-ibuprofen
Class: Pharmaceutical; Transformation_product
Formula: C13H16O3
Exact mass: 220.1099
SMILES: CC(C)C(=O)C1=CC=C(C=C1)C(C)C(=O)O
InChI: InChI=1S/C13H16O3/c1-8(2)12(14)11-6-4-10(5-7-11)9(3)13(15)16/h4-9H,1-3H3,(H,15,16)
Instrument: TripleTOF 5600 SCIEX
Instrument type: LC-ESI-QTOF
Ms type: MS2
Ion mode: POSITIVE
Collision energy: 50
Fragmentation mode: CID
Ionization: ESI
Column name: Zorbax Eclipse Plus C18 2.1 mm x 150 mm, 3.5 um, Agilent
Retention time: 10.239 min
Precursor m/z: 221.1172
Precursor type: [M+H]+
m/z	relative intensity
43.0265	311
53.0442	27
55.06	209
57.0741	94
65.0427	114
67.0583	209
69.0385	27
69.0732	51
77.0415	473
77.0795	19
78.0497	27
79.0571	347
81.0709	181
83.0512	23
83.0863	31
91.0559	777
92.0624	27
93.0718	71
95.0873	23
103.055	177
104.0641	51
105.0704	999
105.0995	23
107.0486	67
107.0854	51
109.0662	27
109.1007	47
111.0803	59
115.0543	244
116.0624	43
117.0695	311
119.0864	130
121.0668	55
121.103	19
122.0722	19
123.0441	43
127.0548	43
128.0609	114
129.0691	106
130.0766	31
131.0501	15
131.0847	59
132.0925	15
133.0663	19
133.1014	126
135.0821	35
137.0589	23
138.0652	47
141.0695	98
142.0789	118
145.1017	43
163.1125	27
