Mass spectrum: Pirimicarb; LC-ESI-QTOF; MS2; 80 V
Name: Pirimicarb
Class: Insecticide
Formula: C11H18N4O2
Exact mass: 238.143
SMILES: CC1=C(N=C(N=C1OC(=O)N(C)C)N(C)C)C
InChI: InChI=1S/C11H18N4O2/c1-7-8(2)12-10(14(3)4)13-9(7)17-11(16)15(5)6/h1-6H3
Instrument: TripleTOF 6600 SCIEX
Instrument type: LC-ESI-QTOF
Ms type: MS2
Ion mode: POSITIVE
Collision energy: 80
Fragmentation mode: CID
Ionization: ESI
Column name: Zorbax Eclipse Plus C18 2.1 mm x 150 mm, 3.5 um, Agilent
Retention time: 6.157 min
Precursor m/z: 239.1503
Precursor type: [M+H]+
m/z	relative intensity
42.0339	96
44.049	66
53.0383	30
54.0336	30
55.0288	33
56.0129	276
58.0648	27
66.0328	18
68.049	33
69.0077	24
69.0447	132
69.0561	33
70.0526	36
71.0599	45
72.0442	999
83.0236	21
85.0754	45
93.0438	39
94.0513	18
95.0602	24
109.0756	33
