Mass spectrum: Flutamide; LC-ESI-QTOF; MS2; 40 V
Name: Flutamide
Class: Pharmaceutical
Formula: C11H11F3N2O3
Exact mass: 276.0722
SMILES: CC(C)C(=O)NC1=CC(=C(C=C1)[N+](=O)[O-])C(F)(F)F
InChI: InChI=1S/C11H11F3N2O3/c1-6(2)10(17)15-7-3-4-9(16(18)19)8(5-7)11(12,13)14/h3-6H,1-2H3,(H,15,17)
Instrument: TripleTOF 6600 SCIEX
Instrument type: LC-ESI-QTOF
Ms type: MS2
Ion mode: POSITIVE
Collision energy: 40
Fragmentation mode: CID
Ionization: ESI
Column name: Zorbax Eclipse Plus C18 2.1 mm x 150 mm, 3.5 um, Agilent
Retention time: 12.297 min
Precursor m/z: 277.0795
Precursor type: [M+H]+
m/z	relative intensity
39.0226	59
41.0383	345
43.054	999
66.0354	12
71.0479	59
111.047	108
114.0253	53
141.0376	76
142.0462	83
160.0361	49
161.0434	702
187.0305	29
190.0343	12
207.0349	25
212.0663	23
231.0863	371
277.0772	40
