Mass spectrum: Myclobutanil; LC-ESI-QTOF; MS2; 90 V
Name: Myclobutanil
Class: Fungicide
Formula: C15H17ClN4
Exact mass: 288.1142
SMILES: CCCCC(Cn1cncn1)(C#N)c2ccc(Cl)cc2
InChI: InChI=1S/C15H17ClN4/c1-2-3-8-15(9-17,10-20-12-18-11-19-20)13-4-6-14(16)7-5-13/h4-7,11-12H,2-3,8,10H2,1H3
Instrument: TripleTOF 6600 SCIEX
Instrument type: LC-ESI-QTOF
Ms type: MS2
Ion mode: POSITIVE
Collision energy: 90
Fragmentation mode: CID
Ionization: ESI
Column name: Zorbax Eclipse Plus C18 2.1 mm x 150 mm, 3.5 um, Agilent
Retention time: 12.025 min
Precursor m/z: 289.1215
Precursor type: [M+H]+
m/z	relative intensity
37.0074	13
38.0154	12
39.0232	74
41.0386	25
42.0216	15
43.0295	312
46.968	12
48.9842	27
50.0156	20
51.0235	41
61.0074	24
62.0153	67
63.0232	324
64.0311	25
65.0387	56
70.0405	916
72.984	239
74.0151	32
74.9995	34
75.0232	141
76.0311	18
77.0385	74
82.0397	31
88.0304	17
89.039	999
90.0468	331
96.9841	25
98.9996	458
101.0384	58
102.0464	75
103.0537	29
114.0342	22
114.0456	18
115.0545	391
116.0618	89
122.9995	36
125.0156	282
127.0535	18
128.0502	13
128.0623	51
129.0449	34
129.0693	10
130.0654	22
141.0702	12
149.016	18
152.0624	25
