Mass spectrum: 1-Cyclohexyl-3-(2-methylphenyl)urea; LC-ESI-QTOF; MS2; 120 V
Name: 1-Cyclohexyl-3-(2-methylphenyl)urea
Formula: C14H20N2O
Exact mass: 232.1576
SMILES: O=C(NC1CCCCC1)Nc2ccccc2C
InChI: InChI=1S/C14H20N2O/c1-11-7-5-6-10-13(11)16-14(17)15-12-8-3-2-4-9-12/h5-7,10,12H,2-4,8-9H2,1H3,(H2,15,16,17)
Instrument: TripleTOF 6600 SCIEX
Instrument type: LC-ESI-QTOF
Ms type: MS2
Ion mode: POSITIVE
Collision energy: 120
Fragmentation mode: CID
Ionization: ESI
Column name: Zorbax Eclipse Plus C18 2.1 mm x 150 mm, 3.5 um, Agilent
Retention time: 11.026 min
Precursor m/z: 233.1649
Precursor type: [M+H]+
m/z	relative intensity
35.9989	27
37.0067	208
38.0027	17
38.0144	192
39.0226	999
40.0299	26
41.0258	15
41.0375	46
42.0331	17
44.0122	20
49.0065	29
50.0143	164
51.0219	222
52.0169	50
53.0375	24
54.0325	50
55.0531	20
61.0062	19
62.0139	62
63.0215	69
65.0374	522
66.034	19
66.045	225
67.0396	17
77.0376	43
78.0321	29
92.0479	90
93.0557	78
