Mass spectrum: Amethopterin; LC-ESI-QTOF; MS2; 60 V
Name: Amethopterin
Class: Pharmaceutical
Formula: C20H22N8O5
Exact mass: 454.1713
SMILES: CN(Cc1cnc2nc(N)nc(N)c2n1)c3ccc(cc3)C(=O)NC(CCC(O)=O)C(O)=O
InChI: InChI=1S/C20H22N8O5/c1-28(9-11-8-23-17-15(24-11)16(21)26-20(22)27-17)12-4-2-10(3-5-12)18(31)25-13(19(32)33)6-7-14(29)30/h2-5,8,13H,6-7,9H2,1H3,(H,25,31)(H,29,30)(H,32,33)(H4,21,22,23,26,27)
Instrument: TripleTOF 5600 SCIEX
Instrument type: LC-ESI-QTOF
Ms type: MS2
Ion mode: NEGATIVE
Collision energy: 60
Fragmentation mode: CID
Ionization: ESI
Column name: Zorbax Eclipse Plus C18 2.1 mm x 150 mm, 3.5 um, Agilent
Retention time: 5.057 min
Precursor m/z: 453.164
Precursor type: [M-H]-
m/z	relative intensity
41.0185	90
105.0576	105
106.0666	454
119.0363	60
131.0623	60
132.0443	999
133.0536	317
149.0719	438
150.057	227
157.0364	151
161.0714	257
162.0773	75
163.0828	60
174.0655	999
175.0849	181
189.1055	90
191.119	499
217.097	105
235.1063	90
238.11	75
