Mass spectrum: Daidzein; LC-ESI-QTOF; MS2; 120 V
Name: Daidzein
Class: Pharmaceutical
Formula: C15H10O4
Exact mass: 254.0579
SMILES: Oc1ccc(cc1)C2=COc3cc(O)ccc3C2=O
InChI: InChI=1S/C15H10O4/c16-10-3-1-9(2-4-10)13-8-19-14-7-11(17)5-6-12(14)15(13)18/h1-8,16-17H
Instrument: TripleTOF 5600 SCIEX
Instrument type: LC-ESI-QTOF
Ms type: MS2
Ion mode: POSITIVE
Collision energy: 120
Fragmentation mode: CID
Ionization: ESI
Column name: Zorbax Eclipse Plus C18 2.1 mm x 150 mm, 3.5 um, Agilent
Retention time: 7.744 min
Precursor m/z: 255.0652
Precursor type: [M+H]+
m/z	relative intensity
36.0001	48
37.0072	252
38.0149	204
39.0231	999
49.0077	60
50.0154	240
51.0231	770
52.0312	96
53.0014	96
53.038	48
61.0077	180
62.0154	312
63.0229	661
65.0386	794
68.997	264
73.0075	48
74.015	613
75.023	349
76.0311	180
77.0384	649
78.0455	96
86.0164	96
87.0225	84
89.0386	337
98.0155	108
99.0232	120
101.0363	60
102.0467	168
113.0371	72
115.0529	288
126.0452	240
127.0527	60
139.0527	156
149.0373	48
150.0464	349
151.0544	276
152.0619	144
