Mass spectrum: Cyclopropyltriphenylphosphonium; LC-ESI-QTOF; MS2; 100 V
Name: Cyclopropyltriphenylphosphonium
Formula: [C21H20P]+
Exact mass: 303.1297
SMILES: C1CC1[P+](C2=CC=CC=C2)(C3=CC=CC=C3)C4=CC=CC=C4
InChI: InChI=1S/C21H20P/c1-4-10-18(11-5-1)22(21-16-17-21,19-12-6-2-7-13-19)20-14-8-3-9-15-20/h1-15,21H,16-17H2/q+1
Instrument: TripleTOF 6600 SCIEX
Instrument type: LC-ESI-QTOF
Ms type: MS2
Ion mode: POSITIVE
Collision energy: 100
Fragmentation mode: CID
Ionization: ESI
Column name: Zorbax Eclipse Plus C18 2.1 mm x 150 mm, 3.5 um, Agilent
Retention time: 7.786 min
Precursor m/z: 303.1297
Precursor type: [M]+
m/z	relative intensity
65.0424	91
77.0418	57
79.984	58
80.9921	107
89.0407	109
91.0565	115
107.0072	999
115.0567	509
126.0489	75
133.0222	117
139.0565	230
151.0564	168
152.0648	995
157.0227	467
181.0218	195
183.0375	459
