Mass spectrum: Octrizole; LC-ESI-QTOF; MS2; 140 V
Name: Octrizole
Class: Industrial_process
Formula: C20H25N3O
Exact mass: 323.1998
SMILES: CC(C)(C)CC(C)(C)C1=CC(=C(C=C1)O)N2N=C3C=CC=CC3=N2
InChI: InChI=1S/C20H25N3O/c1-19(2,3)13-20(4,5)14-10-11-18(24)17(12-14)23-21-15-8-6-7-9-16(15)22-23/h6-12,24H,13H2,1-5H3
Instrument: TripleTOF 5600 SCIEX
Instrument type: LC-ESI-QTOF
Ms type: MS2
Ion mode: POSITIVE
Collision energy: 140
Fragmentation mode: CID
Ionization: ESI
Column name: Zorbax Eclipse Plus C18 2.1 mm x 150 mm, 3.5 um, Agilent
Retention time: 19.562 min
Precursor m/z: 324.207
Precursor type: [M+H]+
m/z	relative intensity
50.0241	233
63.0289	233
65.045	932
77.0436	999
89.044	266
103.0546	133
115.0592	133
151.0536	133
152.0662	199
