Mass spectrum: 4-Methyl-1H-benzotriazole; LC-ESI-QTOF; MS2; 40 V
Name: 4-Methyl-1H-benzotriazole
Class: Industrial_process; Personal_care_product
Formula: C7H7N3
Exact mass: 133.064
SMILES: CC1=CC=CC2=NNN=C12
InChI: InChI=1S/C7H7N3/c1-5-3-2-4-6-7(5)9-10-8-6/h2-4H,1H3,(H,8,9,10)
Instrument: TripleTOF 6600 SCIEX
Instrument type: LC-ESI-QTOF
Ms type: MS2
Ion mode: NEGATIVE
Collision energy: 40
Fragmentation mode: CID
Ionization: ESI
Column name: Zorbax Eclipse Plus C18 2.1 mm x 150 mm, 3.5 um, Agilent
Retention time: 7.13 min
Precursor m/z: 132.0561
Precursor type: [M-H]-
m/z	relative intensity
40.0187	119
42.0088	44
50.0026	113
63.0104	100
64.0181	676
88.0191	204
89.0268	162
102.0355	173
103.0413	549
104.0484	217
132.0548	999
