Mass spectrum: Perfluorooctanesulfonamide; LC-ESI-QTOF; MS2; 120 V
Name: Perfluorooctanesulfonamide
Class: Industrial_process
Formula: C8H2F17NO2S
Exact mass: 498.9535
InChI: InChI=1S/C8H2F17NO2S/c9-1(10,3(13,14)5(17,18)7(21,22)23)2(11,12)4(15,16)6(19,20)8(24,25)29(26,27)28/h(H2,26,27,28)
Instrument: TripleTOF 6600 SCIEX
Instrument type: LC-ESI-QTOF
Ms type: CID
Ion mode: NEGATIVE
Collision energy: 120
Ionization: ESI
Column name: Zorbax Eclipse Plus C18 2.1 mm x 150 mm, 3.5 um, Agilent
Retention time: 14.389 min
Precursor m/z: 497.9462
Precursor type: [M-H]-
m/z	relative intensity
47.9653	132
61.9677	18
63.9597	166
77.9625	999
78.9695	13
