Mass spectrum: Difenoconazole; LC-ESI-QTOF; MS2; 150 V
Name: Difenoconazole
Class: Fungicide
Formula: C19H17Cl2N3O3
Exact mass: 405.0647
SMILES: CC1COC(Cn2cncn2)(O1)c3ccc(Oc4ccc(Cl)cc4)cc3Cl
InChI: InChI=1S/C19H17Cl2N3O3/c1-13-9-25-19(27-13,10-24-12-22-11-23-24)17-7-6-16(8-18(17)21)26-15-4-2-14(20)3-5-15/h2-8,11-13H,9-10H2,1H3
Instrument: TripleTOF 6600 SCIEX
Instrument type: LC-ESI-QTOF
Ms type: MS2
Ion mode: POSITIVE
Collision energy: 150
Fragmentation mode: CID
Ionization: ESI
Column name: Zorbax Eclipse Plus C18 2.1 mm x 150 mm, 3.5 um, Agilent
Retention time: 13.755 min
Precursor m/z: 406.072
Precursor type: [M+H]+
m/z	relative intensity
39.023	25
49.0075	30
50.015	173
51.0229	126
60.9836	17
62.0152	23
63.0225	63
72.9832	39
73.0071	92
74.0151	999
75.0226	591
76.0302	42
77.0383	106
78.046	22
84.9833	111
86.0144	18
87.0226	23
88.0318	15
89.0383	56
98.014	25
99.0227	15
101.0376	11
102.0456	23
110.9997	17
113.0378	58
115.0543	11
125.0378	18
126.0458	92
127.053	46
137.0372	44
138.045	29
139.0532	89
141.0104	17
149.0381	10
150.046	119
151.0534	145
152.0607	155
