Mass spectrum: Mefloquine; LC-ESI-QTOF; MS2; 140 V
Name: Mefloquine
Class: Pharmaceutical
Formula: C17H16F6N2O
Exact mass: 378.1167
SMILES: C1CCNC(C1)C(C2=CC(=NC3=C2C=CC=C3C(F)(F)F)C(F)(F)F)O
InChI: InChI=1S/C17H16F6N2O/c18-16(19,20)11-5-3-4-9-10(15(26)12-6-1-2-7-24-12)8-13(17(21,22)23)25-14(9)11/h3-5,8,12,15,24,26H,1-2,6-7H2
Instrument: TripleTOF 5600 SCIEX
Instrument type: LC-ESI-QTOF
Ms type: MS2
Ion mode: POSITIVE
Collision energy: 140
Fragmentation mode: CID
Ionization: ESI
Column name: Zorbax Eclipse Plus C18 2.1 mm x 150 mm, 3.5 um, Agilent
Retention time: 8.432 min
Precursor m/z: 379.124
Precursor type: [M+H]+
m/z	relative intensity
42.0452	30
51.0136	26
51.0325	91
54.0438	82
56.0588	239
57.0212	61
65.0476	65
67.0478	266
68.0556	213
69.0005	335
70.07	109
73.0111	26
74.0202	257
75.0104	170
75.0275	322
76.0207	21
76.033	47
77.0439	183
80.0538	95
80.068	17
81.0178	183
82.0148	26
82.0686	279
83.0342	91
84.0844	126
85.0097	139
86.0178	191
87.0262	235
88.0141	47
88.0262	226
89.0411	78
92.0094	26
92.9977	39
93.017	117
94.0244	34
96.0835	26
97.0091	65
98.0175	449
99.0248	680
100.0187	222
101.0234	43
101.0404	82
102.0413	56
103.0016	21
104.008	30
105.0143	143
106.0234	157
107.0288	143
108.025	21
109.0078	61
110.0169	139
111.0105	69
111.0236	292
112.019	143
113.0397	370
114.0361	148
115.0558	47
116.0083	43
117.0147	130
118.0207	69
119.0144	26
119.0288	26
120.0007	52
120.0374	26
121.0056	69
122.0149	344
123.0172	793
124.0193	562
125.0196	113
125.0383	327
126.0153	21
126.0456	366
127.0504	143
129.0127	43
129.0488	30
130.0122	61
131.0296	396
132.032	178
133.0459	122
134.0129	39
135.0087	52
135.022	52
136.0149	78
136.0333	26
137.0126	26
137.0384	392
138.0413	396
139.0512	362
140.0499	287
141.0144	170
142.0176	122
143.0143	69
143.03	126
144.0298	122
145.0123	17
145.0318	61
146.0168	139
146.0448	26
147.0113	466
148.0172	396
149.021	296
149.0393	174
150.0421	497
151.0443	423
152.049	414
153.0591	104
154.0649	43
155.0291	274
156.0286	183
157.0441	165
158.0388	366
159.0022	17
160.0116	26
161.021	126
161.0402	30
162.0287	405
163.0459	235
164.0505	999
165.0563	113
166.0186	56
166.0717	69
167.0093	126
167.0275	213
168.035	475
169.0314	191
170.0405	117
171.0147	43
171.0443	34
172.021	74
173.0218	109
174.0184	100
174.0402	78
175.0371	366
176.03	327
176.0605	52
177.0525	143
178.0488	17
178.0644	26
179.0294	78
179.059	65
180.0248	209
181.0403	209
182.0405	488
183.0334	34
183.0516	17
184.0603	39
185.021	78
186.0286	418
187.0275	205
188.046	309
189.0423	161
190.064	65
191.0121	21
191.0363	21
191.0628	39
192.0345	65
193.0306	196
194.027	148
194.0491	26
195.0457	87
196.0583	39
197.0172	21
198.0195	56
199.0341	100
200.0315	279
201.0513	61
202.049	56
203.0632	65
204.018	109
204.0732	21
205.0343	69
205.0808	17
206.0359	170
207.0337	104
208.0564	56
209.0502	30
210.0257	47
211.0199	78
212.0282	47
213.0415	130
214.0451	30
215.0413	17
216.075	17
217.0255	74
218.02	47
220.0445	43
224.0331	56
225.0426	52
226.0504	43
229.012	34
230.0412	21
231.0233	26
231.0392	21
232.0526	47
234.0482	26
236.0216	39
242.0266	21
244.0383	21
245.0408	21
