Mass spectrum: 2-Mercaptobenzoxazole; LC-ESI-QTOF; MS2; 40 V
Name: 2-Mercaptobenzoxazole
Class: Industrial_process
Formula: C7H5NOS
Exact mass: 151.0092
SMILES: S=C1Nc2ccccc2O1
InChI: InChI=1S/C7H5NOS/c10-7-8-5-3-1-2-4-6(5)9-7/h1-4H,(H,8,10)
Instrument: TripleTOF 5600 SCIEX
Instrument type: LC-ESI-QTOF
Ms type: MS2
Ion mode: POSITIVE
Collision energy: 40
Fragmentation mode: CID
Ionization: ESI
Column name: Zorbax Eclipse Plus C18 2.1 mm x 150 mm, 3.5 um, Agilent
Retention time: 8.264 min
Precursor m/z: 152.0165
Precursor type: [M+H]+
m/z	relative intensity
59.9954	72
60.9799	188
65.0428	999
80.0514	516
90.0356	472
91.0433	86
92.027	38
92.0506	62
93.0346	91
94.0416	106
97.0115	111
106.9953	115
108.0432	86
119.0368	62
120.0423	33
125.0053	43
132.9982	48
134.0057	530
152.0169	236
