Mass spectrum: (Methoxymethyl)triphenylphosphonium; LC-ESI-QTOF; MS2; 140 V
Name: (Methoxymethyl)triphenylphosphonium
Class: Industrial_process
Formula: [C20H20OP]+
Exact mass: 307.1246
SMILES: COC[P+](C1=CC=CC=C1)(C2=CC=CC=C2)C3=CC=CC=C3
InChI: InChI=1S/C20H20OP/c1-21-17-22(18-11-5-2-6-12-18,19-13-7-3-8-14-19)20-15-9-4-10-16-20/h2-16H,17H2,1H3/q+1
Instrument: TripleTOF 5600 SCIEX
Instrument type: LC-ESI-QTOF
Ms type: MS2
Ion mode: POSITIVE
Collision energy: 140
Fragmentation mode: CID
Ionization: ESI
Column name: Zorbax Eclipse Plus C18 2.1 mm x 150 mm, 3.5 um, Agilent
Retention time: 7.502 min
Precursor m/z: 307.1246
Precursor type: [M]+
m/z	relative intensity
39.0232	72
45.0338	461
50.0149	68
51.0232	72
56.9891	104
62.0148	92
63.0226	228
65.0382	124
67.9801	56
74.0137	112
75.0222	52
76.0295	128
77.0373	104
78.9714	96
79.9799	196
80.9875	397
86.0127	68
87.0209	120
89.0369	441
91.9779	60
98.0137	76
102.0442	160
103.9792	100
104.9865	60
107.0031	999
113.0378	128
115.0533	304
125.038	56
126.0456	377
131.0043	124
139.052	216
150.0462	248
151.0534	513
152.0611	565
155.0037	124
156.0125	124
157.0201	280
179.0035	104
180.013	184
181.019	417
