Mass spectrum: 2-Hydroxyatrazine; LC-ESI-QTOF; MS2; 40 V
Name: 2-Hydroxyatrazine
Class: Transformation_product; Herbicide; Metabolite; Transformation_product-Metabolite
Formula: C8H15N5O
Exact mass: 197.1277
SMILES: CCNC1=NC(=O)NC(=N1)NC(C)C
InChI: InChI=1S/C8H15N5O/c1-4-9-6-11-7(10-5(2)3)13-8(14)12-6/h5H,4H2,1-3H3,(H3,9,10,11,12,13,14)
Instrument: TripleTOF 6600 SCIEX
Instrument type: LC-ESI-QTOF
Ms type: MS2
Ion mode: POSITIVE
Collision energy: 40
Fragmentation mode: CID
Ionization: ESI
Column name: Zorbax Eclipse Plus C18 2.1 mm x 150 mm, 3.5 um, Agilent
Retention time: 5.304 min
Precursor m/z: 198.135
Precursor type: [M+H]+
m/z	relative intensity
41.0386	36
43.0294	112
43.0539	35
46.0651	14
68.0243	32
69.0087	999
71.0602	67
85.0502	20
86.0351	605
96.0552	13
97.0397	253
113.081	12
114.0661	328
128.0559	24
156.0876	84
