Mass spectrum: Methadone; LC-ESI-QTOF; MS2; 60 V
Name: Methadone
Class: Pharmaceutical
Formula: C21H27NO
Exact mass: 309.2093
SMILES: CCC(=O)C(CC(C)N(C)C)(C1=CC=CC=C1)C2=CC=CC=C2
InChI: InChI=1S/C21H27NO/c1-5-20(23)21(16-17(2)22(3)4,18-12-8-6-9-13-18)19-14-10-7-11-15-19/h6-15,17H,5,16H2,1-4H3
Instrument: TripleTOF 6600 SCIEX
Instrument type: LC-ESI-QTOF
Ms type: MS2
Ion mode: POSITIVE
Collision energy: 60
Fragmentation mode: CID
Ionization: ESI
Column name: Zorbax Eclipse Plus C18 2.1 mm x 150 mm, 3.5 um, Agilent
Retention time: 8.79 min
Precursor m/z: 310.2166
Precursor type: [M+H]+
m/z	relative intensity
51.0224	30
57.0332	43
65.038	29
77.0382	999
79.0535	28
91.0535	504
103.0532	41
105.0337	694
115.0535	183
116.0614	11
117.0691	139
127.053	36
128.0612	87
129.069	60
131.0843	13
141.0688	35
145.0635	13
152.0617	56
153.0679	10
165.069	141
166.0769	34
167.0846	71
178.0769	63
179.0843	17
189.0696	25
190.0776	21
191.0848	39
194.0724	93
202.0772	141
203.085	208
204.0929	213
215.0849	24
216.0934	11
217.1007	110
218.1087	27
