Mass spectrum: Losartan carboxylic acid; LC-ESI-QTOF; MS2; 140 V
Name: Losartan carboxylic acid
Class: Pharmaceutical
Formula: C22H21ClN6O2
Exact mass: 436.1415
SMILES: CCCCc1nc(Cl)c(n1Cc2ccc(cc2)c3ccccc3c4n[nH]nn4)C(O)=O
InChI: InChI=1S/C22H21ClN6O2/c1-2-3-8-18-24-20(23)19(22(30)31)29(18)13-14-9-11-15(12-10-14)16-6-4-5-7-17(16)21-25-27-28-26-21/h4-7,9-12H,2-3,8,13H2,1H3,(H,30,31)(H,25,26,27,28)
Instrument: TripleTOF 5600 SCIEX
Instrument type: LC-ESI-QTOF
Ms type: MS2
Ion mode: POSITIVE
Collision energy: 140
Fragmentation mode: CID
Ionization: ESI
Column name: Zorbax Eclipse Plus C18 2.1 mm x 150 mm, 3.5 um, Agilent
Retention time: 10.786 min
Precursor m/z: 437.1487
Precursor type: [M+H]+
m/z	relative intensity
51.0286	65
65.0439	21
74.0179	35
75.0266	57
76.0336	26
77.0413	207
78.0487	23
86.0173	19
87.0245	39
88.0319	20
89.0401	82
98.0173	26
99.0233	52
100.0316	12
101.0382	49
102.0354	16
102.0473	76
111.0229	16
113.0385	140
114.0348	83
115.0548	114
125.0396	93
126.0466	182
127.0545	177
128.0472	13
128.0607	72
137.0388	115
138.0331	19
138.0469	60
139.0546	170
140.0501	180
149.039	45
150.047	509
151.055	999
152.0623	924
153.0563	50
154.0619	12
161.0386	35
162.0458	114
163.0548	449
164.0505	393
165.0496	16
165.0706	100
166.0665	17
175.0521	42
176.062	390
177.0582	273
178.0658	203
179.0715	12
187.0411	12
188.0505	171
189.0569	75
190.0647	162
191.0608	17
192.0691	10
203.0613	17
204.0679	10
205.0763	68
