Mass spectrum: N,N-bis(ethoxycarbonyl)-4-methyl-1,3-phenylenediamine; LC-ESI-QTOF; MS2; 60 V
Name: N,N-bis(ethoxycarbonyl)-4-methyl-1,3-phenylenediamine
Class: Pharmaceutical
Formula: C13H18N2O4
Exact mass: 266.1267
SMILES: CCOC(=O)NC1=CC(=C(C=C1)C)NC(=O)OCC
InChI: InChI=1S/C13H18N2O4/c1-4-18-12(16)14-10-7-6-9(3)11(8-10)15-13(17)19-5-2/h6-8H,4-5H2,1-3H3,(H,14,16)(H,15,17)
Instrument: TripleTOF 5600 SCIEX
Instrument type: LC-ESI-QTOF
Ms type: MS2
Ion mode: POSITIVE
Collision energy: 60
Fragmentation mode: CID
Ionization: ESI
Column name: Zorbax Eclipse Plus C18 2.1 mm x 150 mm, 3.5 um, Agilent
Retention time: 10.056 min
Precursor m/z: 267.1339
Precursor type: [M+H]+
m/z	relative intensity
65.0455	62
67.05	14
67.0604	29
77.0438	999
78.0379	123
79.0588	312
80.0532	48
89.042	28
91.0562	33
92.0524	299
93.0599	62
94.068	356
102.0352	22
104.0513	465
105.0471	64
106.0652	486
107.0513	30
107.074	41
108.0686	21
115.0525	17
117.0584	25
118.0632	18
119.0606	76
120.0445	191
121.0767	314
122.0599	94
132.0449	357
132.0673	10
133.0303	14
133.0754	10
134.0476	160
134.0855	11
147.0551	452
149.0712	10
150.0542	47
160.0569	15
175.0495	21
