Mass spectrum: Alpha-hydroxy-metoprolol; LC-ESI-QTOF; MS2; 60 V
Name: Alpha-hydroxy-metoprolol
Class: Pharmaceutical; Metabolite; Transformation_product-Metabolite
Formula: C15H25NO4
Exact mass: 283.1784
SMILES: COCC(O)c1ccc(OCC(O)CNC(C)C)cc1
InChI: InChI=1S/C15H25NO4/c1-11(2)16-8-13(17)9-20-14-6-4-12(5-7-14)15(18)10-19-3/h4-7,11,13,15-18H,8-10H2,1-3H3
Instrument: TripleTOF 5600 SCIEX
Instrument type: LC-ESI-QTOF
Ms type: MS2
Ion mode: POSITIVE
Collision energy: 60
Fragmentation mode: CID
Ionization: ESI
Column name: Zorbax Eclipse Plus C18 2.1 mm x 150 mm, 3.5 um, Agilent
Retention time: 5.057 min
Precursor m/z: 284.1856
Precursor type: [M+H]+
m/z	relative intensity
43.0283	22
45.0428	62
56.0559	349
58.0712	71
65.0438	102
70.0684	42
72.0846	84
74.0637	222
75.047	17
77.042	621
78.0494	93
79.0572	270
84.0834	15
89.0395	29
90.048	53
91.0562	999
93.071	27
95.0511	13
98.0982	16
100.1123	22
102.0471	16
103.055	380
104.0621	16
105.0415	23
105.0704	300
106.0421	273
107.0492	105
115.0544	142
116.0637	14
116.109	14
117.0687	43
118.0416	132
119.0489	118
120.059	18
121.0649	24
127.0535	79
128.062	185
129.069	45
131.0495	58
133.0646	73
134.0722	65
144.0615	12
145.0649	51
147.0446	105
149.0585	10
155.0591	12
157.0656	14
161.062	11
163.0754	11
