Mass spectrum: 3,3-Diphenylacrylonitrile; LC-ESI-QTOF; MS2; 40 V
Name: 3,3-Diphenylacrylonitrile
Formula: C15H11N
Exact mass: 205.0891
SMILES: C1=CC=C(C=C1)C(=CC#N)C2=CC=CC=C2
InChI: InChI=1S/C15H11N/c16-12-11-15(13-7-3-1-4-8-13)14-9-5-2-6-10-14/h1-11H
Instrument: TripleTOF 6600 SCIEX
Instrument type: LC-ESI-QTOF
Ms type: MS2
Ion mode: POSITIVE
Collision energy: 40
Fragmentation mode: CID
Ionization: ESI
Column name: Zorbax Eclipse Plus C18 2.1 mm x 150 mm, 3.5 um, Agilent
Retention time: 13.746 min
Precursor m/z: 206.0964
Precursor type: [M+H]+
m/z	relative intensity
51.022	33
75.0219	87
77.0375	681
101.0365	360
102.0338	27
103.0522	64
104.0482	792
105.0432	16
128.0482	999
129.0433	130
130.0404	12
151.0523	15
152.0612	35
164.0627	22
165.0672	133
166.0765	10
176.0601	42
177.0677	53
178.0759	519
179.0865	49
189.0709	12
190.0637	30
191.0694	12
203.0749	10
204.0797	136
205.0888	21
206.0953	501
