Mass spectrum: Betaxolol; LC-ESI-QTOF; MS2; 40 V
Name: Betaxolol
Class: Pharmaceutical
Formula: C18H29NO3
Exact mass: 307.2147
SMILES: CC(C)NCC(COC1=CC=C(C=C1)CCOCC2CC2)O
InChI: InChI=1S/C18H29NO3/c1-14(2)19-11-17(20)13-22-18-7-5-15(6-8-18)9-10-21-12-16-3-4-16/h5-8,14,16-17,19-20H,3-4,9-13H2,1-2H3
Instrument: TripleTOF 5600 SCIEX
Instrument type: LC-ESI-QTOF
Ms type: MS2
Ion mode: POSITIVE
Collision energy: 40
Fragmentation mode: CID
Ionization: ESI
Column name: Zorbax Eclipse Plus C18 2.1 mm x 150 mm, 3.5 um, Agilent
Retention time: 7.064 min
Precursor m/z: 308.222
Precursor type: [M+H]+
m/z	relative intensity
43.0295	30
44.0648	21
55.0299	13
56.0587	528
58.0734	99
67.0614	57
70.0723	13
72.0873	795
74.0661	898
77.0439	97
79.0592	111
81.0756	62
84.0859	107
86.0651	42
91.0583	386
93.0738	129
95.0519	15
98.1007	733
100.1161	90
103.0571	129
104.0646	30
105.0732	425
107.0522	63
107.088	45
109.0713	11
110.0997	80
115.057	85
116.065	45
116.1099	973
117.0723	149
119.052	37
119.0877	127
120.0595	11
121.0673	999
127.0574	25
128.0647	102
128.1083	16
129.0719	134
130.0793	15
131.0508	42
131.0869	242
132.0572	15
133.0666	706
133.1017	31
135.082	92
141.0711	129
142.0775	38
143.0877	80
144.0586	119
144.0999	16
145.0652	116
146.0746	35
147.0824	193
148.0769	117
149.0648	23
151.0752	107
153.0697	11
154.0797	16
155.0873	13
157.0652	40
157.1012	33
158.0732	38
159.081	494
161.0968	307
163.0756	38
163.1138	28
165.0913	38
167.0866	15
169.0655	20
169.1014	10
170.0747	13
171.0816	89
172.0897	42
173.0957	23
175.077	40
175.1122	79
176.1057	60
177.0909	280
183.0791	20
184.089	26
185.0974	55
187.111	38
189.0922	63
194.1248	10
201.1271	30
203.1099	45
205.1206	15
212.1261	72
213.1256	20
218.155	23
219.1385	18
231.1374	38
254.177	13
266.17	30
290.2166	18
308.2213	247
