Mass spectrum: Methadone; LC-ESI-QTOF; MS2; 50 V
Name: Methadone
Class: Pharmaceutical
Formula: C21H27NO
Exact mass: 309.2093
SMILES: CCC(=O)C(CC(C)N(C)C)(C1=CC=CC=C1)C2=CC=CC=C2
InChI: InChI=1S/C21H27NO/c1-5-20(23)21(16-17(2)22(3)4,18-12-8-6-9-13-18)19-14-10-7-11-15-19/h6-15,17H,5,16H2,1-4H3
Instrument: TripleTOF 6600 SCIEX
Instrument type: LC-ESI-QTOF
Ms type: MS2
Ion mode: POSITIVE
Collision energy: 50
Fragmentation mode: CID
Ionization: ESI
Column name: Zorbax Eclipse Plus C18 2.1 mm x 150 mm, 3.5 um, Agilent
Retention time: 8.79 min
Precursor m/z: 310.2166
Precursor type: [M+H]+
m/z	relative intensity
57.0333	65
77.0381	466
79.0535	14
91.0536	363
103.0531	19
105.0337	999
115.0533	67
117.0692	186
127.0534	15
128.061	36
129.0688	64
131.084	18
141.0688	24
145.0636	20
152.0614	17
165.069	37
166.0769	17
167.0847	87
178.077	31
179.0852	17
190.0768	15
191.0842	31
194.072	70
195.1166	18
202.077	34
203.0848	112
204.0929	251
205.1	26
217.1008	85
218.1087	69
219.1161	47
