Mass spectrum: Dinoterb; LC-ESI-QTOF; MS2; 20 V
Name: Dinoterb
Class: Herbicide
Formula: C10H12N2O5
Exact mass: 240.0746
SMILES: CC(C)(C)C1=C(C(=CC(=C1)[N+](=O)[O-])[N+](=O)[O-])O
InChI: InChI=1S/C10H12N2O5/c1-10(2,3)7-4-6(11(14)15)5-8(9(7)13)12(16)17/h4-5,13H,1-3H3
Instrument: TripleTOF 6600 SCIEX
Instrument type: LC-ESI-QTOF
Ms type: MS2
Ion mode: NEGATIVE
Collision energy: 20
Fragmentation mode: CID
Ionization: ESI
Column name: Zorbax Eclipse Plus C18 2.1 mm x 150 mm, 3.5 um, Agilent
Retention time: 13.854 min
Precursor m/z: 239.0673
Precursor type: [M-H]-
m/z	relative intensity
207.038	30
239.0645	999
