Mass spectrum: Praziquantel; LC-ESI-QTOF; MS2; 70 V
Name: Praziquantel
Class: Pharmaceutical
Formula: C19H24N2O2
Exact mass: 312.1838
SMILES: O=C1CN(CC2N1CCc3ccccc23)C(=O)C4CCCCC4
InChI: InChI=1S/C19H24N2O2/c22-18-13-20(19(23)15-7-2-1-3-8-15)12-17-16-9-5-4-6-14(16)10-11-21(17)18/h4-6,9,15,17H,1-3,7-8,10-13H2
Instrument: TripleTOF 5600 SCIEX
Instrument type: LC-ESI-QTOF
Ms type: CID
Ion mode: POSITIVE
Collision energy: 70
Ionization: ESI
Column name: Zorbax Eclipse Plus C18 2.1 mm x 150 mm, 3.5 um, Agilent
Retention time: 10.768 min
Precursor m/z: 313.1911
Precursor type: [M+H]+
m/z	relative intensity
53.0444	25
55.0602	999
77.0415	50
83.0874	394
90.0492	16
91.0561	62
103.0542	58
105.0702	205
115.054	218
116.063	29
117.0568	159
117.0692	146
127.0537	67
128.0611	193
129.0696	302
130.0642	298
131.0722	92
132.0804	852
143.0707	25
144.081	125
145.0874	92
146.0944	142
158.0999	25
174.0909	92
