Mass spectrum: (3-Methyl-2-butenyl)(triphenyl)phosphorane; LC-ESI-QTOF; MS2; 150 V
Name: (3-Methyl-2-butenyl)(triphenyl)phosphorane
Class: Industrial_process
Formula: [C23H24P]+
Exact mass: 331.161
SMILES: CC(=CC[P+](C1=CC=CC=C1)(C2=CC=CC=C2)C3=CC=CC=C3)C
InChI: InChI=1S/C23H24P/c1-20(2)18-19-24(21-12-6-3-7-13-21,22-14-8-4-9-15-22)23-16-10-5-11-17-23/h3-18H,19H2,1-2H3/q+1
Instrument: TripleTOF 6600 SCIEX
Instrument type: LC-ESI-QTOF
Ms type: MS2
Ion mode: POSITIVE
Collision energy: 150
Fragmentation mode: CID
Ionization: ESI
Column name: Zorbax Eclipse Plus C18 2.1 mm x 150 mm, 3.5 um, Agilent
Retention time: 9.017 min
Precursor m/z: 331.161
Precursor type: [M]+
m/z	relative intensity
41.0435	222
50.0196	75
51.0271	85
55.9849	117
56.9928	199
62.0194	199
63.0269	544
65.0421	122
74.0186	162
76.0345	128
78.976	152
79.9841	475
80.9915	553
86.0177	87
87.0259	132
89.0409	420
98.0175	70
102.0489	180
103.9831	150
107.0068	999
113.0405	92
115.0565	233
126.0485	347
131.0061	126
139.0561	167
150.0486	497
151.0565	437
152.0641	310
155.0058	81
156.0126	83
157.0217	214
179.0055	111
180.0141	158
181.0212	332
