Mass spectrum: Rifaximin; LC-ESI-QTOF; MS2; 150 V
Name: Rifaximin
Class: Pharmaceutical
Formula: C43H51N3O11
Exact mass: 785.3524
SMILES: CC1C=CC=C(C(=O)NC2=C(C3=C(C4=C(C(=C3O)C)OC(C4=O)(OC=CC(C(C(C(C(C(C1O)C)O)C)OC(=O)C)C)OC)C)C5=C2N6C=CC(=CC6=N5)C)O)C
InChI: InChI=1S/C43H51N3O11/c1-19-14-16-46-28(18-19)44-32-29-30-37(50)25(7)40-31(29)41(52)43(9,57-40)55-17-15-27(54-10)22(4)39(56-26(8)47)24(6)36(49)23(5)35(48)20(2)12-11-13-21(3)42(53)45-33(34(32)46)38(30)51/h11-18,20,22-24,27,35-36,39,48-51H,1-10H3,(H,45,53)
Instrument: TripleTOF 6600 SCIEX
Instrument type: LC-ESI-QTOF
Ms type: MS2
Ion mode: POSITIVE
Collision energy: 150
Fragmentation mode: CID
Ionization: ESI
Column name: Zorbax Eclipse Plus C18 2.1 mm x 150 mm, 3.5 um, Agilent
Retention time: 11.765 min
Precursor m/z: 808.3416
Precursor type: [M+Na]+
m/z	relative intensity
43.0182	181
67.0532	454
77.039	408
79.0535	227
91.054	454
93.0698	181
95.0849	227
105.0696	227
205.0769	317
219.0914	999
220.1	544
221.1087	181
231.0919	272
234.0784	181
234.1144	227
235.0946	227
243.0927	408
244.0992	363
245.1078	454
247.0867	953
248.0958	681
249.1027	908
259.0889	227
261.1026	317
263.1133	363
272.0924	363
273.1022	227
275.0787	408
276.0901	454
277.096	590
283.088	227
289.0962	272
290.1032	227
291.11	363
300.0899	181
301.098	681
317.096	408
319.1075	227
329.0905	227
346.0931	227
347.1033	227
360.1031	317
