Mass spectrum: 1,2,3-trimethoxybenzene; LC-ESI-QTOF; MS2; 30 V
Name: 1,2,3-trimethoxybenzene
Class: Food_additive
Formula: C9H12O3
Exact mass: 168.0786
SMILES: COC1=C(C(=CC=C1)OC)OC
InChI: InChI=1S/C9H12O3/c1-10-7-5-4-6-8(11-2)9(7)12-3/h4-6H,1-3H3
Instrument: TripleTOF 5600 SCIEX
Instrument type: LC-ESI-QTOF
Ms type: MS2
Ion mode: POSITIVE
Collision energy: 30
Fragmentation mode: CID
Ionization: ESI
Column name: Zorbax Eclipse Plus C18 2.1 mm x 150 mm, 3.5 um, Agilent
Retention time: 9.034 min
Precursor m/z: 169.0859
Precursor type: [M+H]+
m/z	relative intensity
65.0452	231
68.0312	63
77.0428	115
78.0502	105
79.022	52
83.0532	105
93.0362	283
94.0418	94
95.0512	441
96.0205	52
96.0581	105
107.0117	52
107.0463	42
108.0565	115
109.0288	63
109.0658	273
111.0451	694
122.0398	52
123.0447	999
124.0513	126
125.0598	189
126.0689	52
138.0677	683
139.0392	935
139.0729	94
154.0623	546
169.0869	136
