Mass spectrum: 4-Dodecylbenzenesulfonic acid; LC-ESI-QTOF; MS2; 10 V
Name: 4-Dodecylbenzenesulfonic acid
Formula: C18H30O3S
Exact mass: 326.1916
SMILES: CCCCCCCCCCCCC1=CC=C(C=C1)S(=O)(=O)O
InChI: InChI=1S/C18H30O3S/c1-2-3-4-5-6-7-8-9-10-11-12-17-13-15-18(16-14-17)22(19,20)21/h13-16H,2-12H2,1H3,(H,19,20,21)
Instrument: TripleTOF 6600 SCIEX
Instrument type: LC-ESI-QTOF
Ms type: MS2
Ion mode: POSITIVE
Collision energy: 10
Fragmentation mode: CID
Ionization: ESI
Column name: Zorbax Eclipse Plus C18 2.1 mm x 150 mm, 3.5 um, Agilent
Retention time: 5.331 min
Precursor m/z: 327.1989
Precursor type: [M+H]+
m/z	relative intensity
133.084	10
327.2013	999
