Mass spectrum: Oxibendazole; LC-ESI-QTOF; MS2; 140 V
Name: Oxibendazole
Class: Pharmaceutical
Formula: C12H15N3O3
Exact mass: 249.1113
SMILES: CCCOC1=CC2=C(C=C1)N=C(N2)NC(=O)OC
InChI: InChI=1S/C12H15N3O3/c1-3-6-18-8-4-5-9-10(7-8)14-11(13-9)15-12(16)17-2/h4-5,7H,3,6H2,1-2H3,(H2,13,14,15,16)
Instrument: TripleTOF 5600 SCIEX
Instrument type: LC-ESI-QTOF
Ms type: MS2
Ion mode: POSITIVE
Collision energy: 140
Fragmentation mode: CID
Ionization: ESI
Column name: Zorbax Eclipse Plus C18 2.1 mm x 150 mm, 3.5 um, Agilent
Retention time: 6.663 min
Precursor m/z: 250.1186
Precursor type: [M+H]+
m/z	relative intensity
37.0067	264
38.0154	235
39.0225	440
40.0185	293
41.0259	117
49.0079	235
50.0152	999
51.011	146
51.0228	793
52.0179	910
52.0305	235
53.0389	235
61.0082	146
62.0157	176
63.0232	205
64.0183	381
65.0141	117
65.0257	235
66.0208	146
66.034	176
68.0141	264
69.0082	323
75.0104	646
76.0183	617
