Mass spectrum: 3,3`-Dinitrobisphenol A; LC-ESI-QTOF; MS2; 110 V
Name: 3,3`-Dinitrobisphenol A
Class: Transformation_product
Formula: C15H14N2O6
Exact mass: 318.0852
SMILES: CC(C1=CC=C(O)C([N+]([O-])=O)=C1)(C2=CC([N+]([O-])=O)=C(O)C=C2)C
InChI: InChI=1S/C15H14N2O6/c1-15(2,9-3-5-13(18)11(7-9)16(20)21)10-4-6-14(19)12(8-10)17(22)23/h3-8,18-19H,1-2H3
Instrument: TripleTOF 5600 SCIEX
Instrument type: LC-ESI-QTOF
Ms type: MS2
Ion mode: NEGATIVE
Collision energy: 110
Fragmentation mode: CID
Ionization: ESI
Column name: Zorbax Eclipse Plus C18 2.1 mm x 150 mm, 3.5 um, Agilent
Retention time: 13.85 min
Precursor m/z: 317.0779
Precursor type: [M-H]-
m/z	relative intensity
42.0017	67
45.0018	148
45.9967	999
65.0051	108
89.0403	54
91.0196	80
108.0216	121
113.0384	175
117.0359	108
125.0412	242
137.041	850
138.0477	310
139.0564	121
143.053	108
151.0567	351
164.0575	67
167.0495	499
179.0492	54
195.0509	67
