Mass spectrum: 4-(2,4-Dichlorophenoxy)butanoic acid; LC-ESI-QTOF; MS2; 90 V
Name: 4-(2,4-Dichlorophenoxy)butanoic acid
Class: Herbicide
Formula: C10H10Cl2O3
Exact mass: 248.0007
SMILES: C1=CC(=C(C=C1Cl)Cl)OCCCC(=O)O
InChI: InChI=1S/C10H10Cl2O3/c11-7-3-4-9(8(12)6-7)15-5-1-2-10(13)14/h3-4,6H,1-2,5H2,(H,13,14)
Instrument: TripleTOF 6600 SCIEX
Instrument type: LC-ESI-QTOF
Ms type: MS2
Ion mode: POSITIVE
Collision energy: 90
Fragmentation mode: CID
Ionization: ESI
Column name: Zorbax Eclipse Plus C18 2.1 mm x 150 mm, 3.5 um, Agilent
Retention time: 11.685 min
Precursor m/z: 249.008
Precursor type: [M+H]+
m/z	relative intensity
35.9997	27
37.0071	161
38.0026	27
38.0156	108
39.0226	837
41.0387	269
42.0086	54
43.0174	539
44.9963	188
45.0343	837
46.9672	54
51.023	54
64.0332	27
65.04	27
72.9832	404
73.0064	108
74.0136	999
75.0226	216
77.0373	108
77.0438	27
82.9449	242
83.9863	27
84.986	54
89.0404	54
96.984	80
103.0591	27
106.9422	27
108.9829	269
109.988	27
127.9999	54
132.9564	80
