Mass spectrum: Clodinafop-Propargyl; LC-ESI-QTOF; MS2; 60 V
Name: Clodinafop-Propargyl
Class: Herbicide
Formula: C17H13ClFNO4
Exact mass: 349.0517
SMILES: CC(C(=O)OCC#C)OC1=CC=C(C=C1)OC2=C(C=C(C=N2)Cl)F
InChI: InChI=1S/C17H13ClFNO4/c1-3-8-22-17(21)11(2)23-13-4-6-14(7-5-13)24-16-15(19)9-12(18)10-20-16/h1,4-7,9-11H,8H2,2H3
Instrument: TripleTOF 6600 SCIEX
Instrument type: LC-ESI-QTOF
Ms type: MS2
Ion mode: POSITIVE
Collision energy: 60
Fragmentation mode: CID
Ionization: ESI
Column name: Zorbax Eclipse Plus C18 2.1 mm x 150 mm, 3.5 um, Agilent
Retention time: 13.951 min
Precursor m/z: 350.059
Precursor type: [M+H]+
m/z	relative intensity
39.0215	31
63.0218	39
64.0289	23
65.0369	243
75.0208	79
77.0365	103
91.0524	999
92.0234	79
92.0608	43
93.0666	15
94.0392	19
102.0444	27
103.0529	31
109.0257	27
109.9772	23
115.0515	19
119.0474	59
120.0544	47
121.0632	31
128.0473	15
128.0592	19
129.0305	15
129.9836	191
131.0475	51
132.0345	47
139.0385	23
143.9986	27
147.9928	55
148.0532	19
149.038	63
158.0377	171
159.0457	559
167.0028	47
167.0335	19
167.9986	35
169.0057	43
174.0079	51
176.0494	239
182.0145	39
184.0542	23
185.0612	35
187.0419	203
188.0484	19
193.0068	39
194.0147	67
195.0233	39
202.0651	31
210.0081	27
211.0157	23
219.0223	27
220.0132	23
222.0101	599
238.0044	315
238.0262	15
