Mass spectrum: Tiapride; LC-ESI-QTOF; MS2; 140 V
Name: Tiapride
Class: Pharmaceutical
Formula: C15H24N2O4S
Exact mass: 328.1457
SMILES: CCN(CC)CCNC(=O)C1=C(C=CC(=C1)S(=O)(=O)C)OC
InChI: InChI=1S/C15H24N2O4S/c1-5-17(6-2)10-9-16-15(18)13-11-12(22(4,19)20)7-8-14(13)21-3/h7-8,11H,5-6,9-10H2,1-4H3,(H,16,18)
Instrument: TripleTOF 5600 SCIEX
Instrument type: LC-ESI-QTOF
Ms type: MS2
Ion mode: POSITIVE
Collision energy: 140
Fragmentation mode: CID
Ionization: ESI
Column name: Zorbax Eclipse Plus C18 2.1 mm x 150 mm, 3.5 um, Agilent
Retention time: 4.856 min
Precursor m/z: 329.153
Precursor type: [M+H]+
m/z	relative intensity
44.061	61
52.0394	240
53.0128	77
58.0751	46
64.0363	54
65.0462	131
68.9842	46
73.014	77
74.0198	456
75.028	394
76.0356	999
77.0439	968
78.0396	131
78.0516	154
79.0229	108
89.042	131
90.038	69
91.02	278
91.0594	54
103.0438	38
104.0511	178
105.0342	46
