Mass spectrum: Valsartanic acid; LC-ESI-QTOF; MS2; 60 V
Name: Valsartanic acid
Class: Pharmaceutical; Transformation_product
Formula: C14H10N4O2
Exact mass: 266.0804
SMILES: O=C(O)C(C=C1)=CC=C1C2=CC=CC=C2C3=NN=NN3
InChI: InChI=1S/C14H10N4O2/c19-14(20)10-7-5-9(6-8-10)11-3-1-2-4-12(11)13-15-17-18-16-13/h1-8H,(H,19,20)(H,15,16,17,18)
Instrument: TripleTOF 5600 SCIEX
Instrument type: LC-ESI-QTOF
Ms type: MS2
Ion mode: POSITIVE
Collision energy: 60
Fragmentation mode: CID
Ionization: ESI
Column name: Zorbax Eclipse Plus C18 2.1 mm x 150 mm, 3.5 um, Agilent
Retention time: 8.027 min
Precursor m/z: 267.0877
Precursor type: [M+H]+
m/z	relative intensity
77.0415	46
125.0386	19
127.0541	18
139.0545	26
140.0502	22
149.0383	18
150.0469	159
151.0551	999
152.0589	84
165.0625	15
176.05	40
177.0581	410
178.0656	113
179.0609	13
180.0814	20
192.0681	13
