Mass spectrum: Tiapride; LC-ESI-QTOF; MS2; 40 V
Name: Tiapride
Class: Pharmaceutical
Formula: C15H24N2O4S
Exact mass: 328.1457
SMILES: CCN(CC)CCNC(=O)C1=C(C=CC(=C1)S(=O)(=O)C)OC
InChI: InChI=1S/C15H24N2O4S/c1-5-17(6-2)10-9-16-15(18)13-11-12(22(4,19)20)7-8-14(13)21-3/h7-8,11H,5-6,9-10H2,1-4H3,(H,16,18)
Instrument: TripleTOF 5600 SCIEX
Instrument type: LC-ESI-QTOF
Ms type: MS2
Ion mode: POSITIVE
Collision energy: 40
Fragmentation mode: CID
Ionization: ESI
Column name: Zorbax Eclipse Plus C18 2.1 mm x 150 mm, 3.5 um, Agilent
Retention time: 4.856 min
Precursor m/z: 329.153
Precursor type: [M+H]+
m/z	relative intensity
74.1017	30
76.0347	11
78.0511	30
100.1136	37
104.0516	21
105.0583	24
106.0421	21
107.0503	13
132.0457	12
133.0533	166
134.0374	163
134.0595	25
155.0158	18
162.0562	65
177.0789	279
178.0502	51
183.0217	21
185.0273	49
212.0382	482
213.0214	862
226.0169	47
241.0411	95
256.0637	999
329.1528	168
