Mass spectrum: Rhein; LC-ESI-QTOF; MS2; 30 V
Name: Rhein
Class: Metabolite
Formula: C15H8O6
Exact mass: 284.0321
SMILES: C1=CC2=C(C(=C1)O)C(=O)C3=C(C=C(C=C3C2=O)C(=O)O)O
InChI: InChI=1S/C15H8O6/c16-9-3-1-2-7-11(9)14(19)12-8(13(7)18)4-6(15(20)21)5-10(12)17/h1-5,16-17H,(H,20,21)
Instrument: TripleTOF 5600 SCIEX
Instrument type: LC-ESI-QTOF
Ms type: MS2
Ion mode: POSITIVE
Collision energy: 30
Fragmentation mode: CID
Ionization: ESI
Column name: Zorbax Eclipse Plus C18 2.1 mm x 150 mm, 3.5 um, Agilent
Retention time: 10.796 min
Precursor m/z: 285.0394
Precursor type: [M+H]+
m/z	relative intensity
77.0383	10
121.0285	75
139.0538	12
141.0694	19
155.0472	22
157.0648	26
165.0168	13
167.0473	13
183.0425	58
185.0588	30
195.0442	24
199.0395	14
211.0383	98
213.0534	128
223.0383	21
239.0346	185
241.0487	944
257.0469	27
267.0282	421
285.0394	999
