Mass spectrum: Rifaximin; LC-ESI-QTOF; MS2; 100 V
Name: Rifaximin
Class: Pharmaceutical
Formula: C43H51N3O11
Exact mass: 785.3524
SMILES: CC1C=CC=C(C(=O)NC2=C(C3=C(C4=C(C(=C3O)C)OC(C4=O)(OC=CC(C(C(C(C(C(C1O)C)O)C)OC(=O)C)C)OC)C)C5=C2N6C=CC(=CC6=N5)C)O)C
InChI: InChI=1S/C43H51N3O11/c1-19-14-16-46-28(18-19)44-32-29-30-37(50)25(7)40-31(29)41(52)43(9,57-40)55-17-15-27(54-10)22(4)39(56-26(8)47)24(6)36(49)23(5)35(48)20(2)12-11-13-21(3)42(53)45-33(34(32)46)38(30)51/h11-18,20,22-24,27,35-36,39,48-51H,1-10H3,(H,45,53)
Instrument: TripleTOF 6600 SCIEX
Instrument type: LC-ESI-QTOF
Ms type: MS2
Ion mode: POSITIVE
Collision energy: 100
Fragmentation mode: CID
Ionization: ESI
Column name: Zorbax Eclipse Plus C18 2.1 mm x 150 mm, 3.5 um, Agilent
Retention time: 11.765 min
Precursor m/z: 786.3597
Precursor type: [M+H]+
m/z	relative intensity
39.0221	32
41.0378	55
43.017	129
55.0168	18
55.053	87
57.033	23
65.0377	74
67.0531	282
69.0322	50
69.069	97
77.0375	245
79.0532	245
81.0692	148
83.0479	46
83.0841	23
85.0649	18
87.043	23
91.0529	531
92.0559	46
93.0688	300
95.0476	166
95.0842	647
97.0261	23
97.0629	106
103.0536	50
105.0685	541
107.048	46
107.0842	425
108.0551	78
109.0634	254
109.1	83
111.079	69
115.0523	106
116.0619	37
117.0686	87
118.0775	23
119.057	27
119.0842	235
121.0628	138
121.0999	124
123.0791	374
123.1153	23
125.0954	37
127.0517	27
128.0611	74
129.0686	78
130.076	106
131.0836	120
133.0646	92
133.0996	129
134.1043	23
135.0792	185
135.1151	50
137.0959	37
141.0693	74
142.0761	83
143.0832	92
144.0926	46
145.0657	23
145.1	189
146.0704	50
147.0786	64
147.1148	64
148.0867	46
149.057	27
149.0943	55
151.0743	87
153.0685	32
153.0891	18
155.0843	55
156.092	64
157.1006	64
158.0709	27
158.1077	46
159.0808	41
159.1184	32
160.0879	27
161.0941	69
163.1106	268
165.0683	27
167.0841	32
169.1009	27
170.108	50
171.0767	23
171.1163	32
172.0881	27
173.0955	55
173.1324	46
175.1109	41
178.0743	18
179.0842	27
180.0919	18
181.101	23
182.1076	46
183.0796	23
183.1155	37
185.1332	23
186.1022	27
191.1038	27
194.1081	32
195.1156	32
206.1092	23
207.1166	23
209.0973	23
219.0895	50
220.099	41
221.1055	27
221.1313	23
231.0939	23
233.1042	27
234.1017	60
235.0877	18
243.0881	23
246.101	27
247.0839	41
248.093	55
249.1009	78
255.0918	18
260.0883	18
260.1154	23
261.1019	41
262.0955	23
262.1105	23
263.1103	60
264.0882	23
264.1114	37
266.0936	18
271.0855	23
273.1038	55
274.0968	18
275.0803	32
276.0895	41
276.1124	27
277.0969	138
278.0938	41
279.1023	55
280.1068	32
286.1031	23
288.1116	37
289.0964	64
290.0927	97
291.1093	235
292.1088	157
299.0795	23
300.0919	41
301.0969	106
302.0926	60
302.1148	27
303.11	23
304.0877	41
304.1085	69
305.0928	97
305.1152	50
306.1236	129
307.1067	23
308.1085	18
314.0955	37
315.095	27
316.1093	124
317.0916	120
318.0931	78
319.1064	189
320.1042	120
329.0923	83
330.1043	32
331.1078	18
332.0788	60
332.1037	148
333.1101	37
334.092	18
334.1191	185
335.1011	37
336.1259	41
341.1146	55
342.1237	46
343.0918	18
344.0352	32
344.1041	189
345.0876	171
346.095	235
346.1254	37
347.1023	467
348.1111	180
351.1469	18
356.0932	37
358.1071	32
359.0988	46
359.1093	64
360.0979	397
361.1077	259
362.1141	999
363.1188	115
364.1254	23
364.1455	23
368.1401	32
370.1526	23
371.0897	23
371.1113	27
372.0977	74
373.1034	23
373.1189	32
374.1132	37
376.1334	37
380.1358	27
385.1025	41
386.1138	55
387.124	23
390.121	23
392.1398	23
394.1524	18
396.1365	41
396.1731	27
398.1144	101
398.1522	50
399.1218	83
400.13	69
404.1326	23
407.132	37
408.1319	46
411.1235	32
412.1311	69
412.1601	23
414.1513	32
420.1364	27
420.1686	23
422.1119	27
422.1418	27
424.1291	41
424.1637	18
426.1449	37
432.1341	41
433.1398	37
434.148	46
435.1224	60
436.1318	161
437.1433	41
438.1457	134
439.1691	23
446.1522	60
447.1637	37
448.1345	46
448.1646	74
449.1383	23
450.142	189
451.1511	50
452.1611	111
460.1654	32
462.146	27
464.1597	69
466.175	143
468.1919	18
476.1623	23
480.1936	27
490.1745	27
494.1729	37
