Mass spectrum: Terbutryn; LC-ESI-QTOF; MS2; 40 V
Name: Terbutryn
Class: Herbicide
Formula: C10H19N5S
Exact mass: 241.1361
SMILES: CCNc1nc(NC(C)(C)C)nc(SC)n1
InChI: InChI=1S/C10H19N5S/c1-6-11-7-12-8(15-10(2,3)4)14-9(13-7)16-5/h6H2,1-5H3,(H2,11,12,13,14,15)
Instrument: TripleTOF 5600 SCIEX
Instrument type: LC-ESI-QTOF
Ms type: MS2
Ion mode: POSITIVE
Collision energy: 40
Fragmentation mode: CID
Ionization: ESI
Column name: Zorbax Eclipse Plus C18 2.1 mm x 150 mm, 3.5 um, Agilent
Retention time: 9.673 min
Precursor m/z: 242.1434
Precursor type: [M+H]+
m/z	relative intensity
43.0384	70
57.0748	17
68.0297	340
71.0649	273
74.0097	122
85.0531	89
91.0349	415
96.0576	378
102.0372	19
110.0467	71
113.0817	54
116.0281	269
138.0775	219
144.059	172
158.0495	206
186.081	999
