Mass spectrum: Olmesartan-d6; LC-ESI-QTOF; MS2; 80 V
Name: Olmesartan-d6
Class: Surrogate_standard
Formula: C24H20N6O3 2H6
Exact mass: 452.2443
SMILES: [2H]C([2H])([2H])C(C1=C(N(C(=N1)CCC)CC2=CC=C(C=C2)C3=CC=CC=C3C4=NNN=N4)C(=O)O)(C([2H])([2H])[2H])O
InChI: InChI=1S/C24H26N6O3/c1-4-7-19-25-21(24(2,3)33)20(23(31)32)30(19)14-15-10-12-16(13-11-15)17-8-5-6-9-18(17)22-26-28-29-27-22/h5-6,8-13,33H,4,7,14H2,1-3H3,(H,31,32)(H,26,27,28,29)/i2D3,3D3
Instrument: TripleTOF 5600 SCIEX
Instrument type: LC-ESI-QTOF
Ms type: MS2
Ion mode: POSITIVE
Collision energy: 80
Fragmentation mode: CID
Ionization: ESI
Column name: Zorbax Eclipse Plus C18 2.1 mm x 150 mm, 3.5 um, Agilent
Retention time: 7.306 min
Precursor m/z: 453.2527
Precursor type: [M+H]+
m/z	relative intensity
77.0425	26
115.0546	26
126.0462	12
127.0551	39
128.0616	23
129.043	13
138.0452	14
139.0535	23
140.0499	113
150.0457	35
151.0539	201
152.0614	510
153.07	299
154.0728	48
155.0688	10
162.0458	13
163.0538	194
164.0589	159
165.0671	175
166.065	47
167.0728	43
168.0704	25
176.061	72
177.0671	135
178.0757	679
179.0736	230
180.0805	375
181.0851	78
182.1326	50
183.1396	58
188.0486	19
189.0566	60
190.0644	999
191.0716	433
192.0692	310
193.0748	45
205.0753	502
206.0829	259
207.0906	139
208.0971	35
