Mass spectrum: Tetrahydroharman-3-carboxylic acid; LC-ESI-QTOF; MS2; 50 V
Name: Tetrahydroharman-3-carboxylic acid
Formula: C13H14N2O2
Exact mass: 230.1055
SMILES: CC1C2=C(CC(N1)C(=O)O)C3=CC=CC=C3N2
InChI: InChI=1S/C13H14N2O2/c1-7-12-9(6-11(14-7)13(16)17)8-4-2-3-5-10(8)15-12/h2-5,7,11,14-15H,6H2,1H3,(H,16,17)
Instrument: TripleTOF 6600 SCIEX
Instrument type: LC-ESI-QTOF
Ms type: MS2
Ion mode: POSITIVE
Collision energy: 50
Fragmentation mode: CID
Ionization: ESI
Column name: Zorbax Eclipse Plus C18 2.1 mm x 150 mm, 3.5 um, Agilent
Retention time: 5.62 min
Precursor m/z: 231.1128
Precursor type: [M+H]+
m/z	relative intensity
74.0226	15
77.0379	38
89.0375	16
90.0456	14
91.0534	74
102.046	13
103.0532	34
115.0534	196
116.0606	60
117.0565	154
118.064	82
127.0527	36
128.0491	112
129.0692	52
130.0646	224
141.0686	27
142.0636	89
143.0724	999
144.0808	21
154.0646	103
155.0585	10
155.0702	10
156.0794	181
157.0875	49
158.0954	97
166.0632	14
167.0725	244
168.0797	183
