Mass spectrum: L-Thyronine; LC-ESI-QTOF; MS2; 40 V
Name: L-Thyronine
Class: Pharmaceutical
Formula: C15H15NO4
Exact mass: 273.1001
SMILES: N[C@@H](Cc1ccc(Oc2ccc(O)cc2)cc1)C(O)=O
InChI: InChI=1S/C15H15NO4/c16-14(15(18)19)9-10-1-5-12(6-2-10)20-13-7-3-11(17)4-8-13/h1-8,14,17H,9,16H2,(H,18,19)/t14-/m0/s1
Instrument: TripleTOF 5600 SCIEX
Instrument type: LC-ESI-QTOF
Ms type: MS2
Ion mode: POSITIVE
Collision energy: 40
Fragmentation mode: CID
Ionization: ESI
Column name: Zorbax Eclipse Plus C18 2.1 mm x 150 mm, 3.5 um, Agilent
Retention time: 5.619 min
Precursor m/z: 274.1074
Precursor type: [M+H]+
m/z	relative intensity
65.0386	47
66.0461	11
77.0386	15
81.0334	88
91.0537	56
92.0622	16
93.0331	79
94.0414	421
103.0545	18
104.0495	26
106.0636	13
109.0287	417
110.0372	15
115.0551	30
118.0653	340
119.0493	13
119.0731	999
120.0566	11
120.081	39
141.0698	229
144.0578	11
147.0439	11
153.0706	30
155.0847	48
159.0813	31
165.0696	116
168.0596	30
169.0653	317
171.0817	15
181.059	13
183.0797	37
187.0751	79
194.0745	22
197.0604	47
199.0774	28
210.0667	22
211.0748	169
215.0712	666
228.1011	43
