Mass spectrum: Cyclopropyldiphenylsulfonium; LC-ESI-QTOF; MS2; 80 V
Name: Cyclopropyldiphenylsulfonium
Formula: [C15H15S]+
Exact mass: 227.0889
SMILES: C1CC1[S+](C2=CC=CC=C2)C3=CC=CC=C3
InChI: InChI=1S/C15H15S/c1-3-7-13(8-4-1)16(15-11-12-15)14-9-5-2-6-10-14/h1-10,15H,11-12H2/q+1
Instrument: TripleTOF 5600 SCIEX
Instrument type: LC-ESI-QTOF
Ms type: MS2
Ion mode: POSITIVE
Collision energy: 80
Fragmentation mode: CID
Ionization: ESI
Column name: Zorbax Eclipse Plus C18 2.1 mm x 150 mm, 3.5 um, Agilent
Retention time: 5.55 min
Precursor m/z: 227.0889
Precursor type: [M]+
m/z	relative intensity
50.0152	92
51.0232	437
65.0382	152
68.9792	101
77.0378	484
89.0369	94
91.0523	85
115.0536	482
126.0453	60
127.0544	58
134.0164	60
139.0535	446
140.0606	53
141.0685	74
150.0453	56
151.0532	134
152.0621	805
183.0274	193
184.0344	999
