Mass spectrum: Dienogest Impurity G; LC-ESI-QTOF; MS2; 60 V
Name: Dienogest Impurity G
Class: Pharmaceutical
Formula: C20H23NO2
Exact mass: 309.1729
SMILES: CC12CC=C3C(C1CCC2(CC#N)O)CCC4=C3C=CC(=C4)O
InChI: InChI=1S/C20H23NO2/c1-19-8-6-16-15-5-3-14(22)12-13(15)2-4-17(16)18(19)7-9-20(19,23)10-11-21/h3,5-6,12,17-18,22-23H,2,4,7-10H2,1H3
Instrument: TripleTOF 6600 SCIEX
Instrument type: LC-ESI-QTOF
Ms type: MS2
Ion mode: NEGATIVE
Collision energy: 60
Fragmentation mode: CID
Ionization: ESI
Column name: Zorbax Eclipse Plus C18 2.1 mm x 150 mm, 3.5 um, Agilent
Retention time: 9.956 min
Precursor m/z: 308.1656
Precursor type: [M-H]-
m/z	relative intensity
143.0489	346
156.0569	163
157.0639	163
159.0806	81
169.0649	407
171.0803	999
195.0797	305
207.0802	101
221.0933	81
223.1097	224
249.0888	81
251.1049	366
267.137	224
274.1225	265
