Mass spectrum: Prednisone; LC-ESI-QTOF; MS2; 60 V
Name: Prednisone
Class: Pharmaceutical
Formula: C21H26O5
Exact mass: 358.178
SMILES: C[C@]12CC(=O)[C@H]3[C@@H](CCC4=CC(=O)C=C[C@]34C)[C@@H]1CC[C@]2(O)C(=O)CO
InChI: InChI=1S/C21H26O5/c1-19-7-5-13(23)9-12(19)3-4-14-15-6-8-21(26,17(25)11-22)20(15,2)10-16(24)18(14)19/h5,7,9,14-15,18,22,26H,3-4,6,8,10-11H2,1-2H3/t14-,15-,18+,19-,20-,21-/m0/s1
Instrument: TripleTOF 5600 SCIEX
Instrument type: LC-ESI-QTOF
Ms type: MS2
Ion mode: NEGATIVE
Collision energy: 60
Fragmentation mode: CID
Ionization: ESI
Column name: Zorbax Eclipse Plus C18 2.1 mm x 150 mm, 3.5 um, Agilent
Retention time: 8.469 min
Precursor m/z: 403.1762
Precursor type: [M+HCOO]-
m/z	relative intensity
107.0504	58
120.0585	129
121.066	141
122.0389	199
123.0452	740
123.0827	70
125.0606	141
133.0663	94
135.0452	70
135.0815	164
136.0538	364
137.0616	317
145.0641	199
149.0611	999
151.0752	246
159.0822	70
162.0684	141
163.076	105
177.095	105
185.0647	117
186.069	70
187.076	129
269.1183	117
282.1275	141
284.144	129
285.1486	199
324.1381	129
327.1587	129
