Mass spectrum: Cyproconazole; LC-ESI-QTOF; MS2; 110 V
Name: Cyproconazole
Class: Fungicide
Formula: C15H18ClN3O
Exact mass: 291.1138
SMILES: CC(C1CC1)C(CN2C=NC=N2)(C3=CC=C(C=C3)Cl)O
InChI: InChI=1S/C15H18ClN3O/c1-11(12-2-3-12)15(20,8-19-10-17-9-18-19)13-4-6-14(16)7-5-13/h4-7,9-12,20H,2-3,8H2,1H3
Instrument: TripleTOF 6600 SCIEX
Instrument type: LC-ESI-QTOF
Ms type: MS2
Ion mode: POSITIVE
Collision energy: 110
Fragmentation mode: CID
Ionization: ESI
Column name: Zorbax Eclipse Plus C18 2.1 mm x 150 mm, 3.5 um, Agilent
Retention time: 11.30515 min
Precursor m/z: 292.1211
Precursor type: [M+H]+
m/z	relative intensity
37.0042	39
38.0116	28
39.0196	158
41.0347	28
42.0175	40
43.0254	511
46.9638	26
48.9791	63
50.0106	80
51.0185	62
61.0018	72
62.0093	195
63.0173	619
64.025	56
65.0329	50
70.0336	999
72.977	431
74.0081	238
74.9928	26
75.0158	195
76.0243	16
77.0314	31
84.976	43
89.0306	979
90.0381	183
96.9745	18
98.9903	306
102.0364	12
110.9895	16
115.044	37
125.0036	99
128.0505	19
