Mass spectrum: 4-Methylbenzoic acid; LC-ESI-QTOF; MS2; 20 V
Name: 4-Methylbenzoic acid
Class: Industrial_process
Formula: C8H8O2
Exact mass: 136.0524
SMILES: CC1=CC=C(C=C1)C(=O)O
InChI: InChI=1S/C8H8O2/c1-6-2-4-7(5-3-6)8(9)10/h2-5H,1H3,(H,9,10)
Instrument: TripleTOF 5600 SCIEX
Instrument type: LC-ESI-QTOF
Ms type: MS2
Ion mode: POSITIVE
Collision energy: 20
Fragmentation mode: CID
Ionization: ESI
Column name: Zorbax Eclipse Plus C18 2.1 mm x 150 mm, 3.5 um, Agilent
Retention time: 8.542 min
Precursor m/z: 137.0597
Precursor type: [M+H]+
m/z	relative intensity
77.0431	451
91.0571	796
93.0723	999
119.0507	297
137.0636	166
