Mass spectrum: Iohexol; LC-ESI-QTOF; MS2; 110 V
Name: Iohexol
Class: Pharmaceutical
Formula: C19H26I3N3O9
Exact mass: 820.8803
SMILES: CC(=O)N(CC(O)CO)c1c(I)c(C(=O)NCC(O)CO)c(I)c(C(=O)NCC(O)CO)c1I
InChI: InChI=1S/C19H26I3N3O9/c1-8(29)25(4-11(32)7-28)17-15(21)12(18(33)23-2-9(30)5-26)14(20)13(16(17)22)19(34)24-3-10(31)6-27/h9-11,26-28,30-32H,2-7H2,1H3,(H,23,33)(H,24,34)
Instrument: TripleTOF 5600 SCIEX
Instrument type: LC-ESI-QTOF
Ms type: MS2
Ion mode: POSITIVE
Collision energy: 110
Fragmentation mode: CID
Ionization: ESI
Column name: Zorbax Eclipse Plus C18 2.1 mm x 150 mm, 3.5 um, Agilent
Retention time: 4.533 min
Precursor m/z: 821.8876
Precursor type: [M+H]+
m/z	relative intensity
102.0362	88
104.0494	111
114.0347	133
118.0277	133
119.0354	133
129.0503	155
130.0295	88
131.0365	133
132.0341	88
132.0451	88
133.0549	111
141.0584	133
142.0289	199
143.0361	111
143.0605	133
144.0083	177
144.0382	111
145.0387	111
145.0492	88
147.0318	177
149.0464	199
158.0224	177
159.0333	133
160.0398	133
173.0455	199
174.0191	111
174.0417	88
175.0269	266
176.0343	222
185.0477	155
188.0338	88
189.0425	88
200.9186	133
203.0561	133
204.9197	111
205.0714	155
227.9324	88
228.9411	222
229.9492	111
231.9284	222
239.9292	133
240.9415	222
242.9166	155
242.9505	133
245.9425	244
254.9471	133
255.9259	199
256.9301	111
257.9422	710
258.9098	133
269.9424	199
270.9401	333
271.9222	111
271.947	288
273.9367	999
275.953	133
283.9222	222
285.9363	199
286.9287	111
297.9333	111
299.9179	155
300.9517	111
301.9342	754
311.956	111
313.9638	88
315.9512	111
341.8343	266
355.8382	288
369.8216	88
374.989	222
383.8418	155
385.8291	266
397.8154	88
397.8387	199
398.849	88
399.8259	133
399.8452	111
411.8344	111
