Mass spectrum: Metamitron; LC-ESI-QTOF; MS2; 40 V
Name: Metamitron
Class: Herbicide
Formula: C10H10N4O
Exact mass: 202.0855
SMILES: CC1=NN=C(c2ccccc2)C(=O)N1N
InChI: InChI=1S/C10H10N4O/c1-7-12-13-9(10(15)14(7)11)8-5-3-2-4-6-8/h2-6H,11H2,1H3
Instrument: TripleTOF 5600 SCIEX
Instrument type: LC-ESI-QTOF
Ms type: MS2
Ion mode: POSITIVE
Collision energy: 40
Fragmentation mode: CID
Ionization: ESI
Column name: Zorbax Eclipse Plus C18 2.1 mm x 150 mm, 3.5 um, Agilent
Retention time: 6.783 min
Precursor m/z: 203.0927
Precursor type: [M+H]+
m/z	relative intensity
42.0444	374
43.05	23
55.0365	14
56.018	29
57.0507	45
59.029	33
65.0421	18
72.0614	13
77.0417	514
79.0565	78
80.0521	11
83.0257	44
89.0397	82
91.0424	16
92.0503	53
93.0581	9
104.0496	999
105.0575	142
106.0637	41
107.0598	16
117.0431	18
118.0521	70
119.058	13
130.0647	32
134.0714	10
158.075	10
159.0779	35
173.0717	11
174.0796	45
175.0982	144
203.0922	16
