Mass spectrum: L-Thyronine; LC-ESI-QTOF; MS2; 70 V
Name: L-Thyronine
Class: Pharmaceutical
Formula: C15H15NO4
Exact mass: 273.1001
SMILES: N[C@@H](Cc1ccc(Oc2ccc(O)cc2)cc1)C(O)=O
InChI: InChI=1S/C15H15NO4/c16-14(15(18)19)9-10-1-5-12(6-2-10)20-13-7-3-11(17)4-8-13/h1-8,14,17H,9,16H2,(H,18,19)/t14-/m0/s1
Instrument: TripleTOF 5600 SCIEX
Instrument type: LC-ESI-QTOF
Ms type: MS2
Ion mode: POSITIVE
Collision energy: 70
Fragmentation mode: CID
Ionization: ESI
Column name: Zorbax Eclipse Plus C18 2.1 mm x 150 mm, 3.5 um, Agilent
Retention time: 5.619 min
Precursor m/z: 274.1074
Precursor type: [M+H]+
m/z	relative intensity
53.0384	59
63.0232	19
65.0384	239
66.0458	111
77.0382	143
78.0464	23
81.0334	435
89.0372	19
90.0448	15
91.054	483
92.0629	43
93.0315	15
93.0548	23
94.0411	351
102.0459	43
103.0535	47
104.0503	195
107.049	23
109.0286	127
110.0381	23
115.0535	199
117.0575	83
118.0653	999
119.0727	143
127.0557	27
128.0605	51
139.0542	39
141.0693	67
151.052	19
152.0622	59
153.0707	23
163.0569	15
165.0711	63
168.0559	47
181.0714	31
