Mass spectrum: Aminophenazone; LC-ESI-QTOF; MS2; 80 V
Name: Aminophenazone
Class: Pharmaceutical
Formula: C13H17N3O
Exact mass: 231.1372
SMILES: CC1=C(C(=O)N(N1C)C2=CC=CC=C2)N(C)C
InChI: InChI=1S/C13H17N3O/c1-10-12(14(2)3)13(17)16(15(10)4)11-8-6-5-7-9-11/h5-9H,1-4H3
Instrument: TripleTOF 5600 SCIEX
Instrument type: LC-ESI-QTOF
Ms type: MS2
Ion mode: POSITIVE
Collision energy: 80
Fragmentation mode: CID
Ionization: ESI
Column name: Zorbax Eclipse Plus C18 2.1 mm x 150 mm, 3.5 um, Agilent
Retention time: 4.71 min
Precursor m/z: 232.1444
Precursor type: [M+H]+
m/z	relative intensity
42.0467	208
43.0503	11
43.0575	12
44.0613	22
54.0429	29
55.0511	44
56.0592	999
57.067	27
58.074	365
67.0457	11
68.0565	46
70.0708	162
72.088	57
77.0439	300
78.0516	22
79.0575	18
81.0499	38
82.0566	11
82.0691	20
83.0662	127
89.0443	12
91.0546	18
95.0658	14
97.0802	932
104.0524	11
106.0691	27
111.0946	12
117.0629	11
130.0709	11
