Mass spectrum: L-Isoleucine; LC-ESI-QTOF; MS2; 110 V
Name: L-Isoleucine
Class: Food_additive; Personal_care_product
Formula: C6H13NO2
Exact mass: 131.0946
InChI: InChI=1S/C6H13NO2/c1-3-4(2)5(7)6(8)9/h4-5H,3,7H2,1-2H3,(H,8,9)
Instrument: TripleTOF 5600 SCIEX
Instrument type: LC-ESI-QTOF
Ms type: CID
Ion mode: POSITIVE
Collision energy: 110
Ionization: ESI
Column name: Zorbax Eclipse Plus C18 2.1 mm x 150 mm, 3.5 um, Agilent
Retention time: 2.357 min
Precursor m/z: 132.1019
Precursor type: [M+H]+
m/z	relative intensity
35.9997	196
37.0076	786
38.0157	556
39.0233	999
41.0268	81
41.0392	114
42.0345	229
43.0183	81
44.9971	180
56.0494	98
