Mass spectrum: 1,2,3-trimethoxybenzene; LC-ESI-QTOF; MS2; 40 V
Name: 1,2,3-trimethoxybenzene
Class: Food_additive
Formula: C9H12O3
Exact mass: 168.0786
SMILES: COC1=C(C(=CC=C1)OC)OC
InChI: InChI=1S/C9H12O3/c1-10-7-5-4-6-8(11-2)9(7)12-3/h4-6H,1-3H3
Instrument: TripleTOF 5600 SCIEX
Instrument type: LC-ESI-QTOF
Ms type: MS2
Ion mode: POSITIVE
Collision energy: 40
Fragmentation mode: CID
Ionization: ESI
Column name: Zorbax Eclipse Plus C18 2.1 mm x 150 mm, 3.5 um, Agilent
Retention time: 9.034 min
Precursor m/z: 169.0859
Precursor type: [M+H]+
m/z	relative intensity
55.0283	128
65.0443	612
66.0506	80
67.0596	96
68.0317	451
77.0417	418
78.0509	290
81.0388	161
83.0535	257
93.0348	273
94.0447	177
95.052	628
96.0213	241
107.0116	112
108.0583	80
109.0284	96
109.0653	257
111.0452	853
123.0445	999
124.0512	96
125.0604	209
138.0664	596
139.0409	660
139.0762	80
154.0632	515
169.0878	145
