Mass spectrum: 2`-Deoxyadenosine 5`-monophosphate; LC-ESI-QTOF; MS2; 50 V
Name: 2`-Deoxyadenosine 5`-monophosphate
Formula: C10H14N5O6P
Exact mass: 331.0682
SMILES: OC1C(COP(O)(O)=O)OC(N2C3=C(C(N)=NC=N3)N=C2)C1
InChI: InChI=1S/C10H14N5O6P/c11-9-8-10(13-3-12-9)15(4-14-8)7-1-5(16)6(21-7)2-20-22(17,18)19/h3-7,16H,1-2H2,(H2,11,12,13)(H2,17,18,19)
Instrument: TripleTOF 5600 SCIEX
Instrument type: LC-ESI-QTOF
Ms type: MS2
Ion mode: POSITIVE
Collision energy: 50
Fragmentation mode: CID
Ionization: ESI
Column name: Zorbax Eclipse Plus C18 2.1 mm x 150 mm, 3.5 um, Agilent
Retention time: 2.173 min
Precursor m/z: 332.0755
Precursor type: [M+H]+
m/z	relative intensity
53.0385	26
81.0336	337
119.035	144
136.0616	999
