Mass spectrum: 4'-O-Demethyl pantoprazole sulfide; LC-ESI-QTOF; MS2; 110 V
Name: 4'-O-Demethyl pantoprazole sulfide
Class: Pharmaceutical; Transformation_product-Metabolite
Formula: C15H13F2N3O3S
Exact mass: 353.0646
SMILES: COC1=C(NC=CC1=O)CSC2=NC3=C(N2)C=C(C=C3)OC(F)F
InChI: InChI=1S/C15H13F2N3O3S/c1-22-13-11(18-5-4-12(13)21)7-24-15-19-9-3-2-8(23-14(16)17)6-10(9)20-15/h2-6,14H,7H2,1H3,(H,18,21)(H,19,20)
Instrument: TripleTOF 6600 SCIEX
Instrument type: LC-ESI-QTOF
Ms type: MS2
Ion mode: NEGATIVE
Collision energy: 110
Fragmentation mode: CID
Ionization: ESI
Column name: Zorbax Eclipse Plus C18 2.1 mm x 150 mm, 3.5 um, Agilent
Retention time: 7.57 min
Precursor m/z: 352.0573
Precursor type: [M-H]-
m/z	relative intensity
50.0029	14
57.9747	999
64.0177	31
65.0133	35
65.9972	71
74.0022	24
81.9744	21
88.0178	64
89.013	38
102.0207	11
113.0138	48
115.0295	842
118.9828	29
119.0247	24
119.9914	14
135.0361	22
145.9941	259
147.0018	556
148.0094	47
