Mass spectrum: 3-Desmethyl-trimethoprim; LC-ESI-QTOF; MS2; 80 V
Name: 3-Desmethyl-trimethoprim
Class: Pharmaceutical; Transformation_product; Transformation_product-Metabolite
Formula: C13H16N4O3
Exact mass: 276.1222
SMILES: OC1=CC(CC2=CN=C(N=C2N)N)=CC(OC)=C1OC
InChI: InChI=1S/C13H16N4O3/c1-19-10-5-7(4-9(18)11(10)20-2)3-8-6-16-13(15)17-12(8)14/h4-6,18H,3H2,1-2H3,(H4,14,15,16,17)
Instrument: TripleTOF 5600 SCIEX
Instrument type: LC-ESI-QTOF
Ms type: MS2
Ion mode: POSITIVE
Collision energy: 80
Fragmentation mode: CID
Ionization: ESI
Column name: Zorbax Eclipse Plus C18 2.1 mm x 150 mm, 3.5 um, Agilent
Retention time: 5.021 min
Precursor m/z: 277.1295
Precursor type: [M+H]+
m/z	relative intensity
41.0363	48
43.0429	127
52.0278	75
53.0179	44
54.0433	296
55.0274	20
55.0506	31
65.0453	172
66.0434	24
67.0329	17
67.0489	27
67.0613	44
68.043	141
69.0023	27
69.0512	31
74.0197	20
75.0282	89
76.0262	17
76.0348	17
77.0437	578
78.0384	172
79.0332	220
79.0586	48
80.0534	106
81.0494	999
82.0441	17
82.0567	34
83.0511	110
87.0294	20
89.0421	199
90.0365	55
90.0482	27
91.0572	175
92.0526	148
93.0459	65
93.062	27
94.0564	130
94.0668	151
95.0544	27
96.0589	79
97.0666	24
100.0275	20
101.0396	155
102.0346	223
103.0449	89
103.0561	62
104.0495	444
105.0449	254
106.0438	241
107.0562	117
108.0571	31
109.0513	113
110.0603	110
111.0673	20
114.0347	96
115.0421	37
116.0506	306
117.0525	220
118.0527	141
118.0655	72
119.0614	268
120.0557	210
121.0296	58
121.0769	96
122.0623	41
123.0459	68
123.0661	347
124.0761	79
126.0353	48
127.0442	34
128.0501	268
129.0458	237
130.039	99
130.0633	34
131.0604	248
132.0476	165
132.0709	24
133.0593	55
133.0738	41
134.0604	68
135.0643	62
141.0451	51
142.0308	13
142.0517	62
143.0383	13
143.0607	137
144.0548	161
145.0545	31
145.074	103
146.0704	175
147.0665	626
148.0425	20
148.0738	372
149.0238	86
149.0815	93
151.0399	44
153.0444	106
154.0443	27
155.0514	20
155.0624	24
156.0531	110
157.044	31
157.064	17
158.0428	24
158.0686	34
159.0647	79
160.0479	44
160.0767	82
161.0818	148
162.0562	17
162.0905	27
168.0566	37
169.0359	17
170.0473	17
170.0698	155
171.0624	65
172.0429	51
172.0753	62
173.063	17
173.0848	68
174.0647	44
175.063	31
175.0955	20
176.0719	13
183.0652	17
184.0699	27
185.0807	65
186.0607	27
187.0508	34
187.0973	110
189.072	27
197.086	13
198.0614	17
199.0667	20
201.0781	27
213.0632	20
213.0813	24
229.0725	37
245.0695	13
