Mass spectrum: Medroxyprogesterone-17-acetate; LC-ESI-QTOF; MS2; 100 V
Name: Medroxyprogesterone-17-acetate
Class: Pharmaceutical
Formula: C24H34O4
Exact mass: 386.2457
SMILES: CC1CC2C(CCC3(C2CCC3(C(=O)C)OC(=O)C)C)C4(C1=CC(=O)CC4)C
InChI: InChI=1S/C24H34O4/c1-14-12-18-19(22(4)9-6-17(27)13-21(14)22)7-10-23(5)20(18)8-11-24(23,15(2)25)28-16(3)26/h13-14,18-20H,6-12H2,1-5H3
Instrument: TripleTOF 5600 SCIEX
Instrument type: LC-ESI-QTOF
Ms type: MS2
Ion mode: POSITIVE
Collision energy: 100
Fragmentation mode: CID
Ionization: ESI
Column name: Zorbax Eclipse Plus C18 2.1 mm x 150 mm, 3.5 um, Agilent
Retention time: 13.723 min
Precursor m/z: 387.253
Precursor type: [M+H]+
m/z	relative intensity
38.0159	18
39.0229	96
41.0386	152
43.0181	345
51.0233	59
53.0386	66
55.0193	33
55.0544	193
57.0327	22
63.0218	14
65.0389	155
66.0466	14
67.0546	382
69.0336	25
69.0701	81
77.0387	984
78.046	29
79.0547	605
80.0639	29
81.0342	48
81.0704	111
82.0418	44
83.0496	152
89.0399	22
91.0546	999
93.0696	185
94.0429	33
95.0497	59
95.0856	163
97.0649	568
102.0473	18
103.0547	174
104.062	48
105.0697	557
107.0488	118
107.0852	25
108.0569	85
109.067	51
115.0544	449
116.0627	111
117.0703	245
118.0788	29
119.0857	174
121.0632	33
122.0736	14
123.0804	304
127.0541	163
128.0624	501
129.0701	308
130.0775	63
131.0863	129
133.1022	22
137.0956	33
139.0566	14
141.0703	430
142.077	118
143.0855	107
144.0952	18
145.1024	48
147.0836	22
151.0521	14
152.0634	92
153.0688	219
154.0767	63
155.0858	137
156.0961	25
157.1022	25
159.0815	25
159.1183	22
165.0708	193
166.079	63
167.0875	103
168.0945	37
169.1022	40
178.0756	100
179.0856	100
180.0927	22
181.1018	51
183.1135	18
191.0826	51
193.1026	33
205.1007	14
206.1141	18
213.1218	18
221.1319	14
