Mass spectrum: Paroxetine; LC-ESI-QTOF; MS2; 60 V
Name: Paroxetine
Class: Pharmaceutical
Formula: C19H20FNO3
Exact mass: 329.1427
SMILES: C1CNCC(C1C2=CC=C(C=C2)F)COC3=CC4=C(C=C3)OCO4
InChI: InChI=1S/C19H20FNO3/c20-15-3-1-13(2-4-15)17-7-8-21-10-14(17)11-22-16-5-6-18-19(9-16)24-12-23-18/h1-6,9,14,17,21H,7-8,10-12H2
Instrument: TripleTOF 5600 SCIEX
Instrument type: LC-ESI-QTOF
Ms type: MS2
Ion mode: POSITIVE
Collision energy: 60
Fragmentation mode: CID
Ionization: ESI
Column name: Zorbax Eclipse Plus C18 2.1 mm x 150 mm, 3.5 um, Agilent
Retention time: 7.812 min
Precursor m/z: 330.15
Precursor type: [M+H]+
m/z	relative intensity
37.0075	15
38.0154	10
39.0231	83
41.0387	171
42.0339	54
43.0546	43
44.0497	293
56.0495	71
65.0384	47
67.0538	20
68.05	82
70.0654	999
77.0389	43
81.0319	24
82.0651	71
83.0289	33
84.0811	12
91.0536	15
93.0328	85
96.0813	19
101.0391	20
103.0549	222
109.0451	762
115.0548	239
116.0622	19
121.0298	55
121.045	47
123.0607	283
127.0545	48
128.0622	52
130.0653	13
133.0451	216
134.0532	43
135.0609	909
136.0689	61
141.068	10
143.0873	17
145.0455	12
146.0537	106
147.0608	187
148.0677	124
149.0756	40
150.072	57
151.0385	101
159.0607	17
160.0696	17
161.0772	134
162.0715	17
163.0917	68
164.0868	29
175.0396	17
178.1073	12
192.1185	66
