Mass spectrum: Norfloxacin; LC-ESI-QTOF; MS2; 90 V
Name: Norfloxacin
Class: Antimicrobial; Pharmaceutical
Formula: C16H18FN3O3
Exact mass: 319.1332
SMILES: CCN1C=C(C(=O)C2=CC(=C(C=C21)N3CCNCC3)F)C(=O)O
InChI: InChI=1S/C16H18FN3O3/c1-2-19-9-11(16(22)23)15(21)10-7-12(17)14(8-13(10)19)20-5-3-18-4-6-20/h7-9,18H,2-6H2,1H3,(H,22,23)
Instrument: TripleTOF 5600 SCIEX
Instrument type: LC-ESI-QTOF
Ms type: MS2
Ion mode: POSITIVE
Collision energy: 90
Fragmentation mode: CID
Ionization: ESI
Column name: Zorbax Eclipse Plus C18 2.1 mm x 150 mm, 3.5 um, Agilent
Retention time: 5.167 min
Precursor m/z: 320.1405
Precursor type: [M+H]+
m/z	relative intensity
75.029	187
77.0399	145
83.036	104
89.042	187
95.0323	187
98.0155	104
99.0279	83
100.0202	83
101.04	374
106.0207	83
107.0303	582
108.0358	187
109.0473	166
113.0304	104
114.0347	166
115.0548	187
116.0511	270
120.0397	166
121.0408	228
122.0444	104
126.0329	145
128.0495	582
129.0454	124
129.0586	104
130.0657	208
132.0229	811
133.0335	978
134.043	499
135.049	291
139.0366	124
140.0469	291
142.0647	104
146.0374	333
147.049	353
148.0564	999
155.0623	395
158.0392	83
160.0223	166
160.0462	686
161.0275	208
161.0539	416
162.0332	145
163.0437	83
167.0576	83
173.0529	582
174.0571	353
175.0278	83
175.0683	291
187.0305	374
187.0656	228
188.0355	374
188.0749	83
189.0793	124
203.0593	166
231.052	104
