Mass spectrum: Dexpanthenol; LC-ESI-QTOF; MS2; 40 V
Name: Dexpanthenol
Formula: C9H19NO4
Exact mass: 205.1314
SMILES: CC(C)(CO)C(C(=O)NCCCO)O
InChI: InChI=1S/C9H19NO4/c1-9(2,6-12)7(13)8(14)10-4-3-5-11/h7,11-13H,3-6H2,1-2H3,(H,10,14)
Instrument: TripleTOF 6600 SCIEX
Instrument type: LC-ESI-QTOF
Ms type: MS2
Ion mode: POSITIVE
Collision energy: 40
Fragmentation mode: CID
Ionization: ESI
Column name: Zorbax Eclipse Plus C18 2.1 mm x 150 mm, 3.5 um, Agilent
Retention time: 4.791 min
Precursor m/z: 206.1387
Precursor type: [M+H]+
m/z	relative intensity
30.0331	92
31.0176	75
39.0224	242
41.0382	600
42.0332	23
43.0174	704
45.0333	69
46.0276	80
55.0542	92
56.0128	612
57.0688	103
58.0649	975
59.0483	127
65.0378	132
67.0536	629
69.069	103
74.0226	329
76.0751	999
83.0476	40
84.0434	196
85.0647	86
95.0479	254
96.079	34
102.0554	51
112.0732	40
124.0734	28
142.1199	34
170.1189	46
188.127	46
