Mass spectrum: N,N-didesmethyl-venlafaxine; LC-ESI-QTOF; MS2; 150 V
Name: N,N-didesmethyl-venlafaxine
Class: Pharmaceutical; Transformation_product
Formula: C15H23NO2
Exact mass: 249.1729
SMILES: COC1=CC=C(C=C1)C(CN)C2(CCCCC2)O
InChI: InChI=1S/C15H23NO2/c1-18-13-7-5-12(6-8-13)14(11-16)15(17)9-3-2-4-10-15/h5-8,14,17H,2-4,9-11,16H2,1H3
Instrument: TripleTOF 5600 SCIEX
Instrument type: LC-ESI-QTOF
Ms type: MS2
Ion mode: POSITIVE
Collision energy: 150
Fragmentation mode: CID
Ionization: ESI
Column name: Zorbax Eclipse Plus C18 2.1 mm x 150 mm, 3.5 um, Agilent
Retention time: 6.316 min
Precursor m/z: 250.1802
Precursor type: [M+H]+
m/z	relative intensity
51.0273	999
52.0363	317
65.0404	272
77.0402	454
78.048	317
