Mass spectrum: 3,5-bis(hexanoylamino)-2,4,6-triiodobenzoic acid; LC-ESI-QTOF; MS2; 100 V
Name: 3,5-bis(hexanoylamino)-2,4,6-triiodobenzoic acid
Class: Pharmaceutical; Transformation_product
Formula: C19H25I3N2O4
Exact mass: 725.8949
SMILES: CCCCCC(=O)Nc1c(I)c(NC(=O)CCCCC)c(I)c(C(O)=O)c1I
InChI: InChI=1S/C19H25I3N2O4/c1-3-5-7-9-11(25)23-17-14(20)13(19(27)28)15(21)18(16(17)22)24-12(26)10-8-6-4-2/h3-10H2,1-2H3,(H,23,25)(H,24,26)(H,27,28)
Instrument: TripleTOF 5600 SCIEX
Instrument type: LC-ESI-QTOF
Ms type: MS2
Ion mode: POSITIVE
Collision energy: 100
Fragmentation mode: CID
Ionization: ESI
Column name: Zorbax Eclipse Plus C18 2.1 mm x 150 mm, 3.5 um, Agilent
Retention time: 11.575 min
Precursor m/z: 726.9021
Precursor type: [M+H]+
m/z	relative intensity
71.0896	21
78.0356	39
79.0576	34
81.0728	30
91.0449	30
104.0478	17
105.0562	34
106.0275	30
106.064	17
107.0355	26
108.0452	56
115.0531	21
117.0442	39
118.0511	39
118.064	21
119.0339	34
120.045	47
122.0237	17
122.0522	21
123.0519	30
124.038	17
132.0448	21
132.0778	17
133.0527	26
134.0237	61
134.0587	30
145.0394	47
145.0755	34
146.025	78
146.0475	95
147.0321	74
147.0541	82
148.04	135
148.0634	209
149.0487	43
158.0577	17
159.0546	30
159.0901	26
160.0384	56
160.0621	56
161.0497	139
161.071	745
162.055	61
172.0252	21
172.0646	21
173.0322	39
173.0724	26
173.1075	21
174.0186	21
174.0422	117
174.0763	17
175.0246	21
175.0549	56
175.0845	43
176.106	26
178.0346	26
185.0356	34
185.0714	30
185.0863	17
186.0441	165
187.05	318
187.0808	17
187.1222	21
187.1336	21
188.0582	222
188.1064	61
191.0446	95
192.0521	157
193.0353	26
193.0622	17
199.0508	39
200.0236	39
200.0573	139
201.0308	52
201.0666	187
201.1013	21
202.0741	26
202.1097	52
203.1004	26
203.1199	30
203.9298	43
204.1024	999
204.1448	21
205.0602	74
213.0307	65
213.0651	74
213.0988	34
214.0373	87
214.0739	30
214.1123	30
215.043	30
215.0819	52
215.1196	34
218.0353	47
218.0617	17
219.0384	43
220.9566	21
227.0438	17
227.0803	39
228.0518	39
229.0628	39
229.0936	47
229.1387	21
231.0426	78
231.116	69
231.9234	39
232.0481	91
233.0555	34
241.1008	39
242.1052	82
243.1103	34
243.9573	30
244.1203	205
245.0559	61
245.1296	47
246.0673	78
247.0703	52
248.1159	222
248.955	26
249.1209	52
250.1078	61
256.1212	148
257.1291	113
259.1452	17
270.1012	47
270.1413	30
271.1061	34
271.9442	122
272.9598	21
273.9663	30
275.1032	248
287.1055	21
288.1121	375
289.1202	218
299.1763	34
299.9395	95
301.1167	100
301.19	87
303.1338	383
317.9486	161
327.1687	17
331.0348	17
345.1815	506
375.021	187
