Mass spectrum: Flufenacet; LC-ESI-QTOF; MS2; 100 V
Name: Flufenacet
Class: Herbicide; Fungicide
Formula: C14H13F4N3O2S
Exact mass: 363.0665
SMILES: CC(C)N(C1=CC=C(C=C1)F)C(=O)COC2=NN=C(S2)C(F)(F)F
InChI: InChI=1S/C14H13F4N3O2S/c1-8(2)21(10-5-3-9(15)4-6-10)11(22)7-23-13-20-19-12(24-13)14(16,17)18/h3-6,8H,7H2,1-2H3
Instrument: TripleTOF 6600 SCIEX
Instrument type: LC-ESI-QTOF
Ms type: MS2
Ion mode: POSITIVE
Collision energy: 100
Fragmentation mode: CID
Ionization: ESI
Column name: Zorbax Eclipse Plus C18 2.1 mm x 150 mm, 3.5 um, Agilent
Retention time: 13.345 min
Precursor m/z: 364.0738
Precursor type: [M+H]+
m/z	relative intensity
39.0229	23
41.0384	22
49.007	12
50.0151	60
51.023	243
57.0135	143
59.0285	23
62.0147	13
63.0228	45
65.0386	10
69.0133	10
70.0209	21
74.015	137
75.0231	468
76.0184	22
77.0388	999
78.0339	51
81.0134	29
83.0293	471
84.0367	15
85.0319	15
89.0382	31
95.0294	705
96.0365	299
97.0447	365
98.0399	14
104.0493	67
105.0444	19
107.0291	177
108.0245	11
108.037	23
109.0447	299
110.0392	13
111.0474	16
115.0537	14
122.0402	75
123.0345	201
124.0558	213
133.0459	14
134.0406	17
135.0479	27
136.0556	49
