Mass spectrum: Estrone 3-methyl ether; LC-ESI-QTOF; MS2; 130 V
Name: Estrone 3-methyl ether
Class: Pharmaceutical
Formula: C19H24O2
Exact mass: 284.1776
SMILES: C[C@]12CC[C@@H]3c4ccc(cc4CC[C@H]3[C@@H]1CCC2=O)OC
InChI: InChI=1S/C19H24O2/c1-19-10-9-15-14-6-4-13(21-2)11-12(14)3-5-16(15)17(19)7-8-18(19)20/h4,6,11,15-17H,3,5,7-10H2,1-2H3/t15-,16-,17+,19+/m1/s1
Instrument: TripleTOF 5600 SCIEX
Instrument type: LC-ESI-QTOF
Ms type: MS2
Ion mode: POSITIVE
Collision energy: 130
Fragmentation mode: CID
Ionization: ESI
Column name: Zorbax Eclipse Plus C18 2.1 mm x 150 mm, 3.5 um, Agilent
Retention time: 10.549 min
Precursor m/z: 285.1849
Precursor type: [M+H]+
m/z	relative intensity
51.0275	303
65.0423	325
74.0189	101
75.0257	89
76.0327	134
77.0409	628
77.0621	123
78.0483	190
89.0399	538
91.0549	145
102.0471	347
102.0651	44
103.0545	179
113.0374	56
115.0548	999
126.045	134
127.0537	258
128.0611	280
131.0471	44
139.0522	67
150.0464	78
151.0516	179
152.0618	291
163.0548	145
164.0626	67
165.0687	101
