Mass spectrum: 4-Epioxytetracyline; LC-ESI-QTOF; MS2; 40 V
Name: 4-Epioxytetracyline
Class: Metabolite; Pharmaceutical
Formula: C22H24N2O9
Exact mass: 460.1482
SMILES: C[C@@]1([C@H]2[C@@H]([C@H]3[C@H](C(=O)C(=C([C@]3(C(=O)C2=C(C4=C1C=CC=C4O)O)O)O)C(=O)N)N(C)C)O)O
InChI: InChI=1S/C22H24N2O9/c1-21(32)7-5-4-6-8(25)9(7)15(26)10-12(21)17(28)13-14(24(2)3)16(27)11(20(23)31)19(30)22(13,33)18(10)29/h4-6,12-14,17,25-26,28,30,32-33H,1-3H3,(H2,23,31)/t12-,13-,14-,17+,21-,22+/m1/s1
Instrument: TripleTOF 5600 SCIEX
Instrument type: LC-ESI-QTOF
Ms type: MS2
Ion mode: POSITIVE
Collision energy: 40
Fragmentation mode: CID
Ionization: ESI
Column name: Zorbax Eclipse Plus C18 2.1 mm x 150 mm, 3.5 um, Agilent
Retention time: 5.276 min
Precursor m/z: 461.1555
Precursor type: [M+H]+
m/z	relative intensity
201.0546	283
226.0745	89
268.0371	74
283.0468	74
283.0629	119
335.0512	104
337.0663	134
350.0479	89
365.0758	134
381.0554	134
426.1176	999
444.129	149
