Mass spectrum: Ranitidine-N-oxide; LC-ESI-QTOF; MS2; 90 V
Name: Ranitidine-N-oxide
Class: Pharmaceutical; Transformation_product
Formula: C13H22N4O4S
Exact mass: 330.1362
SMILES: CNC(/NCCSCc1oc(C[N+](C)(C)[O-])cc1)=C\[N+]([O-])=O
InChI: InChI=1S/C13H22N4O4S/c1-14-13(8-16(18)19)15-6-7-22-10-12-5-4-11(21-12)9-17(2,3)20/h4-5,8,14-15H,6-7,9-10H2,1-3H3/b13-8+
Instrument: TripleTOF 5600 SCIEX
Instrument type: LC-ESI-QTOF
Ms type: MS2
Ion mode: POSITIVE
Collision energy: 90
Fragmentation mode: CID
Ionization: ESI
Column name: Zorbax Eclipse Plus C18 2.1 mm x 150 mm, 3.5 um, Agilent
Retention time: 4.879 min
Precursor m/z: 331.1435
Precursor type: [M+H]+
m/z	relative intensity
42.0416	43
51.0308	43
53.0446	221
54.0382	54
55.0467	64
56.0541	205
57.0487	54
58.9995	75
60.0082	21
65.0424	97
66.0502	32
67.0448	32
68.0529	102
70.0677	43
74.0088	32
77.0407	567
77.0649	32
78.0362	59
78.0482	91
79.055	156
80.0135	27
80.0515	129
80.0703	27
81.0355	999
81.067	21
82.0544	97
82.0647	27
83.0607	86
88.0233	48
89.0388	27
91.0555	129
92.0489	59
93.0578	97
94.0421	64
94.0659	97
95.0499	43
96.0685	102
97.0126	70
97.0761	756
98.0833	37
101.0173	21
101.0346	21
102.0376	702
104.0492	205
104.0649	21
105.0334	43
106.0452	37
106.0647	70
107.0489	426
107.0703	21
108.079	32
109.0744	48
115.0311	37
117.0555	113
118.0654	108
119.0602	64
120.0463	32
120.069	54
120.0806	37
121.0752	75
123.0269	43
125.0044	113
129.0488	70
130.0553	59
131.0585	27
132.0434	216
133.0523	162
133.0759	54
134.0621	48
135.0901	37
146.0609	32
148.0773	75
150.0354	32
