Mass spectrum: Terbuthylazine; LC-ESI-QTOF; MS2; 30 V
Name: Terbuthylazine
Class: Herbicide
Formula: C9H16ClN5
Exact mass: 229.1094
SMILES: CCNc1nc(Cl)nc(NC(C)(C)C)n1
InChI: InChI=1S/C9H16ClN5/c1-5-11-7-12-6(10)13-8(14-7)15-9(2,3)4/h5H2,1-4H3,(H2,11,12,13,14,15)
Instrument: TripleTOF 5600 SCIEX
Instrument type: LC-ESI-QTOF
Ms type: CID
Ion mode: POSITIVE
Collision energy: 30
Ionization: ESI
Column name: Zorbax Eclipse Plus C18 2.1 mm x 150 mm, 3.5 um, Agilent
Retention time: 11.917 min
Precursor m/z: 230.1167
Precursor type: [M+H]+
m/z	relative intensity
57.075	13
68.0283	54
71.0638	28
79.009	132
96.0571	172
104.0015	96
110.0458	20
132.0326	218
138.0771	55
146.0228	170
174.0537	999
230.1159	23
