Mass spectrum: 2-Methylbenzimidazole; LC-ESI-QTOF; MS2; 130 V
Name: 2-Methylbenzimidazole
Formula: C8H8N2
Exact mass: 132.0687
SMILES: CC1=NC2=CC=CC=C2N1
InChI: InChI=1S/C8H8N2/c1-6-9-7-4-2-3-5-8(7)10-6/h2-5H,1H3,(H,9,10)
Instrument: TripleTOF 6600 SCIEX
Instrument type: LC-ESI-QTOF
Ms type: MS2
Ion mode: POSITIVE
Collision energy: 130
Fragmentation mode: CID
Ionization: ESI
Column name: Zorbax Eclipse Plus C18 2.1 mm x 150 mm, 3.5 um, Agilent
Retention time: 4.68 min
Precursor m/z: 133.076
Precursor type: [M+H]+
m/z	relative intensity
35.9993	389
37.0071	999
38.0028	127
38.0149	383
39.0229	168
42.0331	29
49.0071	203
50.0146	174
51.0106	58
52.0185	63
59.999	104
61.007	389
62.0147	180
63.0222	40
73.0058	34
