Mass spectrum: Memantine; LC-ESI-QTOF; MS2; 50 V
Name: Memantine
Class: Pharmaceutical
Formula: C12H21N
Exact mass: 179.1674
SMILES: CC12CC3CC(C1)(CC(C3)(C2)N)C
InChI: InChI=1S/C12H21N/c1-10-3-9-4-11(2,6-10)8-12(13,5-9)7-10/h9H,3-8,13H2,1-2H3
Instrument: TripleTOF 5600 SCIEX
Instrument type: LC-ESI-QTOF
Ms type: MS2
Ion mode: POSITIVE
Collision energy: 50
Fragmentation mode: CID
Ionization: ESI
Column name: Zorbax Eclipse Plus C18 2.1 mm x 150 mm, 3.5 um, Agilent
Retention time: 6.653 min
Precursor m/z: 180.1747
Precursor type: [M+H]+
m/z	relative intensity
55.0603	43
65.0427	182
67.0576	44
69.0745	22
77.0411	166
79.0567	178
81.0723	51
91.0567	999
92.0636	24
93.0714	96
95.0854	45
103.0546	21
105.0705	268
107.0861	536
119.0857	16
121.1002	28
