Mass spectrum: Estrone; LC-ESI-QTOF; MS2; 130 V
Name: Estrone
Class: Pharmaceutical
Formula: C18H22O2
Exact mass: 270.162
SMILES: CC12CCC3C(C1CCC2=O)CCC4=C3C=CC(=C4)O
InChI: InChI=1S/C18H22O2/c1-18-9-8-14-13-5-3-12(19)10-11(13)2-4-15(14)16(18)6-7-17(18)20/h3,5,10,14-16,19H,2,4,6-9H2,1H3
Instrument: TripleTOF 5600 SCIEX
Instrument type: LC-ESI-QTOF
Ms type: MS2
Ion mode: POSITIVE
Collision energy: 130
Fragmentation mode: CID
Ionization: ESI
Column name: Zorbax Eclipse Plus C18 2.1 mm x 150 mm, 3.5 um, Agilent
Retention time: 11.224 min
Precursor m/z: 271.1693
Precursor type: [M+H]+
m/z	relative intensity
37.0075	29
38.0149	23
39.0231	133
41.0386	28
43.0179	68
49.0071	23
50.0153	161
51.0229	491
52.0304	13
53.0385	26
55.0178	23
59.9994	10
61.0073	53
62.0152	144
63.0229	359
65.0387	325
66.0463	29
67.0539	14
73.0072	14
74.015	144
75.0228	129
76.0308	76
77.0385	927
78.0462	98
79.0544	57
86.0148	48
87.0229	60
88.0305	25
89.0386	523
90.0459	11
91.0543	112
94.0409	25
98.0143	40
99.0228	23
100.0308	12
101.0384	41
102.0463	203
103.054	98
107.0488	25
113.0382	59
114.0466	32
115.0541	999
116.0606	17
125.0384	18
126.0462	150
127.0539	139
128.0616	201
131.049	36
137.0397	11
138.0455	13
139.0544	124
149.0395	12
150.0465	103
151.0537	143
152.0618	212
162.0484	22
163.0542	115
164.0615	46
165.0701	61
176.0615	32
