Mass spectrum: Clopidogrel carboxylic acid; LC-ESI-QTOF; MS2; 110 V
Name: Clopidogrel carboxylic acid
Class: Pharmaceutical; Transformation_product-Metabolite
Formula: C15H14ClNO2S
Exact mass: 307.0434
SMILES: C1CN(CC2=C1SC=C2)C(C3=CC=CC=C3Cl)C(=O)O
InChI: InChI=1S/C15H14ClNO2S/c16-12-4-2-1-3-11(12)14(15(18)19)17-7-5-13-10(9-17)6-8-20-13/h1-4,6,8,14H,5,7,9H2,(H,18,19)
Instrument: TripleTOF 6600 SCIEX
Instrument type: LC-ESI-QTOF
Ms type: MS2
Ion mode: POSITIVE
Collision energy: 110
Fragmentation mode: CID
Ionization: ESI
Column name: Zorbax Eclipse Plus C18 2.1 mm x 150 mm, 3.5 um, Agilent
Retention time: 6.621 min
Precursor m/z: 308.0507
Precursor type: [M+H]+
m/z	relative intensity
39.0234	18
44.9798	10
49.0077	52
50.0158	283
51.024	999
52.0313	24
62.0156	21
63.0235	94
64.0311	10
65.039	23
72.9843	66
74.0152	18
75.0232	18
77.0395	935
78.0467	109
89.0391	245
90.0463	75
98.9997	88
105.0445	18
117.058	13
125.0152	52
