Mass spectrum: Norethynodrel; LC-ESI-QTOF; MS2; 100 V
Name: Norethynodrel
Class: Pharmaceutical
Formula: C20H26O2
Exact mass: 298.1933
SMILES: C[C@]12CC[C@H]3[C@@H](CCC4=C3CCC(=O)C4)[C@@H]1CC[C@@]2(O)C#C
InChI: InChI=1S/C20H26O2/c1-3-20(22)11-9-18-17-6-4-13-12-14(21)5-7-15(13)16(17)8-10-19(18,20)2/h1,16-18,22H,4-12H2,2H3/t16-,17-,18+,19+,20+/m1/s1
Instrument: TripleTOF 5600 SCIEX
Instrument type: LC-ESI-QTOF
Ms type: MS2
Ion mode: POSITIVE
Collision energy: 100
Fragmentation mode: CID
Ionization: ESI
Column name: Zorbax Eclipse Plus C18 2.1 mm x 150 mm, 3.5 um, Agilent
Retention time: 11.133 min
Precursor m/z: 299.2006
Precursor type: [M+H]+
m/z	relative intensity
43.024	31
53.0073	12
53.0447	50
55.0241	27
55.0603	85
65.0426	385
66.0476	12
67.0578	92
76.0343	13
77.0419	999
77.0765	27
78.0492	57
79.0566	344
81.0709	85
83.0515	111
89.0392	76
91.0558	708
93.0708	19
94.0411	20
102.0465	97
103.0534	78
104.0621	10
105.0697	72
107.0484	39
109.0648	41
115.0542	656
116.0618	38
117.0705	33
126.0449	19
127.0537	145
128.0613	415
129.0694	62
131.0481	12
139.0531	27
141.0685	130
151.0529	33
152.062	142
153.0686	46
163.0544	13
164.0613	15
165.069	111
176.0592	15
177.0702	12
178.0763	19
189.0702	36
202.0767	15
