Mass spectrum: Carbofuran; LC-ESI-QTOF; MS2; 110 V
Name: Carbofuran
Class: Insecticide; Transformation_product
Formula: C12H15NO3
Exact mass: 221.1052
SMILES: CNC(=O)Oc1cccc2CC(C)(C)Oc12
InChI: InChI=1S/C12H15NO3/c1-12(2)7-8-5-4-6-9(10(8)16-12)15-11(14)13-3/h4-6H,7H2,1-3H3,(H,13,14)
Instrument: TripleTOF 5600 SCIEX
Instrument type: LC-ESI-QTOF
Ms type: MS2
Ion mode: POSITIVE
Collision energy: 110
Fragmentation mode: CID
Ionization: ESI
Column name: Zorbax Eclipse Plus C18 2.1 mm x 150 mm, 3.5 um, Agilent
Retention time: 9.746 min
Precursor m/z: 222.1125
Precursor type: [M+H]+
m/z	relative intensity
52.0364	42
53.0444	31
55.0239	31
55.0578	52
58.0339	499
64.0341	36
65.0419	394
74.0176	120
75.0258	78
76.0339	21
77.0418	999
78.0492	84
78.0613	21
89.0396	78
91.0549	99
102.0485	52
103.0542	73
115.0517	31
131.0472	26
