Mass spectrum: Clodinafop-Propargyl; LC-ESI-QTOF; MS2; 150 V
Name: Clodinafop-Propargyl
Class: Herbicide
Formula: C17H13ClFNO4
Exact mass: 349.0517
InChI: InChI=1S/C17H13ClFNO4/c1-3-8-22-17(21)11(2)23-13-4-6-14(7-5-13)24-16-15(19)9-12(18)10-20-16/h1,4-7,9-11H,8H2,2H3
Instrument: TripleTOF 6600 SCIEX
Instrument type: LC-ESI-QTOF
Ms type: CID
Ion mode: POSITIVE
Collision energy: 150
Ionization: ESI
Column name: Zorbax Eclipse Plus C18 2.1 mm x 150 mm, 3.5 um, Agilent
Retention time: 13.951 min
Precursor m/z: 350.059
Precursor type: [M+H]+
m/z	relative intensity
37.0064	260
38.0136	217
39.0217	390
49.0061	304
50.0138	694
51.0216	694
57.0117	217
61.0054	260
62.0136	608
63.021	738
68.0031	173
69.0126	260
73.0054	260
74.0132	868
75.0082	999
75.021	390
86.0134	304
94.0073	173
