Mass spectrum: 1,2-Benzisothiazol-3(2H)-one; LC-ESI-QTOF; MS2; 80 V
Name: 1,2-Benzisothiazol-3(2H)-one
Class: Antimicrobial; Biocide; Fungicide
Formula: C7H5NOS
Exact mass: 151.0092
SMILES: C1=CC=C2C(=C1)C(=O)NS2
InChI: InChI=1S/C7H5NOS/c9-7-5-3-1-2-4-6(5)10-8-7/h1-4H,(H,8,9)
Instrument: TripleTOF 6600 SCIEX
Instrument type: LC-ESI-QTOF
Ms type: MS2
Ion mode: POSITIVE
Collision energy: 80
Fragmentation mode: CID
Ionization: ESI
Column name: Zorbax Eclipse Plus C18 2.1 mm x 150 mm, 3.5 um, Agilent
Retention time: 6.233 min
Precursor m/z: 152.0165
Precursor type: [M+H]+
m/z	relative intensity
35.9988	82
37.007	365
38.0147	201
39.0225	521
43.9711	29
44.0128	37
44.9785	141
49.0064	111
50.0144	678
51.0225	999
52.0186	44
53.0381	37
56.9786	29
57.9861	52
61.0065	111
62.0147	410
63.023	499
64.0177	395
65.0376	44
67.9699	89
68.9787	633
74.0147	74
76.0179	44
77.038	164
80.9779	44
81.9865	96
91.9719	37
92.9783	134
93.9756	44
