Mass spectrum: C-desmethyl-metoprolol; LC-ESI-QTOF; MS2; 30 V
Name: C-desmethyl-metoprolol
Formula: C14H23NO3
Exact mass: 253.1678
SMILES: CCNCC(COC1=CC=C(C=C1)CCOC)O
InChI: InChI=1S/C14H23NO3/c1-3-15-10-13(16)11-18-14-6-4-12(5-7-14)8-9-17-2/h4-7,13,15-16H,3,8-11H2,1-2H3
Instrument: TripleTOF 5600 SCIEX
Instrument type: LC-ESI-QTOF
Ms type: MS2
Ion mode: POSITIVE
Collision energy: 30
Fragmentation mode: CID
Ionization: ESI
Column name: Zorbax Eclipse Plus C18 2.1 mm x 150 mm, 3.5 um, Agilent
Retention time: 5.422 min
Precursor m/z: 254.1751
Precursor type: [M+H]+
m/z	relative intensity
42.0341	16
43.0178	12
44.0495	16
56.0493	54
57.0704	16
58.0655	702
67.0546	20
70.0647	17
72.0811	35
77.0383	25
79.0539	31
84.0811	823
86.0967	26
91.0545	68
102.0479	10
102.0917	999
103.0537	84
105.0701	138
115.053	23
116.0619	15
117.0712	19
121.0659	58
129.0691	23
131.0484	19
131.0852	115
133.0651	532
135.0804	75
141.0703	49
144.0573	51
147.0782	19
149.0958	12
159.0809	369
161.0953	53
163.0884	43
165.0911	117
177.091	51
191.1063	271
204.1385	117
236.1668	15
254.1757	545
