Mass spectrum: Acridine-9-carboxylic acid; LC-ESI-QTOF; MS2; 80 V
Name: Acridine-9-carboxylic acid
Class: Pharmaceutical; Metabolite; Transformation_product; Transformation_product-Metabolite
Formula: C14H9NO2
Exact mass: 223.0633
SMILES: OC(=O)c1c2ccccc2nc3ccccc13
InChI: InChI=1S/C14H9NO2/c16-14(17)13-9-5-1-3-7-11(9)15-12-8-4-2-6-10(12)13/h1-8H,(H,16,17)
Instrument: TripleTOF 5600 SCIEX
Instrument type: LC-ESI-QTOF
Ms type: MS2
Ion mode: POSITIVE
Collision energy: 80
Fragmentation mode: CID
Ionization: ESI
Column name: Zorbax Eclipse Plus C18 2.1 mm x 150 mm, 3.5 um, Agilent
Retention time: 4.656 min
Precursor m/z: 224.0706
Precursor type: [M+H]+
m/z	relative intensity
51.0272	51
65.0415	25
74.0195	35
75.0262	140
76.0339	38
77.0414	274
78.0484	22
87.0246	22
88.0312	31
89.0405	127
90.0472	31
91.0556	25
98.0159	28
99.0254	60
100.0314	25
101.0399	140
102.0472	98
113.0393	124
114.047	54
115.0539	236
116.0493	38
117.0569	22
125.0385	114
126.0466	255
127.0523	130
128.0495	159
137.0397	19
138.045	51
139.0546	999
140.0502	660
141.0633	25
149.0407	44
150.0462	472
151.0548	781
152.0619	548
153.0576	67
154.0656	15
164.0493	54
165.058	35
166.0656	778
167.0736	405
175.0411	15
176.048	35
177.0585	261
178.0652	322
179.0726	60
