Mass spectrum: Diatrizoate; LC-ESI-QTOF; MS2; 110 V
Name: Diatrizoate
Class: Pharmaceutical
Formula: C11H9I3N2O4
Exact mass: 613.7697
SMILES: C/C(=N\c1c(c(c(c(c1I)C(=O)O)I)/N=C(/O)\C)I)/O
InChI: InChI=1S/C11H9I3N2O4/c1-3(17)15-9-6(12)5(11(19)20)7(13)10(8(9)14)16-4(2)18/h1-2H3,(H,15,17)(H,16,18)(H,19,20)
Instrument: TripleTOF 5600 SCIEX
Instrument type: LC-ESI-QTOF
Ms type: MS2
Ion mode: POSITIVE
Collision energy: 110
Fragmentation mode: CID
Ionization: ESI
Column name: Zorbax Eclipse Plus C18 2.1 mm x 150 mm, 3.5 um, Agilent
Retention time: 4.549 min
Precursor m/z: 614.7769
Precursor type: [M+H]+
m/z	relative intensity
78.0335	60
79.0431	97
90.0344	97
91.0431	121
92.0512	60
105.0214	48
105.0466	85
106.0292	146
106.0499	48
107.0375	158
117.0441	60
118.0274	48
118.0529	146
120.0441	292
120.0638	146
145.0434	194
146.0268	121
146.0481	377
147.0396	48
147.0556	121
148.0399	999
148.0638	328
159.0549	170
160.041	73
161.0701	109
165.0434	194
174.0471	73
187.051	255
188.0297	48
188.0577	48
189.067	97
192.0513	353
203.9336	109
205.0599	280
219.0444	97
231.9277	60
233.0559	438
