Mass spectrum: 2-(2-Methoxyphenyl)-1H-Benzimidazole; LC-ESI-QTOF; MS2; 70 V
Name: 2-(2-Methoxyphenyl)-1H-Benzimidazole
Class: Pharmaceutical
Formula: C14H12N2O
Exact mass: 224.095
SMILES: COc1ccccc1c2[nH]c3ccccc3n2
InChI: InChI=1S/C14H12N2O/c1-17-13-9-5-2-6-10(13)14-15-11-7-3-4-8-12(11)16-14/h2-9H,1H3,(H,15,16)
Instrument: TripleTOF 5600 SCIEX
Instrument type: LC-ESI-QTOF
Ms type: MS2
Ion mode: POSITIVE
Collision energy: 70
Fragmentation mode: CID
Ionization: ESI
Column name: Zorbax Eclipse Plus C18 2.1 mm x 150 mm, 3.5 um, Agilent
Retention time: 6.225 min
Precursor m/z: 225.1022
Precursor type: [M+H]+
m/z	relative intensity
65.0443	222
76.0338	17
77.0427	194
78.0363	13
91.0434	24
92.0518	142
102.0393	52
103.043	116
104.0504	28
116.0502	12
118.0538	20
127.0547	89
128.0499	89
129.0566	108
130.0649	13
131.0604	42
132.0679	17
140.0504	11
142.0528	12
143.061	186
153.0578	21
154.0657	152
155.0611	177
156.0688	261
167.0592	15
168.0681	18
169.076	25
179.0609	63
180.0683	135
181.0769	999
182.0837	59
