Mass spectrum: Alizarin; LC-ESI-QTOF; MS2; 70 V
Name: Alizarin
Formula: C14H8O4
Exact mass: 240.0423
SMILES: C1=CC=C2C(=C1)C(=O)C3=C(C2=O)C(=C(C=C3)O)O
InChI: InChI=1S/C14H8O4/c15-10-6-5-9-11(14(10)18)13(17)8-4-2-1-3-7(8)12(9)16/h1-6,15,18H
Instrument: TripleTOF X500R SCIEX
Instrument type: LC-ESI-QTOF
Ms type: MS2
Ion mode: POSITIVE
Collision energy: 70
Fragmentation mode: CID
Ionization: ESI
Column name: Zorbax Eclipse Plus C18 2.1 mm x 150 mm, 3.5 um, Agilent
Retention time: 10.763 min
Precursor m/z: 241.0496
Precursor type: [M+H]+
m/z	relative intensity
51.0228	47
53.0381	26
55.0182	30
63.0238	26
77.0394	139
81.0333	26
89.0392	117
102.0473	69
113.0393	139
115.0556	52
126.0467	30
127.0549	239
128.0629	741
129.0714	34
137.0398	39
138.0481	87
139.055	999
157.0652	43
