Mass spectrum: 4,4-Chlorophenoxyphenol; LC-ESI-QTOF; MS2; 20 V
Name: 4,4-Chlorophenoxyphenol
Class: Herbicide
Formula: C12H9ClO2
Exact mass: 220.0291
SMILES: c1cc(ccc1O)Oc2ccc(cc2)Cl
InChI: InChI=1S/C12H9ClO2/c13-9-1-5-11(6-2-9)15-12-7-3-10(14)4-8-12/h1-8,14H
Instrument: TripleTOF 5600 SCIEX
Instrument type: LC-ESI-QTOF
Ms type: MS2
Ion mode: NEGATIVE
Collision energy: 20
Fragmentation mode: CID
Ionization: ESI
Column name: Zorbax Eclipse Plus C18 2.1 mm x 150 mm, 3.5 um, Agilent
Retention time: 12.354 min
Precursor m/z: 219.0218
Precursor type: [M-H]-
m/z	relative intensity
108.0217	712
108.0358	88
163.0318	95
191.0268	457
218.0142	156
219.0215	999
219.0414	124
220.0237	117
