Mass spectrum: Metaflumizone; LC-ESI-QTOF; MS2; 60 V
Name: Metaflumizone
Class: Insecticide; Pharmaceutical
Formula: C24H16F6N4O2
Exact mass: 506.1177
SMILES: C1=CC(=CC(=C1)C(F)(F)F)C(=NNC(=O)NC2=CC=C(C=C2)OC(F)(F)F)CC3=CC=C(C=C3)C#N
InChI: InChI=1S/C24H16F6N4O2/c25-23(26,27)18-3-1-2-17(13-18)21(12-15-4-6-16(14-31)7-5-15)33-34-22(35)32-19-8-10-20(11-9-19)36-24(28,29)30/h1-11,13H,12H2,(H2,32,34,35)
Instrument: TripleTOF 6600 SCIEX
Instrument type: LC-ESI-QTOF
Ms type: MS2
Ion mode: POSITIVE
Collision energy: 60
Fragmentation mode: CID
Ionization: ESI
Column name: Zorbax Eclipse Plus C18 2.1 mm x 150 mm, 3.5 um, Agilent
Retention time: 15.496 min
Precursor m/z: 507.125
Precursor type: [M+H]+
m/z	relative intensity
63.0228	17
65.0384	40
89.0384	117
92.0494	181
93.035	14
93.0569	90
108.0444	29
116.0495	860
128.0489	20
141.0439	14
142.0525	26
151.0345	17
159.0413	27
164.0303	23
171.0415	23
172.0365	36
174.0522	18
176.0308	62
177.0395	39
178.0476	999
190.065	90
191.0721	86
200.0539	30
203.073	32
204.0259	14
204.0815	24
213.0503	12
216.0665	15
217.0756	33
218.0838	692
219.0442	21
219.0908	22
220.0557	134
221.0537	43
227.0601	17
233.0559	47
234.0693	15
239.0542	43
240.0619	249
246.0585	21
247.0667	710
248.0678	22
252.0613	14
258.0536	20
260.0679	76
266.0639	21
267.0731	968
270.0508	13
271.0603	12
272.0686	12
273.0693	80
286.0712	100
287.0799	505
288.0864	87
330.0834	15
