Mass spectrum: Alachlor; LC-ESI-QTOF; MS2; 20 V
Name: Alachlor
Class: Herbicide
Formula: C14H20ClNO2
Exact mass: 269.1183
SMILES: CCC1=C(C(=CC=C1)CC)N(COC)C(=O)CCl
InChI: InChI=1S/C14H20ClNO2/c1-4-11-7-6-8-12(5-2)14(11)16(10-18-3)13(17)9-15/h6-8H,4-5,9-10H2,1-3H3
Instrument: TripleTOF 6600 SCIEX
Instrument type: LC-ESI-QTOF
Ms type: MS2
Ion mode: POSITIVE
Collision energy: 20
Fragmentation mode: CID
Ionization: ESI
Column name: Zorbax Eclipse Plus C18 2.1 mm x 150 mm, 3.5 um, Agilent
Retention time: 13.233 min
Precursor m/z: 270.1255
Precursor type: [M+H]+
m/z	relative intensity
45.0328	44
59.048	82
90.0079	46
131.0826	14
133.0877	11
145.0994	18
146.0949	15
147.1023	10
148.11	314
149.0932	17
160.1095	11
162.1261	277
163.11	49
194.0687	22
206.0722	31
208.0878	42
210.0651	22
220.0865	67
224.0823	608
238.0983	999
240.1124	15
270.122	49
