Mass spectrum: Mitomycin A; LC-ESI-QTOF; MS2; 90 V
Name: Mitomycin A
Class: Pharmaceutical
Formula: C16H19N3O6
Exact mass: 349.1274
SMILES: COC1=C(C)C(=O)C2=C([C@H](COC(N)=O)[C@]3(OC)[C@@H]4N[C@@H]4CN23)C1=O
InChI: InChI=1S/C16H19N3O6/c1-6-11(20)10-9(12(21)13(6)23-2)7(5-25-15(17)22)16(24-3)14-8(18-14)4-19(10)16/h7-8,14,18H,4-5H2,1-3H3,(H2,17,22)/t7-,8+,14+,16-/m0/s1
Instrument: TripleTOF 5600 SCIEX
Instrument type: LC-ESI-QTOF
Ms type: MS2
Ion mode: POSITIVE
Collision energy: 90
Fragmentation mode: CID
Ionization: ESI
Column name: Zorbax Eclipse Plus C18 2.1 mm x 150 mm, 3.5 um, Agilent
Retention time: 7.046 min
Precursor m/z: 350.1347
Precursor type: [M+H]+
m/z	relative intensity
61.0214	38
65.0422	126
75.0298	38
76.0355	77
77.0406	756
77.0635	38
78.0378	242
79.0545	77
80.0518	87
89.0398	368
89.0568	58
90.0468	145
91.0549	339
91.0791	58
92.0497	106
93.0589	48
101.0385	87
102.0338	48
102.0458	135
102.0682	58
103.0406	67
103.0547	426
104.0137	58
104.0485	727
105.0438	48
105.055	77
105.0708	38
106.0643	67
113.0388	38
114.0463	164
115.04	96
115.0534	688
116.0491	446
117.0562	620
118.0512	87
118.0649	349
120.0448	87
127.0547	242
128.0507	387
129.0427	77
129.0579	193
130.0645	814
131.06	620
132.0458	77
132.0708	174
133.047	48
134.0581	58
139.0536	48
140.0495	213
141.0557	261
142.06	581
143.0597	184
143.0702	106
144.0441	96
144.0797	145
145.0737	96
146.0592	135
147.0516	48
152.0503	38
154.0634	135
155.0608	960
155.0914	38
156.0665	999
156.1004	58
157.0758	892
158.0603	67
159.0559	145
160.0396	58
160.0754	67
166.0605	38
167.0599	116
168.0687	310
169.0754	853
170.0617	67
170.0834	164
171.0574	87
171.0905	96
172.0712	38
174.0544	38
179.0566	58
181.0751	320
182.0825	38
183.0558	96
183.0924	48
184.0611	106
185.0685	155
186.0539	48
197.069	252
198.0791	87
199.086	174
200.0703	58
211.0478	67
212.062	58
213.0642	77
215.08	48
225.0652	77
226.0701	67
227.0791	213
227.1078	58
