Mass spectrum: Ipconazole; LC-ESI-QTOF; MS2; 120 V
Name: Ipconazole
Class: Fungicide
Formula: C18H24ClN3O
Exact mass: 333.1608
SMILES: CC(C)C1CCC(C1(CN2C=NC=N2)O)CC3=CC=C(C=C3)Cl
InChI: InChI=1S/C18H24ClN3O/c1-13(2)17-8-5-15(9-14-3-6-16(19)7-4-14)18(17,23)10-22-12-20-11-21-22/h3-4,6-7,11-13,15,17,23H,5,8-10H2,1-2H3
Instrument: TripleTOF 6600 SCIEX
Instrument type: LC-ESI-QTOF
Ms type: MS2
Ion mode: POSITIVE
Collision energy: 120
Fragmentation mode: CID
Ionization: ESI
Column name: Zorbax Eclipse Plus C18 2.1 mm x 150 mm, 3.5 um, Agilent
Retention time: 13.862 min
Precursor m/z: 334.1681
Precursor type: [M+H]+
m/z	relative intensity
39.0228	30
42.0206	22
43.0291	417
48.9836	17
51.0226	17
61.0065	19
62.0145	41
63.0224	139
64.0297	13
65.0377	19
70.0396	999
72.9829	99
74.9996	17
77.0374	28
89.0381	278
90.0457	50
98.9986	95
115.0532	83
125.0136	39
127.0531	17
128.0601	37
141.0666	11
