Mass spectrum: Acid Red 1; LC-ESI-QTOF; MS2; 100 V
Name: Acid Red 1
Class: Industrial_process; Personal_care_product; Pigment; Food_additive
Formula: C18H15N3O8S2
Exact mass: 465.0301
SMILES: CC(NC1=C2C(C=C(S(=O)(O)=O)/C(C2=O)=N\NC3=CC=CC=C3)=CC(S(=O)(O)=O)=C1)=O
InChI: InChI=1S/C18H15N3O8S2/c1-10(22)19-14-9-13(30(24,25)26)7-11-8-15(31(27,28)29)17(18(23)16(11)14)21-20-12-5-3-2-4-6-12/h2-9,20H,1H3,(H,19,22)(H,24,25,26)(H,27,28,29)/b21-17+
Instrument: TripleTOF 5600 SCIEX
Instrument type: LC-ESI-QTOF
Ms type: MS2
Ion mode: NEGATIVE
Collision energy: 100
Fragmentation mode: CID
Ionization: ESI
Column name: Zorbax Eclipse Plus C18 2.1 mm x 150 mm, 3.5 um, Agilent
Retention time: 7.21 min
Precursor m/z: 464.0228
Precursor type: [M-H]-
m/z	relative intensity
66.0059	187
79.9579	999
79.9691	62
79.9838	62
80.9647	374
88.0182	62
101.0375	249
114.0214	187
114.0343	187
117.0326	124
128.0488	249
129.0351	312
142.018	249
143.0232	561
144.0474	124
156.0405	374
157.0381	561
157.0509	187
158.0223	124
160.0425	62
172.0419	124
185.0332	561
197.0501	312
200.0364	249
263.9925	124
