Mass spectrum: Olmesartan; LC-ESI-QTOF; MS2; 120 V
Name: Olmesartan
Class: Pharmaceutical
Formula: C24H26N6O3
Exact mass: 446.2066
SMILES: CCCc1nc(c(n1Cc2ccc(cc2)c3ccccc3c4n[nH]nn4)C(O)=O)C(C)(C)O
InChI: InChI=1S/C24H26N6O3/c1-4-7-19-25-21(24(2,3)33)20(23(31)32)30(19)14-15-10-12-16(13-11-15)17-8-5-6-9-18(17)22-26-28-29-27-22/h5-6,8-13,33H,4,7,14H2,1-3H3,(H,31,32)(H,26,27,28,29)
Instrument: TripleTOF 5600 SCIEX
Instrument type: LC-ESI-QTOF
Ms type: MS2
Ion mode: NEGATIVE
Collision energy: 120
Fragmentation mode: CID
Ionization: ESI
Column name: Zorbax Eclipse Plus C18 2.1 mm x 150 mm, 3.5 um, Agilent
Retention time: 7.356 min
Precursor m/z: 445.1994
Precursor type: [M-H]-
m/z	relative intensity
40.0211	48
42.0124	81
80.0374	357
109.0749	178
120.0687	999
122.0483	121
133.0764	146
149.1073	682
190.0638	89
