Mass spectrum: Bixafen; LC-ESI-QTOF; MS2; 140 V
Name: Bixafen
Class: Fungicide
Formula: C18H12Cl2F3N3O
Exact mass: 413.031
SMILES: CN1C=C(C(=N1)C(F)F)C(=O)NC2=C(C=C(C=C2)F)C3=CC(=C(C=C3)Cl)Cl
InChI: InChI=1S/C18H12Cl2F3N3O/c1-26-8-12(16(25-26)17(22)23)18(27)24-15-5-3-10(21)7-11(15)9-2-4-13(19)14(20)6-9/h2-8,17H,1H3,(H,24,27)
Instrument: TripleTOF 6600 SCIEX
Instrument type: LC-ESI-QTOF
Ms type: MS2
Ion mode: POSITIVE
Collision energy: 140
Fragmentation mode: CID
Ionization: ESI
Column name: Zorbax Eclipse Plus C18 2.1 mm x 150 mm, 3.5 um, Agilent
Retention time: 13.359 min
Precursor m/z: 414.0382
Precursor type: [M+H]+
m/z	relative intensity
38.0159	12
42.0328	49
43.029	14
50.0145	9
51.0036	12
51.0227	14
57.0135	27
61.0067	17
63.023	12
68.006	17
69.0134	12
73.0074	19
74.0143	128
75.0222	143
77.0368	12
81.0134	34
85.0064	34
86.0141	34
87.0211	29
88.0166	22
92.0057	19
93.0134	17
94.021	49
95.0283	27
97.007	34
98.0141	257
99.0223	327
100.0172	32
105.0125	47
106.0206	29
107.0278	27
109.0064	24
110.0145	61
111.0114	12
111.0241	27
112.0183	14
113.0398	17
116.0032	14
117.0125	39
118.0196	49
119.0278	14
119.9975	29
120.0346	17
121.0066	47
122.0142	327
123.0213	535
124.0171	94
125.0364	24
129.0132	39
131.0287	54
131.9968	12
132.0219	22
133.003	12
134.0131	42
135.0085	17
136.018	22
137.0372	17
138.0304	14
140.0045	14
141.0111	71
142.0189	64
143.0278	101
144.0366	52
145.0299	19
146.0151	176
146.0397	9
147.0194	235
148.0164	190
149.0371	369
150.041	91
153.013	14
153.9953	9
154.0184	17
155.0272	64
156.0258	52
157.041	17
158.0393	27
160.0269	17
161.0371	66
162.0348	24
163.0436	22
164.0465	14
165.0159	14
166.02	81
167.0277	317
168.0361	999
169.0427	374
170.0411	59
171.0101	19
172.0195	39
173.0375	59
174.0332	205
175.042	136
176.0506	34
177.0462	24
177.9958	14
178.0194	24
179.0278	210
180.0359	168
181.0433	210
182.0401	91
183.033	14
184.0051	22
185.0381	76
186.032	118
187.0424	86
188.0461	66
189.0466	12
191.028	12
192.0228	14
192.0349	66
193.0323	344
194.0384	128
195.0464	223
196.0548	34
197.0444	32
198.0393	52
199.0436	111
200.0503	66
201.0555	39
201.9967	32
202.0368	17
203.0247	66
204.0324	180
205.0433	456
206.0393	456
207.043	81
208.054	52
211.0403	37
212.0486	99
213.0456	76
214.0523	12
215.0124	12
216.0336	29
217.0377	66
218.0489	106
219.047	121
220.0539	69
221.0717	17
222.0444	44
224.0507	52
225.0543	52
226.0621	54
227.0681	19
228.0236	17
228.0574	12
229.0044	39
229.0264	24
229.0396	12
230.0373	171
231.0439	148
232.0542	123
233.0507	86
234.0138	9
241.0085	17
243.0449	34
244.0548	79
245.0619	66
246.063	22
247.0645	17
258.0551	9
259.0549	12
