Mass spectrum: (2-Carboxyethyl)triphenylphosphonium; LC-ESI-QTOF; MS2; 150 V
Name: (2-Carboxyethyl)triphenylphosphonium
Formula: [C21H20O2P]+
Exact mass: 335.1195
SMILES: C1=CC=C(C=C1)[P+](CCC(=O)O)(C2=CC=CC=C2)C3=CC=CC=C3
InChI: InChI=1S/C21H19O2P/c22-21(23)16-17-24(18-10-4-1-5-11-18,19-12-6-2-7-13-19)20-14-8-3-9-15-20/h1-15H,16-17H2/p+1
Instrument: TripleTOF 5600 SCIEX
Instrument type: LC-ESI-QTOF
Ms type: MS2
Ion mode: POSITIVE
Collision energy: 150
Fragmentation mode: CID
Ionization: ESI
Column name: Zorbax Eclipse Plus C18 2.1 mm x 150 mm, 3.5 um, Agilent
Retention time: 6.754 min
Precursor m/z: 335.1195
Precursor type: [M]+
m/z	relative intensity
56.9886	103
63.0228	221
65.0385	100
74.0144	93
76.0297	83
77.0374	83
78.972	61
79.9799	259
80.988	353
87.0213	115
89.0369	362
102.045	160
107.0034	999
113.0373	122
115.0534	309
126.0452	379
131.0041	126
139.0535	236
150.0457	407
151.0537	626
152.0615	555
155.0047	53
156.0117	106
157.0203	343
179.0052	86
180.0116	134
181.0202	475
224.0627	83
