Mass spectrum: Indoxacarb; LC-ESI-QTOF; MS2; 90 V
Name: Indoxacarb
Class: Insecticide
Formula: C22H17ClF3N3O7
Exact mass: 527.0707
SMILES: COC(=O)[C@]12Cc3cc(ccc3C1=NN(CO2)C(=O)N(c4ccc(cc4)OC(F)(F)F)C(=O)OC)Cl
InChI: InChI=1S/C22H17ClF3N3O7/c1-33-18(30)21-10-12-9-13(23)3-8-16(12)17(21)27-28(11-35-21)19(31)29(20(32)34-2)14-4-6-15(7-5-14)36-22(24,25)26/h3-9H,10-11H2,1-2H3/t21-/m0/s1
Instrument: TripleTOF 5600 SCIEX
Instrument type: LC-ESI-QTOF
Ms type: MS2
Ion mode: POSITIVE
Collision energy: 90
Fragmentation mode: CID
Ionization: ESI
Column name: Zorbax Eclipse Plus C18 2.1 mm x 150 mm, 3.5 um, Agilent
Retention time: 15.019 min
Precursor m/z: 528.078
Precursor type: [M+H]+
m/z	relative intensity
56.0198	95
59.0186	30
68.9989	55
75.0267	17
77.0419	101
78.0377	67
89.0405	20
90.0357	26
95.0297	15
99.0234	40
100.0207	22
101.0396	25
102.0469	29
104.05	73
106.0301	250
113.0389	42
114.0367	92
115.0544	163
116.0624	57
123.0002	173
124.0064	32
126.0359	160
127.0432	272
128.0618	128
132.0443	32
134.0244	874
134.9994	41
136.0069	61
137.0157	30
140.0488	22
141.0548	31
142.065	58
146.9992	35
147.0285	18
148.0064	70
149.0154	179
150.0109	745
151.0172	14
152.0021	109
153.0457	10
154.0406	58
155.0597	43
157.0284	29
161.0028	61
162.0116	435
163.018	42
164.0041	32
164.0245	32
165.033	11
167.0252	67
175.0229	115
176.0207	71
177.0332	31
179.0259	34
189.0213	42
190.0038	12
190.0457	39
195.0206	11
203.0189	999
204.0077	36
