Mass spectrum: Dipyridamole; LC-ESI-QTOF; MS2; 100 V
Name: Dipyridamole
Class: Pharmaceutical
Formula: C24H40N8O4
Exact mass: 504.3173
SMILES: OCCN(CCO)c1nc(N2CCCCC2)c3nc(nc(N4CCCCC4)c3n1)N(CCO)CCO
InChI: InChI=1S/C24H40N8O4/c33-15-11-31(12-16-34)23-26-20-19(21(27-23)29-7-3-1-4-8-29)25-24(32(13-17-35)14-18-36)28-22(20)30-9-5-2-6-10-30/h33-36H,1-18H2
Instrument: TripleTOF 5600 SCIEX
Instrument type: LC-ESI-QTOF
Ms type: MS2
Ion mode: POSITIVE
Collision energy: 100
Fragmentation mode: CID
Ionization: ESI
Column name: Zorbax Eclipse Plus C18 2.1 mm x 150 mm, 3.5 um, Agilent
Retention time: 7.666 min
Precursor m/z: 505.3245
Precursor type: [M+H]+
m/z	relative intensity
69.0757	87
70.0678	109
82.0679	54
84.082	230
86.1015	76
87.0588	54
94.0422	54
96.0571	65
105.0463	65
106.0402	109
108.0549	87
114.054	87
116.0479	54
118.0535	54
119.035	76
120.0537	98
121.0515	120
122.0712	65
123.0675	43
130.0397	98
131.0428	54
131.0566	43
132.0538	98
133.0505	252
134.0504	186
134.0726	54
135.0526	76
135.067	142
135.087	87
144.0553	109
145.0504	153
146.0548	274
147.0647	109
148.0611	263
149.0707	87
157.0503	98
158.0466	87
158.0629	120
159.0675	285
160.0618	494
160.0865	65
161.0584	395
162.0759	340
163.0692	87
163.0927	65
165.0862	54
170.0477	54
170.0704	76
171.0654	153
172.0623	263
173.0585	120
173.0759	307
174.0761	461
175.0728	581
175.0959	197
176.0774	164
177.0881	175
178.0796	131
183.0672	65
184.0618	164
184.0867	43
185.0581	142
185.0777	153
186.0784	428
187.0735	889
188.075	186
188.0915	384
189.0885	658
190.071	54
190.0907	428
191.0923	219
192.0929	98
197.0613	76
198.0779	153
199.0726	318
199.0957	54
200.0846	691
201.0878	834
202.0855	999
202.1156	54
203.1018	318
204.0971	581
205.0985	241
206.1067	120
208.0634	43
210.0786	120
211.0684	54
211.0868	164
212.0907	351
213.0904	504
213.1167	65
214.0873	395
214.107	164
215.1022	735
216.0992	812
216.1234	153
217.0927	395
217.119	109
218.1103	241
218.1341	54
219.1049	175
219.1237	98
220.126	54
221.1148	98
224.0757	65
224.0931	131
225.0887	241
226.0804	87
226.1008	263
227.0704	54
227.1042	570
228.1004	625
228.1272	153
229.0975	263
229.1161	285
230.1143	658
230.1345	87
231.1065	494
232.1257	142
233.1157	219
234.1113	98
236.1074	54
237.088	54
238.0901	76
238.1112	54
239.1074	230
240.1014	230
241.0978	109
241.1198	362
242.116	647
243.1126	351
243.1337	274
244.1039	76
244.131	241
245.1202	285
245.1496	87
246.1106	175
246.1387	43
247.1284	164
248.1236	164
248.1419	43
249.1254	54
250.1204	43
251.1062	54
252.1092	54
252.1194	54
253.0961	43
253.1208	153
254.1157	263
255.1118	230
255.1336	252
256.131	329
256.154	54
257.1152	120
257.1283	76
257.1496	164
258.114	87
258.1451	230
259.1327	208
259.1654	76
260.1231	98
260.1495	76
261.1194	76
261.1451	98
262.1449	54
263.1348	65
265.1191	54
266.113	98
267.1141	87
267.1356	120
268.1325	186
269.1273	142
269.1505	76
270.1118	54
270.1461	252
271.1396	263
272.1301	186
272.1618	153
273.1427	153
273.1592	54
274.1446	131
275.1369	65
275.1606	109
279.1351	43
280.1347	153
281.1491	54
282.1419	76
282.1654	76
283.1357	76
284.128	98
284.161	318
285.1282	43
285.1598	142
286.1469	65
286.1791	65
287.1424	120
288.1587	131
289.1465	76
289.1743	54
295.1347	43
296.1648	153
297.1474	87
297.1736	54
298.1414	98
298.1786	109
299.1329	65
299.1663	208
300.153	65
300.1678	43
300.1863	43
301.1827	142
302.1746	274
303.186	65
309.153	43
310.1783	54
311.1663	164
313.1513	76
314.1753	164
315.1763	98
316.189	142
323.1717	131
324.1977	76
325.1899	142
326.1724	120
327.1742	131
327.2113	65
328.1908	175
329.1823	186
330.2046	65
331.1973	65
337.186	98
339.1961	54
341.184	120
342.2033	43
343.2029	120
353.2185	65
355.2033	142
357.2219	131
369.2151	54
373.2059	54
385.2116	54
385.2477	43
399.2552	87
