Mass spectrum: Ipconazole; LC-ESI-QTOF; MS2; 70 V
Name: Ipconazole
Class: Fungicide
Formula: C18H24ClN3O
Exact mass: 333.1608
InChI: InChI=1S/C18H24ClN3O/c1-13(2)17-8-5-15(9-14-3-6-16(19)7-4-14)18(17,23)10-22-12-20-11-21-22/h3-4,6-7,11-13,15,17,23H,5,8-10H2,1-2H3
Instrument: TripleTOF 6600 SCIEX
Instrument type: LC-ESI-QTOF
Ms type: CID
Ion mode: POSITIVE
Collision energy: 70
Ionization: ESI
Column name: Zorbax Eclipse Plus C18 2.1 mm x 150 mm, 3.5 um, Agilent
Retention time: 13.862 min
Precursor m/z: 334.1681
Precursor type: [M+H]+
m/z	relative intensity
43.029	29
70.0399	999
89.0377	36
98.9985	19
125.0144	188
128.0615	11
