Mass spectrum: Beclomethasone; LC-ESI-QTOF; MS2; 60 V
Name: Beclomethasone
Class: Pharmaceutical
Formula: C22H29ClO5
Exact mass: 408.1704
SMILES: CC1CC2C3CCC4=CC(=O)C=CC4(C3(C(CC2(C1(C(=O)CO)O)C)O)Cl)C
InChI: InChI=1S/C22H29ClO5/c1-12-8-16-15-5-4-13-9-14(25)6-7-19(13,2)21(15,23)17(26)10-20(16,3)22(12,28)18(27)11-24/h6-7,9,12,15-17,24,26,28H,4-5,8,10-11H2,1-3H3
Instrument: TripleTOF 5600 SCIEX
Instrument type: LC-ESI-QTOF
Ms type: MS2
Ion mode: POSITIVE
Collision energy: 60
Fragmentation mode: CID
Ionization: ESI
Column name: Zorbax Eclipse Plus C18 2.1 mm x 150 mm, 3.5 um, Agilent
Retention time: 9.326 min
Precursor m/z: 409.1776
Precursor type: [M+H]+
m/z	relative intensity
77.0385	124
91.0541	593
93.0705	187
95.0838	156
105.0709	374
107.0839	187
115.0527	156
117.0714	187
119.0856	374
121.0655	999
128.0635	312
131.0821	156
133.1027	156
135.0799	280
141.0678	280
142.079	280
143.0867	218
145.0666	312
147.0805	655
153.0719	156
158.0747	187
159.0847	187
161.0959	187
165.0699	187
171.0808	437
173.097	405
178.0787	218
179.0832	280
181.0666	156
185.0921	280
190.0772	156
191.0854	218
193.1046	187
194.0753	187
195.0812	405
196.0896	187
197.0959	343
202.0801	124
204.0957	156
205.1053	187
207.0828	218
208.086	156
209.0954	593
210.1058	187
215.0931	124
216.0952	187
217.1029	156
218.072	187
219.0838	312
221.0945	187
221.1038	124
222.1034	405
223.1149	218
224.1232	187
228.0944	124
230.1026	156
231.1085	218
233.0918	437
234.1022	249
235.1139	218
237.1321	187
246.1043	343
247.1152	312
248.1232	499
249.1302	249
259.1131	187
261.1294	218
262.1341	187
263.1455	468
264.1505	156
