Mass spectrum: Ofloxacin; LC-ESI-QTOF; MS2; 130 V
Name: Ofloxacin
Class: Antimicrobial; Pharmaceutical
Formula: C18H20FN3O4
Exact mass: 361.1438
SMILES: CC1COC2=C3N1C=C(C(=O)C3=CC(=C2N4CCN(CC4)C)F)C(=O)O
InChI: InChI=1S/C18H20FN3O4/c1-10-9-26-17-14-11(16(23)12(18(24)25)8-22(10)14)7-13(19)15(17)21-5-3-20(2)4-6-21/h7-8,10H,3-6,9H2,1-2H3,(H,24,25)
Instrument: TripleTOF 5600 SCIEX
Instrument type: LC-ESI-QTOF
Ms type: MS2
Ion mode: POSITIVE
Collision energy: 130
Fragmentation mode: CID
Ionization: ESI
Column name: Zorbax Eclipse Plus C18 2.1 mm x 150 mm, 3.5 um, Agilent
Retention time: 5.185 min
Precursor m/z: 362.1511
Precursor type: [M+H]+
m/z	relative intensity
42.0488	190
51.0329	88
56.0579	73
57.021	117
58.0737	58
70.0273	117
73.0133	73
74.0202	572
75.0153	117
75.0282	999
76.0223	308
77.0435	235
78.0393	117
81.0182	264
82.0234	58
83.0334	205
86.0198	73
87.0258	88
88.0211	88
88.0342	58
89.0413	220
90.0367	102
93.0152	190
94.023	249
95.0316	411
96.0303	279
97.0347	73
99.0168	220
100.019	470
101.0398	220
102.0372	279
103.0436	73
104.0514	176
107.029	484
108.0261	88
108.0384	132
109.0416	102
113.03	73
113.04	58
114.0352	235
115.0568	132
116.0532	73
117.051	117
119.0155	58
120.0281	161
120.0445	102
121.0342	117
122.041	440
123.0344	73
126.0354	102
127.0395	58
128.0488	117
129.0405	102
130.0295	88
132.0265	132
133.0456	190
134.038	161
135.0457	58
136.0227	58
140.0486	190
141.054	102
146.0422	88
147.0417	117
148.0567	73
152.0506	73
158.037	102
171.0465	58
