Mass spectrum: Warfarin; LC-ESI-QTOF; MS2; 40 V
Name: Warfarin
Class: Pesticide
Formula: C19H16O4
Exact mass: 308.1049
SMILES: CC(=O)CC(C1=CC=CC=C1)C2=C(C3=CC=CC=C3OC2=O)O
InChI: InChI=1S/C19H16O4/c1-12(20)11-15(13-7-3-2-4-8-13)17-18(21)14-9-5-6-10-16(14)23-19(17)22/h2-10,15,21H,11H2,1H3
Instrument: TripleTOF 6600 SCIEX
Instrument type: LC-ESI-QTOF
Ms type: MS2
Ion mode: POSITIVE
Collision energy: 40
Fragmentation mode: CID
Ionization: ESI
Column name: Zorbax Eclipse Plus C18 2.1 mm x 150 mm, 3.5 um, Agilent
Retention time: 11.631 min
Precursor m/z: 309.1122
Precursor type: [M+H]+
m/z	relative intensity
43.0177	108
65.0381	31
68.9963	10
77.0383	79
91.053	41
93.0329	41
95.0487	17
103.0534	38
121.0279	413
128.0601	18
129.0334	10
129.0681	58
131.0481	69
145.0269	10
147.0793	90
152.061	17
153.0686	21
155.085	210
157.0279	28
163.0384	855
165.0687	50
167.0842	76
171.0797	12
173.0226	419
177.0683	16
178.0762	60
179.0857	23
183.0801	192
189.0527	18
191.0338	15
195.079	20
205.0642	58
223.0745	143
233.0583	70
249.0569	17
251.0699	999
