Mass spectrum: Alpha-hydroxy-metoprolol; LC-ESI-QTOF; MS2; 100 V
Name: Alpha-hydroxy-metoprolol
Class: Pharmaceutical; Metabolite
Formula: C15H25NO4
Exact mass: 283.1784
SMILES: COCC(O)c1ccc(OCC(O)CNC(C)C)cc1
InChI: InChI=1S/C15H25NO4/c1-11(2)16-8-13(17)9-20-14-6-4-12(5-7-14)15(18)10-19-3/h4-7,11,13,15-18H,8-10H2,1-3H3
Instrument: TripleTOF 5600 SCIEX
Instrument type: LC-ESI-QTOF
Ms type: MS2
Ion mode: POSITIVE
Collision energy: 100
Fragmentation mode: CID
Ionization: ESI
Column name: Zorbax Eclipse Plus C18 2.1 mm x 150 mm, 3.5 um, Agilent
Retention time: 5.057 min
Precursor m/z: 284.1856
Precursor type: [M+H]+
m/z	relative intensity
43.0274	11
45.0404	43
56.0547	111
58.0693	45
65.0434	271
72.0856	17
74.0652	33
75.0262	17
76.0337	10
77.0419	999
78.0498	178
79.0562	95
89.0406	174
90.0478	43
91.0558	420
102.0473	36
103.0547	58
105.0333	117
105.0729	15
106.0418	24
107.0486	42
115.0536	75
118.0415	11
127.0543	21
128.0619	40
