Mass spectrum: Rifaximin; LC-ESI-QTOF; MS2; 60 V
Name: Rifaximin
Class: Pharmaceutical
Formula: C43H51N3O11
Exact mass: 785.3524
SMILES: CC1C=CC=C(C(=O)NC2=C(C3=C(C4=C(C(=C3O)C)OC(C4=O)(OC=CC(C(C(C(C(C(C1O)C)O)C)OC(=O)C)C)OC)C)C5=C2N6C=CC(=CC6=N5)C)O)C
InChI: InChI=1S/C43H51N3O11/c1-19-14-16-46-28(18-19)44-32-29-30-37(50)25(7)40-31(29)41(52)43(9,57-40)55-17-15-27(54-10)22(4)39(56-26(8)47)24(6)36(49)23(5)35(48)20(2)12-11-13-21(3)42(53)45-33(34(32)46)38(30)51/h11-18,20,22-24,27,35-36,39,48-51H,1-10H3,(H,45,53)
Instrument: TripleTOF 6600 SCIEX
Instrument type: LC-ESI-QTOF
Ms type: MS2
Ion mode: NEGATIVE
Collision energy: 60
Fragmentation mode: CID
Ionization: ESI
Column name: Zorbax Eclipse Plus C18 2.1 mm x 150 mm, 3.5 um, Agilent
Retention time: 11.765 min
Precursor m/z: 784.3451
Precursor type: [M-H]-
m/z	relative intensity
123.0787	23
306.0805	25
307.089	17
308.0983	35
332.0974	21
333.0734	28
333.1047	19
334.077	18
345.0799	15
346.0876	24
347.0982	463
359.0842	119
360.0935	999
361.1003	279
362.1086	142
373.1007	25
374.106	16
386.0719	61
387.0794	96
388.0854	72
402.0999	29
403.1101	14
404.1139	10
439.1529	10
440.188	21
441.124	22
452.1121	10
454.133	188
464.1524	13
466.1672	16
467.1419	16
468.1852	27
482.1637	406
483.1707	37
484.1774	38
510.1573	48
512.1724	91
516.2008	14
544.1972	27
568.2019	43
570.2146	36
604.2198	36
634.245	36
638.2752	32
648.2955	24
662.2624	17
692.2864	295
694.3007	27
724.3123	384
726.2894	27
752.3042	27
784.3328	291
