Mass spectrum: Iomeprol; LC-ESI-QTOF; MS2; 80 V
Name: Iomeprol
Class: Pharmaceutical
Formula: C17H22I3N3O8
Exact mass: 776.8541
SMILES: CN(C(=O)CO)c1c(I)c(C(=O)NCC(O)CO)c(I)c(C(=O)NCC(O)CO)c1I
InChI: InChI=1S/C17H22I3N3O8/c1-23(9(29)6-26)15-13(19)10(16(30)21-2-7(27)4-24)12(18)11(14(15)20)17(31)22-3-8(28)5-25/h7-8,24-28H,2-6H2,1H3,(H,21,30)(H,22,31)
Instrument: TripleTOF 5600 SCIEX
Instrument type: LC-ESI-QTOF
Ms type: MS2
Ion mode: POSITIVE
Collision energy: 80
Fragmentation mode: CID
Ionization: ESI
Column name: Zorbax Eclipse Plus C18 2.1 mm x 150 mm, 3.5 um, Agilent
Retention time: 4.596 min
Precursor m/z: 777.8614
Precursor type: [M+H]+
m/z	relative intensity
132.0417	12
136.04	10
147.03	10
160.0377	14
161.0449	34
162.0537	10
164.0334	10
175.0273	14
176.0308	19
177.0393	32
204.0276	10
206.041	12
217.0587	14
222.037	19
231.0735	14
245.9368	14
247.0685	10
257.9387	25
261.0792	14
273.9343	119
275.9517	21
277.0788	47
285.9356	10
287.9498	611
288.9568	10
290.9628	34
300.9457	14
301.9278	72
302.9583	14
303.9408	12
305.9612	36
313.9318	21
314.9586	14
330.9515	38
331.94	428
346.988	47
374.9819	63
386.9847	48
404.9935	999
413.8357	12
414.8568	32
558.8829	28
