Mass spectrum: Napropamide; LC-ESI-QTOF; MS2; 120 V
Name: Napropamide
Class: Herbicide
Formula: C17H21NO2
Exact mass: 271.1572
SMILES: CCN(CC)C(=O)C(C)Oc1cccc2c1cccc2
InChI: InChI=1S/C17H21NO2/c1-4-18(5-2)17(19)13(3)20-16-12-8-10-14-9-6-7-11-15(14)16/h6-13H,4-5H2,1-3H3
Instrument: TripleTOF 6600 SCIEX
Instrument type: LC-ESI-QTOF
Ms type: MS2
Ion mode: POSITIVE
Collision energy: 120
Fragmentation mode: CID
Ionization: ESI
Column name: Zorbax Eclipse Plus C18 2.1 mm x 150 mm, 3.5 um, Agilent
Retention time: 12.596 min
Precursor m/z: 272.1645
Precursor type: [M+H]+
m/z	relative intensity
30.034	96
38.0028	172
39.0232	288
42.0334	230
44.0133	499
44.0497	749
49.007	115
50.0151	499
51.0228	902
52.0321	134
53.0135	115
55.0181	153
58.0656	134
61.0072	115
62.0147	288
63.0229	633
65.0385	326
74.0148	653
75.023	633
76.0305	345
77.0384	730
78.0456	326
86.0143	134
87.0225	172
89.0388	633
91.0548	96
98.0147	134
101.0386	153
102.0464	595
115.0543	999
125.0396	153
126.0466	422
127.0545	288
128.0619	326
129.0446	76
150.0475	345
151.0554	326
152.0622	192
