Mass spectrum: Oxfendazole; LC-ESI-QTOF; MS2; 30 V
Name: Oxfendazole
Class: Pharmaceutical
Formula: C15H13N3O3S
Exact mass: 315.0678
SMILES: COC(=O)Nc1[nH]c2cc(ccc2n1)[S](=O)c3ccccc3
InChI: InChI=1S/C15H13N3O3S/c1-21-15(19)18-14-16-12-8-7-11(9-13(12)17-14)22(20)10-5-3-2-4-6-10/h2-9H,1H3,(H2,16,17,18,19)
Instrument: TripleTOF 5600 SCIEX
Instrument type: LC-ESI-QTOF
Ms type: MS2
Ion mode: POSITIVE
Collision energy: 30
Fragmentation mode: CID
Ionization: ESI
Column name: Zorbax Eclipse Plus C18 2.1 mm x 150 mm, 3.5 um, Agilent
Retention time: 6.579 min
Precursor m/z: 316.075
Precursor type: [M+H]+
m/z	relative intensity
131.0459	10
159.0428	766
175.0375	68
191.0696	999
207.0102	134
207.0634	40
239.0371	175
266.0397	26
267.0464	98
284.0504	863
299.0737	142
316.0771	346
