Mass spectrum: Sulfasalazine; LC-ESI-QTOF; MS2; 60 V
Name: Sulfasalazine
Class: Pharmaceutical
Formula: C18H14N4O5S
Exact mass: 398.0685
SMILES: C1=CC=NC(=C1)NS(=O)(=O)C2=CC=C(C=C2)NN=C3C=CC(=O)C(=C3)C(=O)O
InChI: InChI=1S/C18H14N4O5S/c23-16-9-6-13(11-15(16)18(24)25)21-20-12-4-7-14(8-5-12)28(26,27)22-17-3-1-2-10-19-17/h1-11,20H,(H,19,22)(H,24,25)
Instrument: TripleTOF 5600 SCIEX
Instrument type: LC-ESI-QTOF
Ms type: MS2
Ion mode: POSITIVE
Collision energy: 60
Fragmentation mode: CID
Ionization: ESI
Column name: Zorbax Eclipse Plus C18 2.1 mm x 150 mm, 3.5 um, Agilent
Retention time: 9.217 min
Precursor m/z: 399.0758
Precursor type: [M+H]+
m/z	relative intensity
63.0315	23
67.0488	206
76.0372	19
77.044	30
78.04	10
80.018	10
81.0391	64
91.0224	435
93.0487	23
94.0566	463
109.0307	24
119.0153	999
127.0565	24
128.0524	14
134.0273	18
137.025	199
139.0557	158
140.0514	38
147.0202	242
149.0387	10
155.0575	107
156.0449	11
156.0697	21
157.0051	11
157.0394	17
157.076	99
165.0299	85
166.0569	17
167.0604	35
168.0682	98
169.0764	93
170.0489	10
170.0833	27
171.0576	14
181.0656	18
183.0546	40
185.0351	51
185.0709	26
186.0521	13
195.0528	14
211.0515	14
213.0645	18
223.0504	81
224.062	15
231.0918	10
234.0473	15
239.0434	106
259.0897	13
