Mass spectrum: (Methoxymethyl)diphenylphosphine oxide; LC-ESI-QTOF; MS2; 130 V
Name: (Methoxymethyl)diphenylphosphine oxide
Class: Industrial_process
Formula: C14H15O2P
Exact mass: 246.081
SMILES: COC[P](=O)(c1ccccc1)c2ccccc2
InChI: InChI=1S/C14H15O2P/c1-16-12-17(15,13-8-4-2-5-9-13)14-10-6-3-7-11-14/h2-11H,12H2,1H3
Instrument: TripleTOF 5600 SCIEX
Instrument type: LC-ESI-QTOF
Ms type: MS2
Ion mode: POSITIVE
Collision energy: 130
Fragmentation mode: CID
Ionization: ESI
Column name: Zorbax Eclipse Plus C18 2.1 mm x 150 mm, 3.5 um, Agilent
Retention time: 8.67 min
Precursor m/z: 247.0882
Precursor type: [M+H]+
m/z	relative intensity
45.0443	999
50.0328	72
51.0314	434
55.9922	72
56.9952	202
65.0435	130
74.018	188
76.0341	101
76.0424	86
77.0411	86
77.0517	57
78.0516	72
78.9761	72
79.9846	376
80.9923	231
86.0162	86
87.0262	144
89.0435	173
91.9833	86
98.0182	86
102.9733	86
103.9816	101
107.0047	361
125.0383	72
126.0481	130
127.9802	57
150.0474	289
151.0546	144
155.0054	115
179.0021	72
180.0123	72
181.02	115
