Mass spectrum: N-Cyclohexyl-1,3-benzothiazol-2-amine; LC-ESI-QTOF; MS2; 150 V
Name: N-Cyclohexyl-1,3-benzothiazol-2-amine
Formula: C13H16N2S
Exact mass: 232.1034
SMILES: C1CCC(CC1)NC2=NC3=CC=CC=C3S2
InChI: InChI=1S/C13H16N2S/c1-2-6-10(7-3-1)14-13-15-11-8-4-5-9-12(11)16-13/h4-5,8-10H,1-3,6-7H2,(H,14,15)
Instrument: TripleTOF 6600 SCIEX
Instrument type: LC-ESI-QTOF
Ms type: MS2
Ion mode: POSITIVE
Collision energy: 150
Fragmentation mode: CID
Ionization: ESI
Column name: Zorbax Eclipse Plus C18 2.1 mm x 150 mm, 3.5 um, Agilent
Retention time: 9.082 min
Precursor m/z: 233.1107
Precursor type: [M+H]+
m/z	relative intensity
35.999	77
37.0069	566
38.0143	470
39.0226	999
41.0377	14
43.0283	25
43.9705	12
44.9783	55
49.0061	40
50.0143	151
51.022	117
52.0171	14
53.0123	16
53.0375	19
59.9888	48
61.0063	58
62.0139	106
63.0216	102
64.0168	34
65.0377	14
67.9702	78
68.9784	583
74.0136	20
80.9789	14
81.9857	13
92.9789	34
