Mass spectrum: 2-Methylquinoline; LC-ESI-QTOF; MS2; 30 V
Name: 2-Methylquinoline
Formula: C10H9N
Exact mass: 143.0735
SMILES: CC1=NC2=CC=CC=C2C=C1
InChI: InChI=1S/C10H9N/c1-8-6-7-9-4-2-3-5-10(9)11-8/h2-7H,1H3
Instrument: TripleTOF X500R SCIEX
Instrument type: LC-ESI-QTOF
Ms type: MS2
Ion mode: POSITIVE
Collision energy: 30
Fragmentation mode: CID
Ionization: ESI
Column name: Zorbax Eclipse Plus C18 2.1 mm x 150 mm, 3.5 um, Agilent
Retention time: 4.69 min
Precursor m/z: 144.0808
Precursor type: [M+H]+
m/z	relative intensity
77.039	69
91.055	11
101.0386	20
102.0464	19
103.0549	134
115.0552	41
117.0699	30
127.0549	42
128.0499	251
129.0568	20
142.0653	20
143.0734	177
144.0811	999
