Mass spectrum: Phenylbutazone; LC-ESI-QTOF; MS2; 120 V
Name: Phenylbutazone
Class: Pharmaceutical
Formula: C19H20N2O2
Exact mass: 308.1525
SMILES: CCCCC1C(=O)N(N(C1=O)C2=CC=CC=C2)C3=CC=CC=C3
InChI: InChI=1S/C19H20N2O2/c1-2-3-14-17-18(22)20(15-10-6-4-7-11-15)21(19(17)23)16-12-8-5-9-13-16/h4-13,17H,2-3,14H2,1H3
Instrument: TripleTOF 5600 SCIEX
Instrument type: LC-ESI-QTOF
Ms type: MS2
Ion mode: POSITIVE
Collision energy: 120
Fragmentation mode: CID
Ionization: ESI
Column name: Zorbax Eclipse Plus C18 2.1 mm x 150 mm, 3.5 um, Agilent
Retention time: 13.103 min
Precursor m/z: 309.1598
Precursor type: [M+H]+
m/z	relative intensity
55.0303	20
74.0217	24
75.0278	22
77.0455	999
78.049	40
79.0594	11
89.0439	51
90.0504	27
91.059	110
92.0525	58
93.0614	56
94.0692	42
102.0455	13
104.053	29
106.0719	13
113.0428	11
115.0559	31
117.0582	20
118.0679	31
127.0562	13
139.0547	22
140.051	15
166.0642	15
167.0781	13
181.0739	22
