Mass spectrum: Carbendazim; LC-ESI-QTOF; MS2; 70 V
Name: Carbendazim
Class: Fungicide; Metabolite; Pharmaceutical
Formula: C9H9N3O2
Exact mass: 191.0695
SMILES: COC(=O)Nc1[nH]c2ccccc2n1
InChI: InChI=1S/C9H9N3O2/c1-14-9(13)12-8-10-6-4-2-3-5-7(6)11-8/h2-5H,1H3,(H2,10,11,12,13)
Instrument: TripleTOF 5600 SCIEX
Instrument type: LC-ESI-QTOF
Ms type: MS2
Ion mode: POSITIVE
Collision energy: 70
Fragmentation mode: CID
Ionization: ESI
Column name: Zorbax Eclipse Plus C18 2.1 mm x 150 mm, 3.5 um, Agilent
Retention time: 5.075 min
Precursor m/z: 192.0768
Precursor type: [M+H]+
m/z	relative intensity
63.0423	30
65.0439	999
78.0367	416
79.0445	138
80.0525	57
90.0356	628
90.0653	19
91.0435	50
92.051	150
104.036	19
105.0459	860
106.0551	46
117.0449	46
118.0518	19
132.0553	111
133.0619	27
133.0756	19
