Mass spectrum: Parathion-methyl; LC-ESI-QTOF; MS2; 30 V
Name: Parathion-methyl
Class: Insecticide
Formula: C8H10NO5PS
Exact mass: 263.0017
SMILES: COP(=S)(OC)OC1=CC=C(C=C1)[N+](=O)[O-]
InChI: InChI=1S/C8H10NO5PS/c1-12-15(16,13-2)14-8-5-3-7(4-6-8)9(10)11/h3-6H,1-2H3
Instrument: TripleTOF 6600 SCIEX
Instrument type: LC-ESI-QTOF
Ms type: MS2
Ion mode: POSITIVE
Collision energy: 30
Fragmentation mode: CID
Ionization: ESI
Column name: Zorbax Eclipse Plus C18 2.1 mm x 150 mm, 3.5 um, Agilent
Retention time: 12.495 min
Precursor m/z: 264.009
Precursor type: [M+H]+
m/z	relative intensity
46.9937	27
62.0175	10
75.0213	30
78.9925	174
91.0525	11
92.024	46
93.0319	13
96.0012	20
108.0018	13
109.0035	313
122.0224	29
123.0289	61
123.9965	58
124.9807	999
127.0145	38
138.0017	11
139.0071	35
142.9906	22
150.0298	70
153.9612	70
153.9924	38
154.9701	123
155.9783	29
156.9869	11
168.9902	11
169.0158	23
170.9652	19
183.9752	11
184.9801	51
185.9883	246
199.9554	269
201.9836	17
214.9797	93
218.0161	48
231.981	787
249.9913	66
264.0115	17
