Mass spectrum: Celiprolol; LC-ESI-QTOF; MS2; 100 V
Name: Celiprolol
Class: Pharmaceutical
Formula: C20H33N3O4
Exact mass: 379.2471
SMILES: CCN(CC)C(=O)NC1=CC(=C(C=C1)OCC(CNC(C)(C)C)O)C(=O)C
InChI: InChI=1S/C20H33N3O4/c1-7-23(8-2)19(26)22-15-9-10-18(17(11-15)14(3)24)27-13-16(25)12-21-20(4,5)6/h9-11,16,21,25H,7-8,12-13H2,1-6H3,(H,22,26)
Instrument: TripleTOF 5600 SCIEX
Instrument type: LC-ESI-QTOF
Ms type: MS2
Ion mode: POSITIVE
Collision energy: 100
Fragmentation mode: CID
Ionization: ESI
Column name: Zorbax Eclipse Plus C18 2.1 mm x 150 mm, 3.5 um, Agilent
Retention time: 6.532 min
Precursor m/z: 380.2544
Precursor type: [M+H]+
m/z	relative intensity
43.0287	76
44.0218	400
44.0578	25
56.0555	999
57.0398	28
57.0759	249
58.0697	10
65.0426	152
72.0478	262
72.0635	17
72.0837	10
74.0632	412
74.0991	193
75.0278	10
77.0416	542
77.0694	10
78.0358	86
79.0577	25
80.0155	56
80.0498	20
81.0367	17
89.0403	50
90.0359	38
91.0565	56
92.0507	180
100.0756	30
101.038	12
102.0353	25
103.0551	117
104.0497	135
105.0327	56
105.0703	15
106.0288	43
106.0656	17
108.0452	30
115.0538	99
116.0491	50
117.0574	28
118.0648	12
120.0448	91
120.0813	17
127.0542	12
128.0479	43
130.0648	91
131.0467	15
132.0444	193
133.0529	25
146.0591	17
148.0386	117
162.0184	38
172.0378	25
186.0539	22
