Mass spectrum: Eprosartan; LC-ESI-QTOF; MS2; 70 V
Name: Eprosartan
Class: Pharmaceutical
Formula: C23H24N2O4S
Exact mass: 424.1457
SMILES: CCCCc1ncc(\C=C(/Cc2sccc2)C(O)=O)n1Cc3ccc(cc3)C(O)=O
InChI: InChI=1S/C23H24N2O4S/c1-2-3-6-21-24-14-19(12-18(23(28)29)13-20-5-4-11-30-20)25(21)15-16-7-9-17(10-8-16)22(26)27/h4-5,7-12,14H,2-3,6,13,15H2,1H3,(H,26,27)(H,28,29)/b18-12+
Instrument: TripleTOF 5600 SCIEX
Instrument type: LC-ESI-QTOF
Ms type: MS2
Ion mode: NEGATIVE
Collision energy: 70
Fragmentation mode: CID
Ionization: ESI
Column name: Zorbax Eclipse Plus C18 2.1 mm x 150 mm, 3.5 um, Agilent
Retention time: 6.955 min
Precursor m/z: 423.1384
Precursor type: [M-H]-
m/z	relative intensity
56.9821	124
77.0424	124
80.0338	124
82.9967	999
90.0487	124
91.055	62
93.0477	312
96.0054	249
97.0113	249
109.0118	124
116.0532	62
121.0283	124
123.0934	374
133.0732	62
148.0222	187
160.0212	62
167.0613	249
169.0752	62
180.0721	187
181.0793	62
193.0791	62
198.0527	62
200.0355	62
201.0482	374
215.067	499
245.1111	437
