Mass spectrum: 3-Cyclohexyl-1,1-dibenzylurea; LC-ESI-QTOF; MS2; 10 V
Name: 3-Cyclohexyl-1,1-dibenzylurea
Formula: C21H26N2O
Exact mass: 322.2045
SMILES: O=C(NC1CCCCC1)N(Cc2ccccc2)Cc3ccccc3
InChI: InChI=1S/C21H26N2O/c24-21(22-20-14-8-3-9-15-20)23(16-18-10-4-1-5-11-18)17-19-12-6-2-7-13-19/h1-2,4-7,10-13,20H,3,8-9,14-17H2,(H,22,24)
Instrument: TripleTOF 6600 SCIEX
Instrument type: LC-ESI-QTOF
Ms type: MS2
Ion mode: POSITIVE
Collision energy: 10
Fragmentation mode: CID
Ionization: ESI
Column name: Zorbax Eclipse Plus C18 2.1 mm x 150 mm, 3.5 um, Agilent
Retention time: 14.103 min
Precursor m/z: 323.2118
Precursor type: [M+H]+
m/z	relative intensity
323.2171	999
