Mass spectrum: 2-(3-Hydroxyquinolin-2-yl)indene-1,3-dione; LC-ESI-QTOF; MS2; 100 V
Name: 2-(3-Hydroxyquinolin-2-yl)indene-1,3-dione
Class: Industrial_process; Personal_care_product; Pigment
Formula: C18H11NO3
Exact mass: 289.0739
SMILES: C1=CC=C2C(=C1)C=C(C(=N2)C3C(=O)C4=CC=CC=C4C3=O)O
InChI: InChI=1S/C18H11NO3/c20-14-9-10-5-1-4-8-13(10)19-16(14)15-17(21)11-6-2-3-7-12(11)18(15)22/h1-9,15,20H
Instrument: TripleTOF 6600 SCIEX
Instrument type: LC-ESI-QTOF
Ms type: MS2
Ion mode: POSITIVE
Collision energy: 100
Fragmentation mode: CID
Ionization: ESI
Column name: Zorbax Eclipse Plus C18 2.1 mm x 150 mm, 3.5 um, Agilent
Retention time: 14.718 min
Precursor m/z: 290.0812
Precursor type: [M+H]+
m/z	relative intensity
39.0231	53
50.0157	146
51.0232	253
62.016	106
63.023	426
65.0393	106
75.0236	93
76.0304	53
77.0386	666
87.0234	93
89.0385	586
90.0449	53
98.0173	53
102.0467	66
103.0539	159
113.0396	146
115.0531	119
126.0451	66
128.0488	53
129.0469	66
130.0642	106
137.0381	119
139.0544	133
140.0496	213
149.0372	66
150.0447	199
151.0553	173
152.0605	119
161.0382	106
162.0467	253
163.0537	572
164.0491	253
165.0637	79
175.0555	66
176.0628	319
177.0567	93
178.0776	79
186.0466	199
187.055	999
188.0494	386
188.062	173
189.0662	412
190.0644	173
201.0618	79
202.0646	106
203.0743	186
204.0786	186
212.0492	306
213.0575	306
214.0646	639
215.0742	159
216.0806	79
