Mass spectrum: o-Aminoazotoluene; LC-ESI-QTOF; MS2; 30 V
Name: o-Aminoazotoluene
Formula: C14H15N3
Exact mass: 225.1266
SMILES: CC1=CC=CC=C1N=NC2=CC(=C(C=C2)N)C
InChI: InChI=1S/C14H15N3/c1-10-5-3-4-6-14(10)17-16-12-7-8-13(15)11(2)9-12/h3-9H,15H2,1-2H3
Instrument: TripleTOF X500R SCIEX
Instrument type: LC-ESI-QTOF
Ms type: MS2
Ion mode: POSITIVE
Collision energy: 30
Fragmentation mode: CID
Ionization: ESI
Column name: Zorbax Eclipse Plus C18 2.1 mm x 150 mm, 3.5 um, Agilent
Retention time: 13.733 min
Precursor m/z: 226.1339
Precursor type: [M+H]+
m/z	relative intensity
65.0386	28
79.0542	38
89.039	43
90.0466	23
91.0542	842
92.0496	15
93.0581	11
94.0655	45
106.0652	378
107.0728	999
108.0808	21
118.0532	19
119.0604	62
120.0805	78
121.076	518
133.0761	192
165.0711	20
166.077	11
167.0737	41
168.0749	19
180.0823	10
181.0812	26
182.0965	34
183.104	20
192.0807	12
193.0778	28
194.0844	102
195.0915	19
196.0866	16
207.0915	22
208.1001	61
209.1075	174
210.1029	47
211.1109	20
224.1187	44
226.1339	285
