Mass spectrum: Methacrylamidopropyltrimethylammonium; LC-ESI-QTOF; MS2; 150 V
Name: Methacrylamidopropyltrimethylammonium
Class: Industrial_process; Personal_care_product
Formula: [C10H21N2O]+
Exact mass: 185.1648
SMILES: CC(=C)C(=O)NCCC[N+](C)(C)C
InChI: InChI=1S/C10H20N2O/c1-9(2)10(13)11-7-6-8-12(3,4)5/h1,6-8H2,2-5H3/p+1
Instrument: TripleTOF 5600 SCIEX
Instrument type: LC-ESI-QTOF
Ms type: MS2
Ion mode: POSITIVE
Collision energy: 150
Fragmentation mode: CID
Ionization: ESI
Column name: Zorbax Eclipse Plus C18 2.1 mm x 150 mm, 3.5 um, Agilent
Retention time: 4.698 min
Precursor m/z: 185.1648
Precursor type: [M]+
m/z	relative intensity
36.0034	249
37.0097	749
38.0158	999
39.0224	999
