Mass spectrum: Tetraconazole; LC-ESI-QTOF; MS2; 130 V
Name: Tetraconazole
Class: Fungicide
Formula: C13H11Cl2F4N3O
Exact mass: 371.0215
SMILES: C1=CC(=C(C=C1Cl)Cl)C(CN2C=NC=N2)COC(C(F)F)(F)F
InChI: InChI=1S/C13H11Cl2F4N3O/c14-9-1-2-10(11(15)3-9)8(4-22-7-20-6-21-22)5-23-13(18,19)12(16)17/h1-3,6-8,12H,4-5H2
Instrument: TripleTOF 6600 SCIEX
Instrument type: LC-ESI-QTOF
Ms type: MS2
Ion mode: POSITIVE
Collision energy: 130
Fragmentation mode: CID
Ionization: ESI
Column name: Zorbax Eclipse Plus C18 2.1 mm x 150 mm, 3.5 um, Agilent
Retention time: 12.382 min
Precursor m/z: 372.0288
Precursor type: [M+H]+
m/z	relative intensity
39.0229	36
43.0287	80
46.9675	18
48.9833	25
51.0036	99
61.0063	46
62.0148	163
63.0226	345
65.0379	12
70.0396	108
72.9836	463
74.0145	20
75.0223	15
82.944	42
86.0144	22
87.0219	30
88.0297	68
89.0384	999
96.9832	99
98.9988	78
107.0285	17
113.0387	15
114.0452	15
115.0539	127
122.9988	97
124.007	15
132.9595	30
133.044	10
158.9747	12
