Mass spectrum: Haloxyfop-methyl; LC-ESI-QTOF; MS2; 80 V
Name: Haloxyfop-methyl
Class: Herbicide
Formula: C16H13ClF3NO4
Exact mass: 375.0485
SMILES: COC(=O)C(C)Oc1ccc(Oc2ncc(cc2Cl)C(F)(F)F)cc1
InChI: InChI=1S/C16H13ClF3NO4/c1-9(15(22)23-2)24-11-3-5-12(6-4-11)25-14-13(17)7-10(8-21-14)16(18,19)20/h3-9H,1-2H3
Instrument: TripleTOF 5600 SCIEX
Instrument type: LC-ESI-QTOF
Ms type: MS2
Ion mode: POSITIVE
Collision energy: 80
Fragmentation mode: CID
Ionization: ESI
Column name: Zorbax Eclipse Plus C18 2.1 mm x 150 mm, 3.5 um, Agilent
Retention time: 14.891 min
Precursor m/z: 376.0558
Precursor type: [M+H]+
m/z	relative intensity
65.0431	599
65.0534	99
74.0177	139
75.0264	419
77.041	119
91.0552	999
91.084	99
92.0272	99
103.0553	79
108.964	119
140.0497	319
151.0358	139
158.0392	219
159.0495	199
159.9759	279
162.0286	179
168.0206	79
168.0415	199
175.0162	159
179.9835	339
180.0042	99
182.0337	99
182.06	99
187.0415	119
188.0302	199
189.0384	299
190.0487	359
197.994	119
203.018	79
208.0344	299
209.0443	619
216.0256	299
218.0397	139
226.0483	79
232.0159	179
243.0074	139
269.9893	99
272.0065	279
288.0007	339
