Mass spectrum: Methacetin; LC-ESI-QTOF; MS2; 40 V
Name: Methacetin
Class: Pharmaceutical
Formula: C9H11NO2
Exact mass: 165.079
SMILES: COc1ccc(NC(C)=O)cc1
InChI: InChI=1S/C9H11NO2/c1-7(11)10-8-3-5-9(12-2)6-4-8/h3-6H,1-2H3,(H,10,11)
Instrument: TripleTOF 5600 SCIEX
Instrument type: LC-ESI-QTOF
Ms type: MS2
Ion mode: NEGATIVE
Collision energy: 40
Fragmentation mode: CID
Ionization: ESI
Column name: Zorbax Eclipse Plus C18 2.1 mm x 150 mm, 3.5 um, Agilent
Retention time: 6.508 min
Precursor m/z: 164.0336
Precursor type: [M-H]-
m/z	relative intensity
78.0357	388
89.4775	314
94.0286	394
106.029	302
121.0171	243
122.0219	183
134.0212	999
149.0048	405
