Mass spectrum: Mesosulfuron-methyl; LC-ESI-QTOF; MS2; 100 V
Name: Mesosulfuron-methyl
Class: Herbicide
Formula: C17H21N5O9S2
Exact mass: 503.0781
SMILES: COC(=O)c1ccc(CN[S](C)(=O)=O)cc1[S](=O)(=O)NC(=O)Nc2nc(OC)cc(OC)n2
InChI: InChI=1S/C17H21N5O9S2/c1-29-13-8-14(30-2)20-16(19-13)21-17(24)22-33(27,28)12-7-10(9-18-32(4,25)26)5-6-11(12)15(23)31-3/h5-8,18H,9H2,1-4H3,(H2,19,20,21,22,24)
Instrument: TripleTOF 5600 SCIEX
Instrument type: LC-ESI-QTOF
Ms type: MS2
Ion mode: NEGATIVE
Collision energy: 100
Fragmentation mode: CID
Ionization: ESI
Column name: Zorbax Eclipse Plus C18 2.1 mm x 150 mm, 3.5 um, Agilent
Retention time: 10.025 min
Precursor m/z: 502.0708
Precursor type: [M-H]-
m/z	relative intensity
42.0013	792
42.0182	51
42.0252	51
61.9713	137
63.9641	999
65.0165	189
65.999	568
78.9735	86
78.9865	361
90.011	103
93.9982	103
105.9613	103
107.0115	413
108.0245	68
122.0366	361
139.0376	172
154.0623	361
180.9836	310
195.0002	172
209.002	964
239.9962	68
