Mass spectrum: Hydroxytorasemide; LC-ESI-QTOF; MS2; 130 V
Name: Hydroxytorasemide
Class: Pharmaceutical; Transformation_product; Transformation_product-Metabolite
Formula: C16H20N4O4S
Exact mass: 364.1205
SMILES: CC(C)NC(=O)NS(=O)(=O)c1cnccc1Nc2cccc(c2)CO
InChI: InChI=1S/C16H20N4O4S/c1-11(2)18-16(22)20-25(23,24)15-9-17-7-6-14(15)19-13-5-3-4-12(8-13)10-21/h3-9,11,21H,10H2,1-2H3,(H,17,19)(H2,18,20,22)
Instrument: TripleTOF 5600 SCIEX
Instrument type: LC-ESI-QTOF
Ms type: MS2
Ion mode: NEGATIVE
Collision energy: 130
Fragmentation mode: CID
Ionization: ESI
Column name: Zorbax Eclipse Plus C18 2.1 mm x 150 mm, 3.5 um, Agilent
Retention time: 5.824 min
Precursor m/z: 363.1132
Precursor type: [M-H]-
m/z	relative intensity
42.0018	69
47.9689	162
50.0088	81
57.9759	58
61.9718	255
63.9637	487
65.016	69
77.9656	999
78.9739	92
91.0307	197
93.045	638
107.0468	81
108.0547	92
165.0456	151
167.0634	174
168.0629	58
178.0538	116
179.0609	151
