Mass spectrum: Baclofen; LC-ESI-QTOF; MS2; 70 V
Name: Baclofen
Class: Pharmaceutical
Formula: C10H12ClNO2
Exact mass: 213.0557
SMILES: NCC(CC(O)=O)c1ccc(Cl)cc1
InChI: InChI=1S/C10H12ClNO2/c11-9-3-1-7(2-4-9)8(6-12)5-10(13)14/h1-4,8H,5-6,12H2,(H,13,14)
Instrument: TripleTOF 5600 SCIEX
Instrument type: LC-ESI-QTOF
Ms type: MS2
Ion mode: POSITIVE
Collision energy: 70
Fragmentation mode: CID
Ionization: ESI
Column name: Zorbax Eclipse Plus C18 2.1 mm x 150 mm, 3.5 um, Agilent
Retention time: 5.336 min
Precursor m/z: 214.0629
Precursor type: [M+H]+
m/z	relative intensity
51.0288	42
65.0422	51
75.025	29
77.0416	109
89.0406	150
90.0479	20
91.0552	49
98.9999	32
101.0385	11
102.0464	37
114.0463	12
115.0552	999
116.0622	180
118.0656	45
125.0155	55
126.0464	10
149.015	9
