Mass spectrum: Dehydroaripiprazole; LC-ESI-QTOF; MS2; 90 V
Name: Dehydroaripiprazole
Class: Metabolite
Formula: C23H25Cl2N3O2
Exact mass: 445.1324
SMILES: C1CN(CCN1CCCCOC2=CC3=C(C=C2)C=CC(=O)N3)C4=C(C(=CC=C4)Cl)Cl
InChI: InChI=1S/C23H25Cl2N3O2/c24-19-4-3-5-21(23(19)25)28-13-11-27(12-14-28)10-1-2-15-30-18-8-6-17-7-9-22(29)26-20(17)16-18/h3-9,16H,1-2,10-15H2,(H,26,29)
Instrument: TripleTOF 5600 SCIEX
Instrument type: LC-ESI-QTOF
Ms type: MS2
Ion mode: POSITIVE
Collision energy: 90
Fragmentation mode: CID
Ionization: ESI
Column name: Zorbax Eclipse Plus C18 2.1 mm x 150 mm, 3.5 um, Agilent
Retention time: 7.84 min
Precursor m/z: 446.1397
Precursor type: [M+H]+
m/z	relative intensity
41.0381	51
42.0331	90
44.0486	103
55.0536	207
56.0489	726
69.0696	103
70.064	181
75.0211	77
84.0806	609
89.038	609
90.0476	64
91.0536	246
96.0814	168
98.0966	739
101.0387	129
108.9841	90
110.9976	64
116.0492	804
117.0578	609
118.0636	376
128.05	544
130.0663	51
132.9603	51
138.0133	129
144.0448	493
144.959	389
146.0605	103
151.0173	155
152.026	999
153.0324	298
160.9756	51
164.0262	116
165.0274	64
166.0382	116
171.9714	869
172.9706	246
173.988	142
185.9893	77
188.0032	259
193.0598	64
212.9931	129
228.0231	90
228.0314	77
