Mass spectrum: Tributylhexadecylphosphonium; LC-ESI-QTOF; MS2; 110 V
Name: Tributylhexadecylphosphonium
Class: Pharmaceutical
Formula: C28H60P
Exact mass: 427.4427
SMILES: CCCCCCCCCCCCCCCC[P+](CCCC)(CCCC)CCCC
InChI: InChI=1S/C28H60P/c1-5-9-13-14-15-16-17-18-19-20-21-22-23-24-28-29(25-10-6-2,26-11-7-3)27-12-8-4/h5-28H2,1-4H3/q+1
Instrument: TripleTOF 5600 SCIEX
Instrument type: LC-ESI-QTOF
Ms type: CID
Ion mode: POSITIVE
Collision energy: 110
Ionization: ESI
Column name: Zorbax Eclipse Plus C18 2.1 mm x 150 mm, 3.5 um, Agilent
Retention time: 16.04 min
Precursor m/z: 427.4427
Precursor type: [M]+
m/z	relative intensity
56.993	135
59.0083	191
61.0245	543
62.0319	407
73.0215	71
75.0379	492
76.0458	999
88.043	71
89.0513	122
90.059	175
101.0507	53
103.0655	95
115.0665	58
117.0816	101
131.0972	159
145.1131	103
173.1441	143
187.1589	53
229.2062	71
