Mass spectrum: Metazachlor; LC-ESI-QTOF; MS2; 100 V
Name: Metazachlor
Class: Herbicide
Formula: C14H16ClN3O
Exact mass: 277.0982
SMILES: Cc1cccc(C)c1N(Cn2cccn2)C(=O)CCl
InChI: InChI=1S/C14H16ClN3O/c1-11-5-3-6-12(2)14(11)18(13(19)9-15)10-17-8-4-7-16-17/h3-8H,9-10H2,1-2H3
Instrument: TripleTOF 5600 SCIEX
Instrument type: LC-ESI-QTOF
Ms type: MS2
Ion mode: POSITIVE
Collision energy: 100
Fragmentation mode: CID
Ionization: ESI
Column name: Zorbax Eclipse Plus C18 2.1 mm x 150 mm, 3.5 um, Agilent
Retention time: 11.114 min
Precursor m/z: 278.1055
Precursor type: [M+H]+
m/z	relative intensity
53.0433	10
65.0425	40
76.9819	19
77.0418	999
77.0763	16
78.0483	12
79.0571	321
89.04	76
90.0479	55
91.0559	116
102.0458	17
103.0547	327
104.0604	13
105.0702	227
116.0521	10
117.0565	201
118.065	29
130.0628	11
132.0807	19
134.0956	22
