Mass spectrum: Prednisone; LC-ESI-QTOF; MS2; 80 V
Name: Prednisone
Class: Pharmaceutical
Formula: C21H26O5
Exact mass: 358.178
SMILES: C[C@]12CC(=O)[C@H]3[C@@H](CCC4=CC(=O)C=C[C@]34C)[C@@H]1CC[C@]2(O)C(=O)CO
InChI: InChI=1S/C21H26O5/c1-19-7-5-13(23)9-12(19)3-4-14-15-6-8-21(26,17(25)11-22)20(15,2)10-16(24)18(14)19/h5,7,9,14-15,18,22,26H,3-4,6,8,10-11H2,1-2H3/t14-,15-,18+,19-,20-,21-/m0/s1
Instrument: TripleTOF 5600 SCIEX
Instrument type: LC-ESI-QTOF
Ms type: MS2
Ion mode: POSITIVE
Collision energy: 80
Fragmentation mode: CID
Ionization: ESI
Column name: Zorbax Eclipse Plus C18 2.1 mm x 150 mm, 3.5 um, Agilent
Retention time: 8.469 min
Precursor m/z: 359.1853
Precursor type: [M+H]+
m/z	relative intensity
43.0265	85
53.0441	16
55.0216	28
55.0603	45
65.0425	135
67.0583	114
69.0401	32
77.0416	626
78.0481	40
79.0564	249
81.0361	16
81.0716	57
91.0559	999
93.0711	122
95.0498	49
95.0865	102
102.0486	24
103.0548	159
104.0626	45
105.0703	204
107.0499	118
107.0843	36
109.0657	24
115.0548	700
116.0627	135
117.0702	257
119.0851	176
121.0654	262
126.0504	20
127.0545	282
128.0626	687
129.0699	302
130.0784	57
131.049	315
131.087	69
132.0572	274
133.0652	20
135.0824	24
139.0551	40
140.0622	57
141.0701	413
142.0779	49
143.0864	53
144.0569	311
144.0922	24
145.066	339
145.1019	28
146.0734	114
147.0808	196
151.0556	85
152.0628	409
153.0701	298
154.0786	77
155.0556	20
155.0858	81
157.0658	196
158.0732	253
159.0804	118
161.097	20
164.0639	28
165.0709	679
166.0772	135
167.0866	122
168.058	90
169.0651	204
169.1023	16
170.0716	53
171.0807	241
172.089	20
173.0953	32
176.0641	57
177.0711	118
178.0783	577
179.0863	462
180.0934	40
181.0654	540
181.1004	32
182.0724	143
183.0808	81
184.0882	36
185.095	20
189.0705	302
190.0767	204
191.0858	245
192.096	65
193.1004	90
194.0726	221
195.0812	319
196.0891	69
197.0973	53
201.0692	65
202.0781	319
202.1126	24
203.0863	216
204.0933	53
205.0666	167
205.1026	98
206.0731	102
206.1044	16
207.0818	335
208.0894	143
209.0984	85
215.0854	290
216.0926	40
217.0988	36
218.0739	171
219.0811	151
220.088	81
221.097	167
222.1044	53
223.0714	20
223.1085	24
226.0794	49
227.0857	49
228.0942	57
229.1013	57
231.0807	204
232.089	90
233.0974	94
234.1024	77
235.1118	20
239.0867	20
244.0934	24
245.0978	45
245.1154	20
246.1059	24
247.1104	32
