Mass spectrum: Triethylphosphine oxide; LC-ESI-QTOF; MS2; 40 V
Name: Triethylphosphine oxide
Class: Pharmaceutical
Formula: C6H15OP
Exact mass: 134.0861
SMILES: CC[P](=O)(CC)CC
InChI: InChI=1S/C6H15OP/c1-4-8(7,5-2)6-3/h4-6H2,1-3H3
Instrument: TripleTOF 5600 SCIEX
Instrument type: LC-ESI-QTOF
Ms type: MS2
Ion mode: POSITIVE
Collision energy: 40
Fragmentation mode: CID
Ionization: ESI
Column name: Zorbax Eclipse Plus C18 2.1 mm x 150 mm, 3.5 um, Agilent
Retention time: 5.148 min
Precursor m/z: 135.0933
Precursor type: [M+H]+
m/z	relative intensity
44.9948	20
48.0036	26
49.9981	290
51.0048	40
56.9943	199
59.0098	224
61.0251	203
62.9664	20
63.0047	845
64.0377	26
73.0237	16
75.0384	14
77.0182	934
78.0262	999
79.0336	108
89.0538	26
91.032	18
92.0403	494
105.0479	16
106.0536	54
107.0622	171
135.0935	211
