Mass spectrum: 2-(Thiocyanomethylthio)benzothiazole; LC-ESI-QTOF; MS2; 130 V
Name: 2-(Thiocyanomethylthio)benzothiazole
Class: Antimicrobial; Fungicide
Formula: C9H6N2S3
Exact mass: 237.9693
SMILES: C1=CC=C2C(=C1)N=C(S2)SCSC#N
InChI: InChI=1S/C9H6N2S3/c10-5-12-6-13-9-11-7-3-1-2-4-8(7)14-9/h1-4H,6H2
Instrument: TripleTOF 6600 SCIEX
Instrument type: LC-ESI-QTOF
Ms type: MS2
Ion mode: POSITIVE
Collision energy: 130
Fragmentation mode: CID
Ionization: ESI
Column name: Zorbax Eclipse Plus C18 2.1 mm x 150 mm, 3.5 um, Agilent
Retention time: 12.417 min
Precursor m/z: 238.9766
Precursor type: [M+H]+
m/z	relative intensity
31.9717	11
35.9996	24
37.0076	115
38.0152	91
39.0233	224
43.9713	71
44.9794	368
45.9747	33
45.9868	15
49.0075	117
50.0154	426
51.0231	313
52.0185	33
52.0309	13
56.9787	13
57.987	39
59.9992	13
61.0072	108
62.0152	159
63.023	182
63.9436	28
64.0184	48
65.0387	79
67.9713	119
68.9796	999
69.9749	13
69.987	26
71.9899	11
73.0076	22
74.0148	84
75.0101	26
75.0221	19
76.0193	26
77.0386	24
80.9791	35
81.9874	77
91.9709	28
92.9799	86
94.9957	42
108.0027	15
