Mass spectrum: Ranitidine; LC-ESI-QTOF; MS2; 40 V
Name: Ranitidine
Class: Pharmaceutical
Formula: C13H22N4O3S
Exact mass: 314.1413
SMILES: CNC(=C[N+](=O)[O-])NCCSCC1=CC=C(O1)CN(C)C
InChI: InChI=1S/C13H22N4O3S/c1-14-13(9-17(18)19)15-6-7-21-10-12-5-4-11(20-12)8-16(2)3/h4-5,9,14-15H,6-8,10H2,1-3H3
Instrument: TripleTOF 5600 SCIEX
Instrument type: LC-ESI-QTOF
Ms type: MS2
Ion mode: POSITIVE
Collision energy: 40
Fragmentation mode: CID
Ionization: ESI
Column name: Zorbax Eclipse Plus C18 2.1 mm x 150 mm, 3.5 um, Agilent
Retention time: 4.832 min
Precursor m/z: 315.1485
Precursor type: [M+H]+
m/z	relative intensity
56.0546	18
68.055	10
71.0632	13
81.036	215
82.0666	11
83.0613	31
84.0701	53
88.0221	34
94.066	21
95.0508	58
97.0124	11
97.0769	240
98.085	400
101.0292	26
102.0382	851
106.0656	12
107.0492	90
108.0801	15
110.0598	43
110.0968	84
114.079	10
115.0318	24
117.0493	32
118.0329	31
121.0759	67
122.0854	10
124.0757	106
125.006	913
129.0481	33
130.0564	999
131.063	10
132.044	25
133.0522	35
134.0599	10
135.0256	22
135.0924	103
136.0764	11
138.092	25
144.0742	11
145.0437	14
147.0673	30
147.0904	11
148.0756	174
149.0702	48
150.0373	11
151.021	13
153.0378	31
159.0453	12
163.0873	75
164.0953	51
165.103	162
167.0646	72
170.063	32
176.0495	328
177.1027	141
178.0327	50
178.112	16
181.0788	106
191.1182	182
192.0485	60
193.0569	28
194.0625	15
209.0747	20
223.0915	20
224.0978	16
