Mass spectrum: Cyclopropyldiphenylsulfonium; LC-ESI-QTOF; MS2; 110 V
Name: Cyclopropyldiphenylsulfonium
Formula: [C15H15S]+
Exact mass: 227.0889
SMILES: C1CC1[S+](C2=CC=CC=C2)C3=CC=CC=C3
InChI: InChI=1S/C15H15S/c1-3-7-13(8-4-1)16(15-11-12-15)14-9-5-2-6-10-14/h1-10,15H,11-12H2/q+1
Instrument: TripleTOF 5600 SCIEX
Instrument type: LC-ESI-QTOF
Ms type: MS2
Ion mode: POSITIVE
Collision energy: 110
Fragmentation mode: CID
Ionization: ESI
Column name: Zorbax Eclipse Plus C18 2.1 mm x 150 mm, 3.5 um, Agilent
Retention time: 5.55 min
Precursor m/z: 227.0889
Precursor type: [M]+
m/z	relative intensity
38.0159	59
39.0235	164
49.0071	92
50.0156	611
51.0234	999
62.0147	85
63.0229	164
65.0383	216
68.9792	243
74.0147	131
75.0221	85
76.0308	105
77.038	322
87.0211	72
89.037	335
91.0528	78
102.0452	59
113.0372	124
114.0447	65
115.0523	249
126.0459	157
134.0172	65
138.0453	59
139.0536	683
150.0458	236
151.0549	210
152.0608	249
