Mass spectrum: 3-Hydroxycarbamazepine; LC-ESI-QTOF; MS2; 100 V
Name: 3-Hydroxycarbamazepine
Class: Pharmaceutical
Formula: C15H12N2O2
Exact mass: 252.0899
SMILES: NC(=O)N1c2ccccc2C=Cc3ccc(O)cc13
InChI: InChI=1S/C15H12N2O2/c16-15(19)17-13-4-2-1-3-10(13)5-6-11-7-8-12(18)9-14(11)17/h1-9,18H,(H2,16,19)
Instrument: TripleTOF 5600 SCIEX
Instrument type: LC-ESI-QTOF
Ms type: MS2
Ion mode: NEGATIVE
Collision energy: 100
Fragmentation mode: CID
Ionization: ESI
Column name: Zorbax Eclipse Plus C18 2.1 mm x 150 mm, 3.5 um, Agilent
Retention time: 7.917 min
Precursor m/z: 251.0826
Precursor type: [M-H]-
m/z	relative intensity
41.0069	999
41.0181	111
41.0247	111
41.0399	111
41.9998	222
42.0093	222
50.011	333
65.0429	111
65.9986	444
66.0083	222
73.0133	111
90.0368	444
114.0349	333
115.0469	111
115.0579	222
116.0511	444
118.0264	111
129.0637	222
130.0672	333
131.043	111
138.0369	111
139.0575	111
140.0527	222
142.0307	333
152.0511	111
162.0308	111
163.0445	111
164.0516	444
165.0588	222
166.0364	111
177.0612	222
206.0594	111
