Mass spectrum: 5-(3,4,5-Trimethoxybenzoyl)-2,4-pyrimidinediamine; LC-ESI-QTOF; MS2; 130 V
Name: 5-(3,4,5-Trimethoxybenzoyl)-2,4-pyrimidinediamine
Class: Pharmaceutical; Transformation_product
Formula: C14H16N4O4
Exact mass: 304.1172
SMILES: COc1cc(cc(c1OC)OC)C(=O)c2cnc(nc2N)N
InChI: InChI=1S/C14H16N4O4/c1-20-9-4-7(5-10(21-2)12(9)22-3)11(19)8-6-17-14(16)18-13(8)15/h4-6H,1-3H3,(H4,15,16,17,18)
Instrument: TripleTOF 5600 SCIEX
Instrument type: LC-ESI-QTOF
Ms type: MS2
Ion mode: POSITIVE
Collision energy: 130
Fragmentation mode: CID
Ionization: ESI
Column name: Zorbax Eclipse Plus C18 2.1 mm x 150 mm, 3.5 um, Agilent
Retention time: 5.86 min
Precursor m/z: 305.1244
Precursor type: [M+H]+
m/z	relative intensity
40.0279	188
41.0362	83
43.0392	288
52.0326	321
53.01	210
53.0432	149
55.0337	27
65.0181	83
65.0437	199
66.0168	111
66.0347	27
66.0463	33
67.0331	94
68.0195	999
69.0003	61
69.0125	33
69.0487	27
70.0324	38
74.0181	105
75.0126	33
75.0254	188
76.0201	349
77.0157	22
77.0276	66
77.0404	344
78.0352	310
79.0195	33
79.0435	105
80.0287	33
80.0493	77
81.0375	55
82.0427	33
88.023	99
89.0394	177
90.0351	61
90.0426	33
91.0362	38
92.0264	61
93.0111	27
93.0467	83
94.0045	38
94.0403	27
95.0229	44
99.0156	33
100.0181	33
101.0381	22
102.034	94
103.0301	83
103.0452	33
104.0504	44
105.0441	199
107.0114	33
109.0501	33
110.0617	22
114.0337	116
115.0409	22
118.0408	44
120.016	22
120.0555	94
129.0458	61
130.0397	44
142.0503	22
147.0629	27
154.0364	22
