Mass spectrum: Metobromuron; LC-ESI-QTOF; MS2; 70 V
Name: Metobromuron
Class: Herbicide
Formula: C9H11BrN2O2
Exact mass: 258.0004
SMILES: CN(C(=O)NC1=CC=C(C=C1)Br)OC
InChI: InChI=1S/C9H11BrN2O2/c1-12(14-2)9(13)11-8-5-3-7(10)4-6-8/h3-6H,1-2H3,(H,11,13)
Instrument: TripleTOF 6600 SCIEX
Instrument type: LC-ESI-QTOF
Ms type: MS2
Ion mode: POSITIVE
Collision energy: 70
Fragmentation mode: CID
Ionization: ESI
Column name: Zorbax Eclipse Plus C18 2.1 mm x 150 mm, 3.5 um, Agilent
Retention time: 10.623 min
Precursor m/z: 259.0077
Precursor type: [M+H]+
m/z	relative intensity
39.0206	101
41.0236	28
52.0155	45
61.0044	50
62.012	107
63.0203	575
64.0279	293
65.024	39
65.0358	598
66.0305	33
76.0153	22
77.0352	33
78.0304	22
90.031	39
91.0384	999
92.0461	378
92.9298	45
93.0528	28
105.0418	33
116.9294	299
119.0569	417
142.9452	412
147.0529	33
169.9556	45
170.9635	129
