Mass spectrum: Iomeprol; LC-ESI-QTOF; MS2; 130 V
Name: Iomeprol
Class: Pharmaceutical
Formula: C17H22I3N3O8
Exact mass: 776.8541
SMILES: CN(C(=O)CO)c1c(I)c(C(=O)NCC(O)CO)c(I)c(C(=O)NCC(O)CO)c1I
InChI: InChI=1S/C17H22I3N3O8/c1-23(9(29)6-26)15-13(19)10(16(30)21-2-7(27)4-24)12(18)11(14(15)20)17(31)22-3-8(28)5-25/h7-8,24-28H,2-6H2,1H3,(H,21,30)(H,22,31)
Instrument: TripleTOF 5600 SCIEX
Instrument type: LC-ESI-QTOF
Ms type: MS2
Ion mode: POSITIVE
Collision energy: 130
Fragmentation mode: CID
Ionization: ESI
Column name: Zorbax Eclipse Plus C18 2.1 mm x 150 mm, 3.5 um, Agilent
Retention time: 4.596 min
Precursor m/z: 777.8614
Precursor type: [M+H]+
m/z	relative intensity
90.0334	61
91.0426	79
92.049	49
93.0576	36
103.0415	55
104.0486	85
118.0262	110
119.0355	128
119.0566	24
120.0443	42
130.027	30
131.0363	165
132.0435	134
133.0513	36
136.0367	30
146.0223	165
147.0315	30
148.0374	67
149.0458	55
159.0288	24
159.0537	24
160.0369	67
161.0458	533
162.0519	79
174.0412	36
176.0345	30
176.0536	24
177.0413	147
177.9134	42
187.051	24
188.9158	85
205.0587	55
217.9433	85
229.9437	24
231.9242	49
245.944	67
257.9408	318
273.9342	67
286.9197	36
287.9509	999
313.9415	24
331.9401	42
