Mass spectrum: Metsulfuron-methyl; LC-ESI-QTOF; MS2; 100 V
Name: Metsulfuron-methyl
Formula: C14H15N5O6S
Exact mass: 381.0743
SMILES: CC1=NC(=NC(=N1)OC)NC(=O)NS(=O)(=O)C2=CC=CC=C2C(=O)OC
InChI: InChI=1S/C14H15N5O6S/c1-8-15-12(18-14(16-8)25-3)17-13(21)19-26(22,23)10-7-5-4-6-9(10)11(20)24-2/h4-7H,1-3H3,(H2,15,16,17,18,19,21)
Instrument: TripleTOF 6600 SCIEX
Instrument type: LC-ESI-QTOF
Ms type: MS2
Ion mode: POSITIVE
Collision energy: 100
Fragmentation mode: CID
Ionization: ESI
Column name: Zorbax Eclipse Plus C18 2.1 mm x 150 mm, 3.5 um, Agilent
Retention time: 9.15008 min
Precursor m/z: 382.0816
Precursor type: [M+H]+
m/z	relative intensity
42.0338	176
43.0301	117
51.0235	293
56.0492	58
58.0287	293
64.0341	117
69.0084	705
77.0387	999
83.0237	58
90.0331	293
92.024	528
102.0378	117
