Mass spectrum: Oseltamivir; LC-ESI-QTOF; MS2; 50 V
Name: Oseltamivir
Class: Pharmaceutical
Formula: C16H28N2O4
Exact mass: 312.2049
SMILES: CCC(CC)O[C@@H]1C=C(C[C@@H]([C@H]1/N=C(\C)/O)N)C(=O)OCC
InChI: InChI=1S/C16H28N2O4/c1-5-12(6-2)22-14-9-11(16(20)21-7-3)8-13(17)15(14)18-10(4)19/h9,12-15H,5-8,17H2,1-4H3,(H,18,19)/t13-,14+,15+/m0/s1
Instrument: TripleTOF 5600 SCIEX
Instrument type: LC-ESI-QTOF
Ms type: MS2
Ion mode: POSITIVE
Collision energy: 50
Fragmentation mode: CID
Ionization: ESI
Column name: Zorbax Eclipse Plus C18 2.1 mm x 150 mm, 3.5 um, Agilent
Retention time: 6.973 min
Precursor m/z: 313.2122
Precursor type: [M+H]+
m/z	relative intensity
65.043	113
67.0583	75
68.0531	14
77.0416	96
80.0521	50
82.0674	35
83.0513	14
92.0515	270
93.0362	138
93.0569	83
94.067	457
95.0497	22
108.0443	16
109.0765	128
110.0601	42
111.0436	20
119.06	42
120.0453	999
121.0269	11
133.0756	13
134.0599	18
136.0752	17
137.0708	170
138.0549	221
138.0892	15
161.0705	12
162.0548	25
166.0865	272
