Mass spectrum: Fluoxastrobin; LC-ESI-QTOF; MS2; 150 V
Name: Fluoxastrobin
Class: Fungicide
Formula: C21H16ClFN4O5
Exact mass: 458.0793
SMILES: CON=C(C1=CC=CC=C1OC2=C(C(=NC=N2)OC3=CC=CC=C3Cl)F)C4=NOCCO4
InChI: InChI=1S/C21H16ClFN4O5/c1-28-26-18(21-27-30-11-10-29-21)13-6-2-4-8-15(13)31-19-17(23)20(25-12-24-19)32-16-9-5-3-7-14(16)22/h2-9,12H,10-11H2,1H3
Instrument: TripleTOF 6600 SCIEX
Instrument type: LC-ESI-QTOF
Ms type: MS2
Ion mode: POSITIVE
Collision energy: 150
Fragmentation mode: CID
Ionization: ESI
Column name: Zorbax Eclipse Plus C18 2.1 mm x 150 mm, 3.5 um, Agilent
Retention time: 13.269 min
Precursor m/z: 459.0866
Precursor type: [M+H]+
m/z	relative intensity
37.0079	23
38.0148	23
39.0227	54
43.0181	52
49.0083	25
50.0154	203
51.023	308
52.0181	18
57.0129	30
59.9992	21
61.0072	63
62.0145	108
63.0227	275
64.0187	37
64.0299	61
65.0387	28
68.0045	14
69.0103	14
69.992	21
70.0091	23
72.984	27
73.0068	84
74.0145	773
75.0225	999
76.0185	180
76.0299	100
77.0384	75
78.033	25
80.0055	12
81.0129	43
82.0072	19
84.9835	79
85.0079	14
86.0139	19
87.0113	43
87.0227	27
88.0175	30
88.0295	14
89.0251	10
89.0369	19
90.0329	52
90.9739	10
91.0408	30
92.0241	19
94.0201	50
95.0283	48
98.0144	28
99.0104	61
100.0168	63
101.0258	10
102.034	137
105.0112	43
106.0191	46
107.0287	82
108.0248	10
109.0314	12
110.9998	63
112.0185	10
114.0331	52
123.0064	10
123.0217	25
124.0166	19
125.0377	10
126.0403	12
129.0453	12
130.0406	36
132.0234	79
133.0302	16
138.0323	10
139.0509	10
144.0337	12
149.037	32
150.0451	25
151.0442	12
164.052	12
168.0346	27
169.0452	19
174.0437	10
175.0427	28
177.0551	19
182.0376	10
188.0416	10
195.049	23
203.0587	12
