Mass spectrum: Thieno[3,2-b]pyridin-7-ol; LC-ESI-QTOF; MS2; 40 V
Name: Thieno[3,2-b]pyridin-7-ol
Formula: C7H5NOS
Exact mass: 151.0092
SMILES: C1=CNC2=C(C1=O)SC=C2
InChI: InChI=1S/C7H5NOS/c9-6-1-3-8-5-2-4-10-7(5)6/h1-4H,(H,8,9)
Instrument: TripleTOF 6600 SCIEX
Instrument type: LC-ESI-QTOF
Ms type: MS2
Ion mode: POSITIVE
Collision energy: 40
Fragmentation mode: CID
Ionization: ESI
Column name: Zorbax Eclipse Plus C18 2.1 mm x 150 mm, 3.5 um, Agilent
Retention time: 4.72 min
Precursor m/z: 152.0165
Precursor type: [M+H]+
m/z	relative intensity
39.0233	103
44.9797	46
53.0023	39
53.039	106
55.0178	13
63.0226	29
65.0384	10
67.0418	52
68.0136	37
68.9791	35
70.9943	19
76.0182	34
78.033	13
80.0495	786
82.9949	210
83.9892	18
84.0026	36
90.0335	66
91.0415	20
94.0286	133
96.0021	11
97.0105	770
98.0054	23
100.0211	57
106.9939	23
108.0442	117
110.0059	536
111.0005	47
111.9849	27
120.0434	54
123.0134	38
124.0213	160
134.0059	229
152.0164	999
