Mass spectrum: Albendazole; LC-ESI-QTOF; MS2; 110 V
Name: Albendazole
Class: Pharmaceutical
Formula: C12H15N3O2S
Exact mass: 265.0885
SMILES: CCCSc1ccc2nc(NC(=O)OC)[nH]c2c1
InChI: InChI=1S/C12H15N3O2S/c1-3-6-18-8-4-5-9-10(7-8)14-11(13-9)15-12(16)17-2/h4-5,7H,3,6H2,1-2H3,(H2,13,14,15,16)
Instrument: TripleTOF 5600 SCIEX
Instrument type: LC-ESI-QTOF
Ms type: MS2
Ion mode: POSITIVE
Collision energy: 110
Fragmentation mode: CID
Ionization: ESI
Column name: Zorbax Eclipse Plus C18 2.1 mm x 150 mm, 3.5 um, Agilent
Retention time: 8.546 min
Precursor m/z: 266.0958
Precursor type: [M+H]+
m/z	relative intensity
39.0306	45
51.0297	157
52.0256	52
52.0364	120
53.0353	23
54.0397	16
56.9839	20
57.9921	42
59.9965	15
65.0308	234
66.0259	35
66.0378	105
67.047	47
67.9752	18
68.9835	452
69.012	52
69.9901	156
70.9978	27
75.0136	140
76.0221	866
77.0296	999
78.0367	368
79.0329	20
79.044	96
80.0513	18
80.982	47
81.99	424
82.9849	152
83.9928	96
84.9888	11
88.0212	15
89.028	15
90.0351	76
91.0306	30
91.0426	39
92.0389	524
92.9812	337
93.0465	50
93.9885	156
94.9961	259
95.991	32
96.0046	100
103.0298	245
104.0161	10
104.0374	393
105.0456	196
106.0534	18
107.992	16
108.9987	256
110.0068	64
118.0483	49
119.0477	72
119.9909	149
120.0567	11
120.9981	28
122.006	120
123.014	27
130.0405	144
131.0481	96
133.0636	16
135.0014	50
136.0106	22
137.017	18
158.0353	22
159.0442	25
162.0112	15
