Mass spectrum: 3-Dimethylaminophenol; LC-ESI-QTOF; MS2; 50 V
Name: 3-Dimethylaminophenol
Formula: C8H11NO
Exact mass: 137.0841
SMILES: CN(C)C1=CC(=CC=C1)O
InChI: InChI=1S/C8H11NO/c1-9(2)7-4-3-5-8(10)6-7/h3-6,10H,1-2H3
Instrument: TripleTOF 6600 SCIEX
Instrument type: LC-ESI-QTOF
Ms type: MS2
Ion mode: POSITIVE
Collision energy: 50
Fragmentation mode: CID
Ionization: ESI
Column name: Zorbax Eclipse Plus C18 2.1 mm x 150 mm, 3.5 um, Agilent
Retention time: 4.073 min
Precursor m/z: 138.0914
Precursor type: [M+H]+
m/z	relative intensity
37.0067	31
38.0142	29
39.0224	290
51.022	23
53.0375	38
55.0167	17
65.0379	904
66.0452	111
67.0534	35
68.0119	12
77.0374	181
80.0483	22
81.0324	52
93.0324	274
94.041	891
95.048	91
106.0641	22
121.0382	33
122.0592	999
123.0666	27
