Mass spectrum: Diaveridine; LC-ESI-QTOF; MS2; 30 V
Name: Diaveridine
Class: Pharmaceutical
Formula: C13H16N4O2
Exact mass: 260.1273
SMILES: COC1=C(C=C(C=C1)CC2=CN=C(N=C2N)N)OC
InChI: InChI=1S/C13H16N4O2/c1-18-10-4-3-8(6-11(10)19-2)5-9-7-16-13(15)17-12(9)14/h3-4,6-7H,5H2,1-2H3,(H4,14,15,16,17)
Instrument: TripleTOF 5600 SCIEX
Instrument type: LC-ESI-QTOF
Ms type: MS2
Ion mode: POSITIVE
Collision energy: 30
Fragmentation mode: CID
Ionization: ESI
Column name: Zorbax Eclipse Plus C18 2.1 mm x 150 mm, 3.5 um, Agilent
Retention time: 4.966 min
Precursor m/z: 261.1346
Precursor type: [M+H]+
m/z	relative intensity
81.0499	63
110.0613	12
123.0683	486
151.0753	20
187.0981	12
188.1056	10
200.1051	22
203.0907	12
215.0927	16
216.1006	114
217.1078	254
228.0779	12
229.1073	18
243.0862	15
245.1021	999
246.1115	316
261.1334	818
