Mass spectrum: Chloroquine; LC-ESI-QTOF; MS2; 100 V
Name: Chloroquine
Class: Pharmaceutical
Formula: C18H26ClN3
Exact mass: 319.1815
SMILES: CCN(CC)CCCC(C)NC1=C2C=CC(=CC2=NC=C1)Cl
InChI: InChI=1S/C18H26ClN3/c1-4-22(5-2)12-6-7-14(3)21-17-10-11-20-18-13-15(19)8-9-16(17)18/h8-11,13-14H,4-7,12H2,1-3H3,(H,20,21)
Instrument: TripleTOF 6600 SCIEX
Instrument type: LC-ESI-QTOF
Ms type: MS2
Ion mode: POSITIVE
Collision energy: 100
Fragmentation mode: CID
Ionization: ESI
Column name: Zorbax Eclipse Plus C18 2.1 mm x 150 mm, 3.5 um, Agilent
Retention time: 4.84 min
Precursor m/z: 320.1888
Precursor type: [M+H]+
m/z	relative intensity
30.0337	38
37.0078	28
38.0153	33
39.0229	291
41.0386	262
44.0494	33
51.023	38
56.0495	47
58.065	157
63.0228	81
70.0645	133
73.0073	28
74.0149	143
75.0226	425
76.0311	33
77.038	186
78.0461	28
84.9833	23
86.0964	138
89.0384	731
90.0322	28
90.046	348
91.0413	19
98.0149	52
98.0961	152
99.0228	282
100.0179	138
100.0313	62
101.0379	282
102.033	57
102.0455	191
103.0413	28
104.0491	90
110.9991	320
112.0067	28
115.0421	38
115.0537	100
116.049	492
117.0437	52
117.0569	645
118.0515	66
122.9986	28
124.0057	33
126.0332	86
127.0416	296
128.0489	999
129.0442	86
129.0567	530
130.0398	23
134.9997	52
136.0065	238
138.01	66
139.0055	76
140.0493	47
141.057	33
142.0531	57
142.0648	43
143.06	573
144.0676	305
151.0181	215
154.0407	38
154.0662	28
155.06	401
156.0673	152
162.01	143
163.0177	401
164.0264	47
167.0601	81
168.0672	272
169.0754	57
177.0343	47
178.028	28
179.0374	100
189.0226	33
190.0285	167
191.0375	33
203.036	71
205.0513	38
