Mass spectrum: 1-Oxo-ibuprofen; LC-ESI-QTOF; MS2; 60 V
Name: 1-Oxo-ibuprofen
Class: Pharmaceutical; Transformation_product
Formula: C13H16O3
Exact mass: 220.1099
SMILES: CC(C)C(=O)C1=CC=C(C=C1)C(C)C(=O)O
InChI: InChI=1S/C13H16O3/c1-8(2)12(14)11-6-4-10(5-7-11)9(3)13(15)16/h4-9H,1-3H3,(H,15,16)
Instrument: TripleTOF 5600 SCIEX
Instrument type: LC-ESI-QTOF
Ms type: MS2
Ion mode: POSITIVE
Collision energy: 60
Fragmentation mode: CID
Ionization: ESI
Column name: Zorbax Eclipse Plus C18 2.1 mm x 150 mm, 3.5 um, Agilent
Retention time: 10.239 min
Precursor m/z: 221.1172
Precursor type: [M+H]+
m/z	relative intensity
43.0268	327
55.0589	239
57.076	105
65.0426	233
67.0581	134
69.0373	35
69.0738	35
77.0412	777
77.0627	40
78.0478	52
79.0568	479
81.0736	87
83.0505	23
91.0554	999
91.0803	35
93.0715	52
95.0503	40
103.0546	309
104.0632	46
105.0702	636
107.0494	75
107.0856	29
115.0539	484
116.063	75
117.0693	391
119.085	75
121.0653	29
123.0419	35
127.0551	75
128.0615	327
129.0703	116
130.0771	29
131.0856	40
133.0995	29
141.0691	210
142.0781	40
