Mass spectrum: Neotame; LC-ESI-QTOF; MS2; 30 V
Name: Neotame
Formula: C20H30N2O5
Exact mass: 378.2155
SMILES: CC(C)(C)CCNC(CC(=O)O)C(=O)NC(CC1=CC=CC=C1)C(=O)OC
InChI: InChI=1S/C20H30N2O5/c1-20(2,3)10-11-21-15(13-17(23)24)18(25)22-16(19(26)27-4)12-14-8-6-5-7-9-14/h5-9,15-16,21H,10-13H2,1-4H3,(H,22,25)(H,23,24)
Instrument: TripleTOF X500R SCIEX
Instrument type: LC-ESI-QTOF
Ms type: MS2
Ion mode: POSITIVE
Collision energy: 30
Fragmentation mode: CID
Ionization: ESI
Column name: Zorbax Eclipse Plus C18 2.1 mm x 150 mm, 3.5 um, Agilent
Retention time: 8.15 min
Precursor m/z: 379.2228
Precursor type: [M+H]+
m/z	relative intensity
85.1003	10
112.1122	31
120.0802	81
128.1435	27
154.1219	28
172.1327	999
180.1019	143
231.1869	19
259.1797	237
319.1564	12
319.202	353
379.221	126
