Mass spectrum: Mefloquine; LC-ESI-QTOF; MS2; 40 V
Name: Mefloquine
Class: Pharmaceutical
Formula: C17H16F6N2O
Exact mass: 378.1167
SMILES: C1CCNC(C1)C(C2=CC(=NC3=C2C=CC=C3C(F)(F)F)C(F)(F)F)O
InChI: InChI=1S/C17H16F6N2O/c18-16(19,20)11-5-3-4-9-10(15(26)12-6-1-2-7-24-12)8-13(17(21,22)23)25-14(9)11/h3-5,8,12,15,24,26H,1-2,6-7H2
Instrument: TripleTOF 5600 SCIEX
Instrument type: LC-ESI-QTOF
Ms type: MS2
Ion mode: POSITIVE
Collision energy: 40
Fragmentation mode: CID
Ionization: ESI
Column name: Zorbax Eclipse Plus C18 2.1 mm x 150 mm, 3.5 um, Agilent
Retention time: 8.432 min
Precursor m/z: 379.124
Precursor type: [M+H]+
m/z	relative intensity
68.0555	26
70.0711	17
82.0696	64
83.0776	54
84.0849	96
214.0255	22
215.0535	10
222.0535	9
229.0616	12
230.0653	14
234.0561	21
235.0553	24
236.0585	12
238.0293	12
243.0761	15
244.0813	12
246.0464	69
247.0574	32
249.0326	11
249.064	40
252.043	32
253.0584	17
254.0766	13
258.0345	22
259.0447	20
260.0573	34
261.0781	15
263.0833	21
264.031	94
264.087	11
265.0518	12
266.0576	58
267.0565	14
270.0338	30
270.0984	12
271.105	201
272.0511	58
272.1135	16
273.0635	72
274.086	14
275.0888	19
276.0465	12
278.0413	150
279.0544	90
280.0645	33
281.0875	38
283.0419	17
284.0519	80
285.0471	35
286.0676	34
289.0968	11
290.0436	13
290.1031	24
291.111	147
292.0184	48
292.0572	11
293.07	116
296.051	104
298.0636	69
299.0614	71
300.0872	11
301.0953	162
302.0405	70
304.0664	30
305.0506	29
312.0789	24
313.0773	210
314.0942	25
316.0562	38
318.0634	14
319.0686	22
319.1024	12
320.0899	32
321.1012	338
324.0823	32
326.0867	10
333.0826	292
339.0933	108
340.1002	19
341.1075	212
359.1024	12
359.9719	29
361.1131	999
379.1239	462
