Mass spectrum: Flufenacet ESA; LC-ESI-QTOF; MS2; 70 V
Name: Flufenacet ESA
Class: Herbicide; Transformation_product
Formula: C11H14FNO4S
Exact mass: 275.0628
SMILES: CC(C)N(C1=CC=C(C=C1)F)C(=O)CS(=O)(=O)O
InChI: InChI=1S/C11H14FNO4S/c1-8(2)13(11(14)7-18(15,16)17)10-5-3-9(12)4-6-10/h3-6,8H,7H2,1-2H3,(H,15,16,17)
Instrument: TripleTOF 6600 SCIEX
Instrument type: LC-ESI-QTOF
Ms type: MS2
Ion mode: POSITIVE
Collision energy: 70
Fragmentation mode: CID
Ionization: ESI
Column name: Zorbax Eclipse Plus C18 2.1 mm x 150 mm, 3.5 um, Agilent
Retention time: 6.781 min
Precursor m/z: 276.07
Precursor type: [M+H]+
m/z	relative intensity
31.0175	17
39.0225	23
41.0384	17
43.0542	10
51.0229	26
57.0133	28
59.0121	44
59.029	10
63.0222	12
64.9688	10
65.0383	164
69.0134	12
70.0198	10
74.0148	108
75.0229	551
77.038	162
80.9637	19
83.0287	192
84.037	33
85.0442	21
89.0381	16
92.0491	226
95.029	999
96.0366	139
97.0444	117
104.0494	16
107.0287	33
108.0373	26
109.0447	206
110.0399	23
111.0475	139
112.0555	235
113.04	10
122.0426	10
123.0346	340
124.0555	112
134.0395	23
135.0477	128
152.0495	14
