Mass spectrum: Voriconazole-N-oxide; LC-ESI-QTOF; MS2; 140 V
Name: Voriconazole-N-oxide
Class: Metabolite; Pharmaceutical
Formula: C16H14F3N5O2
Exact mass: 365.11
SMILES: CC(C1=NC=[N+](C=C1F)[O-])C(CN2C=NC=N2)(C3=C(C=C(C=C3)F)F)O
InChI: InChI=1S/C16H14F3N5O2/c1-10(15-14(19)5-24(26)9-21-15)16(25,6-23-8-20-7-22-23)12-3-2-11(17)4-13(12)18/h2-5,7-10,25H,6H2,1H3
Instrument: TripleTOF 5600 SCIEX
Instrument type: LC-ESI-QTOF
Ms type: MS2
Ion mode: POSITIVE
Collision energy: 140
Fragmentation mode: CID
Ionization: ESI
Column name: Zorbax Eclipse Plus C18 2.1 mm x 150 mm, 3.5 um, Agilent
Retention time: 7.739 min
Precursor m/z: 366.1172
Precursor type: [M+H]+
m/z	relative intensity
51.0081	49
51.0287	98
52.0251	111
57.0177	185
57.0272	98
70.0111	98
70.0436	160
71.0189	123
72.0292	49
75.007	493
77.0211	86
77.043	111
78.0363	98
78.0503	49
81.0149	419
87.0249	74
96.0354	49
97.0199	123
97.035	61
98.0401	98
99.0351	98
101.0201	999
105.0451	74
107.0286	555
113.0217	49
125.049	678
127.0349	320
