Mass spectrum: Oxycodone; LC-ESI-QTOF; MS2; 40 V
Name: Oxycodone
Class: Pharmaceutical
Formula: C18H21NO4
Exact mass: 315.1471
SMILES: CN1CCC23C4C(=O)CCC2(C1CC5=C3C(=C(C=C5)OC)O4)O
InChI: InChI=1S/C18H21NO4/c1-19-8-7-17-14-10-3-4-12(22-2)15(14)23-16(17)11(20)5-6-18(17,21)13(19)9-10/h3-4,13,16,21H,5-9H2,1-2H3
Instrument: TripleTOF 6600 SCIEX
Instrument type: LC-ESI-QTOF
Ms type: MS2
Ion mode: POSITIVE
Collision energy: 40
Fragmentation mode: CID
Ionization: ESI
Column name: Zorbax Eclipse Plus C18 2.1 mm x 150 mm, 3.5 um, Agilent
Retention time: 5.206 min
Precursor m/z: 316.1543
Precursor type: [M+H]+
m/z	relative intensity
70.0637	36
94.0634	20
108.0785	13
115.0523	12
129.0676	10
131.0468	12
132.0794	11
141.0672	14
153.068	31
157.0626	12
159.0436	11
159.0789	28
161.0582	13
161.0812	27
165.0677	13
167.0854	15
169.0636	19
171.0787	13
172.0509	12
174.0891	12
175.0739	157
179.0848	16
181.0642	109
182.0706	10
183.0776	17
185.0572	12
187.0737	178
189.09	22
195.0785	37
196.0838	13
196.1115	17
197.0594	26
197.0865	22
198.0652	10
198.0899	25
199.0734	104
201.0906	17
202.0838	64
203.0924	16
207.0789	13
209.0902	16
210.0668	16
210.09	22
211.0729	14
211.0961	10
212.1048	193
213.0938	193
215.1039	30
221.083	27
222.0894	10
223.0983	18
224.1054	113
225.0901	89
226.0856	123
227.1019	63
228.1018	37
228.1367	36
229.0829	16
238.1211	21
239.1037	47
240.1006	102
241.1083	999
242.1159	36
243.1244	11
248.1057	19
249.1137	16
252.0991	29
254.0804	12
254.117	51
255.0992	20
255.1205	33
256.1323	548
265.108	23
266.1177	63
267.1008	18
268.0938	29
269.1055	25
270.1132	35
270.1486	34
280.1325	34
282.1102	29
283.1195	46
298.1437	524
316.1539	17
