Mass spectrum: Crotamiton; LC-ESI-QTOF; MS2; 30 V
Name: Crotamiton
Formula: C13H17NO
Exact mass: 203.131
SMILES: CCN(C1=CC=CC=C1C)C(=O)C=CC
InChI: InChI=1S/C13H17NO/c1-4-8-13(15)14(5-2)12-10-7-6-9-11(12)3/h4,6-10H,5H2,1-3H3
Instrument: TripleTOF 6600 SCIEX
Instrument type: LC-ESI-QTOF
Ms type: MS2
Ion mode: POSITIVE
Collision energy: 30
Fragmentation mode: CID
Ionization: ESI
Column name: Zorbax Eclipse Plus C18 2.1 mm x 150 mm, 3.5 um, Agilent
Retention time: 11.073 min
Precursor m/z: 204.1383
Precursor type: [M+H]+
m/z	relative intensity
39.0232	29
41.0389	76
68.0494	132
69.0338	999
91.054	100
93.0567	22
96.0806	52
105.0694	10
106.065	127
107.0727	59
108.0806	157
116.049	16
119.0739	10
121.0882	91
130.0641	11
134.062	406
136.1121	521
143.0725	14
158.0962	89
162.091	28
204.1386	214
