Mass spectrum: Didesmethyl-citalopram; LC-ESI-QTOF; MS2; 100 V
Name: Didesmethyl-citalopram
Class: Pharmaceutical; Metabolite; Transformation_product-Metabolite
Formula: C18H17FN2O
Exact mass: 296.1325
SMILES: c1cc(ccc1C2(c3ccc(cc3CO2)C#N)CCCN)F
InChI: InChI=1S/C18H17FN2O/c19-16-5-3-15(4-6-16)18(8-1-9-20)17-7-2-13(11-21)10-14(17)12-22-18/h2-7,10H,1,8-9,12,20H2
Instrument: TripleTOF 5600 SCIEX
Instrument type: LC-ESI-QTOF
Ms type: MS2
Ion mode: POSITIVE
Collision energy: 100
Fragmentation mode: CID
Ionization: ESI
Column name: Zorbax Eclipse Plus C18 2.1 mm x 150 mm, 3.5 um, Agilent
Retention time: 7.575 min
Precursor m/z: 297.1398
Precursor type: [M+H]+
m/z	relative intensity
51.0276	20
57.0195	302
59.0339	72
65.0417	23
74.0186	68
75.0257	138
76.0349	13
77.0406	81
81.0157	31
83.0315	999
86.0184	15
87.0239	60
88.0213	52
89.0407	388
90.0345	33
94.0243	12
95.0299	30
96.038	19
98.0163	53
99.0234	64
100.0323	11
101.039	38
102.0465	19
107.0286	49
109.0451	654
110.0164	11
111.0238	11
113.038	177
114.0337	60
115.0532	88
116.0497	55
120.0371	26
122.0157	13
123.0235	39
125.0396	30
126.0466	41
127.0522	46
128.0627	34
131.0287	19
133.0443	114
137.0408	23
139.0533	52
140.0492	191
144.0359	37
145.0457	15
146.0155	9
146.0517	30
147.0196	11
148.0246	11
149.0389	74
150.0456	107
151.0512	20
152.0598	27
157.0474	44
158.0413	19
161.0392	60
162.0449	34
163.0547	100
164.0498	56
167.0283	20
168.0361	136
169.0441	64
170.0517	63
173.0392	46
174.0446	127
175.0492	78
176.0577	22
177.0595	30
179.0302	24
180.0353	44
181.0441	220
182.044	49
183.0587	23
185.0362	27
186.046	45
187.0543	174
188.0499	127
189.0682	38
190.0642	30
192.0362	70
193.0444	52
194.0522	147
195.0452	28
195.0603	11
197.0403	53
198.0458	231
199.0541	235
200.0609	189
201.0608	70
202.0756	16
204.0367	22
205.044	188
206.0465	134
207.0596	166
208.055	88
211.0521	93
212.0521	130
213.0675	151
214.0643	92
216.038	52
217.0441	162
218.0517	674
219.0529	160
220.0674	111
221.065	23
222.0372	11
223.0451	35
224.0501	92
225.0562	276
226.0639	45
227.0701	35
229.0437	16
230.0446	57
231.0602	141
232.0555	122
233.0754	34
236.0477	22
237.0566	13
238.065	148
239.0708	12
240.0789	15
242.0535	37
243.0481	149
244.056	180
245.0639	348
256.0547	37
258.0707	53
