Mass spectrum: Dimethomorph; LC-ESI-QTOF; MS2; 80 V
Name: Dimethomorph
Class: Fungicide
Formula: C21H22ClNO4
Exact mass: 387.1237
SMILES: COc1ccc(cc1OC)/C(=C\C(=O)N2CCOCC2)/c3ccc(cc3)Cl
InChI: InChI=1S/C21H22ClNO4/c1-25-19-8-5-16(13-20(19)26-2)18(15-3-6-17(22)7-4-15)14-21(24)23-9-11-27-12-10-23/h3-8,13-14H,9-12H2,1-2H3/b18-14-
Instrument: TripleTOF 5600 SCIEX
Instrument type: LC-ESI-QTOF
Ms type: MS2
Ion mode: POSITIVE
Collision energy: 80
Fragmentation mode: CID
Ionization: ESI
Column name: Zorbax Eclipse Plus C18 2.1 mm x 150 mm, 3.5 um, Agilent
Retention time: 11.552 min
Precursor m/z: 388.131
Precursor type: [M+H]+
m/z	relative intensity
42.0415	39
65.0434	18
66.0498	59
70.0321	92
74.0199	12
75.026	47
77.041	236
79.0563	72
89.0398	61
90.0464	14
92.0259	39
93.0352	13
94.0419	85
99.0005	28
102.046	17
105.0339	12
107.0127	32
109.0643	31
110.9997	345
115.0537	11
121.0274	122
122.0357	135
125.0151	184
126.0477	13
128.0621	10
131.0477	10
137.0579	69
138.9944	151
139.0531	13
141.069	12
149.0154	17
150.0436	25
151.0533	121
152.0618	999
162.9956	25
163.0537	110
164.0619	252
165.069	711
166.0768	143
167.0848	109
176.0614	236
177.0683	150
178.0769	278
179.0838	25
180.0563	109
181.0638	12
186.0211	19
187.0302	105
189.0686	13
192.0559	51
193.0633	22
194.072	113
195.0791	104
198.0229	14
199.0304	817
201.0445	24
205.0628	23
207.0792	16
208.0506	18
211.0303	15
212.0377	108
215.0241	189
221.0596	11
222.0652	12
223.0735	28
226.0138	14
227.0247	372
228.0318	50
229.0401	22
235.074	12
238.1005	9
239.0251	16
241.041	45
242.0476	76
243.019	118
257.0335	19
258.0419	12
