Mass spectrum: N-Isopropyl-N'-phenyl-p-phenylenediamine; LC-ESI-QTOF; MS2; 100 V
Name: N-Isopropyl-N'-phenyl-p-phenylenediamine
Class: Industrial_process
Formula: C15H18N2
Exact mass: 226.147
SMILES: CC(C)Nc1ccc(cc1)Nc2ccccc2
InChI: InChI=1S/C15H18N2/c1-12(2)16-14-8-10-15(11-9-14)17-13-6-4-3-5-7-13/h3-12,16-17H,1-2H3
Instrument: TripleTOF 6600 SCIEX
Instrument type: LC-ESI-QTOF
Ms type: MS2
Ion mode: POSITIVE
Collision energy: 100
Fragmentation mode: CID
Ionization: ESI
Column name: Zorbax Eclipse Plus C18 2.1 mm x 150 mm, 3.5 um, Agilent
Retention time: 7.24 min
Precursor m/z: 227.1543
Precursor type: [M+H]+
m/z	relative intensity
37.0065	33
38.0147	26
39.0223	179
50.0142	55
51.0222	160
52.0176	17
52.0294	26
53.038	545
54.0338	60
61.006	21
62.014	73
63.0222	234
64.0174	22
64.0283	13
65.0374	120
66.0329	11
66.0451	42
74.0142	22
75.0219	26
77.0372	176
78.0334	57
78.0445	12
79.0409	20
80.0485	999
87.0215	20
88.0293	13
89.0372	146
90.0328	43
90.0454	16
91.0393	26
92.0471	22
93.0547	17
101.0388	21
102.0443	26
103.0531	12
105.0441	18
107.059	67
113.0375	91
114.0377	31
115.0529	86
116.0507	20
117.0549	11
126.0426	15
127.0533	81
128.0496	48
128.0606	41
130.0605	12
137.038	13
138.0413	13
139.052	172
140.0491	125
141.054	16
154.0624	61
164.0453	26
166.0622	43
167.0697	18
168.072	12
181.0724	25
