Mass spectrum: Norethynodrel; LC-ESI-QTOF; MS2; 110 V
Name: Norethynodrel
Class: Pharmaceutical
Formula: C20H26O2
Exact mass: 298.1933
SMILES: C[C@]12CC[C@H]3[C@@H](CCC4=C3CCC(=O)C4)[C@@H]1CC[C@@]2(O)C#C
InChI: InChI=1S/C20H26O2/c1-3-20(22)11-9-18-17-6-4-13-12-14(21)5-7-15(13)16(17)8-10-19(18,20)2/h1,16-18,22H,4-12H2,2H3/t16-,17-,18+,19+,20+/m1/s1
Instrument: TripleTOF 5600 SCIEX
Instrument type: LC-ESI-QTOF
Ms type: MS2
Ion mode: POSITIVE
Collision energy: 110
Fragmentation mode: CID
Ionization: ESI
Column name: Zorbax Eclipse Plus C18 2.1 mm x 150 mm, 3.5 um, Agilent
Retention time: 11.133 min
Precursor m/z: 299.2006
Precursor type: [M+H]+
m/z	relative intensity
43.0271	31
53.0447	71
55.0241	35
55.0591	59
65.043	388
66.0491	19
67.0581	42
74.0176	14
75.0259	22
76.036	14
77.0421	999
78.0491	105
79.0565	263
81.0344	17
81.071	52
83.0502	96
89.0401	94
91.0555	549
94.0429	24
101.0384	14
102.0457	103
103.0533	54
105.07	26
107.0503	24
109.0632	29
114.0525	12
115.054	646
116.0609	21
117.0698	31
126.0468	40
127.0522	163
128.0616	347
129.0694	36
139.0534	28
141.0695	63
150.0441	14
151.052	35
152.0621	115
153.0685	33
163.0532	28
164.0626	24
165.0687	86
176.0625	24
177.069	12
178.0762	21
189.0691	24
202.0791	15
