Mass spectrum: Budesonide; LC-ESI-QTOF; MS2; 90 V
Name: Budesonide
Class: Pharmaceutical
Formula: C25H34O6
Exact mass: 430.2355
SMILES: CCC[C@@H]1O[C@@H]2C[C@H]3[C@@H]4CCC5=CC(=O)C=C[C@]5(C)[C@H]4[C@@H](O)C[C@]3(C)[C@@]2(O1)C(=O)CO
InChI: InChI=1S/C25H34O6/c1-4-5-21-30-20-11-17-16-7-6-14-10-15(27)8-9-23(14,2)22(16)18(28)12-24(17,3)25(20,31-21)19(29)13-26/h8-10,16-18,20-22,26,28H,4-7,11-13H2,1-3H3/t16-,17-,18-,20+,21+,22+,23-,24-,25+/m0/s1
Instrument: TripleTOF 5600 SCIEX
Instrument type: LC-ESI-QTOF
Ms type: MS2
Ion mode: POSITIVE
Collision energy: 90
Fragmentation mode: CID
Ionization: ESI
Column name: Zorbax Eclipse Plus C18 2.1 mm x 150 mm, 3.5 um, Agilent
Retention time: 11.041 min
Precursor m/z: 431.2428
Precursor type: [M+H]+
m/z	relative intensity
77.0405	490
79.0562	181
81.0727	108
91.0561	999
103.0551	145
104.0609	90
105.0689	163
107.0488	217
115.053	526
116.0644	127
117.0701	272
119.0858	290
121.0647	526
127.0535	217
128.0619	653
129.0693	363
130.0756	127
131.0489	272
131.09	72
132.057	381
141.0698	254
143.0863	72
144.0563	108
145.0643	199
147.0797	399
152.0617	345
153.0713	308
154.0771	108
155.0863	272
157.0637	308
158.0719	544
159.0801	90
165.0686	672
166.0778	108
167.0837	163
169.064	145
171.08	308
177.0689	108
178.0782	472
179.085	308
181.0637	345
181.0958	90
182.0712	199
183.0805	127
189.067	181
190.0786	145
191.0847	326
192.0897	236
193.1009	127
194.0725	181
195.0796	381
196.0849	108
197.0935	72
202.0764	254
203.0862	163
205.0643	90
205.0975	72
206.0685	90
207.08	181
208.086	127
209.0958	217
215.0853	272
217.1015	90
218.0711	108
219.0788	145
221.0989	108
227.0874	72
229.1015	108
231.0797	108
232.0881	90
233.0972	108
234.1066	108
