Mass spectrum: Ranitidine; LC-ESI-QTOF; MS2; 60 V
Name: Ranitidine
Class: Pharmaceutical
Formula: C13H22N4O3S
Exact mass: 314.1413
SMILES: CNC(=C[N+](=O)[O-])NCCSCC1=CC=C(O1)CN(C)C
InChI: InChI=1S/C13H22N4O3S/c1-14-13(9-17(18)19)15-6-7-21-10-12-5-4-11(20-12)8-16(2)3/h4-5,9,14-15H,6-8,10H2,1-3H3
Instrument: TripleTOF 5600 SCIEX
Instrument type: LC-ESI-QTOF
Ms type: MS2
Ion mode: NEGATIVE
Collision energy: 60
Fragmentation mode: CID
Ionization: ESI
Column name: Zorbax Eclipse Plus C18 2.1 mm x 150 mm, 3.5 um, Agilent
Retention time: 4.832 min
Precursor m/z: 313.134
Precursor type: [M-H]-
m/z	relative intensity
42.0018	105
42.0185	78
45.9964	368
55.0322	131
60.0106	446
69.0113	78
85.0057	105
97.0106	131
110.9922	210
112	999
116.0461	315
124.9927	52
140.0138	78
142.0634	78
170.0619	52
