Mass spectrum: Dimoxystrobin; LC-ESI-QTOF; MS2; 110 V
Name: Dimoxystrobin
Class: Fungicide
Formula: C19H22N2O3
Exact mass: 326.163
SMILES: CC1=CC(=C(C=C1)C)OCC2=CC=CC=C2C(=NOC)C(=O)NC
InChI: InChI=1S/C19H22N2O3/c1-13-9-10-14(2)17(11-13)24-12-15-7-5-6-8-16(15)18(21-23-4)19(22)20-3/h5-11H,12H2,1-4H3,(H,20,22)
Instrument: TripleTOF 6600 SCIEX
Instrument type: LC-ESI-QTOF
Ms type: MS2
Ion mode: POSITIVE
Collision energy: 110
Fragmentation mode: CID
Ionization: ESI
Column name: Zorbax Eclipse Plus C18 2.1 mm x 150 mm, 3.5 um, Agilent
Retention time: 13.184 min
Precursor m/z: 327.1703
Precursor type: [M+H]+
m/z	relative intensity
37.008	28
38.016	19
39.0241	139
41.039	14
50.016	21
51.0237	37
58.0298	372
61.0079	63
62.0161	161
63.024	901
64.0193	132
65.0393	76
66.0345	13
75.0248	14
77.0396	54
88.0187	35
89.0396	999
90.035	77
90.0462	78
91.0541	27
114.0352	10
115.0545	15
116.0499	66
117.0575	20
128.0531	12
139.0555	13
150.0472	15
151.0544	30
152.0624	46
163.0562	15
164.0633	22
165.0706	41
176.0611	39
177.0699	10
178.0775	15
189.0707	16
190.0652	10
