Mass spectrum: Icaridin; LC-ESI-QTOF; MS2; 130 V
Name: Icaridin
Class: Insecticide; Biocide; Personal_care_product
Formula: C12H23NO3
Exact mass: 229.1678
SMILES: CCC(C)OC(=O)N1CCCCC1CCO
InChI: InChI=1S/C12H23NO3/c1-3-10(2)16-12(15)13-8-5-4-6-11(13)7-9-14/h10-11,14H,3-9H2,1-2H3
Instrument: TripleTOF 6600 SCIEX
Instrument type: LC-ESI-QTOF
Ms type: MS2
Ion mode: POSITIVE
Collision energy: 130
Fragmentation mode: CID
Ionization: ESI
Column name: Zorbax Eclipse Plus C18 2.1 mm x 150 mm, 3.5 um, Agilent
Retention time: 10.188 min
Precursor m/z: 230.1751
Precursor type: [M+H]+
m/z	relative intensity
37.0062	305
38.0137	333
39.0219	999
41.0372	111
