Mass spectrum: 4-Carboxy-9-acridanone; LC-ESI-QTOF; MS2; 110 V
Name: 4-Carboxy-9-acridanone
Class: Pharmaceutical; Antimicrobial
Formula: C14H9NO3
Exact mass: 239.0582
SMILES: c1ccc2c(c1)c(=O)c3cccc(c3[nH]2)C(=O)O
InChI: InChI=1S/C14H9NO3/c16-13-8-4-1-2-7-11(8)15-12-9(13)5-3-6-10(12)14(17)18/h1-7H,(H,15,16)(H,17,18)
Instrument: TripleTOF 5600 SCIEX
Instrument type: LC-ESI-QTOF
Ms type: MS2
Ion mode: POSITIVE
Collision energy: 110
Fragmentation mode: CID
Ionization: ESI
Column name: Zorbax Eclipse Plus C18 2.1 mm x 150 mm, 3.5 um, Agilent
Retention time: 8.816 min
Precursor m/z: 240.0655
Precursor type: [M+H]+
m/z	relative intensity
60.0076	42
62.0644	42
65.0431	220
74.0173	347
75.0257	157
76.0342	220
85.0101	126
86.0164	536
87.024	999
87.0531	42
88.0202	410
89.0399	904
90.0341	73
98.0157	178
99.0221	52
110.0143	73
111.0212	105
112.0195	42
113.0389	788
114.0324	189
115.0529	94
122.0156	52
137.0378	273
138.0307	42
138.0449	157
139.0529	199
140.0479	189
164.0488	126
