Mass spectrum: Tributylpentylammonium; LC-ESI-QTOF; MS2; 40 V
Name: Tributylpentylammonium
Formula: [C17H38N]+
Exact mass: 256.2999
SMILES: CCCCC[N+](CCCC)(CCCC)CCCC
InChI: InChI=1S/C17H38N/c1-5-9-13-17-18(14-10-6-2,15-11-7-3)16-12-8-4/h5-17H2,1-4H3/q+1
Instrument: TripleTOF 6600 SCIEX
Instrument type: LC-ESI-QTOF
Ms type: MS2
Ion mode: POSITIVE
Collision energy: 40
Fragmentation mode: CID
Ionization: ESI
Column name: Zorbax Eclipse Plus C18 2.1 mm x 150 mm, 3.5 um, Agilent
Retention time: 9.57 min
Precursor m/z: 256.2999
Precursor type: [M]+
m/z	relative intensity
57.0738	68
58.0693	378
100.1146	999
114.1298	213
130.1611	109
142.1614	865
144.1763	65
156.1768	668
184.2069	55
186.2229	141
198.2225	168
200.2385	318
256.2998	762
