Mass spectrum: Flutriafol; LC-ESI-QTOF; MS2; 150 V
Name: Flutriafol
Class: Fungicide
Formula: C16H13F2N3O
Exact mass: 301.1027
SMILES: C1=CC=C(C(=C1)C(CN2C=NC=N2)(C3=CC=C(C=C3)F)O)F
InChI: InChI=1S/C16H13F2N3O/c17-13-7-5-12(6-8-13)16(22,9-21-11-19-10-20-21)14-3-1-2-4-15(14)18/h1-8,10-11,22H,9H2
Instrument: TripleTOF 6600 SCIEX
Instrument type: LC-ESI-QTOF
Ms type: MS2
Ion mode: POSITIVE
Collision energy: 150
Fragmentation mode: CID
Ionization: ESI
Column name: Zorbax Eclipse Plus C18 2.1 mm x 150 mm, 3.5 um, Agilent
Retention time: 10.047 min
Precursor m/z: 302.11
Precursor type: [M+H]+
m/z	relative intensity
30.9976	11
37.0076	16
38.0152	10
39.0229	21
42.0212	21
43.0291	126
49.0075	13
50.0152	51
51.0231	18
57.0132	52
61.0065	20
62.0149	29
63.0226	26
68.0049	16
69.0132	58
70.04	53
73.0071	152
74.015	999
75.0227	217
83.0285	14
98.0143	35
122.0143	31
146.0151	11
