Mass spectrum: Tetraconazole; LC-ESI-QTOF; MS2; 110 V
Name: Tetraconazole
Class: Fungicide
Formula: C13H11Cl2F4N3O
Exact mass: 371.0215
SMILES: C1=CC(=C(C=C1Cl)Cl)C(CN2C=NC=N2)COC(C(F)F)(F)F
InChI: InChI=1S/C13H11Cl2F4N3O/c14-9-1-2-10(11(15)3-9)8(4-22-7-20-6-21-22)5-23-13(18,19)12(16)17/h1-3,6-8,12H,4-5H2
Instrument: TripleTOF 6600 SCIEX
Instrument type: LC-ESI-QTOF
Ms type: MS2
Ion mode: POSITIVE
Collision energy: 110
Fragmentation mode: CID
Ionization: ESI
Column name: Zorbax Eclipse Plus C18 2.1 mm x 150 mm, 3.5 um, Agilent
Retention time: 12.382 min
Precursor m/z: 372.0288
Precursor type: [M+H]+
m/z	relative intensity
43.0286	53
51.0034	69
61.0066	15
62.0147	50
63.0224	130
70.0395	181
72.9837	264
82.9434	14
87.0225	16
88.03	50
89.0384	999
96.9833	89
98.999	150
107.028	11
113.0375	12
114.0452	17
115.0539	166
122.9991	293
124.0067	66
132.9597	64
133.0431	11
158.9759	67
