Mass spectrum: (2R,4S)-5-([1,1`-Biphenyl]-4-yl)-4-((tert-butoxycarbonyl)amino)-2-methylpentanoic acid; LC-ESI-QTOF; MS2; 140 V
Name: (2R,4S)-5-([1,1`-Biphenyl]-4-yl)-4-((tert-butoxycarbonyl)amino)-2-methylpentanoic acid
Formula: C23H29NO4
Exact mass: 383.2097
SMILES: CC(CC(CC1=CC=C(C=C1)C2=CC=CC=C2)NC(=O)OC(C)(C)C)C(=O)O
InChI: InChI=1S/C23H29NO4/c1-16(21(25)26)14-20(24-22(27)28-23(2,3)4)15-17-10-12-19(13-11-17)18-8-6-5-7-9-18/h5-13,16,20H,14-15H2,1-4H3,(H,24,27)(H,25,26)
Instrument: TripleTOF 6600 SCIEX
Instrument type: LC-ESI-QTOF
Ms type: MS2
Ion mode: POSITIVE
Collision energy: 140
Fragmentation mode: CID
Ionization: ESI
Column name: Zorbax Eclipse Plus C18 2.1 mm x 150 mm, 3.5 um, Agilent
Retention time: 13.143 min
Precursor m/z: 384.2169
Precursor type: [M+H]+
m/z	relative intensity
63.0207	111
65.0364	133
89.0344	199
91.0503	111
102.0429	133
115.052	377
126.0434	199
128.0589	133
139.0494	222
150.0432	421
151.046	244
151.0554	377
152.0569	821
163.0509	266
164.058	266
165.0653	688
176.0587	999
177.0673	199
189.0663	333
189.0802	88
