Mass spectrum: Losartan; LC-ESI-QTOF; MS2; 130 V
Name: Losartan
Class: Pharmaceutical
Formula: C22H23ClN6O
Exact mass: 422.1622
SMILES: CCCCc1nc(c(n1Cc2ccc(cc2)c3ccccc3c4n[nH]nn4)CO)Cl
InChI: InChI=1S/C22H23ClN6O/c1-2-3-8-20-24-21(23)19(14-30)29(20)13-15-9-11-16(12-10-15)17-6-4-5-7-18(17)22-25-27-28-26-22/h4-7,9-12,30H,2-3,8,13-14H2,1H3,(H,25,26,27,28)
Instrument: TripleTOF 5600 SCIEX
Instrument type: LC-ESI-QTOF
Ms type: MS2
Ion mode: POSITIVE
Collision energy: 130
Fragmentation mode: CID
Ionization: ESI
Column name: Zorbax Eclipse Plus C18 2.1 mm x 150 mm, 3.5 um, Agilent
Retention time: 9.819 min
Precursor m/z: 423.1695
Precursor type: [M+H]+
m/z	relative intensity
65.0428	16
74.0184	27
75.0257	70
76.0341	17
77.0418	202
78.0375	10
78.049	13
80.0522	21
86.0171	13
87.0254	38
88.0318	17
89.0402	107
98.0161	20
99.0226	44
100.0326	10
101.0393	63
102.0348	25
102.0468	38
110.0156	10
111.0224	17
113.0384	148
114.0347	29
114.0447	19
115.0544	168
116.0515	12
123.0228	17
125.0391	85
126.0467	168
127.0542	175
128.0496	42
128.0617	36
137.039	97
138.0443	83
139.0541	228
140.0492	223
141.0582	14
149.0395	51
150.0469	522
151.0544	999
152.062	850
153.0577	102
161.0388	40
162.0473	74
163.0542	421
164.0551	518
165.0442	9
165.0697	328
166.0641	38
175.0425	27
176.0549	133
177.0571	337
178.0648	319
179.0712	58
180.0839	17
187.0489	28
188.0495	149
189.0558	70
190.0649	171
191.0618	25
203.0633	19
204.0665	20
205.0762	172
212.0511	19
214.0644	13
