Mass spectrum: Hostavin VSU P; LC-ESI-QTOF; MS2; 70 V
Name: Hostavin VSU P
Formula: C18H20N2O3
Exact mass: 312.1474
SMILES: CCC1=CC=CC=C1NC(=O)C(=O)NC2=CC=CC=C2OCC
InChI: InChI=1S/C18H20N2O3/c1-3-13-9-5-6-10-14(13)19-17(21)18(22)20-15-11-7-8-12-16(15)23-4-2/h5-12H,3-4H2,1-2H3,(H,19,21)(H,20,22)
Instrument: TripleTOF 5600 SCIEX
Instrument type: LC-ESI-QTOF
Ms type: MS2
Ion mode: POSITIVE
Collision energy: 70
Fragmentation mode: CID
Ionization: ESI
Column name: Zorbax Eclipse Plus C18 2.1 mm x 150 mm, 3.5 um, Agilent
Retention time: 15.402 min
Precursor m/z: 313.1547
Precursor type: [M+H]+
m/z	relative intensity
65.0384	611
77.0386	715
79.0543	223
80.0493	954
91.0542	387
92.0487	298
93.0331	268
93.0566	164
93.068	89
94.0657	178
103.054	521
105.0728	104
106.0652	89
108.0445	342
109.0525	477
110.06	208
117.0583	104
118.0636	134
119.0707	59
120.0453	74
120.0814	387
122.0959	89
130.065	984
136.0383	999
