Mass spectrum: Sunitinib; LC-ESI-QTOF; MS2; 60 V
Name: Sunitinib
Class: Pharmaceutical
Formula: C22H27FN4O2
Exact mass: 398.2118
SMILES: CCN(CC)CCNC(=O)C1=C(NC(=C1C)C=C2C3=C(C=CC(=C3)F)NC2=O)C
InChI: InChI=1S/C22H27FN4O2/c1-5-27(6-2)10-9-24-22(29)20-13(3)19(25-14(20)4)12-17-16-11-15(23)7-8-18(16)26-21(17)28/h7-8,11-12,25H,5-6,9-10H2,1-4H3,(H,24,29)(H,26,28)
Instrument: TripleTOF 5600 SCIEX
Instrument type: LC-ESI-QTOF
Ms type: MS2
Ion mode: NEGATIVE
Collision energy: 60
Fragmentation mode: CID
Ionization: ESI
Column name: Zorbax Eclipse Plus C18 2.1 mm x 150 mm, 3.5 um, Agilent
Retention time: 6.516 min
Precursor m/z: 397.2045
Precursor type: [M-H]-
m/z	relative intensity
42.0024	210
94.0665	155
134.0422	66
149.0278	310
150.0348	88
162.0357	111
187.0255	77
188.0351	111
211.0717	111
212.0746	421
227.0976	155
236.0753	77
237.0845	155
238.0527	144
239.0638	266
240.0695	177
253.0789	532
254.0876	421
255.0936	999
268.1032	66
280.0869	99
281.0708	77
296.0865	621
310.1066	155
