Mass spectrum: Fenoxycarb; LC-ESI-QTOF; MS2; 120 V
Name: Fenoxycarb
Class: Insecticide
Formula: C17H19NO4
Exact mass: 301.1314
SMILES: CCOC(=O)NCCOc1ccc(Oc2ccccc2)cc1
InChI: InChI=1S/C17H19NO4/c1-2-20-17(19)18-12-13-21-14-8-10-16(11-9-14)22-15-6-4-3-5-7-15/h3-11H,2,12-13H2,1H3,(H,18,19)
Instrument: TripleTOF 5600 SCIEX
Instrument type: LC-ESI-QTOF
Ms type: MS2
Ion mode: POSITIVE
Collision energy: 120
Fragmentation mode: CID
Ionization: ESI
Column name: Zorbax Eclipse Plus C18 2.1 mm x 150 mm, 3.5 um, Agilent
Retention time: 13.067 min
Precursor m/z: 302.1387
Precursor type: [M+H]+
m/z	relative intensity
41.0371	16
42.0443	307
43.0505	25
44.0594	999
45.006	136
65.0435	315
66.0505	62
70.0326	92
74.0178	61
75.0261	56
76.0335	49
77.0418	668
78.0481	55
79.0565	13
81.0359	126
86.0171	17
87.0245	40
88.0411	755
89.0401	380
91.0556	323
94.0425	58
98.0152	13
101.0387	21
102.0467	134
103.0545	17
107.0482	15
110.0366	11
113.038	54
114.0464	25
115.0542	512
126.0458	52
127.0536	120
128.0619	259
131.0495	12
138.0468	18
139.0533	196
150.0454	49
151.0539	42
152.0615	34
163.0528	50
164.0615	28
165.0692	29
