Mass spectrum: Iotalamic acid; LC-ESI-QTOF; MS2; 60 V
Name: Iotalamic acid
Class: Pharmaceutical
Formula: C11H9I3N2O4
Exact mass: 613.7697
SMILES: CNC(c1c(I)c(C(O)=O)c(I)c(NC(C)=O)c1I)=O
InChI: InChI=1S/C11H9I3N2O4/c1-3(17)16-9-7(13)4(10(18)15-2)6(12)5(8(9)14)11(19)20/h1-2H3,(H,15,18)(H,16,17)(H,19,20)
Instrument: TripleTOF 5600 SCIEX
Instrument type: LC-ESI-QTOF
Ms type: MS2
Ion mode: POSITIVE
Collision energy: 60
Fragmentation mode: CID
Ionization: ESI
Column name: Zorbax Eclipse Plus C18 2.1 mm x 150 mm, 3.5 um, Agilent
Retention time: 4.565 min
Precursor m/z: 614.7769
Precursor type: [M+H]+
m/z	relative intensity
132.0431	22
133.0524	39
135.0325	22
146.0258	27
146.0479	50
158.0224	111
174.0163	44
176.0324	33
177.0418	999
187.05	94
191.0542	22
192.051	22
233.0535	33
245.9449	22
257.945	111
261.9305	44
272.9233	83
272.951	66
273.9375	128
283.919	33
284.9264	167
289.9279	111
300.9478	273
301.9311	881
302.9384	139
303.947	50
314.9581	27
318.9573	94
327.906	22
329.927	111
355.8375	22
360.9694	306
381.8232	27
383.8364	27
384.8414	33
387.8351	44
388.847	83
411.8339	100
415.8261	139
427.827	50
428.8411	44
440.8629	22
445.8656	66
455.8193	290
468.858	133
