Mass spectrum: Triisopropanolamine; LC-ESI-QTOF; MS2; 80 V
Name: Triisopropanolamine
Formula: C9H21NO3
Exact mass: 191.1521
SMILES: CC(CN(CC(C)O)CC(C)O)O
InChI: InChI=1S/C9H21NO3/c1-7(11)4-10(5-8(2)12)6-9(3)13/h7-9,11-13H,4-6H2,1-3H3
Instrument: TripleTOF 6600 SCIEX
Instrument type: LC-ESI-QTOF
Ms type: MS2
Ion mode: POSITIVE
Collision energy: 80
Fragmentation mode: CID
Ionization: ESI
Column name: Zorbax Eclipse Plus C18 2.1 mm x 150 mm, 3.5 um, Agilent
Retention time: 2.182 min
Precursor m/z: 192.1594
Precursor type: [M+H]+
m/z	relative intensity
31.0183	305
35.9995	24
37.0079	199
38.0156	142
39.0235	999
41.0267	12
41.0391	351
42.0342	257
43.0179	169
43.0419	30
44.0501	15
54.0339	33
56.0497	24
57.0572	12
58.0642	18
59.0498	15
67.0418	18
68.049	66
70.0679	21
80.0478	15
82.0655	21
