Mass spectrum: Hydroxyatenolol; LC-ESI-QTOF; MS2; 40 V
Name: Hydroxyatenolol
Class: Pharmaceutical
Formula: C14H22N2O4
Exact mass: 282.158
SMILES: CC(C)NCC(COc1ccc(cc1)C(C(=O)N)O)O
InChI: InChI=1S/C14H22N2O4/c1-9(2)16-7-11(17)8-20-12-5-3-10(4-6-12)13(18)14(15)19/h3-6,9,11,13,16-18H,7-8H2,1-2H3,(H2,15,19)
Instrument: TripleTOF 5600 SCIEX
Instrument type: LC-ESI-QTOF
Ms type: MS2
Ion mode: POSITIVE
Collision energy: 40
Fragmentation mode: CID
Ionization: ESI
Column name: Zorbax Eclipse Plus C18 2.1 mm x 150 mm, 3.5 um, Agilent
Retention time: 3.214 min
Precursor m/z: 283.1652
Precursor type: [M+H]+
m/z	relative intensity
56.0558	165
72.0839	103
74.0629	571
74.0915	27
95.0543	34
98.0968	62
116.1056	999
122.0602	151
133.0554	48
148.0739	27
160.0729	48
162.0548	62
283.1641	137
