Mass spectrum: Etofibrate; LC-ESI-QTOF; MS2; 130 V
Name: Etofibrate
Class: Pharmaceutical
Formula: C18H18ClNO5
Exact mass: 363.0874
SMILES: CC(C)(C(=O)OCCOC(=O)C1=CN=CC=C1)OC2=CC=C(C=C2)Cl
InChI: InChI=1S/C18H18ClNO5/c1-18(2,25-15-7-5-14(19)6-8-15)17(22)24-11-10-23-16(21)13-4-3-9-20-12-13/h3-9,12H,10-11H2,1-2H3
Instrument: TripleTOF 6600 SCIEX
Instrument type: LC-ESI-QTOF
Ms type: MS2
Ion mode: POSITIVE
Collision energy: 130
Fragmentation mode: CID
Ionization: ESI
Column name: Zorbax Eclipse Plus C18 2.1 mm x 150 mm, 3.5 um, Agilent
Retention time: 12.631 min
Precursor m/z: 364.0946
Precursor type: [M+H]+
m/z	relative intensity
37.0063	37
38.0018	14
38.0143	32
39.0221	278
41.0378	230
42.0454	24
43.0163	19
45.0322	18
49.006	46
50.0139	273
51.0219	475
52.0177	286
52.0286	126
53.0375	335
55.0169	489
65.0373	47
66.0452	23
67.0405	14
69.0327	33
73.0055	18
73.0272	11
74.0137	224
75.0216	253
76.0293	14
77.0369	63
78.0327	999
79.0404	196
80.0481	491
84.9825	47
92.0484	25
93.0561	22
94.0388	28
99.0422	97
110.9973	19
124.038	27
