Mass spectrum: Kresoxim-methyl; LC-ESI-QTOF; MS2; 100 V
Name: Kresoxim-methyl
Class: Fungicide
Formula: C18H19NO4
Exact mass: 313.1314
SMILES: CC1=CC=CC=C1OCC2=CC=CC=C2C(=NOC)C(=O)OC
InChI: InChI=1S/C18H19NO4/c1-13-8-4-7-11-16(13)23-12-14-9-5-6-10-15(14)17(19-22-3)18(20)21-2/h4-11H,12H2,1-3H3
Instrument: TripleTOF 6600 SCIEX
Instrument type: LC-ESI-QTOF
Ms type: MS2
Ion mode: POSITIVE
Collision energy: 100
Fragmentation mode: CID
Ionization: ESI
Column name: Zorbax Eclipse Plus C18 2.1 mm x 150 mm, 3.5 um, Agilent
Retention time: 13.809 min
Precursor m/z: 314.1387
Precursor type: [M+H]+
m/z	relative intensity
39.0228	118
41.0384	16
51.0224	134
61.008	32
62.0154	61
63.0221	265
64.0286	20
65.0375	167
74.0136	40
75.0221	73
76.0312	20
77.0378	444
78.0459	53
86.015	16
87.0229	24
89.0379	786
90.0333	32
90.0452	114
91.0529	110
98.0149	20
99.0227	28
101.0373	32
102.0448	77
103.0531	57
104.0463	20
113.0365	73
114.0355	40
115.0533	309
116.0479	114
117.0545	36
123.0193	16
125.038	81
126.045	179
127.0526	159
128.0614	118
129.0403	24
130.0614	24
138.044	24
139.0534	285
140.0488	179
149.0373	53
150.0452	648
151.0536	999
152.0608	986
153.0637	85
154.064	16
155.0597	16
161.0446	20
162.0455	40
163.0548	301
164.0603	293
165.0688	615
166.0631	97
167.0734	61
169.0608	20
174.0447	53
175.0524	97
176.0603	530
177.0579	411
178.0783	334
179.0656	73
180.0779	57
187.056	36
188.0497	73
189.0658	81
190.0646	175
191.0752	138
192.08	69
193.0876	40
194.0694	24
201.056	57
202.0661	36
203.0697	20
