Mass spectrum: 1-Benzyl-3-methylimidazolium; LC-ESI-QTOF; MS2; 140 V
Name: 1-Benzyl-3-methylimidazolium
Formula: [C11H13N2]+
Exact mass: 173.1073
SMILES: C[N+]1=CN(C=C1)CC2=CC=CC=C2
InChI: InChI=1S/C11H13N2/c1-12-7-8-13(10-12)9-11-5-3-2-4-6-11/h2-8,10H,9H2,1H3/q+1
Instrument: TripleTOF 5600 SCIEX
Instrument type: LC-ESI-QTOF
Ms type: MS2
Ion mode: POSITIVE
Collision energy: 140
Fragmentation mode: CID
Ionization: ESI
Column name: Zorbax Eclipse Plus C18 2.1 mm x 150 mm, 3.5 um, Agilent
Retention time: 4.93 min
Precursor m/z: 173.1073
Precursor type: [M]+
m/z	relative intensity
36.0011	185
37.0078	740
38.0152	259
39.023	518
49.0072	370
50.0152	702
51.0226	148
60.0004	185
61.0072	999
62.015	814
63.0228	148
