Mass spectrum: Promethazine; LC-ESI-QTOF; MS2; 130 V
Name: Promethazine
Class: Pharmaceutical
Formula: C17H20N2S
Exact mass: 284.1347
SMILES: CC(CN1c2ccccc2Sc3c1cccc3)N(C)C
InChI: InChI=1S/C17H20N2S/c1-13(18(2)3)12-19-14-8-4-6-10-16(14)20-17-11-7-5-9-15(17)19/h4-11,13H,12H2,1-3H3
Instrument: TripleTOF 5600 SCIEX
Instrument type: LC-ESI-QTOF
Ms type: MS2
Ion mode: POSITIVE
Collision energy: 130
Fragmentation mode: CID
Ionization: ESI
Column name: Zorbax Eclipse Plus C18 2.1 mm x 150 mm, 3.5 um, Agilent
Retention time: 7.995 min
Precursor m/z: 285.142
Precursor type: [M+H]+
m/z	relative intensity
42.0443	130
43.0507	20
43.0592	10
44.0573	51
51.0309	274
54.04	10
56.0574	999
58.0709	76
60.0091	10
63.0519	20
65.044	64
67.9775	30
68.9852	591
69.9932	17
70.071	120
71.078	258
72.0882	15
73.0123	15
74.0196	245
74.046	12
75.0274	407
76.0225	12
76.0357	56
77.0434	578
78.0504	30
81.9903	115
84.085	12
85.0111	15
86.0179	84
86.0995	35
86.1144	12
87.0261	125
88.0211	12
88.0337	58
89.0423	217
90.0491	10
92.9821	115
94.9986	33
98.0174	94
99.0249	97
100.0322	35
101.0407	156
102.0362	28
102.0477	46
103.0591	25
106.9959	15
108.0061	40
109.0145	20
110.0176	20
111.025	33
112.0339	15
113.0403	189
114.037	48
114.0483	12
115.0563	69
121.0135	33
124.0306	10
125.0407	133
126.0485	340
127.0425	51
127.0563	107
128.0524	58
137.0407	69
138.0473	43
139.0569	158
140.0512	146
145.0112	17
146.0073	17
149.039	20
150.0489	169
151.0559	169
152.0574	192
153.0587	64
154.0694	10
162.0489	28
163.0558	133
164.0525	84
164.0803	15
165.0721	20
166.0724	10
169.0139	46
170.0261	12
171.0281	25
175.0543	12
176.0615	46
177.0601	43
178.0662	33
188.0557	28
189.0648	20
190.0708	56
191.0747	12
195.0265	23
196.0248	40
197.0435	12
202.0693	12
222.0424	28
