Mass spectrum: Tepraloxydim; LC-ESI-QTOF; MS2; 40 V
Name: Tepraloxydim
Class: Herbicide
Formula: C17H24ClNO4
Exact mass: 341.1394
SMILES: CCC(=NOCC=CCl)C1=C(CC(CC1=O)C2CCOCC2)O
InChI: InChI=1S/C17H24ClNO4/c1-2-14(19-23-7-3-6-18)17-15(20)10-13(11-16(17)21)12-4-8-22-9-5-12/h3,6,12-13,20H,2,4-5,7-11H2,1H3
Instrument: TripleTOF 6600 SCIEX
Instrument type: LC-ESI-QTOF
Ms type: MS2
Ion mode: POSITIVE
Collision energy: 40
Fragmentation mode: CID
Ionization: ESI
Column name: Zorbax Eclipse Plus C18 2.1 mm x 150 mm, 3.5 um, Agilent
Retention time: 12.248 min
Precursor m/z: 342.1467
Precursor type: [M+H]+
m/z	relative intensity
41.0378	17
43.0172	35
48.983	12
55.0168	15
55.0534	44
56.0488	19
58.0639	11
65.0379	18
67.0534	75
68.0483	29
69.0325	18
69.0692	19
70.0642	22
71.072	12
72.0435	22
72.0798	11
74.9982	69
77.0371	68
79.053	86
80.0481	19
81.0329	21
81.0689	72
82.0643	34
83.0481	139
84.0431	11
84.0795	14
91.0532	135
92.0487	14
93.0685	161
94.0645	78
95.0475	61
95.0846	31
96.0432	205
96.0793	17
97.0509	12
97.0634	29
98.0589	400
103.0532	45
105.0693	118
106.0638	18
107.0478	32
107.0842	54
108.0439	12
108.0548	14
108.079	129
109.028	12
109.0632	59
109.0992	12
110.0588	179
110.094	22
111.0423	51
111.0674	75
111.0799	14
112.0747	17
113.0823	35
114.0902	25
115.0529	21
117.0689	71
118.0633	22
119.048	25
119.0714	9
119.0836	79
120.0442	11
120.0802	44
121.0634	185
121.1004	17
122.0587	81
122.0955	12
123.0436	17
123.0792	21
124.038	86
124.0748	47
126.0543	15
128.0606	25
129.0693	32
130.0738	27
131.0843	51
132.0796	32
133.0634	37
133.0999	44
134.0586	24
134.0947	27
135.0433	11
135.08	45
135.1159	12
136.0748	233
137.0587	39
137.0827	35
138.0554	58
138.0902	219
139.0619	41
139.0735	28
140.0689	25
141.0691	14
142.0777	12
143.0845	39
144.0816	28
144.0929	12
145.0648	19
145.1003	54
146.0588	34
146.095	28
147.0431	38
147.0749	59
147.109	18
148.0743	96
148.1111	14
149.0584	199
149.0942	27
150.0904	38
151.0744	12
152.0696	39
153.0716	15
154.076	12
156.0911	17
157.0944	27
158.0947	28
159.0799	32
159.1164	25
160.0747	39
160.1109	38
161.0597	35
161.0818	11
161.0954	38
162.0537	18
162.091	49
162.1255	15
163.0637	14
163.1103	18
164.0696	229
164.1079	15
165.0899	35
166.0856	999
166.122	12
167.0937	35
169.1003	24
170.095	19
171.1031	11
172.0853	9
172.1095	12
173.0944	27
174.0907	19
175.0741	12
175.0979	18
175.111	18
176.0693	27
176.106	44
176.1437	9
177.0895	12
177.1228	17
178.087	9
178.1221	17
180.1369	25
186.0921	14
186.126	22
187.1108	27
188.1055	44
189.0892	18
189.1162	11
190.0844	22
190.1222	18
191.103	12
192.1012	15
194.1176	21
202.0847	12
202.1236	9
204.1007	21
204.1377	39
205.123	24
206.115	14
208.1329	41
214.1235	11
222.1129	11
222.1487	81
224.163	11
232.1335	17
234.1487	108
250.1442	81
252.1619	9
