Mass spectrum: Acetylsulfamethoxazole; LC-ESI-QTOF; MS2; 30 V
Name: Acetylsulfamethoxazole
Class: Metabolite; Pharmaceutical
Formula: C12H13N3O4S
Exact mass: 295.0627
SMILES: CC1=CC(=NO1)NS(=O)(=O)C2=CC=C(C=C2)NC(=O)C
InChI: InChI=1S/C12H13N3O4S/c1-8-7-12(14-19-8)15-20(17,18)11-5-3-10(4-6-11)13-9(2)16/h3-7H,1-2H3,(H,13,16)(H,14,15)
Instrument: TripleTOF 5600 SCIEX
Instrument type: LC-ESI-QTOF
Ms type: MS2
Ion mode: POSITIVE
Collision energy: 30
Fragmentation mode: CID
Ionization: ESI
Column name: Zorbax Eclipse Plus C18 2.1 mm x 150 mm, 3.5 um, Agilent
Retention time: 7.411 min
Precursor m/z: 296.07
Precursor type: [M+H]+
m/z	relative intensity
65.0451	105
92.0531	61
93.0363	153
93.0595	98
94.0672	48
99.0578	87
107.0619	17
108.0462	373
131.0636	11
132.0696	14
134.0609	999
135.0695	37
136.0763	225
146.0716	150
147.0801	102
148.0661	11
148.0872	37
149.0735	19
150.0544	105
156.0118	132
160.0872	266
161.0017	28
161.0717	12
162.0664	138
172.0855	15
176.0274	53
188.0818	270
189.0899	60
190.0968	94
194.0381	171
198.0218	657
201.0647	29
202.0995	19
216.0882	14
218.0373	17
236.048	39
296.0678	205
