Mass spectrum: Simazine; LC-ESI-QTOF; MS2; 10 V
Name: Simazine
Class: Herbicide
Formula: C7H12ClN5
Exact mass: 201.0781
SMILES: CCNc1nc(Cl)nc(NCC)n1
InChI: InChI=1S/C7H12ClN5/c1-3-9-6-11-5(8)12-7(13-6)10-4-2/h3-4H2,1-2H3,(H2,9,10,11,12,13)
Instrument: TripleTOF 5600 SCIEX
Instrument type: LC-ESI-QTOF
Ms type: MS2
Ion mode: POSITIVE
Collision energy: 10
Fragmentation mode: CID
Ionization: ESI
Column name: Zorbax Eclipse Plus C18 2.1 mm x 150 mm, 3.5 um, Agilent
Retention time: 8.925 min
Precursor m/z: 202.0854
Precursor type: [M+H]+
m/z	relative intensity
202.0844	999
