Mass spectrum: Amisulpride; LC-ESI-QTOF; MS2; 140 V
Name: Amisulpride
Class: Pharmaceutical
Formula: C17H27N3O4S
Exact mass: 369.1722
SMILES: CCN1CCCC1CNC(=O)c2cc(c(N)cc2OC)[S](=O)(=O)CC
InChI: InChI=1S/C17H27N3O4S/c1-4-20-8-6-7-12(20)11-19-17(21)13-9-16(25(22,23)5-2)14(18)10-15(13)24-3/h9-10,12H,4-8,11,18H2,1-3H3,(H,19,21)
Instrument: TripleTOF 5600 SCIEX
Instrument type: LC-ESI-QTOF
Ms type: MS2
Ion mode: POSITIVE
Collision energy: 140
Fragmentation mode: CID
Ionization: ESI
Column name: Zorbax Eclipse Plus C18 2.1 mm x 150 mm, 3.5 um, Agilent
Retention time: 5.568 min
Precursor m/z: 370.1795
Precursor type: [M+H]+
m/z	relative intensity
41.0345	75
42.0427	75
44.0219	25
51.0156	14
51.0295	582
52.025	886
53.0079	264
53.0448	143
54.0389	92
55.0221	47
55.03	25
55.0477	14
55.059	33
56.0544	123
56.985	36
57.9918	33
58.0321	11
58.0707	61
58.9985	19
62.0447	11
64.0344	315
65.0429	999
66.0503	627
67.0134	14
67.0467	84
67.0578	25
67.9773	14
68.0165	396
68.0523	67
68.9831	357
69.0131	14
69.0622	16
69.0749	14
69.9906	118
70.0294	11
70.0683	216
70.997	22
74.0179	47
75.0129	75
75.0255	78
76.0208	444
77.0046	73
77.0287	47
77.0398	67
78.0128	42
78.0365	458
78.0683	14
79.0196	106
79.032	14
79.044	129
79.9742	16
80.0153	154
80.0522	59
80.9825	47
81.0366	39
81.9894	61
82.0672	47
82.9987	22
83.9913	14
84.0827	129
84.9776	25
88.0192	25
89.0283	53
90.0355	87
91.043	194
92.0508	222
92.9801	70
93.0362	14
93.058	22
93.9873	22
94.0299	157
94.9959	47
95.9906	19
96.999	42
97.9821	16
98.0981	70
104.0133	160
104.0478	14
106.0066	42
106.029	301
106.9834	47
107.0132	188
107.0371	28
107.9909	33
110.0047	11
112.1104	25
117.974	19
119.9906	33
120.0446	87
122.0033	28
124.994	14
132.0073	166
133.0143	36
149.0236	14
