Mass spectrum: Spirodiclofen-enol; LC-ESI-QTOF; MS2; 140 V
Name: Spirodiclofen-enol
Formula: C15H14Cl2O3
Exact mass: 312.032
SMILES: C1CCC2(CC1)C(=C(C(=O)O2)C3=C(C=C(C=C3)Cl)Cl)O
InChI: InChI=1S/C15H14Cl2O3/c16-9-4-5-10(11(17)8-9)12-13(18)15(20-14(12)19)6-2-1-3-7-15/h4-5,8,18H,1-3,6-7H2
Instrument: TripleTOF 6600 SCIEX
Instrument type: LC-ESI-QTOF
Ms type: MS2
Ion mode: POSITIVE
Collision energy: 140
Fragmentation mode: CID
Ionization: ESI
Column name: Zorbax Eclipse Plus C18 2.1 mm x 150 mm, 3.5 um, Agilent
Retention time: 12.261 min
Precursor m/z: 313.0393
Precursor type: [M+H]+
m/z	relative intensity
37.0071	61
38.0155	85
39.0232	232
41.0386	19
46.9684	81
50.0154	178
51.0228	185
59.9991	77
61.0072	344
62.0158	491
62.9636	19
63.0226	294
65.0373	42
70.967	15
71.976	131
72.9841	576
73.0072	135
74.0148	999
75.023	410
76.0298	73
77.0378	131
78.0463	15
82.9452	85
83.9989	65
84.983	23
85.0071	271
86.0147	805
87.0231	724
88.0302	69
89.0378	185
95.9753	89
96.9846	158
97.0064	23
98.0148	209
99.0218	61
102.0469	46
106.945	232
110.0133	23
111.0211	19
113.0367	100
114.0445	27
115.0536	100
121.991	38
125.0376	30
126.0467	81
127.0536	34
130.9453	19
137.0391	15
138.0449	27
139.0529	58
149.0376	23
150.0451	166
151.0534	112
152.0612	108
161.0355	23
162.0454	42
163.052	120
165.0681	19
174.0466	15
175.0566	15
176.062	108
179.0599	19
