Mass spectrum: Fluquinconazole; LC-ESI-QTOF; MS2; 150 V
Name: Fluquinconazole
Class: Fungicide
Formula: C16H8Cl2FN5O
Exact mass: 375.009
SMILES: C1=CC2=C(C=C1F)C(=O)N(C(=N2)N3C=NC=N3)C4=C(C=C(C=C4)Cl)Cl
InChI: InChI=1S/C16H8Cl2FN5O/c17-9-1-4-14(12(18)5-9)24-15(25)11-6-10(19)2-3-13(11)22-16(24)23-8-20-7-21-23/h1-8H
Instrument: TripleTOF 6600 SCIEX
Instrument type: LC-ESI-QTOF
Ms type: MS2
Ion mode: POSITIVE
Collision energy: 150
Fragmentation mode: CID
Ionization: ESI
Column name: Zorbax Eclipse Plus C18 2.1 mm x 150 mm, 3.5 um, Agilent
Retention time: 12.549 min
Precursor m/z: 376.0163
Precursor type: [M+H]+
m/z	relative intensity
30.9977	272
33.0128	58
37.0067	101
38.0149	26
39.0224	32
46.9673	64
48.983	80
50.0148	80
57.0132	817
58.0081	133
59.9988	32
61.0066	256
62.0027	42
62.014	85
63.0215	48
64.0167	256
68.0043	26
72.9833	272
73.0055	186
74.0144	860
75.008	26
75.0218	74
76.018	32
81.0123	277
82.0082	999
82.9424	58
83.9745	42
84.983	26
87.0104	64
88.0182	80
94.0201	32
96.9829	42
97.9791	32
99.0089	395
100.0174	224
105.0113	26
106.0088	42
107.0284	32
108.024	154
108.9819	69
132.9582	32
135.0106	32
155.024	37
180.0189	32
182.0396	32
