Mass spectrum: 4-(Dimethylamino)azobenzene; LC-ESI-QTOF; MS2; 120 V
Name: 4-(Dimethylamino)azobenzene
Formula: C14H15N3
Exact mass: 225.1266
SMILES: CN(C)C1=CC=C(C=C1)N=NC2=CC=CC=C2
InChI: InChI=1S/C14H15N3/c1-17(2)14-10-8-13(9-11-14)16-15-12-6-4-3-5-7-12/h3-11H,1-2H3
Instrument: TripleTOF 6600 SCIEX
Instrument type: LC-ESI-QTOF
Ms type: MS2
Ion mode: POSITIVE
Collision energy: 120
Fragmentation mode: CID
Ionization: ESI
Column name: Zorbax Eclipse Plus C18 2.1 mm x 150 mm, 3.5 um, Agilent
Retention time: 15.513 min
Precursor m/z: 226.1339
Precursor type: [M+H]+
m/z	relative intensity
35.9983	11
37.0066	86
38.0142	66
39.0224	224
41.0254	12
42.0326	34
49.0064	99
50.0145	808
51.0223	999
52.0173	38
61.006	25
62.0137	48
63.0217	149
64.0172	38
64.0295	18
65.037	49
66.0322	11
67.0406	19
74.0138	54
75.0214	14
76.0167	18
77.0373	244
78.0324	15
80.0484	14
90.0321	11
91.0401	27
104.0473	20
