Mass spectrum: Clodinafop-Propargyl; LC-ESI-QTOF; MS2; 140 V
Name: Clodinafop-Propargyl
Class: Herbicide
Formula: C17H13ClFNO4
Exact mass: 349.0517
SMILES: CC(C(=O)OCC#C)OC1=CC=C(C=C1)OC2=C(C=C(C=N2)Cl)F
InChI: InChI=1S/C17H13ClFNO4/c1-3-8-22-17(21)11(2)23-13-4-6-14(7-5-13)24-16-15(19)9-12(18)10-20-16/h1,4-7,9-11H,8H2,2H3
Instrument: TripleTOF 6600 SCIEX
Instrument type: LC-ESI-QTOF
Ms type: MS2
Ion mode: POSITIVE
Collision energy: 140
Fragmentation mode: CID
Ionization: ESI
Column name: Zorbax Eclipse Plus C18 2.1 mm x 150 mm, 3.5 um, Agilent
Retention time: 13.951 min
Precursor m/z: 350.059
Precursor type: [M+H]+
m/z	relative intensity
37.0059	249
38.0144	208
39.0218	416
50.0135	666
51.0212	790
57.0116	208
61.0062	291
62.0133	666
63.0212	790
65.0368	249
68.0047	208
69.0115	333
73.0051	166
74.0132	832
75.0091	999
75.0211	707
76.0163	291
77.0364	166
81.0116	208
109.9775	208
131.0271	208
