Mass spectrum: Tetraglyme; LC-ESI-QTOF; MS2; 90 V
Name: Tetraglyme
Class: Industrial_process
Formula: C10H22O5
Exact mass: 222.1467
SMILES: COCCOCCOCCOCCOC
InChI: InChI=1S/C10H22O5/c1-11-3-5-13-7-9-15-10-8-14-6-4-12-2/h3-10H2,1-2H3
Instrument: TripleTOF 5600 SCIEX
Instrument type: LC-ESI-QTOF
Ms type: MS2
Ion mode: POSITIVE
Collision energy: 90
Fragmentation mode: CID
Ionization: ESI
Column name: Zorbax Eclipse Plus C18 2.1 mm x 150 mm, 3.5 um, Agilent
Retention time: 6.006 min
Precursor m/z: 223.154
Precursor type: [M+H]+
m/z	relative intensity
43.0257	161
59.0551	999
