Mass spectrum: Chloromethyltriphenylphosphonium; LC-ESI-QTOF; MS2; 140 V
Name: Chloromethyltriphenylphosphonium
Class: Industrial_process
Formula: [C19H17ClP]+
Exact mass: 311.0751
SMILES: C1=CC=C(C=C1)[P+](CCl)(C2=CC=CC=C2)C3=CC=CC=C3
InChI: InChI=1S/C19H17ClP/c20-16-21(17-10-4-1-5-11-17,18-12-6-2-7-13-18)19-14-8-3-9-15-19/h1-15H,16H2/q+1
Instrument: TripleTOF 5600 SCIEX
Instrument type: LC-ESI-QTOF
Ms type: MS2
Ion mode: POSITIVE
Collision energy: 140
Fragmentation mode: CID
Ionization: ESI
Column name: Zorbax Eclipse Plus C18 2.1 mm x 150 mm, 3.5 um, Agilent
Retention time: 7.338 min
Precursor m/z: 311.0751
Precursor type: [M]+
m/z	relative intensity
39.0235	58
50.0151	56
51.0231	75
56.9889	107
63.0228	237
65.0381	109
74.0144	90
76.03	99
77.0374	91
78.9723	79
79.98	291
80.9876	415
86.0129	50
87.0214	107
89.0371	415
91.9788	54
98.0135	75
102.0449	152
103.9797	91
104.9869	63
107.0032	999
113.0371	137
115.053	299
125.037	67
126.0453	363
131.0037	154
133.0195	50
139.0539	224
150.0459	332
151.0538	600
152.0616	546
155.0042	129
156.011	103
157.0205	324
179.0048	96
180.0125	124
181.0203	512
