Mass spectrum: Benzoylecgonine; LC-ESI-QTOF; MS2; 120 V
Name: Benzoylecgonine
Class: Pharmaceutical; Metabolite; Transformation_product
Formula: C16H19NO4
Exact mass: 289.1314
SMILES: CN1C2CCC1[C@H]([C@H](C2)OC(=O)c3ccccc3)C(O)=O
InChI: InChI=1S/C16H19NO4/c1-17-11-7-8-12(17)14(15(18)19)13(9-11)21-16(20)10-5-3-2-4-6-10/h2-6,11-14H,7-9H2,1H3,(H,18,19)/t11?,12?,13-,14+/m0/s1
Instrument: TripleTOF 5600 SCIEX
Instrument type: LC-ESI-QTOF
Ms type: MS2
Ion mode: POSITIVE
Collision energy: 120
Fragmentation mode: CID
Ionization: ESI
Column name: Zorbax Eclipse Plus C18 2.1 mm x 150 mm, 3.5 um, Agilent
Retention time: 5.641 min
Precursor m/z: 290.1387
Precursor type: [M+H]+
m/z	relative intensity
56.0635	11
65.0429	83
67.0465	130
68.0537	57
77.0425	999
77.0778	17
79.0474	20
80.0541	31
82.0684	159
91.0558	34
94.0674	52
105.0333	20
105.0423	17
