Mass spectrum: Ketoconazole; LC-ESI-QTOF; MS2; 140 V
Name: Ketoconazole
Class: Fungicide; Pharmaceutical
Formula: C26H28Cl2N4O4
Exact mass: 530.1488
SMILES: CC(=O)N1CCN(CC1)C2=CC=C(C=C2)OCC3COC(O3)(CN4C=CN=C4)C5=C(C=C(C=C5)Cl)Cl
InChI: InChI=1S/C26H28Cl2N4O4/c1-19(33)31-10-12-32(13-11-31)21-3-5-22(6-4-21)34-15-23-16-35-26(36-23,17-30-9-8-29-18-30)24-7-2-20(27)14-25(24)28/h2-9,14,18,23H,10-13,15-17H2,1H3
Instrument: TripleTOF 5600 SCIEX
Instrument type: LC-ESI-QTOF
Ms type: MS2
Ion mode: POSITIVE
Collision energy: 140
Fragmentation mode: CID
Ionization: ESI
Column name: Zorbax Eclipse Plus C18 2.1 mm x 150 mm, 3.5 um, Agilent
Retention time: 7.94 min
Precursor m/z: 531.156
Precursor type: [M+H]+
m/z	relative intensity
42.0477	22
43.03	25
54.0432	105
55.0502	22
56.0576	25
65.0461	96
69.0508	67
70.0709	32
72.9907	28
74.0213	41
75.0313	19
77.043	236
78.0401	12
78.0529	16
79.0591	38
80.0524	19
81.0494	999
82.0566	214
83.0638	19
88.0339	16
89.0427	108
90.0483	19
91.0568	99
92.052	19
93.0375	86
93.0599	16
94.0447	57
99.0034	35
99.0253	108
101.0394	12
102.0454	16
103.0562	112
104.0547	25
106.0666	32
107.0505	32
108.9855	99
109.0425	22
111.0	19
114.049	25
115.0551	204
116.0615	25
117.0562	60
118.0656	48
120.0431	102
120.0804	19
121.0525	41
122.0603	51
123.0002	342
124.0083	48
125.016	16
127.0522	118
128.0611	57
130.0655	89
131.0506	54
131.0754	19
132.06	16
132.0826	22
132.9629	28
133.9915	25
134.0557	22
135.0006	86
136.0077	67
136.0758	22
141.0575	19
144.0799	22
144.9587	92
149.0149	41
154.0678	22
156.0839	19
158.0608	22
158.9761	153
163.0051	16
169.9678	86
172.9563	25
203.0326	19
