Mass spectrum: Metaflumizone; LC-ESI-QTOF; MS2; 140 V
Name: Metaflumizone
Class: Insecticide; Pharmaceutical
Formula: C24H16F6N4O2
Exact mass: 506.1177
SMILES: C1=CC(=CC(=C1)C(F)(F)F)C(=NNC(=O)NC2=CC=C(C=C2)OC(F)(F)F)CC3=CC=C(C=C3)C#N
InChI: InChI=1S/C24H16F6N4O2/c25-23(26,27)18-3-1-2-17(13-18)21(12-15-4-6-16(14-31)7-5-15)33-34-22(35)32-19-8-10-20(11-9-19)36-24(28,29)30/h1-11,13H,12H2,(H2,32,34,35)
Instrument: TripleTOF 6600 SCIEX
Instrument type: LC-ESI-QTOF
Ms type: MS2
Ion mode: POSITIVE
Collision energy: 140
Fragmentation mode: CID
Ionization: ESI
Column name: Zorbax Eclipse Plus C18 2.1 mm x 150 mm, 3.5 um, Agilent
Retention time: 15.496 min
Precursor m/z: 507.125
Precursor type: [M+H]+
m/z	relative intensity
37.0067	19
38.0151	16
39.0229	88
51.0225	14
53.0388	21
59.9986	23
61.007	66
62.0147	152
63.0228	552
64.0178	54
64.0302	21
65.0381	145
66.0332	11
66.0451	74
68.9944	100
73.0073	11
74.0149	109
75.0227	205
76.0181	14
76.0313	16
77.0382	16
78.0332	19
80.0488	133
81.0564	21
83.0281	19
87.0086	9
87.0227	38
88.0185	38
88.03	90
89.0385	999
90.0337	119
92.0239	16
92.0491	43
93.0568	205
95.0287	66
98.0145	31
99.022	50
102.0334	11
107.0294	11
108.0437	47
109.0445	19
113.0222	9
113.0378	23
114.0332	193
115.0414	121
116.0493	117
122.0145	23
123.0103	19
123.0214	28
123.034	21
124.0164	35
125.0196	33
125.0394	11
133.0435	19
137.0388	21
138.0357	31
139.0531	28
140.0487	126
142.0525	19
145.0255	86
147.0236	26
148.0185	9
149.0378	64
150.046	35
151.0383	31
151.0534	21
152.0301	11
152.0612	21
157.0461	19
158.0382	11
161.0382	19
162.0459	66
163.0539	406
164.0501	198
165.0687	38
166.0224	11
167.0294	35
168.0353	40
169.0422	16
172.0337	28
173.0381	62
174.0445	83
175.0469	52
176.0495	45
176.0609	31
177.0546	23
181.0444	59
182.0508	38
183.0591	26
186.0263	21
187.0364	31
188.0486	270
189.0567	203
190.0651	795
191.0311	16
191.0684	33
192.0362	109
192.0706	11
193.0392	105
194.0512	57
198.0331	23
199.0409	136
200.0473	83
201.0568	64
202.0664	33
203.0742	45
204.0555	14
205.0426	14
206.0394	35
207.0414	14
208.0552	45
211.0336	26
212.0446	95
213.0359	14
214.0566	26
215.0603	86
216.0682	76
217.0323	21
217.0756	23
218.04	62
218.0863	16
219.0476	129
220.0544	45
221.0582	19
225.0454	26
226.0511	38
227.0589	14
228.0568	31
230.0378	16
232.05	35
237.0384	28
238.0455	26
239.0553	66
244.0413	14
245.0503	35
246.0598	50
247.0642	19
250.0458	23
253.054	11
257.0442	16
258.0534	16
265.0547	14
270.0545	9
