Mass spectrum: 4-(2,4-Dichlorophenoxy)butanoic acid; LC-ESI-QTOF; MS2; 40 V
Name: 4-(2,4-Dichlorophenoxy)butanoic acid
Class: Herbicide
Formula: C10H10Cl2O3
Exact mass: 248.0007
SMILES: C1=CC(=C(C=C1Cl)Cl)OCCCC(=O)O
InChI: InChI=1S/C10H10Cl2O3/c11-7-3-4-9(8(12)6-7)15-5-1-2-10(13)14/h3-4,6H,1-2,5H2,(H,13,14)
Instrument: TripleTOF 6600 SCIEX
Instrument type: LC-ESI-QTOF
Ms type: MS2
Ion mode: POSITIVE
Collision energy: 40
Fragmentation mode: CID
Ionization: ESI
Column name: Zorbax Eclipse Plus C18 2.1 mm x 150 mm, 3.5 um, Agilent
Retention time: 11.685 min
Precursor m/z: 249.008
Precursor type: [M+H]+
m/z	relative intensity
37.0079	66
38.0141	66
39.0228	416
41.0387	949
43.018	599
43.0545	33
44.997	33
45.0332	999
69.0331	849
72.984	33
74.0151	16
75.0246	33
77.0371	33
79.0552	33
82.9436	16
87.0437	616
90.0424	16
91.053	66
99.0049	33
105.0668	16
108.9841	166
110.9996	266
112.0104	33
115.0542	33
119.0465	16
120.9534	16
125.0137	133
128.0025	33
132.9591	299
133.0566	16
133.0679	16
139.0039	66
139.0086	33
144.9609	133
146.9733	133
153.0079	33
154.0112	16
154.0206	33
160.9535	83
160.9989	16
172.9651	183
174.9678	183
188.9873	116
