Mass spectrum: Haloxyfop-2-ethoxyethyl; LC-ESI-QTOF; MS2; 30 V
Name: Haloxyfop-2-ethoxyethyl
Class: Herbicide
Formula: C19H19ClF3NO5
Exact mass: 433.0904
SMILES: CCOCCOC(=O)C(C)Oc1ccc(Oc2ncc(cc2Cl)C(F)(F)F)cc1
InChI: InChI=1S/C19H19ClF3NO5/c1-3-26-8-9-27-18(25)12(2)28-14-4-6-15(7-5-14)29-17-16(20)10-13(11-24-17)19(21,22)23/h4-7,10-12H,3,8-9H2,1-2H3
Instrument: TripleTOF 5600 SCIEX
Instrument type: LC-ESI-QTOF
Ms type: MS2
Ion mode: POSITIVE
Collision energy: 30
Fragmentation mode: CID
Ionization: ESI
Column name: Zorbax Eclipse Plus C18 2.1 mm x 150 mm, 3.5 um, Agilent
Retention time: 15.493 min
Precursor m/z: 434.0977
Precursor type: [M+H]+
m/z	relative intensity
73.0666	64
91.055	37
100.0508	13
119.0489	11
288.0388	112
316.0344	999
344.0311	55
388.0565	35
434.1011	22
