Mass spectrum: Triphenyl phosphate; LC-ESI-QTOF; MS2; 130 V
Name: Triphenyl phosphate
Class: Industrial_process
Formula: C18H15O4P
Exact mass: 326.0708
SMILES: C1=CC=C(C=C1)OP(=O)(OC2=CC=CC=C2)OC3=CC=CC=C3
InChI: InChI=1S/C18H15O4P/c19-23(20-16-10-4-1-5-11-16,21-17-12-6-2-7-13-17)22-18-14-8-3-9-15-18/h1-15H
Instrument: TripleTOF 5600 SCIEX
Instrument type: LC-ESI-QTOF
Ms type: MS2
Ion mode: POSITIVE
Collision energy: 130
Fragmentation mode: CID
Ionization: ESI
Column name: Zorbax Eclipse Plus C18 2.1 mm x 150 mm, 3.5 um, Agilent
Retention time: 14.07 min
Precursor m/z: 327.0781
Precursor type: [M+H]+
m/z	relative intensity
39.023	16
49.0078	33
50.0153	328
51.0233	999
63.0231	29
65.0388	20
74.0147	116
75.0227	95
76.0304	91
77.0391	503
78.0474	33
87.0224	20
89.0383	41
98.0156	74
99.0231	45
100.0336	29
101.0416	24
102.0455	83
113.0394	41
115.0546	37
125.0395	49
126.0469	241
139.0548	145
149.0391	45
150.0475	378
151.0548	253
152.063	95
200.0609	37
223.0523	33
224.0645	120
225.0749	20
