Mass spectrum: Valsartanic acid; LC-ESI-QTOF; MS2; 80 V
Name: Valsartanic acid
Class: Pharmaceutical; Transformation_product; Transformation_product-Metabolite
Formula: C14H10N4O2
Exact mass: 266.0804
SMILES: O=C(O)C(C=C1)=CC=C1C2=CC=CC=C2C3=NN=NN3
InChI: InChI=1S/C14H10N4O2/c19-14(20)10-7-5-9(6-8-10)11-3-1-2-4-12(11)13-15-17-18-16-13/h1-8H,(H,19,20)(H,15,16,17,18)
Instrument: TripleTOF 5600 SCIEX
Instrument type: LC-ESI-QTOF
Ms type: MS2
Ion mode: POSITIVE
Collision energy: 80
Fragmentation mode: CID
Ionization: ESI
Column name: Zorbax Eclipse Plus C18 2.1 mm x 150 mm, 3.5 um, Agilent
Retention time: 8.027 min
Precursor m/z: 267.0877
Precursor type: [M+H]+
m/z	relative intensity
51.0282	43
74.0171	21
75.0255	45
77.0412	152
77.0638	11
98.0153	15
99.0234	52
100.0301	12
101.0384	21
102.0466	12
113.0386	18
123.0221	16
124.031	10
125.0384	156
126.0455	40
127.0522	47
139.0549	24
140.0492	26
149.0392	95
150.0465	999
151.0538	723
152.0608	147
164.0481	27
165.0674	11
175.0403	42
176.0489	98
177.0573	493
178.0638	12
