Mass spectrum: Triisopropanolamine; LC-ESI-QTOF; MS2; 40 V
Name: Triisopropanolamine
Formula: C9H21NO3
Exact mass: 191.1521
SMILES: CC(CN(CC(C)O)CC(C)O)O
InChI: InChI=1S/C9H21NO3/c1-7(11)4-10(5-8(2)12)6-9(3)13/h7-9,11-13H,4-6H2,1-3H3
Instrument: TripleTOF 6600 SCIEX
Instrument type: LC-ESI-QTOF
Ms type: MS2
Ion mode: POSITIVE
Collision energy: 40
Fragmentation mode: CID
Ionization: ESI
Column name: Zorbax Eclipse Plus C18 2.1 mm x 150 mm, 3.5 um, Agilent
Retention time: 2.182 min
Precursor m/z: 192.1594
Precursor type: [M+H]+
m/z	relative intensity
30.0342	10
31.0183	201
37.0073	47
38.0156	32
39.0235	415
41.0392	995
42.0345	189
43.0182	26
43.0549	163
44.0499	29
55.0546	106
56.05	232
57.057	15
58.0654	109
59.0495	688
68.0492	110
69.0696	43
70.0653	395
72.0809	32
77.0388	26
79.0545	184
80.049	20
81.0571	30
81.0698	166
82.0651	84
83.0724	23
84.0807	33
94.0649	49
96.0807	96
98.0964	999
108.0801	32
112.1106	12
114.0903	18
116.1072	33
156.1392	15
174.1472	10
