Mass spectrum: 7-Amino-4-methylcoumarin; LC-ESI-QTOF; MS2; 50 V
Name: 7-Amino-4-methylcoumarin
Formula: C10H9NO2
Exact mass: 175.0633
SMILES: CC1=CC(=O)OC2=C1C=CC(=C2)N
InChI: InChI=1S/C10H9NO2/c1-6-4-10(12)13-9-5-7(11)2-3-8(6)9/h2-5H,11H2,1H3
Instrument: TripleTOF X500R SCIEX
Instrument type: LC-ESI-QTOF
Ms type: MS2
Ion mode: POSITIVE
Collision energy: 50
Fragmentation mode: CID
Ionization: ESI
Column name: Zorbax Eclipse Plus C18 2.1 mm x 150 mm, 3.5 um, Agilent
Retention time: 7.107 min
Precursor m/z: 176.0706
Precursor type: [M+H]+
m/z	relative intensity
39.0229	46
40.0184	16
42.0337	23
51.0231	145
53.039	14
54.0343	14
63.0231	25
65.0393	82
66.0457	27
68.0131	52
77.0388	999
78.0462	48
79.0541	40
80.0501	50
89.0386	63
90.0458	31
91.0542	153
92.0492	37
93.0577	362
94.0397	12
94.0657	71
101.0398	16
102.0465	120
103.0548	632
104.0497	469
105.057	80
106.0662	31
109.0515	12
115.0547	103
117.058	132
118.0653	187
119.0734	111
120.0804	115
130.0655	187
131.0499	12
131.0746	12
133.0524	69
146.0603	42
