Mass spectrum: Triphenyl phosphate; LC-ESI-QTOF; MS2; 110 V
Name: Triphenyl phosphate
Class: Industrial_process
Formula: C18H15O4P
Exact mass: 326.0708
SMILES: C1=CC=C(C=C1)OP(=O)(OC2=CC=CC=C2)OC3=CC=CC=C3
InChI: InChI=1S/C18H15O4P/c19-23(20-16-10-4-1-5-11-16,21-17-12-6-2-7-13-17)22-18-14-8-3-9-15-18/h1-15H
Instrument: TripleTOF 5600 SCIEX
Instrument type: LC-ESI-QTOF
Ms type: MS2
Ion mode: POSITIVE
Collision energy: 110
Fragmentation mode: CID
Ionization: ESI
Column name: Zorbax Eclipse Plus C18 2.1 mm x 150 mm, 3.5 um, Agilent
Retention time: 14.07 min
Precursor m/z: 327.0781
Precursor type: [M+H]+
m/z	relative intensity
50.0152	270
51.023	920
74.0151	84
75.0221	78
76.0299	72
77.0386	999
78.0467	30
89.039	36
98.0148	66
99.0212	48
100.0309	36
101.0376	24
102.0467	168
113.0373	24
114.0463	48
115.0535	90
125.0385	66
126.0457	379
127.0535	36
139.0543	463
141.0762	24
149.0392	48
150.0462	595
151.0538	872
152.0624	637
157.0171	30
168.0584	48
200.0613	102
224.0602	204
225.0719	54
226.0811	96
