Mass spectrum: 2,4,6-Triiodoaniline; LC-ESI-QTOF; MS2; 110 V
Name: 2,4,6-Triiodoaniline
Class: Pharmaceutical; Transformation_product
Formula: C6H4I3N
Exact mass: 470.7478
SMILES: Nc1c(I)cc(I)cc1I
InChI: InChI=1S/C6H4I3N/c7-3-1-4(8)6(10)5(9)2-3/h1-2H,10H2
Instrument: TripleTOF 5600 SCIEX
Instrument type: LC-ESI-QTOF
Ms type: MS2
Ion mode: POSITIVE
Collision energy: 110
Fragmentation mode: CID
Ionization: ESI
Column name: Zorbax Eclipse Plus C18 2.1 mm x 150 mm, 3.5 um, Agilent
Retention time: 16.077 min
Precursor m/z: 471.7551
Precursor type: [M+H]+
m/z	relative intensity
52.0238	95
64.0345	570
65.0291	118
74.0175	273
89.0269	118
90.0356	594
91.0428	999
190.935	59
200.9182	321
217.9402	71
