Mass spectrum: Thioxanthen-9-one; LC-ESI-QTOF; MS2; 130 V
Name: Thioxanthen-9-one
Formula: C13H8OS
Exact mass: 212.0296
SMILES: C1=CC=C2C(=C1)C(=O)C3=CC=CC=C3S2
InChI: InChI=1S/C13H8OS/c14-13-9-5-1-3-7-11(9)15-12-8-4-2-6-10(12)13/h1-8H
Instrument: TripleTOF 6600 SCIEX
Instrument type: LC-ESI-QTOF
Ms type: MS2
Ion mode: POSITIVE
Collision energy: 130
Fragmentation mode: CID
Ionization: ESI
Column name: Zorbax Eclipse Plus C18 2.1 mm x 150 mm, 3.5 um, Agilent
Retention time: 13.479 min
Precursor m/z: 213.0369
Precursor type: [M+H]+
m/z	relative intensity
35.9988	56
37.0071	144
38.0157	107
39.0231	205
44.9793	116
49.0076	149
50.0153	681
51.0226	294
57.9875	28
59.9986	98
61.0074	476
62.0149	686
63.0226	639
65.0391	32
67.9711	200
68.9792	999
73.0073	261
74.015	924
75.0237	186
76.0308	32
77.0388	32
80.9788	46
81.9878	51
83.9988	84
85.0075	494
86.015	746
87.0226	406
88.0302	84
89.0378	261
91.9709	74
92.979	242
97.0079	107
98.0152	592
99.0222	70
102.0464	18
109.0073	144
110.0148	186
111.0233	28
113.0379	121
116.9811	18
121.0083	18
122.0178	74
125.0386	18
126.047	23
134.0151	18
137.0391	98
138.046	42
139.0565	65
149.0427	23
150.0445	158
