Mass spectrum: Benalaxyl; LC-ESI-QTOF; MS2; 120 V
Name: Benalaxyl
Class: Fungicide
Formula: C20H23NO3
Exact mass: 325.1678
SMILES: CC1=C(C(=CC=C1)C)N(C(C)C(=O)OC)C(=O)CC2=CC=CC=C2
InChI: InChI=1S/C20H23NO3/c1-14-9-8-10-15(2)19(14)21(16(3)20(23)24-4)18(22)13-17-11-6-5-7-12-17/h5-12,16H,13H2,1-4H3
Instrument: TripleTOF 6600 SCIEX
Instrument type: LC-ESI-QTOF
Ms type: MS2
Ion mode: POSITIVE
Collision energy: 120
Fragmentation mode: CID
Ionization: ESI
Column name: Zorbax Eclipse Plus C18 2.1 mm x 150 mm, 3.5 um, Agilent
Retention time: 13.881 min
Precursor m/z: 326.1751
Precursor type: [M+H]+
m/z	relative intensity
35.9988	14
37.0067	99
38.0148	80
39.0226	552
41.0386	106
50.015	89
51.0227	339
53.0375	11
61.0065	36
62.0144	72
63.0221	153
65.0381	999
66.046	10
67.0409	11
77.0379	864
78.0324	15
78.0455	55
79.0539	162
80.0486	36
89.0377	49
90.0455	17
91.0536	662
93.059	11
102.0457	14
103.0534	86
104.0499	24
105.0435	21
105.0683	17
106.0644	208
115.053	25
117.0554	56
118.0636	37
120.0795	91
130.0638	15
132.0801	18
152.0617	11
