Mass spectrum: Ethyldiphenylphosphine oxide; LC-ESI-QTOF; MS2; 130 V
Name: Ethyldiphenylphosphine oxide
Class: Industrial_process
Formula: C14H15OP
Exact mass: 230.0861
SMILES: CC[P](=O)(c1ccccc1)c2ccccc2
InChI: InChI=1S/C14H15OP/c1-2-16(15,13-9-5-3-6-10-13)14-11-7-4-8-12-14/h3-12H,2H2,1H3
Instrument: TripleTOF 5600 SCIEX
Instrument type: LC-ESI-QTOF
Ms type: MS2
Ion mode: POSITIVE
Collision energy: 130
Fragmentation mode: CID
Ionization: ESI
Column name: Zorbax Eclipse Plus C18 2.1 mm x 150 mm, 3.5 um, Agilent
Retention time: 8.816 min
Precursor m/z: 231.0933
Precursor type: [M+H]+
m/z	relative intensity
47.0026	292
52.0362	307
55.9854	184
56.9925	476
65.0423	292
67.9849	215
68.992	153
74.0184	968
75.0253	353
76.0334	614
77.041	906
78.0482	292
78.9745	230
79.9829	599
80.9909	507
86.0168	261
87.0251	368
89.0398	292
91.9815	122
98.0147	384
99.0227	184
102.0465	307
103.9799	199
107.0035	614
113.039	153
125.0378	169
126.0449	706
139.0544	122
149.0379	153
150.0457	999
151.0528	799
152.0625	292
163.053	153
179.0043	199
181.0195	153
