Mass spectrum: Octrizole; LC-ESI-QTOF; MS2; 90 V
Name: Octrizole
Class: Industrial_process
Formula: C20H25N3O
Exact mass: 323.1998
SMILES: CC(C)(C)CC(C)(C)C1=CC(=C(C=C1)O)N2N=C3C=CC=CC3=N2
InChI: InChI=1S/C20H25N3O/c1-19(2,3)13-20(4,5)14-10-11-18(24)17(12-14)23-21-15-8-6-7-9-16(15)22-23/h6-12,24H,13H2,1-5H3
Instrument: TripleTOF 5600 SCIEX
Instrument type: LC-ESI-QTOF
Ms type: MS2
Ion mode: POSITIVE
Collision energy: 90
Fragmentation mode: CID
Ionization: ESI
Column name: Zorbax Eclipse Plus C18 2.1 mm x 150 mm, 3.5 um, Agilent
Retention time: 19.562 min
Precursor m/z: 324.207
Precursor type: [M+H]+
m/z	relative intensity
65.0456	999
77.044	472
79.0582	201
80.0541	69
89.0423	30
91.0588	340
92.0533	511
102.0444	38
103.0591	123
105.0441	77
105.0712	170
107.0522	54
115.0577	108
117.0597	46
119.0589	77
120.0582	77
127.0565	85
128.0635	92
133.0677	92
139.0554	100
140.0528	46
152.0615	108
153.0614	38
154.0662	162
164.0637	38
165.0727	69
166.065	116
167.0739	147
179.0703	30
180.0824	131
181.0594	46
183.0726	54
191.0704	61
192.0824	69
194.099	38
