Mass spectrum: 3,3`-Dimethoxybenzidine; LC-ESI-QTOF; MS2; 110 V
Name: 3,3`-Dimethoxybenzidine
Formula: C14H16N2O2
Exact mass: 244.1212
SMILES: COC1=C(C=CC(=C1)C2=CC(=C(C=C2)N)OC)N
InChI: InChI=1S/C14H16N2O2/c1-17-13-7-9(3-5-11(13)15)10-4-6-12(16)14(8-10)18-2/h3-8H,15-16H2,1-2H3
Instrument: TripleTOF 6600 SCIEX
Instrument type: LC-ESI-QTOF
Ms type: MS2
Ion mode: POSITIVE
Collision energy: 110
Fragmentation mode: CID
Ionization: ESI
Column name: Zorbax Eclipse Plus C18 2.1 mm x 150 mm, 3.5 um, Agilent
Retention time: 5.188 min
Precursor m/z: 245.1285
Precursor type: [M+H]+
m/z	relative intensity
39.0226	191
50.0148	80
51.0225	312
52.0186	50
53.0384	50
61.0082	80
62.0143	161
63.0222	514
65.0383	292
74.0149	333
75.0225	333
76.0267	70
77.0376	666
78.0323	40
78.0412	141
80.0491	151
86.0148	80
87.0226	100
88.03	191
89.0379	999
90.042	141
91.0539	100
98.0159	70
99.0221	100
101.0387	50
102.0434	90
103.0537	151
104.0505	161
105.053	60
113.0375	141
114.0459	181
115.0533	716
116.0484	100
117.0558	80
126.0459	70
127.0537	70
128.0519	40
130.0641	90
131.0652	70
140.0486	232
141.0569	90
152.0478	50
