Mass spectrum: Norgestrel; LC-ESI-QTOF; MS2; 50 V
Name: Norgestrel
Class: Pharmaceutical
Formula: C21H28O2
Exact mass: 312.2089
SMILES: CCC12CCC3C(C1CCC2(C#C)O)CCC4=CC(=O)CCC34
InChI: InChI=1S/C21H28O2/c1-3-20-11-9-17-16-8-6-15(22)13-14(16)5-7-18(17)19(20)10-12-21(20,23)4-2/h2,13,16-19,23H,3,5-12H2,1H3
Instrument: TripleTOF 5600 SCIEX
Instrument type: LC-ESI-QTOF
Ms type: MS2
Ion mode: POSITIVE
Collision energy: 50
Fragmentation mode: CID
Ionization: ESI
Column name: Zorbax Eclipse Plus C18 2.1 mm x 150 mm, 3.5 um, Agilent
Retention time: 12.063 min
Precursor m/z: 313.2162
Precursor type: [M+H]+
m/z	relative intensity
43.0298	12
55.0268	29
65.0452	40
67.0618	211
69.0378	10
77.0445	300
79.0598	583
81.0399	23
81.0757	453
83.0548	450
91.0592	999
93.0747	370
94.0473	12
95.0524	41
95.0901	153
97.0692	32
103.0592	107
104.0673	16
105.0736	594
107.0526	282
107.0895	167
109.0683	918
109.1039	47
115.0575	280
116.0647	127
117.0728	450
118.0824	12
119.0887	319
121.067	49
121.1042	58
123.0826	89
123.1195	58
125.098	10
127.0583	49
128.0647	348
129.0723	479
130.0804	118
131.0538	16
131.0881	386
132.0627	18
132.0974	10
133.0673	72
133.1044	191
134.078	18
135.0831	289
135.1189	63
137.0968	16
141.0721	196
142.0784	131
143.0874	300
144.0607	12
144.0962	45
145.0685	23
145.1024	226
146.075	27
147.0823	61
147.1209	45
148.0902	18
149.0985	107
149.1355	14
151.1176	14
152.0639	32
153.0721	89
154.0798	65
155.0871	209
156.0955	65
157.0658	21
157.1022	180
158.1107	18
159.0837	56
159.1177	98
160.0889	12
161.0979	136
161.1365	12
163.1123	36
165.071	113
166.0805	51
167.0858	102
168.0951	51
169.1022	123
170.1131	36
171.118	102
172.1221	10
173.0963	20
173.1361	32
175.1144	41
175.1542	10
178.0798	45
179.0878	82
180.094	40
181.1021	82
182.1105	18
183.1164	74
184.1257	12
185.0989	20
185.1347	74
187.1084	23
187.1488	27
188.119	29
189.1283	21
190.0803	10
191.0882	43
192.0957	23
193.1018	56
194.1108	20
195.1186	43
196.1269	10
197.0927	12
197.1335	27
199.1444	25
201.1284	29
203.0879	14
205.1017	43
206.1112	18
207.1194	40
208.1249	23
209.1324	21
211.1104	10
221.1312	29
223.1497	16
227.1829	20
235.1457	10
245.1886	21
