Mass spectrum: 2,6-Dimethylpyridine; LC-ESI-QTOF; MS2; 50 V
Name: 2,6-Dimethylpyridine
Formula: C7H9N
Exact mass: 107.0735
SMILES: CC1=NC(=CC=C1)C
InChI: InChI=1S/C7H9N/c1-6-4-3-5-7(2)8-6/h3-5H,1-2H3
Instrument: TripleTOF 6600 SCIEX
Instrument type: LC-ESI-QTOF
Ms type: MS2
Ion mode: POSITIVE
Collision energy: 50
Fragmentation mode: CID
Ionization: ESI
Column name: Zorbax Eclipse Plus C18 2.1 mm x 150 mm, 3.5 um, Agilent
Retention time: 2.395 min
Precursor m/z: 108.0808
Precursor type: [M+H]+
m/z	relative intensity
35.9986	33
37.007	139
38.0142	126
39.0226	999
40.0301	53
41.0384	219
42.0332	146
50.0141	46
51.0218	153
53.0388	26
63.022	53
65.0377	952
66.0456	253
67.0408	53
67.0522	33
77.0382	173
78.0325	126
79.0527	73
80.0491	86
91.0415	33
92.0488	419
93.0558	113
106.0642	186
107.072	126
