Mass spectrum: Oxymetazoline; LC-ESI-QTOF; MS2; 40 V
Name: Oxymetazoline
Class: Pharmaceutical
Formula: C16H24N2O
Exact mass: 260.1889
SMILES: Cc1cc(c(c(c1CC2=NCCN2)C)O)C(C)(C)C
InChI: InChI=1S/C16H24N2O/c1-10-8-13(16(3,4)5)15(19)11(2)12(10)9-14-17-6-7-18-14/h8,19H,6-7,9H2,1-5H3,(H,17,18)
Instrument: TripleTOF 5600 SCIEX
Instrument type: LC-ESI-QTOF
Ms type: MS2
Ion mode: POSITIVE
Collision energy: 40
Fragmentation mode: CID
Ionization: ESI
Column name: Zorbax Eclipse Plus C18 2.1 mm x 150 mm, 3.5 um, Agilent
Retention time: 7.429 min
Precursor m/z: 261.1961
Precursor type: [M+H]+
m/z	relative intensity
44.0596	137
57.0765	121
71.0646	10
79.0569	13
84.0704	33
85.0786	57
91.0557	26
93.0708	14
105.0697	41
107.0856	33
119.0857	37
121.0653	23
121.1012	60
131.0844	11
133.0648	11
133.1011	31
135.0811	237
135.1128	19
136.0884	48
137.0951	28
143.0854	10
147.0801	15
147.1154	15
148.1237	16
149.0964	128
149.1314	23
158.1081	16
160.0821	11
161.0959	126
162.0921	14
163.1477	46
172.0995	11
173.1319	16
174.0896	11
175.1038	34
176.1199	19
177.1275	134
185.1071	26
187.1219	24
188.1071	37
189.1122	42
191.1429	77
201.1379	72
203.1172	38
204.1242	21
205.1338	999
205.1739	13
213.1364	12
216.1379	16
217.1335	55
218.1413	116
227.1534	45
228.1627	13
229.1678	12
231.1489	243
243.1846	19
245.1641	61
246.1722	28
261.1964	909
