Mass spectrum: Metachrome Yellow free acid; LC-ESI-QTOF; MS2; 80 V
Name: Metachrome Yellow free acid
Formula: C13H9N3O5
Exact mass: 287.0542
SMILES: C1=CC(=CC(=C1)[N+](=O)[O-])N=NC2=CC(=C(C=C2)O)C(=O)O
InChI: InChI=1S/C13H9N3O5/c17-12-5-4-9(7-11(12)13(18)19)15-14-8-2-1-3-10(6-8)16(20)21/h1-7,17H,(H,18,19)
Instrument: TripleTOF 6600 SCIEX
Instrument type: LC-ESI-QTOF
Ms type: MS2
Ion mode: POSITIVE
Collision energy: 80
Fragmentation mode: CID
Ionization: ESI
Column name: Zorbax Eclipse Plus C18 2.1 mm x 150 mm, 3.5 um, Agilent
Retention time: 11.919 min
Precursor m/z: 288.0615
Precursor type: [M+H]+
m/z	relative intensity
37.0071	13
38.0148	34
39.0223	77
50.0138	127
51.0215	81
52.0168	63
53.001	68
61.0065	40
62.0133	120
63.0217	951
64.0299	345
65.0369	13
73.0066	18
74.0139	224
75.0219	999
76.0296	199
77.0255	13
77.0368	43
78.0321	104
80.0119	115
82.0259	11
87.021	15
88.0291	63
89.0369	84
90.0446	38
91.0163	70
91.0399	20
92.0244	40
101.036	18
102.0332	13
102.0462	11
106.0277	31
113.0377	220
114.0308	88
114.0442	77
115.0393	90
116.0494	15
127.0423	13
128.0483	20
129.0421	11
139.053	208
140.0479	392
141.05	47
142.0517	27
155.0586	34
166.0516	115
167.0577	40
