Mass spectrum: Propazine; LC-ESI-QTOF; MS2; 60 V
Name: Propazine
Class: Herbicide
Formula: C9H16ClN5
Exact mass: 229.1094
SMILES: CC(C)Nc1nc(Cl)nc(NC(C)C)n1
InChI: InChI=1S/C9H16ClN5/c1-5(2)11-8-13-7(10)14-9(15-8)12-6(3)4/h5-6H,1-4H3,(H2,11,12,13,14,15)
Instrument: TripleTOF 5600 SCIEX
Instrument type: LC-ESI-QTOF
Ms type: MS2
Ion mode: POSITIVE
Collision energy: 60
Fragmentation mode: CID
Ionization: ESI
Column name: Zorbax Eclipse Plus C18 2.1 mm x 150 mm, 3.5 um, Agilent
Retention time: 11.571 min
Precursor m/z: 230.1167
Precursor type: [M+H]+
m/z	relative intensity
43.039	328
61.9849	620
68.0294	999
79.0091	698
104.0019	791
110.0461	78
146.0222	156
