Mass spectrum: Xanthine; LC-ESI-QTOF; MS2; 40 V
Name: Xanthine
Class: Natural_product
Formula: C5H4N4O2
Exact mass: 152.0334
SMILES: C1=NC2=C(N1)C(=O)NC(=O)N2
InChI: InChI=1S/C5H4N4O2/c10-4-2-3(7-1-6-2)8-5(11)9-4/h1H,(H3,6,7,8,9,10,11)
Instrument: TripleTOF 5600 SCIEX
Instrument type: LC-ESI-QTOF
Ms type: MS2
Ion mode: POSITIVE
Collision energy: 40
Fragmentation mode: CID
Ionization: ESI
Column name: Zorbax Eclipse Plus C18 2.1 mm x 150 mm, 3.5 um, Agilent
Retention time: 2.43 min
Precursor m/z: 153.0407
Precursor type: [M+H]+
m/z	relative intensity
44.9994	208
53.0156	96
53.0221	150
55.0342	250
55.0417	263
55.0557	152
60.9907	115
65.0423	143
77.0447	116
81.0142	408
81.0826	159
82.0433	533
82.0649	80
91.0581	84
107.0861	183
110.0354	999
116.9852	303
136.0143	531
