Mass spectrum: Dexpanthenol; LC-ESI-QTOF; MS2; 130 V
Name: Dexpanthenol
Formula: C9H19NO4
Exact mass: 205.1314
SMILES: CC(C)(CO)C(C(=O)NCCCO)O
InChI: InChI=1S/C9H19NO4/c1-9(2,6-12)7(13)8(14)10-4-3-5-11/h7,11-13H,3-6H2,1-2H3,(H,10,14)
Instrument: TripleTOF 6600 SCIEX
Instrument type: LC-ESI-QTOF
Ms type: MS2
Ion mode: POSITIVE
Collision energy: 130
Fragmentation mode: CID
Ionization: ESI
Column name: Zorbax Eclipse Plus C18 2.1 mm x 150 mm, 3.5 um, Agilent
Retention time: 4.791 min
Precursor m/z: 206.1387
Precursor type: [M+H]+
m/z	relative intensity
31.0173	228
37.0068	645
38.0144	478
39.0228	999
42.0335	145
43.0171	166
