Mass spectrum: Formononetin; LC-ESI-QTOF; MS2; 50 V
Name: Formononetin
Class: Metabolite; Metabolite; Pharmaceutical
Formula: C16H12O4
Exact mass: 268.0736
SMILES: COc1ccc(cc1)C2=COc3cc(O)ccc3C2=O
InChI: InChI=1S/C16H12O4/c1-19-12-5-2-10(3-6-12)14-9-20-15-8-11(17)4-7-13(15)16(14)18/h2-9,17H,1H3
Instrument: TripleTOF 5600 SCIEX
Instrument type: LC-ESI-QTOF
Ms type: MS2
Ion mode: POSITIVE
Collision energy: 50
Fragmentation mode: CID
Ionization: ESI
Column name: Zorbax Eclipse Plus C18 2.1 mm x 150 mm, 3.5 um, Agilent
Retention time: 10.093 min
Precursor m/z: 269.0808
Precursor type: [M+H]+
m/z	relative intensity
69.0012	21
77.0433	40
79.0576	25
80.0287	14
81.0359	22
89.0414	63
90.0491	106
91.0566	13
92.0281	9
103.0551	27
105.0711	11
107.0496	29
108.0216	46
115.0547	41
118.0425	186
127.0537	14
128.0624	64
129.0694	32
133.0647	28
136.0171	27
137.0239	105
141.0704	133
142.0781	16
144.0583	16
151.054	25
152.0628	139
153.0703	75
155.0504	21
156.0578	72
157.0651	36
158.0732	26
165.0704	23
168.058	25
169.0655	267
170.0734	127
180.058	31
181.0659	234
182.0721	46
184.053	18
195.0809	10
196.0519	54
197.0612	999
198.0674	112
200.0473	59
208.0519	14
209.0601	40
211.0385	16
213.0919	61
225.0557	412
226.0636	175
237.0553	208
253.051	389
254.0564	25
269.0833	16
