Mass spectrum: Citalopram; LC-ESI-QTOF; MS2; 30 V
Name: Citalopram
Class: Pharmaceutical
Formula: C20H21FN2O
Exact mass: 324.1638
SMILES: CN(C)CCCC1(OCc2cc(ccc12)C#N)c3ccc(F)cc3
InChI: InChI=1S/C20H21FN2O/c1-23(2)11-3-10-20(17-5-7-18(21)8-6-17)19-9-4-15(13-22)12-16(19)14-24-20/h4-9,12H,3,10-11,14H2,1-2H3
Instrument: TripleTOF 5600 SCIEX
Instrument type: LC-ESI-QTOF
Ms type: MS2
Ion mode: POSITIVE
Collision energy: 30
Fragmentation mode: CID
Ionization: ESI
Column name: Zorbax Eclipse Plus C18 2.1 mm x 150 mm, 3.5 um, Agilent
Retention time: 7.757 min
Precursor m/z: 325.1711
Precursor type: [M+H]+
m/z	relative intensity
58.0708	37
109.0461	724
116.0503	136
123.0244	13
144.0446	13
156.0808	39
166.0656	91
215.0856	16
221.0641	62
222.0714	40
227.0727	29
234.072	267
235.0915	54
236.0863	25
238.0663	41
241.0882	11
242.0964	74
246.0732	13
247.0796	141
250.1027	39
260.0868	21
261.0949	11
262.1029	944
280.1133	42
307.1609	103
325.1711	999
