Mass spectrum: Tetraoctylphosphonium; LC-ESI-QTOF; MS2; 80 V
Name: Tetraoctylphosphonium
Formula: [C32H68P]+
Exact mass: 483.5053
SMILES: CCCCCCCC[P+](CCCCCCCC)(CCCCCCCC)CCCCCCCC
InChI: InChI=1S/C32H68P/c1-5-9-13-17-21-25-29-33(30-26-22-18-14-10-6-2,31-27-23-19-15-11-7-3)32-28-24-20-16-12-8-4/h5-32H2,1-4H3/q+1
Instrument: TripleTOF 5600 SCIEX
Instrument type: LC-ESI-QTOF
Ms type: MS2
Ion mode: POSITIVE
Collision energy: 80
Fragmentation mode: CID
Ionization: ESI
Column name: Zorbax Eclipse Plus C18 2.1 mm x 150 mm, 3.5 um, Agilent
Retention time: 16.405 min
Precursor m/z: 483.5053
Precursor type: [M]+
m/z	relative intensity
62.0278	195
75.035	104
76.043	386
89.0501	90
90.0578	185
103.0659	112
117.0817	129
131.0979	152
145.1139	206
159.1298	147
173.1455	198
187.1615	302
201.1771	231
215.1931	355
229.2087	473
243.2244	387
257.2399	283
271.2555	203
285.2708	570
299.2861	320
313.3022	393
327.3178	999
341.3337	724
355.3501	227
369.3645	150
371.3798	211
383.3803	165
397.3973	566
483.5062	750
