Mass spectrum: 2`-Deoxyinosine; LC-ESI-QTOF; MS2; 40 V
Name: 2`-Deoxyinosine
Class: Natural_product
Formula: C10H12N4O4
Exact mass: 252.0859
SMILES: C1C(C(OC1N2C=NC3=C2NC=NC3=O)CO)O
InChI: InChI=1S/C10H12N4O4/c15-2-6-5(16)1-7(18-6)14-4-13-8-9(14)11-3-12-10(8)17/h3-7,15-16H,1-2H2,(H,11,12,17)
Instrument: TripleTOF 5600 SCIEX
Instrument type: LC-ESI-QTOF
Ms type: MS2
Ion mode: NEGATIVE
Collision energy: 40
Fragmentation mode: CID
Ionization: ESI
Column name: Zorbax Eclipse Plus C18 2.1 mm x 150 mm, 3.5 um, Agilent
Retention time: 4.181 min
Precursor m/z: 251.0786
Precursor type: [M-H]-
m/z	relative intensity
92.0251	135
108.021	202
135.0326	999
161.048	149
