Mass spectrum: Demeclocycline; LC-ESI-QTOF; MS2; 130 V
Name: Demeclocycline
Class: Antimicrobial; Pharmaceutical
Formula: C21H21ClN2O8
Exact mass: 464.0986
SMILES: CN(C)C1C2CC3C(C4=C(C=CC(=C4C(=C3C(=O)C2(C(=C(C1=O)C(=O)N)O)O)O)O)Cl)O
InChI: InChI=1S/C21H21ClN2O8/c1-24(2)14-7-5-6-10(16(27)12-9(25)4-3-8(22)11(12)15(6)26)18(29)21(7,32)19(30)13(17(14)28)20(23)31/h3-4,6-7,14-15,25-27,30,32H,5H2,1-2H3,(H2,23,31)
Instrument: TripleTOF 5600 SCIEX
Instrument type: LC-ESI-QTOF
Ms type: MS2
Ion mode: POSITIVE
Collision energy: 130
Fragmentation mode: CID
Ionization: ESI
Column name: Zorbax Eclipse Plus C18 2.1 mm x 150 mm, 3.5 um, Agilent
Retention time: 5.787 min
Precursor m/z: 465.1059
Precursor type: [M+H]+
m/z	relative intensity
98.0603	54
115.0566	184
125.0388	54
126.0474	86
138.0452	97
139.0542	901
140.0623	206
141.0719	184
149.0425	54
150.0482	358
151.054	510
152.0623	999
153.0708	108
162.0482	65
163.0534	401
164.0611	130
165.0671	97
165.0775	43
168.0582	206
173.0143	43
174.0471	65
176.0615	130
181.064	97
185.0173	65
186.0288	65
197.0125	54
197.0509	54
197.0634	76
