Mass spectrum: Tolcapone; LC-ESI-QTOF; MS2; 80 V
Name: Tolcapone
Class: Pharmaceutical
Formula: C14H11NO5
Exact mass: 273.0637
SMILES: CC1=CC=C(C=C1)C(=O)C2=CC(=C(C(=C2)O)O)[N+](=O)[O-]
InChI: InChI=1S/C14H11NO5/c1-8-2-4-9(5-3-8)13(17)10-6-11(15(19)20)14(18)12(16)7-10/h2-7,16,18H,1H3
Instrument: TripleTOF 5600 SCIEX
Instrument type: LC-ESI-QTOF
Ms type: MS2
Ion mode: POSITIVE
Collision energy: 80
Fragmentation mode: CID
Ionization: ESI
Column name: Zorbax Eclipse Plus C18 2.1 mm x 150 mm, 3.5 um, Agilent
Retention time: 11.114 min
Precursor m/z: 274.071
Precursor type: [M+H]+
m/z	relative intensity
53.0114	91
65.0454	362
69.004	128
79.0214	155
91.0571	614
92.0125	22
107.0153	22
108.0221	999
115.0551	36
119.0502	50
127.0558	22
128.0617	27
136.0181	54
141.0678	18
