Mass spectrum: Oxytetracycline; LC-ESI-QTOF; MS2; 80 V
Name: Oxytetracycline
Class: Pharmaceutical
Formula: C22H24N2O9
Exact mass: 460.1482
SMILES: CC1(C2C(C3C(C(=O)C(=C(C3(C(=O)C2=C(C4=C1C=CC=C4O)O)O)O)C(=O)N)N(C)C)O)O
InChI: InChI=1S/C22H24N2O9/c1-21(32)7-5-4-6-8(25)9(7)15(26)10-12(21)17(28)13-14(24(2)3)16(27)11(20(23)31)19(30)22(13,33)18(10)29/h4-6,12-14,17,25-26,28,30,32-33H,1-3H3,(H2,23,31)
Instrument: TripleTOF 5600 SCIEX
Instrument type: LC-ESI-QTOF
Ms type: MS2
Ion mode: POSITIVE
Collision energy: 80
Fragmentation mode: CID
Ionization: ESI
Column name: Zorbax Eclipse Plus C18 2.1 mm x 150 mm, 3.5 um, Agilent
Retention time: 5.586 min
Precursor m/z: 461.1555
Precursor type: [M+H]+
m/z	relative intensity
55.0239	24
58.0681	55
68.9988	30
70.0679	67
79.0189	24
83.0143	55
86.0611	30
95.0142	30
97.0281	30
98.0601	239
107.0108	36
109.0281	30
115.0553	85
117.0686	147
123.0067	36
126.0535	42
127.0537	759
128.0613	220
129.069	183
137.02	30
139.0532	36
141.0706	36
145.0644	355
151.0009	36
151.0606	36
152.0605	91
153.0192	55
153.0705	73
154.0468	36
155.0491	367
155.0866	49
156.057	79
157.0645	128
159.0793	42
160.06	36
165.0687	189
167.0854	36
168.0567	104
169.0613	67
171.0808	49
173.0594	49
174.0647	30
176.0616	36
177.0681	24
178.0772	73
179.0878	36
180.0544	67
181.0662	73
182.0731	49
183.0798	49
184.0519	680
185.0593	91
186.065	24
187.0389	98
187.074	85
189.0682	61
192.0588	30
193.0634	30
195.0802	55
196.0515	122
197.0599	85
198.0671	55
199.077	36
201.0548	649
205.0634	49
208.0503	24
209.058	55
210.0658	30
211.0772	226
212.0464	999
213.0526	226
214.0642	36
221.0597	85
223.0736	61
224.0478	61
226.0621	110
227.0654	42
233.0572	36
234.0649	30
235.0772	55
236.0455	85
237.054	98
238.0588	30
239.033	42
239.0734	116
240.0421	355
241.0497	30
242.0585	251
251.0697	79
252.0415	42
253.0467	55
254.057	226
258.053	122
261.0462	42
263.0719	36
264.04	36
265.0467	30
266.0559	49
267.0644	42
268.0362	612
270.0539	30
279.063	30
283.057	110
294.0559	85
322.0439	67
350.0448	79
