Mass spectrum: Neburon; LC-ESI-QTOF; MS2; 40 V
Name: Neburon
Class: Herbicide
Formula: C12H16Cl2N2O
Exact mass: 274.064
SMILES: CCCCN(C)C(=O)Nc1ccc(Cl)c(Cl)c1
InChI: InChI=1S/C12H16Cl2N2O/c1-3-4-7-16(2)12(17)15-9-5-6-10(13)11(14)8-9/h5-6,8H,3-4,7H2,1-2H3,(H,15,17)
Instrument: TripleTOF 5600 SCIEX
Instrument type: LC-ESI-QTOF
Ms type: MS2
Ion mode: POSITIVE
Collision energy: 40
Fragmentation mode: CID
Ionization: ESI
Column name: Zorbax Eclipse Plus C18 2.1 mm x 150 mm, 3.5 um, Agilent
Retention time: 13.559 min
Precursor m/z: 275.0712
Precursor type: [M+H]+
m/z	relative intensity
57.0762	999
58.0345	319
58.0589	19
58.0712	11
88.1142	732
108.9832	16
114.0908	215
123.9938	28
125.0019	53
127.0187	130
132.9601	164
144.9622	22
152.9976	31
159.9715	424
161.9872	36
172.9658	14
187.9648	99
219.0184	16
275.0703	308
