Mass spectrum: Acridone; LC-ESI-QTOF; MS2; 110 V
Name: Acridone
Class: Metabolite; Pharmaceutical; Transformation_product; Transformation_product-Metabolite
Formula: C13H9NO
Exact mass: 195.0684
SMILES: O=C1c2ccccc2Nc3ccccc13
InChI: InChI=1S/C13H9NO/c15-13-9-5-1-3-7-11(9)14-12-8-4-2-6-10(12)13/h1-8H,(H,14,15)
Instrument: TripleTOF 5600 SCIEX
Instrument type: LC-ESI-QTOF
Ms type: MS2
Ion mode: POSITIVE
Collision energy: 110
Fragmentation mode: CID
Ionization: ESI
Column name: Zorbax Eclipse Plus C18 2.1 mm x 150 mm, 3.5 um, Agilent
Retention time: 8.5 min
Precursor m/z: 196.0757
Precursor type: [M+H]+
m/z	relative intensity
52.0232	55
60.004	104
63.0567	44
64.0339	88
65.0427	253
73.0105	110
74.0187	888
75.013	44
75.0258	452
76.0221	49
76.0339	60
77.0411	115
84.0012	49
85.0107	292
86.0173	717
87.0251	938
88.02	143
88.0313	171
89.0406	999
90.0357	49
90.0464	22
97.01	49
98.0158	353
99.0112	38
99.0227	104
100.0191	33
100.0284	33
102.0485	38
109.0084	55
110.0155	104
111.0228	60
112.0284	44
113.0396	899
114.0343	137
115.0541	220
116.049	27
122.0155	33
123.0205	33
126.0465	60
137.0394	204
138.0464	143
139.0548	656
140.0497	331
164.0492	137
165.0576	33
166.0648	22
