Mass spectrum: 4-Hydroxydiphenylamine; LC-ESI-QTOF; MS2; 90 V
Name: 4-Hydroxydiphenylamine
Class: Pesticide
Formula: C12H11NO
Exact mass: 185.0841
SMILES: C1=CC=C(C=C1)NC2=CC=C(C=C2)O
InChI: InChI=1S/C12H11NO/c14-12-8-6-11(7-9-12)13-10-4-2-1-3-5-10/h1-9,13-14H
Instrument: TripleTOF 6600 SCIEX
Instrument type: LC-ESI-QTOF
Ms type: MS2
Ion mode: POSITIVE
Collision energy: 90
Fragmentation mode: CID
Ionization: ESI
Column name: Zorbax Eclipse Plus C18 2.1 mm x 150 mm, 3.5 um, Agilent
Retention time: 10.034 min
Precursor m/z: 186.0914
Precursor type: [M+H]+
m/z	relative intensity
35.9992	26
37.0067	137
38.0017	22
38.0145	146
39.0222	608
40.0177	22
40.0297	26
41.0251	39
42.0332	66
44.0122	53
49.0065	26
50.0141	159
51.0222	244
52.0176	57
53.001	22
53.0377	688
54.0329	159
55.0163	26
61.0048	17
62.0142	66
63.0218	164
64.0301	31
65.0245	39
65.0376	213
66.0323	22
66.0449	75
68.0122	31
74.0143	31
77.0374	39
78.0325	53
80.0482	999
81.0317	84
89.037	17
92.0491	66
93.0565	39
108.0434	53
109.049	22
113.0387	17
139.0503	17
