Mass spectrum: 3,4,5-Trimethoxybenzoic acid; LC-ESI-QTOF; MS2; 70 V
Name: 3,4,5-Trimethoxybenzoic acid
Class: Pharmaceutical; Industrial_process; Metabolite
Formula: C10H12O5
Exact mass: 212.0685
SMILES: COc1cc(cc(OC)c1OC)C(O)=O
InChI: InChI=1S/C10H12O5/c1-13-7-4-6(10(11)12)5-8(14-2)9(7)15-3/h4-5H,1-3H3,(H,11,12)
Instrument: TripleTOF 5600 SCIEX
Instrument type: LC-ESI-QTOF
Ms type: MS2
Ion mode: POSITIVE
Collision energy: 70
Fragmentation mode: CID
Ionization: ESI
Column name: Zorbax Eclipse Plus C18 2.1 mm x 150 mm, 3.5 um, Agilent
Retention time: 7.633 min
Precursor m/z: 213.0757
Precursor type: [M+H]+
m/z	relative intensity
51.0283	376
55.022	169
65.0422	829
68.0295	999
69.001	131
77.0415	640
78.0488	113
79.0199	169
80.0285	131
81.0361	339
92.0263	94
93.0349	75
94.0421	131
95.0136	282
95.0504	245
96.0221	546
107.0116	75
108.0224	75
110.0378	75
111.0434	131
121.0283	94
