Mass spectrum: N-Desmethyltramadol; LC-ESI-QTOF; MS2; 120 V
Name: N-Desmethyltramadol
Class: Transformation_product; Metabolite
Formula: C15H23NO2
Exact mass: 249.1729
SMILES: CNCC1CCCCC1(C2=CC(=CC=C2)OC)O
InChI: InChI=1S/C15H23NO2/c1-16-11-13-6-3-4-9-15(13,17)12-7-5-8-14(10-12)18-2/h5,7-8,10,13,16-17H,3-4,6,9,11H2,1-2H3
Instrument: TripleTOF 6600 SCIEX
Instrument type: LC-ESI-QTOF
Ms type: MS2
Ion mode: POSITIVE
Collision energy: 120
Fragmentation mode: CID
Ionization: ESI
Column name: Zorbax Eclipse Plus C18 2.1 mm x 150 mm, 3.5 um, Agilent
Retention time: 6.246 min
Precursor m/z: 250.1802
Precursor type: [M+H]+
m/z	relative intensity
30.0336	19
37.0071	32
38.0151	29
39.0231	96
41.0387	12
42.034	174
43.0176	12
43.042	41
44.05	999
49.0079	24
50.0152	124
51.0231	161
52.0308	34
54.0336	10
61.0073	27
62.0152	76
63.0228	169
64.0313	25
65.0385	50
74.0156	22
75.0224	15
76.0308	15
77.0384	72
78.0465	27
89.0379	43
91.0544	24
102.0455	22
115.0537	51
126.0464	12
128.0616	19
