Mass spectrum: 1,2-Benzisothiazol-3(2H)-one; LC-ESI-QTOF; MS2; 40 V
Name: 1,2-Benzisothiazol-3(2H)-one
Class: Antimicrobial
Formula: C7H5NOS
Exact mass: 151.0092
SMILES: C1=CC=C2C(=C1)C(=O)NS2
InChI: InChI=1S/C7H5NOS/c9-7-5-3-1-2-4-6(5)10-8-7/h1-4H,(H,8,9)
Instrument: TripleTOF 6600 SCIEX
Instrument type: LC-ESI-QTOF
Ms type: MS2
Ion mode: POSITIVE
Collision energy: 40
Fragmentation mode: CID
Ionization: ESI
Column name: Zorbax Eclipse Plus C18 2.1 mm x 150 mm, 3.5 um, Agilent
Retention time: 6.233 min
Precursor m/z: 152.0165
Precursor type: [M+H]+
m/z	relative intensity
37.0072	24
39.0224	102
44.9786	13
50.0146	41
51.0223	185
53.0379	89
62.0145	27
63.0224	408
64.0179	120
65.0378	264
68.9785	92
76.0302	20
77.0379	999
80.0487	333
81.9862	27
90.033	648
91.0423	17
92.9784	34
97.0097	34
105.0329	353
106.994	188
108.0018	96
109.0097	545
132.9978	65
134.0049	703
135.9966	27
152.0155	233
