Mass spectrum: Azoxystrobin; LC-ESI-QTOF; MS2; 90 V
Name: Azoxystrobin
Class: Fungicide
Formula: C22H17N3O5
Exact mass: 403.1168
SMILES: COC=C(C1=CC=CC=C1OC2=NC=NC(=C2)OC3=CC=CC=C3C#N)C(=O)OC
InChI: InChI=1S/C22H17N3O5/c1-27-13-17(22(26)28-2)16-8-4-6-10-19(16)30-21-11-20(24-14-25-21)29-18-9-5-3-7-15(18)12-23/h3-11,13-14H,1-2H3
Instrument: TripleTOF 6600 SCIEX
Instrument type: LC-ESI-QTOF
Ms type: MS2
Ion mode: POSITIVE
Collision energy: 90
Fragmentation mode: CID
Ionization: ESI
Column name: Zorbax Eclipse Plus C18 2.1 mm x 150 mm, 3.5 um, Agilent
Retention time: 12.114 min
Precursor m/z: 404.1241
Precursor type: [M+H]+
m/z	relative intensity
49.0061	10
50.0134	31
51.0216	126
52.0166	17
53.0008	30
62.014	11
63.0212	55
65.0369	44
68.9956	30
74.0137	27
75.0212	158
76.0167	33
76.0284	43
77.0369	529
78.0445	40
88.0282	14
89.037	495
90.0317	23
90.0443	26
91.0398	44
91.0519	24
92.0469	11
93.0311	20
100.0289	11
101.0364	147
102.032	327
103.0395	71
104.024	55
104.0477	236
105.0308	73
105.0542	20
114.0322	124
115.0393	71
116.0474	320
117.0304	20
117.0555	30
118.0393	20
119.0347	36
120.0422	42
126.0308	10
127.0393	115
128.0474	153
129.0423	146
130.0344	346
132.0414	20
133.0255	30
133.0504	11
134.0338	11
134.0578	30
140.0468	18
142.05	17
143.0343	26
143.0565	17
144.0423	498
145.0259	30
145.0489	14
146.0208	17
153.0425	14
154.0275	14
154.0501	26
155.0341	10
155.059	23
156.0425	410
157.0501	13
169.0376	17
170.0455	23
171.0529	59
172.0374	999
181.0364	30
182.0449	18
190.0623	69
191.0722	11
199.0492	13
200.0321	23
202.0603	10
203.0719	14
204.0776	14
205.0744	26
215.0594	11
216.0673	24
217.0731	21
229.0726	21
233.0679	14
243.0756	18
244.0841	15
245.0691	36
272.0818	20
273.0613	10
300.074	11
328.0685	11
