Mass spectrum: 16alpha-hydroxyestrone; LC-ESI-QTOF; MS2; 90 V
Name: 16alpha-hydroxyestrone
Class: Pharmaceutical; Metabolite
Formula: C18H22O3
Exact mass: 286.1569
SMILES: C[C@]12CC[C@@H]3[C@H](CCc4cc(O)ccc34)[C@H]1C[C@@H](O)C2=O
InChI: InChI=1S/C18H22O3/c1-18-7-6-13-12-5-3-11(19)8-10(12)2-4-14(13)15(18)9-16(20)17(18)21/h3,5,8,13-16,19-20H,2,4,6-7,9H2,1H3/t13-,14-,15+,16+,18-/m0/s1
Instrument: TripleTOF 5600 SCIEX
Instrument type: LC-ESI-QTOF
Ms type: MS2
Ion mode: POSITIVE
Collision energy: 90
Fragmentation mode: CID
Ionization: ESI
Column name: Zorbax Eclipse Plus C18 2.1 mm x 150 mm, 3.5 um, Agilent
Retention time: 8.67 min
Precursor m/z: 287.1642
Precursor type: [M+H]+
m/z	relative intensity
43.0267	25
53.0445	10
55.023	16
65.0433	86
67.0576	21
77.0424	660
78.0485	22
79.0571	170
89.0404	87
91.0563	235
94.0421	29
101.0387	16
102.0466	46
103.055	225
105.0702	140
107.0494	134
114.0454	10
115.0546	999
116.0622	174
117.069	11
118.0407	13
126.0455	41
127.0543	264
128.0621	495
129.0693	56
131.0491	147
132.0563	14
133.0643	30
139.0537	57
141.0693	98
144.0569	183
145.0643	10
150.0459	21
151.0537	86
152.0621	329
153.069	92
155.0592	10
157.0644	92
163.054	26
164.0616	44
165.07	283
166.0769	11
168.0564	14
169.0637	20
176.0616	62
177.0693	36
178.0775	92
179.0854	10
181.0641	80
189.0691	46
190.0769	11
191.084	11
194.072	11
202.0768	30
