Mass spectrum: Paroxetine; LC-ESI-QTOF; MS2; 130 V
Name: Paroxetine
Class: Pharmaceutical
Formula: C19H20FNO3
Exact mass: 329.1427
SMILES: C1CNCC(C1C2=CC=C(C=C2)F)COC3=CC4=C(C=C3)OCO4
InChI: InChI=1S/C19H20FNO3/c20-15-3-1-13(2-4-15)17-7-8-21-10-14(17)11-22-16-5-6-18-19(9-16)24-12-23-18/h1-6,9,14,17,21H,7-8,10-12H2
Instrument: TripleTOF 5600 SCIEX
Instrument type: LC-ESI-QTOF
Ms type: MS2
Ion mode: POSITIVE
Collision energy: 130
Fragmentation mode: CID
Ionization: ESI
Column name: Zorbax Eclipse Plus C18 2.1 mm x 150 mm, 3.5 um, Agilent
Retention time: 7.812 min
Precursor m/z: 330.15
Precursor type: [M+H]+
m/z	relative intensity
35.9993	29
37.0074	71
38.0152	71
39.0231	501
41.0389	337
42.034	96
43.0544	21
44.0496	299
51.023	88
53.0018	21
56.0499	54
57.014	185
59.0301	50
61.0074	25
62.0155	37
63.0233	151
65.0384	88
67.0477	16
68.0497	63
70.0229	21
70.0653	311
73.0067	16
74.0146	109
75.0227	248
77.0381	210
81.0134	42
81.0342	29
82.0637	25
83.0291	999
87.0237	25
89.0386	252
91.0557	21
95.0283	63
96.0361	54
99.0233	33
101.0383	71
102.0454	42
103.0543	46
107.0295	206
109.0446	910
113.0391	21
115.0542	594
120.0362	71
125.0385	63
126.0468	63
127.0548	59
128.0631	25
132.0363	16
133.0449	649
135.0626	29
145.048	54
146.0534	223
