Mass spectrum: Cortisone; LC-ESI-QTOF; MS2; 40 V
Name: Cortisone
Class: Pharmaceutical
Formula: C21H28O5
Exact mass: 360.1937
SMILES: C[C@]12CCC(=O)C=C1CC[C@H]3[C@@H]4CC[C@](O)(C(=O)CO)[C@@]4(C)CC(=O)[C@H]23
InChI: InChI=1S/C21H28O5/c1-19-7-5-13(23)9-12(19)3-4-14-15-6-8-21(26,17(25)11-22)20(15,2)10-16(24)18(14)19/h9,14-15,18,22,26H,3-8,10-11H2,1-2H3/t14-,15-,18+,19-,20-,21-/m0/s1
Instrument: TripleTOF 5600 SCIEX
Instrument type: LC-ESI-QTOF
Ms type: MS2
Ion mode: POSITIVE
Collision energy: 40
Fragmentation mode: CID
Ionization: ESI
Column name: Zorbax Eclipse Plus C18 2.1 mm x 150 mm, 3.5 um, Agilent
Retention time: 8.396 min
Precursor m/z: 361.201
Precursor type: [M+H]+
m/z	relative intensity
43.0319	13
67.06	16
77.0434	21
79.0588	46
81.0743	62
83.0525	40
91.0571	55
93.0733	125
95.089	39
97.0677	74
105.0726	186
107.0512	15
107.0881	142
109.0669	29
117.0715	41
119.0883	93
121.0672	274
121.1039	64
123.0823	58
129.0737	28
130.0801	10
131.0876	53
133.0674	26
133.1031	46
135.0827	73
135.1199	59
137.0981	14
139.0779	28
141.0723	15
143.0882	61
145.0662	21
145.1034	199
147.0828	86
147.1192	15
148.091	22
149.0984	32
155.0884	32
157.0676	10
157.1031	58
159.0848	52
159.119	41
161.0983	80
163.0818	11
163.1154	999
165.0926	11
167.088	14
169.1036	49
171.0855	28
171.1196	47
173.0985	59
173.1331	11
174.108	10
175.1139	33
177.0918	13
179.0878	14
181.1048	49
182.1098	13
183.12	68
185.0989	30
185.1354	27
187.0774	11
187.1141	27
189.0952	32
189.1297	27
191.1102	17
193.1032	23
195.1203	46
196.1283	10
197.0992	20
197.1353	51
199.1156	48
199.1495	22
201.129	19
203.1101	13
205.1181	9
206.1094	10
207.1187	32
209.099	15
209.1363	42
211.1156	33
211.1521	15
213.1313	34
213.1673	13
219.1206	13
221.1352	36
223.1147	41
223.1513	42
224.1223	14
224.1581	10
225.1309	59
225.167	14
226.1394	16
227.1463	32
229.125	9
229.1606	13
235.1527	13
237.13	21
237.1684	28
239.1465	62
239.1809	15
240.1561	10
241.1281	24
241.162	100
242.1693	33
243.1424	26
243.1772	15
247.1537	19
249.1327	15
249.1681	15
251.1483	19
253.1631	26
255.142	13
255.1786	41
256.1868	24
257.1557	35
257.1959	11
258.1669	117
265.163	68
266.1673	14
267.144	16
267.1794	49
269.1569	41
271.1753	13
277.1661	14
279.1804	24
281.1605	15
283.1738	59
284.182	84
285.1503	11
285.1885	17
289.1645	10
295.1737	24
297.1909	15
299.1684	73
300.177	24
301.1836	38
307.1749	22
313.1849	20
325.1843	26
343.1967	24
361.206	58
