Mass spectrum: Isopyrazam; LC-ESI-QTOF; MS2; 70 V
Name: Isopyrazam
Class: Fungicide
Formula: C20H23F2N3O
Exact mass: 359.1809
SMILES: CC(C)C1C2CCC1C3=C2C=CC=C3NC(=O)C4=CN(N=C4C(F)F)C
InChI: InChI=1S/C20H23F2N3O/c1-10(2)16-12-7-8-13(16)17-11(12)5-4-6-15(17)23-20(26)14-9-25(3)24-18(14)19(21)22/h4-6,9-10,12-13,16,19H,7-8H2,1-3H3,(H,23,26)
Instrument: TripleTOF 6600 SCIEX
Instrument type: LC-ESI-QTOF
Ms type: MS2
Ion mode: POSITIVE
Collision energy: 70
Fragmentation mode: CID
Ionization: ESI
Column name: Zorbax Eclipse Plus C18 2.1 mm x 150 mm, 3.5 um, Agilent
Retention time: 14.619 min
Precursor m/z: 360.1882
Precursor type: [M+H]+
m/z	relative intensity
37.0074	12
38.015	24
39.0231	132
41.0394	276
42.0341	107
43.0292	20
43.0542	27
51.0233	16
53.0379	12
55.0541	97
57.013	38
63.0211	11
65.0381	62
67.054	180
69.0692	96
75.0229	18
77.0383	249
78.0332	16
79.0537	55
81.046	12
81.0691	42
82.0284	29
83.0288	46
84.0238	35
89.0376	92
90.0465	11
91.0526	105
93.0672	22
94.0522	12
95.0602	86
95.0851	36
98.0017	25
101.0359	75
102.0449	35
103.053	62
104.0488	57
105.0339	22
105.0437	18
105.0709	20
106.066	9
107.0276	22
108.0562	20
109.0393	166
111.0348	55
112.0425	12
113.0486	72
114.0449	51
115.0535	884
116.0478	105
117.0571	46
119.0244	27
119.0596	11
120.0368	11
120.0566	14
121.0435	24
122.0443	16
123.0542	33
125.0379	38
126.0455	53
127.0531	343
128.0599	764
129.0489	64
129.0694	101
130.0395	18
130.0648	97
131.0417	77
132.0437	134
132.0687	12
133.0443	81
134.0346	75
135.0527	18
136.0512	38
138.0326	11
138.0455	12
139.0306	249
139.0536	60
140.0485	315
141.0468	48
141.0679	262
142.0663	234
143.0595	55
143.0721	53
144.0766	18
145.0429	33
145.0756	22
146.0473	53
147.048	20
147.0589	18
148.0565	101
150.0447	25
151.053	121
152.0546	252
153.0569	252
154.0633	415
155.0597	374
156.0422	92
156.0742	105
157.0433	72
157.0747	16
158.0393	144
158.0658	11
159.0358	999
160.0516	20
161.0622	22
162.0706	25
163.0518	12
164.0497	88
165.0685	201
166.0634	264
167.0733	485
168.0432	27
168.0725	334
169.0531	36
169.0743	393
170.0569	92
170.0959	49
171.0527	59
172.0545	84
173.0503	44
173.0666	16
174.0601	27
175.0652	36
176.0549	44
177.0585	96
178.0655	289
179.0606	334
180.0787	413
181.0609	84
181.0741	236
182.0807	192
183.0528	31
183.0649	11
183.0879	79
184.0467	24
184.0621	24
184.0862	46
184.1084	18
185.0492	22
185.0606	18
185.0726	38
186.0623	66
187.067	33
188.0724	11
189.0715	86
190.0642	142
191.0696	228
192.0761	321
193.0771	295
194.0742	238
195.0536	38
195.0899	217
196.0878	264
197.0699	162
197.0935	86
198.0649	35
198.0776	12
198.096	11
199.049	14
199.0692	55
200.0583	38
200.0741	16
201.0738	53
202.052	11
202.07	31
203.065	75
204.0769	156
205.0742	230
206.0714	419
207.0814	339
208.0659	99
208.0875	169
209.0583	201
209.1012	25
210.0688	57
210.1019	68
211.0524	72
211.0805	60
212.081	243
213.0877	29
214.0718	14
215.0586	22
215.0785	22
216.0675	44
216.087	24
217.0711	123
218.0833	103
219.0902	188
220.0867	317
221.0693	60
221.0945	345
222.0663	83
222.0803	35
222.0998	168
223.0776	240
224.0834	212
225.0876	77
226.0796	92
227.0601	144
228.0538	46
228.0671	25
229.0693	57
230.0768	57
231.0843	70
232.0876	94
233.0641	24
233.0986	110
234.0665	90
234.1005	284
235.0781	186
235.1189	57
236.0822	474
237.0872	97
238.0966	265
242.0722	46
243.0797	36
244.0826	145
245.0698	20
245.0943	29
246.1035	59
247.08	51
247.1088	35
248.0817	160
248.1144	147
249.0877	795
250.0969	662
251.1095	25
252.1133	68
256.0829	12
256.0955	16
258.1024	79
259.0866	16
259.113	22
260.0831	66
260.1195	33
261.0923	72
262.0962	596
263.1057	81
264.1147	35
271.1149	18
272.1118	16
273.0953	14
274.0982	60
275.1045	64
276.1142	653
277.1199	86
278.128	92
288.1108	27
290.1259	24
292.1394	22
304.1492	35
