Mass spectrum: Alpha-hydroxy-metoprolol; LC-ESI-QTOF; MS2; 80 V
Name: Alpha-hydroxy-metoprolol
Class: Pharmaceutical; Metabolite; Transformation_product-Metabolite
Formula: C15H25NO4
Exact mass: 283.1784
SMILES: COCC(O)c1ccc(OCC(O)CNC(C)C)cc1
InChI: InChI=1S/C15H25NO4/c1-11(2)16-8-13(17)9-20-14-6-4-12(5-7-14)15(18)10-19-3/h4-7,11,13,15-18H,8-10H2,1-3H3
Instrument: TripleTOF 5600 SCIEX
Instrument type: LC-ESI-QTOF
Ms type: MS2
Ion mode: POSITIVE
Collision energy: 80
Fragmentation mode: CID
Ionization: ESI
Column name: Zorbax Eclipse Plus C18 2.1 mm x 150 mm, 3.5 um, Agilent
Retention time: 5.057 min
Precursor m/z: 284.1856
Precursor type: [M+H]+
m/z	relative intensity
43.0274	12
45.0416	44
56.0557	179
58.0709	48
65.0432	225
72.0841	30
74.063	64
77.0418	999
78.0492	201
79.0573	178
84.0818	10
89.0411	128
90.0483	79
91.0559	750
95.0499	11
100.1141	10
102.0462	33
103.0544	180
105.034	179
105.0699	72
106.0418	95
107.0491	84
115.0544	107
116.0653	11
117.0695	12
118.0405	48
119.05	26
127.0539	45
128.0614	101
131.0495	27
145.0638	11
147.0449	36
