Mass spectrum: Temazepam; LC-ESI-QTOF; MS2; 70 V
Name: Temazepam
Class: Pharmaceutical
Formula: C16H13ClN2O2
Exact mass: 300.0666
SMILES: CN1C2=C(C=C(C=C2)Cl)C(=NC(C1=O)O)C3=CC=CC=C3
InChI: InChI=1S/C16H13ClN2O2/c1-19-13-8-7-11(17)9-12(13)14(18-15(20)16(19)21)10-5-3-2-4-6-10/h2-9,15,20H,1H3
Instrument: TripleTOF 6600 SCIEX
Instrument type: LC-ESI-QTOF
Ms type: MS2
Ion mode: POSITIVE
Collision energy: 70
Fragmentation mode: CID
Ionization: ESI
Column name: Zorbax Eclipse Plus C18 2.1 mm x 150 mm, 3.5 um, Agilent
Retention time: 10.497 min
Precursor m/z: 301.0738
Precursor type: [M+H]+
m/z	relative intensity
50.0135	11
51.0216	58
61.005	14
62.0129	14
63.0209	70
65.0365	27
72.9823	49
74.013	36
75.021	113
77.037	395
88.0289	10
89.0368	528
90.0446	243
91.0517	37
98.9981	224
100.0163	294
102.0324	14
104.0471	110
106.0627	29
108.9828	12
110.9977	178
114.0313	57
115.0411	51
116.0475	38
117.0558	159
122.9972	149
123.9925	59
125.0136	246
127.016	70
127.0526	21
128.0582	17
132.0661	17
135.9933	218
138.0074	23
139.0053	41
139.0519	27
140.0452	12
141.0433	13
142.05	93
149.0396	21
150.0078	134
150.0438	88
151.0048	45
151.0525	437
152.0235	44
152.06	197
153.0545	15
153.0695	19
163.0518	33
163.9988	222
164.06	64
165.0682	618
166.0648	81
167.0712	49
175.0411	11
176.0479	156
177.0212	458
177.054	306
178.0631	266
179.0008	11
179.0673	96
180.0788	198
185.0172	12
190.0648	40
191.0702	94
192.0786	221
193.0869	329
194.0823	109
199.0304	16
201.0324	11
202.0545	38
203.0586	107
204.0659	121
205.0751	543
206.0605	32
212.0267	22
213.0339	25
214.0412	71
218.0809	25
219.092	121
227.0418	26
228.0443	184
229.0502	42
239.0368	999
243.0678	27
253.0522	23
255.0663	139
