Mass spectrum: Napropamide; LC-ESI-QTOF; MS2; 40 V
Name: Napropamide
Class: Herbicide
Formula: C17H21NO2
Exact mass: 271.1572
SMILES: CCN(CC)C(=O)C(C)Oc1cccc2c1cccc2
InChI: InChI=1S/C17H21NO2/c1-4-18(5-2)17(19)13(3)20-16-12-8-10-14-9-6-7-11-15(14)16/h6-13H,4-5H2,1-3H3
Instrument: TripleTOF 6600 SCIEX
Instrument type: LC-ESI-QTOF
Ms type: MS2
Ion mode: POSITIVE
Collision energy: 40
Fragmentation mode: CID
Ionization: ESI
Column name: Zorbax Eclipse Plus C18 2.1 mm x 150 mm, 3.5 um, Agilent
Retention time: 12.596 min
Precursor m/z: 272.1645
Precursor type: [M+H]+
m/z	relative intensity
44.0128	21
44.0494	177
55.0174	30
57.0333	167
58.0652	999
72.0445	111
72.0804	346
73.0889	11
74.0957	119
86.0591	75
100.0752	368
100.1108	111
101.0829	117
114.0906	238
115.0534	41
116.0604	10
127.0535	93
128.0613	355
128.1063	28
129.0692	41
129.114	117
141.0684	24
143.0479	15
143.0849	321
144.0559	40
151.0527	14
152.0612	92
153.0688	256
155.0592	38
170.0714	10
171.0795	559
181.0759	29
