Mass spectrum: Beclomethasone; LC-ESI-QTOF; MS2; 140 V
Name: Beclomethasone
Class: Pharmaceutical
Formula: C22H29ClO5
Exact mass: 408.1704
SMILES: CC1CC2C3CCC4=CC(=O)C=CC4(C3(C(CC2(C1(C(=O)CO)O)C)O)Cl)C
InChI: InChI=1S/C22H29ClO5/c1-12-8-16-15-5-4-13-9-14(25)6-7-19(13,2)21(15,23)17(26)10-20(16,3)22(12,28)18(27)11-24/h6-7,9,12,15-17,24,26,28H,4-5,8,10-11H2,1-3H3
Instrument: TripleTOF 5600 SCIEX
Instrument type: LC-ESI-QTOF
Ms type: MS2
Ion mode: POSITIVE
Collision energy: 140
Fragmentation mode: CID
Ionization: ESI
Column name: Zorbax Eclipse Plus C18 2.1 mm x 150 mm, 3.5 um, Agilent
Retention time: 9.326 min
Precursor m/z: 409.1776
Precursor type: [M+H]+
m/z	relative intensity
51.0234	211
65.0381	272
77.0384	999
89.0407	121
91.0547	787
103.0562	181
115.055	938
121.0651	151
127.0557	242
128.0631	605
131.0475	121
139.0545	272
150.049	151
151.0538	242
152.0604	696
163.0535	211
164.0581	181
165.0694	544
176.0621	393
178.0807	272
189.0686	666
190.0766	151
200.0616	121
202.0773	393
215.085	121
