Mass spectrum: 2,6-Dimethylquinoline; LC-ESI-QTOF; MS2; 80 V
Name: 2,6-Dimethylquinoline
Formula: C11H11N
Exact mass: 157.0891
SMILES: CC1=CC2=C(C=C1)N=C(C=C2)C
InChI: InChI=1S/C11H11N/c1-8-3-6-11-10(7-8)5-4-9(2)12-11/h3-7H,1-2H3
Instrument: TripleTOF 6600 SCIEX
Instrument type: LC-ESI-QTOF
Ms type: MS2
Ion mode: POSITIVE
Collision energy: 80
Fragmentation mode: CID
Ionization: ESI
Column name: Zorbax Eclipse Plus C18 2.1 mm x 150 mm, 3.5 um, Agilent
Retention time: 5.162 min
Precursor m/z: 158.0964
Precursor type: [M+H]+
m/z	relative intensity
35.9992	33
37.007	255
38.0147	171
39.0228	999
41.038	47
42.0326	14
49.0066	30
50.0144	364
51.0222	572
52.0176	16
52.0303	42
61.0061	64
62.0144	269
63.0223	889
64.0171	44
64.0292	22
65.0376	634
66.0452	14
73.0063	28
74.0142	291
75.022	328
76.0295	86
77.0379	289
78.0324	22
78.0449	39
86.0133	42
87.0222	53
88.017	16
88.0293	44
89.0376	780
90.045	25
91.0527	92
92.0487	16
101.0371	28
102.0338	14
102.0456	64
103.0531	22
113.0371	165
114.0327	11
114.045	86
115.053	622
116.0486	30
117.0558	14
126.0451	25
127.0525	81
128.0476	22
128.0604	115
129.0421	25
130.0646	19
140.048	92
141.0559	75
142.0616	16
153.0562	16
154.0631	89
156.0783	16
