Mass spectrum: 3,4,5-Trimethoxybenzoic acid; LC-ESI-QTOF; MS2; 80 V
Name: 3,4,5-Trimethoxybenzoic acid
Class: Pharmaceutical; Industrial_process; Metabolite
Formula: C10H12O5
Exact mass: 212.0685
SMILES: COc1cc(cc(OC)c1OC)C(O)=O
InChI: InChI=1S/C10H12O5/c1-13-7-4-6(10(11)12)5-8(14-2)9(7)15-3/h4-5H,1-3H3,(H,11,12)
Instrument: TripleTOF 5600 SCIEX
Instrument type: LC-ESI-QTOF
Ms type: MS2
Ion mode: POSITIVE
Collision energy: 80
Fragmentation mode: CID
Ionization: ESI
Column name: Zorbax Eclipse Plus C18 2.1 mm x 150 mm, 3.5 um, Agilent
Retention time: 7.633 min
Precursor m/z: 213.0757
Precursor type: [M+H]+
m/z	relative intensity
52.0369	159
53.0118	99
53.0436	179
55.0231	239
65.0418	639
66.0144	159
68.0286	999
69.0019	179
77.0407	399
79.0262	79
80.0277	99
81.0346	179
95.0134	259
95.0497	119
96.0203	259
107.0127	79
