Mass spectrum: Tributylphosphine oxide; LC-ESI-QTOF; MS2; 140 V
Name: Tributylphosphine oxide
Class: Industrial_process
Formula: C12H27OP
Exact mass: 218.18
SMILES: CCCC[P](=O)(CCCC)CCCC
InChI: InChI=1S/C12H27OP/c1-4-7-10-14(13,11-8-5-2)12-9-6-3/h4-12H2,1-3H3
Instrument: TripleTOF 5600 SCIEX
Instrument type: LC-ESI-QTOF
Ms type: MS2
Ion mode: POSITIVE
Collision energy: 140
Fragmentation mode: CID
Ionization: ESI
Column name: Zorbax Eclipse Plus C18 2.1 mm x 150 mm, 3.5 um, Agilent
Retention time: 11.114 min
Precursor m/z: 219.1872
Precursor type: [M+H]+
m/z	relative intensity
37.0162	109
43.9881	322
44.9965	999
45.0174	96
45.0366	38
47.0024	70
47.011	116
48.0197	70
51.0288	64
55.9868	51
56.9932	425
62.9678	58
63.0034	728
77.0403	32
115.0549	38
