Mass spectrum: Dacarbazine; LC-ESI-QTOF; MS2; 50 V
Name: Dacarbazine
Class: Pharmaceutical
Formula: C6H10N6O
Exact mass: 182.0916
SMILES: CN(C)NN=C1C(=NC=N1)C(=O)N
InChI: InChI=1S/C6H10N6O/c1-12(2)11-10-6-4(5(7)13)8-3-9-6/h3,11H,1-2H3,(H2,7,13)
Instrument: TripleTOF 5600 SCIEX
Instrument type: LC-ESI-QTOF
Ms type: MS2
Ion mode: POSITIVE
Collision energy: 50
Fragmentation mode: CID
Ionization: ESI
Column name: Zorbax Eclipse Plus C18 2.1 mm x 150 mm, 3.5 um, Agilent
Retention time: 4.473 min
Precursor m/z: 183.0989
Precursor type: [M+H]+
m/z	relative intensity
38.0113	33
40.0272	42
42.043	16
53.0186	211
53.0287	122
55.0354	76
65.0181	999
66.0012	21
67.0109	55
67.0328	152
68.0155	59
68.0414	520
79.0321	55
80.0398	76
83.0617	21
94.0413	21
95.025	84
123.0423	84
