Mass spectrum: Propyphenazone; LC-ESI-QTOF; MS2; 30 V
Name: Propyphenazone
Class: Pharmaceutical
Formula: C14H18N2O
Exact mass: 230.1419
SMILES: CC1=C(C(=O)N(N1C)C2=CC=CC=C2)C(C)C
InChI: InChI=1S/C14H18N2O/c1-10(2)13-11(3)15(4)16(14(13)17)12-8-6-5-7-9-12/h5-10H,1-4H3
Instrument: TripleTOF 5600 SCIEX
Instrument type: LC-ESI-QTOF
Ms type: MS2
Ion mode: POSITIVE
Collision energy: 30
Fragmentation mode: CID
Ionization: ESI
Column name: Zorbax Eclipse Plus C18 2.1 mm x 150 mm, 3.5 um, Agilent
Retention time: 9.545 min
Precursor m/z: 231.1492
Precursor type: [M+H]+
m/z	relative intensity
56.0497	123
77.0386	17
82.0653	12
92.0494	18
95.0728	16
96.0805	23
104.0494	20
110.0971	20
112.1121	66
117.0631	10
118.0659	34
120.081	45
124.0758	27
130.065	17
131.0731	36
132.0806	16
133.0762	11
138.0914	16
144.0809	53
145.0672	13
146.0943	88
147.0913	10
160.0992	23
161.1074	29
172.0759	10
172.1118	26
174.0807	12
188.0946	15
189.1032	541
201.1031	203
203.1555	17
215.117	16
216.1252	46
229.1325	13
231.1501	999
