Mass spectrum: 17alpha-Hydroxyprogesterone; LC-ESI-QTOF; MS2; 60 V
Name: 17alpha-Hydroxyprogesterone
Class: Pharmaceutical
Formula: C21H30O3
Exact mass: 330.2195
SMILES: CC(=O)[C@@]1(O)CC[C@H]2[C@@H]3CCC4=CC(=O)CC[C@]4(C)[C@H]3CC[C@]12C
InChI: InChI=1S/C21H30O3/c1-13(22)21(24)11-8-18-16-5-4-14-12-15(23)6-9-19(14,2)17(16)7-10-20(18,21)3/h12,16-18,24H,4-11H2,1-3H3/t16-,17+,18+,19+,20+,21+/m1/s1
Instrument: TripleTOF 5600 SCIEX
Instrument type: LC-ESI-QTOF
Ms type: MS2
Ion mode: POSITIVE
Collision energy: 60
Fragmentation mode: CID
Ionization: ESI
Column name: Zorbax Eclipse Plus C18 2.1 mm x 150 mm, 3.5 um, Agilent
Retention time: 11.808 min
Precursor m/z: 331.2268
Precursor type: [M+H]+
m/z	relative intensity
43.0263	167
53.0425	9
55.0231	36
65.0418	34
67.0577	104
69.0358	15
69.0727	62
77.0412	178
79.0572	464
81.0362	15
81.0723	337
83.0506	60
91.0554	267
93.0708	115
94.0414	14
95.0517	23
95.0866	81
97.0659	938
103.0543	19
105.07	234
107.0485	17
107.085	55
108.0581	12
109.0653	999
109.0991	18
115.0533	41
116.061	14
117.0696	78
119.0856	138
121.0646	43
121.1001	14
123.08	167
127.0543	11
128.062	66
129.0696	82
130.0788	40
131.0849	104
133.1015	51
137.0961	11
141.0704	55
142.0777	61
143.0847	84
144.0929	22
145.101	94
147.0803	14
147.1173	39
149.0954	13
153.07	23
154.0778	23
155.0851	63
156.0936	31
157.1017	50
159.1168	38
161.0971	11
163.1133	17
165.069	15
166.078	13
167.0857	29
168.0937	23
169.1006	46
170.1093	12
171.1162	27
173.1324	13
179.0851	13
180.0923	15
181.1008	35
182.1086	14
183.1169	30
185.1331	23
195.1172	20
197.1305	17
199.1472	13
207.1141	12
209.133	13
223.1473	9
237.1643	18
