Mass spectrum: Sulfanilamide; LC-ESI-QTOF; MS2; 40 V
Name: Sulfanilamide
Class: Pharmaceutical; Transformation_product
Formula: C6H8N2O2S
Exact mass: 172.0306
SMILES: C1=CC(=CC=C1N)S(=O)(=O)N
InChI: InChI=1S/C6H8N2O2S/c7-5-1-3-6(4-2-5)11(8,9)10/h1-4H,7H2,(H2,8,9,10)
Instrument: TripleTOF 6600 SCIEX
Instrument type: LC-ESI-QTOF
Ms type: MS2
Ion mode: POSITIVE
Collision energy: 40
Fragmentation mode: CID
Ionization: ESI
Column name: Zorbax Eclipse Plus C18 2.1 mm x 150 mm, 3.5 um, Agilent
Retention time: 3.091 min
Precursor m/z: 173.0379
Precursor type: [M+H]+
m/z	relative intensity
39.0227	77
50.0142	77
65.0374	207
66.0449	170
74.0134	40
75.0213	199
76.0293	240
80.0478	37
92.0478	159
93.056	999
108.0429	55
138.9809	18
173.0358	55
