Mass spectrum: Linezolid; LC-ESI-QTOF; MS2; 70 V
Name: Linezolid
Class: Pharmaceutical
Formula: C16H20FN3O4
Exact mass: 337.1438
SMILES: CC(=O)NCC1CN(C(=O)O1)C2=CC(=C(C=C2)N3CCOCC3)F
InChI: InChI=1S/C16H20FN3O4/c1-11(21)18-9-13-10-20(16(22)24-13)12-2-3-15(14(17)8-12)19-4-6-23-7-5-19/h2-3,8,13H,4-7,9-10H2,1H3,(H,18,21)
Instrument: TripleTOF 5600 SCIEX
Instrument type: LC-ESI-QTOF
Ms type: MS2
Ion mode: POSITIVE
Collision energy: 70
Fragmentation mode: CID
Ionization: ESI
Column name: Zorbax Eclipse Plus C18 2.1 mm x 150 mm, 3.5 um, Agilent
Retention time: 6.936 min
Precursor m/z: 338.1511
Precursor type: [M+H]+
m/z	relative intensity
43.0183	29
44.0496	11
45.0335	22
56.0498	226
75.0233	18
77.0387	47
78.0331	13
83.0302	36
84.044	18
89.0397	47
90.0353	20
90.0445	15
91.0526	33
92.0491	13
95.0293	31
96.0377	13
97.0444	27
98.0397	13
99.0217	13
101.0388	45
102.0352	18
103.0555	38
104.0502	47
105.0548	11
106.0638	11
107.029	70
108.0369	115
109.0294	11
109.0452	176
110.0403	54
110.0536	31
111.0469	111
112.054	20
114.0359	20
115.0536	160
116.0494	158
117.0588	147
118.0655	56
119.0566	11
120.0354	18
121.0458	18
122.0402	178
123.0484	120
124.0558	124
125.0516	70
126.0331	13
126.0593	11
127.0531	20
128.0513	52
129.0586	36
130.0643	61
131.0597	49
132.0667	24
133.0414	24
133.0783	18
134.0397	104
135.0481	584
136.0384	11
136.0557	326
137.0574	255
138.064	81
139.0663	52
140.0519	18
141.0571	40
142.0646	83
143.0589	40
143.0706	33
144.0731	27
145.0434	15
145.0772	18
146.0396	63
147.0469	113
148.0559	999
149.0531	147
150.0674	154
151.0671	172
152.0744	40
153.0828	31
154.0666	38
155.0614	29
156.0706	63
157.0766	13
159.0898	13
160.0559	27
161.0499	24
161.0637	95
162.0704	133
163.0668	169
164.0699	11
164.0814	20
165.0823	106
166.0891	11
167.0586	18
167.0987	11
168.0674	24
169.0748	117
171.0962	22
172.0556	56
173.0522	29
174.0591	147
175.0661	40
176.0732	29
177.0808	52
179.0609	24
181.0755	13
183.0952	11
187.0668	92
188.0751	9
189.0815	79
191.098	27
195.0967	24
201.0866	13
215.1118	11
