Mass spectrum: Thioridazine; LC-ESI-QTOF; MS2; 130 V
Name: Thioridazine
Class: Pharmaceutical
Formula: C21H26N2S2
Exact mass: 370.1537
SMILES: CN1CCCCC1CCN2C3=CC=CC=C3SC4=C2C=C(C=C4)SC
InChI: InChI=1S/C21H26N2S2/c1-22-13-6-5-7-16(22)12-14-23-18-8-3-4-9-20(18)25-21-11-10-17(24-2)15-19(21)23/h3-4,8-11,15-16H,5-7,12-14H2,1-2H3
Instrument: TripleTOF 5600 SCIEX
Instrument type: LC-ESI-QTOF
Ms type: MS2
Ion mode: POSITIVE
Collision energy: 130
Fragmentation mode: CID
Ionization: ESI
Column name: Zorbax Eclipse Plus C18 2.1 mm x 150 mm, 3.5 um, Agilent
Retention time: 9.472 min
Precursor m/z: 371.161
Precursor type: [M+H]+
m/z	relative intensity
42.0448	499
44.0594	73
51.0282	11
55.0601	59
56.0549	31
57.0623	39
58.0712	88
65.0419	21
67.0591	19
68.0537	252
68.9834	25
70.0698	999
74.0183	17
75.0283	23
77.0414	94
80.0521	15
82.0668	84
83.0754	39
84.0823	33
87.0267	19
88.0318	17
89.04	78
90.0502	11
94.0682	11
96.0824	43
98.0162	21
98.0978	760
99.0235	23
101.0392	31
102.0463	35
108.0046	13
109.0091	9
113.0381	94
114.0469	41
114.0606	9
115.0546	152
116.049	29
125.0381	80
126.0467	165
126.1285	15
127.0407	27
127.054	98
128.051	82
128.0664	13
134.0189	13
137.0371	25
138.0464	67
139.055	949
140.051	465
141.058	25
149.0392	27
150.047	292
151.055	418
152.0519	153
153.0574	148
154.0641	78
158.0198	19
163.0533	21
164.0493	126
165.0602	51
166.0657	815
166.0919	15
167.0735	864
169.0094	29
171.0265	35
175.0444	19
176.0497	23
176.0625	15
177.058	153
177.0846	9
178.0648	209
179.0746	17
182.0208	25
183.0251	25
184.0259	13
185.0297	17
186.038	25
190.0654	15
191.0746	19
196.022	51
197.0287	27
198.0398	29
202.0665	17
203.0743	17
204.0808	21
208.0233	33
209.0312	65
210.0389	59
