Mass spectrum: Dehydroepiandrosterone; LC-ESI-QTOF; MS2; 60 V
Name: Dehydroepiandrosterone
Class: Pharmaceutical
Formula: C19H28O2
Exact mass: 288.2089
SMILES: C[C@]12CC[C@H]3[C@@H](CC=C4C[C@@H](O)CC[C@]34C)[C@@H]1CCC2=O
InChI: InChI=1S/C19H28O2/c1-18-9-7-13(20)11-12(18)3-4-14-15-5-6-17(21)19(15,2)10-8-16(14)18/h3,13-16,20H,4-11H2,1-2H3/t13-,14-,15-,16-,18-,19-/m0/s1
Instrument: TripleTOF 5600 SCIEX
Instrument type: LC-ESI-QTOF
Ms type: MS2
Ion mode: POSITIVE
Collision energy: 60
Fragmentation mode: CID
Ionization: ESI
Column name: Zorbax Eclipse Plus C18 2.1 mm x 150 mm, 3.5 um, Agilent
Retention time: 11.589 min
Precursor m/z: 289.2162
Precursor type: [M+H]+
m/z	relative intensity
67.058	153
77.0426	358
79.0577	333
81.0724	230
91.055	999
93.0712	179
103.0568	128
105.0689	614
115.054	486
116.0603	128
117.0684	384
119.0861	230
127.0528	153
128.0625	589
129.0692	409
130.0766	230
131.0852	307
133.1001	128
141.0684	409
142.076	512
143.0836	333
145.1042	153
153.0687	281
154.0792	128
155.0839	307
156.0932	204
157.1014	256
159.1157	153
167.085	333
169.1	179
171.116	128
181.1039	179
182.1075	128
183.1194	153
