Mass spectrum: Chlormethiazole; LC-ESI-QTOF; MS2; 40 V
Name: Chlormethiazole
Class: Pharmaceutical
Formula: C6H8ClNS
Exact mass: 161.0066
SMILES: CC1=C(SC=N1)CCCl
InChI: InChI=1S/C6H8ClNS/c1-5-6(2-3-7)9-4-8-5/h4H,2-3H2,1H3
Instrument: TripleTOF 6600 SCIEX
Instrument type: LC-ESI-QTOF
Ms type: MS2
Ion mode: POSITIVE
Collision energy: 40
Fragmentation mode: CID
Ionization: ESI
Column name: Zorbax Eclipse Plus C18 2.1 mm x 150 mm, 3.5 um, Agilent
Retention time: 7.946 min
Precursor m/z: 162.0139
Precursor type: [M+H]+
m/z	relative intensity
39.0232	18
42.034	35
44.9792	26
53.0389	18
54.0336	13
55.0419	21
55.0541	22
58.9947	33
65.0382	92
69.0567	14
70.9945	157
72.0025	80
78.0332	10
80.0494	93
84.0032	11
85.01	60
86.0181	44
97.0103	19
98.0053	23
99.0254	66
112.0211	597
113.029	999
126.0368	260
162.0126	31
