Mass spectrum: Flusilazole; LC-ESI-QTOF; MS2; 150 V
Name: Flusilazole
Class: Fungicide
Formula: C16H15F2N3Si
Exact mass: 315.1003
SMILES: C[Si](CN1C=NC=N1)(C2=CC=C(C=C2)F)C3=CC=C(C=C3)F
InChI: InChI=1S/C16H15F2N3Si/c1-22(12-21-11-19-10-20-21,15-6-2-13(17)3-7-15)16-8-4-14(18)5-9-16/h2-11H,12H2,1H3
Instrument: TripleTOF 6600 SCIEX
Instrument type: LC-ESI-QTOF
Ms type: MS2
Ion mode: POSITIVE
Collision energy: 150
Fragmentation mode: CID
Ionization: ESI
Column name: Zorbax Eclipse Plus C18 2.1 mm x 150 mm, 3.5 um, Agilent
Retention time: 12.729 min
Precursor m/z: 316.1076
Precursor type: [M+H]+
m/z	relative intensity
30.9975	46
33.013	33
35.9993	16
37.0069	84
38.0146	65
39.0228	181
42.9987	18
46.9744	999
49.0069	51
50.0149	254
51.0222	304
52.9841	18
57.0128	376
59.0284	15
59.9982	42
61.0063	160
62.0144	278
63.0224	357
65.0383	37
68.0044	16
69.0126	14
73.0066	88
74.0141	500
75.0219	155
76.03	27
77.038	66
81.0123	62
83.0283	219
83.9984	26
85.0063	100
86.0137	183
87.0215	145
88.0301	12
89.0373	110
94.0194	15
96.0374	10
97.0061	36
98.0141	243
99.0214	49
100.0297	10
102.0449	13
105.0123	25
107.028	62
109.0059	55
109.0438	11
110.0138	105
111.0227	51
113.0381	43
115.0535	19
120.0361	10
121.0045	15
122.0142	92
123.0209	24
124.0314	10
125.0363	10
126.0463	10
131.0282	28
133.0433	21
134.0137	18
137.0369	56
139.0517	19
149.0365	15
150.045	63
151.0516	11
155.0299	23
157.0426	28
161.0378	114
162.0446	95
163.0531	166
168.0357	24
179.0283	60
180.0371	50
181.0437	108
199.0345	21
