Mass spectrum: Phenothiazine; LC-ESI-QTOF; MS2; 100 V
Name: Phenothiazine
Class: Pharmaceutical
Formula: C12H9NS
Exact mass: 199.0456
SMILES: C1=CC=C2C(=C1)NC3=CC=CC=C3S2
InChI: InChI=1S/C12H9NS/c1-3-7-11-9(5-1)13-10-6-2-4-8-12(10)14-11/h1-8,13H
Instrument: TripleTOF 6600 SCIEX
Instrument type: LC-ESI-QTOF
Ms type: MS2
Ion mode: POSITIVE
Collision energy: 100
Fragmentation mode: CID
Ionization: ESI
Column name: Zorbax Eclipse Plus C18 2.1 mm x 150 mm, 3.5 um, Agilent
Retention time: 13.113 min
Precursor m/z: 200.0529
Precursor type: [M+H]+
m/z	relative intensity
37.0061	71
38.0141	53
39.0223	188
44.9784	161
49.0059	98
50.0141	551
51.0217	815
52.017	35
52.0287	44
53.0374	26
57.9864	26
59.9975	26
61.006	201
62.0135	412
63.0217	999
64.0174	49
64.0255	40
65.0371	183
67.97	44
68.9779	788
69.9854	67
70.9926	22
73.006	26
74.0135	322
75.0212	416
76.016	17
76.0293	120
77.037	470
78.0333	17
78.0433	31
80.977	26
81.9853	85
83.9971	22
85.0051	76
86.0136	250
87.0209	380
88.0168	76
88.0285	107
89.0372	663
90.0321	35
90.0434	31
92.9781	62
94.9929	58
98.0129	120
99.0091	17
99.0205	62
100.0275	35
101.036	94
102.0322	35
102.0447	80
108.0009	58
110.0122	35
111.0195	40
112.0273	22
113.0368	645
114.0319	134
115.0519	170
116.0484	35
125.036	31
126.0446	246
127.0391	26
127.0519	85
128.0474	107
129.0426	53
137.0364	116
138.0319	22
138.0435	71
139.052	564
140.0475	425
145.007	22
152.0471	35
153.0548	35
154.0636	17
155.0571	40
164.0468	125
165.0543	40
166.0632	53
169.0083	22
171.0254	22
196.0188	31
