Mass spectrum: Levamisole; LC-ESI-QTOF; MS2; 150 V
Name: Levamisole
Class: Pharmaceutical
Formula: C11H12N2S
Exact mass: 204.0721
SMILES: c1ccc(cc1)[C@H]2CN3CCSC3=N2
InChI: InChI=1S/C11H12N2S/c1-2-4-9(5-3-1)10-8-13-6-7-14-11(13)12-10/h1-5,10H,6-8H2/t10-/m1/s1
Instrument: TripleTOF 5600 SCIEX
Instrument type: LC-ESI-QTOF
Ms type: MS2
Ion mode: POSITIVE
Collision energy: 150
Fragmentation mode: CID
Ionization: ESI
Column name: Zorbax Eclipse Plus C18 2.1 mm x 150 mm, 3.5 um, Agilent
Retention time: 5.021 min
Precursor m/z: 205.0794
Precursor type: [M+H]+
m/z	relative intensity
49.0374	32
51.0289	999
57.9902	32
58.9989	64
59.9947	249
60.0079	64
63.0384	40
65.0421	56
71.9941	32
73.0102	128
74.0179	451
74.0386	32
75.026	64
77.0415	72
85.0085	40
89.0397	56
