Mass spectrum: C-desmethyl-metoprolol; LC-ESI-QTOF; MS2; 70 V
Name: C-desmethyl-metoprolol
Formula: C14H23NO3
Exact mass: 253.1678
SMILES: CCNCC(COC1=CC=C(C=C1)CCOC)O
InChI: InChI=1S/C14H23NO3/c1-3-15-10-13(16)11-18-14-6-4-12(5-7-14)8-9-17-2/h4-7,13,15-16H,3,8-11H2,1-2H3
Instrument: TripleTOF 5600 SCIEX
Instrument type: LC-ESI-QTOF
Ms type: MS2
Ion mode: POSITIVE
Collision energy: 70
Fragmentation mode: CID
Ionization: ESI
Column name: Zorbax Eclipse Plus C18 2.1 mm x 150 mm, 3.5 um, Agilent
Retention time: 5.422 min
Precursor m/z: 254.1751
Precursor type: [M+H]+
m/z	relative intensity
39.0232	17
41.0392	19
42.0339	14
44.0499	36
45.0334	14
50.0152	17
51.0234	91
56.0498	63
58.0655	284
65.0391	74
67.0549	17
70.0653	31
77.0391	999
78.049	23
79.0544	153
84.0819	38
86.0972	25
89.0382	19
90.0476	12
91.054	276
102.0475	51
102.0918	27
103.0542	229
104.0628	21
105.0322	14
105.0694	40
107.0488	17
115.0544	148
116.0636	25
119.0485	14
128.0631	23
