Mass spectrum: Ketoconazole; LC-ESI-QTOF; MS2; 60 V
Name: Ketoconazole
Class: Fungicide; Pharmaceutical
Formula: C26H28Cl2N4O4
Exact mass: 530.1488
SMILES: CC(=O)N1CCN(CC1)C2=CC=C(C=C2)OCC3COC(O3)(CN4C=CN=C4)C5=C(C=C(C=C5)Cl)Cl
InChI: InChI=1S/C26H28Cl2N4O4/c1-19(33)31-10-12-32(13-11-31)21-3-5-22(6-4-21)34-15-23-16-35-26(36-23,17-30-9-8-29-18-30)24-7-2-20(27)14-25(24)28/h2-9,14,18,23H,10-13,15-17H2,1H3
Instrument: TripleTOF 5600 SCIEX
Instrument type: LC-ESI-QTOF
Ms type: MS2
Ion mode: POSITIVE
Collision energy: 60
Fragmentation mode: CID
Ionization: ESI
Column name: Zorbax Eclipse Plus C18 2.1 mm x 150 mm, 3.5 um, Agilent
Retention time: 7.94 min
Precursor m/z: 531.156
Precursor type: [M+H]+
m/z	relative intensity
56.0609	14
69.0498	62
70.0711	84
71.0666	89
79.0594	9
81.0491	458
82.057	999
83.0644	32
86.0643	74
91.0577	17
95.0641	17
103.0574	9
105.0718	17
107.0551	52
109.0481	14
109.08	14
112.0772	453
115.0566	22
117.0626	37
118.067	37
120.0459	139
120.0824	52
121.0618	14
122.061	129
122.9997	14
127.0513	72
129.0712	34
130.0653	47
131.0509	24
131.0734	22
132.059	22
132.0813	54
133.0547	29
134.06	151
135.0686	381
136.0767	241
139.037	19
143.0731	12
144.0811	92
145.0635	17
145.0881	52
145.9693	9
146.0595	74
146.0968	174
146.9814	17
147.0714	17
148.0763	505
149.0115	37
150.0234	37
151.0335	17
154.0664	19
156.0786	42
157.0647	9
157.9689	57
158.0969	67
158.9762	311
159.0682	32
160.0767	59
161.0867	27
161.11	12
162.0901	64
162.1155	9
163.0299	37
163.0839	12
163.1232	59
167.0267	87
167.081	391
169.9682	241
170.9722	17
172.0764	72
172.1135	32
172.9551	241
173.0781	27
173.1	17
174.0916	448
174.976	9
175.0899	19
175.1221	9
176.0983	57
177.1025	677
178.0892	17
178.1088	137
179.0262	19
184.9922	151
185.9634	540
186.9718	52
188.1045	52
189.1351	47
190.0821	12
191.0237	12
191.0893	14
191.115	12
192.1016	124
200.1034	79
201.9889	12
202.0012	9
202.9649	74
203.0363	139
204.102	37
205.0372	19
205.0987	29
205.1298	34
209.033	42
215.1209	22
216.0995	139
216.1256	22
217.1348	288
218.1176	54
219.1129	343
220.1195	99
233.0422	27
233.1251	24
234.1158	49
235.1428	89
236.9957	12
238.0032	201
239.0145	59
244.0048	328
247.0606	97
254.0062	14
255.0079	734
259.1446	14
267.008	463
268.0093	12
281.0255	82
282.0317	42
297.0268	12
311.0373	97
378.0651	164
420.0645	17
420.0868	42
421.1034	32
446.0974	72
487.0931	9
487.1256	19
487.1575	9
489.142	440
531.154	246
