Mass spectrum: Dimethachlor ESA; LC-ESI-QTOF; MS2; 70 V
Name: Dimethachlor ESA
Class: Transformation_product; Herbicide
Formula: C13H19NO5S
Exact mass: 301.0984
SMILES: Cc1cccc(c1N(CCOC)C(=O)CS(=O)(=O)O)C
InChI: InChI=1S/C13H19NO5S/c1-10-5-4-6-11(2)13(10)14(7-8-19-3)12(15)9-20(16,17)18/h4-6H,7-9H2,1-3H3,(H,16,17,18)
Instrument: TripleTOF 6600 SCIEX
Instrument type: LC-ESI-QTOF
Ms type: MS2
Ion mode: POSITIVE
Collision energy: 70
Fragmentation mode: CID
Ionization: ESI
Column name: Zorbax Eclipse Plus C18 2.1 mm x 150 mm, 3.5 um, Agilent
Retention time: 6.763 min
Precursor m/z: 302.1057
Precursor type: [M+H]+
m/z	relative intensity
51.0242	45
77.039	329
79.0546	227
90.0477	56
91.0543	113
103.0544	181
105.0704	533
115.0557	79
117.057	999
118.0622	56
130.0647	578
131.0732	749
132.0804	703
144.0808	102
146.0969	329
158.0996	90
174.0903	45
