Mass spectrum: Allethrin; LC-ESI-QTOF; MS2; 40 V
Name: Allethrin
Class: Insecticide
Formula: C19H26O3
Exact mass: 302.1882
SMILES: CC(C)=CC1C(C(=O)OC2CC(=O)C(=C2C)CC=C)C1(C)C
InChI: InChI=1S/C19H26O3/c1-7-8-13-12(4)16(10-15(13)20)22-18(21)17-14(9-11(2)3)19(17,5)6/h7,9,14,16-17H,1,8,10H2,2-6H3
Instrument: TripleTOF 5600 SCIEX
Instrument type: LC-ESI-QTOF
Ms type: MS2
Ion mode: POSITIVE
Collision energy: 40
Fragmentation mode: CID
Ionization: ESI
Column name: Zorbax Eclipse Plus C18 2.1 mm x 150 mm, 3.5 um, Agilent
Retention time: 16.132 min
Precursor m/z: 303.1955
Precursor type: [M+H]+
m/z	relative intensity
43.0277	17
55.0233	20
55.0591	23
57.0734	20
59.0541	17
65.0439	54
67.0578	102
69.0369	27
69.0725	95
77.0413	187
79.0569	678
81.0715	412
83.0509	27
83.0866	17
91.0555	999
93.0708	617
95.0506	27
95.0855	115
97.0673	23
103.0555	17
105.0697	439
107.0493	78
107.0857	702
108.0914	13
109.0636	122
109.1003	54
113.0594	23
115.0537	313
116.0609	17
117.0693	276
119.0598	13
119.0845	51
120.0568	17
121.0643	64
121.1012	303
123.0798	20
123.1163	508
125.0599	23
129.0697	23
131.0852	37
133.0626	47
133.1	47
135.0795	688
135.1144	13
137.0935	30
139.1107	27
143.084	23
145.0997	23
147.1159	20
149.0961	105
151.1097	54
156.0943	27
157.1019	27
159.0789	20
159.1137	20
161.0965	27
173.0966	13
173.1331	23
175.1122	13
