Mass spectrum: Entacapone; LC-ESI-QTOF; MS2; 140 V
Name: Entacapone
Class: Pharmaceutical
Formula: C14H15N3O5
Exact mass: 305.1012
SMILES: CCN(CC)C(=O)C(=CC1=CC(=C(C(=C1)O)O)[N+](=O)[O-])C#N
InChI: InChI=1S/C14H15N3O5/c1-3-16(4-2)14(20)10(8-15)5-9-6-11(17(21)22)13(19)12(18)7-9/h5-7,18-19H,3-4H2,1-2H3
Instrument: TripleTOF 5600 SCIEX
Instrument type: LC-ESI-QTOF
Ms type: MS2
Ion mode: NEGATIVE
Collision energy: 140
Fragmentation mode: CID
Ionization: ESI
Column name: Zorbax Eclipse Plus C18 2.1 mm x 150 mm, 3.5 um, Agilent
Retention time: 9.381 min
Precursor m/z: 304.0939
Precursor type: [M-H]-
m/z	relative intensity
38.0035	124
41.9979	149
45.9928	99
50.0032	649
65.003	99
65.9981	999
74.0031	524
88.0194	74
114.036	74
