Mass spectrum: Mitomycin A; LC-ESI-QTOF; MS2; 150 V
Name: Mitomycin A
Class: Pharmaceutical
Formula: C16H19N3O6
Exact mass: 349.1274
SMILES: COC1=C(C)C(=O)C2=C([C@H](COC(N)=O)[C@]3(OC)[C@@H]4N[C@@H]4CN23)C1=O
InChI: InChI=1S/C16H19N3O6/c1-6-11(20)10-9(12(21)13(6)23-2)7(5-25-15(17)22)16(24-3)14-8(18-14)4-19(10)16/h7-8,14,18H,4-5H2,1-3H3,(H2,17,22)/t7-,8+,14+,16-/m0/s1
Instrument: TripleTOF 5600 SCIEX
Instrument type: LC-ESI-QTOF
Ms type: MS2
Ion mode: POSITIVE
Collision energy: 150
Fragmentation mode: CID
Ionization: ESI
Column name: Zorbax Eclipse Plus C18 2.1 mm x 150 mm, 3.5 um, Agilent
Retention time: 7.046 min
Precursor m/z: 350.1347
Precursor type: [M+H]+
m/z	relative intensity
51.029	420
65.0426	262
74.0177	262
75.0255	455
76.0218	175
76.0335	105
77.0414	999
77.0579	157
78.0352	175
80.0517	87
87.0244	105
88.0332	157
89.0393	893
90.048	70
92.0522	70
101.039	157
102.0332	87
102.0465	245
103.0528	140
104.0515	210
113.0403	122
114.0424	105
115.0533	420
117.0557	175
128.0471	122
129.0442	122
130.0639	70
131.0571	87
140.0483	175
141.0546	122
142.0512	122
155.0593	210
