Mass spectrum: Prednisone; LC-ESI-QTOF; MS2; 120 V
Name: Prednisone
Class: Pharmaceutical
Formula: C21H26O5
Exact mass: 358.178
SMILES: C[C@]12CC(=O)[C@H]3[C@@H](CCC4=CC(=O)C=C[C@]34C)[C@@H]1CC[C@]2(O)C(=O)CO
InChI: InChI=1S/C21H26O5/c1-19-7-5-13(23)9-12(19)3-4-14-15-6-8-21(26,17(25)11-22)20(15,2)10-16(24)18(14)19/h5,7,9,14-15,18,22,26H,3-4,6,8,10-11H2,1-2H3/t14-,15-,18+,19-,20-,21-/m0/s1
Instrument: TripleTOF 5600 SCIEX
Instrument type: LC-ESI-QTOF
Ms type: MS2
Ion mode: POSITIVE
Collision energy: 120
Fragmentation mode: CID
Ionization: ESI
Column name: Zorbax Eclipse Plus C18 2.1 mm x 150 mm, 3.5 um, Agilent
Retention time: 8.469 min
Precursor m/z: 359.1853
Precursor type: [M+H]+
m/z	relative intensity
43.0251	48
51.0275	99
53.0439	27
65.0417	181
67.0569	30
75.0265	17
76.0345	20
77.0412	799
77.0784	13
78.0483	65
79.0555	89
81.0697	13
89.0397	85
91.0552	504
93.0707	20
95.0853	17
101.0385	20
102.0465	102
103.0543	223
104.061	30
105.0326	13
105.0667	17
107.0485	51
113.036	13
114.045	24
115.054	999
116.062	78
117.0696	44
121.0645	37
126.046	72
127.0539	271
128.0615	501
128.0955	13
129.0682	75
131.048	233
132.0548	58
139.0531	164
140.0605	30
141.07	157
144.0569	48
145.0631	34
150.0469	72
151.053	223
152.0612	638
153.0698	140
154.0778	17
157.0624	54
163.0542	113
164.0616	109
165.0691	645
166.0797	20
167.0813	13
168.0559	17
169.0633	27
175.0561	20
176.0607	230
177.069	130
178.0769	339
179.0843	51
181.064	89
187.0536	24
188.0602	41
189.0688	435
190.0764	68
191.0856	48
194.0721	24
200.0616	61
201.0711	82
202.077	343
203.0847	51
205.0661	48
207.0789	20
213.0684	75
214.0801	17
215.085	130
218.0751	41
219.0778	17
226.0778	58
228.0934	17
231.0783	41
