Mass spectrum: Aclonifen; LC-ESI-QTOF; MS2; 40 V
Name: Aclonifen
Class: Herbicide
Formula: C12H9ClN2O3
Exact mass: 264.0302
SMILES: Nc1c(Cl)c(Oc2ccccc2)ccc1[N+]([O-])=O
InChI: InChI=1S/C12H9ClN2O3/c13-11-10(18-8-4-2-1-3-5-8)7-6-9(12(11)14)15(16)17/h1-7H,14H2
Instrument: TripleTOF 5600 SCIEX
Instrument type: LC-ESI-QTOF
Ms type: MS2
Ion mode: POSITIVE
Collision energy: 40
Fragmentation mode: CID
Ionization: ESI
Column name: Zorbax Eclipse Plus C18 2.1 mm x 150 mm, 3.5 um, Agilent
Retention time: 13.815 min
Precursor m/z: 265.0374
Precursor type: [M+H]+
m/z	relative intensity
65.0416	15
77.0416	158
80.0158	153
127.0548	69
128.0614	34
138.0335	64
139.0422	82
140.0489	11
153.056	11
154.0656	85
155.0492	86
155.0728	18
163.0309	35
165.0448	139
166.052	83
167.0358	44
174.01	45
182.0605	999
183.0682	144
190.0186	10
190.0414	22
193.0403	36
194.0478	173
203.0119	14
217.0299	239
218.0363	273
248.035	258
