Mass spectrum: Oseltamivir; LC-ESI-QTOF; MS2; 90 V
Name: Oseltamivir
Class: Pharmaceutical
Formula: C16H28N2O4
Exact mass: 312.2049
SMILES: CCC(CC)O[C@@H]1C=C(C[C@@H]([C@H]1/N=C(\C)/O)N)C(=O)OCC
InChI: InChI=1S/C16H28N2O4/c1-5-12(6-2)22-14-9-11(16(20)21-7-3)8-13(17)15(14)18-10(4)19/h9,12-15H,5-8,17H2,1-4H3,(H,18,19)/t13-,14+,15+/m0/s1
Instrument: TripleTOF 5600 SCIEX
Instrument type: LC-ESI-QTOF
Ms type: MS2
Ion mode: POSITIVE
Collision energy: 90
Fragmentation mode: CID
Ionization: ESI
Column name: Zorbax Eclipse Plus C18 2.1 mm x 150 mm, 3.5 um, Agilent
Retention time: 6.973 min
Precursor m/z: 313.2122
Precursor type: [M+H]+
m/z	relative intensity
43.0245	34
51.0288	63
53.0426	22
55.0586	16
65.0433	999
66.0498	98
67.0542	220
68.0526	28
77.0409	566
78.0361	29
80.0517	345
81.0585	22
82.0667	118
83.0516	14
91.0426	12
92.0507	659
93.0578	328
94.0322	14
94.0656	190
106.0651	14
108.0441	17
108.0683	21
109.0745	41
110.0595	24
119.0597	45
120.0439	233
137.0457	20
138.0565	13
