Mass spectrum: Hydroxychloroquine; LC-ESI-QTOF; MS2; 40 V
Name: Hydroxychloroquine
Class: Pharmaceutical
Formula: C18H26ClN3O
Exact mass: 335.1764
SMILES: CCN(CCCC(C)NC1=C2C=CC(=CC2=NC=C1)Cl)CCO
InChI: InChI=1S/C18H26ClN3O/c1-3-22(11-12-23)10-4-5-14(2)21-17-8-9-20-18-13-15(19)6-7-16(17)18/h6-9,13-14,23H,3-5,10-12H2,1-2H3,(H,20,21)
Instrument: TripleTOF 5600 SCIEX
Instrument type: LC-ESI-QTOF
Ms type: MS2
Ion mode: POSITIVE
Collision energy: 40
Fragmentation mode: CID
Ionization: ESI
Column name: Zorbax Eclipse Plus C18 2.1 mm x 150 mm, 3.5 um, Agilent
Retention time: 4.747 min
Precursor m/z: 336.1837
Precursor type: [M+H]+
m/z	relative intensity
69.0697	23
72.0802	7
84.081	23
90.0905	23
102.0907	111
144.0644	31
155.0556	15
156.0669	31
158.1445	7
158.1555	183
164.023	31
178.0282	31
178.0391	15
179.0351	311
191.0374	183
203.0371	7
205.0512	71
206.0716	7
247.0995	999
336.1847	167
