Mass spectrum: Diatrizoate; LC-ESI-QTOF; MS2; 100 V
Name: Diatrizoate
Class: Pharmaceutical
Formula: C11H9I3N2O4
Exact mass: 613.7697
SMILES: C/C(=N\c1c(c(c(c(c1I)C(=O)O)I)/N=C(/O)\C)I)/O
InChI: InChI=1S/C11H9I3N2O4/c1-3(17)15-9-6(12)5(11(19)20)7(13)10(8(9)14)16-4(2)18/h1-2H3,(H,15,17)(H,16,18)(H,19,20)
Instrument: TripleTOF 5600 SCIEX
Instrument type: LC-ESI-QTOF
Ms type: MS2
Ion mode: POSITIVE
Collision energy: 100
Fragmentation mode: CID
Ionization: ESI
Column name: Zorbax Eclipse Plus C18 2.1 mm x 150 mm, 3.5 um, Agilent
Retention time: 4.549 min
Precursor m/z: 614.7769
Precursor type: [M+H]+
m/z	relative intensity
77.0295	46
78.0352	46
79.0447	59
91.0427	72
92.0509	72
104.0466	33
106.0289	66
107.0344	72
118.0246	33
118.0523	178
119.0345	39
119.0591	39
120.0432	172
120.064	66
132.04	33
134.0218	33
145.0389	86
146.0213	66
146.0463	258
147.0263	33
147.0539	39
148.0392	999
159.0555	152
160.0402	39
161.0696	46
164.0314	33
165.0405	99
174.0434	119
175.0563	33
187.0503	231
188.035	33
188.0562	33
189.0685	125
192.0521	344
203.9313	99
205.061	132
215.0437	79
219.0388	132
231.924	46
233.0552	549
272.9498	39
