Mass spectrum: Meclofenamic acid; LC-ESI-QTOF; MS2; 110 V
Name: Meclofenamic acid
Class: Pharmaceutical
Formula: C14H11Cl2NO2
Exact mass: 295.0167
SMILES: Cc1ccc(c(c1Cl)Nc2ccccc2C(=O)O)Cl
InChI: InChI=1S/C14H11Cl2NO2/c1-8-6-7-10(15)13(12(8)16)17-11-5-3-2-4-9(11)14(18)19/h2-7,17H,1H3,(H,18,19)
Instrument: TripleTOF 5600 SCIEX
Instrument type: LC-ESI-QTOF
Ms type: MS2
Ion mode: POSITIVE
Collision energy: 110
Fragmentation mode: CID
Ionization: ESI
Column name: Zorbax Eclipse Plus C18 2.1 mm x 150 mm, 3.5 um, Agilent
Retention time: 13.705 min
Precursor m/z: 296.024
Precursor type: [M+H]+
m/z	relative intensity
74.0181	103
75.0251	166
76.0344	76
77.0406	336
77.0658	26
78.0489	37
86.0198	18
87.0262	29
88.0343	15
89.0408	52
98.0153	45
99.0223	103
100.0302	13
100.0544	15
101.0372	105
101.0503	10
102.0316	47
102.0452	63
111.0041	13
111.0266	15
113.0372	52
114.0328	13
115.0534	13
122.013	10
123.0214	13
124.0321	23
125.0379	209
126.0455	246
127.0407	50
127.0528	98
128.049	105
128.0705	15
129.0563	10
130.0407	15
137.0364	23
137.0504	15
138.0478	23
139.0541	21
140.0485	47
149.0384	103
150.0454	890
150.0799	13
151.0529	999
152.0596	670
153.0546	132
154.0647	13
154.0744	13
164.0482	45
175.0406	34
176.0481	111
177.0563	455
177.0814	23
178.0641	683
179.0709	71
180.08	18
213.0329	15
