Mass spectrum: Leucomalachite green; LC-ESI-QTOF; MS2; 80 V
Name: Leucomalachite green
Class: Metabolite
Formula: C23H26N2
Exact mass: 330.2096
SMILES: CN(C)C1=CC=C(C=C1)C(C2=CC=CC=C2)C3=CC=C(C=C3)N(C)C
InChI: InChI=1S/C23H26N2/c1-24(2)21-14-10-19(11-15-21)23(18-8-6-5-7-9-18)20-12-16-22(17-13-20)25(3)4/h5-17,23H,1-4H3
Instrument: TripleTOF 6600 SCIEX
Instrument type: LC-ESI-QTOF
Ms type: MS2
Ion mode: POSITIVE
Collision energy: 80
Fragmentation mode: CID
Ionization: ESI
Column name: Zorbax Eclipse Plus C18 2.1 mm x 150 mm, 3.5 um, Agilent
Retention time: 9.974 min
Precursor m/z: 331.2169
Precursor type: [M+H]+
m/z	relative intensity
77.0378	10
91.0542	17
115.0536	20
118.0645	13
120.0808	17
128.061	16
139.0537	10
141.0692	21
144.0805	9
151.0544	19
152.061	195
153.0689	202
154.0761	32
155.0856	19
163.0536	17
164.0611	56
165.0692	530
166.0766	132
167.0767	79
168.0782	15
170.0949	12
177.0673	12
178.0715	21
179.0715	75
180.0795	262
181.0871	94
182.096	93
191.0749	10
192.08	56
193.0879	121
194.0961	543
195.1033	208
196.1109	191
197.1191	72
202.0761	16
207.0917	72
208.1024	172
209.1071	76
210.1261	13
215.0847	38
221.1066	32
223.1228	999
224.1293	131
226.0777	15
227.0829	10
228.0918	31
229.1012	24
230.0952	23
237.1393	13
239.0853	32
239.1543	80
240.0902	16
241.0999	41
242.0981	19
254.0957	30
255.1032	17
256.1107	50
257.1174	15
268.112	12
270.1275	49
271.1321	10
272.142	16
283.1199	17
284.1345	17
299.1535	46
