Mass spectrum: Monuron; LC-ESI-QTOF; MS2; 90 V
Name: Monuron
Class: Herbicide
Formula: C9H11ClN2O
Exact mass: 198.056
SMILES: CN(C)C(=O)NC1=CC=C(C=C1)Cl
InChI: InChI=1S/C9H11ClN2O/c1-12(2)9(13)11-8-5-3-7(10)4-6-8/h3-6H,1-2H3,(H,11,13)
Instrument: TripleTOF 5600 SCIEX
Instrument type: LC-ESI-QTOF
Ms type: MS2
Ion mode: POSITIVE
Collision energy: 90
Fragmentation mode: CID
Ionization: ESI
Column name: Zorbax Eclipse Plus C18 2.1 mm x 150 mm, 3.5 um, Agilent
Retention time: 8.67 min
Precursor m/z: 199.0633
Precursor type: [M+H]+
m/z	relative intensity
56.0123	249
72.0434	999
72.9838	599
74.015	899
75.023	449
98.997	299
