Mass spectrum: Cyclophosphamide; LC-ESI-QTOF; MS2; 30 V
Name: Cyclophosphamide
Class: Pharmaceutical
Formula: C7H15Cl2N2O2P
Exact mass: 260.0248
SMILES: C1CNP(=O)(OC1)N(CCCl)CCCl
InChI: InChI=1S/C7H15Cl2N2O2P/c8-2-5-11(6-3-9)14(12)10-4-1-7-13-14/h1-7H2,(H,10,12)
Instrument: TripleTOF 5600 SCIEX
Instrument type: LC-ESI-QTOF
Ms type: MS2
Ion mode: POSITIVE
Collision energy: 30
Fragmentation mode: CID
Ionization: ESI
Column name: Zorbax Eclipse Plus C18 2.1 mm x 150 mm, 3.5 um, Agilent
Retention time: 7.465 min
Precursor m/z: 261.0321
Precursor type: [M+H]+
m/z	relative intensity
56.0591	46
58.0737	37
63.0075	44
70.0704	10
78.0157	15
91.9934	14
94.0085	11
102.0114	11
106.044	226
120.0222	282
140.0038	999
141.9821	11
142.0195	307
155.9981	11
185.0231	12
233.0016	222
261.0321	355
