Mass spectrum: Indomethacin; LC-ESI-QTOF; MS2; 110 V
Name: Indomethacin
Class: Pharmaceutical
Formula: C19H16ClNO4
Exact mass: 357.0768
SMILES: COc1ccc2n(c(C)c(CC(O)=O)c2c1)C(=O)c3ccc(Cl)cc3
InChI: InChI=1S/C19H16ClNO4/c1-11-15(10-18(22)23)16-9-14(25-2)7-8-17(16)21(11)19(24)12-3-5-13(20)6-4-12/h3-9H,10H2,1-2H3,(H,22,23)
Instrument: TripleTOF 5600 SCIEX
Instrument type: LC-ESI-QTOF
Ms type: CID
Ion mode: POSITIVE
Collision energy: 110
Ionization: ESI
Column name: Zorbax Eclipse Plus C18 2.1 mm x 150 mm, 3.5 um, Agilent
Retention time: 12.629 min
Precursor m/z: 358.0841
Precursor type: [M+H]+
m/z	relative intensity
51.0278	16
73.0111	32
74.0189	369
75.0268	988
75.0651	13
76.0331	16
84.9854	89
111.0004	999
130.0631	11
139.0007	147
