Mass spectrum: Mitomycin C; LC-ESI-QTOF; MS2; 120 V
Name: Mitomycin C
Class: Pharmaceutical
Formula: C15H18N4O5
Exact mass: 334.1277
SMILES: CO[C@@]12[C@H](COC(N)=O)C3=C(N1C[C@@H]4N[C@H]24)C(=O)C(=C(N)C3=O)C
InChI: InChI=1S/C15H18N4O5/c1-5-9(16)12(21)8-6(4-24-14(17)22)15(23-2)13-7(18-13)3-19(15)10(8)11(5)20/h6-7,13,18H,3-4,16H2,1-2H3,(H2,17,22)/t6-,7+,13+,15-/m1/s1
Instrument: TripleTOF 5600 SCIEX
Instrument type: LC-ESI-QTOF
Ms type: MS2
Ion mode: POSITIVE
Collision energy: 120
Fragmentation mode: CID
Ionization: ESI
Column name: Zorbax Eclipse Plus C18 2.1 mm x 150 mm, 3.5 um, Agilent
Retention time: 5.588 min
Precursor m/z: 335.135
Precursor type: [M+H]+
m/z	relative intensity
50.0238	84
51.0302	338
63.0306	186
63.0401	84
64.0365	101
65.0459	304
75.0226	118
76.0304	84
77.0391	999
78.0364	423
89.0386	677
91.0552	169
92.0484	169
101.036	135
102.0304	101
103.0517	101
104.0467	440
105.042	101
114.0299	101
114.0428	118
115.0476	338
116.047	253
117.0504	338
118.0516	169
128.0429	118
130.0581	84
131.054	355
140.0423	169
141.0506	135
142.0484	152
143.0538	84
155.0485	220
156.0566	118
157.063	118
168.0541	152
