Mass spectrum: Pindolol; LC-ESI-QTOF; MS2; 40 V
Name: Pindolol
Class: Pharmaceutical
Formula: C14H20N2O2
Exact mass: 248.1525
SMILES: CC(C)NCC(COC1=CC=CC2=C1C=CN2)O
InChI: InChI=1S/C14H20N2O2/c1-10(2)16-8-11(17)9-18-14-5-3-4-13-12(14)6-7-15-13/h3-7,10-11,15-17H,8-9H2,1-2H3
Instrument: TripleTOF 5600 SCIEX
Instrument type: LC-ESI-QTOF
Ms type: MS2
Ion mode: POSITIVE
Collision energy: 40
Fragmentation mode: CID
Ionization: ESI
Column name: Zorbax Eclipse Plus C18 2.1 mm x 150 mm, 3.5 um, Agilent
Retention time: 5.148 min
Precursor m/z: 249.1598
Precursor type: [M+H]+
m/z	relative intensity
44.0615	18
56.0591	549
58.0739	231
72.0875	376
74.0667	603
77.0456	54
78.0409	11
79.06	54
80.0541	15
84.0844	22
86.1006	15
89.0439	63
90.0538	11
91.0594	202
98.0997	174
100.1162	104
103.0602	11
104.0532	129
105.0635	15
106.0681	190
107.0521	102
115.0568	147
116.0524	238
116.1099	999
117.0672	458
118.0678	433
127.0569	136
128.0513	18
128.0622	18
129.0678	27
130.0675	99
132.0463	72
132.0836	61
133.0552	86
134.0623	687
142.0674	29
143.0742	195
144.0569	18
144.0829	769
145.0637	27
146.062	445
154.0669	40
155.0582	13
155.0728	13
157.0551	40
160.0775	43
170.0623	27
171.0648	11
172.0763	445
249.1577	190
