Mass spectrum: Levetiracetam; LC-ESI-QTOF; MS2; 70 V
Name: Levetiracetam
Class: Pharmaceutical
Formula: C8H14N2O2
Exact mass: 170.1055
SMILES: CC[C@@H](N1CCCC1=O)C(N)=O
InChI: InChI=1S/C8H14N2O2/c1-2-6(8(9)12)10-5-3-4-7(10)11/h6H,2-5H2,1H3,(H2,9,12)/t6-/m1/s1
Instrument: TripleTOF 5600 SCIEX
Instrument type: LC-ESI-QTOF
Ms type: CID
Ion mode: POSITIVE
Collision energy: 70
Ionization: ESI
Column name: Zorbax Eclipse Plus C18 2.1 mm x 150 mm, 3.5 um, Agilent
Retention time: 5.137 min
Precursor m/z: 171.1128
Precursor type: [M+H]+
m/z	relative intensity
44.0206	333
58.0691	166
68.0531	333
68.0632	166
69.0368	999
