Mass spectrum: Oxfendazole; LC-ESI-QTOF; MS2; 130 V
Name: Oxfendazole
Class: Pharmaceutical
Formula: C15H13N3O3S
Exact mass: 315.0678
SMILES: COC(=O)Nc1[nH]c2cc(ccc2n1)[S](=O)c3ccccc3
InChI: InChI=1S/C15H13N3O3S/c1-21-15(19)18-14-16-12-8-7-11(9-13(12)17-14)22(20)10-5-3-2-4-6-10/h2-9H,1H3,(H2,16,17,18,19)
Instrument: TripleTOF 5600 SCIEX
Instrument type: LC-ESI-QTOF
Ms type: MS2
Ion mode: POSITIVE
Collision energy: 130
Fragmentation mode: CID
Ionization: ESI
Column name: Zorbax Eclipse Plus C18 2.1 mm x 150 mm, 3.5 um, Agilent
Retention time: 6.579 min
Precursor m/z: 316.075
Precursor type: [M+H]+
m/z	relative intensity
51.0286	199
52.0218	107
52.0333	57
53.0321	35
63.0483	35
65.0293	64
68.9842	64
69.0098	178
75.012	164
76.0198	842
76.0484	42
77.0276	999
78.0352	271
88.0219	42
89.0306	42
91.0412	71
103.0306	85
104.0359	228
105.0436	92
113.0394	42
126.0506	57
127.0523	49
131.045	42
139.0505	35
140.0474	35
196.0255	28
