Mass spectrum: Dimethenamid-OA; LC-ESI-QTOF; MS2; 50 V
Name: Dimethenamid-OA
Class: Transformation_product; Herbicide; Transformation_product-Metabolite
Formula: C12H17NO4S
Exact mass: 271.0878
SMILES: Cc1csc(c1N(C(C)COC)C(=O)C(=O)O)C
InChI: InChI=1S/C12H17NO4S/c1-7-6-18-9(3)10(7)13(8(2)5-17-4)11(14)12(15)16/h6,8H,5H2,1-4H3,(H,15,16)
Instrument: TripleTOF 6600 SCIEX
Instrument type: LC-ESI-QTOF
Ms type: MS2
Ion mode: NEGATIVE
Collision energy: 50
Fragmentation mode: CID
Ionization: ESI
Column name: Zorbax Eclipse Plus C18 2.1 mm x 150 mm, 3.5 um, Agilent
Retention time: 8.208 min
Precursor m/z: 270.0805
Precursor type: [M-H]-
m/z	relative intensity
31.0183	176
32.9798	235
52.0172	176
56.9794	235
57.975	58
66.0334	176
70.9949	528
73.0099	176
81.972	58
83.9894	176
96.0016	117
97.0109	470
98.0061	999
109.0084	58
111.026	235
122.0049	235
123.0278	117
124.0224	235
136.0218	176
137.029	176
148.0209	763
150.0374	470
151.0443	58
152.0526	235
162.0376	176
164.0596	58
166.0694	235
