Mass spectrum: Memantine; LC-ESI-QTOF; MS2; 40 V
Name: Memantine
Class: Pharmaceutical
Formula: C12H21N
Exact mass: 179.1674
SMILES: CC12CC3CC(C1)(CC(C3)(C2)N)C
InChI: InChI=1S/C12H21N/c1-10-3-9-4-11(2,6-10)8-12(13,5-9)7-10/h9H,3-8,13H2,1-2H3
Instrument: TripleTOF 5600 SCIEX
Instrument type: LC-ESI-QTOF
Ms type: MS2
Ion mode: POSITIVE
Collision energy: 40
Fragmentation mode: CID
Ionization: ESI
Column name: Zorbax Eclipse Plus C18 2.1 mm x 150 mm, 3.5 um, Agilent
Retention time: 6.653 min
Precursor m/z: 180.1747
Precursor type: [M+H]+
m/z	relative intensity
55.0584	31
65.0421	33
67.0563	26
69.0729	41
77.0409	48
79.0567	108
81.0721	57
91.0563	474
93.0707	155
95.0864	74
105.0701	177
107.0863	999
119.0852	10
121.1007	82
135.1159	33
163.1478	158
