Mass spectrum: Salicylamide; LC-ESI-QTOF; MS2; 50 V
Name: Salicylamide
Formula: C7H7NO2
Exact mass: 137.0477
SMILES: C1=CC=C(C(=C1)C(=O)N)O
InChI: InChI=1S/C7H7NO2/c8-7(10)5-3-1-2-4-6(5)9/h1-4,9H,(H2,8,10)
Instrument: TripleTOF X500R SCIEX
Instrument type: LC-ESI-QTOF
Ms type: MS2
Ion mode: POSITIVE
Collision energy: 50
Fragmentation mode: CID
Ionization: ESI
Column name: Zorbax Eclipse Plus C18 2.1 mm x 150 mm, 3.5 um, Agilent
Retention time: 6.236 min
Precursor m/z: 138.055
Precursor type: [M+H]+
m/z	relative intensity
37.0076	116
38.0156	84
39.0229	999
44.013	109
51.0226	91
53.002	42
65.0383	653
74.0178	14
75.0232	38
76.0162	21
77.038	56
93.033	45
102.0347	35
121.0314	42
