Mass spectrum: 3-Phenylpyridine; LC-ESI-QTOF; MS2; 40 V
Name: 3-Phenylpyridine
Formula: C11H9N
Exact mass: 155.0735
SMILES: C1=CC=C(C=C1)C2=CN=CC=C2
InChI: InChI=1S/C11H9N/c1-2-5-10(6-3-1)11-7-4-8-12-9-11/h1-9H
Instrument: TripleTOF X500R SCIEX
Instrument type: LC-ESI-QTOF
Ms type: MS2
Ion mode: POSITIVE
Collision energy: 40
Fragmentation mode: CID
Ionization: ESI
Column name: Zorbax Eclipse Plus C18 2.1 mm x 150 mm, 3.5 um, Agilent
Retention time: 5.684 min
Precursor m/z: 156.0808
Precursor type: [M+H]+
m/z	relative intensity
51.0231	106
53.0383	27
77.0387	85
78.0338	324
79.042	12
101.0387	21
102.0468	39
103.0548	27
104.0499	97
115.0543	22
116.0499	19
117.0576	36
126.0468	42
127.0546	430
128.0619	999
129.0701	95
130.0658	21
141.0581	13
154.0658	188
155.0704	58
156.0808	543
