Mass spectrum: Candesartan; LC-ESI-QTOF; MS2; 80 V
Name: Candesartan
Class: Pharmaceutical
Formula: C24H20N6O3
Exact mass: 440.1597
SMILES: CCOc1nc2cccc(C(O)=O)c2n1Cc3ccc(cc3)c4ccccc4c5n[nH]nn5
InChI: InChI=1S/C24H20N6O3/c1-2-33-24-25-20-9-5-8-19(23(31)32)21(20)30(24)14-15-10-12-16(13-11-15)17-6-3-4-7-18(17)22-26-28-29-27-22/h3-13H,2,14H2,1H3,(H,31,32)(H,26,27,28,29)
Instrument: TripleTOF 5600 SCIEX
Instrument type: LC-ESI-QTOF
Ms type: MS2
Ion mode: POSITIVE
Collision energy: 80
Fragmentation mode: CID
Ionization: ESI
Column name: Zorbax Eclipse Plus C18 2.1 mm x 150 mm, 3.5 um, Agilent
Retention time: 10.001 min
Precursor m/z: 441.167
Precursor type: [M+H]+
m/z	relative intensity
77.0414	64
78.0358	13
80.0514	18
90.0352	27
91.0555	15
105.045	88
115.0542	44
116.0495	13
117.0429	27
127.0541	46
128.0608	20
129.0452	11
133.0387	55
138.0449	10
139.0534	44
140.0492	99
141.0655	20
145.0385	13
150.0456	29
151.0542	226
152.0621	732
153.0697	297
154.0649	23
161.0347	151
163.0537	198
164.0608	220
165.0697	837
166.0695	83
167.0755	63
168.0684	20
173.0342	27
176.062	110
177.0618	359
178.0758	643
179.0726	236
180.0808	334
181.0761	15
188.0493	14
189.0594	80
190.0655	999
191.0733	286
192.0743	448
193.0881	121
194.0959	38
202.0667	10
203.0722	18
204.0795	10
205.076	647
206.0838	186
207.0916	72
216.0819	28
217.0874	27
218.0836	43
219.0912	95
232.1015	12
233.1071	33
234.1139	11
239.0853	12
240.082	13
251.0762	10
252.0783	13
253.0893	25
254.0946	30
264.0797	20
265.0786	15
266.0861	36
267.0986	27
278.083	17
279.0915	50
280.099	27
281.1067	27
282.0937	24
292.0967	20
293.095	57
294.0785	52
294.1033	15
295.0865	17
304.0875	13
306.1023	24
307.087	11
307.1109	18
308.094	39
309.1061	20
320.0842	20
321.0906	20
322.0967	26
333.0897	12
348.0956	15
