Mass spectrum: Testosterone; LC-ESI-QTOF; MS2; 70 V
Name: Testosterone
Class: Pharmaceutical
Formula: C19H28O2
Exact mass: 288.2089
SMILES: C[C@]12CC[C@H]3[C@@H](CCC4=CC(=O)CC[C@]34C)[C@@H]1CC[C@@H]2O
InChI: InChI=1S/C19H28O2/c1-18-9-7-13(20)11-12(18)3-4-14-15-5-6-17(21)19(15,2)10-8-16(14)18/h11,14-17,21H,3-10H2,1-2H3/t14-,15-,16-,17-,18-,19-/m0/s1
Instrument: TripleTOF 5600 SCIEX
Instrument type: LC-ESI-QTOF
Ms type: MS2
Ion mode: POSITIVE
Collision energy: 70
Fragmentation mode: CID
Ionization: ESI
Column name: Zorbax Eclipse Plus C18 2.1 mm x 150 mm, 3.5 um, Agilent
Retention time: 10.968 min
Precursor m/z: 289.2162
Precursor type: [M+H]+
m/z	relative intensity
43.0266	159
55.0246	107
55.06	75
65.0441	140
66.0519	19
67.06	290
69.0382	26
69.0749	78
77.0441	832
79.0586	999
81.0386	29
81.0746	476
82.0454	16
83.0524	48
91.0579	571
93.0724	117
94.0436	48
95.0891	65
97.0681	943
97.0951	26
103.0567	48
105.0721	238
107.054	32
107.0879	22
108.0597	19
109.067	747
115.0554	75
116.0655	29
117.0717	55
119.0873	45
121.0658	26
123.0819	111
127.0561	22
128.0657	88
129.0735	75
131.0877	39
133.1048	13
141.0724	65
142.0804	39
143.0878	32
145.1024	19
152.0667	16
153.0745	19
155.087	26
156.0956	16
157.1052	13
165.0713	16
167.0874	13
