Mass spectrum: Celiprolol; LC-ESI-QTOF; MS2; 30 V
Name: Celiprolol
Class: Pharmaceutical
Formula: C20H33N3O4
Exact mass: 379.2471
SMILES: CCN(CC)C(=O)NC1=CC(=C(C=C1)OCC(CNC(C)(C)C)O)C(=O)C
InChI: InChI=1S/C20H33N3O4/c1-7-23(8-2)19(26)22-15-9-10-18(17(11-15)14(3)24)27-13-16(25)12-21-20(4,5)6/h9-11,16,21,25H,7-8,12-13H2,1-6H3,(H,22,26)
Instrument: TripleTOF 5600 SCIEX
Instrument type: LC-ESI-QTOF
Ms type: MS2
Ion mode: POSITIVE
Collision energy: 30
Fragmentation mode: CID
Ionization: ESI
Column name: Zorbax Eclipse Plus C18 2.1 mm x 150 mm, 3.5 um, Agilent
Retention time: 6.532 min
Precursor m/z: 380.2544
Precursor type: [M+H]+
m/z	relative intensity
56.0559	69
74.0646	175
74.0994	25
100.0764	49
130.1231	37
204.0666	113
216.0662	143
233.0929	410
247.1442	14
251.1137	586
262.1558	12
263.1391	52
264.1713	11
277.1553	113
282.181	23
289.1551	151
306.1822	666
307.1656	999
324.1924	800
