Mass spectrum: Trazodone; LC-ESI-QTOF; MS2; 120 V
Name: Trazodone
Class: Pharmaceutical
Formula: C19H22ClN5O
Exact mass: 371.1513
SMILES: C1CN(CCN1CCCN2C(=O)N3C=CC=CC3=N2)C4=CC(=CC=C4)Cl
InChI: InChI=1S/C19H22ClN5O/c20-16-5-3-6-17(15-16)23-13-11-22(12-14-23)8-4-10-25-19(26)24-9-2-1-7-18(24)21-25/h1-3,5-7,9,15H,4,8,10-14H2
Instrument: TripleTOF 6600 SCIEX
Instrument type: LC-ESI-QTOF
Ms type: MS2
Ion mode: POSITIVE
Collision energy: 120
Fragmentation mode: CID
Ionization: ESI
Column name: Zorbax Eclipse Plus C18 2.1 mm x 150 mm, 3.5 um, Agilent
Retention time: 7.095 min
Precursor m/z: 372.1586
Precursor type: [M+H]+
m/z	relative intensity
37.0059	27
38.0141	46
39.0218	91
41.0246	38
42.0325	25
50.0139	67
51.0216	337
52.0168	27
52.0283	21
64.0165	25
65.0245	113
66.0195	16
66.032	55
67.0399	26
74.0134	34
75.0207	82
77.0372	25
78.0325	999
79.0402	84
80.0482	20
89.0369	17
90.0459	11
91.0524	42
92.0351	173
93.0432	51
104.0482	14
105.0427	10
110.9978	89
117.0553	26
118.063	48
119.0583	78
120.0295	33
130.0634	16
131.0587	19
138.0074	18
139.0036	21
