Mass spectrum: Dienogest Impurity G; LC-ESI-QTOF; MS2; 60 V
Name: Dienogest Impurity G
Class: Pharmaceutical
Formula: C20H23NO2
Exact mass: 309.1729
SMILES: CC12CC=C3C(C1CCC2(CC#N)O)CCC4=C3C=CC(=C4)O
InChI: InChI=1S/C20H23NO2/c1-19-8-6-16-15-5-3-14(22)12-13(15)2-4-17(16)18(19)7-9-20(19,23)10-11-21/h3,5-6,12,17-18,22-23H,2,4,7-10H2,1H3
Instrument: TripleTOF 6600 SCIEX
Instrument type: LC-ESI-QTOF
Ms type: MS2
Ion mode: POSITIVE
Collision energy: 60
Fragmentation mode: CID
Ionization: ESI
Column name: Zorbax Eclipse Plus C18 2.1 mm x 150 mm, 3.5 um, Agilent
Retention time: 9.956 min
Precursor m/z: 310.1802
Precursor type: [M+H]+
m/z	relative intensity
41.0382	22
51.0217	39
53.0388	33
55.0171	33
55.0535	39
65.0385	67
67.0532	101
77.0377	331
79.0536	420
81.0687	151
91.0532	684
92.0603	39
93.0554	44
93.068	95
94.0401	28
95.0848	67
97.0641	44
102.0456	22
103.0532	269
105.0449	28
105.0689	954
106.0652	28
107.0476	297
107.0816	89
108.0802	56
109.0633	28
110.0726	28
115.0532	589
116.0613	314
117.0569	33
117.0684	112
118.0626	28
119.0857	101
121.0643	50
123.0793	84
127.0529	241
128.0612	381
129.0686	207
130.0644	50
130.0751	28
131.0482	325
131.0706	44
131.0836	269
132.0559	134
132.0782	39
133.0633	858
141.069	499
142.076	33
143.0816	39
144.0561	999
145.0637	145
145.0997	28
146.0958	61
147.0804	72
151.0537	33
152.0606	44
153.0696	50
154.0703	22
155.0599	84
155.0823	44
157.0634	858
158.0718	44
159.0792	544
160.08	22
165.0681	129
166.078	33
167.0859	56
168.0801	22
169.0742	140
170.071	56
171.0786	56
176.0617	22
177.0696	44
178.08	61
179.0862	72
181.0629	129
182.0719	72
183.0823	50
185.0967	28
189.0681	44
190.0768	50
191.0825	84
193.1	28
194.0711	106
195.0784	123
196.088	33
197.0946	67
202.0757	39
203.085	50
207.0794	72
208.0865	89
209.0947	101
210.091	33
212.0961	22
215.0867	33
219.125	22
221.0964	39
222.0975	28
223.1097	33
231.0792	44
237.1194	22
245.0954	28
