Mass spectrum: Basic Red 1; LC-ESI-QTOF; MS2; 80 V
Name: Basic Red 1
Formula: C28H30N2O3
Exact mass: 442.2256
SMILES: CCNC1=CC2=C(C=C1C)C(=C3C=C(C(=NCC)C=C3O2)C)C4=CC=CC=C4C(=O)OCC
InChI: InChI=1S/C28H30N2O3/c1-6-29-23-15-25-21(13-17(23)4)27(19-11-9-10-12-20(19)28(31)32-8-3)22-14-18(5)24(30-7-2)16-26(22)33-25/h9-16,29H,6-8H2,1-5H3
Instrument: TripleTOF X500R SCIEX
Instrument type: LC-ESI-QTOF
Ms type: MS2
Ion mode: POSITIVE
Collision energy: 80
Fragmentation mode: CID
Ionization: ESI
Column name: Zorbax Eclipse Plus C18 2.1 mm x 150 mm, 3.5 um, Agilent
Retention time: 11.107 min
Precursor m/z: 443.2329
Precursor type: [M+H]+
m/z	relative intensity
254.0987	67
255.0861	61
256.0899	31
256.1114	19
267.0816	11
267.1054	31
268.1008	91
269.1007	162
270.0944	189
271.1016	121
272.11	34
279.1479	18
281.0902	64
282.1009	108
283.1045	275
284.1079	579
285.1162	323
286.1228	66
295.1008	53
296.1073	255
297.1129	484
298.1197	419
299.1147	82
300.1383	59
309.1131	42
310.1195	84
311.1197	526
312.1271	999
313.0895	10
313.135	480
314.1552	61
317.1178	18
323.0875	11
323.1176	13
324.1305	21
325.1359	196
326.1501	199
327.1503	78
328.1139	21
329.127	43
330.1134	26
336.1263	17
339.1512	28
340.1595	50
341.1661	442
342.113	29
342.1729	18
343.1201	24
344.1303	69
355.1202	13
355.1823	11
356.1295	24
357.1257	199
358.1434	29
359.1503	12
370.137	18
371.1426	74
372.1609	55
385.1586	39
386.1635	57
387.174	11
399.1718	88
415.2048	50
