Mass spectrum: Salbutamol; LC-ESI-QTOF; MS2; 80 V
Name: Salbutamol
Class: Pharmaceutical
Formula: C13H21NO3
Exact mass: 239.1521
SMILES: CC(C)(NCC(c1cc(CO)c(O)cc1)O)C
InChI: InChI=1S/C13H21NO3/c1-13(2,3)14-7-12(17)9-4-5-11(16)10(6-9)8-15/h4-6,12,14-17H,7-8H2,1-3H3
Instrument: TripleTOF 5600 SCIEX
Instrument type: LC-ESI-QTOF
Ms type: MS2
Ion mode: POSITIVE
Collision energy: 80
Fragmentation mode: CID
Ionization: ESI
Column name: Zorbax Eclipse Plus C18 2.1 mm x 150 mm, 3.5 um, Agilent
Retention time: 4.69 min
Precursor m/z: 240.1594
Precursor type: [M+H]+
m/z	relative intensity
51.0284	182
53.0434	19
55.0227	36
57.0749	87
58.0705	11
65.0421	241
77.0416	999
78.0354	15
78.0482	79
79.0557	76
80.0507	89
81.0585	11
89.0394	32
90.0466	32
91.0555	654
92.0491	26
93.0582	13
93.0691	20
102.046	17
103.055	97
104.0489	104
105.0344	19
105.0566	34
107.0482	64
116.0471	11
117.0569	72
118.0639	60
121.065	11
130.0645	36
133.0514	30
146.0582	13
