Mass spectrum: Fluopyram; LC-ESI-QTOF; MS2; 10 V
Name: Fluopyram
Class: Fungicide
Formula: C16H11ClF6N2O
Exact mass: 396.0464
InChI: InChI=1S/C16H11ClF6N2O/c17-12-7-9(15(18,19)20)8-25-13(12)5-6-24-14(26)10-3-1-2-4-11(10)16(21,22)23/h1-4,7-8H,5-6H2,(H,24,26)
Instrument: TripleTOF 6600 SCIEX
Instrument type: LC-ESI-QTOF
Ms type: CID
Ion mode: POSITIVE
Collision energy: 10
Ionization: ESI
Column name: Zorbax Eclipse Plus C18 2.1 mm x 150 mm, 3.5 um, Agilent
Retention time: 12.765 min
Precursor m/z: 397.0537
Precursor type: [M+H]+
m/z	relative intensity
397.058	999
