Mass spectrum: Norlidocaine; LC-ESI-QTOF; MS2; 110 V
Name: Norlidocaine
Class: Pharmaceutical; Metabolite
Formula: C12H18N2O
Exact mass: 206.1419
SMILES: CCNCC(=O)Nc1c(cccc1C)C
InChI: InChI=1S/C12H18N2O/c1-4-13-8-11(15)14-12-9(2)6-5-7-10(12)3/h5-7,13H,4,8H2,1-3H3,(H,14,15)
Instrument: TripleTOF 6600 SCIEX
Instrument type: LC-ESI-QTOF
Ms type: MS2
Ion mode: POSITIVE
Collision energy: 110
Fragmentation mode: CID
Ionization: ESI
Column name: Zorbax Eclipse Plus C18 2.1 mm x 150 mm, 3.5 um, Agilent
Retention time: 5.349 min
Precursor m/z: 207.1492
Precursor type: [M+H]+
m/z	relative intensity
30.0343	223
35.9998	24
37.0074	99
38.0034	111
38.015	55
39.0226	241
40.0061	37
41.0259	31
42.0339	142
49.0075	86
50.015	459
51.0233	999
52.0054	43
52.0303	24
53.0134	55
53.038	49
54.0091	24
58.0647	31
61.0084	31
62.015	105
63.023	204
65.0389	198
74.0157	31
77.0386	446
79.0539	43
80.0486	37
89.038	148
90.0467	31
91.0545	68
106.0652	62
