Mass spectrum: 4-Phenoxyphenol; LC-ESI-QTOF; MS2; 30 V
Name: 4-Phenoxyphenol
Class: Transformation_product
Formula: C12H10O2
Exact mass: 186.0681
SMILES: Oc1ccc(Oc2ccccc2)cc1
InChI: InChI=1S/C12H10O2/c13-10-6-8-12(9-7-10)14-11-4-2-1-3-5-11/h1-9,13H
Instrument: TripleTOF 5600 SCIEX
Instrument type: LC-ESI-QTOF
Ms type: MS2
Ion mode: POSITIVE
Collision energy: 30
Fragmentation mode: CID
Ionization: ESI
Column name: Zorbax Eclipse Plus C18 2.1 mm x 150 mm, 3.5 um, Agilent
Retention time: 11.066 min
Precursor m/z: 187.0754
Precursor type: [M+H]+
m/z	relative intensity
65.0423	100
66.0513	40
77.0414	53
81.0352	281
91.0567	33
93.0333	53
94.0426	911
109.0286	435
110.037	140
115.0539	455
141.0698	999
144.0596	33
159.0806	40
168.0577	67
169.0655	254
187.0726	67
187.0829	40
