Mass spectrum: 2-Ethyl-6-methylaniline; LC-ESI-QTOF; MS2; 60 V
Name: 2-Ethyl-6-methylaniline
Class: Industrial_process; Herbicide; Transformation_product-Metabolite
Formula: C9H13N
Exact mass: 135.1048
SMILES: CCC1=CC=CC(=C1N)C
InChI: InChI=1S/C9H13N/c1-3-8-6-4-5-7(2)9(8)10/h4-6H,3,10H2,1-2H3
Instrument: TripleTOF 5600 SCIEX
Instrument type: LC-ESI-QTOF
Ms type: MS2
Ion mode: POSITIVE
Collision energy: 60
Fragmentation mode: CID
Ionization: ESI
Column name: Zorbax Eclipse Plus C18 2.1 mm x 150 mm, 3.5 um, Agilent
Retention time: 7.958 min
Precursor m/z: 136.1121
Precursor type: [M+H]+
m/z	relative intensity
37.0072	44
38.015	40
39.0226	187
41.0379	35
49.0072	22
50.015	165
51.023	486
52.0308	31
61.0065	26
62.0156	53
63.0222	151
65.0386	561
74.0151	35
75.0218	26
76.0328	26
77.0385	999
78.0463	267
79.0545	44
89.0382	107
91.0539	316
102.0457	71
103.0538	160
104.0574	26
106.0646	89
115.053	93
118.0628	17
