Mass spectrum: Lisofylline; LC-ESI-QTOF; MS2; 90 V
Name: Lisofylline
Class: Pharmaceutical; Metabolite
Formula: C13H20N4O3
Exact mass: 280.1535
SMILES: CC(O)CCCCN1C(=O)N(C)c2ncn(C)c2C1=O
InChI: InChI=1S/C13H20N4O3/c1-9(18)6-4-5-7-17-12(19)10-11(14-8-15(10)2)16(3)13(17)20/h8-9,18H,4-7H2,1-3H3
Instrument: TripleTOF 5600 SCIEX
Instrument type: LC-ESI-QTOF
Ms type: MS2
Ion mode: POSITIVE
Collision energy: 90
Fragmentation mode: CID
Ionization: ESI
Column name: Zorbax Eclipse Plus C18 2.1 mm x 150 mm, 3.5 um, Agilent
Retention time: 6.425 min
Precursor m/z: 281.1608
Precursor type: [M+H]+
m/z	relative intensity
42.0448	929
53.0195	430
54.0409	166
55.0508	55
55.0607	208
56.0186	208
56.0331	55
56.0583	166
67.0337	999
67.0486	138
68.0409	249
68.0535	69
69.0499	263
81.0488	235
82.0558	111
83.0626	208
93.045	83
94.0503	55
95.0503	83
108.0554	111
120.0575	124
121.0615	69
122.0594	166
123.0429	138
