Mass spectrum: N-Cyclohexyl-1,3-benzothiazol-2-amine; LC-ESI-QTOF; MS2; 110 V
Name: N-Cyclohexyl-1,3-benzothiazol-2-amine
Formula: C13H16N2S
Exact mass: 232.1034
SMILES: C1CCC(CC1)NC2=NC3=CC=CC=C3S2
InChI: InChI=1S/C13H16N2S/c1-2-6-10(7-3-1)14-13-15-11-8-4-5-9-12(11)16-13/h4-5,8-10H,1-3,6-7H2,(H,14,15)
Instrument: TripleTOF 6600 SCIEX
Instrument type: LC-ESI-QTOF
Ms type: MS2
Ion mode: POSITIVE
Collision energy: 110
Fragmentation mode: CID
Ionization: ESI
Column name: Zorbax Eclipse Plus C18 2.1 mm x 150 mm, 3.5 um, Agilent
Retention time: 9.082 min
Precursor m/z: 233.1107
Precursor type: [M+H]+
m/z	relative intensity
35.9988	31
37.0069	238
38.0142	211
39.0227	999
41.038	65
43.0282	14
44.9787	33
50.0142	62
51.0222	127
53.038	125
55.0532	43
57.986	10
59.9893	30
61.0061	15
62.0138	39
63.0221	129
64.0171	53
64.0278	19
65.0378	407
67.9704	23
68.9787	635
69.9856	10
74.0143	15
77.0374	57
80.0484	96
80.9782	10
81.9855	38
90.0325	12
91.0398	19
92.9785	24
94.9932	14
96.0012	14
108.0009	35
109.0099	28
