Mass spectrum: Dipyridamole; LC-ESI-QTOF; MS2; 140 V
Name: Dipyridamole
Class: Pharmaceutical
Formula: C24H40N8O4
Exact mass: 504.3173
SMILES: OCCN(CCO)c1nc(N2CCCCC2)c3nc(nc(N4CCCCC4)c3n1)N(CCO)CCO
InChI: InChI=1S/C24H40N8O4/c33-15-11-31(12-16-34)23-26-20-19(21(27-23)29-7-3-1-4-8-29)25-24(32(13-17-35)14-18-36)28-22(20)30-9-5-2-6-10-30/h33-36H,1-18H2
Instrument: TripleTOF 5600 SCIEX
Instrument type: LC-ESI-QTOF
Ms type: MS2
Ion mode: POSITIVE
Collision energy: 140
Fragmentation mode: CID
Ionization: ESI
Column name: Zorbax Eclipse Plus C18 2.1 mm x 150 mm, 3.5 um, Agilent
Retention time: 7.666 min
Precursor m/z: 505.3245
Precursor type: [M+H]+
m/z	relative intensity
56.0515	68
66.0336	86
67.033	189
69.0478	120
76.0211	68
77.0173	103
78.0351	223
79.0317	275
80.0269	155
80.0504	103
81.0484	120
82.0667	86
84.0805	103
91.0309	155
92.0232	189
92.036	86
92.0507	103
93.0335	189
93.0447	223
94.04	430
94.0652	68
95.0577	103
96.0579	86
103.0294	275
104.0239	137
104.0396	103
105.0303	86
105.0441	430
106.039	637
107.0329	120
107.0446	172
107.0626	120
108.0511	258
109.049	103
109.0564	68
116.0477	86
117.0446	361
118.0392	447
118.0542	86
119.0328	430
119.0466	137
120.0542	671
121.0481	310
122.0567	137
123.065	172
129.0442	120
130.038	310
130.0559	103
131.0351	258
131.0465	68
132.0418	258
132.055	378
133.0494	947
134.045	706
134.0685	189
135.0646	223
135.0741	68
136.0611	103
141.0435	86
142.0404	137
143.0404	155
144.0339	155
144.0558	344
145.0491	706
146.0451	516
146.0563	378
147.0651	482
147.0784	68
148.0607	327
148.0761	103
149.0697	137
150.0773	86
156.0553	189
157.0519	620
158.0487	465
158.0691	172
159.0491	465
159.0626	533
159.0801	137
160.0602	999
161.0552	310
161.0769	223
162.077	241
163.0742	223
169.0516	155
170.0457	258
170.0676	103
171.0645	344
172.0603	706
173.0678	551
174.0729	706
175.0734	396
176.0668	86
176.0845	68
183.0522	86
183.0662	189
184.0592	361
185.0575	292
185.0774	292
186.077	533
187.0715	637
188.0683	155
188.0875	189
189.0893	292
190.0927	137
195.0661	103
196.0594	155
197.0612	172
198.0762	258
199.0713	620
200.0651	155
200.0839	275
201.0846	361
202.0822	223
202.1046	86
203.1084	86
208.065	103
209.0633	86
210.0789	103
211.0714	258
211.0956	103
212.0916	103
213.0893	413
214.0841	378
214.1093	68
215.1042	223
216.0984	86
217.085	68
222.0782	86
225.0847	275
226.0811	172
226.1058	137
227.1	258
228.0993	172
229.1149	68
230.1109	103
237.0883	86
238.086	86
239.1011	120
240.1008	189
241.1185	120
242.1142	120
245.1484	68
252.1005	103
256.1235	86
267.1072	68
