Mass spectrum: Isoproturon; LC-ESI-QTOF; MS2; 120 V
Name: Isoproturon
Class: Herbicide
Formula: C12H18N2O
Exact mass: 206.1419
SMILES: CC(C)c1ccc(NC(=O)N(C)C)cc1
InChI: InChI=1S/C12H18N2O/c1-9(2)10-5-7-11(8-6-10)13-12(15)14(3)4/h5-9H,1-4H3,(H,13,15)
Instrument: TripleTOF 5600 SCIEX
Instrument type: LC-ESI-QTOF
Ms type: MS2
Ion mode: POSITIVE
Collision energy: 120
Fragmentation mode: CID
Ionization: ESI
Column name: Zorbax Eclipse Plus C18 2.1 mm x 150 mm, 3.5 um, Agilent
Retention time: 10.257 min
Precursor m/z: 207.1492
Precursor type: [M+H]+
m/z	relative intensity
56.0183	333
65.0447	666
72.047	999
77.0411	610
