Mass spectrum: Epirubicin; LC-ESI-QTOF; MS2; 100 V
Name: Epirubicin
Class: Pharmaceutical
Formula: C27H29NO11
Exact mass: 543.1741
SMILES: CC1C(C(CC(O1)OC2CC(CC3=C(C4=C(C(=C23)O)C(=O)C5=C(C4=O)C=CC=C5OC)O)(C(=O)CO)O)N)O
InChI: InChI=1S/C27H29NO11/c1-10-22(31)13(28)6-17(38-10)39-15-8-27(36,16(30)9-29)7-12-19(15)26(35)21-20(24(12)33)23(32)11-4-3-5-14(37-2)18(11)25(21)34/h3-5,10,13,15,17,22,29,31,33,35-36H,6-9,28H2,1-2H3
Instrument: TripleTOF 5600 SCIEX
Instrument type: LC-ESI-QTOF
Ms type: MS2
Ion mode: POSITIVE
Collision energy: 100
Fragmentation mode: CID
Ionization: ESI
Column name: Zorbax Eclipse Plus C18 2.1 mm x 150 mm, 3.5 um, Agilent
Retention time: 7.492 min
Precursor m/z: 544.1813
Precursor type: [M+H]+
m/z	relative intensity
60.0496	148
60.0633	85
69.0373	191
71.0534	106
72.0466	170
77.0404	191
86.0612	510
86.0719	106
89.0396	106
112.0752	148
113.0634	170
115.0527	106
118.041	106
121.0273	170
128.024	85
129.0358	106
130.0852	191
131.0469	106
133.0242	106
135.0442	127
144.0208	106
145.0293	191
165.0677	212
170.0367	127
172.0128	106
173.0224	127
176.0604	318
178.0765	255
184.0188	127
189.0695	425
193.0674	106
200.0618	106
201.0685	170
202.0802	425
203.0861	255
204.0572	446
205.0648	446
206.0691	148
213.07	106
216.0589	170
217.0673	170
218.0749	85
219.0792	148
221.0627	233
223.0748	106
229.0714	127
231.0819	212
232.0533	403
233.0591	382
234.0713	361
244.051	361
245.0572	191
247.0746	276
249.0546	340
250.0625	127
259.0764	127
260.0508	127
261.0562	340
262.0626	318
272.0482	148
273.0568	212
275.0743	127
277.0519	170
289.0529	871
290.0614	148
301.0506	148
305.0489	233
306.0515	999
317.0427	170
318.0548	85
319.0603	170
329.0453	255
345.0401	212
346.0487	297
