Mass spectrum: Enilconazole; LC-ESI-QTOF; MS2; 40 V
Name: Enilconazole
Class: Pharmaceutical; Fungicide; Biocide
Formula: C14H14Cl2N2O
Exact mass: 296.0483
SMILES: Clc1ccc(C(Cn2ccnc2)OCC=C)c(Cl)c1
InChI: InChI=1S/C14H14Cl2N2O/c1-2-7-19-14(9-18-6-5-17-10-18)12-4-3-11(15)8-13(12)16/h2-6,8,10,14H,1,7,9H2
Instrument: TripleTOF 5600 SCIEX
Instrument type: LC-ESI-QTOF
Ms type: MS2
Ion mode: POSITIVE
Collision energy: 40
Fragmentation mode: CID
Ionization: ESI
Column name: Zorbax Eclipse Plus C18 2.1 mm x 150 mm, 3.5 um, Agilent
Retention time: 8.159 min
Precursor m/z: 297.0556
Precursor type: [M+H]+
m/z	relative intensity
67.044	14
69.0485	216
69.0685	23
80.0505	10
81.0475	102
82.0558	14
82.0728	12
102.0464	14
109.0759	67
115.0534	10
122.9997	20
129.069	20
137.0147	16
138.0238	16
141.0698	71
149.0143	14
150.0226	27
158.976	999
164.038	34
172.9919	235
175.0297	29
176.038	154
186.9722	25
199.0087	10
200.9857	41
203.0366	14
255.0082	94
297.0504	10
