Mass spectrum: Ametryn; LC-ESI-QTOF; MS2; 20 V
Name: Ametryn
Class: Herbicide
Formula: C9H17N5S
Exact mass: 227.1205
SMILES: CCNc1nc(NC(C)C)nc(SC)n1
InChI: InChI=1S/C9H17N5S/c1-5-10-7-12-8(11-6(2)3)14-9(13-7)15-4/h6H,5H2,1-4H3,(H2,10,11,12,13,14)
Instrument: TripleTOF 5600 SCIEX
Instrument type: LC-ESI-QTOF
Ms type: MS2
Ion mode: POSITIVE
Collision energy: 20
Fragmentation mode: CID
Ionization: ESI
Column name: Zorbax Eclipse Plus C18 2.1 mm x 150 mm, 3.5 um, Agilent
Retention time: 8.651 min
Precursor m/z: 228.1277
Precursor type: [M+H]+
m/z	relative intensity
68.0277	15
71.0633	12
91.0337	30
96.0568	52
116.0276	25
138.1011	47
144.0583	23
158.0496	25
186.0803	856
228.1272	999
