Mass spectrum: Monomethyldiuron; LC-ESI-QTOF; MS2; 80 V
Name: Monomethyldiuron
Class: Herbicide; Transformation_product
Formula: C8H8Cl2N2O
Exact mass: 218.0014
SMILES: CNC(=O)Nc1ccc(Cl)c(Cl)c1
InChI: InChI=1S/C8H8Cl2N2O/c1-11-8(13)12-5-2-3-6(9)7(10)4-5/h2-4H,1H3,(H2,11,12,13)
Instrument: TripleTOF 5600 SCIEX
Instrument type: LC-ESI-QTOF
Ms type: MS2
Ion mode: POSITIVE
Collision energy: 80
Fragmentation mode: CID
Ionization: ESI
Column name: Zorbax Eclipse Plus C18 2.1 mm x 150 mm, 3.5 um, Agilent
Retention time: 9.821 min
Precursor m/z: 219.0086
Precursor type: [M+H]+
m/z	relative intensity
52.0235	18
58.0331	86
58.0404	30
64.0358	71
65.0435	999
66.0361	30
72.9869	127
73.0058	18
74.0191	270
75.0258	33
82.9485	26
83.9798	18
90.035	30
91.043	112
92.0504	450
96.9868	18
99.0006	101
100.0077	307
108.9831	52
125.0018	22
126.0088	22
127.0178	619
132.9618	45
