Mass spectrum: 2-Aminobenzothiazole; LC-ESI-QTOF; MS2; 40 V
Name: 2-Aminobenzothiazole
Formula: C7H6N2S
Exact mass: 150.0252
SMILES: C1=CC=C2C(=C1)N=C(S2)N
InChI: InChI=1S/C7H6N2S/c8-7-9-5-3-1-2-4-6(5)10-7/h1-4H,(H2,8,9)
Instrument: TripleTOF X500R SCIEX
Instrument type: LC-ESI-QTOF
Ms type: MS2
Ion mode: POSITIVE
Collision energy: 40
Fragmentation mode: CID
Ionization: ESI
Column name: Zorbax Eclipse Plus C18 2.1 mm x 150 mm, 3.5 um, Agilent
Retention time: 4.985 min
Precursor m/z: 151.0325
Precursor type: [M+H]+
m/z	relative intensity
39.0228	112
53.0386	25
63.023	22
65.038	381
68.9793	119
77.0388	72
80.0491	404
82.9955	13
90.0338	83
91.0417	113
92.0494	231
93.0576	35
96.0033	15
97.011	99
106.9952	23
108.0028	127
109.0099	999
110.0183	18
118.0524	399
119.0599	19
123.0136	16
124.0207	772
134.006	48
150.0249	33
151.032	594
