Mass spectrum: Esculetin; LC-ESI-QTOF; MS2; 140 V
Name: Esculetin
Class: Pharmaceutical
Formula: C9H6O4
Exact mass: 178.0266
SMILES: Oc1cc2OC(=O)C=Cc2cc1O
InChI: InChI=1S/C9H6O4/c10-6-3-5-1-2-9(12)13-8(5)4-7(6)11/h1-4,10-11H
Instrument: TripleTOF 5600 SCIEX
Instrument type: LC-ESI-QTOF
Ms type: MS2
Ion mode: NEGATIVE
Collision energy: 140
Fragmentation mode: CID
Ionization: ESI
Column name: Zorbax Eclipse Plus C18 2.1 mm x 150 mm, 3.5 um, Agilent
Retention time: 5.732 min
Precursor m/z: 177.0193
Precursor type: [M-H]-
m/z	relative intensity
41.0035	999
48.0013	80
51.0241	108
65.0026	188
65.0396	134
67.0186	80
