Mass spectrum: Dimethenamid-OA; LC-ESI-QTOF; MS2; 60 V
Name: Dimethenamid-OA
Class: Transformation_product; Herbicide
Formula: C12H17NO4S
Exact mass: 271.0878
SMILES: Cc1csc(c1N(C(C)COC)C(=O)C(=O)O)C
InChI: InChI=1S/C12H17NO4S/c1-7-6-18-9(3)10(7)13(8(2)5-17-4)11(14)12(15)16/h6,8H,5H2,1-4H3,(H,15,16)
Instrument: TripleTOF 6600 SCIEX
Instrument type: LC-ESI-QTOF
Ms type: MS2
Ion mode: POSITIVE
Collision energy: 60
Fragmentation mode: CID
Ionization: ESI
Column name: Zorbax Eclipse Plus C18 2.1 mm x 150 mm, 3.5 um, Agilent
Retention time: 8.208 min
Precursor m/z: 272.0951
Precursor type: [M+H]+
m/z	relative intensity
39.0233	146
41.0387	194
44.9796	170
45.0341	316
58.9955	316
59.9897	121
65.0389	389
67.0542	341
77.0385	511
78.0466	219
79.0544	194
80.0491	194
91.0539	170
92.0491	146
93.0573	584
94.0651	584
97.0106	365
99.0264	268
104.0481	170
105.0569	365
109.0117	146
111.0251	755
118.0656	170
120.0434	121
120.081	121
123.0134	219
124.0198	97
126.0367	999
132.0802	121
136.0222	146
138.002	121
138.0375	292
150.0376	146
151.0445	97
152.0161	365
152.0542	97
