Mass spectrum: Methyl 3-hydroxybenzoate; LC-ESI-QTOF; MS2; 40 V
Name: Methyl 3-hydroxybenzoate
Class: Pharmaceutical
Formula: C8H8O3
Exact mass: 152.0473
SMILES: COC(=O)C1=CC(=CC=C1)O
InChI: InChI=1S/C8H8O3/c1-11-8(10)6-3-2-4-7(9)5-6/h2-5,9H,1H3
Instrument: TripleTOF 5600 SCIEX
Instrument type: LC-ESI-QTOF
Ms type: MS2
Ion mode: POSITIVE
Collision energy: 40
Fragmentation mode: CID
Ionization: ESI
Column name: Zorbax Eclipse Plus C18 2.1 mm x 150 mm, 3.5 um, Agilent
Retention time: 7.88 min
Precursor m/z: 153.0546
Precursor type: [M+H]+
m/z	relative intensity
37.0084	19
38.0151	19
39.023	139
41.0376	19
51.0239	59
55.0168	19
59.0128	159
65.0382	999
66.0476	219
77.0392	179
79.0547	99
81.0738	19
91.0554	79
93.0327	599
94.0413	639
107.0488	99
121.0299	219
