Mass spectrum: Triphenylphosphine sulfide; LC-ESI-QTOF; MS2; 120 V
Name: Triphenylphosphine sulfide
Class: Industrial_process
Formula: C18H15PS
Exact mass: 294.0632
SMILES: S=[P](c1ccccc1)(c2ccccc2)c3ccccc3
InChI: InChI=1S/C18H15PS/c20-19(16-10-4-1-5-11-16,17-12-6-2-7-13-17)18-14-8-3-9-15-18/h1-15H
Instrument: TripleTOF 5600 SCIEX
Instrument type: LC-ESI-QTOF
Ms type: MS2
Ion mode: POSITIVE
Collision energy: 120
Fragmentation mode: CID
Ionization: ESI
Column name: Zorbax Eclipse Plus C18 2.1 mm x 150 mm, 3.5 um, Agilent
Retention time: 14.508 min
Precursor m/z: 295.0705
Precursor type: [M+H]+
m/z	relative intensity
51.0293	270
55.9864	31
56.9949	62
62.9499	999
62.9756	50
63.0012	25
65.0424	69
67.9853	25
68.9912	31
74.0163	37
77.0414	81
78.9745	31
79.9838	106
80.9909	270
87.0277	31
89.0403	150
91.9806	31
102.0464	81
103.9818	25
107.0046	879
107.0463	25
113.0399	50
115.0544	175
126.047	175
131.0023	56
133.0192	50
139.0533	169
139.0761	25
150.0462	131
151.0549	314
152.0615	452
155.0065	37
156.0141	56
157.0206	238
180.0131	75
181.0193	245
183.0327	37
