Mass spectrum: Fluazifop-P-butyl; LC-ESI-QTOF; MS2; 70 V
Name: Fluazifop-P-butyl
Class: Herbicide
Formula: C19H20F3NO4
Exact mass: 383.1344
SMILES: CCCCOC(=O)C(C)OC1=CC=C(C=C1)OC2=NC=C(C=C2)C(F)(F)F
InChI: InChI=1S/C19H20F3NO4/c1-3-4-11-25-18(24)13(2)26-15-6-8-16(9-7-15)27-17-10-5-14(12-23-17)19(20,21)22/h5-10,12-13H,3-4,11H2,1-2H3
Instrument: TripleTOF 6600 SCIEX
Instrument type: LC-ESI-QTOF
Ms type: MS2
Ion mode: POSITIVE
Collision energy: 70
Fragmentation mode: CID
Ionization: ESI
Column name: Zorbax Eclipse Plus C18 2.1 mm x 150 mm, 3.5 um, Agilent
Retention time: 15.933 min
Precursor m/z: 384.1417
Precursor type: [M+H]+
m/z	relative intensity
37.0074	12
38.0154	12
39.0228	103
41.0386	118
55.0168	11
57.0696	21
63.0222	25
64.0298	17
65.0384	432
74.0142	15
75.0038	29
75.0221	64
77.0381	55
78.0335	13
79.053	11
81.0335	16
91.0539	859
92.0268	32
93.0328	37
94.041	31
99.003	21
100.0112	16
103.0533	30
107.0475	10
109.0267	11
110.0356	14
114.0458	29
115.0532	15
117.0569	21
119.0486	26
120.0446	19
121.0268	28
126.014	131
127.0218	85
128.0478	12
129.0557	10
130.0646	55
131.0487	153
133.0444	56
140.0483	77
141.0566	429
142.0405	12
142.0654	10
143.0293	23
146.0204	503
147.028	298
148.0353	20
150.0338	12
151.0338	29
152.0429	19
156.08	10
158.0587	121
159.0474	32
160.036	12
160.0542	13
161.044	10
163.0346	48
164.0312	180
166.0637	16
167.0726	37
168.0438	126
169.0508	93
170.0395	67
172.0355	17
177.057	17
178.0453	26
179.0537	18
180.0359	66
181.0443	10
182.0327	14
183.0407	18
184.0361	49
185.0441	85
186.0527	14
186.0708	11
187.0412	19
188.0487	64
189.0376	28
190.0459	214
191.0424	21
196.0548	14
197.0458	10
198.0513	198
199.0366	17
199.0585	14
200.0376	23
201.0365	12
206.0414	21
207.0484	37
208.0557	25
209.0448	132
210.0516	79
211.0595	74
212.0697	21
216.0599	15
218.0412	350
224.0658	10
225.0384	11
226.0467	97
226.082	14
227.0555	344
234.0348	41
235.0602	62
236.0303	24
236.0662	12
237.0396	15
238.0471	999
254.042	872
256.0571	26
264.0616	10
