Mass spectrum: 4-Desmethyl-trimethoprim; LC-ESI-QTOF; MS2; 100 V
Name: 4-Desmethyl-trimethoprim
Class: Pharmaceutical
Formula: C13H16N4O3
Exact mass: 276.1222
SMILES: COC1=CC(=CC(=C1O)OC)CC2=CN=C(N=C2N)N
InChI: InChI=1S/C13H16N4O3/c1-19-9-4-7(5-10(20-2)11(9)18)3-8-6-16-13(15)17-12(8)14/h4-6,18H,3H2,1-2H3,(H4,14,15,16,17)
Instrument: TripleTOF 5600 SCIEX
Instrument type: LC-ESI-QTOF
Ms type: MS2
Ion mode: POSITIVE
Collision energy: 100
Fragmentation mode: CID
Ionization: ESI
Column name: Zorbax Eclipse Plus C18 2.1 mm x 150 mm, 3.5 um, Agilent
Retention time: 4.783 min
Precursor m/z: 277.1295
Precursor type: [M+H]+
m/z	relative intensity
43.0375	149
52.0223	129
53.0436	49
54.0407	439
64.0343	39
65.0434	269
67.0455	49
67.058	69
68.0437	69
74.0178	59
75.0247	109
75.0328	39
76.0247	99
77.0274	39
77.0407	999
77.0739	39
78.0375	129
78.0499	79
79.0306	109
79.0491	179
80.054	69
81.0452	539
89.0404	279
90.0351	129
91.0551	99
92.0497	109
93.0467	109
93.0591	49
94.0532	169
94.0653	69
101.0391	119
102.0347	209
103.0416	89
104.0364	49
104.0485	159
105.0436	209
106.0444	49
106.0586	79
109.0518	59
114.033	159
116.0487	99
117.0547	69
118.0672	59
119.0587	69
120.0547	219
123.0422	39
123.0672	69
127.0427	39
128.049	69
129.0434	99
130.0376	69
131.0615	59
132.0494	69
141.0488	59
143.0596	39
144.051	59
147.0678	179
156.0517	59
159.0641	39
