Mass spectrum: Diazinon; LC-ESI-QTOF; MS2; 130 V
Name: Diazinon
Class: Insecticide
Formula: C12H21N2O3PS
Exact mass: 304.1011
SMILES: CCO[P](=S)(OCC)Oc1cc(C)nc(n1)C(C)C
InChI: InChI=1S/C12H21N2O3PS/c1-6-15-18(19,16-7-2)17-11-8-10(5)13-12(14-11)9(3)4/h8-9H,6-7H2,1-5H3
Instrument: TripleTOF 5600 SCIEX
Instrument type: LC-ESI-QTOF
Ms type: MS2
Ion mode: POSITIVE
Collision energy: 130
Fragmentation mode: CID
Ionization: ESI
Column name: Zorbax Eclipse Plus C18 2.1 mm x 150 mm, 3.5 um, Agilent
Retention time: 14.526 min
Precursor m/z: 305.1083
Precursor type: [M+H]+
m/z	relative intensity
37.0184	12
42.0429	280
46.9769	545
47.0177	11
54.04	75
56.9846	11
57.9916	43
58.9993	58
59.9948	81
62.9499	18
62.9676	322
62.9933	16
64.9835	961
65.0137	19
65.038	11
67.0454	44
70.9974	12
78.9434	999
80.9753	256
82.9969	74
84.0461	19
93.0589	11
96.9516	766
100.0211	21
