Mass spectrum: N-(1,3-Dimethylbutyl)-N`-phenyl-p-phenylenediamine; LC-ESI-QTOF; MS2; 100 V
Name: N-(1,3-Dimethylbutyl)-N`-phenyl-p-phenylenediamine
Class: Industrial_process
Formula: C18H24N2
Exact mass: 268.1939
SMILES: CC(C)CC(C)NC1=CC=C(C=C1)NC2=CC=CC=C2
InChI: InChI=1S/C18H24N2/c1-14(2)13-15(3)19-17-9-11-18(12-10-17)20-16-7-5-4-6-8-16/h4-12,14-15,19-20H,13H2,1-3H3
Instrument: TripleTOF 6600 SCIEX
Instrument type: LC-ESI-QTOF
Ms type: MS2
Ion mode: POSITIVE
Collision energy: 100
Fragmentation mode: CID
Ionization: ESI
Column name: Zorbax Eclipse Plus C18 2.1 mm x 150 mm, 3.5 um, Agilent
Retention time: 9.189 min
Precursor m/z: 269.2012
Precursor type: [M+H]+
m/z	relative intensity
37.0063	13
38.0143	10
39.0221	59
41.0377	14
50.0141	40
51.0223	85
52.0171	13
52.0295	18
53.0379	347
54.0328	28
61.0063	11
62.014	21
63.0222	107
64.0293	16
65.0376	99
66.0333	10
66.0455	75
67.0408	14
75.0222	13
77.0373	92
78.033	37
79.0402	19
80.0489	999
89.0374	65
90.0328	31
90.04	28
91.0406	40
92.048	35
93.0562	35
102.0455	10
103.0523	13
105.044	23
106.0514	15
107.0594	156
113.038	48
114.044	15
115.0528	71
116.0478	11
117.0563	15
126.0452	12
127.0527	44
128.0483	31
128.0598	48
129.0491	14
129.067	11
130.0634	24
138.0461	11
139.0531	178
140.0485	132
141.055	19
154.0644	48
155.0602	12
156.0791	11
164.0488	20
165.0561	11
166.0644	92
167.0721	61
168.072	19
181.0749	63
182.0835	19
