Mass spectrum: Pantothenic acid; LC-ESI-QTOF; MS2; 40 V
Name: Pantothenic acid
Formula: C9H17NO5
Exact mass: 219.1107
SMILES: CC(C)(CO)C(C(=O)NCCC(=O)O)O
InChI: InChI=1S/C9H17NO5/c1-9(2,5-11)7(14)8(15)10-4-3-6(12)13/h7,11,14H,3-5H2,1-2H3,(H,10,15)(H,12,13)
Instrument: TripleTOF 6600 SCIEX
Instrument type: LC-ESI-QTOF
Ms type: MS2
Ion mode: POSITIVE
Collision energy: 40
Fragmentation mode: CID
Ionization: ESI
Column name: Zorbax Eclipse Plus C18 2.1 mm x 150 mm, 3.5 um, Agilent
Retention time: 4.792 min
Precursor m/z: 220.118
Precursor type: [M+H]+
m/z	relative intensity
30.0337	268
31.0181	17
39.0227	69
41.0383	229
42.0342	47
43.0176	540
45.0326	82
55.0181	77
55.0539	77
56.0123	121
57.07	237
59.0487	86
65.038	64
67.0533	436
69.0686	73
70.0284	999
72.0437	367
73.0286	134
74.0227	69
79.0534	64
80.0501	21
81.0566	38
81.0679	47
83.0474	38
85.064	142
86.0965	25
90.0547	402
95.0481	281
96.0797	211
98.0231	354
112.0751	30
113.0585	69
124.0743	333
142.0846	34
