Mass spectrum: Sulfadimethoxine; LC-ESI-QTOF; MS2; 40 V
Name: Sulfadimethoxine
Class: Pharmaceutical
Formula: C12H14N4O4S
Exact mass: 310.0736
SMILES: COC1=NC(=NC(=C1)NS(=O)(=O)C2=CC=C(C=C2)N)OC
InChI: InChI=1S/C12H14N4O4S/c1-19-11-7-10(14-12(15-11)20-2)16-21(17,18)9-5-3-8(13)4-6-9/h3-7H,13H2,1-2H3,(H,14,15,16)
Instrument: TripleTOF 5600 SCIEX
Instrument type: LC-ESI-QTOF
Ms type: MS2
Ion mode: POSITIVE
Collision energy: 40
Fragmentation mode: CID
Ionization: ESI
Column name: Zorbax Eclipse Plus C18 2.1 mm x 150 mm, 3.5 um, Agilent
Retention time: 8.09 min
Precursor m/z: 311.0809
Precursor type: [M+H]+
m/z	relative intensity
57.0454	11
65.0391	235
67.0295	40
72.0441	14
80.05	103
81.0447	20
82.0292	40
84.0327	15
89.0712	14
92.05	954
93.0575	37
98.0478	13
99.0565	45
108.0448	983
110.0349	21
111.0183	19
113.0587	14
124.0185	11
124.0508	36
125.0578	51
126.0674	31
127.0504	81
139.0403	21
140.0459	18
141.0535	142
145.0629	27
154.0605	216
155.0692	80
156.0116	312
156.0773	999
172.0533	21
172.0773	14
173.0589	235
201.075	14
218.0229	189
229.0737	18
230.0815	87
245.1045	213
311.0815	395
