Mass spectrum: Dinoterb; LC-ESI-QTOF; MS2; 60 V
Name: Dinoterb
Class: Herbicide
Formula: C10H12N2O5
Exact mass: 240.0746
SMILES: CC(C)(C)C1=C(C(=CC(=C1)[N+](=O)[O-])[N+](=O)[O-])O
InChI: InChI=1S/C10H12N2O5/c1-10(2,3)7-4-6(11(14)15)5-8(9(7)13)12(16)17/h4-5,13H,1-3H3
Instrument: TripleTOF 6600 SCIEX
Instrument type: LC-ESI-QTOF
Ms type: MS2
Ion mode: NEGATIVE
Collision energy: 60
Fragmentation mode: CID
Ionization: ESI
Column name: Zorbax Eclipse Plus C18 2.1 mm x 150 mm, 3.5 um, Agilent
Retention time: 13.854 min
Precursor m/z: 239.0673
Precursor type: [M-H]-
m/z	relative intensity
45.9914	297
91.0512	18
104.0232	13
109.0139	69
110.0201	10
117.0312	11
119.0486	11
123.0299	49
128.0478	23
130.0394	39
131.0344	37
132.0199	24
132.0424	22
134.0219	281
135.0423	28
136.0502	43
145.0267	19
146.0351	106
148.0377	999
149.0453	452
150.0538	134
151.0721	14
162.0164	245
164.0683	57
176.0323	991
177.0404	105
178.0475	22
207.036	40
