Mass spectrum: Demeclocycline; LC-ESI-QTOF; MS2; 40 V
Name: Demeclocycline
Class: Antimicrobial; Pharmaceutical
Formula: C21H21ClN2O8
Exact mass: 464.0986
SMILES: CN(C)C1C2CC3C(C4=C(C=CC(=C4C(=C3C(=O)C2(C(=C(C1=O)C(=O)N)O)O)O)O)Cl)O
InChI: InChI=1S/C21H21ClN2O8/c1-24(2)14-7-5-6-10(16(27)12-9(25)4-3-8(22)11(12)15(6)26)18(29)21(7,32)19(30)13(17(14)28)20(23)31/h3-4,6-7,14-15,25-27,30,32H,5H2,1-2H3,(H2,23,31)
Instrument: TripleTOF 5600 SCIEX
Instrument type: LC-ESI-QTOF
Ms type: MS2
Ion mode: POSITIVE
Collision energy: 40
Fragmentation mode: CID
Ionization: ESI
Column name: Zorbax Eclipse Plus C18 2.1 mm x 150 mm, 3.5 um, Agilent
Retention time: 5.787 min
Precursor m/z: 465.1059
Precursor type: [M+H]+
m/z	relative intensity
98.0629	105
126.0563	44
139.0323	22
154.0512	339
226.0693	32
231.024	22
233.0405	35
243.0212	19
245.0296	16
252.0448	22
259.0118	76
261.031	214
271.0211	32
273.0354	41
277.025	60
287.012	92
289.0259	614
299.0141	51
301.026	35
311.0129	32
313.0243	73
316.0769	28
317.023	86
329.0184	16
329.0371	16
334.0514	12
334.0909	25
339.0072	89
341.0201	195
356.0693	16
356.9995	19
366.9999	57
369.0148	73
384.0617	44
385.0108	102
402.0788	16
412.0644	76
430.0688	999
448.0786	944
465.1008	112
