Mass spectrum: Metaflumizone; LC-ESI-QTOF; MS2; 50 V
Name: Metaflumizone
Class: Insecticide; Pharmaceutical
Formula: C24H16F6N4O2
Exact mass: 506.1177
SMILES: C1=CC(=CC(=C1)C(F)(F)F)C(=NNC(=O)NC2=CC=C(C=C2)OC(F)(F)F)CC3=CC=C(C=C3)C#N
InChI: InChI=1S/C24H16F6N4O2/c25-23(26,27)18-3-1-2-17(13-18)21(12-15-4-6-16(14-31)7-5-15)33-34-22(35)32-19-8-10-20(11-9-19)36-24(28,29)30/h1-11,13H,12H2,(H2,32,34,35)
Instrument: TripleTOF 6600 SCIEX
Instrument type: LC-ESI-QTOF
Ms type: MS2
Ion mode: POSITIVE
Collision energy: 50
Fragmentation mode: CID
Ionization: ESI
Column name: Zorbax Eclipse Plus C18 2.1 mm x 150 mm, 3.5 um, Agilent
Retention time: 15.496 min
Precursor m/z: 507.125
Precursor type: [M+H]+
m/z	relative intensity
65.0383	10
89.0381	34
92.0489	55
93.0568	22
108.044	10
116.0493	531
128.0486	17
159.0414	15
171.0408	23
172.0362	10
174.0514	15
176.0314	27
177.0385	33
178.0475	999
190.0644	14
191.0724	21
204.0262	18
218.0834	316
219.0907	14
220.055	23
221.0532	113
240.0616	101
247.0665	305
260.0674	94
267.0728	763
273.0692	32
286.0705	34
287.0788	722
288.0863	191
330.0844	95
