Mass spectrum: 2-Hydroxyestrone; LC-ESI-QTOF; MS2; 80 V
Name: 2-Hydroxyestrone
Class: Pharmaceutical; Metabolite
Formula: C18H22O3
Exact mass: 286.1569
SMILES: C[C@]12CC[C@H]3[C@@H](CCc4cc(O)c(O)cc34)[C@@H]1CCC2=O
InChI: InChI=1S/C18H22O3/c1-18-7-6-11-12(14(18)4-5-17(18)21)3-2-10-8-15(19)16(20)9-13(10)11/h8-9,11-12,14,19-20H,2-7H2,1H3/t11-,12+,14-,18-/m0/s1
Instrument: TripleTOF 5600 SCIEX
Instrument type: LC-ESI-QTOF
Ms type: MS2
Ion mode: POSITIVE
Collision energy: 80
Fragmentation mode: CID
Ionization: ESI
Column name: Zorbax Eclipse Plus C18 2.1 mm x 150 mm, 3.5 um, Agilent
Retention time: 9.978 min
Precursor m/z: 287.1642
Precursor type: [M+H]+
m/z	relative intensity
75.026	74
77.0407	820
89.0403	149
91.055	149
101.0401	74
102.0463	149
103.0533	730
114.043	74
115.0527	551
123.0429	74
126.0446	134
127.0531	432
128.0605	999
129.0675	119
131.0485	134
139.0525	104
141.067	104
151.0517	89
152.061	357
152.0761	59
153.0668	74
165.0691	283
