Mass spectrum: Alpha-hydroxy-metoprolol; LC-ESI-QTOF; MS2; 120 V
Name: Alpha-hydroxy-metoprolol
Class: Pharmaceutical; Metabolite
Formula: C15H25NO4
Exact mass: 283.1784
SMILES: COCC(O)c1ccc(OCC(O)CNC(C)C)cc1
InChI: InChI=1S/C15H25NO4/c1-11(2)16-8-13(17)9-20-14-6-4-12(5-7-14)15(18)10-19-3/h4-7,11,13,15-18H,8-10H2,1-3H3
Instrument: TripleTOF 5600 SCIEX
Instrument type: LC-ESI-QTOF
Ms type: MS2
Ion mode: POSITIVE
Collision energy: 120
Fragmentation mode: CID
Ionization: ESI
Column name: Zorbax Eclipse Plus C18 2.1 mm x 150 mm, 3.5 um, Agilent
Retention time: 5.057 min
Precursor m/z: 284.1856
Precursor type: [M+H]+
m/z	relative intensity
42.0425	14
43.0263	14
44.059	25
45.0414	47
55.0267	16
56.0559	94
58.071	65
64.0361	16
65.0433	307
72.0843	16
74.0181	21
74.0613	16
75.0262	30
76.0341	21
77.0417	999
78.0493	131
79.0581	47
89.0406	230
90.0511	21
91.0554	256
102.0472	35
103.0549	25
105.0329	47
107.0497	23
115.0533	47
127.0543	11
128.0598	11
