Mass spectrum: (2-dodecanoylamino-ethyl)-dimethyl-tetradecyl-ammonium; LC-ESI-QTOF; MS2; 90 V
Name: (2-dodecanoylamino-ethyl)-dimethyl-tetradecyl-ammonium
Class: Industrial_process
Formula: [C30H63N2O]+
Exact mass: 467.4935
SMILES: CCCCCCCCCCCCCC[N+](C)(C)CCNC(=O)CCCCCCCCCCC
InChI: InChI=1S/C30H62N2O/c1-5-7-9-11-13-15-16-17-19-21-23-25-28-32(3,4)29-27-31-30(33)26-24-22-20-18-14-12-10-8-6-2/h5-29H2,1-4H3/p+1
Instrument: TripleTOF 5600 SCIEX
Instrument type: LC-ESI-QTOF
Ms type: MS2
Ion mode: POSITIVE
Collision energy: 90
Fragmentation mode: CID
Ionization: ESI
Column name: Zorbax Eclipse Plus C18 2.1 mm x 150 mm, 3.5 um, Agilent
Retention time: 15.384 min
Precursor m/z: 467.4935
Precursor type: [M]+
m/z	relative intensity
44.0575	832
55.0599	126
57.0748	999
67.0573	126
71.0876	172
79.0591	57
81.0701	132
85.0531	183
95.0847	103
98.0592	373
226.2151	953
