Mass spectrum: (2-Carboxyethyl)triphenylphosphonium; LC-ESI-QTOF; MS2; 60 V
Name: (2-Carboxyethyl)triphenylphosphonium
Formula: [C21H20O2P]+
Exact mass: 335.1195
SMILES: C1=CC=C(C=C1)[P+](CCC(=O)O)(C2=CC=CC=C2)C3=CC=CC=C3
InChI: InChI=1S/C21H19O2P/c22-21(23)16-17-24(18-10-4-1-5-11-18,19-12-6-2-7-13-19)20-14-8-3-9-15-20/h1-15H,16-17H2/p+1
Instrument: TripleTOF 5600 SCIEX
Instrument type: LC-ESI-QTOF
Ms type: MS2
Ion mode: POSITIVE
Collision energy: 60
Fragmentation mode: CID
Ionization: ESI
Column name: Zorbax Eclipse Plus C18 2.1 mm x 150 mm, 3.5 um, Agilent
Retention time: 6.754 min
Precursor m/z: 335.1195
Precursor type: [M]+
m/z	relative intensity
107.0029	249
108.0108	335
152.0617	78
183.0357	999
184.0432	63
185.0515	141
259.0682	74
261.0833	299
262.0907	86
275.0987	327
289.1156	65
