Mass spectrum: Terbutylazine-2-hydroxy; LC-ESI-QTOF; MS2; 30 V
Name: Terbutylazine-2-hydroxy
Class: Herbicide; Transformation_product
Formula: C9H17N5O
Exact mass: 211.1433
InChI: InChI=1S/C9H17N5O/c1-5-10-6-11-7(13-8(15)12-6)14-9(2,3)4/h5H2,1-4H3,(H3,10,11,12,13,14,15)
Instrument: TripleTOF 5600 SCIEX
Instrument type: LC-ESI-QTOF
Ms type: CID
Ion mode: NEGATIVE
Collision energy: 30
Ionization: ESI
Column name: Zorbax Eclipse Plus C18 2.1 mm x 150 mm, 3.5 um, Agilent
Retention time: 5.981 min
Precursor m/z: 210.136
Precursor type: [M-H]-
m/z	relative intensity
41.0167	66
42.0011	106
69.0457	216
81.0454	87
97.0765	999
111.0671	230
154.0726	462
210.1357	201
