Mass spectrum: Iohexol; LC-ESI-QTOF; MS2; 150 V
Name: Iohexol
Class: Pharmaceutical
Formula: C19H26I3N3O9
Exact mass: 820.8803
SMILES: CC(=O)N(CC(O)CO)c1c(I)c(C(=O)NCC(O)CO)c(I)c(C(=O)NCC(O)CO)c1I
InChI: InChI=1S/C19H26I3N3O9/c1-8(29)25(4-11(32)7-28)17-15(21)12(18(33)23-2-9(30)5-26)14(20)13(16(17)22)19(34)24-3-10(31)6-27/h9-11,26-28,30-32H,2-7H2,1H3,(H,23,33)(H,24,34)
Instrument: TripleTOF 5600 SCIEX
Instrument type: LC-ESI-QTOF
Ms type: MS2
Ion mode: POSITIVE
Collision energy: 150
Fragmentation mode: CID
Ionization: ESI
Column name: Zorbax Eclipse Plus C18 2.1 mm x 150 mm, 3.5 um, Agilent
Retention time: 4.533 min
Precursor m/z: 821.8876
Precursor type: [M+H]+
m/z	relative intensity
88.0197	312
88.0313	249
91.0428	312
102.0348	686
103.0297	249
103.0424	561
104.0489	686
114.0329	499
115.0407	374
116.0359	374
117.0586	312
118.0506	249
119.0355	561
129.0558	312
130.0297	374
130.0513	249
131.0367	624
131.0598	312
132.043	249
141.0557	374
142.0287	374
142.0528	374
144.0452	374
145.0413	249
147.0327	499
158.0615	312
160.0425	561
175.025	312
176.0352	249
188.918	312
200.9192	499
204.9158	312
227.9311	499
231.9294	561
242.9551	249
245.9381	312
257.9421	999
273.9421	374
