Mass spectrum: 5-(3,4,5-Trimethoxybenzoyl)-2,4-pyrimidinediamine; LC-ESI-QTOF; MS2; 70 V
Name: 5-(3,4,5-Trimethoxybenzoyl)-2,4-pyrimidinediamine
Class: Pharmaceutical; Transformation_product
Formula: C14H16N4O4
Exact mass: 304.1172
SMILES: COc1cc(cc(c1OC)OC)C(=O)c2cnc(nc2N)N
InChI: InChI=1S/C14H16N4O4/c1-20-9-4-7(5-10(21-2)12(9)22-3)11(19)8-6-17-14(16)18-13(8)15/h4-6H,1-3H3,(H4,15,16,17,18)
Instrument: TripleTOF 5600 SCIEX
Instrument type: LC-ESI-QTOF
Ms type: MS2
Ion mode: POSITIVE
Collision energy: 70
Fragmentation mode: CID
Ionization: ESI
Column name: Zorbax Eclipse Plus C18 2.1 mm x 150 mm, 3.5 um, Agilent
Retention time: 5.86 min
Precursor m/z: 305.1244
Precursor type: [M+H]+
m/z	relative intensity
40.0334	11
41.0388	16
43.0376	33
52.0228	13
52.0326	13
53.0089	14
53.044	31
65.0426	65
66.0462	11
67.0287	67
67.0574	14
68.0176	886
69.0006	14
69.0479	22
70.0324	110
71.0175	11
75.0255	13
76.0335	14
77.0412	170
78.0369	13
78.0477	35
79.019	9
79.0538	13
80.0306	11
80.0523	78
81.0357	97
83.0478	63
89.0412	31
90.0342	91
91.0535	11
92.0274	63
92.0504	31
93.0108	13
93.0351	43
94.0414	54
94.0637	11
95.0251	999
96.0575	20
101.0412	16
102.0446	20
103.0466	37
104.0492	89
105.0413	179
106.0502	116
107.0141	22
107.0602	284
108.0203	37
108.0514	24
109.0285	33
109.0509	80
110.0583	223
111.0654	35
114.0329	39
115.0409	20
116.0494	93
117.0508	76
118.0313	41
118.0591	59
119.0604	37
120.0178	91
120.0498	54
121.0302	86
121.0626	14
122.0363	22
123.044	26
124.0507	11
127.0395	20
128.0482	97
129.0456	65
130.0272	11
130.0459	39
130.0672	14
131.0595	131
132.0527	80
133.0293	59
134.0462	67
135.058	76
136.0148	46
136.0378	11
137.0217	46
137.0452	239
140.0472	14
141.0436	56
142.0348	13
142.0498	11
143.0618	80
144.0521	118
145.0256	11
145.0411	13
145.0762	43
146.0239	89
146.0609	39
147.0667	200
148.0407	37
148.0731	103
149.0225	67
149.0797	13
150.0526	18
151.0379	59
152.0438	24
153.0448	29
154.0413	14
155.0592	61
156.0481	118
157.0374	46
158.0475	74
158.0669	26
159.0294	11
159.0584	65
160.0463	50
160.0766	11
161.0217	14
161.0404	11
161.0813	84
162.0571	29
162.0867	14
163.0518	191
165.0181	11
167.0494	13
168.0535	74
169.04	22
170.0467	11
170.07	28
171.0587	196
172.0362	14
172.0531	11
172.0732	61
173.0302	14
173.0755	140
174.0615	71
175.0612	86
176.0698	170
177.0762	56
179.0321	20
182.0724	16
183.0561	56
184.0523	95
185.0342	11
185.0823	127
186.0667	13
187.0543	127
187.0952	52
188.047	35
189.0429	14
189.0764	170
190.0862	20
196.0502	29
197.0813	24
198.0661	59
199.0603	61
199.101	14
200.0694	243
201.0756	350
202.0393	14
202.0587	26
203.0519	67
204.0617	13
212.051	26
213.0774	89
214.0127	11
214.0601	11
214.0843	22
215.0553	26
215.0907	134
216.0618	13
217.0724	194
219.082	14
225.0804	20
227.0547	28
228.0681	18
229.0717	176
231.0448	13
243.0933	20
245.0646	89
246.0748	39
253.0724	13
259.0835	11
