Mass spectrum: Metronidazole; LC-ESI-QTOF; MS2; 30 V
Name: Metronidazole
Class: Antimicrobial; Pharmaceutical
Formula: C6H9N3O3
Exact mass: 171.0644
SMILES: CC1=NC=C(N1CCO)[N+](=O)[O-]
InChI: InChI=1S/C6H9N3O3/c1-5-7-4-6(9(11)12)8(5)2-3-10/h4,10H,2-3H2,1H3
Instrument: TripleTOF 5600 SCIEX
Instrument type: LC-ESI-QTOF
Ms type: CID
Ion mode: POSITIVE
Collision energy: 30
Ionization: ESI
Column name: Zorbax Eclipse Plus C18 2.1 mm x 150 mm, 3.5 um, Agilent
Retention time: 4.808 min
Precursor m/z: 172.0717
Precursor type: [M+H]+
m/z	relative intensity
41.0411	10
42.0468	31
43.0309	57
45.046	100
56.0467	104
81.0494	15
82.0573	999
98.0502	32
111.0454	147
128.0469	834
