Mass spectrum: Metazachlor ESA; LC-ESI-QTOF; MS2; 50 V
Name: Metazachlor ESA
Class: Transformation_product; Herbicide; Metabolite
Formula: C14H17N3O4S
Exact mass: 323.094
SMILES: Cc1cccc(c1N(Cn2cccn2)C(=O)CS(=O)(=O)O)C
InChI: InChI=1S/C14H17N3O4S/c1-11-5-3-6-12(2)14(11)17(10-16-8-4-7-15-16)13(18)9-22(19,20)21/h3-8H,9-10H2,1-2H3,(H,19,20,21)
Instrument: TripleTOF 6600 SCIEX
Instrument type: LC-ESI-QTOF
Ms type: MS2
Ion mode: NEGATIVE
Collision energy: 50
Fragmentation mode: CID
Ionization: ESI
Column name: Zorbax Eclipse Plus C18 2.1 mm x 150 mm, 3.5 um, Agilent
Retention time: 6.639 min
Precursor m/z: 322.0867
Precursor type: [M-H]-
m/z	relative intensity
67.0302	521
76.9701	801
79.9571	999
93.9728	80
94.9802	50
120.0819	377
120.9602	467
130.0665	581
132.0821	23
148.0773	310
