Mass spectrum: Iohexol; LC-ESI-QTOF; MS2; 90 V
Name: Iohexol
Class: Pharmaceutical
Formula: C19H26I3N3O9
Exact mass: 820.8803
SMILES: CC(=O)N(CC(O)CO)c1c(I)c(C(=O)NCC(O)CO)c(I)c(C(=O)NCC(O)CO)c1I
InChI: InChI=1S/C19H26I3N3O9/c1-8(29)25(4-11(32)7-28)17-15(21)12(18(33)23-2-9(30)5-26)14(20)13(16(17)22)19(34)24-3-10(31)6-27/h9-11,26-28,30-32H,2-7H2,1H3,(H,23,33)(H,24,34)
Instrument: TripleTOF 5600 SCIEX
Instrument type: LC-ESI-QTOF
Ms type: MS2
Ion mode: POSITIVE
Collision energy: 90
Fragmentation mode: CID
Ionization: ESI
Column name: Zorbax Eclipse Plus C18 2.1 mm x 150 mm, 3.5 um, Agilent
Retention time: 4.533 min
Precursor m/z: 821.8876
Precursor type: [M+H]+
m/z	relative intensity
133.0497	54
142.028	86
157.0517	43
158.0233	97
159.0614	65
160.0373	54
169.0458	54
172.0378	54
173.0341	43
173.0467	65
174.0398	43
175.0246	217
176.0317	97
185.0464	43
187.0523	97
189.0414	65
203.0564	86
204.0658	54
217.0432	54
228.9387	54
229.0698	65
240.938	65
244.9331	43
245.9397	76
247.0713	76
248.057	76
249.0907	76
255.9249	43
255.9495	43
256.9332	65
257.9399	325
258.9344	43
268.9329	130
269.9405	86
269.9638	54
270.9454	119
271.9455	119
272.9532	119
273.9366	521
275.9514	152
283.9206	108
284.9276	65
285.9347	86
285.9576	76
286.9353	76
286.9639	54
287.9149	86
287.9447	54
296.9302	86
297.9365	97
299.914	54
299.9515	43
300.9454	76
301.9294	999
311.9527	97
312.9456	108
313.9639	86
315.9496	184
329.967	152
331.9785	54
338.9659	43
339.9454	141
341.8297	76
341.966	65
342.9536	43
344.9774	54
355.8436	108
357.9599	152
362.9718	43
362.9877	86
369.8299	86
372.9632	54
372.9825	43
374.9837	618
381.845	54
383.834	97
383.8533	108
385.8151	217
395.8301	119
395.8624	54
396.8284	65
397.8189	162
397.8407	108
398.8522	152
399.8342	195
409.8247	97
410.8236	43
411.835	380
412.8357	86
413.8168	162
422.8524	86
423.8314	65
425.8092	130
425.8414	86
426.8516	119
427.8263	65
438.835	54
439.8247	43
451.8264	184
500.8837	553
512.8802	65
514.8544	130
528.8753	43
626.7749	108
