Mass spectrum: 2-Hydroxyestrone; LC-ESI-QTOF; MS2; 60 V
Name: 2-Hydroxyestrone
Class: Pharmaceutical; Metabolite
Formula: C18H22O3
Exact mass: 286.1569
SMILES: C[C@]12CC[C@H]3[C@@H](CCc4cc(O)c(O)cc34)[C@@H]1CCC2=O
InChI: InChI=1S/C18H22O3/c1-18-7-6-11-12(14(18)4-5-17(18)21)3-2-10-8-15(19)16(20)9-13(10)11/h8-9,11-12,14,19-20H,2-7H2,1H3/t11-,12+,14-,18-/m0/s1
Instrument: TripleTOF 5600 SCIEX
Instrument type: LC-ESI-QTOF
Ms type: MS2
Ion mode: POSITIVE
Collision energy: 60
Fragmentation mode: CID
Ionization: ESI
Column name: Zorbax Eclipse Plus C18 2.1 mm x 150 mm, 3.5 um, Agilent
Retention time: 9.978 min
Precursor m/z: 287.1642
Precursor type: [M+H]+
m/z	relative intensity
67.0585	88
77.0405	293
79.057	102
91.0549	205
102.0481	73
103.0541	999
115.0524	352
117.0681	58
123.0429	308
126.0444	58
127.0522	822
128.061	896
129.0683	572
131.0482	396
141.0691	117
143.0482	73
143.0852	58
147.0441	132
149.0588	102
151.0522	73
152.0596	293
153.0694	235
155.0464	102
155.0864	117
157.0646	132
160.0509	264
161.059	88
165.0682	264
166.0753	146
167.0869	205
173.0591	646
175.0776	102
181.0628	132
195.0794	58
