Mass spectrum: 10,11-Dihydro-10,11-epoxycarbamazepine; LC-ESI-QTOF; MS2; 120 V
Name: 10,11-Dihydro-10,11-epoxycarbamazepine
Class: Metabolite; Pharmaceutical; Transformation_product-Metabolite
Formula: C15H12N2O2
Exact mass: 252.0899
SMILES: C1=CC=C2C(=C1)C3C(O3)C4=CC=CC=C4N2C(=O)N
InChI: InChI=1S/C15H12N2O2/c16-15(18)17-11-7-3-1-5-9(11)13-14(19-13)10-6-2-4-8-12(10)17/h1-8,13-14H,(H2,16,18)
Instrument: TripleTOF 5600 SCIEX
Instrument type: LC-ESI-QTOF
Ms type: MS2
Ion mode: POSITIVE
Collision energy: 120
Fragmentation mode: CID
Ionization: ESI
Column name: Zorbax Eclipse Plus C18 2.1 mm x 150 mm, 3.5 um, Agilent
Retention time: 7.593 min
Precursor m/z: 253.0972
Precursor type: [M+H]+
m/z	relative intensity
37.0072	11
39.0229	19
44.0126	28
49.0065	23
50.0148	140
51.0228	343
52.03	17
59.9989	11
61.007	44
62.015	94
63.0227	247
65.0383	53
73.0068	34
74.0144	380
75.0228	526
76.0299	165
77.0384	560
78.0336	11
78.0454	76
85.0056	23
86.0151	74
87.0226	153
88.0184	28
88.0303	44
89.038	263
90.0453	15
91.0527	13
97.0068	11
98.0149	194
99.0223	172
100.0173	21
100.0303	63
101.0385	242
102.0451	238
103.0431	13
110.0142	34
111.0233	46
112.0181	17
113.0381	242
114.0329	30
114.0458	24
115.0537	94
116.0489	17
122.012	21
123.0244	36
124.0314	21
125.0385	167
126.0458	482
127.0529	220
128.049	124
129.0457	23
137.0379	59
138.047	48
139.0537	128
140.0483	205
149.0378	97
150.0461	924
151.0535	999
152.0614	657
153.0581	124
154.062	15
161.0363	23
162.0452	49
163.0531	149
164.0497	78
165.0614	21
166.0631	23
175.0417	32
176.0481	90
177.0567	328
178.065	470
179.071	144
180.0802	24
188.05	23
189.0597	11
190.0653	36
