Mass spectrum: Azo Rubin S; LC-ESI-QTOF; MS2; 60 V
Name: Azo Rubin S
Formula: C20H14N2O7S2
Exact mass: 458.0242
SMILES: C1=CC=C2C(=C1)C(=CC=C2S(=O)(=O)O)N=NC3=C(C4=CC=CC=C4C(=C3)S(=O)(=O)O)O
InChI: InChI=1S/C20H14N2O7S2/c23-20-15-8-4-3-7-14(15)19(31(27,28)29)11-17(20)22-21-16-9-10-18(30(24,25)26)13-6-2-1-5-12(13)16/h1-11,23H,(H,24,25,26)(H,27,28,29)
Instrument: TripleTOF 6600 SCIEX
Instrument type: LC-ESI-QTOF
Ms type: MS2
Ion mode: POSITIVE
Collision energy: 60
Fragmentation mode: CID
Ionization: ESI
Column name: Zorbax Eclipse Plus C18 2.1 mm x 150 mm, 3.5 um, Agilent
Retention time: 7.286 min
Precursor m/z: 459.0315
Precursor type: [M+H]+
m/z	relative intensity
77.0382	25
80.0126	87
89.0379	16
103.0538	95
105.0326	40
115.0539	43
116.0491	21
128.0487	35
130.0649	621
131.0478	33
140.0488	11
142.0647	109
143.0721	63
146.059	22
154.0284	31
158.0599	999
159.0669	40
172.0388	14
174.0542	25
223.0296	671
267.0916	67
268.0989	52
269.1099	12
279.091	28
280.1001	40
295.0876	23
296.0934	33
297.1022	22
360.0551	78
361.0672	29
377.0605	24
441.0225	29
442.0329	13
