Mass spectrum: Enrofloxacin; LC-ESI-QTOF; MS2; 20 V
Name: Enrofloxacin
Class: Pharmaceutical; Antimicrobial
Formula: C19H22FN3O3
Exact mass: 359.1645
SMILES: CCN1CCN(CC1)c2cc3N(C=C(C(O)=O)C(=O)c3cc2F)C4CC4
InChI: InChI=1S/C19H22FN3O3/c1-2-21-5-7-22(8-6-21)17-10-16-13(9-15(17)20)18(24)14(19(25)26)11-23(16)12-3-4-12/h9-12H,2-8H2,1H3,(H,25,26)
Instrument: TripleTOF 5600 SCIEX
Instrument type: LC-ESI-QTOF
Ms type: MS2
Ion mode: POSITIVE
Collision energy: 20
Fragmentation mode: CID
Ionization: ESI
Column name: Zorbax Eclipse Plus C18 2.1 mm x 150 mm, 3.5 um, Agilent
Retention time: 5.696 min
Precursor m/z: 360.1718
Precursor type: [M+H]+
m/z	relative intensity
316.1812	138
342.1615	397
360.1723	999
