Mass spectrum: Estrone 3-methyl ether; LC-ESI-QTOF; MS2; 140 V
Name: Estrone 3-methyl ether
Class: Pharmaceutical
Formula: C19H24O2
Exact mass: 284.1776
SMILES: C[C@]12CC[C@@H]3c4ccc(cc4CC[C@H]3[C@@H]1CCC2=O)OC
InChI: InChI=1S/C19H24O2/c1-19-10-9-15-14-6-4-13(21-2)11-12(14)3-5-16(15)17(19)7-8-18(19)20/h4,6,11,15-17H,3,5,7-10H2,1-2H3/t15-,16-,17+,19+/m1/s1
Instrument: TripleTOF 5600 SCIEX
Instrument type: LC-ESI-QTOF
Ms type: MS2
Ion mode: POSITIVE
Collision energy: 140
Fragmentation mode: CID
Ionization: ESI
Column name: Zorbax Eclipse Plus C18 2.1 mm x 150 mm, 3.5 um, Agilent
Retention time: 10.549 min
Precursor m/z: 285.1849
Precursor type: [M+H]+
m/z	relative intensity
63.039	101
65.0438	304
74.0181	118
75.027	152
76.0324	152
77.0415	931
78.0494	355
87.0251	84
89.0398	474
91.056	186
102.0471	338
102.0603	84
103.0544	101
115.0541	999
126.047	186
127.053	237
128.0624	270
139.0555	101
150.0458	220
151.0549	237
152.0615	203
163.053	118
165.0701	152
