Mass spectrum: Miconazole; LC-ESI-QTOF; MS2; 130 V
Name: Miconazole
Class: Fungicide
Formula: C18H14Cl4N2O
Exact mass: 413.986
SMILES: Clc1ccc(COC(Cn2ccnc2)c3ccc(Cl)cc3Cl)c(Cl)c1
InChI: InChI=1S/C18H14Cl4N2O/c19-13-2-1-12(16(21)7-13)10-25-18(9-24-6-5-23-11-24)15-4-3-14(20)8-17(15)22/h1-8,11,18H,9-10H2
Instrument: TripleTOF 5600 SCIEX
Instrument type: LC-ESI-QTOF
Ms type: MS2
Ion mode: POSITIVE
Collision energy: 130
Fragmentation mode: CID
Ionization: ESI
Column name: Zorbax Eclipse Plus C18 2.1 mm x 150 mm, 3.5 um, Agilent
Retention time: 10.658 min
Precursor m/z: 414.9933
Precursor type: [M+H]+
m/z	relative intensity
69.0477	30
72.9873	369
75.0263	11
81.047	40
82.9461	34
87.0247	18
88.0325	75
89.0411	999
96.9849	142
99.0005	208
106.9453	13
122.9998	402
124.0075	127
132.9607	111
158.9765	108
