Mass spectrum: Olmesartan; LC-ESI-QTOF; MS2; 70 V
Name: Olmesartan
Class: Pharmaceutical
Formula: C24H26N6O3
Exact mass: 446.2066
SMILES: CCCc1nc(c(n1Cc2ccc(cc2)c3ccccc3c4n[nH]nn4)C(O)=O)C(C)(C)O
InChI: InChI=1S/C24H26N6O3/c1-4-7-19-25-21(24(2,3)33)20(23(31)32)30(19)14-15-10-12-16(13-11-15)17-8-5-6-9-18(17)22-26-28-29-27-22/h5-6,8-13,33H,4,7,14H2,1-3H3,(H,31,32)(H,26,27,28,29)
Instrument: TripleTOF 5600 SCIEX
Instrument type: LC-ESI-QTOF
Ms type: MS2
Ion mode: POSITIVE
Collision energy: 70
Fragmentation mode: CID
Ionization: ESI
Column name: Zorbax Eclipse Plus C18 2.1 mm x 150 mm, 3.5 um, Agilent
Retention time: 7.356 min
Precursor m/z: 447.2139
Precursor type: [M+H]+
m/z	relative intensity
77.0412	41
80.0526	25
115.0547	17
127.0542	22
139.0549	10
140.0499	71
141.068	12
151.0548	94
152.0631	234
153.0707	356
154.0653	16
163.0549	111
164.0614	68
165.0696	100
166.0659	33
167.0727	45
168.0687	16
176.0619	24
177.0671	12
177.1022	184
178.0778	720
179.0745	199
180.0815	585
181.078	13
189.0575	27
190.066	999
191.0735	501
192.0691	344
205.0769	456
206.0846	432
207.0925	403
