Mass spectrum: Ethisterone; LC-ESI-QTOF; MS2; 80 V
Name: Ethisterone
Class: Pharmaceutical; Metabolite
Formula: C21H28O2
Exact mass: 312.2089
SMILES: C[C@]12CCC(=O)C=C1CC[C@@H]3[C@@H]2CC[C@@]4(C)[C@H]3CC[C@@]4(O)C#C
InChI: InChI=1S/C21H28O2/c1-4-21(23)12-9-18-16-6-5-14-13-15(22)7-10-19(14,2)17(16)8-11-20(18,21)3/h1,13,16-18,23H,5-12H2,2-3H3/t16-,17+,18+,19+,20+,21+/m1/s1
Instrument: TripleTOF 5600 SCIEX
Instrument type: LC-ESI-QTOF
Ms type: MS2
Ion mode: POSITIVE
Collision energy: 80
Fragmentation mode: CID
Ionization: ESI
Column name: Zorbax Eclipse Plus C18 2.1 mm x 150 mm, 3.5 um, Agilent
Retention time: 11.662 min
Precursor m/z: 313.2162
Precursor type: [M+H]+
m/z	relative intensity
43.0251	100
43.0442	19
53.0449	108
55.0233	85
55.034	23
55.0598	73
57.0388	23
65.0426	212
66.0506	23
67.0246	23
67.0586	193
69.0365	34
69.073	85
77.0419	909
77.078	19
78.0483	15
79.0567	999
81.0356	50
81.0719	363
82.0441	23
83.051	69
89.0391	23
91.0558	801
93.0706	69
94.0434	54
95.051	23
95.0856	54
97.0657	817
102.0477	27
103.0547	61
104.0623	27
105.0693	174
107.0488	61
108.0556	54
109.0645	666
109.1027	15
115.0545	456
115.0857	23
116.0628	58
117.0665	38
119.0854	42
121.0702	19
123.0788	69
127.055	96
128.0619	410
129.0699	143
130.0798	27
131.0865	27
141.0696	220
142.0788	54
143.087	23
152.0616	58
153.0697	100
154.0767	23
155.0845	61
165.0698	104
166.0763	38
167.0867	27
178.0806	65
179.0856	30
189.07	19
190.0761	15
191.0813	27
