Mass spectrum: Methyl 1,2,2,6,6-pentamethyl-4-piperidyl sebacate; LC-ESI-QTOF; MS2; 90 V
Name: Methyl 1,2,2,6,6-pentamethyl-4-piperidyl sebacate
Class: Industrial_process
Formula: C21H39NO4
Exact mass: 369.2879
SMILES: CC1(CC(CC(N1C)(C)C)OC(=O)CCCCCCCCC(=O)OC)C
InChI: InChI=1S/C21H39NO4/c1-20(2)15-17(16-21(3,4)22(20)5)26-19(24)14-12-10-8-7-9-11-13-18(23)25-6/h17H,7-16H2,1-6H3
Instrument: TripleTOF 5600 SCIEX
Instrument type: LC-ESI-QTOF
Ms type: MS2
Ion mode: POSITIVE
Collision energy: 90
Fragmentation mode: CID
Ionization: ESI
Column name: Zorbax Eclipse Plus C18 2.1 mm x 150 mm, 3.5 um, Agilent
Retention time: 8.341 min
Precursor m/z: 370.2952
Precursor type: [M+H]+
m/z	relative intensity
42.0472	36
56.0591	19
57.0656	43
67.0608	47
69.0766	27
70.0717	65
72.0874	999
77.0437	61
79.0589	151
81.0743	145
91.0578	20
93.0729	35
95.0882	20
98.0987	35
