Mass spectrum: Dicloxacillin; LC-ESI-QTOF; MS2; 60 V
Name: Dicloxacillin
Formula: C19H17Cl2N3O5S
Exact mass: 469.0266
SMILES: CC1=C(C(=NO1)C2=C(C=CC=C2Cl)Cl)C(=O)NC3C4N(C3=O)C(C(S4)(C)C)C(=O)O
InChI: InChI=1S/C19H17Cl2N3O5S/c1-7-10(12(23-29-7)11-8(20)5-4-6-9(11)21)15(25)22-13-16(26)24-14(18(27)28)19(2,3)30-17(13)24/h4-6,13-14,17H,1-3H3,(H,22,25)(H,27,28)
Instrument: TripleTOF 6600 SCIEX
Instrument type: LC-ESI-QTOF
Ms type: MS2
Ion mode: NEGATIVE
Collision energy: 60
Fragmentation mode: CID
Ionization: ESI
Column name: Zorbax Eclipse Plus C18 2.1 mm x 150 mm, 3.5 um, Agilent
Retention time: 11.23 min
Precursor m/z: 468.0193
Precursor type: [M-H]-
m/z	relative intensity
34.9686	742
41.9971	640
57.9746	102
65.997	179
72.9971	204
74.9887	153
82.0277	153
83.0111	999
159.9711	179
168.0447	102
190.9996	640
212.0138	281
216.0064	153
225.979	153
232.9679	230
233.0088	563
239.9964	102
247.9757	102
