Mass spectrum: Disperse brown 1; LC-ESI-QTOF; MS2; 60 V
Name: Disperse brown 1
Formula: C16H15Cl3N4O4
Exact mass: 432.0159
SMILES: C1=CC(=C(C=C1N(CCO)CCO)Cl)N=NC2=C(C=C(C=C2Cl)[N+](=O)[O-])Cl
InChI: InChI=1S/C16H15Cl3N4O4/c17-12-7-10(22(3-5-24)4-6-25)1-2-15(12)20-21-16-13(18)8-11(23(26)27)9-14(16)19/h1-2,7-9,24-25H,3-6H2
Instrument: TripleTOF 6600 SCIEX
Instrument type: LC-ESI-QTOF
Ms type: MS2
Ion mode: POSITIVE
Collision energy: 60
Fragmentation mode: CID
Ionization: ESI
Column name: Zorbax Eclipse Plus C18 2.1 mm x 150 mm, 3.5 um, Agilent
Retention time: 12.39 min
Precursor m/z: 433.0232
Precursor type: [M+H]+
m/z	relative intensity
45.0341	48
70.0658	21
90.0324	48
91.0523	42
96.9826	42
98.9884	64
104.0483	69
105.0485	37
106.9444	91
108.9837	37
109.9775	102
111.9934	37
114.0115	37
114.0563	42
116.0515	21
117.0445	32
117.0552	96
118.0516	96
118.0638	112
119.0619	59
123.9937	118
126.0096	230
127.0212	37
130.064	37
131.0612	123
132.0683	42
133.0754	32
135.0663	32
138.0103	48
139.0066	112
139.0187	166
140.0267	187
141.0195	32
142.9439	85
143.059	26
143.953	553
144.0684	32
144.945	32
145.076	96
149.0723	75
152.0134	96
152.0283	69
153.022	999
158.0377	80
159.9485	107
161.07	32
163.087	42
166.0424	96
167.0354	80
168.0406	37
170.0367	42
171.9586	91
175.0875	48
179.0359	48
183.0335	37
184.0511	91
185.0487	80
189.9444	456
197.047	467
217.9521	182
228.0639	26
247.9995	37
296.9711	32
310.9808	902
311.9895	59
312.9963	42
323.0079	48
324.9972	69
328.9472	32
342.9663	96
343.0086	32
356.9733	811
358.9901	37
370.9985	26
