Mass spectrum: Flunixin; LC-ESI-QTOF; MS2; 40 V
Name: Flunixin
Class: Pharmaceutical
Formula: C14H11F3N2O2
Exact mass: 296.0773
SMILES: CC1=C(C=CC=C1NC2=C(C=CC=N2)C(=O)O)C(F)(F)F
InChI: InChI=1S/C14H11F3N2O2/c1-8-10(14(15,16)17)5-2-6-11(8)19-12-9(13(20)21)4-3-7-18-12/h2-7H,1H3,(H,18,19)(H,20,21)
Instrument: TripleTOF 5600 SCIEX
Instrument type: LC-ESI-QTOF
Ms type: MS2
Ion mode: POSITIVE
Collision energy: 40
Fragmentation mode: CID
Ionization: ESI
Column name: Zorbax Eclipse Plus C18 2.1 mm x 150 mm, 3.5 um, Agilent
Retention time: 11.023 min
Precursor m/z: 297.0845
Precursor type: [M+H]+
m/z	relative intensity
78.0387	15
99.0261	10
109.0464	133
119.0301	31
139.0367	23
140.0493	22
147.0359	13
159.0424	98
164.0489	12
167.0616	21
180.0683	13
181.076	96
182.0845	46
184.0559	108
186.0585	30
191.0606	42
192.0688	27
195.0539	16
204.0598	10
209.0704	79
210.0769	219
211.0663	143
212.0499	13
214.0463	14
215.0395	11
216.0497	30
217.0559	29
219.0556	31
230.0624	15
231.0727	57
232.0548	11
234.0528	28
235.0472	26
236.0548	231
237.0394	30
239.0612	244
241.0573	49
244.0433	13
249.0629	29
250.0692	11
251.078	22
257.0509	24
258.0591	26
259.0678	383
261.0607	17
263.0414	38
264.0495	748
277.0679	84
278.0666	21
279.0735	999
297.0848	242
