Mass spectrum: (5-Methoxy-5-oxopentyl)triphenylphosphonium; LC-ESI-QTOF; MS2; 150 V
Name: (5-Methoxy-5-oxopentyl)triphenylphosphonium
Class: Industrial_process
Formula: [C24H26O2P]+
Exact mass: 377.1665
SMILES: COC(=O)CCCC[P+](C1=CC=CC=C1)(C2=CC=CC=C2)C3=CC=CC=C3
InChI: InChI=1S/C24H26O2P/c1-26-24(25)19-11-12-20-27(21-13-5-2-6-14-21,22-15-7-3-8-16-22)23-17-9-4-10-18-23/h2-10,13-18H,11-12,19-20H2,1H3/q+1
Instrument: TripleTOF 6600 SCIEX
Instrument type: LC-ESI-QTOF
Ms type: MS2
Ion mode: POSITIVE
Collision energy: 150
Fragmentation mode: CID
Ionization: ESI
Column name: Zorbax Eclipse Plus C18 2.1 mm x 150 mm, 3.5 um, Agilent
Retention time: 8.303 min
Precursor m/z: 377.1665
Precursor type: [M]+
m/z	relative intensity
63.0268	190
65.0426	90
79.9842	194
80.992	265
89.0409	286
102.0487	119
107.0071	843
113.0408	112
115.0568	408
126.0487	313
131.0065	115
133.0223	92
139.0568	331
150.0485	280
151.0566	566
152.0647	999
156.0149	114
157.0225	538
181.0223	488
183.0373	149
226.0784	91
257.0505	53
