Mass spectrum: N,N`-diphenyl-p-phenylenediamine; LC-ESI-QTOF; MS2; 60 V
Name: N,N`-diphenyl-p-phenylenediamine
Class: Industrial_process
Formula: C18H16N2
Exact mass: 260.1313
SMILES: N(c1ccccc1)c2ccc(Nc3ccccc3)cc2
InChI: InChI=1S/C18H16N2/c1-3-7-15(8-4-1)19-17-11-13-18(14-12-17)20-16-9-5-2-6-10-16/h1-14,19-20H
Instrument: TripleTOF 5600 SCIEX
Instrument type: LC-ESI-QTOF
Ms type: MS2
Ion mode: POSITIVE
Collision energy: 60
Fragmentation mode: CID
Ionization: ESI
Column name: Zorbax Eclipse Plus C18 2.1 mm x 150 mm, 3.5 um, Agilent
Retention time: 14.544 min
Precursor m/z: 261.1386
Precursor type: [M+H]+
m/z	relative intensity
53.0439	15
65.0426	22
66.0505	43
77.0412	84
78.0446	33
79.0455	14
80.0529	345
81.0595	61
90.037	19
91.0437	41
92.0508	16
93.0585	70
104.0527	9
105.0455	18
106.0533	29
107.062	999
115.0543	42
116.058	30
117.0579	32
118.0531	114
127.0541	39
128.0617	126
129.069	172
130.0701	126
131.0694	16
139.0533	59
140.0545	79
141.0538	22
141.0682	27
142.0671	22
143.0725	58
144.0782	32
154.0656	52
155.0694	62
156.0806	143
157.0856	71
166.0653	332
167.0721	350
168.0785	342
169.0762	87
181.0759	57
182.0835	168
183.0917	525
184.0995	640
193.0719	13
