Mass spectrum: Clindamycin sulfoxide; LC-ESI-QTOF; MS2; 150 V
Name: Clindamycin sulfoxide
Class: Pharmaceutical; Metabolite
Formula: C18H33ClN2O6S
Exact mass: 440.1748
SMILES: CCCC1C[C@@H](N(C1)C)C(=O)NC(C2[C@@H]([C@H](C([C@H](O2)S(=O)C)O)O)O)C(C)Cl
InChI: InChI=1S/C18H33ClN2O6S/c1-5-6-10-7-11(21(3)8-10)17(25)20-12(9(2)19)16-14(23)13(22)15(24)18(27-16)28(4)26/h9-16,18,22-24H,5-8H2,1-4H3,(H,20,25)/t9?,10?,11-,12?,13-,14-,15?,16?,18-,28?/m1/s1
Instrument: TripleTOF 5600 SCIEX
Instrument type: LC-ESI-QTOF
Ms type: MS2
Ion mode: POSITIVE
Collision energy: 150
Fragmentation mode: CID
Ionization: ESI
Column name: Zorbax Eclipse Plus C18 2.1 mm x 150 mm, 3.5 um, Agilent
Retention time: 5.586 min
Precursor m/z: 441.1821
Precursor type: [M+H]+
m/z	relative intensity
42.0421	237
55.0604	81
58.071	33
65.0457	33
67.0448	108
68.0529	394
69.0725	40
70.0676	299
80.052	47
81.0595	27
82.0673	999
83.0748	163
84.0834	54
96.0821	115
126.1276	251
