Mass spectrum: 2-(4-Chlorophenyl)benzimidazole; LC-ESI-QTOF; MS2; 80 V
Name: 2-(4-Chlorophenyl)benzimidazole
Class: Pharmaceutical
Formula: C13H9ClN2
Exact mass: 228.0454
SMILES: C1=CC=C2C(=C1)NC(=N2)C3=CC=C(C=C3)Cl
InChI: InChI=1S/C13H9ClN2/c14-10-7-5-9(6-8-10)13-15-11-3-1-2-4-12(11)16-13/h1-8H,(H,15,16)
Instrument: TripleTOF 5600 SCIEX
Instrument type: LC-ESI-QTOF
Ms type: MS2
Ion mode: POSITIVE
Collision energy: 80
Fragmentation mode: CID
Ionization: ESI
Column name: Zorbax Eclipse Plus C18 2.1 mm x 150 mm, 3.5 um, Agilent
Retention time: 6.754 min
Precursor m/z: 229.0527
Precursor type: [M+H]+
m/z	relative intensity
52.0281	114
74.0216	171
75.029	299
77.043	323
89.0427	889
90.0377	114
90.0495	218
91.0444	299
92.0524	366
104.0499	99
111.0008	128
113.0401	128
114.0432	66
115.056	171
118.0545	61
127.0561	66
138.0474	137
139.0553	999
140.051	713
164.0498	423
165.0572	204
166.0659	694
167.0715	228
168.0754	61
191.0603	209
192.0688	937
193.0767	394
