Mass spectrum: Phenylbutazone; LC-ESI-QTOF; MS2; 40 V
Name: Phenylbutazone
Class: Pharmaceutical
Formula: C19H20N2O2
Exact mass: 308.1525
SMILES: CCCCC1C(=O)N(N(C1=O)C2=CC=CC=C2)C3=CC=CC=C3
InChI: InChI=1S/C19H20N2O2/c1-2-3-14-17-18(22)20(15-10-6-4-7-11-15)21(19(17)23)16-12-8-5-9-13-16/h4-13,17H,2-3,14H2,1H3
Instrument: TripleTOF 5600 SCIEX
Instrument type: LC-ESI-QTOF
Ms type: MS2
Ion mode: POSITIVE
Collision energy: 40
Fragmentation mode: CID
Ionization: ESI
Column name: Zorbax Eclipse Plus C18 2.1 mm x 150 mm, 3.5 um, Agilent
Retention time: 13.103 min
Precursor m/z: 309.1598
Precursor type: [M+H]+
m/z	relative intensity
55.0274	35
67.0613	25
69.0766	63
71.0918	20
77.045	771
79.0603	33
91.0578	48
92.0542	999
93.0382	325
93.0613	168
94.0447	44
94.0691	526
95.0529	41
97.0692	45
104.0527	192
105.0359	62
105.0571	25
106.0314	10
106.0677	325
107.0507	14
115.0558	14
116.052	11
117.0599	60
118.0669	116
119.0754	26
120.0465	963
120.0825	16
125.0628	14
128.0515	67
130.0675	118
131.074	45
132.0463	379
132.0804	42
133.0536	328
134.0617	87
134.0981	11
143.0758	26
144.046	22
144.0816	31
145.0902	33
146.0619	292
146.0984	16
147.0701	13
148.0775	29
148.1141	65
156.0832	16
158.0618	10
159.0687	16
160.0634	87
160.1132	406
162.054	17
162.1291	211
166.066	70
167.0742	33
168.0806	39
172.1125	51
173.0852	20
174.0564	112
180.0805	13
181.0732	22
182.0859	156
183.0906	29
184.0734	14
186.0943	20
188.1082	466
190.1231	333
193.0773	10
194.0617	60
200.1065	33
206.0836	22
206.1134	13
207.0904	67
208.1018	50
211.0864	589
216.1013	75
219.0908	16
221.1036	13
224.098	11
233.1054	13
253.0962	67
263.1539	48
265.1725	10
309.1612	273
