Mass spectrum: N,N-didesmethyl-venlafaxine; LC-ESI-QTOF; MS2; 50 V
Name: N,N-didesmethyl-venlafaxine
Class: Pharmaceutical; Transformation_product
Formula: C15H23NO2
Exact mass: 249.1729
SMILES: COC1=CC=C(C=C1)C(CN)C2(CCCCC2)O
InChI: InChI=1S/C15H23NO2/c1-18-13-7-5-12(6-8-13)14(11-16)15(17)9-3-2-4-10-15/h5-8,14,17H,2-4,9-11,16H2,1H3
Instrument: TripleTOF 5600 SCIEX
Instrument type: LC-ESI-QTOF
Ms type: MS2
Ion mode: POSITIVE
Collision energy: 50
Fragmentation mode: CID
Ionization: ESI
Column name: Zorbax Eclipse Plus C18 2.1 mm x 150 mm, 3.5 um, Agilent
Retention time: 6.316 min
Precursor m/z: 250.1802
Precursor type: [M+H]+
m/z	relative intensity
65.0426	32
77.0406	154
77.0752	14
78.0491	61
79.0567	86
81.0706	61
91.0552	614
91.0966	14
93.0703	28
103.0543	28
104.0598	25
105.0711	25
106.0404	17
107.0483	61
115.053	150
116.0614	39
117.0685	57
119.0836	39
121.0642	999
127.0523	35
128.0615	46
129.0705	43
131.0497	53
132.0564	68
135.0795	25
141.0668	32
144.0551	53
145.0627	25
147.0802	111
153.0712	17
158.0715	93
159.0795	57
173.0951	39
