Mass spectrum: Omethoate; LC-ESI-QTOF; MS2; 20 V
Name: Omethoate
Class: Insecticide; Transformation_product
Formula: C5H12NO4PS
Exact mass: 213.0225
SMILES: CNC(=O)CSP(=O)(OC)OC
InChI: InChI=1S/C5H12NO4PS/c1-6-5(7)4-12-11(8,9-2)10-3/h4H2,1-3H3,(H,6,7)
Instrument: TripleTOF 6600 SCIEX
Instrument type: LC-ESI-QTOF
Ms type: MS2
Ion mode: POSITIVE
Collision energy: 20
Fragmentation mode: CID
Ionization: ESI
Column name: Zorbax Eclipse Plus C18 2.1 mm x 150 mm, 3.5 um, Agilent
Retention time: 4.837 min
Precursor m/z: 214.0298
Precursor type: [M+H]+
m/z	relative intensity
61.0094	65
72.043	13
104.0147	27
109.0034	98
124.9808	658
154.9915	999
182.9864	553
196.0171	172
214.0281	55
