Mass spectrum: Leucomalachite green; LC-ESI-QTOF; MS2; 140 V
Name: Leucomalachite green
Class: Metabolite
Formula: C23H26N2
Exact mass: 330.2096
SMILES: CN(C)C1=CC=C(C=C1)C(C2=CC=CC=C2)C3=CC=C(C=C3)N(C)C
InChI: InChI=1S/C23H26N2/c1-24(2)21-14-10-19(11-15-21)23(18-8-6-5-7-9-18)20-12-16-22(17-13-20)25(3)4/h5-17,23H,1-4H3
Instrument: TripleTOF 6600 SCIEX
Instrument type: LC-ESI-QTOF
Ms type: MS2
Ion mode: POSITIVE
Collision energy: 140
Fragmentation mode: CID
Ionization: ESI
Column name: Zorbax Eclipse Plus C18 2.1 mm x 150 mm, 3.5 um, Agilent
Retention time: 9.974 min
Precursor m/z: 331.2169
Precursor type: [M+H]+
m/z	relative intensity
39.0221	10
50.0146	21
51.0221	36
62.0145	12
63.022	40
65.0376	21
74.0139	27
75.0213	21
76.0296	25
77.037	85
78.0446	17
86.0129	12
87.0217	23
89.0369	55
91.0527	12
98.014	17
99.0219	17
101.036	19
102.045	64
113.0374	32
115.0531	126
125.0365	25
126.045	128
127.0531	106
128.0609	42
137.0369	10
139.053	132
140.0488	34
149.0365	14
150.0445	162
151.0525	329
152.0609	999
153.0687	132
154.0627	23
155.0607	12
162.0445	14
163.053	278
164.0606	130
165.0686	310
166.0677	38
176.0634	12
177.0545	25
178.0635	42
179.068	51
180.0792	29
187.0533	23
189.0699	21
190.0654	12
191.0728	17
193.0895	10
194.0948	17
200.061	27
201.0686	23
202.0752	25
205.0751	12
207.087	12
212.0581	14
213.0675	32
215.0854	17
224.0624	47
225.0665	40
226.0762	81
227.07	10
228.0922	14
237.0693	51
239.0857	38
251.0751	17
