Mass spectrum: Dimoxystrobin; LC-ESI-QTOF; MS2; 90 V
Name: Dimoxystrobin
Class: Fungicide
Formula: C19H22N2O3
Exact mass: 326.163
SMILES: CC1=CC(=C(C=C1)C)OCC2=CC=CC=C2C(=NOC)C(=O)NC
InChI: InChI=1S/C19H22N2O3/c1-13-9-10-14(2)17(11-13)24-12-15-7-5-6-8-16(15)18(21-23-4)19(22)20-3/h5-11H,12H2,1-4H3,(H,20,22)
Instrument: TripleTOF 6600 SCIEX
Instrument type: LC-ESI-QTOF
Ms type: MS2
Ion mode: POSITIVE
Collision energy: 90
Fragmentation mode: CID
Ionization: ESI
Column name: Zorbax Eclipse Plus C18 2.1 mm x 150 mm, 3.5 um, Agilent
Retention time: 13.184 min
Precursor m/z: 327.1703
Precursor type: [M+H]+
m/z	relative intensity
39.0237	38
58.0299	389
61.0075	18
62.016	48
63.0239	360
64.0189	32
65.0392	47
77.0392	29
88.0182	15
89.0395	999
90.0356	64
90.0454	79
91.0552	19
104.0491	12
116.0505	175
117.0575	32
128.0503	14
151.055	13
152.063	24
165.0706	31
176.0612	13
178.0774	21
180.0815	12
