Mass spectrum: 2-Hydroxyestrone; LC-ESI-QTOF; MS2; 40 V
Name: 2-Hydroxyestrone
Class: Pharmaceutical; Metabolite
Formula: C18H22O3
Exact mass: 286.1569
SMILES: C[C@]12CC[C@H]3[C@@H](CCc4cc(O)c(O)cc34)[C@@H]1CCC2=O
InChI: InChI=1S/C18H22O3/c1-18-7-6-11-12(14(18)4-5-17(18)21)3-2-10-8-15(19)16(20)9-13(10)11/h8-9,11-12,14,19-20H,2-7H2,1H3/t11-,12+,14-,18-/m0/s1
Instrument: TripleTOF 5600 SCIEX
Instrument type: LC-ESI-QTOF
Ms type: MS2
Ion mode: POSITIVE
Collision energy: 40
Fragmentation mode: CID
Ionization: ESI
Column name: Zorbax Eclipse Plus C18 2.1 mm x 150 mm, 3.5 um, Agilent
Retention time: 9.978 min
Precursor m/z: 287.1642
Precursor type: [M+H]+
m/z	relative intensity
81.0719	59
91.0552	49
93.0714	79
103.055	199
107.0825	49
113.0587	49
115.052	49
123.0434	309
127.0522	79
128.0619	129
129.0687	299
131.0478	609
137.0575	49
141.0687	49
143.0899	49
147.0418	69
149.0588	729
152.0577	59
153.0675	69
155.0476	59
155.0857	59
157.0635	289
160.0496	69
161.0588	219
167.0852	159
173.0589	979
175.0744	999
181.0631	99
181.0995	49
183.0799	59
189.0922	49
195.0777	189
198.0666	79
199.0769	129
201.0892	49
209.0955	119
211.1111	49
213.0902	329
214.099	209
227.1048	119
228.1127	49
229.1194	79
241.1292	49
269.1534	89
