Mass spectrum: Medroxyprogesterone; LC-ESI-QTOF; MS2; 80 V
Name: Medroxyprogesterone
Class: Pharmaceutical
Formula: C22H32O3
Exact mass: 344.2351
SMILES: CC1CC2C(CCC3(C2CCC3(C(=O)C)O)C)C4(C1=CC(=O)CC4)C
InChI: InChI=1S/C22H32O3/c1-13-11-16-17(20(3)8-5-15(24)12-19(13)20)6-9-21(4)18(16)7-10-22(21,25)14(2)23/h12-13,16-18,25H,5-11H2,1-4H3
Instrument: TripleTOF 6600 SCIEX
Instrument type: LC-ESI-QTOF
Ms type: MS2
Ion mode: POSITIVE
Collision energy: 80
Fragmentation mode: CID
Ionization: ESI
Column name: Zorbax Eclipse Plus C18 2.1 mm x 150 mm, 3.5 um, Agilent
Retention time: 12.524 min
Precursor m/z: 345.2424
Precursor type: [M+H]+
m/z	relative intensity
37.0076	13
38.0153	16
39.023	116
41.0388	215
43.018	471
43.0544	16
45.0335	26
50.0146	39
51.0231	112
53.0382	99
55.0178	172
55.0541	361
57.0333	29
65.0388	165
66.046	19
67.0542	650
69.0336	36
69.0698	102
77.0388	999
78.0463	23
79.0538	597
80.0615	36
81.0336	46
81.0696	119
82.0403	29
83.0491	136
91.0542	826
93.0694	258
94.0401	39
95.0483	116
95.085	219
97.0646	487
103.0538	152
104.0623	16
105.0455	36
105.0697	454
107.0491	132
107.085	36
108.0567	119
109.0645	39
111.0782	13
115.0536	215
116.0616	63
117.0691	159
119.0853	132
121.0648	36
123.0804	497
127.0533	63
128.0618	258
129.0697	219
130.0772	63
131.0479	16
131.0847	129
133.1016	29
135.0777	13
137.0964	29
141.0697	219
142.0772	126
143.0844	69
144.0926	29
145.1014	43
147.0822	19
147.117	16
152.0615	46
153.0679	102
154.0777	43
155.0604	13
155.0848	116
156.0914	53
157.1014	39
159.0795	19
159.1136	23
165.0694	92
166.0779	46
167.0855	82
168.0931	23
169.1009	39
173.0942	19
178.0775	46
179.0847	49
180.0923	19
181.1008	43
183.1157	19
192.0937	19
193.1019	23
195.1174	26
213.1272	19
