Mass spectrum: Piroxicam; LC-ESI-QTOF; MS2; 70 V
Name: Piroxicam
Class: Pharmaceutical
Formula: C15H13N3O4S
Exact mass: 331.0627
SMILES: CN1C(=C(C2=CC=CC=C2S1(=O)=O)O)C(=O)NC3=CC=CC=N3
InChI: InChI=1S/C15H13N3O4S/c1-18-13(15(20)17-12-8-4-5-9-16-12)14(19)10-6-2-3-7-11(10)23(18,21)22/h2-9,19H,1H3,(H,16,17,20)
Instrument: TripleTOF 5600 SCIEX
Instrument type: LC-ESI-QTOF
Ms type: MS2
Ion mode: POSITIVE
Collision energy: 70
Fragmentation mode: CID
Ionization: ESI
Column name: Zorbax Eclipse Plus C18 2.1 mm x 150 mm, 3.5 um, Agilent
Retention time: 9.527 min
Precursor m/z: 332.07
Precursor type: [M+H]+
m/z	relative intensity
65.0449	9
76.0372	14
77.0435	38
78.0399	999
91.0587	14
94.0577	19
95.0648	836
97.0136	26
104.0291	34
105.0392	17
109.0143	30
121.0426	297
125.0087	12
137.0067	11
153.0037	15
