Mass spectrum: Phenacetin; LC-ESI-QTOF; MS2; 60 V
Name: Phenacetin
Class: Pharmaceutical
Formula: C10H13NO2
Exact mass: 179.0946
SMILES: CCOC1=CC=C(C=C1)NC(=O)C
InChI: InChI=1S/C10H13NO2/c1-3-13-10-6-4-9(5-7-10)11-8(2)12/h4-7H,3H2,1-2H3,(H,11,12)
Instrument: TripleTOF 5600 SCIEX
Instrument type: LC-ESI-QTOF
Ms type: MS2
Ion mode: POSITIVE
Collision energy: 60
Fragmentation mode: CID
Ionization: ESI
Column name: Zorbax Eclipse Plus C18 2.1 mm x 150 mm, 3.5 um, Agilent
Retention time: 7.622 min
Precursor m/z: 180.1019
Precursor type: [M+H]+
m/z	relative intensity
37.0072	29
38.0152	26
39.023	218
42.034	15
43.0181	233
53.0386	18
54.0337	10
55.0539	14
65.0388	999
66.0465	41
67.0413	69
77.0385	16
80.0498	186
81.0577	29
82.0658	24
92.0495	54
93.0572	172
94.0402	11
108.044	25
109.0519	108
110.0599	28
