Mass spectrum: 1-(o-Tolyl)-biguanide; LC-ESI-QTOF; MS2; 100 V
Name: 1-(o-Tolyl)-biguanide
Class: Industrial_process
Formula: C9H13N5
Exact mass: 191.1171
SMILES: Cc1ccccc1N=C(N)N=C(N)N
InChI: InChI=1S/C9H13N5/c1-6-4-2-3-5-7(6)13-9(12)14-8(10)11/h2-5H,1H3,(H6,10,11,12,13,14)
Instrument: TripleTOF 5600 SCIEX
Instrument type: LC-ESI-QTOF
Ms type: MS2
Ion mode: POSITIVE
Collision energy: 100
Fragmentation mode: CID
Ionization: ESI
Column name: Zorbax Eclipse Plus C18 2.1 mm x 150 mm, 3.5 um, Agilent
Retention time: 4.675 min
Precursor m/z: 192.1244
Precursor type: [M+H]+
m/z	relative intensity
42.0301	37
43.0387	999
52.0236	10
53.0449	14
60.0605	65
64.0335	13
65.0433	480
66.0501	55
67.0451	13
68.0283	177
74.0185	12
75.0252	14
77.0413	186
78.0356	16
79.0566	14
89.0397	121
90.0381	17
91.0548	64
92.0503	34
93.0583	41
104.0488	23
106.0654	13
