Mass spectrum: Anagrelide; LC-ESI-QTOF; MS2; 130 V
Name: Anagrelide
Class: Pharmaceutical
Formula: C10H7Cl2N3O
Exact mass: 254.9966
SMILES: c1cc(c(c2c1NC3=NC(=O)CN3C2)Cl)Cl
InChI: InChI=1S/C10H7Cl2N3O/c11-6-1-2-7-5(9(6)12)3-15-4-8(16)14-10(15)13-7/h1-2H,3-4H2,(H,13,14,16)
Instrument: TripleTOF 5600 SCIEX
Instrument type: LC-ESI-QTOF
Ms type: MS2
Ion mode: POSITIVE
Collision energy: 130
Fragmentation mode: CID
Ionization: ESI
Column name: Zorbax Eclipse Plus C18 2.1 mm x 150 mm, 3.5 um, Agilent
Retention time: 7.666 min
Precursor m/z: 256.0039
Precursor type: [M+H]+
m/z	relative intensity
51.0289	57
61.9849	74
71.9816	34
72.0037	45
72.9892	45
73.0103	252
73.0297	34
74.0186	999
74.0422	40
75.0135	114
75.0246	298
75.0542	22
76.0192	160
76.0422	22
83.9766	34
84.986	28
96.9849	40
99.0114	734
100.0186	143
102.0351	51
106.9464	28
