Mass spectrum: Octrizole; LC-ESI-QTOF; MS2; 40 V
Name: Octrizole
Class: Industrial_process
Formula: C20H25N3O
Exact mass: 323.1998
SMILES: CC(C)(C)CC(C)(C)C1=CC(=C(C=C1)O)N2N=C3C=CC=CC3=N2
InChI: InChI=1S/C20H25N3O/c1-19(2,3)13-20(4,5)14-10-11-18(24)17(12-14)23-21-15-8-6-7-9-16(15)22-23/h6-12,24H,13H2,1-5H3
Instrument: TripleTOF 5600 SCIEX
Instrument type: LC-ESI-QTOF
Ms type: MS2
Ion mode: POSITIVE
Collision energy: 40
Fragmentation mode: CID
Ionization: ESI
Column name: Zorbax Eclipse Plus C18 2.1 mm x 150 mm, 3.5 um, Agilent
Retention time: 19.562 min
Precursor m/z: 324.207
Precursor type: [M+H]+
m/z	relative intensity
65.0451	22
91.0604	11
92.0542	131
93.0409	13
105.0723	17
107.0565	13
119.0515	18
120.058	49
133.0672	30
134.0745	56
135.0825	11
156.0823	13
166.0658	24
167.0755	19
180.0836	10
182.0956	10
183.0702	26
184.0822	14
196.0763	15
208.1131	17
209.0889	17
210.0906	85
211.0742	10
212.0817	382
224.1084	68
225.1137	10
238.0979	57
252.1128	81
253.1222	76
324.2068	999
