Mass spectrum: Citalopram-N-oxide; LC-ESI-QTOF; MS2; 90 V
Name: Citalopram-N-oxide
Class: Metabolite; Pharmaceutical; Transformation_product
Formula: C20H21FN2O2
Exact mass: 340.1587
SMILES: C[N+](C)(CCCC1(C2=C(CO1)C=C(C=C2)C#N)C3=CC=C(C=C3)F)[O-]
InChI: InChI=1S/C20H21FN2O2/c1-23(2,24)11-3-10-20(17-5-7-18(21)8-6-17)19-9-4-15(13-22)12-16(19)14-25-20/h4-9,12H,3,10-11,14H2,1-2H3
Instrument: TripleTOF 5600 SCIEX
Instrument type: LC-ESI-QTOF
Ms type: MS2
Ion mode: POSITIVE
Collision energy: 90
Fragmentation mode: CID
Ionization: ESI
Column name: Zorbax Eclipse Plus C18 2.1 mm x 150 mm, 3.5 um, Agilent
Retention time: 7.958 min
Precursor m/z: 341.166
Precursor type: [M+H]+
m/z	relative intensity
57.0191	69
58.0694	138
59.0342	39
65.0416	14
74.0185	20
75.0265	62
77.0413	58
83.0321	682
87.0266	11
89.0406	392
90.0359	23
95.0306	70
99.0231	14
101.0393	35
102.0469	12
103.0547	17
107.0289	10
109.0454	970
113.0389	120
114.0343	20
115.0542	78
116.0496	196
120.0366	15
121.0429	11
123.026	22
125.0386	23
126.048	15
127.0539	68
128.0619	61
133.0449	96
139.0541	109
140.0495	447
145.044	12
146.0529	31
149.0388	20
150.0476	26
151.0509	12
157.0447	27
158.0391	14
161.037	10
162.0467	11
163.0545	97
164.0482	51
166.0629	18
167.0317	11
168.0374	35
169.0446	41
170.0526	53
173.0398	25
174.0462	62
175.054	68
176.0614	29
177.0574	31
181.0453	109
182.0523	48
183.0609	93
186.0476	13
187.0549	93
188.0496	110
189.0627	97
190.0652	186
192.0376	31
193.045	71
194.0521	158
195.0488	59
196.0684	21
198.0474	34
199.053	193
200.0591	269
201.0579	101
202.0676	24
203.0747	12
205.0455	56
206.0506	61
207.0603	144
208.056	445
211.0569	13
212.0523	46
213.0686	172
214.0652	136
215.0851	27
217.0435	24
218.0532	288
219.0589	454
220.067	267
221.064	200
224.054	20
225.0576	146
226.0657	252
227.0736	214
228.0795	11
231.0611	63
232.0565	241
233.0754	157
234.0714	42
238.0645	72
239.0725	19
240.0809	186
243.0493	32
244.0598	145
245.0639	999
246.0706	134
256.0586	11
258.0724	106
259.0814	37
