Mass spectrum: Fluconazole; LC-ESI-QTOF; MS2; 50 V
Name: Fluconazole
Class: Pharmaceutical
Formula: C13H12F2N6O
Exact mass: 306.1041
SMILES: OC(Cn1cncn1)(Cn2cncn2)c3ccc(F)cc3F
InChI: InChI=1S/C13H12F2N6O/c14-10-1-2-11(12(15)3-10)13(22,4-20-8-16-6-18-20)5-21-9-17-7-19-21/h1-3,6-9,22H,4-5H2
Instrument: TripleTOF 5600 SCIEX
Instrument type: LC-ESI-QTOF
Ms type: MS2
Ion mode: POSITIVE
Collision energy: 50
Fragmentation mode: CID
Ionization: ESI
Column name: Zorbax Eclipse Plus C18 2.1 mm x 150 mm, 3.5 um, Agilent
Retention time: 6.343 min
Precursor m/z: 307.1113
Precursor type: [M+H]+
m/z	relative intensity
55.0241	29
55.0339	21
70.0439	598
75.0255	58
82.0431	45
83.0516	18
95.0309	13
99.0238	42
101.0204	10
101.0393	515
107.03	13
113.0212	21
115.035	16
119.0294	178
121.0454	697
121.0723	10
125.0402	13
126.0338	13
127.0356	996
129.0436	112
139.0361	999
139.0615	18
141.0143	42
141.051	438
145.0453	61
146.0405	45
147.0355	112
149.04	45
151.0361	918
153.0453	32
164.0443	29
166.0469	77
169.0469	339
172.0563	13
173.052	130
177.0469	16
193.0598	34
200.0615	112
220.0685	133
238.0799	13
