Mass spectrum: Tolcapone; LC-ESI-QTOF; MS2; 40 V
Name: Tolcapone
Class: Pharmaceutical
Formula: C14H11NO5
Exact mass: 273.0637
SMILES: CC1=CC=C(C=C1)C(=O)C2=CC(=C(C(=C2)O)O)[N+](=O)[O-]
InChI: InChI=1S/C14H11NO5/c1-8-2-4-9(5-3-8)13(17)10-6-11(15(19)20)14(18)12(16)7-10/h2-7,16,18H,1H3
Instrument: TripleTOF 5600 SCIEX
Instrument type: LC-ESI-QTOF
Ms type: MS2
Ion mode: NEGATIVE
Collision energy: 40
Fragmentation mode: CID
Ionization: ESI
Column name: Zorbax Eclipse Plus C18 2.1 mm x 150 mm, 3.5 um, Agilent
Retention time: 11.114 min
Precursor m/z: 272.0564
Precursor type: [M-H]-
m/z	relative intensity
115.0556	134
141.0722	214
153.0591	56
159.0455	100
169.0668	379
181.0665	704
182.0622	553
196.0549	56
197.062	176
198.0582	52
210.0565	78
214.0644	110
224.0482	170
225.0564	653
241.0508	174
242.0587	670
255.0539	575
272.0567	999
