Mass spectrum: 2-(Methylthio)benzothiazole; LC-ESI-QTOF; MS2; 70 V
Name: 2-(Methylthio)benzothiazole
Class: Industrial_process; Fungicide
Formula: C8H7NS2
Exact mass: 181.002
SMILES: CSc1sc2ccccc2n1
InChI: InChI=1S/C8H7NS2/c1-10-8-9-6-4-2-3-5-7(6)11-8/h2-5H,1H3
Instrument: TripleTOF 5600 SCIEX
Instrument type: LC-ESI-QTOF
Ms type: MS2
Ion mode: POSITIVE
Collision energy: 70
Fragmentation mode: CID
Ionization: ESI
Column name: Zorbax Eclipse Plus C18 2.1 mm x 150 mm, 3.5 um, Agilent
Retention time: 12.209 min
Precursor m/z: 182.0093
Precursor type: [M+H]+
m/z	relative intensity
63.948	146
64.0347	97
65.0423	999
68.9817	974
69.9893	146
76.0345	146
77.0407	316
81.9896	268
94.996	341
96.0034	511
108.0018	316
109.0115	365
122.006	170
123.0154	341
135.0119	243
