Mass spectrum: 6-Methylthioinosin; LC-ESI-QTOF; MS2; 70 V
Name: 6-Methylthioinosin
Class: Pharmaceutical
Formula: C11H14N4O4S
Exact mass: 298.0736
SMILES: CSc1ncnc2n(cnc12)C3OC(CO)C(O)C3O
InChI: InChI=1S/C11H14N4O4S/c1-20-10-6-9(12-3-13-10)15(4-14-6)11-8(18)7(17)5(2-16)19-11/h3-5,7-8,11,16-18H,2H2,1H3
Instrument: TripleTOF 5600 SCIEX
Instrument type: LC-ESI-QTOF
Ms type: MS2
Ion mode: POSITIVE
Collision energy: 70
Fragmentation mode: CID
Ionization: ESI
Column name: Zorbax Eclipse Plus C18 2.1 mm x 150 mm, 3.5 um, Agilent
Retention time: 5.666 min
Precursor m/z: 299.0809
Precursor type: [M+H]+
m/z	relative intensity
43.0255	16
55.0218	14
57.0377	33
65.018	40
67.0327	64
69.0367	14
70.0449	18
70.9854	49
71.0149	35
71.9946	28
73.0311	9
79.0302	18
85.0323	23
92.0258	220
94.0405	52
97.9941	54
98.0103	14
99.0012	83
106.04	132
107.0482	42
113.0152	14
119.0354	999
119.0746	11
120.044	16
121.0502	80
125.0047	522
126.0122	405
133.0511	87
134.0593	287
140.0292	52
152.0155	908
167.0394	735
