Mass spectrum: 5-Aminofluorescein; LC-ESI-QTOF; MS2; 100 V
Name: 5-Aminofluorescein
Class: Pharmaceutical
Formula: C20H13NO5
Exact mass: 347.0794
SMILES: Nc1ccc2c(c1)C(=O)OC23c4ccc(O)cc4Oc5cc(O)ccc35
InChI: InChI=1S/C20H13NO5/c21-10-1-4-14-13(7-10)19(24)26-20(14)15-5-2-11(22)8-17(15)25-18-9-12(23)3-6-16(18)20/h1-9,22-23H,21H2
Instrument: TripleTOF 5600 SCIEX
Instrument type: LC-ESI-QTOF
Ms type: MS2
Ion mode: POSITIVE
Collision energy: 100
Fragmentation mode: CID
Ionization: ESI
Column name: Zorbax Eclipse Plus C18 2.1 mm x 150 mm, 3.5 um, Agilent
Retention time: 8.159 min
Precursor m/z: 348.0866
Precursor type: [M+H]+
m/z	relative intensity
65.0426	50
69.0001	23
75.0253	15
77.042	73
81.0369	15
89.0416	27
91.0556	23
101.0384	31
102.0473	23
115.0544	124
116.0628	27
125.0391	19
126.0459	77
127.0534	147
128.0604	66
130.0644	15
138.0451	19
139.0523	77
140.051	42
149.0385	19
150.047	97
151.0536	225
151.0752	15
152.0612	244
153.0675	38
154.066	34
155.0486	42
162.045	19
163.0542	213
164.061	81
165.0707	225
166.0634	23
173.0401	19
174.045	81
175.0535	128
176.0611	404
177.0649	112
178.078	58
181.0666	23
187.0555	233
188.061	209
189.0693	983
190.0673	171
190.0891	19
191.0726	77
191.0882	19
192.0781	23
198.048	27
199.0526	136
200.0615	999
201.0699	750
202.0771	796
203.0745	116
204.0806	132
205.0657	97
211.0534	112
212.051	19
212.0619	42
213.0697	244
213.0925	19
214.0665	159
215.0744	128
216.0797	124
216.1135	23
217.0627	50
217.0861	159
218.0703	69
219.0677	19
220.0757	19
221.0594	23
225.0556	15
226.0649	58
227.0719	120
228.0814	101
229.0645	229
230.0708	46
231.0803	23
238.0637	19
242.0734	23
243.0687	42
244.0743	89
245.0618	62
256.0755	31
257.0634	19
258.0669	93
259.0634	15
269.0573	27
272.0684	31
273.0783	27
274.0568	23
