Mass spectrum: Methyltriphenylphosphonium; LC-ESI-QTOF; MS2; 110 V
Name: Methyltriphenylphosphonium
Class: Pharmaceutical; Industrial_process
Formula: [C19H18P]+
Exact mass: 277.1141
SMILES: C[P+](c1ccccc1)(c2ccccc2)c3ccccc3
InChI: InChI=1S/C19H18P/c1-20(17-11-5-2-6-12-17,18-13-7-3-8-14-18)19-15-9-4-10-16-19/h2-16H,1H3/q+1
Instrument: TripleTOF 5600 SCIEX
Instrument type: LC-ESI-QTOF
Ms type: MS2
Ion mode: POSITIVE
Collision energy: 110
Fragmentation mode: CID
Ionization: ESI
Column name: Zorbax Eclipse Plus C18 2.1 mm x 150 mm, 3.5 um, Agilent
Retention time: 7.192 min
Precursor m/z: 277.1141
Precursor type: [M]+
m/z	relative intensity
56.9936	55
65.0421	66
77.0405	93
79.9835	82
80.9908	142
89.0392	175
102.0466	91
107.0043	659
113.0374	62
115.0545	363
126.0466	194
131.0042	70
133.0205	91
139.0543	291
150.0464	129
151.0541	421
152.0622	999
156.014	63
157.0201	441
181.0204	345
183.0352	196
