Mass spectrum: Penconazol; LC-ESI-QTOF; MS2; 130 V
Name: Penconazol
Class: Fungicide
Formula: C13H15Cl2N3
Exact mass: 283.0643
SMILES: CCCC(CN1C=NC=N1)C2=C(C=C(C=C2)Cl)Cl
InChI: InChI=1S/C13H15Cl2N3/c1-2-3-10(7-18-9-16-8-17-18)12-5-4-11(14)6-13(12)15/h4-6,8-10H,2-3,7H2,1H3
Instrument: TripleTOF 6600 SCIEX
Instrument type: LC-ESI-QTOF
Ms type: MS2
Ion mode: POSITIVE
Collision energy: 130
Fragmentation mode: CID
Ionization: ESI
Column name: Zorbax Eclipse Plus C18 2.1 mm x 150 mm, 3.5 um, Agilent
Retention time: 12.845 min
Precursor m/z: 284.0716
Precursor type: [M+H]+
m/z	relative intensity
35.9992	13
37.0075	62
38.0153	64
39.023	111
42.0213	36
43.0294	243
46.9683	153
48.9841	108
49.0071	36
50.0151	165
51.023	110
52.0314	11
59.9993	50
61.0076	348
62.0154	817
63.0233	999
70.04	163
71.9764	27
72.9843	793
73.0061	15
74.0153	423
75.023	219
76.0309	69
77.0383	31
82.945	92
83.9758	14
84.9831	14
85.0073	35
86.0147	85
87.0228	82
88.0309	58
89.0389	679
95.9755	12
96.9837	116
98.0149	28
98.999	38
102.0466	32
106.9446	26
115.0531	14
122.999	29
132.9603	11
