Mass spectrum: Sulpiride; LC-ESI-QTOF; MS2; 40 V
Name: Sulpiride
Class: Pharmaceutical
Formula: C15H23N3O4S
Exact mass: 341.1409
SMILES: CCN1CCCC1CNC(=O)c2cc(ccc2OC)[S](N)(=O)=O
InChI: InChI=1S/C15H23N3O4S/c1-3-18-8-4-5-11(18)10-17-15(19)13-9-12(23(16,20)21)6-7-14(13)22-2/h6-7,9,11H,3-5,8,10H2,1-2H3,(H,17,19)(H2,16,20,21)
Instrument: TripleTOF 5600 SCIEX
Instrument type: LC-ESI-QTOF
Ms type: MS2
Ion mode: NEGATIVE
Collision energy: 40
Fragmentation mode: CID
Ionization: ESI
Column name: Zorbax Eclipse Plus C18 2.1 mm x 150 mm, 3.5 um, Agilent
Retention time: 4.958 min
Precursor m/z: 340.1337
Precursor type: [M-H]-
m/z	relative intensity
79.981	328
156.0124	999
186.0226	74
261.1498	74
340.1352	186
