Mass spectrum: Prednisolone; LC-ESI-QTOF; MS2; 40 V
Name: Prednisolone
Class: Pharmaceutical
Formula: C21H28O5
Exact mass: 360.1937
SMILES: C[C@]12C[C@H](O)[C@H]3[C@@H](CCC4=CC(=O)C=C[C@]34C)[C@@H]1CC[C@]2(O)C(=O)CO
InChI: InChI=1S/C21H28O5/c1-19-7-5-13(23)9-12(19)3-4-14-15-6-8-21(26,17(25)11-22)20(15,2)10-16(24)18(14)19/h5,7,9,14-16,18,22,24,26H,3-4,6,8,10-11H2,1-2H3/t14-,15-,16-,18+,19-,20-,21-/m0/s1
Instrument: TripleTOF 5600 SCIEX
Instrument type: LC-ESI-QTOF
Ms type: MS2
Ion mode: NEGATIVE
Collision energy: 40
Fragmentation mode: CID
Ionization: ESI
Column name: Zorbax Eclipse Plus C18 2.1 mm x 150 mm, 3.5 um, Agilent
Retention time: 8.432 min
Precursor m/z: 359.1483
Precursor type: [M-H]-
m/z	relative intensity
120.0548	93
121.0658	107
130.0483	111
133.0668	183
135.0786	134
159.0763	122
187.0714	83
201.0859	155
227.1018	82
239.0993	94
241.1228	243
243.1659	141
253.1316	116
255.1365	214
256.1469	154
271.1722	299
281.115	163
282.1261	733
297.1477	846
298.1176	302
313.1467	194
315.1617	561
325.1393	88
359.1476	999
