Mass spectrum: Methadone; LC-ESI-QTOF; MS2; 120 V
Name: Methadone
Class: Pharmaceutical
Formula: C21H27NO
Exact mass: 309.2093
SMILES: CCC(=O)C(CC(C)N(C)C)(C1=CC=CC=C1)C2=CC=CC=C2
InChI: InChI=1S/C21H27NO/c1-5-20(23)21(16-17(2)22(3)4,18-12-8-6-9-13-18)19-14-10-7-11-15-19/h6-15,17H,5,16H2,1-4H3
Instrument: TripleTOF 6600 SCIEX
Instrument type: LC-ESI-QTOF
Ms type: MS2
Ion mode: POSITIVE
Collision energy: 120
Fragmentation mode: CID
Ionization: ESI
Column name: Zorbax Eclipse Plus C18 2.1 mm x 150 mm, 3.5 um, Agilent
Retention time: 8.79 min
Precursor m/z: 310.2166
Precursor type: [M+H]+
m/z	relative intensity
37.007	40
38.0145	31
39.0228	193
41.0385	26
42.0339	36
43.0171	12
44.0491	16
49.0065	26
50.0149	251
51.0228	999
61.0064	27
62.0143	50
63.0223	122
65.0382	378
72.0793	11
74.014	55
75.0218	42
76.0297	36
77.0382	906
78.0453	37
79.0533	12
86.0132	15
87.0223	32
89.0378	178
91.0534	291
98.0142	17
102.0454	105
103.0533	16
105.0441	22
113.0383	37
115.0535	504
125.0371	10
126.0454	87
127.0526	77
128.0613	155
137.0386	12
138.0442	11
139.053	208
149.0384	14
150.0456	115
151.053	143
152.0612	201
162.0442	31
163.0534	344
164.0607	249
165.0692	363
174.0458	22
175.053	31
176.0613	144
177.0685	24
178.0764	58
187.0523	67
188.0597	34
189.0688	137
198.047	11
199.0555	31
200.0619	314
201.0693	155
202.0774	199
213.07	109
214.0765	12
215.0844	79
