Mass spectrum: Acebutolol; LC-ESI-QTOF; MS2; 130 V
Name: Acebutolol
Class: Pharmaceutical
Formula: C18H28N2O4
Exact mass: 336.2049
InChI: InChI=1S/C18H28N2O4/c1-5-6-18(23)20-14-7-8-17(16(9-14)13(4)21)24-11-15(22)10-19-12(2)3/h7-9,12,15,19,22H,5-6,10-11H2,1-4H3,(H,20,23)
Instrument: TripleTOF 5600 SCIEX
Instrument type: LC-ESI-QTOF
Ms type: CID
Ion mode: POSITIVE
Collision energy: 130
Ionization: ESI
Column name: Zorbax Eclipse Plus C18 2.1 mm x 150 mm, 3.5 um, Agilent
Retention time: 5.965 min
Precursor m/z: 337.2122
Precursor type: [M+H]+
m/z	relative intensity
42.0423	53
43.0255	118
44.0603	107
56.0554	999
57.0408	42
58.0701	311
65.0427	590
66.0519	64
67.0487	75
72.0837	290
74.0618	150
77.0415	913
78.0485	53
79.0586	75
80.052	451
89.0409	139
90.0469	75
91.0561	182
92.0505	64
93.0586	161
103.053	42
104.0484	96
109.0517	75
115.0553	107
130.0662	42
