Mass spectrum: Diazepam; LC-ESI-QTOF; MS2; 80 V
Name: Diazepam
Class: Pharmaceutical
Formula: C16H13ClN2O
Exact mass: 284.0716
SMILES: CN1C(=O)CN=C(C2=C1C=CC(=C2)Cl)C3=CC=CC=C3
InChI: InChI=1S/C16H13ClN2O/c1-19-14-8-7-12(17)9-13(14)16(18-10-15(19)20)11-5-3-2-4-6-11/h2-9H,10H2,1H3
Instrument: TripleTOF 6600 SCIEX
Instrument type: LC-ESI-QTOF
Ms type: MS2
Ion mode: POSITIVE
Collision energy: 80
Fragmentation mode: CID
Ionization: ESI
Column name: Zorbax Eclipse Plus C18 2.1 mm x 150 mm, 3.5 um, Agilent
Retention time: 11.181 min
Precursor m/z: 285.0789
Precursor type: [M+H]+
m/z	relative intensity
39.0225	44
50.015	10
51.0222	61
58.0282	14
61.0062	18
62.0144	40
63.0222	147
64.0299	14
65.0378	188
72.9828	70
74.015	36
75.0219	112
76.0292	13
77.0378	292
78.0455	24
88.0287	15
89.0381	999
90.0455	316
91.0535	479
96.9832	10
98.9989	219
100.0173	200
102.0333	63
103.0398	14
104.0486	119
109.991	10
110.9985	114
112.0066	31
114.0107	13
114.0317	35
115.0518	89
116.0484	244
117.0562	229
118.0643	207
119.0721	29
122.9988	97
124.0011	32
125.0146	132
126.0454	14
127.0539	32
128.0517	28
129.0452	26
130.0385	22
135.9936	120
137.0014	47
138.0098	115
139.005	34
139.0536	66
140.0261	25
140.048	27
142.0511	32
143.0598	148
149.0388	10
150.0099	17
150.0459	63
151.0195	11
151.0536	241
152.0604	328
153.0674	73
154.0394	20
154.0641	12
163.0055	174
163.0538	160
164.0007	136
164.0612	197
165.0697	955
166.0642	50
167.0719	46
175.0486	13
176.0591	137
177.0592	214
178.065	324
179.0721	488
180.0796	146
188.0501	11
189.0546	16
190.0643	149
191.072	145
192.0798	169
193.0873	140
194.0956	27
199.0299	28
202.0639	24
203.0708	58
204.0789	125
205.0762	369
206.083	230
213.0347	118
214.0407	24
219.0913	29
239.037	92
240.0437	64
241.0524	35
