Mass spectrum: Alpha-hydroxy-metoprolol; LC-ESI-QTOF; MS2; 40 V
Name: Alpha-hydroxy-metoprolol
Class: Pharmaceutical; Metabolite; Transformation_product-Metabolite
Formula: C15H25NO4
Exact mass: 283.1784
SMILES: COCC(O)c1ccc(OCC(O)CNC(C)C)cc1
InChI: InChI=1S/C15H25NO4/c1-11(2)16-8-13(17)9-20-14-6-4-12(5-7-14)15(18)10-19-3/h4-7,11,13,15-18H,8-10H2,1-3H3
Instrument: TripleTOF 5600 SCIEX
Instrument type: LC-ESI-QTOF
Ms type: MS2
Ion mode: POSITIVE
Collision energy: 40
Fragmentation mode: CID
Ionization: ESI
Column name: Zorbax Eclipse Plus C18 2.1 mm x 150 mm, 3.5 um, Agilent
Retention time: 5.057 min
Precursor m/z: 284.1856
Precursor type: [M+H]+
m/z	relative intensity
43.0283	23
44.0586	23
45.0428	119
55.0249	14
56.0565	751
58.0719	108
65.0446	15
70.0689	167
72.0846	533
74.0638	999
75.0474	120
77.0419	152
78.0479	11
79.0571	164
84.0839	30
88.0767	13
90.0484	10
91.0563	691
93.0719	68
95.0501	17
98.0973	335
100.113	58
103.0548	389
105.0337	13
105.0707	676
106.0419	127
107.0495	197
115.055	96
116.1075	465
117.0701	160
118.0419	74
119.0493	480
119.0849	56
120.0565	21
121.0647	137
127.0547	68
128.0625	109
129.07	312
131.0498	71
131.085	24
132.0571	25
133.0653	509
134.0729	204
135.0443	17
135.0808	78
144.0566	25
145.0638	118
146.0722	44
147.0484	41
147.0794	111
148.0525	45
149.0599	153
150.0687	14
151.076	110
155.0608	13
157.0651	117
159.0813	36
161.0974	36
162.0676	59
163.0754	226
168.0993	11
174.0692	13
174.092	12
175.0768	63
177.0912	67
179.084	15
181.0867	36
189.0911	85
207.1019	79
224.1317	15
284.1872	83
