Mass spectrum: Mesotrione; LC-ESI-QTOF; MS2; 40 V
Name: Mesotrione
Class: Herbicide
Formula: C14H13NO7S
Exact mass: 339.0413
SMILES: CS(=O)(=O)C1=CC(=C(C=C1)C(=O)C2C(=O)CCCC2=O)[N+](=O)[O-]
InChI: InChI=1S/C14H13NO7S/c1-23(21,22)8-5-6-9(10(7-8)15(19)20)14(18)13-11(16)3-2-4-12(13)17/h5-7,13H,2-4H2,1H3
Instrument: TripleTOF 6600 SCIEX
Instrument type: LC-ESI-QTOF
Ms type: MS2
Ion mode: POSITIVE
Collision energy: 40
Fragmentation mode: CID
Ionization: ESI
Column name: Zorbax Eclipse Plus C18 2.1 mm x 150 mm, 3.5 um, Agilent
Retention time: 9.26 min
Precursor m/z: 340.0486
Precursor type: [M+H]+
m/z	relative intensity
50.0145	10
53.0017	12
55.0174	21
62.9896	68
66.0335	20
68.9967	11
76.0179	109
77.026	137
78.0336	33
78.9846	58
79.017	21
84.0569	10
94.0289	11
95.0122	16
104.013	671
105.0202	10
107.0122	20
154.9791	40
166.013	68
170.0036	10
197.9987	29
214.0621	20
227.9966	999
275.0372	16
276.0442	20
