Mass spectrum: Proadifen; LC-ESI-QTOF; MS2; 130 V
Name: Proadifen
Formula: C23H31NO2
Exact mass: 353.2355
SMILES: CCCC(C1=CC=CC=C1)(C2=CC=CC=C2)C(=O)OCCN(CC)CC
InChI: InChI=1S/C23H31NO2/c1-4-17-23(20-13-9-7-10-14-20,21-15-11-8-12-16-21)22(25)26-19-18-24(5-2)6-3/h7-16H,4-6,17-19H2,1-3H3
Instrument: TripleTOF 6600 SCIEX
Instrument type: LC-ESI-QTOF
Ms type: MS2
Ion mode: POSITIVE
Collision energy: 130
Fragmentation mode: CID
Ionization: ESI
Column name: Zorbax Eclipse Plus C18 2.1 mm x 150 mm, 3.5 um, Agilent
Retention time: 9.831 min
Precursor m/z: 354.2428
Precursor type: [M+H]+
m/z	relative intensity
35.9977	11
37.006	62
38.0137	49
39.0218	388
41.0374	48
42.0327	13
44.048	47
50.014	89
51.0217	325
59.9973	10
61.0058	37
62.0134	62
63.0214	151
65.0372	752
74.0132	39
75.0211	20
76.029	41
77.0372	598
78.0444	41
79.0525	48
85.006	11
86.0129	20
87.0221	27
89.0371	131
91.0525	448
98.0132	22
99.0215	10
102.0446	141
103.0521	38
105.0415	15
113.037	32
115.0526	562
125.0363	21
126.0445	140
127.0522	62
128.0601	139
137.0365	14
138.044	13
139.0528	282
141.0668	17
149.0377	17
150.0451	177
151.0526	335
152.0605	363
162.0447	28
163.0532	472
164.0603	463
165.0684	999
176.0595	26
178.0751	17
179.0588	14
