Mass spectrum: 4-Phenoxyphenol; LC-ESI-QTOF; MS2; 40 V
Name: 4-Phenoxyphenol
Class: Transformation_product
Formula: C12H10O2
Exact mass: 186.0681
SMILES: Oc1ccc(Oc2ccccc2)cc1
InChI: InChI=1S/C12H10O2/c13-10-6-8-12(9-7-10)14-11-4-2-1-3-5-11/h1-9,13H
Instrument: TripleTOF 5600 SCIEX
Instrument type: LC-ESI-QTOF
Ms type: MS2
Ion mode: POSITIVE
Collision energy: 40
Fragmentation mode: CID
Ionization: ESI
Column name: Zorbax Eclipse Plus C18 2.1 mm x 150 mm, 3.5 um, Agilent
Retention time: 11.066 min
Precursor m/z: 187.0754
Precursor type: [M+H]+
m/z	relative intensity
65.0432	191
66.0501	141
77.042	99
78.0443	28
81.0354	439
91.0543	35
94.0416	722
109.028	219
110.0344	77
115.0537	999
139.0543	63
141.0685	425
144.0556	28
152.0615	35
168.0549	85
168.0683	42
169.0616	35
