Mass spectrum: 4,4`-Thiodianiline; LC-ESI-QTOF; MS2; 50 V
Name: 4,4`-Thiodianiline
Formula: C12H12N2S
Exact mass: 216.0721
SMILES: C1=CC(=CC=C1N)SC2=CC=C(C=C2)N
InChI: InChI=1S/C12H12N2S/c13-9-1-5-11(6-2-9)15-12-7-3-10(14)4-8-12/h1-8H,13-14H2
Instrument: TripleTOF 6600 SCIEX
Instrument type: LC-ESI-QTOF
Ms type: MS2
Ion mode: POSITIVE
Collision energy: 50
Fragmentation mode: CID
Ionization: ESI
Column name: Zorbax Eclipse Plus C18 2.1 mm x 150 mm, 3.5 um, Agilent
Retention time: 6.429 min
Precursor m/z: 217.0794
Precursor type: [M+H]+
m/z	relative intensity
50.0145	11
53.0385	32
63.023	9
66.0459	22
76.029	70
80.0485	927
81.0515	18
89.0377	13
92.0483	15
93.0561	189
97.0091	88
113.0372	13
115.0527	28
123.0131	98
124.0201	999
125.023	18
127.0541	26
128.0616	56
129.0665	28
130.0652	20
138.0458	15
139.0535	645
140.0557	47
141.0709	11
146.0186	11
147.0262	30
152.06	45
154.0614	35
155.0666	18
156.0802	71
157.0846	45
158.0169	13
166.0643	87
167.071	162
168.0791	13
171.0238	228
172.0332	117
182.0197	39
182.0838	11
183.025	62
183.0911	30
184.0324	164
184.0967	141
185.0997	47
198.035	134
199.0441	232
200.0481	22
215.0565	35
