Mass spectrum: Carbofuran; LC-ESI-QTOF; MS2; 60 V
Name: Carbofuran
Class: Insecticide; Transformation_product
Formula: C12H15NO3
Exact mass: 221.1052
SMILES: CNC(=O)Oc1cccc2CC(C)(C)Oc12
InChI: InChI=1S/C12H15NO3/c1-12(2)7-8-5-4-6-9(10(8)16-12)15-11(14)13-3/h4-6H,7H2,1-3H3,(H,13,14)
Instrument: TripleTOF 5600 SCIEX
Instrument type: LC-ESI-QTOF
Ms type: MS2
Ion mode: POSITIVE
Collision energy: 60
Fragmentation mode: CID
Ionization: ESI
Column name: Zorbax Eclipse Plus C18 2.1 mm x 150 mm, 3.5 um, Agilent
Retention time: 9.746 min
Precursor m/z: 222.1125
Precursor type: [M+H]+
m/z	relative intensity
55.0238	52
55.0592	103
58.0342	119
65.0434	262
67.0585	193
77.0425	999
78.0492	22
79.0573	44
81.037	26
89.0408	11
91.0564	531
95.0506	177
103.0553	63
104.0623	26
105.0342	171
107.0497	29
110.0361	18
115.0542	26
117.0706	20
119.0482	19
123.0448	858
128.0633	18
131.0496	47
