Mass spectrum: (1,2-Diphenylpropyl)-trimethyl-ammonium; LC-ESI-QTOF; MS2; 150 V
Name: (1,2-Diphenylpropyl)-trimethyl-ammonium
Formula: [C18H24N]+
Exact mass: 254.1903
SMILES: CC(c1ccccc1)C(c2ccccc2)[N+](C)(C)C
InChI: InChI=1S/C18H24N/c1-15(16-11-7-5-8-12-16)18(19(2,3)4)17-13-9-6-10-14-17/h5-15,18H,1-4H3/q+1
Instrument: TripleTOF 5600 SCIEX
Instrument type: LC-ESI-QTOF
Ms type: MS2
Ion mode: POSITIVE
Collision energy: 150
Fragmentation mode: CID
Ionization: ESI
Column name: Zorbax Eclipse Plus C18 2.1 mm x 150 mm, 3.5 um, Agilent
Retention time: 7.228 min
Precursor m/z: 254.1903
Precursor type: [M]+
m/z	relative intensity
51.0276	575
58.0687	203
65.041	999
73.0109	84
74.0177	491
75.0269	135
76.0321	84
77.0411	220
86.0155	287
87.0228	84
89.0395	253
91.0554	118
115.0541	169
126.0466	84
150.0467	152
176.0661	84
