Mass spectrum: Dinoseb; LC-ESI-QTOF; MS2; 40 V
Name: Dinoseb
Class: Herbicide
Formula: C10H12N2O5
Exact mass: 240.0746
SMILES: CCC(C)c1cc(cc(c1O)[N+](=O)[O-])[N+](=O)[O-]
InChI: InChI=1S/C10H12N2O5/c1-3-6(2)8-4-7(11(14)15)5-9(10(8)13)12(16)17/h4-6,13H,3H2,1-2H3
Instrument: TripleTOF 6600 SCIEX
Instrument type: LC-ESI-QTOF
Ms type: MS2
Ion mode: NEGATIVE
Collision energy: 40
Fragmentation mode: CID
Ionization: ESI
Column name: Zorbax Eclipse Plus C18 2.1 mm x 150 mm, 3.5 um, Agilent
Retention time: 13.78182 min
Precursor m/z: 239.0673
Precursor type: [M-H]-
m/z	relative intensity
45.9925	82
109.0157	14
121.0278	19
122.0358	39
123.0314	13
134.0235	338
135.0313	215
136.0389	53
137.0464	16
146.0359	15
147.0438	19
148.0391	15
149.0234	14
149.0467	14
150.0296	10
150.0539	15
151.0748	81
160.039	14
162.0176	72
162.0661	14
163.0263	690
164.0339	32
164.0455	71
176.0336	186
177.0411	189
178.0494	176
179.0205	13
179.0698	22
180.0286	44
190.0501	16
192.0648	254
193.0242	999
194.0441	519
207.0393	149
208.0595	31
209.0185	204
222.0636	18
239.0648	53
