Mass spectrum: Ethyl 4-dimethylaminobenzoate; LC-ESI-QTOF; MS2; 40 V
Name: Ethyl 4-dimethylaminobenzoate
Formula: C11H15NO2
Exact mass: 193.1103
SMILES: O=C(OCC)C1=CC=C(C=C1)N(C)C
InChI: InChI=1S/C11H15NO2/c1-4-14-11(13)9-5-7-10(8-6-9)12(2)3/h5-8H,4H2,1-3H3
Instrument: TripleTOF X500R SCIEX
Instrument type: LC-ESI-QTOF
Ms type: MS2
Ion mode: POSITIVE
Collision energy: 40
Fragmentation mode: CID
Ionization: ESI
Column name: Zorbax Eclipse Plus C18 2.1 mm x 150 mm, 3.5 um, Agilent
Retention time: 11.941 min
Precursor m/z: 194.1176
Precursor type: [M+H]+
m/z	relative intensity
65.0387	10
77.0385	34
79.0541	49
104.0504	15
105.0579	12
106.0649	218
107.0508	12
107.0728	44
120.0793	13
121.0882	10
132.0448	10
134.0598	999
135.0436	10
135.067	21
150.0546	608
151.0626	752
164.0701	23
166.086	183
179.0939	154
194.1177	43
