Mass spectrum: Sertraline; LC-ESI-QTOF; MS2; 150 V
Name: Sertraline
Class: Pharmaceutical
Formula: C17H17Cl2N
Exact mass: 305.0738
SMILES: CN[C@H]1CC[C@H](c2c1cccc2)c3ccc(c(c3)Cl)Cl
InChI: InChI=1S/C17H17Cl2N/c1-20-17-9-7-12(13-4-2-3-5-14(13)17)11-6-8-15(18)16(19)10-11/h2-6,8,10,12,17,20H,7,9H2,1H3/t12-,17-/m0/s1
Instrument: TripleTOF 5600 SCIEX
Instrument type: LC-ESI-QTOF
Ms type: MS2
Ion mode: POSITIVE
Collision energy: 150
Fragmentation mode: CID
Ionization: ESI
Column name: Zorbax Eclipse Plus C18 2.1 mm x 150 mm, 3.5 um, Agilent
Retention time: 8.925 min
Precursor m/z: 306.0811
Precursor type: [M+H]+
m/z	relative intensity
51.029	211
60.0035	52
60.0133	33
63.056	15
65.0425	71
71.9792	71
72.9875	999
74.0186	286
75.0054	26
75.026	173
76.0333	158
77.0412	373
78.049	139
82.9472	173
85.0086	64
86.0165	177
87.0247	150
88.0319	120
89.0404	949
91.055	18
95.9751	18
96.9845	177
98.0164	94
98.9988	41
99.0213	26
101.039	41
102.0461	241
106.9453	67
111.023	26
113.0383	30
115.054	79
122.0145	41
122.9993	49
126.046	113
127.0532	184
128.0618	233
132.9593	18
137.038	26
139.0535	26
149.0406	41
150.047	131
151.054	49
152.0619	30
161.0385	56
162.0461	41
163.0544	86
174.046	64
175.0537	18
176.062	45
186.0468	71
187.0547	196
188.0637	30
189.0698	15
199.0548	49
200.0607	188
201.0697	45
202.0775	33
