Mass spectrum: N,N-Dimethyldodecylamine; LC-ESI-QTOF; MS2; 10 V
Name: N,N-Dimethyldodecylamine
Formula: C14H31N
Exact mass: 213.2456
SMILES: CCCCCCCCCCCCN(C)C
InChI: InChI=1S/C14H31N/c1-4-5-6-7-8-9-10-11-12-13-14-15(2)3/h4-14H2,1-3H3
Instrument: TripleTOF 6600 SCIEX
Instrument type: LC-ESI-QTOF
Ms type: MS2
Ion mode: POSITIVE
Collision energy: 10
Fragmentation mode: CID
Ionization: ESI
Column name: Zorbax Eclipse Plus C18 2.1 mm x 150 mm, 3.5 um, Agilent
Retention time: 10.605 min
Precursor m/z: 214.2529
Precursor type: [M+H]+
m/z	relative intensity
214.2559	999
