Mass spectrum: Iohexol; LC-ESI-QTOF; MS2; 130 V
Name: Iohexol
Class: Pharmaceutical
Formula: C19H26I3N3O9
Exact mass: 820.8803
SMILES: CC(=O)N(CC(O)CO)c1c(I)c(C(=O)NCC(O)CO)c(I)c(C(=O)NCC(O)CO)c1I
InChI: InChI=1S/C19H26I3N3O9/c1-8(29)25(4-11(32)7-28)17-15(21)12(18(33)23-2-9(30)5-26)14(20)13(16(17)22)19(34)24-3-10(31)6-27/h9-11,26-28,30-32H,2-7H2,1H3,(H,23,33)(H,24,34)
Instrument: TripleTOF 5600 SCIEX
Instrument type: LC-ESI-QTOF
Ms type: MS2
Ion mode: POSITIVE
Collision energy: 130
Fragmentation mode: CID
Ionization: ESI
Column name: Zorbax Eclipse Plus C18 2.1 mm x 150 mm, 3.5 um, Agilent
Retention time: 4.533 min
Precursor m/z: 821.8876
Precursor type: [M+H]+
m/z	relative intensity
91.0426	344
102.0348	378
103.0439	206
104.014	172
104.0513	206
114.0358	310
115.0433	378
116.0486	378
117.0459	137
119.0392	206
128.0511	275
129.0508	310
130.0295	206
131.0367	482
131.0622	206
132.0451	310
142.0285	241
144.0095	172
144.045	275
145.0402	344
146.0495	172
147.0318	378
147.0566	172
149.0468	241
157.0531	241
158.0237	241
169.047	206
172.0585	172
173.0398	172
175.0259	344
176.0356	137
186.0459	241
188.9246	206
189.0442	206
200.9182	275
203.0483	137
204.9159	206
227.9334	206
228.9402	206
229.9446	137
231.9274	585
239.9318	310
240.9386	275
242.9426	206
243.9271	172
245.941	516
255.9281	310
256.9333	275
257.9423	999
269.9444	172
270.9375	413
271.9491	344
273.9371	723
283.9215	137
287.9191	137
301.9316	344
341.8278	206
355.8403	172
