Mass spectrum: Bromacil; LC-ESI-QTOF; MS2; 60 V
Name: Bromacil
Class: Herbicide
Formula: C9H13BrN2O2
Exact mass: 260.016
SMILES: CCC(C)N1C(=O)C(=C(NC1=O)C)Br
InChI: InChI=1S/C9H13BrN2O2/c1-4-5(2)12-8(13)7(10)6(3)11-9(12)14/h5H,4H2,1-3H3,(H,11,14)
Instrument: TripleTOF 6600 SCIEX
Instrument type: LC-ESI-QTOF
Ms type: MS2
Ion mode: POSITIVE
Collision energy: 60
Fragmentation mode: CID
Ionization: ESI
Column name: Zorbax Eclipse Plus C18 2.1 mm x 150 mm, 3.5 um, Agilent
Retention time: 8.493 min
Precursor m/z: 261.0233
Precursor type: [M+H]+
m/z	relative intensity
44.0111	40
52.0165	186
54.0323	462
55.0399	129
68.0115	40
69.0061	121
69.9908	81
83.0344	81
92.9305	113
104.9312	194
105.9254	97
106.9095	40
106.946	146
116.9302	48
131.9416	999
133.9562	97
143.9413	48
161.9518	146
186.947	64
187.9299	227
204.9599	64
