Mass spectrum: Amido Black 10B; LC-ESI-QTOF; MS2; 130 V
Name: Amido Black 10B
Formula: C22H16N6O9S2
Exact mass: 572.042
SMILES: C1=CC=C(C=C1)N=NC2=C(C3=C(C(=C(C=C3C=C2S(=O)(=O)O)S(=O)(=O)O)N=NC4=CC=C(C=C4)[N+](=O)[O-])N)O
InChI: InChI=1S/C22H16N6O9S2/c23-19-18-12(11-17(39(35,36)37)21(22(18)29)27-24-13-4-2-1-3-5-13)10-16(38(32,33)34)20(19)26-25-14-6-8-15(9-7-14)28(30)31/h1-11,29H,23H2,(H,32,33,34)(H,35,36,37)
Instrument: TripleTOF 6600 SCIEX
Instrument type: LC-ESI-QTOF
Ms type: MS2
Ion mode: POSITIVE
Collision energy: 130
Fragmentation mode: CID
Ionization: ESI
Column name: Zorbax Eclipse Plus C18 2.1 mm x 150 mm, 3.5 um, Agilent
Retention time: 9.552 min
Precursor m/z: 573.0493
Precursor type: [M+H]+
m/z	relative intensity
37.0071	20
38.015	12
39.0229	190
50.0142	12
51.0223	61
61.0068	10
62.0155	15
63.0222	84
64.0177	10
64.031	20
65.0384	999
66.0462	362
67.0415	14
74.0146	70
75.0226	323
76.0295	29
77.0384	144
78.0328	37
80.0501	28
87.0224	17
88.0179	48
89.0391	12
90.0334	65
92.0485	268
93.057	969
100.0174	14
102.0338	95
103.0403	17
112.0177	14
114.0331	76
115.0414	20
117.043	25
125.0121	21
127.0365	12
129.0411	37
130.0339	26
138.0336	12
139.041	18
145.0383	18
149.0371	15
150.0397	28
151.0499	47
152.0479	15
152.0624	12
162.033	23
163.0374	18
164.0463	29
165.0456	23
175.0406	18
176.0484	51
177.043	20
177.0547	37
178.0514	21
179.0626	18
187.0275	10
188.0471	67
189.0429	116
190.0592	36
191.0522	25
191.0686	12
192.0679	25
200.0549	10
201.0466	18
202.0451	18
203.0592	43
204.0601	50
205.0765	42
206.0697	23
214.041	28
215.0503	59
216.0531	36
217.0639	25
218.0707	17
220.0834	10
228.0568	17
230.071	64
231.0743	25
238.0742	10
241.0572	21
242.058	25
255.068	10
291.0801	10
305.0769	10
317.0897	10
318.077	10
