Mass spectrum: 2-Hydroxy-n-methyl-n-phenylpropanamide; LC-ESI-QTOF; MS2; 90 V
Name: 2-Hydroxy-n-methyl-n-phenylpropanamide
Formula: C10H13NO2
Exact mass: 179.0946
SMILES: CC(C(=O)N(C)C1=CC=CC=C1)O
InChI: InChI=1S/C10H13NO2/c1-8(12)10(13)11(2)9-6-4-3-5-7-9/h3-8,12H,1-2H3
Instrument: TripleTOF 5600 SCIEX
Instrument type: LC-ESI-QTOF
Ms type: MS2
Ion mode: POSITIVE
Collision energy: 90
Fragmentation mode: CID
Ionization: ESI
Column name: Zorbax Eclipse Plus C18 2.1 mm x 150 mm, 3.5 um, Agilent
Retention time: 6.763 min
Precursor m/z: 180.1019
Precursor type: [M+H]+
m/z	relative intensity
37.0068	20
38.0147	16
39.0226	88
42.0343	16
45.0331	52
49.0071	52
50.0149	393
51.0228	999
52.0301	16
63.0213	56
65.0383	220
66.0465	52
74.015	20
75.0228	24
77.0383	573
78.0452	36
79.055	24
89.0379	72
90.0454	32
91.0538	156
92.048	32
93.0568	44
106.0664	28
117.0581	36
118.0651	20
