Mass spectrum: 6-Acetylcodeine; LC-ESI-QTOF; MS2; 150 V
Name: 6-Acetylcodeine
Class: Pharmaceutical; Transformation_product
Formula: C20H23NO4
Exact mass: 341.1627
SMILES: CC(=O)OC1C=CC2C3CC4=C5C2(C1OC5=C(C=C4)OC)CCN3C
InChI: InChI=1S/C20H23NO4/c1-11(22)24-16-7-5-13-14-10-12-4-6-15(23-3)18-17(12)20(13,19(16)25-18)8-9-21(14)2/h4-7,13-14,16,19H,8-10H2,1-3H3
Instrument: TripleTOF 5600 SCIEX
Instrument type: LC-ESI-QTOF
Ms type: MS2
Ion mode: POSITIVE
Collision energy: 150
Fragmentation mode: CID
Ionization: ESI
Column name: Zorbax Eclipse Plus C18 2.1 mm x 150 mm, 3.5 um, Agilent
Retention time: 6.207 min
Precursor m/z: 342.17
Precursor type: [M+H]+
m/z	relative intensity
42.0431	22
43.0266	397
43.0543	22
51.0286	226
58.0698	13
65.0426	179
73.0103	13
73.021	13
74.0185	245
75.0262	242
76.0341	229
77.0417	692
78.049	154
85.0097	19
86.017	91
87.0246	168
88.0337	66
89.0406	593
91.0549	63
98.0159	115
98.0328	11
99.0235	121
100.0321	49
100.0471	11
101.0393	124
102.0469	389
103.0552	27
110.015	30
111.0256	22
113.0393	220
114.046	66
115.0548	861
122.0166	24
125.0389	140
126.0468	667
127.0544	344
128.0624	262
129.0467	19
137.0397	71
138.0458	30
139.0547	604
140.0596	19
141.0692	24
149.0387	71
150.0466	902
151.0548	943
152.0626	999
153.0708	33
155.0501	13
161.039	44
162.0468	151
163.0547	725
163.0907	22
164.0637	146
165.0703	121
174.0467	46
175.0544	22
176.0629	160
177.0704	24
185.0366	11
186.0507	22
187.054	149
188.0637	52
189.0701	91
199.0577	13
200.0606	16
203.072	13
