Mass spectrum: Doxepin; LC-ESI-QTOF; MS2; 40 V
Name: Doxepin
Class: Pharmaceutical
Formula: C19H21NO
Exact mass: 279.1623
SMILES: CN(C)CCC=C1C2=CC=CC=C2COC3=CC=CC=C31
InChI: InChI=1S/C19H21NO/c1-20(2)13-7-11-17-16-9-4-3-8-15(16)14-21-19-12-6-5-10-18(17)19/h3-6,8-12H,7,13-14H2,1-2H3
Instrument: TripleTOF 5600 SCIEX
Instrument type: LC-ESI-QTOF
Ms type: MS2
Ion mode: POSITIVE
Collision energy: 40
Fragmentation mode: CID
Ionization: ESI
Column name: Zorbax Eclipse Plus C18 2.1 mm x 150 mm, 3.5 um, Agilent
Retention time: 7.447 min
Precursor m/z: 280.1696
Precursor type: [M+H]+
m/z	relative intensity
58.0737	88
70.0712	39
77.0443	119
79.0597	115
84.0858	193
85.093	17
91.0584	210
103.0564	10
105.0729	14
107.0519	999
115.057	238
117.0723	242
119.0513	20
127.0566	12
128.0641	44
129.0717	150
131.0508	74
141.0711	241
142.0791	95
143.0863	11
152.063	20
157.065	17
165.0701	139
166.078	89
167.086	164
173.1192	11
177.0705	18
178.078	169
179.0859	166
181.1012	29
189.0697	12
190.078	17
191.0857	86
192.0938	141
193.0993	10
194.0725	234
195.0802	70
201.068	15
202.0778	371
203.0847	40
205.0662	24
207.081	133
207.1153	33
209.0951	16
215.0858	73
216.0921	30
217.1008	84
219.0804	125
220.0877	340
233.0943	11
234.1034	12
235.1112	47
280.17	25
