Mass spectrum: Carboxy terbinafine; LC-ESI-QTOF; MS2; 150 V
Name: Carboxy terbinafine
Class: Pharmaceutical; Metabolite
Formula: C21H23NO2
Exact mass: 321.1729
SMILES: CN(C\C=C\C#CC(C)(C)C(O)=O)Cc1cccc2ccccc12
InChI: InChI=1S/C21H23NO2/c1-21(2,20(23)24)14-7-4-8-15-22(3)16-18-12-9-11-17-10-5-6-13-19(17)18/h4-6,8-13H,15-16H2,1-3H3,(H,23,24)/b8-4+
Instrument: TripleTOF 5600 SCIEX
Instrument type: LC-ESI-QTOF
Ms type: MS2
Ion mode: POSITIVE
Collision energy: 150
Fragmentation mode: CID
Ionization: ESI
Column name: Zorbax Eclipse Plus C18 2.1 mm x 150 mm, 3.5 um, Agilent
Retention time: 7.447 min
Precursor m/z: 322.1802
Precursor type: [M+H]+
m/z	relative intensity
51.0284	42
65.0429	308
74.0178	94
75.0264	47
76.0338	37
77.0403	54
86.0165	68
87.0245	54
88.0329	23
89.0406	676
91.0543	108
98.0148	14
102.0482	35
113.0382	70
114.0464	42
115.0548	999
139.0545	160
141.0701	11
