Mass spectrum: Formononetin; LC-ESI-QTOF; MS2; 150 V
Name: Formononetin
Class: Metabolite; Metabolite; Pharmaceutical
Formula: C16H12O4
Exact mass: 268.0736
SMILES: COc1ccc(cc1)C2=COc3cc(O)ccc3C2=O
InChI: InChI=1S/C16H12O4/c1-19-12-5-2-10(3-6-12)14-9-20-15-8-11(17)4-7-13(15)16(14)18/h2-9,17H,1H3
Instrument: TripleTOF 5600 SCIEX
Instrument type: LC-ESI-QTOF
Ms type: MS2
Ion mode: POSITIVE
Collision energy: 150
Fragmentation mode: CID
Ionization: ESI
Column name: Zorbax Eclipse Plus C18 2.1 mm x 150 mm, 3.5 um, Agilent
Retention time: 10.093 min
Precursor m/z: 269.0808
Precursor type: [M+H]+
m/z	relative intensity
53.0094	47
60.0041	123
61.0379	23
62.0594	41
64.034	58
65.0426	135
68.9993	70
73.0098	105
74.0187	840
75.0262	305
75.0485	29
76.0344	76
77.0411	123
78.0506	41
85.011	82
86.0162	199
86.035	35
87.0245	135
88.0331	52
89.0405	999
91.0571	41
98.0169	229
99.0234	58
102.0444	58
110.0161	29
113.0391	129
115.0533	117
126.0461	52
139.0529	164
149.0382	35
150.0461	111
151.0547	47
