Mass spectrum: p-Phenetidine; LC-ESI-QTOF; MS2; 80 V
Name: p-Phenetidine
Formula: C8H11NO
Exact mass: 137.0841
SMILES: CCOC1=CC=C(C=C1)N
InChI: InChI=1S/C8H11NO/c1-2-10-8-5-3-7(9)4-6-8/h3-6H,2,9H2,1H3
Instrument: TripleTOF 6600 SCIEX
Instrument type: LC-ESI-QTOF
Ms type: MS2
Ion mode: POSITIVE
Collision energy: 80
Fragmentation mode: CID
Ionization: ESI
Column name: Zorbax Eclipse Plus C18 2.1 mm x 150 mm, 3.5 um, Agilent
Retention time: 4.84 min
Precursor m/z: 138.0914
Precursor type: [M+H]+
m/z	relative intensity
36.0004	78
37.0086	529
38.0041	27
38.0162	458
39.0242	999
49.009	27
50.016	157
51.0235	114
52.0189	19
53.0029	15
53.0398	118
54.0349	39
60.0025	19
61.0081	169
62.0161	477
63.024	691
65.0392	59
66.0472	27
73.0079	15
74.0168	78
80.051	367
