Mass spectrum: Fluazifop; LC-ESI-QTOF; MS2; 80 V
Name: Fluazifop
Class: Herbicide; Transformation_product
Formula: C15H12F3NO4
Exact mass: 327.0718
SMILES: CC(C(=O)O)Oc1ccc(cc1)Oc2ccc(cn2)C(F)(F)F
InChI: InChI=1S/C15H12F3NO4/c1-9(14(20)21)22-11-3-5-12(6-4-11)23-13-7-2-10(8-19-13)15(16,17)18/h2-9H,1H3,(H,20,21)
Instrument: TripleTOF 6600 SCIEX
Instrument type: LC-ESI-QTOF
Ms type: MS2
Ion mode: NEGATIVE
Collision energy: 80
Fragmentation mode: CID
Ionization: ESI
Column name: Zorbax Eclipse Plus C18 2.1 mm x 150 mm, 3.5 um, Agilent
Retention time: 11.668 min
Precursor m/z: 326.0646
Precursor type: [M-H]-
m/z	relative intensity
41.0023	36
50.0022	31
64.0176	26
66.9977	88
68.9938	67
74.0017	150
76.0177	31
87.0216	20
88.0181	26
94.9918	119
97.0067	46
98.0014	20
101.0381	41
106.0095	20
108.0201	999
111.0095	26
111.0236	20
112.018	52
114.9988	228
117.0141	26
122.0042	72
123.0242	26
124.0201	46
126.0335	26
131.0159	26
132.025	93
137.0243	41
138.0336	306
142.0101	254
143.0292	26
144.0246	41
150.033	46
152.0314	46
156.0245	41
158.0409	182
162.016	275
164.0306	41
166.0297	62
172.0197	26
178.0474	67
186.0346	72
206.0425	36
253.0343	26
