Mass spectrum: Carbofuran; LC-ESI-QTOF; MS2; 80 V
Name: Carbofuran
Class: Insecticide; Transformation_product
Formula: C12H15NO3
Exact mass: 221.1052
SMILES: CNC(=O)Oc1cccc2CC(C)(C)Oc12
InChI: InChI=1S/C12H15NO3/c1-12(2)7-8-5-4-6-9(10(8)16-12)15-11(14)13-3/h4-6H,7H2,1-3H3,(H,13,14)
Instrument: TripleTOF 5600 SCIEX
Instrument type: LC-ESI-QTOF
Ms type: MS2
Ion mode: POSITIVE
Collision energy: 80
Fragmentation mode: CID
Ionization: ESI
Column name: Zorbax Eclipse Plus C18 2.1 mm x 150 mm, 3.5 um, Agilent
Retention time: 9.746 min
Precursor m/z: 222.1125
Precursor type: [M+H]+
m/z	relative intensity
53.0443	19
55.0226	50
55.0598	77
58.0339	195
63.0373	13
64.0345	13
65.043	418
67.0575	91
75.0265	12
77.0416	999
78.0492	72
79.0576	34
81.0359	20
89.0405	36
91.0554	354
95.0515	29
102.0464	24
103.0539	124
104.0612	10
105.0326	43
107.0484	13
110.0363	12
115.0539	38
123.0444	76
127.0526	12
128.0617	17
131.0489	38
