Mass spectrum: Sunitinib; LC-ESI-QTOF; MS2; 120 V
Name: Sunitinib
Class: Pharmaceutical
Formula: C22H27FN4O2
Exact mass: 398.2118
SMILES: CCN(CC)CCNC(=O)C1=C(NC(=C1C)C=C2C3=C(C=CC(=C3)F)NC2=O)C
InChI: InChI=1S/C22H27FN4O2/c1-5-27(6-2)10-9-24-22(29)20-13(3)19(25-14(20)4)12-17-16-11-15(23)7-8-18(16)26-21(17)28/h7-8,11-12,25H,5-6,9-10H2,1-4H3,(H,24,29)(H,26,28)
Instrument: TripleTOF 5600 SCIEX
Instrument type: LC-ESI-QTOF
Ms type: MS2
Ion mode: POSITIVE
Collision energy: 120
Fragmentation mode: CID
Ionization: ESI
Column name: Zorbax Eclipse Plus C18 2.1 mm x 150 mm, 3.5 um, Agilent
Retention time: 6.516 min
Precursor m/z: 399.2191
Precursor type: [M+H]+
m/z	relative intensity
63.0467	10
65.0421	58
66.0432	13
74.0174	74
75.026	217
76.021	15
77.0411	52
78.0351	19
80.0513	10
81.0159	13
83.0313	47
89.0396	50
90.0465	10
91.055	15
92.0505	10
94.0222	15
95.0299	152
96.0366	15
98.0157	84
99.0093	15
99.0234	235
100.0181	102
100.1125	10
101.0384	102
102.0327	21
104.049	32
106.0644	15
107.0289	263
108.0368	74
109.0448	60
111.0233	10
113.0381	34
114.0332	15
115.0516	17
116.0483	17
117.0153	13
117.0559	32
118.0201	10
119.0275	60
120.036	74
122.0132	26
122.0397	58
123.0082	13
123.0222	104
124.018	152
125.0384	121
126.0338	180
127.0524	32
128.0481	32
129.0465	15
131.0288	82
132.0234	10
132.0361	54
133.0446	472
133.0746	13
134.0399	124
135.0471	100
137.0382	50
138.0459	134
139.0534	117
140.0493	87
143.028	28
144.0282	167
144.0497	10
145.043	128
146.0404	339
146.0827	13
147.0214	26
147.0454	54
148.0273	17
148.0542	108
149.0382	198
150.0411	163
151.0279	45
151.0528	130
152.0592	128
152.0791	13
153.0629	15
154.0389	71
154.0675	19
155.0294	19
156.0352	47
157.0449	705
157.0774	19
158.0398	583
159.053	63
160.0566	28
161.04	34
161.0616	15
162.0452	65
163.0533	254
164.0496	296
165.0603	130
166.0642	43
167.0278	52
167.0752	17
168.0363	265
169.0444	322
169.0721	10
170.0515	424
171.0388	265
172.0315	47
172.0558	124
173.0395	54
174.0346	69
175.0444	91
176.0474	78
177.0546	52
178.0634	63
179.0341	15
179.0579	10
179.0725	10
180.0365	13
180.0786	19
181.0443	470
182.0506	441
183.0596	420
184.0559	999
185.0634	613
185.0989	10
186.0585	34
186.0726	15
187.0369	13
187.0664	17
188.049	143
189.0564	139
190.0649	158
191.064	84
192.0382	63
192.0684	58
193.0446	78
193.0734	13
194.0429	139
195.0475	315
196.0562	167
197.0577	134
198.0699	191
199.0403	95
199.0682	39
200.0501	50
201.0558	21
203.0587	21
204.0531	13
205.0737	43
206.0384	21
206.0838	17
207.0464	84
208.0558	931
208.0889	13
209.0635	733
209.1433	10
210.0609	315
211.0446	10
211.0654	198
212.052	19
212.0836	28
213.0472	17
215.0609	26
216.0685	23
218.0384	10
219.0485	137
220.039	13
220.0561	19
221.052	74
222.0453	15
222.0616	17
223.0663	89
224.0756	71
225.0831	41
233.0504	23
234.0575	74
235.0672	65
236.0758	111
237.082	58
238.0564	13
238.0764	21
238.0966	10
239.0586	45
252.071	15
