Mass spectrum: Nitrazepam; LC-ESI-QTOF; MS2; 60 V
Name: Nitrazepam
Class: Pharmaceutical
Formula: C15H11N3O3
Exact mass: 281.08
SMILES: C1C(=O)NC2=C(C=C(C=C2)[N+](=O)[O-])C(=N1)C3=CC=CC=C3
InChI: InChI=1S/C15H11N3O3/c19-14-9-16-15(10-4-2-1-3-5-10)12-8-11(18(20)21)6-7-13(12)17-14/h1-8H,9H2,(H,17,19)
Instrument: TripleTOF 6600 SCIEX
Instrument type: LC-ESI-QTOF
Ms type: MS2
Ion mode: POSITIVE
Collision energy: 60
Fragmentation mode: CID
Ionization: ESI
Column name: Zorbax Eclipse Plus C18 2.1 mm x 150 mm, 3.5 um, Agilent
Retention time: 9.435 min
Precursor m/z: 282.0873
Precursor type: [M+H]+
m/z	relative intensity
76.0295	13
77.0374	83
78.046	13
89.0371	11
91.0526	42
102.0322	13
103.0405	66
104.0483	104
105.0565	12
115.0534	12
116.0476	19
117.057	12
127.0527	22
128.0608	15
129.0432	79
130.0511	51
139.0526	12
140.0489	27
141.067	11
151.0526	71
152.0605	283
153.0689	201
154.0629	31
163.0525	52
164.0599	54
165.0684	103
166.064	40
167.0715	63
168.0756	37
177.0552	14
178.0642	90
179.0711	135
180.08	999
189.0576	9
190.0642	430
191.0713	105
192.0749	83
193.0808	37
194.0877	18
195.0888	16
205.0753	128
206.0827	253
207.0911	378
208.0978	13
235.0861	20
236.0926	21
