Mass spectrum: Dimethenamid; LC-ESI-QTOF; MS2; 140 V
Name: Dimethenamid
Class: Herbicide
Formula: C12H18ClNO2S
Exact mass: 275.0747
SMILES: CC1=CSC(=C1N(C(C)COC)C(=O)CCl)C
InChI: InChI=1S/C12H18ClNO2S/c1-8-7-17-10(3)12(8)14(11(15)5-13)9(2)6-16-4/h7,9H,5-6H2,1-4H3
Instrument: TripleTOF 6600 SCIEX
Instrument type: LC-ESI-QTOF
Ms type: MS2
Ion mode: POSITIVE
Collision energy: 140
Fragmentation mode: CID
Ionization: ESI
Column name: Zorbax Eclipse Plus C18 2.1 mm x 150 mm, 3.5 um, Agilent
Retention time: 11.971 min
Precursor m/z: 276.082
Precursor type: [M+H]+
m/z	relative intensity
37.0078	340
38.0162	408
39.0237	999
41.0393	249
43.9718	113
44.9795	794
46.9684	340
48.9845	703
49.008	136
50.0158	544
51.0236	840
52.0181	136
53.0396	317
54.0346	113
57.9875	272
58.995	567
59.9908	158
62.0158	90
63.0237	227
65.0394	385
66.0468	113
67.0431	136
68.9797	499
70.9958	204
77.0398	317
78.0341	158
78.0465	113
80.0509	340
89.0407	90
92.0508	90
93.0571	227
94.0648	204
94.9964	204
97.0109	158
104.0512	113
