Mass spectrum: Aripiprazole; LC-ESI-QTOF; MS2; 70 V
Name: Aripiprazole
Class: Pharmaceutical
Formula: C23H27Cl2N3O2
Exact mass: 447.148
SMILES: Clc1cccc(N2CCN(CCCCOc3ccc4CCC(=O)Nc4c3)CC2)c1Cl
InChI: InChI=1S/C23H27Cl2N3O2/c24-19-4-3-5-21(23(19)25)28-13-11-27(12-14-28)10-1-2-15-30-18-8-6-17-7-9-22(29)26-20(17)16-18/h3-6,8,16H,1-2,7,9-15H2,(H,26,29)
Instrument: TripleTOF 5600 SCIEX
Instrument type: LC-ESI-QTOF
Ms type: MS2
Ion mode: POSITIVE
Collision energy: 70
Fragmentation mode: CID
Ionization: ESI
Column name: Zorbax Eclipse Plus C18 2.1 mm x 150 mm, 3.5 um, Agilent
Retention time: 8.305 min
Precursor m/z: 448.1553
Precursor type: [M+H]+
m/z	relative intensity
44.0569	17
55.0229	38
55.0585	80
56.056	89
69.0744	38
70.0686	191
77.0415	59
79.0583	21
82.0692	21
84.0822	131
89.0398	21
91.0551	225
92.0489	21
93.0717	38
96.0815	38
98.098	573
103.0539	29
104.0498	93
105.0725	21
106.0651	38
110.0603	46
112.1139	25
116.0497	25
117.0571	306
118.0654	807
120.0451	21
120.0802	199
122.0598	110
125.0149	25
126.0224	29
130.0653	34
131.0495	25
131.0696	25
133.053	21
134.0611	85
138.0114	25
144.9605	59
146.0605	999
148.0753	340
151.0178	25
152.0258	544
153.0348	488
158.9764	21
160.9794	38
164.0263	38
164.0706	136
165.0216	21
166.0394	51
171.9717	467
172.9664	34
173.9864	85
174.066	21
176.0713	416
176.1076	21
188.0026	420
190.0864	17
193.0511	29
195.0667	29
200.0033	255
202.017	34
207.0699	21
213.0016	46
215.0136	42
227.0134	29
228.0223	263
243.0438	59
285.0931	68
