Mass spectrum: 4'-O-Demethyl pantoprazole sulfide; LC-ESI-QTOF; MS2; 40 V
Name: 4'-O-Demethyl pantoprazole sulfide
Class: Pharmaceutical; Transformation_product-Metabolite
Formula: C15H13F2N3O3S
Exact mass: 353.0646
SMILES: COC1=C(NC=CC1=O)CSC2=NC3=C(N2)C=C(C=C3)OC(F)F
InChI: InChI=1S/C15H13F2N3O3S/c1-22-13-11(18-5-4-12(13)21)7-24-15-19-9-3-2-8(23-14(16)17)6-10(9)20-15/h2-6,14H,7H2,1H3,(H,18,21)(H,19,20)
Instrument: TripleTOF 6600 SCIEX
Instrument type: LC-ESI-QTOF
Ms type: MS2
Ion mode: POSITIVE
Collision energy: 40
Fragmentation mode: CID
Ionization: ESI
Column name: Zorbax Eclipse Plus C18 2.1 mm x 150 mm, 3.5 um, Agilent
Retention time: 7.57 min
Precursor m/z: 354.0719
Precursor type: [M+H]+
m/z	relative intensity
53.0376	51
67.0406	10
80.048	77
82.0639	22
90.0327	13
93.0555	14
96.0438	10
108.0434	999
109.051	10
110.0588	515
121.0515	38
124.0376	34
126.0533	42
135.0547	28
136.0391	49
138.0537	619
139.061	26
140.0149	46
155.0013	31
170.0257	612
185.0508	355
216.0166	16
231.0374	23
278.0726	25
302.0687	18
303.0774	11
306.0684	104
320.082	31
321.0908	76
354.0711	259
