Mass spectrum: Flecainide meta-O-dealkylated; LC-ESI-QTOF; MS2; 100 V
Name: Flecainide meta-O-dealkylated
Class: Pharmaceutical; Transformation_product
Formula: C15H19F3N2O3
Exact mass: 332.1348
SMILES: C1CCNC(C1)CNC(=O)C2=C(C=CC(=C2)O)OCC(F)(F)F
InChI: InChI=1S/C15H19F3N2O3/c16-15(17,18)9-23-13-5-4-11(21)7-12(13)14(22)20-8-10-3-1-2-6-19-10/h4-5,7,10,19,21H,1-3,6,8-9H2,(H,20,22)
Instrument: TripleTOF 5600 SCIEX
Instrument type: LC-ESI-QTOF
Ms type: MS2
Ion mode: POSITIVE
Collision energy: 100
Fragmentation mode: CID
Ionization: ESI
Column name: Zorbax Eclipse Plus C18 2.1 mm x 150 mm, 3.5 um, Agilent
Retention time: 5.586 min
Precursor m/z: 333.1421
Precursor type: [M+H]+
m/z	relative intensity
42.045	14
44.0619	81
51.0329	360
54.0186	189
56.0567	91
57.0218	27
65.0445	175
67.046	9
68.0568	17
69.0028	29
70.0685	22
71.0338	152
73.0113	14
74.0211	29
75.0254	98
77.043	118
79.0216	64
79.0577	152
80.0292	806
80.0495	19
81.0359	74
81.0716	64
82.0089	313
82.0682	41
83.0337	39
84.0843	93
92.0252	12
93.0334	19
95.0304	170
98.0966	51
99.0251	999
105.033	22
107.0514	12
108.0202	577
109.028	19
114.0275	22
115.0335	27
121.0291	14
123.0288	29
125.0182	24
127.0179	281
136.0145	130
137.0219	14
143.0278	103
