Mass spectrum: Bosentan; LC-ESI-QTOF; MS2; 40 V
Name: Bosentan
Class: Pharmaceutical
Formula: C27H29N5O6S
Exact mass: 551.1839
SMILES: CC(C)(C)C1=CC=C(C=C1)S(=O)(=O)NC2=C(C(=NC(=N2)C3=NC=CC=N3)OCCO)OC4=CC=CC=C4OC
InChI: InChI=1S/C27H29N5O6S/c1-27(2,3)18-10-12-19(13-11-18)39(34,35)32-23-22(38-21-9-6-5-8-20(21)36-4)26(37-17-16-33)31-25(30-23)24-28-14-7-15-29-24/h5-15,33H,16-17H2,1-4H3,(H,30,31,32)
Instrument: TripleTOF 5600 SCIEX
Instrument type: LC-ESI-QTOF
Ms type: MS2
Ion mode: POSITIVE
Collision energy: 40
Fragmentation mode: CID
Ionization: ESI
Column name: Zorbax Eclipse Plus C18 2.1 mm x 150 mm, 3.5 um, Agilent
Retention time: 12.118 min
Precursor m/z: 552.1911
Precursor type: [M+H]+
m/z	relative intensity
77.0432	21
95.0522	29
97.0412	13
105.0709	14
106.0407	48
108.0589	14
121.0649	14
122.0575	20
123.048	30
123.0666	57
124.0502	26
133.0531	12
133.1014	40
135.0433	33
147.0617	20
149.0459	58
150.0553	37
161.107	32
175.0611	67
176.057	14
177.0407	12
189.064	26
190.0712	23
197.063	29
202.072	999
203.0787	95
204.0542	36
205.0584	20
237.1031	13
241.0887	57
248.0869	10
255.1111	30
264.0859	23
265.0963	12
276.0871	50
279.0758	16
280.0826	530
283.1077	16
292.0842	14
293.0894	27
294.0964	86
310.0933	37
311.1011	439
312.1115	41
324.1065	47
338.1217	18
400.1408	38
508.1636	612
552.1886	944
