Mass spectrum: 2,6-Dimethylquinoline; LC-ESI-QTOF; MS2; 100 V
Name: 2,6-Dimethylquinoline
Formula: C11H11N
Exact mass: 157.0891
SMILES: CC1=CC2=C(C=C1)N=C(C=C2)C
InChI: InChI=1S/C11H11N/c1-8-3-6-11-10(7-8)5-4-9(2)12-11/h3-7H,1-2H3
Instrument: TripleTOF 6600 SCIEX
Instrument type: LC-ESI-QTOF
Ms type: MS2
Ion mode: POSITIVE
Collision energy: 100
Fragmentation mode: CID
Ionization: ESI
Column name: Zorbax Eclipse Plus C18 2.1 mm x 150 mm, 3.5 um, Agilent
Retention time: 5.162 min
Precursor m/z: 158.0964
Precursor type: [M+H]+
m/z	relative intensity
35.9992	62
37.0071	371
38.0027	13
38.0149	277
39.0229	999
41.0378	27
42.0334	17
49.0076	131
50.0147	794
51.0225	648
52.0172	27
52.0298	24
61.0067	218
62.0148	607
63.0225	881
64.017	20
64.0299	13
65.0374	166
73.0068	65
74.0145	603
75.0105	31
75.0222	201
76.0177	24
76.0299	27
77.0378	72
78.0453	17
85.0062	41
86.0139	93
87.0225	55
88.0295	31
89.0378	169
98.0137	31
99.0087	17
101.0375	20
102.046	20
113.0372	38
114.0442	20
115.053	52
140.0477	17
