Mass spectrum: Prosulfuron; LC-ESI-QTOF; MS2; 140 V
Name: Prosulfuron
Class: Herbicide
Formula: C15H16F3N5O4S
Exact mass: 419.0875
SMILES: CC1=NC(=NC(=N1)OC)NC(=O)NS(=O)(=O)C2=CC=CC=C2CCC(F)(F)F
InChI: InChI=1S/C15H16F3N5O4S/c1-9-19-12(22-14(20-9)27-2)21-13(24)23-28(25,26)11-6-4-3-5-10(11)7-8-15(16,17)18/h3-6H,7-8H2,1-2H3,(H2,19,20,21,22,23,24)
Instrument: TripleTOF 6600 SCIEX
Instrument type: LC-ESI-QTOF
Ms type: MS2
Ion mode: POSITIVE
Collision energy: 140
Fragmentation mode: CID
Ionization: ESI
Column name: Zorbax Eclipse Plus C18 2.1 mm x 150 mm, 3.5 um, Agilent
Retention time: 11.847 min
Precursor m/z: 420.0948
Precursor type: [M+H]+
m/z	relative intensity
30.0319	35
30.9955	11
33.0116	20
37.005	14
39.021	67
41.0111	47
42.0319	529
43.027	697
44.0104	35
51.0202	20
56.0476	147
57.0113	351
57.0426	227
58.0262	177
59.0268	79
61.0044	47
62.0121	53
63.0199	186
67.0266	23
68.0217	316
69.0057	466
77.0356	41
78.0448	26
81.0115	50
83.0261	999
89.0356	88
107.0262	26
109.0419	298
115.0513	14
133.0419	32
