Mass spectrum: Oxytetracycline; LC-ESI-QTOF; MS2; 140 V
Name: Oxytetracycline
Class: Pharmaceutical
Formula: C22H24N2O9
Exact mass: 460.1482
SMILES: CC1(C2C(C3C(C(=O)C(=C(C3(C(=O)C2=C(C4=C1C=CC=C4O)O)O)O)C(=O)N)N(C)C)O)O
InChI: InChI=1S/C22H24N2O9/c1-21(32)7-5-4-6-8(25)9(7)15(26)10-12(21)17(28)13-14(24(2)3)16(27)11(20(23)31)19(30)22(13,33)18(10)29/h4-6,12-14,17,25-26,28,30,32-33H,1-3H3,(H2,23,31)
Instrument: TripleTOF 5600 SCIEX
Instrument type: LC-ESI-QTOF
Ms type: MS2
Ion mode: POSITIVE
Collision energy: 140
Fragmentation mode: CID
Ionization: ESI
Column name: Zorbax Eclipse Plus C18 2.1 mm x 150 mm, 3.5 um, Agilent
Retention time: 5.586 min
Precursor m/z: 461.1555
Precursor type: [M+H]+
m/z	relative intensity
58.0673	43
65.0424	36
68.999	36
70.0679	36
75.0258	80
77.0403	386
78.0494	72
89.0386	43
91.0541	131
101.0386	123
102.0461	262
103.054	29
113.0392	65
114.0463	58
115.0533	503
116.0606	43
125.038	29
126.0458	328
127.0532	605
128.0615	999
131.0538	29
139.0533	430
140.0593	43
141.066	51
143.0473	36
150.0462	80
151.0531	116
152.0608	357
153.0687	51
155.0481	116
157.0632	51
163.053	160
164.0619	87
165.0695	175
168.0556	94
176.0608	87
181.0674	29
183.0451	29
184.0482	58
187.0555	43
