Mass spectrum: Iotalamic acid; LC-ESI-QTOF; MS2; 100 V
Name: Iotalamic acid
Class: Pharmaceutical
Formula: C11H9I3N2O4
Exact mass: 613.7697
SMILES: CNC(c1c(I)c(C(O)=O)c(I)c(NC(C)=O)c1I)=O
InChI: InChI=1S/C11H9I3N2O4/c1-3(17)16-9-7(13)4(10(18)15-2)6(12)5(8(9)14)11(19)20/h1-2H3,(H,15,18)(H,16,17)(H,19,20)
Instrument: TripleTOF 5600 SCIEX
Instrument type: LC-ESI-QTOF
Ms type: MS2
Ion mode: POSITIVE
Collision energy: 100
Fragmentation mode: CID
Ionization: ESI
Column name: Zorbax Eclipse Plus C18 2.1 mm x 150 mm, 3.5 um, Agilent
Retention time: 4.565 min
Precursor m/z: 614.7769
Precursor type: [M+H]+
m/z	relative intensity
78.037	86
79.0435	72
90.0343	57
91.0437	144
102.0345	144
102.0504	72
105.0207	86
105.0576	57
106.0299	86
107.0359	72
119.0353	72
130.0277	188
131.0377	231
133.0508	159
135.0317	188
146.0247	72
147.0313	72
148.0626	57
158.0237	246
174.0223	101
176.0334	72
177.0416	999
187.0468	115
203.9263	130
204.9353	144
205.9448	57
229.9407	101
231.9254	130
232.9157	57
232.9345	231
245.9456	57
257.938	188
261.9337	72
272.9215	57
273.9346	202
284.9323	72
301.9315	144
355.8607	57
