Mass spectrum: Fenpropidin; LC-ESI-QTOF; MS2; 110 V
Name: Fenpropidin
Class: Fungicide
Formula: C19H31N
Exact mass: 273.2456
SMILES: CC(CC1=CC=C(C=C1)C(C)(C)C)CN2CCCCC2
InChI: InChI=1S/C19H31N/c1-16(15-20-12-6-5-7-13-20)14-17-8-10-18(11-9-17)19(2,3)4/h8-11,16H,5-7,12-15H2,1-4H3
Instrument: TripleTOF 6600 SCIEX
Instrument type: LC-ESI-QTOF
Ms type: MS2
Ion mode: POSITIVE
Collision energy: 110
Fragmentation mode: CID
Ionization: ESI
Column name: Zorbax Eclipse Plus C18 2.1 mm x 150 mm, 3.5 um, Agilent
Retention time: 9.471 min
Precursor m/z: 274.2529
Precursor type: [M+H]+
m/z	relative intensity
37.0075	46
38.0152	34
39.0233	216
41.0387	44
50.0154	23
51.023	83
56.0497	15
61.0064	11
62.0154	26
63.0229	60
65.0387	327
74.0141	12
75.0225	14
76.0308	13
77.0385	226
78.0462	77
79.054	29
84.0808	20
89.0382	114
91.0545	999
102.0464	50
103.0544	77
104.0624	17
105.0696	19
115.0542	942
116.0616	100
117.0697	189
127.0548	14
128.0617	32
