Mass spectrum: Terbutrynesulfoxide; LC-ESI-QTOF; MS2; 90 V
Name: Terbutrynesulfoxide
Class: Transformation_product; Herbicide; Pesticide; Transformation_product-Metabolite
Formula: C10H19N5OS
Exact mass: 257.131
SMILES: CCNC1=NC(=NC(=N1)S(=O)C)NC(C)(C)C
InChI: InChI=1S/C10H19N5OS/c1-6-11-7-12-8(15-10(2,3)4)14-9(13-7)17(5)16/h6H2,1-5H3,(H2,11,12,13,14,15)
Instrument: TripleTOF 5600 SCIEX
Instrument type: LC-ESI-QTOF
Ms type: MS2
Ion mode: POSITIVE
Collision energy: 90
Fragmentation mode: CID
Ionization: ESI
Column name: Zorbax Eclipse Plus C18 2.1 mm x 150 mm, 3.5 um, Agilent
Retention time: 8.816 min
Precursor m/z: 258.1383
Precursor type: [M+H]+
m/z	relative intensity
41.025	15
42.0351	27
42.0465	13
43.0426	314
44.0574	41
53.024	21
55.0382	41
56.0452	30
57.9832	49
59.0543	15
59.999	10
67.0363	17
68.0315	999
69.0152	604
69.038	106
70.0463	72
71.0668	44
71.996	54
84.0587	18
84.9908	351
86.0396	35
94.0433	35
96.0601	26
97.0542	21
111.0683	26
112.0646	37
121.054	21
