Mass spectrum: Metaflumizone; LC-ESI-QTOF; MS2; 120 V
Name: Metaflumizone
Class: Insecticide; Pharmaceutical
Formula: C24H16F6N4O2
Exact mass: 506.1177
SMILES: C1=CC(=CC(=C1)C(F)(F)F)C(=NNC(=O)NC2=CC=C(C=C2)OC(F)(F)F)CC3=CC=C(C=C3)C#N
InChI: InChI=1S/C24H16F6N4O2/c25-23(26,27)18-3-1-2-17(13-18)21(12-15-4-6-16(14-31)7-5-15)33-34-22(35)32-19-8-10-20(11-9-19)36-24(28,29)30/h1-11,13H,12H2,(H2,32,34,35)
Instrument: TripleTOF 6600 SCIEX
Instrument type: LC-ESI-QTOF
Ms type: MS2
Ion mode: NEGATIVE
Collision energy: 120
Fragmentation mode: CID
Ionization: ESI
Column name: Zorbax Eclipse Plus C18 2.1 mm x 150 mm, 3.5 um, Agilent
Retention time: 15.496 min
Precursor m/z: 505.1105
Precursor type: [M-H]-
m/z	relative intensity
41.9973	76
64.0178	57
66.0338	48
84.9887	115
88.018	57
90.0325	105
97.007	115
102.033	134
114.0331	76
115.0298	662
116.0511	67
117.0449	547
127.0299	48
137.0212	48
139.029	96
141.0457	999
165.0453	86
189.0472	48
198.035	96
212.0493	48
214.0522	48
215.062	220
218.0419	48
225.0454	336
245.0522	259
264.0489	67
265.0613	67
283.0467	38
285.0649	470
