Mass spectrum: Bisphenol-A bis(diphenyl phosphate); LC-ESI-QTOF; MS2; 70 V
Name: Bisphenol-A bis(diphenyl phosphate)
Class: Industrial_process
Formula: C39H34O8P2
Exact mass: 692.1729
SMILES: CC(C)(C1=CC=C(C=C1)OP(=O)(OC2=CC=CC=C2)OC3=CC=CC=C3)C4=CC=C(C=C4)OP(=O)(OC5=CC=CC=C5)OC6=CC=CC=C6
InChI: InChI=1S/C39H34O8P2/c1-39(2,31-23-27-37(28-24-31)46-48(40,42-33-15-7-3-8-16-33)43-34-17-9-4-10-18-34)32-25-29-38(30-26-32)47-49(41,44-35-19-11-5-12-20-35)45-36-21-13-6-14-22-36/h3-30H,1-2H3
Instrument: TripleTOF 6600 SCIEX
Instrument type: LC-ESI-QTOF
Ms type: MS2
Ion mode: POSITIVE
Collision energy: 70
Fragmentation mode: CID
Ionization: ESI
Column name: Zorbax Eclipse Plus C18 2.1 mm x 150 mm, 3.5 um, Agilent
Retention time: 17.714 min
Precursor m/z: 693.1802
Precursor type: [M+H]+
m/z	relative intensity
77.0378	14
91.0533	19
115.0539	71
117.0691	17
133.0642	13
152.0612	24
153.0693	36
155.0845	12
165.0691	28
168.0557	13
171.0794	11
177.0678	14
178.0776	221
179.025	49
180.0322	12
183.0795	27
183.1158	20
191.0841	11
211.111	30
215.0255	93
228.0927	12
229.1003	17
233.0355	49
239.0854	11
241.0999	17
245.0367	11
251.0463	55
253.1011	16
254.1086	18
255.057	69
273.067	74
291.0776	40
327.0783	104
339.078	110
367.1104	999
