Mass spectrum: 2-(2-Hydroxyphenyl)-1H-benzimidazole; LC-ESI-QTOF; MS2; 40 V
Name: 2-(2-Hydroxyphenyl)-1H-benzimidazole
Class: Industrial_process; Pharmaceutical
Formula: C13H10N2O
Exact mass: 210.0793
SMILES: C1=CC=C2C(=C1)NC(=C3C=CC=CC3=O)N2
InChI: InChI=1S/C13H10N2O/c16-12-8-4-1-5-9(12)13-14-10-6-2-3-7-11(10)15-13/h1-8,14-15H
Instrument: TripleTOF 5600 SCIEX
Instrument type: LC-ESI-QTOF
Ms type: MS2
Ion mode: NEGATIVE
Collision energy: 40
Fragmentation mode: CID
Ionization: ESI
Column name: Zorbax Eclipse Plus C18 2.1 mm x 150 mm, 3.5 um, Agilent
Retention time: 6.225 min
Precursor m/z: 209.072
Precursor type: [M-H]-
m/z	relative intensity
180.0708	548
181.0782	351
191.0628	133
209.0736	999
210.0754	139
