Mass spectrum: 6-Thioguanine; LC-ESI-QTOF; MS2; 20 V
Name: 6-Thioguanine
Class: Pharmaceutical
Formula: C5H5N5S
Exact mass: 167.0266
SMILES: C1=NC2=C(N1)C(=S)N=C(N2)N
InChI: InChI=1S/C5H5N5S/c6-5-9-3-2(4(11)10-5)7-1-8-3/h1H,(H4,6,7,8,9,10,11)
Instrument: TripleTOF 5600 SCIEX
Instrument type: LC-ESI-QTOF
Ms type: MS2
Ion mode: POSITIVE
Collision energy: 20
Fragmentation mode: CID
Ionization: ESI
Column name: Zorbax Eclipse Plus C18 2.1 mm x 150 mm, 3.5 um, Agilent
Retention time: 2.689 min
Precursor m/z: 168.0338
Precursor type: [M+H]+
m/z	relative intensity
126.0155	51
134.0473	80
151.0065	291
168.0341	999
