Mass spectrum: Boscalid; LC-ESI-QTOF; MS2; 110 V
Name: Boscalid
Class: Fungicide
Formula: C18H12Cl2N2O
Exact mass: 342.0327
SMILES: C1=CC=C(C(=C1)C2=CC=C(C=C2)Cl)NC(=O)C3=C(N=CC=C3)Cl
InChI: InChI=1S/C18H12Cl2N2O/c19-13-9-7-12(8-10-13)14-4-1-2-6-16(14)22-18(23)15-5-3-11-21-17(15)20/h1-11H,(H,22,23)
Instrument: TripleTOF 6600 SCIEX
Instrument type: LC-ESI-QTOF
Ms type: MS2
Ion mode: POSITIVE
Collision energy: 110
Fragmentation mode: CID
Ionization: ESI
Column name: Zorbax Eclipse Plus C18 2.1 mm x 150 mm, 3.5 um, Agilent
Retention time: 12.31 min
Precursor m/z: 343.04
Precursor type: [M+H]+
m/z	relative intensity
49.0071	97
50.0146	350
51.0226	668
52.0182	38
61.9786	84
63.0228	64
74.0138	45
75.0096	259
75.0218	51
76.0177	999
77.0378	38
78.0333	415
84.9837	103
87.0232	38
89.0384	25
98.015	45
102.0449	64
111.997	149
113.0367	110
114.0322	38
114.0453	38
115.0538	64
125.0381	32
126.046	129
137.0364	51
138.0321	32
139.0534	162
140.0491	136
149.0383	90
150.0454	356
151.0536	246
152.0612	162
162.0447	77
163.0539	246
164.0505	84
165.0657	71
166.065	45
173.0383	32
174.045	136
175.0445	123
176.0481	90
176.0606	58
177.056	136
179.0598	32
186.0452	64
187.0535	317
188.0522	259
189.0677	304
190.064	207
197.0355	38
198.0449	227
199.0395	58
199.0516	142
200.0612	246
201.0565	155
202.0637	90
203.0707	45
212.0494	77
213.0577	123
214.065	804
215.069	240
216.0694	142
223.0438	32
224.0502	58
225.0561	246
226.0629	123
227.0712	110
239.0614	51
240.0683	252
241.0743	356
242.0823	194
250.0499	51
251.0602	58
252.0658	38
270.0795	32
