Mass spectrum: Progesterone; LC-ESI-QTOF; MS2; 50 V
Name: Progesterone
Class: Pharmaceutical
Formula: C21H30O2
Exact mass: 314.2246
SMILES: CC(=O)[C@H]1CC[C@H]2[C@@H]3CCC4=CC(=O)CC[C@]4(C)[C@H]3CC[C@]12C
InChI: InChI=1S/C21H30O2/c1-13(22)17-6-7-18-16-5-4-14-12-15(23)8-10-20(14,2)19(16)9-11-21(17,18)3/h12,16-19H,4-11H2,1-3H3/t16-,17+,18-,19-,20-,21+/m0/s1
Instrument: TripleTOF 5600 SCIEX
Instrument type: LC-ESI-QTOF
Ms type: MS2
Ion mode: POSITIVE
Collision energy: 50
Fragmentation mode: CID
Ionization: ESI
Column name: Zorbax Eclipse Plus C18 2.1 mm x 150 mm, 3.5 um, Agilent
Retention time: 13.796 min
Precursor m/z: 315.2319
Precursor type: [M+H]+
m/z	relative intensity
43.0258	58
65.0435	14
67.0593	54
69.0728	36
77.0413	80
79.0579	250
81.0729	206
83.0518	36
91.056	99
93.0715	61
95.0865	68
97.0671	845
105.0704	102
107.0501	13
107.0852	34
109.0663	999
117.0695	24
119.0861	67
121.0642	21
121.101	21
123.0807	118
128.0608	11
129.0709	22
131.0848	45
133.1002	33
142.0775	10
143.085	29
144.0945	10
145.1012	45
147.1172	16
149.0954	11
155.0876	10
157.1008	21
159.116	31
171.1151	20
173.1329	18
183.1179	12
185.1309	10
197.1355	9
