Mass spectrum: Cyclopropyltriphenylphosphonium; LC-ESI-QTOF; MS2; 150 V
Name: Cyclopropyltriphenylphosphonium
Formula: [C21H20P]+
Exact mass: 303.1297
SMILES: C1CC1[P+](C2=CC=CC=C2)(C3=CC=CC=C3)C4=CC=CC=C4
InChI: InChI=1S/C21H20P/c1-4-10-18(11-5-1)22(21-16-17-21,19-12-6-2-7-13-19)20-14-8-3-9-15-20/h1-15,21H,16-17H2/q+1
Instrument: TripleTOF 6600 SCIEX
Instrument type: LC-ESI-QTOF
Ms type: MS2
Ion mode: POSITIVE
Collision energy: 150
Fragmentation mode: CID
Ionization: ESI
Column name: Zorbax Eclipse Plus C18 2.1 mm x 150 mm, 3.5 um, Agilent
Retention time: 7.786 min
Precursor m/z: 303.1297
Precursor type: [M]+
m/z	relative intensity
39.0276	390
50.0191	217
51.027	231
55.985	190
56.9927	334
61.0109	225
62.0186	433
63.0266	794
65.0421	278
67.9845	163
74.0182	383
75.0259	141
76.034	193
77.0416	181
78.0493	54
78.976	340
79.9839	874
80.9915	867
86.017	214
87.0247	217
89.0402	483
91.9826	161
98.017	220
102.0481	179
102.9746	90
103.9822	236
104.9901	90
107.0063	999
113.04	132
115.0559	248
126.048	313
131.0058	93
139.0553	130
150.0479	564
151.0557	343
152.0636	175
155.0059	157
156.0134	61
157.0207	78
179.0048	170
180.0133	167
181.0208	241
