Mass spectrum: Candesartan; LC-ESI-QTOF; MS2; 130 V
Name: Candesartan
Class: Pharmaceutical
Formula: C24H20N6O3
Exact mass: 440.1597
SMILES: CCOc1nc2cccc(C(O)=O)c2n1Cc3ccc(cc3)c4ccccc4c5n[nH]nn5
InChI: InChI=1S/C24H20N6O3/c1-2-33-24-25-20-9-5-8-19(23(31)32)21(20)30(24)14-15-10-12-16(13-11-15)17-6-3-4-7-18(17)22-26-28-29-27-22/h3-13H,2,14H2,1H3,(H,31,32)(H,26,27,28,29)
Instrument: TripleTOF 5600 SCIEX
Instrument type: LC-ESI-QTOF
Ms type: MS2
Ion mode: POSITIVE
Collision energy: 130
Fragmentation mode: CID
Ionization: ESI
Column name: Zorbax Eclipse Plus C18 2.1 mm x 150 mm, 3.5 um, Agilent
Retention time: 10.001 min
Precursor m/z: 441.167
Precursor type: [M+H]+
m/z	relative intensity
51.0288	59
65.0429	26
74.0178	14
75.0261	45
76.034	14
77.0413	139
78.0363	78
80.0514	9
86.0181	11
87.0245	28
88.034	13
89.0405	74
90.0345	28
91.0571	11
98.0143	11
99.024	17
101.0384	32
102.0336	16
102.0463	55
105.0449	128
113.0389	97
114.0454	31
115.0541	189
125.0386	67
126.0464	144
127.054	144
128.0615	77
129.0466	11
137.0379	64
138.0339	11
138.0463	54
139.0541	219
140.0499	209
149.039	42
150.0465	422
151.0546	966
152.0624	999
153.0577	41
161.0383	25
162.0468	104
163.0546	627
164.0564	584
165.0698	395
166.0639	39
174.0479	9
175.0521	41
176.0623	434
177.0588	344
178.0663	256
179.0721	53
180.0829	17
188.0498	149
189.0572	139
190.0653	480
191.0674	88
192.0769	33
202.0649	12
203.06	23
204.0653	14
205.0768	169
214.0639	17
217.0739	11
218.0835	14
224.0623	21
225.0608	12
226.0743	16
237.0679	9
238.0657	28
249.0565	17
251.0716	26
252.0782	13
263.0629	15
264.0777	23
265.0789	27
276.0698	12
