Mass spectrum: Oxibendazole; LC-ESI-QTOF; MS2; 130 V
Name: Oxibendazole
Class: Pharmaceutical
Formula: C12H15N3O3
Exact mass: 249.1113
SMILES: CCCOC1=CC2=C(C=C1)N=C(N2)NC(=O)OC
InChI: InChI=1S/C12H15N3O3/c1-3-6-18-8-4-5-9-10(7-8)14-11(13-9)15-12(16)17-2/h4-5,7H,3,6H2,1-2H3,(H2,13,14,15,16)
Instrument: TripleTOF 5600 SCIEX
Instrument type: LC-ESI-QTOF
Ms type: MS2
Ion mode: POSITIVE
Collision energy: 130
Fragmentation mode: CID
Ionization: ESI
Column name: Zorbax Eclipse Plus C18 2.1 mm x 150 mm, 3.5 um, Agilent
Retention time: 6.663 min
Precursor m/z: 250.1186
Precursor type: [M+H]+
m/z	relative intensity
37.0074	205
38.0153	235
39.0226	528
40.018	235
41.0256	176
49.0073	146
50.0151	999
51.0104	146
51.0226	969
52.0175	969
52.0299	323
53.0014	117
53.0378	411
62.0146	146
63.0237	146
64.018	411
65.013	176
65.0257	411
66.0214	176
66.0336	440
68.013	352
69.0083	440
75.0106	675
76.0181	910
77.0253	146
78.0344	235
81.0333	264
92.0357	205
