Mass spectrum: Azacyclonol; LC-ESI-QTOF; MS2; 70 V
Name: Azacyclonol
Class: Pharmaceutical
Formula: C18H21NO
Exact mass: 267.1623
SMILES: OC(C1CCNCC1)(C2=CC=CC=C2)C3=CC=CC=C3
InChI: InChI=1S/C18H21NO/c20-18(15-7-3-1-4-8-15,16-9-5-2-6-10-16)17-11-13-19-14-12-17/h1-10,17,19-20H,11-14H2
Instrument: TripleTOF 5600 SCIEX
Instrument type: LC-ESI-QTOF
Ms type: MS2
Ion mode: POSITIVE
Collision energy: 70
Fragmentation mode: CID
Ionization: ESI
Column name: Zorbax Eclipse Plus C18 2.1 mm x 150 mm, 3.5 um, Agilent
Retention time: 6.644 min
Precursor m/z: 268.1696
Precursor type: [M+H]+
m/z	relative intensity
39.0236	14
42.0339	23
44.05	14
51.0228	12
56.0496	23
63.0225	14
65.0387	280
67.0413	15
68.0501	20
77.0387	205
78.0455	18
79.0543	70
80.0495	15
82.0652	58
89.0385	18
91.0545	999
102.0474	43
103.0545	127
105.0699	80
115.0548	298
116.0622	15
117.0581	23
117.0702	38
126.0478	28
127.0548	202
128.0626	871
129.0696	21
130.0648	34
141.0708	43
142.0778	14
144.0779	14
151.0549	16
152.0629	126
164.0619	19
165.0709	223
166.0792	23
178.0784	73
189.0729	34
190.079	12
191.0873	41
202.0772	38
203.0879	24
