Mass spectrum: (Methoxymethyl)diphenylphosphine oxide; LC-ESI-QTOF; MS2; 110 V
Name: (Methoxymethyl)diphenylphosphine oxide
Class: Industrial_process
Formula: C14H15O2P
Exact mass: 246.081
SMILES: COC[P](=O)(c1ccccc1)c2ccccc2
InChI: InChI=1S/C14H15O2P/c1-16-12-17(15,13-8-4-2-5-9-13)14-10-6-3-7-11-14/h2-11H,12H2,1H3
Instrument: TripleTOF 5600 SCIEX
Instrument type: LC-ESI-QTOF
Ms type: MS2
Ion mode: POSITIVE
Collision energy: 110
Fragmentation mode: CID
Ionization: ESI
Column name: Zorbax Eclipse Plus C18 2.1 mm x 150 mm, 3.5 um, Agilent
Retention time: 8.67 min
Precursor m/z: 247.0882
Precursor type: [M+H]+
m/z	relative intensity
45.0433	999
56.9951	162
65.0445	267
74.0184	92
76.0328	81
77.0419	267
78.0491	81
78.9787	58
79.983	209
80.991	360
86.0173	81
87.0249	174
89.0405	336
91.0564	92
98.0156	92
100.0335	58
102.046	162
103.9809	116
104.9881	58
107.0052	836
113.0407	139
115.0561	220
126.0477	336
128.0668	46
131.0051	139
137.0403	46
139.0536	243
150.0475	406
151.0553	522
152.0639	394
155.006	92
156.0137	139
157.0217	243
179.0026	92
180.0108	127
181.0206	360
