Mass spectrum: Napropamide; LC-ESI-QTOF; MS2; 140 V
Name: Napropamide
Class: Herbicide
Formula: C17H21NO2
Exact mass: 271.1572
SMILES: CCN(CC)C(=O)C(C)Oc1cccc2c1cccc2
InChI: InChI=1S/C17H21NO2/c1-4-18(5-2)17(19)13(3)20-16-12-8-10-14-9-6-7-11-15(14)16/h6-13H,4-5H2,1-3H3
Instrument: TripleTOF 6600 SCIEX
Instrument type: LC-ESI-QTOF
Ms type: MS2
Ion mode: POSITIVE
Collision energy: 140
Fragmentation mode: CID
Ionization: ESI
Column name: Zorbax Eclipse Plus C18 2.1 mm x 150 mm, 3.5 um, Agilent
Retention time: 12.596 min
Precursor m/z: 272.1645
Precursor type: [M+H]+
m/z	relative intensity
37.0084	96
38.0027	153
39.0228	288
42.034	230
44.013	499
44.0495	461
49.0072	192
50.0152	768
51.0229	999
52.0306	134
53.0137	134
61.0083	211
62.0149	499
63.0228	826
65.0385	249
73.0074	134
74.0149	999
75.0232	499
76.0305	288
77.0384	576
78.0464	153
85.0075	115
86.0148	230
87.0235	211
89.0382	441
98.0151	172
99.0221	76
102.0453	288
115.0539	461
126.0463	230
127.0553	96
150.0469	172
