Mass spectrum: 4,4`-Thiodianiline; LC-ESI-QTOF; MS2; 150 V
Name: 4,4`-Thiodianiline
Formula: C12H12N2S
Exact mass: 216.0721
SMILES: C1=CC(=CC=C1N)SC2=CC=C(C=C2)N
InChI: InChI=1S/C12H12N2S/c13-9-1-5-11(6-2-9)15-12-7-3-10(14)4-8-12/h1-8H,13-14H2
Instrument: TripleTOF 6600 SCIEX
Instrument type: LC-ESI-QTOF
Ms type: MS2
Ion mode: POSITIVE
Collision energy: 150
Fragmentation mode: CID
Ionization: ESI
Column name: Zorbax Eclipse Plus C18 2.1 mm x 150 mm, 3.5 um, Agilent
Retention time: 6.429 min
Precursor m/z: 217.0794
Precursor type: [M+H]+
m/z	relative intensity
37.0069	237
38.0144	118
39.0222	380
44.9784	214
49.0066	309
50.0145	999
51.0213	166
52.0171	118
53.0384	214
61.0059	237
62.015	261
63.0217	214
67.9702	118
68.9786	666
73.0074	214
74.0137	880
85.0058	285
86.0149	142
