Mass spectrum: Tris(4-methylphenyl) phosphate; LC-ESI-QTOF; MS2; 50 V
Name: Tris(4-methylphenyl) phosphate
Class: Industrial_process
Formula: C21H21O4P
Exact mass: 368.1177
SMILES: CC1=CC=C(C=C1)OP(=O)(OC2=CC=C(C=C2)C)OC3=CC=C(C=C3)C
InChI: InChI=1S/C21H21O4P/c1-16-4-10-19(11-5-16)23-26(22,24-20-12-6-17(2)7-13-20)25-21-14-8-18(3)9-15-21/h4-15H,1-3H3
Instrument: TripleTOF 6600 SCIEX
Instrument type: LC-ESI-QTOF
Ms type: MS2
Ion mode: POSITIVE
Collision energy: 50
Fragmentation mode: CID
Ionization: ESI
Column name: Zorbax Eclipse Plus C18 2.1 mm x 150 mm, 3.5 um, Agilent
Retention time: 15.924 min
Precursor m/z: 369.125
Precursor type: [M+H]+
m/z	relative intensity
65.0379	154
77.0377	29
79.0534	40
91.0538	645
107.0486	90
109.064	19
141.0698	32
152.0614	23
153.0101	20
153.0696	36
165.0708	999
166.0784	577
178.078	60
179.0857	65
180.0935	20
181.0659	19
181.1009	33
189.0319	17
195.0813	59
196.0893	208
215.063	32
239.0871	15
240.0955	26
241.1027	79
243.0591	283
255.1188	50
256.1267	37
261.0693	27
279.0809	86
369.1288	11
