Mass spectrum: Enilconazole; LC-ESI-QTOF; MS2; 80 V
Name: Enilconazole
Class: Pharmaceutical; Fungicide
Formula: C14H14Cl2N2O
Exact mass: 296.0483
SMILES: Clc1ccc(C(Cn2ccnc2)OCC=C)c(Cl)c1
InChI: InChI=1S/C14H14Cl2N2O/c1-2-7-19-14(9-18-6-5-17-10-18)12-4-3-11(15)8-13(12)16/h2-6,8,10,14H,1,7,9H2
Instrument: TripleTOF 5600 SCIEX
Instrument type: LC-ESI-QTOF
Ms type: MS2
Ion mode: POSITIVE
Collision energy: 80
Fragmentation mode: CID
Ionization: ESI
Column name: Zorbax Eclipse Plus C18 2.1 mm x 150 mm, 3.5 um, Agilent
Retention time: 8.159 min
Precursor m/z: 297.0556
Precursor type: [M+H]+
m/z	relative intensity
54.0394	97
67.044	146
69.0475	999
69.0701	121
72.9845	146
75.025	146
81.0461	609
82.0581	97
89.0399	730
99.0006	341
101.039	170
102.0476	268
103.054	194
115.0525	511
122.9998	974
124.0067	365
128.0615	194
132.9607	170
138.0237	121
141.0669	194
158.9753	706
