Mass spectrum: Diphenylphosphinamide; LC-ESI-QTOF; MS2; 100 V
Name: Diphenylphosphinamide
Formula: C12H12NOP
Exact mass: 217.0657
SMILES: C1=CC=C(C=C1)P(=O)(C2=CC=CC=C2)N
InChI: InChI=1S/C12H12NOP/c13-15(14,11-7-3-1-4-8-11)12-9-5-2-6-10-12/h1-10H,(H2,13,14)
Instrument: TripleTOF 5600 SCIEX
Instrument type: LC-ESI-QTOF
Ms type: MS2
Ion mode: POSITIVE
Collision energy: 100
Fragmentation mode: CID
Ionization: ESI
Column name: Zorbax Eclipse Plus C18 2.1 mm x 150 mm, 3.5 um, Agilent
Retention time: 7.411 min
Precursor m/z: 218.0729
Precursor type: [M+H]+
m/z	relative intensity
45.9846	32
46.9683	57
49.0075	85
50.0156	461
51.0235	999
63.0222	25
63.9955	25
65.0385	14
67.9808	35
68.9893	60
74.0155	50
75.0219	17
76.0302	17
77.0386	300
78.0462	21
89.0394	21
102.0467	35
107.0042	46
115.0546	21
126.0465	28
127.0545	17
150.0438	28
151.0524	25
152.0636	53
