Mass spectrum: Fenarimol; LC-ESI-QTOF; MS2; 60 V
Name: Fenarimol
Class: Fungicide
Formula: C17H12Cl2N2O
Exact mass: 330.0327
SMILES: C1=CC=C(C(=C1)C(C2=CC=C(C=C2)Cl)(C3=CN=CN=C3)O)Cl
InChI: InChI=1S/C17H12Cl2N2O/c18-14-7-5-12(6-8-14)17(22,13-9-20-11-21-10-13)15-3-1-2-4-16(15)19/h1-11,22H
Instrument: TripleTOF 6600 SCIEX
Instrument type: LC-ESI-QTOF
Ms type: MS2
Ion mode: POSITIVE
Collision energy: 60
Fragmentation mode: CID
Ionization: ESI
Column name: Zorbax Eclipse Plus C18 2.1 mm x 150 mm, 3.5 um, Agilent
Retention time: 11.9 min
Precursor m/z: 331.04
Precursor type: [M+H]+
m/z	relative intensity
52.0182	9
54.0337	212
75.0221	47
81.0448	542
110.9992	361
128.0495	14
129.0437	11
130.0643	20
137.0151	9
138.996	975
152.0625	18
157.0765	11
158.0591	17
164.0264	12
165.07	33
176.0619	28
177.0694	25
178.0776	92
187.0538	33
188.0608	48
189.0703	999
192.022	11
199.0306	33
203.074	25
204.0806	160
205.0657	91
205.0856	28
212.0394	18
214.0652	28
215.0736	15
216.081	89
217.0655	42
217.086	14
219.0306	29
223.0313	182
224.0368	17
232.0758	42
232.9923	53
233.0833	56
238.0417	83
240.058	55
241.0423	59
242.0834	40
243.0915	15
250.0417	42
251.0268	11
251.0505	28
252.0346	66
259.0076	42
266.0376	39
268.0529	29
277.0518	11
