Mass spectrum: Flecainide meta-O-dealkylated; LC-ESI-QTOF; MS2; 60 V
Name: Flecainide meta-O-dealkylated
Class: Pharmaceutical; Transformation_product
Formula: C15H19F3N2O3
Exact mass: 332.1348
SMILES: C1CCNC(C1)CNC(=O)C2=C(C=CC(=C2)O)OCC(F)(F)F
InChI: InChI=1S/C15H19F3N2O3/c16-15(17,18)9-23-13-5-4-11(21)7-12(13)14(22)20-8-10-3-1-2-6-19-10/h4-5,7,10,19,21H,1-3,6,8-9H2,(H,20,22)
Instrument: TripleTOF 5600 SCIEX
Instrument type: LC-ESI-QTOF
Ms type: MS2
Ion mode: POSITIVE
Collision energy: 60
Fragmentation mode: CID
Ionization: ESI
Column name: Zorbax Eclipse Plus C18 2.1 mm x 150 mm, 3.5 um, Agilent
Retention time: 5.586 min
Precursor m/z: 333.1421
Precursor type: [M+H]+
m/z	relative intensity
44.0615	22
56.0575	17
65.0438	37
77.0419	23
79.0573	87
80.0288	153
81.0728	109
82.0077	26
82.0687	80
84.083	48
93.0346	20
95.0289	24
97.0901	14
98.0968	138
99.0242	156
105.0327	28
108.0198	391
115.0332	17
121.0271	22
125.0384	19
127.0172	732
133.0264	27
135.0298	18
136.0132	999
137.0214	93
143.0274	292
149.021	24
155.0113	377
164.0301	14
171.0217	302
172.0292	49
199.0159	151
205.0416	12
216.0973	60
219.0219	540
232.0899	34
