Mass spectrum: 6-Acetylcodeine; LC-ESI-QTOF; MS2; 50 V
Name: 6-Acetylcodeine
Class: Pharmaceutical; Transformation_product
Formula: C20H23NO4
Exact mass: 341.1627
SMILES: CC(=O)OC1C=CC2C3CC4=C5C2(C1OC5=C(C=C4)OC)CCN3C
InChI: InChI=1S/C20H23NO4/c1-11(22)24-16-7-5-13-14-10-12-4-6-15(23-3)18-17(12)20(13,19(16)25-18)8-9-21(14)2/h4-7,13-14,16,19H,8-10H2,1-3H3
Instrument: TripleTOF 5600 SCIEX
Instrument type: LC-ESI-QTOF
Ms type: MS2
Ion mode: POSITIVE
Collision energy: 50
Fragmentation mode: CID
Ionization: ESI
Column name: Zorbax Eclipse Plus C18 2.1 mm x 150 mm, 3.5 um, Agilent
Retention time: 6.207 min
Precursor m/z: 342.17
Precursor type: [M+H]+
m/z	relative intensity
43.0265	97
44.0571	39
58.0707	146
77.0417	16
91.0549	28
94.0652	15
103.053	9
105.0696	13
115.0542	37
121.0641	28
127.0537	16
128.0612	33
129.0697	29
131.0473	15
132.0795	10
137.0592	67
139.0524	9
141.0697	87
143.0475	14
144.0566	55
144.0794	20
145.0638	19
146.0586	18
151.0547	14
152.0622	155
153.0694	231
154.0766	129
155.0505	14
155.0851	150
156.0566	32
157.0641	37
158.0718	47
159.0431	12
159.0797	61
160.0503	15
160.0766	20
161.0593	101
164.062	38
165.07	999
166.0766	156
167.0852	312
168.0565	97
169.0644	45
169.1009	50
170.0738	22
171.045	24
171.0793	121
172.0536	29
172.0874	48
174.0661	23
175.075	78
176.0617	47
177.0699	201
178.0773	151
179.0855	197
180.0564	87
180.0937	27
181.0646	454
181.0976	24
182.072	332
183.0449	18
183.0795	214
184.0504	23
184.0829	16
185.0596	80
185.0942	18
186.0665	55
187.0755	85
187.1106	28
189.0691	45
189.0894	10
190.0778	86
191.0855	226
192.0575	39
192.0993	26
193.0645	254
193.0997	43
194.0724	243
195.08	236
196.0507	16
196.0877	28
197.0609	27
197.0953	394
198.0669	94
199.0749	234
200.0811	48
201.0696	69
201.0882	28
202.0771	50
203.0852	40
204.0956	11
205.064	86
206.0719	34
206.096	13
207.0438	14
207.0797	140
208.0512	16
208.0878	94
209.06	229
209.0938	62
210.0674	736
211.0749	99
212.0461	17
212.0816	33
213.0546	17
213.091	96
215.106	193
218.0734	44
219.0802	130
220.0877	65
220.1094	63
221.0592	126
221.0948	47
222.0661	51
222.0917	12
222.1267	19
223.0748	335
224.0827	46
224.1052	18
225.0546	12
225.0904	916
226.063	25
226.0941	20
227.069	24
228.0759	33
234.0913	14
235.0754	57
236.0818	122
237.0895	83
238.0929	42
238.1226	19
239.068	10
239.1007	47
240.1387	19
241.0854	134
241.1254	10
243.1014	57
248.1065	57
250.0946	12
250.1216	77
251.1045	91
252.1009	71
253.1196	22
266.1168	216
267.1244	61
268.1329	28
269.1148	21
282.1469	60
283.0949	12
300.1572	22
342.1692	164
