Mass spectrum: Phenylphosphoric acid; LC-ESI-QTOF; MS2; 30 V
Name: Phenylphosphoric acid
Class: Industrial_process
Formula: C6H7O4P
Exact mass: 174.0082
SMILES: C1=CC=C(C=C1)OP(=O)(O)O
InChI: InChI=1S/C6H7O4P/c7-11(8,9)10-6-4-2-1-3-5-6/h1-5H,(H2,7,8,9)
Instrument: TripleTOF 5600 SCIEX
Instrument type: LC-ESI-QTOF
Ms type: MS2
Ion mode: POSITIVE
Collision energy: 30
Fragmentation mode: CID
Ionization: ESI
Column name: Zorbax Eclipse Plus C18 2.1 mm x 150 mm, 3.5 um, Agilent
Retention time: 3.47 min
Precursor m/z: 175.0155
Precursor type: [M+H]+
m/z	relative intensity
51.0229	48
77.039	999
120.955	48
138.962	69
157.0044	32
175.0148	91
