Mass spectrum: 4,4-Chlorophenoxyphenol; LC-ESI-QTOF; MS2; 20 V
Name: 4,4-Chlorophenoxyphenol
Class: Herbicide
Formula: C12H9ClO2
Exact mass: 220.0291
SMILES: c1cc(ccc1O)Oc2ccc(cc2)Cl
InChI: InChI=1S/C12H9ClO2/c13-9-1-5-11(6-2-9)15-12-7-3-10(14)4-8-12/h1-8,14H
Instrument: TripleTOF 5600 SCIEX
Instrument type: LC-ESI-QTOF
Ms type: MS2
Ion mode: POSITIVE
Collision energy: 20
Fragmentation mode: CID
Ionization: ESI
Column name: Zorbax Eclipse Plus C18 2.1 mm x 150 mm, 3.5 um, Agilent
Retention time: 12.354 min
Precursor m/z: 221.0364
Precursor type: [M+H]+
m/z	relative intensity
57.0751	109
69.076	40
81.071	40
83.0533	28
91.0541	28
93.0719	34
94.0409	155
105.0678	34
109.0287	173
109.0659	86
110.0361	46
111.0806	496
119.0848	80
121.064	213
123.08	69
126.9946	138
128.001	75
130.0704	28
135.08	75
137.0605	46
139.0538	40
147.0786	51
151.0725	46
157.0654	80
158.0741	63
165.0228	28
165.0342	28
167.0528	57
168.0583	109
185.0591	230
186.0676	814
203.0261	57
221.0355	999
