Mass spectrum: Flecainide; LC-ESI-QTOF; MS2; 40 V
Name: Flecainide
Class: Pharmaceutical
Formula: C17H20F6N2O3
Exact mass: 414.1378
SMILES: FC(F)(F)COc1ccc(OCC(F)(F)F)c(c1)C(=O)NCC2CCCCN2
InChI: InChI=1S/C17H20F6N2O3/c18-16(19,20)9-27-12-4-5-14(28-10-17(21,22)23)13(7-12)15(26)25-8-11-3-1-2-6-24-11/h4-5,7,11,24H,1-3,6,8-10H2,(H,25,26)
Instrument: TripleTOF 5600 SCIEX
Instrument type: LC-ESI-QTOF
Ms type: MS2
Ion mode: POSITIVE
Collision energy: 40
Fragmentation mode: CID
Ionization: ESI
Column name: Zorbax Eclipse Plus C18 2.1 mm x 150 mm, 3.5 um, Agilent
Retention time: 7.983 min
Precursor m/z: 415.1451
Precursor type: [M+H]+
m/z	relative intensity
79.0567	25
81.0731	109
82.0672	15
84.0828	20
98.098	269
209.0222	15
218.0191	21
232.0978	118
237.0176	23
253.0293	15
281.023	15
287.0511	16
298.1048	20
301.0298	748
315.1085	95
318.0568	23
398.1188	999
415.1462	184
