Mass spectrum: Disperse Orange 37; LC-ESI-QTOF; MS2; 40 V
Name: Disperse Orange 37
Formula: C17H15Cl2N5O2
Exact mass: 391.0603
SMILES: CCN(CCC#N)C1=CC=C(C=C1)N=NC2=C(C=C(C=C2Cl)[N+](=O)[O-])Cl
InChI: InChI=1S/C17H15Cl2N5O2/c1-2-23(9-3-8-20)13-6-4-12(5-7-13)21-22-17-15(18)10-14(24(25)26)11-16(17)19/h4-7,10-11H,2-3,9H2,1H3
Instrument: TripleTOF X500R SCIEX
Instrument type: LC-ESI-QTOF
Ms type: MS2
Ion mode: POSITIVE
Collision energy: 40
Fragmentation mode: CID
Ionization: ESI
Column name: Zorbax Eclipse Plus C18 2.1 mm x 150 mm, 3.5 um, Agilent
Retention time: 15.169 min
Precursor m/z: 392.0676
Precursor type: [M+H]+
m/z	relative intensity
92.049	18
104.0497	19
105.0574	36
106.9454	14
118.0652	19
119.0605	20
120.0813	178
133.0891	222
134.0967	53
143.9544	23
145.0765	104
147.0918	94
148.0873	24
171.9605	9
172.0868	38
173.1085	12
187.1118	26
189.9467	87
217.9524	57
277.0174	45
305.0488	236
317.0804	82
323.01	433
346.0762	27
350.9949	14
351.041	999
352.0483	88
392.0673	9
