Mass spectrum: Simvastatin; LC-ESI-QTOF; MS2; 140 V
Name: Simvastatin
Class: Pharmaceutical
Formula: C25H38O5
Exact mass: 418.2719
SMILES: CCC(C)(C)C(=O)O[C@H]1C[C@@H](C)C=C2C=C[C@H](C)[C@H](CC[C@@H]3C[C@@H](O)CC(=O)O3)[C@@H]12
InChI: InChI=1S/C25H38O5/c1-6-25(4,5)24(28)30-21-12-15(2)11-17-8-7-16(3)20(23(17)21)10-9-19-13-18(26)14-22(27)29-19/h7-8,11,15-16,18-21,23,26H,6,9-10,12-14H2,1-5H3/t15-,16-,18+,19+,20-,21-,23-/m0/s1
Instrument: TripleTOF 5600 SCIEX
Instrument type: LC-ESI-QTOF
Ms type: MS2
Ion mode: POSITIVE
Collision energy: 140
Fragmentation mode: CID
Ionization: ESI
Column name: Zorbax Eclipse Plus C18 2.1 mm x 150 mm, 3.5 um, Agilent
Retention time: 15.438 min
Precursor m/z: 419.2792
Precursor type: [M+H]+
m/z	relative intensity
65.0434	146
77.0412	426
79.0594	132
91.0555	308
102.0488	117
103.0567	73
105.0712	102
115.0539	866
126.0435	73
127.0532	470
128.0621	999
129.0702	176
141.0685	470
143.0867	73
152.0623	235
153.07	102
153.0766	73
165.0718	176
