Mass spectrum: Remdesivir; LC-ESI-QTOF; MS2; 100 V
Name: Remdesivir
Class: Pharmaceutical
Formula: C27H35N6O8P
Exact mass: 602.2254
SMILES: CCC(CC)COC(=O)C(C)NP(=O)(OCC1C(C(C(O1)(C#N)C2=CC=C3N2N=CN=C3N)O)O)OC4=CC=CC=C4
InChI: InChI=1S/C27H35N6O8P/c1-4-18(5-2)13-38-26(36)17(3)32-42(37,41-19-9-7-6-8-10-19)39-14-21-23(34)24(35)27(15-28,40-21)22-12-11-20-25(29)30-16-31-33(20)22/h6-12,16-18,21,23-24,34-35H,4-5,13-14H2,1-3H3,(H,32,37)(H2,29,30,31)
Instrument: TripleTOF 6600 SCIEX
Instrument type: LC-ESI-QTOF
Ms type: MS2
Ion mode: POSITIVE
Collision energy: 100
Fragmentation mode: CID
Ionization: ESI
Column name: Zorbax Eclipse Plus C18 2.1 mm x 150 mm, 3.5 um, Agilent
Retention time: 9.974 min
Precursor m/z: 603.2327
Precursor type: [M+H]+
m/z	relative intensity
39.023	58
41.0383	28
42.0336	17
43.0284	17
43.0422	12
43.0543	87
44.0494	574
51.0228	12
67.0176	105
77.0382	560
78.033	80
78.9935	39
79.9893	97
87.9941	43
91.0533	62
92.0485	12
93.0442	26
93.0687	39
95.0487	462
103.0287	55
103.0538	235
104.0367	12
104.0492	32
105.0442	322
106.0047	339
117.0438	11
118.0649	28
119.0233	46
119.0593	82
120.0551	61
120.0798	117
121.0386	19
121.064	403
124.0149	53
129.0441	41
130.0389	136
131.024	21
131.0477	55
132.0543	38
133.0395	15
134.058	11
135.0659	99
137.0146	87
138.9932	19
141.0095	26
146.07	48
147.066	942
156.0199	49
156.0554	18
157.0043	36
158.0343	24
158.0609	9
159.0656	38
161.0454	123
164.0249	97
165.0096	999
172.0621	79
173.067	11
173.0815	78
174.0769	65
175.0145	58
175.0609	83
182.0361	367
183.0204	252
199.013	15
200.047	790
201.0772	14
202.0714	41
229.0715	14
