Mass spectrum: Propiconazole; LC-ESI-QTOF; MS2; 120 V
Name: Propiconazole
Class: Fungicide
Formula: C15H17Cl2N3O2
Exact mass: 341.0698
SMILES: CCCC1COC(Cn2cncn2)(O1)c3ccc(Cl)cc3Cl
InChI: InChI=1S/C15H17Cl2N3O2/c1-2-3-12-7-21-15(22-12,8-20-10-18-9-19-20)13-5-4-11(16)6-14(13)17/h4-6,9-10,12H,2-3,7-8H2,1H3
Instrument: TripleTOF 5600 SCIEX
Instrument type: LC-ESI-QTOF
Ms type: MS2
Ion mode: POSITIVE
Collision energy: 120
Fragmentation mode: CID
Ionization: ESI
Column name: Zorbax Eclipse Plus C18 2.1 mm x 150 mm, 3.5 um, Agilent
Retention time: 13.45 min
Precursor m/z: 342.0771
Precursor type: [M+H]+
m/z	relative intensity
69.0735	14
70.0434	30
72.9881	432
74.0189	323
75.0259	50
82.947	36
84.9858	10
87.025	20
88.0324	69
89.0414	999
96.9846	155
99.0001	190
106.9438	16
108.9843	268
109.9907	11
122.9997	306
124.0069	78
132.9604	86
144.9606	40
158.9762	75
172.9664	10
