Mass spectrum: Ecgonine ethyl ester; LC-ESI-QTOF; MS2; 100 V
Name: Ecgonine ethyl ester
Formula: C11H19NO3
Exact mass: 213.1365
SMILES: CCOC(=O)C1C2CCC(N2C)CC1O
InChI: InChI=1S/C11H19NO3/c1-3-15-11(14)10-8-5-4-7(12(8)2)6-9(10)13/h7-10,13H,3-6H2,1-2H3
Instrument: TripleTOF 6600 SCIEX
Instrument type: LC-ESI-QTOF
Ms type: MS2
Ion mode: POSITIVE
Collision energy: 100
Fragmentation mode: CID
Ionization: ESI
Column name: Zorbax Eclipse Plus C18 2.1 mm x 150 mm, 3.5 um, Agilent
Retention time: 2.108 min
Precursor m/z: 214.1438
Precursor type: [M+H]+
m/z	relative intensity
35.9996	83
37.0086	249
38.0163	249
39.024	999
40.0203	83
41.0271	249
41.0396	333
42.0353	416
43.0179	83
43.0433	83
51.0235	416
52.0322	83
53.0387	249
54.0349	83
55.0554	166
56.0497	166
57.0568	83
65.0386	333
67.0427	582
67.0548	83
68.0495	416
77.0378	83
77.0416	83
78.0349	166
79.0422	499
80.0494	582
82.0663	333
91.0582	249
94.0659	249
