Mass spectrum: Disperse brown 1; LC-ESI-QTOF; MS2; 130 V
Name: Disperse brown 1
Formula: C16H15Cl3N4O4
Exact mass: 432.0159
SMILES: C1=CC(=C(C=C1N(CCO)CCO)Cl)N=NC2=C(C=C(C=C2Cl)[N+](=O)[O-])Cl
InChI: InChI=1S/C16H15Cl3N4O4/c17-12-7-10(22(3-5-24)4-6-25)1-2-15(12)20-21-16-13(18)8-11(23(26)27)9-14(16)19/h1-2,7-9,24-25H,3-6H2
Instrument: TripleTOF 6600 SCIEX
Instrument type: LC-ESI-QTOF
Ms type: MS2
Ion mode: POSITIVE
Collision energy: 130
Fragmentation mode: CID
Ionization: ESI
Column name: Zorbax Eclipse Plus C18 2.1 mm x 150 mm, 3.5 um, Agilent
Retention time: 12.39 min
Precursor m/z: 433.0232
Precursor type: [M+H]+
m/z	relative intensity
45.0335	83
48.9837	83
51.0227	99
63.0229	299
65.0404	116
72.984	316
74.0149	865
75.011	116
75.0238	283
76.0182	233
77.0375	449
78.033	149
83.9758	199
89.0393	183
90.0327	283
90.046	66
92.0521	83
96.9845	183
98.9994	99
104.0485	399
107.9756	432
108.9826	999
110.9997	116
111.994	99
114.0104	83
117.0556	166
118.0533	66
123.0224	99
123.9956	133
125.0003	83
138.0119	99
142.9449	116
150.0455	66
163.0539	149
164.0499	149
177.0409	83
