Mass spectrum: Amethopterin; LC-ESI-QTOF; MS2; 40 V
Name: Amethopterin
Class: Pharmaceutical
Formula: C20H22N8O5
Exact mass: 454.1713
SMILES: CN(Cc1cnc2nc(N)nc(N)c2n1)c3ccc(cc3)C(=O)NC(CCC(O)=O)C(O)=O
InChI: InChI=1S/C20H22N8O5/c1-28(9-11-8-23-17-15(24-11)16(21)26-20(22)27-17)12-4-2-10(3-5-12)18(31)25-13(19(32)33)6-7-14(29)30/h2-5,8,13H,6-7,9H2,1H3,(H,25,31)(H,29,30)(H,32,33)(H4,21,22,23,26,27)
Instrument: TripleTOF 5600 SCIEX
Instrument type: LC-ESI-QTOF
Ms type: MS2
Ion mode: NEGATIVE
Collision energy: 40
Fragmentation mode: CID
Ionization: ESI
Column name: Zorbax Eclipse Plus C18 2.1 mm x 150 mm, 3.5 um, Agilent
Retention time: 5.057 min
Precursor m/z: 453.164
Precursor type: [M-H]-
m/z	relative intensity
132.0443	141
133.0528	102
149.0706	78
150.0552	86
161.0723	55
162.08	78
173.0564	70
174.0654	416
175.0786	86
191.1193	196
217.0978	102
234.1001	70
235.1104	180
238.1137	62
281.1151	62
282.0997	165
323.157	165
324.1214	999
349.1465	55
365.1838	102
367.1531	196
392.1511	125
409.1699	542
409.2005	62
435.1521	204
453.1656	991
