Mass spectrum: Tenoxicam; LC-ESI-QTOF; MS2; 40 V
Name: Tenoxicam
Class: Pharmaceutical
Formula: C13H11N3O4S2
Exact mass: 337.0191
SMILES: CN1C(=C(C2=C(S1(=O)=O)C=CS2)O)C(=O)NC3=CC=CC=N3
InChI: InChI=1S/C13H11N3O4S2/c1-16-10(13(18)15-9-4-2-3-6-14-9)11(17)12-8(5-7-21-12)22(16,19)20/h2-7,17H,1H3,(H,14,15,18)
Instrument: TripleTOF 5600 SCIEX
Instrument type: LC-ESI-QTOF
Ms type: MS2
Ion mode: POSITIVE
Collision energy: 40
Fragmentation mode: CID
Ionization: ESI
Column name: Zorbax Eclipse Plus C18 2.1 mm x 150 mm, 3.5 um, Agilent
Retention time: 7.356 min
Precursor m/z: 338.0264
Precursor type: [M+H]+
m/z	relative intensity
78.039	172
95.0647	731
110.9912	18
114.9714	25
116.9886	15
121.042	999
123.058	21
130.9658	12
142.964	75
143.9938	34
148.0522	12
158.9576	116
162.0664	28
163.0724	15
164.0836	65
169.9719	59
199.9796	18
215.9748	18
