Mass spectrum: Bupropion; LC-ESI-QTOF; MS2; 80 V
Name: Bupropion
Class: Pharmaceutical
Formula: C13H18ClNO
Exact mass: 239.1077
SMILES: CC(C(=O)C1=CC(=CC=C1)Cl)NC(C)(C)C
InChI: InChI=1S/C13H18ClNO/c1-9(15-13(2,3)4)12(16)10-6-5-7-11(14)8-10/h5-9,15H,1-4H3
Instrument: TripleTOF 5600 SCIEX
Instrument type: LC-ESI-QTOF
Ms type: MS2
Ion mode: POSITIVE
Collision energy: 80
Fragmentation mode: CID
Ionization: ESI
Column name: Zorbax Eclipse Plus C18 2.1 mm x 150 mm, 3.5 um, Agilent
Retention time: 6.717 min
Precursor m/z: 240.115
Precursor type: [M+H]+
m/z	relative intensity
57.0749	73
74.0171	24
75.0251	75
77.0415	466
77.0788	11
78.0485	31
89.0398	91
102.047	28
103.0542	246
104.0612	20
110.9991	50
116.0471	12
128.0499	58
130.0652	999
131.0485	10
131.072	17
151.0161	11
