Mass spectrum: Oxymetazoline; LC-ESI-QTOF; MS2; 150 V
Name: Oxymetazoline
Class: Pharmaceutical
Formula: C16H24N2O
Exact mass: 260.1889
SMILES: Cc1cc(c(c(c1CC2=NCCN2)C)O)C(C)(C)C
InChI: InChI=1S/C16H24N2O/c1-10-8-13(16(3,4)5)15(19)11(2)12(10)9-14-17-6-7-18-14/h8,19H,6-7,9H2,1-5H3,(H,17,18)
Instrument: TripleTOF 5600 SCIEX
Instrument type: LC-ESI-QTOF
Ms type: MS2
Ion mode: POSITIVE
Collision energy: 150
Fragmentation mode: CID
Ionization: ESI
Column name: Zorbax Eclipse Plus C18 2.1 mm x 150 mm, 3.5 um, Agilent
Retention time: 7.429 min
Precursor m/z: 261.1961
Precursor type: [M+H]+
m/z	relative intensity
42.0436	18
43.0261	23
44.0594	28
53.0441	23
54.0405	33
63.0495	37
65.044	634
74.0185	217
75.0258	160
76.0347	151
77.0421	999
77.0878	18
78.0496	146
86.0169	47
87.0246	56
88.032	23
89.0407	440
90.05	28
91.0558	501
101.0414	42
102.0468	231
103.0534	66
113.0382	37
114.0473	28
115.0546	700
117.068	23
126.0467	85
127.055	137
128.0623	132
139.0556	28
140.0572	18
141.0698	18
152.0632	23
