Mass spectrum: Chlorpyrifos; LC-ESI-QTOF; MS2; 140 V
Name: Chlorpyrifos
Class: Insecticide
Formula: C9H11Cl3NO3PS
Exact mass: 348.9263
SMILES: CCO[P](=S)(OCC)Oc1nc(Cl)c(Cl)cc1Cl
InChI: InChI=1S/C9H11Cl3NO3PS/c1-3-14-17(18,15-4-2)16-9-7(11)5-6(10)8(12)13-9/h5H,3-4H2,1-2H3
Instrument: TripleTOF 5600 SCIEX
Instrument type: LC-ESI-QTOF
Ms type: MS2
Ion mode: POSITIVE
Collision energy: 140
Fragmentation mode: CID
Ionization: ESI
Column name: Zorbax Eclipse Plus C18 2.1 mm x 150 mm, 3.5 um, Agilent
Retention time: 16.34 min
Precursor m/z: 349.9336
Precursor type: [M+H]+
m/z	relative intensity
61.983	78
64.9836	555
70.9714	52
71.9794	352
72.9885	39
74.0057	52
75.0149	78
78.9429	509
78.9673	32
82.9499	26
83.9789	163
96.952	489
96.9761	32
106.9453	999
106.9802	26
108.9718	561
109.9788	91
118.9461	26
143.9443	32
