Mass spectrum: Methyl-N-(3-aminophenyl)carbamate; LC-ESI-QTOF; MS2; 10 V
Name: Methyl-N-(3-aminophenyl)carbamate
Class: Industrial_process
Formula: C8H10N2O2
Exact mass: 166.0742
InChI: InChI=1S/C8H10N2O2/c1-12-8(11)10-7-4-2-3-6(9)5-7/h2-5H,9H2,1H3,(H,10,11)
Instrument: TripleTOF 5600 SCIEX
Instrument type: LC-ESI-QTOF
Ms type: CID
Ion mode: POSITIVE
Collision energy: 10
Ionization: ESI
Column name: Zorbax Eclipse Plus C18 2.1 mm x 150 mm, 3.5 um, Agilent
Retention time: 4.291 min
Precursor m/z: 167.0815
Precursor type: [M+H]+
m/z	relative intensity
92.0514	33
107.0629	10
135.0553	450
167.081	999
