Mass spectrum: Etrimfos; LC-ESI-QTOF; MS2; 110 V
Name: Etrimfos
Class: Insecticide
Formula: C10H17N2O4PS
Exact mass: 292.0647
SMILES: CCC1=NC(=CC(=N1)OP(=S)(OC)OC)OCC
InChI: InChI=1S/C10H17N2O4PS/c1-5-8-11-9(15-6-2)7-10(12-8)16-17(18,13-3)14-4/h7H,5-6H2,1-4H3
Instrument: TripleTOF 6600 SCIEX
Instrument type: LC-ESI-QTOF
Ms type: MS2
Ion mode: POSITIVE
Collision energy: 110
Fragmentation mode: CID
Ionization: ESI
Column name: Zorbax Eclipse Plus C18 2.1 mm x 150 mm, 3.5 um, Agilent
Retention time: 14.241 min
Precursor m/z: 293.072
Precursor type: [M+H]+
m/z	relative intensity
40.0176	64
43.9709	27
44.979	999
45.9861	37
46.9687	326
46.9802	81
46.991	255
48.9828	13
56.0485	26
56.9772	14
62.9439	50
62.9983	44
68.012	109
68.9962	12
78.939	22
78.9933	59
79.947	11
93.0098	11
