Mass spectrum: Valsartan; LC-ESI-QTOF; MS2; 140 V
Name: Valsartan
Class: Pharmaceutical
Formula: C24H29N5O3
Exact mass: 435.227
SMILES: CCCCC(=O)N(Cc1ccc(cc1)c2ccccc2c3n[nH]nn3)[C@@H](C(C)C)C(O)=O
InChI: InChI=1S/C24H29N5O3/c1-4-5-10-21(30)29(22(16(2)3)24(31)32)15-17-11-13-18(14-12-17)19-8-6-7-9-20(19)23-25-27-28-26-23/h6-9,11-14,16,22H,4-5,10,15H2,1-3H3,(H,31,32)(H,25,26,27,28)/t22-/m0/s1
Instrument: TripleTOF 5600 SCIEX
Instrument type: LC-ESI-QTOF
Ms type: MS2
Ion mode: POSITIVE
Collision energy: 140
Fragmentation mode: CID
Ionization: ESI
Column name: Zorbax Eclipse Plus C18 2.1 mm x 150 mm, 3.5 um, Agilent
Retention time: 11.443 min
Precursor m/z: 436.2343
Precursor type: [M+H]+
m/z	relative intensity
65.0429	15
74.0204	35
75.0273	44
76.0345	12
77.0418	201
78.0482	19
86.0151	15
87.0247	51
88.0323	15
89.0403	91
98.0156	15
99.023	38
101.0391	50
102.0342	18
102.0471	56
111.0224	13
113.0387	134
114.0338	24
114.0451	39
115.0535	116
125.0379	85
126.0465	183
127.054	210
128.0617	79
137.0378	100
138.0456	71
139.0537	154
140.0492	180
141.0573	10
149.0375	38
150.0465	432
151.0542	999
152.062	974
153.0572	47
161.0382	42
162.0452	88
163.0542	470
164.0513	386
165.0514	36
165.0694	125
166.0629	18
175.0419	10
175.0544	21
176.061	389
177.0571	239
178.0656	223
179.0692	35
187.0423	10
188.0493	164
189.0569	47
190.0647	232
191.0584	22
203.0592	19
204.0685	12
205.0756	111
