Mass spectrum: Methyl-5-oxopyrrolidine-2-carboxylate; LC-ESI-QTOF; MS2; 40 V
Name: Methyl-5-oxopyrrolidine-2-carboxylate
Formula: C6H9NO3
Exact mass: 143.0582
SMILES: COC(=O)C1CCC(=O)N1
InChI: InChI=1S/C6H9NO3/c1-10-6(9)4-2-3-5(8)7-4/h4H,2-3H2,1H3,(H,7,8)
Instrument: TripleTOF 5600 SCIEX
Instrument type: LC-ESI-QTOF
Ms type: MS2
Ion mode: POSITIVE
Collision energy: 40
Fragmentation mode: CID
Ionization: ESI
Column name: Zorbax Eclipse Plus C18 2.1 mm x 150 mm, 3.5 um, Agilent
Retention time: 4.583 min
Precursor m/z: 144.0655
Precursor type: [M+H]+
m/z	relative intensity
35.9982	19
37.0066	19
38.0139	19
39.0228	58
41.0384	156
55.0185	19
56.0498	509
60.9871	78
66.0338	19
84.0441	999
85.0512	39
