Mass spectrum: Sildenafil; LC-ESI-QTOF; MS2; 150 V
Name: Sildenafil
Class: Pharmaceutical
Formula: C22H30N6O4S
Exact mass: 474.2049
SMILES: CCCC1=NN(C2=C1NC(=NC2=O)C3=C(C=CC(=C3)S(=O)(=O)N4CCN(CC4)C)OCC)C
InChI: InChI=1S/C22H30N6O4S/c1-5-7-17-19-20(27(4)25-17)22(29)24-21(23-19)16-14-15(8-9-18(16)32-6-2)33(30,31)28-12-10-26(3)11-13-28/h8-9,14H,5-7,10-13H2,1-4H3,(H,23,24,29)
Instrument: TripleTOF 5600 SCIEX
Instrument type: LC-ESI-QTOF
Ms type: MS2
Ion mode: NEGATIVE
Collision energy: 150
Fragmentation mode: CID
Ionization: ESI
Column name: Zorbax Eclipse Plus C18 2.1 mm x 150 mm, 3.5 um, Agilent
Retention time: 7.283 min
Precursor m/z: 473.1976
Precursor type: [M-H]-
m/z	relative intensity
41.9976	312
50.0023	62
65.9981	374
74.0034	187
76.0192	62
88.0185	499
89.013	124
89.026	187
90.0349	999
114.0374	62
115.0304	749
117.0237	249
118.0305	936
130.0152	62
131.0262	187
139.0286	249
140.0252	62
143.0253	499
171.0316	561
181.0397	249
193.0514	62
195.0321	124
209.0466	374
