Mass spectrum: Linezolid; LC-ESI-QTOF; MS2; 30 V
Name: Linezolid
Class: Pharmaceutical
Formula: C16H20FN3O4
Exact mass: 337.1438
SMILES: CC(=O)NCC1CN(C(=O)O1)C2=CC(=C(C=C2)N3CCOCC3)F
InChI: InChI=1S/C16H20FN3O4/c1-11(21)18-9-13-10-20(16(22)24-13)12-2-3-15(14(17)8-12)19-4-6-23-7-5-19/h2-3,8,13H,4-7,9-10H2,1H3,(H,18,21)
Instrument: TripleTOF 5600 SCIEX
Instrument type: LC-ESI-QTOF
Ms type: MS2
Ion mode: POSITIVE
Collision energy: 30
Fragmentation mode: CID
Ionization: ESI
Column name: Zorbax Eclipse Plus C18 2.1 mm x 150 mm, 3.5 um, Agilent
Retention time: 6.936 min
Precursor m/z: 338.1511
Precursor type: [M+H]+
m/z	relative intensity
56.05	30
98.0599	14
124.0555	11
135.0494	12
148.0559	67
149.064	56
151.0658	29
153.0836	15
162.0714	33
163.0679	85
165.0824	36
169.0763	55
171.0892	21
172.0566	12
174.0609	38
176.075	10
177.0492	14
177.0826	38
179.0977	23
181.0881	32
185.1071	12
189.0819	133
190.0897	41
191.0986	119
192.1041	13
195.0578	12
195.0933	327
196.1012	70
197.0728	18
197.109	48
203.1183	11
205.1116	10
209.1099	128
215.1177	93
217.1137	31
221.1081	27
222.1052	41
223.1238	36
235.1249	455
241.0993	188
244.1407	11
249.1302	25
250.0987	41
251.1124	10
252.1145	70
252.1516	12
278.1305	35
279.1161	16
294.1614	111
296.141	950
297.1227	12
338.1519	999
