Mass spectrum: Ethyl 4-dimethylaminobenzoate; LC-ESI-QTOF; MS2; 30 V
Name: Ethyl 4-dimethylaminobenzoate
Formula: C11H15NO2
Exact mass: 193.1103
SMILES: O=C(OCC)C1=CC=C(C=C1)N(C)C
InChI: InChI=1S/C11H15NO2/c1-4-14-11(13)9-5-7-10(8-6-9)12(2)3/h5-8H,4H2,1-3H3
Instrument: TripleTOF X500R SCIEX
Instrument type: LC-ESI-QTOF
Ms type: MS2
Ion mode: POSITIVE
Collision energy: 30
Fragmentation mode: CID
Ionization: ESI
Column name: Zorbax Eclipse Plus C18 2.1 mm x 150 mm, 3.5 um, Agilent
Retention time: 11.941 min
Precursor m/z: 194.1176
Precursor type: [M+H]+
m/z	relative intensity
106.065	36
107.0731	43
121.0882	12
134.0598	480
135.044	12
135.0677	21
150.0548	172
151.0623	999
164.0708	29
166.0861	284
179.0938	278
194.1175	56
