Mass spectrum: Metoclopramide; LC-ESI-QTOF; MS2; 120 V
Name: Metoclopramide
Class: Pharmaceutical
Formula: C14H22ClN3O2
Exact mass: 299.1401
SMILES: CCN(CC)CCNC(=O)C1=CC(=C(C=C1OC)N)Cl
InChI: InChI=1S/C14H22ClN3O2/c1-4-18(5-2)7-6-17-14(19)10-8-11(15)12(16)9-13(10)20-3/h8-9H,4-7,16H2,1-3H3,(H,17,19)
Instrument: TripleTOF 5600 SCIEX
Instrument type: LC-ESI-QTOF
Ms type: MS2
Ion mode: POSITIVE
Collision energy: 120
Fragmentation mode: CID
Ionization: ESI
Column name: Zorbax Eclipse Plus C18 2.1 mm x 150 mm, 3.5 um, Agilent
Retention time: 5.459 min
Precursor m/z: 300.1473
Precursor type: [M+H]+
m/z	relative intensity
52.0286	116
65.046	22
66.0539	11
72.9898	94
76.0243	21
78.0396	999
90.0385	38
91.0455	15
92.053	15
93.0607	13
99.0042	21
105.0483	26
111.9971	10
113.0054	181
139.0074	14
140.9999	13
