Mass spectrum: (Methoxymethyl)diphenylphosphine oxide; LC-ESI-QTOF; MS2; 120 V
Name: (Methoxymethyl)diphenylphosphine oxide
Class: Industrial_process
Formula: C14H15O2P
Exact mass: 246.081
SMILES: COC[P](=O)(c1ccccc1)c2ccccc2
InChI: InChI=1S/C14H15O2P/c1-16-12-17(15,13-8-4-2-5-9-13)14-10-6-3-7-11-14/h2-11H,12H2,1H3
Instrument: TripleTOF 5600 SCIEX
Instrument type: LC-ESI-QTOF
Ms type: MS2
Ion mode: POSITIVE
Collision energy: 120
Fragmentation mode: CID
Ionization: ESI
Column name: Zorbax Eclipse Plus C18 2.1 mm x 150 mm, 3.5 um, Agilent
Retention time: 8.67 min
Precursor m/z: 247.0882
Precursor type: [M+H]+
m/z	relative intensity
45.0422	999
55.9885	104
56.9971	162
65.0436	232
74.0179	197
75.0271	58
76.0343	127
77.0419	197
78.0511	58
78.9757	81
79.9838	313
80.9894	174
81.0	116
86.0164	81
87.0232	127
89.0418	197
91.9838	81
98.0182	81
102.0469	116
102.9738	46
103.9809	92
104.989	46
107.0042	441
113.0385	81
115.0526	116
126.0473	209
131.0055	69
139.0561	69
150.045	348
151.0547	302
152.0607	162
155.0074	104
156.0167	92
157.0298	69
179.0027	116
180.014	151
181.0226	162
