Mass spectrum: Doxorubicin; LC-ESI-QTOF; MS2; 90 V
Name: Doxorubicin
Class: Pharmaceutical
Formula: C27H29NO11
Exact mass: 543.1741
SMILES: C[C@H]1[C@H]([C@H](C[C@@H](O1)O[C@H]2C[C@@](Cc3c2c(c4c(c3O)C(=O)c5cccc(c5C4=O)OC)O)(C(=O)CO)O)N)O
InChI: InChI=1S/C27H29NO11/c1-10-22(31)13(28)6-17(38-10)39-15-8-27(36,16(30)9-29)7-12-19(15)26(35)21-20(24(12)33)23(32)11-4-3-5-14(37-2)18(11)25(21)34/h3-5,10,13,15,17,22,29,31,33,35-36H,6-9,28H2,1-2H3/t10-,13-,15-,17-,22+,27-/m0/s1
Instrument: TripleTOF 5600 SCIEX
Instrument type: LC-ESI-QTOF
Ms type: MS2
Ion mode: POSITIVE
Collision energy: 90
Fragmentation mode: CID
Ionization: ESI
Column name: Zorbax Eclipse Plus C18 2.1 mm x 150 mm, 3.5 um, Agilent
Retention time: 7.064 min
Precursor m/z: 544.1813
Precursor type: [M+H]+
m/z	relative intensity
44.0598	134
72.0471	161
86.0611	458
105.0346	161
121.0271	134
130.083	134
135.0416	188
135.0507	134
145.024	108
176.0616	216
178.0746	134
189.0712	161
201.0711	161
202.0776	216
203.084	242
204.0549	134
205.0668	108
224.0072	161
231.0787	242
232.0523	161
233.0587	134
234.0637	108
244.0499	188
247.0773	216
249.0527	108
259.071	216
261.0564	134
262.0632	242
272.0434	134
273.0513	161
275.0615	161
289.0496	432
290.055	242
305.0471	188
306.0506	917
307.0589	134
317.0502	108
318.0436	161
329.0453	351
346.0484	999
346.0847	108
