Mass spectrum: Sudan I; LC-ESI-QTOF; MS2; 110 V
Name: Sudan I
Formula: C16H12N2O
Exact mass: 248.095
SMILES: C1=CC=C(C=C1)N=NC2=C(C=CC3=CC=CC=C32)O
InChI: InChI=1S/C16H12N2O/c19-15-11-10-12-6-4-5-9-14(12)16(15)18-17-13-7-2-1-3-8-13/h1-11,19H
Instrument: TripleTOF 6600 SCIEX
Instrument type: LC-ESI-QTOF
Ms type: MS2
Ion mode: POSITIVE
Collision energy: 110
Fragmentation mode: CID
Ionization: ESI
Column name: Zorbax Eclipse Plus C18 2.1 mm x 150 mm, 3.5 um, Agilent
Retention time: 15.674 min
Precursor m/z: 249.1023
Precursor type: [M+H]+
m/z	relative intensity
37.0076	86
38.0152	65
39.0232	405
40.0311	45
41.0263	26
42.0343	37
49.0072	18
50.0153	288
51.0233	530
52.0179	61
54.0335	74
61.008	15
62.0153	17
63.0218	26
65.0388	572
66.0466	357
67.0414	30
73.0077	110
74.0153	999
75.0105	25
75.0228	722
76.0187	106
76.0308	18
77.0386	131
78.0333	91
92.0497	227
93.0578	138
98.0149	38
99.0125	18
99.0229	11
150.0466	30
176.0631	10
