Mass spectrum: Methyl-N-(3-aminophenyl)carbamate; LC-ESI-QTOF; MS2; 40 V
Name: Methyl-N-(3-aminophenyl)carbamate
Class: Industrial_process
Formula: C8H10N2O2
Exact mass: 166.0742
SMILES: COC(=O)NC1=CC=CC(=C1)N
InChI: InChI=1S/C8H10N2O2/c1-12-8(11)10-7-4-2-3-6(9)5-7/h2-5H,9H2,1H3,(H,10,11)
Instrument: TripleTOF 5600 SCIEX
Instrument type: LC-ESI-QTOF
Ms type: MS2
Ion mode: POSITIVE
Collision energy: 40
Fragmentation mode: CID
Ionization: ESI
Column name: Zorbax Eclipse Plus C18 2.1 mm x 150 mm, 3.5 um, Agilent
Retention time: 4.291 min
Precursor m/z: 167.0815
Precursor type: [M+H]+
m/z	relative intensity
64.0325	35
65.0455	580
79.0461	49
80.0545	255
90.0373	184
92.0522	999
93.0587	311
107.0623	233
108.0704	28
134.0485	42
135.0557	687
