Mass spectrum: Basic yellow 28; LC-ESI-QTOF; MS2; 130 V
Name: Basic yellow 28
Class: Pigment
Formula: [C20H24N3O]+
Exact mass: 322.1914
SMILES: CC1(C2=CC=CC=C2[N+](=C1C=NN(C)C3=CC=C(C=C3)OC)C)C
InChI: InChI=1S/C20H24N3O/c1-20(2)17-8-6-7-9-18(17)22(3)19(20)14-21-23(4)15-10-12-16(24-5)13-11-15/h6-14H,1-5H3/q+1
Instrument: TripleTOF 6600 SCIEX
Instrument type: LC-ESI-QTOF
Ms type: MS2
Ion mode: POSITIVE
Collision energy: 130
Fragmentation mode: CID
Ionization: ESI
Column name: Zorbax Eclipse Plus C18 2.1 mm x 150 mm, 3.5 um, Agilent
Retention time: 9.082 min
Precursor m/z: 322.1914
Precursor type: [M]+
m/z	relative intensity
37.0087	58
38.0161	74
39.0241	244
49.0082	78
50.016	388
51.0238	753
52.0312	81
61.0076	99
62.0155	205
63.0234	943
64.0311	180
65.0392	651
66.0466	373
67.0418	218
74.0155	103
75.0227	203
76.0309	117
77.0386	999
78.0341	73
78.0462	134
89.0376	374
90.0453	93
91.053	244
92.0245	66
92.0481	110
101.0378	157
102.0454	350
103.0535	162
115.0537	865
116.0486	71
116.06	54
117.057	106
127.0531	55
128.049	325
129.0557	196
130.0648	77
140.0497	68
141.0583	58
142.0654	143
143.0726	219
144.0805	202
