Mass spectrum: Fipronil; LC-ESI-QTOF; MS2; 90 V
Name: Fipronil
Class: Insecticide
Formula: C12H4Cl2F6N4OS
Exact mass: 435.9387
SMILES: C1=C(C=C(C(=C1Cl)N2C(=C(C(=N2)C#N)S(=O)C(F)(F)F)N)Cl)C(F)(F)F
InChI: InChI=1S/C12H4Cl2F6N4OS/c13-5-1-4(11(15,16)17)2-6(14)8(5)24-10(22)9(7(3-21)23-24)26(25)12(18,19)20/h1-2H,22H2
Instrument: TripleTOF 6600 SCIEX
Instrument type: LC-ESI-QTOF
Ms type: MS2
Ion mode: POSITIVE
Collision energy: 90
Fragmentation mode: CID
Ionization: ESI
Column name: Zorbax Eclipse Plus C18 2.1 mm x 150 mm, 3.5 um, Agilent
Retention time: 13.577 min
Precursor m/z: 436.946
Precursor type: [M+H]+
m/z	relative intensity
143.0063	230
157.0109	576
158.0183	422
165.9769	345
169.01	268
177.9762	230
178.9832	230
185.0307	384
191.9801	230
192.9873	192
193.9694	192
200.9466	268
203.9799	999
209.9658	230
212.9451	384
226.9865	268
227.9576	153
230.99	153
231.976	192
239.9588	422
249.0006	192
