Mass spectrum: 4-Hydroxytrimethoprim; LC-ESI-QTOF; MS2; 60 V
Name: 4-Hydroxytrimethoprim
Class: Pharmaceutical; Transformation_product
Formula: C14H18N4O4
Exact mass: 306.1328
SMILES: COc1cc(cc(c1OC)OC)Cc2c(nc(nc2O)N)N
InChI: InChI=1S/C14H18N4O4/c1-20-9-5-7(6-10(21-2)11(9)22-3)4-8-12(15)17-14(16)18-13(8)19/h5-6H,4H2,1-3H3,(H5,15,16,17,18,19)
Instrument: TripleTOF 5600 SCIEX
Instrument type: LC-ESI-QTOF
Ms type: MS2
Ion mode: POSITIVE
Collision energy: 60
Fragmentation mode: CID
Ionization: ESI
Column name: Zorbax Eclipse Plus C18 2.1 mm x 150 mm, 3.5 um, Agilent
Retention time: 5.43 min
Precursor m/z: 307.1401
Precursor type: [M+H]+
m/z	relative intensity
43.0382	75
52.0236	67
54.0389	63
55.0234	115
60.0599	24
69.049	138
77.0405	30
78.0505	10
79.0566	18
80.0156	342
89.04	30
90.0479	25
91.0564	45
94.045	13
95.0495	10
97.0416	999
106.0413	15
107.0497	27
118.0419	12
120.0574	18
122.0348	81
123.0446	25
136.0526	37
137.0596	60
138.0659	15
139.0621	624
148.0525	150
151.0398	27
165.0567	15
173.0472	19
181.0849	58
