Mass spectrum: Prallethrin; LC-ESI-QTOF; MS2; 150 V
Name: Prallethrin
Class: Insecticide
Formula: C19H24O3
Exact mass: 300.1725
SMILES: CC1=C(C(=O)CC1OC(=O)C2C(C2(C)C)C=C(C)C)CC#C
InChI: InChI=1S/C19H24O3/c1-7-8-13-12(4)16(10-15(13)20)22-18(21)17-14(9-11(2)3)19(17,5)6/h1,9,14,16-17H,8,10H2,2-6H3
Instrument: TripleTOF 6600 SCIEX
Instrument type: LC-ESI-QTOF
Ms type: MS2
Ion mode: POSITIVE
Collision energy: 150
Fragmentation mode: CID
Ionization: ESI
Column name: Zorbax Eclipse Plus C18 2.1 mm x 150 mm, 3.5 um, Agilent
Retention time: 14.861 min
Precursor m/z: 301.1798
Precursor type: [M+H]+
m/z	relative intensity
37.0078	102
38.0154	102
39.0237	373
41.0392	42
49.0078	204
50.0157	788
51.0235	999
52.0309	24
53.039	36
61.0075	36
62.0157	132
63.0234	114
65.0395	42
74.0163	78
76.0302	30
77.0395	216
78.0487	36
89.0392	48
91.0552	30
