Mass spectrum: 4-Methoxycinnamaldehyde; LC-ESI-QTOF; MS2; 150 V
Name: 4-Methoxycinnamaldehyde
Formula: C10H10O2
Exact mass: 162.0681
SMILES: COC1=CC=C(C=C1)C=CC=O
InChI: InChI=1S/C10H10O2/c1-12-10-6-4-9(5-7-10)3-2-8-11/h2-8H,1H3
Instrument: TripleTOF 6600 SCIEX
Instrument type: LC-ESI-QTOF
Ms type: MS2
Ion mode: POSITIVE
Collision energy: 150
Fragmentation mode: CID
Ionization: ESI
Column name: Zorbax Eclipse Plus C18 2.1 mm x 150 mm, 3.5 um, Agilent
Retention time: 9.471 min
Precursor m/z: 163.0754
Precursor type: [M+H]+
m/z	relative intensity
35.9992	214
37.0077	999
38.0157	392
39.0231	249
49.0073	606
50.0151	677
61.0074	428
62.016	285
