Mass spectrum: 2,6-Dichlorodiphenylamine; LC-ESI-QTOF; MS2; 90 V
Name: 2,6-Dichlorodiphenylamine
Class: Pharmaceutical
Formula: C12H9Cl2N
Exact mass: 237.0112
SMILES: C1=CC=C(C=C1)NC2=C(C=CC=C2Cl)Cl
InChI: InChI=1S/C12H9Cl2N/c13-10-7-4-8-11(14)12(10)15-9-5-2-1-3-6-9/h1-8,15H
Instrument: TripleTOF 5600 SCIEX
Instrument type: LC-ESI-QTOF
Ms type: MS2
Ion mode: POSITIVE
Collision energy: 90
Fragmentation mode: CID
Ionization: ESI
Column name: Zorbax Eclipse Plus C18 2.1 mm x 150 mm, 3.5 um, Agilent
Retention time: 14.125 min
Precursor m/z: 238.0185
Precursor type: [M+H]+
m/z	relative intensity
65.0455	499
66.0525	457
72.9891	853
77.0446	478
82.9507	228
87.0252	124
88.0249	166
89.0408	228
90.0367	728
91.0444	104
92.0525	312
93.061	561
96.9868	145
99.0017	353
106.9473	145
113.0399	353
114.0452	83
115.0547	270
125.002	145
132.9636	104
139.0553	999
140.0501	603
160.9724	145
164.0524	124
166.0634	707
167.072	249
