Mass spectrum: 2-Methylquinoline; LC-ESI-QTOF; MS2; 40 V
Name: 2-Methylquinoline
Formula: C10H9N
Exact mass: 143.0735
SMILES: CC1=NC2=CC=CC=C2C=C1
InChI: InChI=1S/C10H9N/c1-8-6-7-9-4-2-3-5-10(9)11-8/h2-7H,1H3
Instrument: TripleTOF X500R SCIEX
Instrument type: LC-ESI-QTOF
Ms type: MS2
Ion mode: POSITIVE
Collision energy: 40
Fragmentation mode: CID
Ionization: ESI
Column name: Zorbax Eclipse Plus C18 2.1 mm x 150 mm, 3.5 um, Agilent
Retention time: 4.69 min
Precursor m/z: 144.0808
Precursor type: [M+H]+
m/z	relative intensity
51.0233	84
75.0243	16
77.0391	999
89.0397	16
91.055	66
101.0389	189
102.0468	196
103.0548	539
115.0546	271
116.0611	54
117.0639	99
126.0461	17
127.0545	128
128.0498	765
129.0577	135
140.0521	17
142.066	120
143.0734	708
144.0811	847
