Mass spectrum: Pyridoxine; LC-ESI-QTOF; MS2; 60 V
Name: Pyridoxine
Formula: C8H11NO3
Exact mass: 169.0739
SMILES: OC1=C(C)N=CC(CO)=C1CO
InChI: InChI=1S/C8H11NO3/c1-5-8(12)7(4-11)6(3-10)2-9-5/h2,10-12H,3-4H2,1H3
Instrument: TripleTOF 5600 SCIEX
Instrument type: LC-ESI-QTOF
Ms type: MS2
Ion mode: POSITIVE
Collision energy: 60
Fragmentation mode: CID
Ionization: ESI
Column name: Zorbax Eclipse Plus C18 2.1 mm x 150 mm, 3.5 um, Agilent
Retention time: 2.11 min
Precursor m/z: 170.0812
Precursor type: [M+H]+
m/z	relative intensity
37.0071	28
39.0226	140
41.0384	33
42.034	72
50.0139	78
51.0225	460
53.0012	22
53.0381	162
54.0333	28
63.0214	28
65.038	185
66.0466	89
67.0415	84
67.0524	28
77.0381	999
78.0321	89
79.0534	112
80.0491	825
81.0568	101
91.0416	50
92.0481	39
93.0561	56
94.0647	291
106.0655	196
108.0433	56
122.0587	33
134.0596	61
