Mass spectrum: Amitriptyline; LC-ESI-QTOF; MS2; 150 V
Name: Amitriptyline
Class: Pharmaceutical
Formula: C20H23N
Exact mass: 277.183
SMILES: CN(C)CCC=C1C2=CC=CC=C2CCC3=CC=CC=C31
InChI: InChI=1S/C20H23N/c1-21(2)15-7-12-20-18-10-5-3-8-16(18)13-14-17-9-4-6-11-19(17)20/h3-6,8-12H,7,13-15H2,1-2H3
Instrument: TripleTOF 6600 SCIEX
Instrument type: LC-ESI-QTOF
Ms type: MS2
Ion mode: POSITIVE
Collision energy: 150
Fragmentation mode: CID
Ionization: ESI
Column name: Zorbax Eclipse Plus C18 2.1 mm x 150 mm, 3.5 um, Agilent
Retention time: 8.708 min
Precursor m/z: 278.1903
Precursor type: [M+H]+
m/z	relative intensity
35.9996	35
37.0073	173
38.0152	137
39.0231	488
41.0384	20
42.0336	53
44.0492	30
49.0072	188
50.0152	946
51.0231	959
52.0305	56
59.9993	45
61.0073	290
62.0151	558
63.0231	841
65.0385	269
73.0072	97
74.0151	807
75.0226	336
76.0306	306
77.0384	368
78.046	86
83.9997	26
85.007	172
86.0151	411
87.0226	329
88.031	36
89.0384	371
91.054	48
97.0066	58
98.0151	584
99.0226	212
100.0305	91
101.038	42
102.0465	265
109.0069	86
110.0149	221
111.0224	153
113.0384	150
114.0468	11
115.0541	226
121.0073	45
122.015	277
123.0228	93
124.0305	65
125.0382	91
126.0462	323
127.0532	65
128.0612	33
129.0443	11
133.0061	32
134.0144	87
135.0221	48
137.0377	137
138.046	39
139.0545	169
146.0138	75
147.022	20
148.031	35
149.0383	250
150.0464	982
151.0541	237
152.0617	105
161.0389	329
162.0465	300
163.0539	631
164.0617	48
165.0704	27
173.0385	77
174.0466	469
175.0541	87
176.0628	100
179.059	16
185.0386	249
186.0462	350
187.0543	999
188.0617	126
189.0701	91
197.0374	67
198.0464	457
199.0544	344
200.062	592
201.0697	29
202.0776	16
209.0383	42
210.0465	68
211.0543	370
212.0603	77
213.0697	259
215.0842	14
224.0627	13
