Mass spectrum: Metoprolol; LC-ESI-QTOF; MS2; 90 V
Name: Metoprolol
Class: Pharmaceutical
Formula: C15H25NO3
Exact mass: 267.1834
SMILES: CC(C)NCC(COC1=CC=C(C=C1)CCOC)O
InChI: InChI=1S/C15H25NO3/c1-12(2)16-10-14(17)11-19-15-6-4-13(5-7-15)8-9-18-3/h4-7,12,14,16-17H,8-11H2,1-3H3
Instrument: TripleTOF 6600 SCIEX
Instrument type: LC-ESI-QTOF
Ms type: MS2
Ion mode: POSITIVE
Collision energy: 90
Fragmentation mode: CID
Ionization: ESI
Column name: Zorbax Eclipse Plus C18 2.1 mm x 150 mm, 3.5 um, Agilent
Retention time: 6.14 min
Precursor m/z: 268.1907
Precursor type: [M+H]+
m/z	relative intensity
30.0338	74
37.0073	21
38.0141	13
39.0227	131
41.0385	146
42.0338	10
43.0534	36
44.049	14
45.033	34
50.0151	42
51.0225	303
56.0493	52
58.064	21
63.0225	23
65.0377	128
75.0209	14
77.0378	999
78.0459	37
79.0537	76
89.0376	43
91.0529	259
94.0413	11
102.0451	49
103.0536	87
105.0433	23
115.053	158
128.0595	22
