Mass spectrum: Enrofloxacin; LC-ESI-QTOF; MS2; 80 V
Name: Enrofloxacin
Class: Pharmaceutical; Antimicrobial
Formula: C19H22FN3O3
Exact mass: 359.1645
SMILES: CCN1CCN(CC1)c2cc3N(C=C(C(O)=O)C(=O)c3cc2F)C4CC4
InChI: InChI=1S/C19H22FN3O3/c1-2-21-5-7-22(8-6-21)17-10-16-13(9-15(17)20)18(24)14(19(25)26)11-23(16)12-3-4-12/h9-12H,2-8H2,1H3,(H,25,26)
Instrument: TripleTOF 5600 SCIEX
Instrument type: LC-ESI-QTOF
Ms type: MS2
Ion mode: POSITIVE
Collision energy: 80
Fragmentation mode: CID
Ionization: ESI
Column name: Zorbax Eclipse Plus C18 2.1 mm x 150 mm, 3.5 um, Agilent
Retention time: 5.696 min
Precursor m/z: 360.1718
Precursor type: [M+H]+
m/z	relative intensity
44.0586	78
53.0075	44
70.0678	448
70.0823	56
77.0422	67
84.0828	123
89.04	157
95.0296	56
101.038	78
107.0287	190
108.0378	56
109.0466	101
114.0348	190
115.0535	134
116.0486	157
120.0362	44
121.0337	89
122.0405	78
126.0319	56
127.0508	101
128.0498	280
129.0564	112
130.0655	101
132.024	235
133.0313	179
133.0454	145
134.0402	561
135.048	224
136.0537	134
139.027	67
140.0479	123
141.0426	56
141.0561	101
142.0279	56
142.0629	89
144.0363	56
145.0424	134
146.0391	145
146.051	157
147.0462	258
148.0553	673
149.0598	56
152.0573	44
153.0616	67
154.0642	325
155.06	269
156.0691	179
157.0752	89
158.0513	56
159.0356	44
159.0483	123
160.0189	67
160.0525	258
161.0261	202
161.0508	505
162.0357	347
162.0708	67
167.0246	67
167.0612	190
168.0693	179
169.0757	123
172.0542	325
173.0509	179
173.0676	44
173.0812	44
174.0346	516
174.0639	426
175.0417	56
175.0651	415
176.0527	101
176.0748	145
180.0776	67
181.0762	67
182.0602	67
182.0815	56
185.0631	190
186.0673	179
187.0294	89
187.0658	190
188.0144	594
188.0465	89
189.0456	392
195.0212	78
195.0888	101
200.0554	145
201.0551	145
201.0798	112
202.0325	145
202.0693	134
203.0609	460
204.0704	78
205.0778	67
215.025	999
215.0574	56
215.0741	56
216.0384	56
217.0404	437
225.0916	44
229.0769	168
230.0759	56
231.0574	44
242.0389	67
243.0583	145
245.1083	67
255.0579	44
256.0524	78
258.075	78
271.0725	134
