Mass spectrum: Abacavir carboxylic acid; LC-ESI-QTOF; MS2; 90 V
Name: Abacavir carboxylic acid
Class: Pharmaceutical; Metabolite; Transformation_product
Formula: C14H16N6O2
Exact mass: 300.1335
SMILES: C1CC1NC2=NC(=NC3=C2N=CN3C4CC(C=C4)C(=O)O)N
InChI: InChI=1S/C14H16N6O2/c15-14-18-11(17-8-2-3-8)10-12(19-14)20(6-16-10)9-4-1-7(5-9)13(21)22/h1,4,6-9H,2-3,5H2,(H,21,22)(H3,15,17,18,19)
Instrument: TripleTOF 5600 SCIEX
Instrument type: LC-ESI-QTOF
Ms type: MS2
Ion mode: POSITIVE
Collision energy: 90
Fragmentation mode: CID
Ionization: ESI
Column name: Zorbax Eclipse Plus C18 2.1 mm x 150 mm, 3.5 um, Agilent
Retention time: 5.194 min
Precursor m/z: 301.1408
Precursor type: [M+H]+
m/z	relative intensity
42.0464	21
43.0365	75
43.045	21
51.029	21
53.0186	118
53.0355	27
54.0259	108
54.0402	32
55.0347	291
55.0592	108
56.0518	27
58.0704	43
65.0159	37
65.0424	885
66.0243	113
66.0375	32
67.0332	86
67.0573	518
68.0261	91
68.0513	86
68.0644	27
78.0364	167
79.0313	54
80.0261	459
80.0522	43
81.0333	172
81.0466	70
82.0406	183
83.0499	156
92.0249	469
93.0341	108
93.0457	81
94.0404	145
95.0593	59
103.0283	27
105.0434	81
106.027	59
106.0399	113
107.0347	999
108.0425	799
109.0504	480
118.0377	32
119.0342	124
120.0547	59
121.0497	91
123.0519	37
131.0407	21
132.0508	32
133.0373	297
134.0449	831
135.0602	21
136.0617	21
145.0516	21
148.0606	37
149.076	37
150.0638	75
175.0717	162
