Mass spectrum: Reactive Orange; LC-ESI-QTOF; MS2; 60 V
Name: Reactive Orange
Formula: C20H19N3O11S3
Exact mass: 573.0182
SMILES: CC(=O)NC1=CC2=C(C(=C(C=C2C=C1)S(=O)(=O)O)N=NC3=CC=C(C=C3)S(=O)(=O)CCOS(=O)(=O)O)O
InChI: InChI=1S/C20H19N3O11S3/c1-12(24)21-15-3-2-13-10-18(36(28,29)30)19(20(25)17(13)11-15)23-22-14-4-6-16(7-5-14)35(26,27)9-8-34-37(31,32)33/h2-7,10-11,25H,8-9H2,1H3,(H,21,24)(H,28,29,30)(H,31,32,33)
Instrument: TripleTOF 6600 SCIEX
Instrument type: LC-ESI-QTOF
Ms type: MS2
Ion mode: POSITIVE
Collision energy: 60
Fragmentation mode: CID
Ionization: ESI
Column name: Zorbax Eclipse Plus C18 2.1 mm x 150 mm, 3.5 um, Agilent
Retention time: 5.751 min
Precursor m/z: 574.0255
Precursor type: [M+H]+
m/z	relative intensity
74.9883	35
80.0482	26
81.0325	135
92.0487	18
93.0562	16
108.0438	999
130.0502	23
131.0598	25
132.0428	23
136.0731	14
142.0509	28
143.0592	10
156.0102	33
158.0464	15
159.0539	46
170.0469	638
171.0546	125
172.0396	10
213.0658	15
220.0869	23
232.0826	20
233.0922	239
234.0784	28
244.0795	14
248.0804	31
249.0864	44
260.0811	150
261.0895	455
262.0729	18
262.0906	15
302.0908	62
303.0996	207
325.0456	18
340.0785	14
352.0758	16
358.0853	150
367.07	11
370.0827	14
386.0813	26
