Mass spectrum: 4-(Dimethylamino)azobenzene; LC-ESI-QTOF; MS2; 40 V
Name: 4-(Dimethylamino)azobenzene
Formula: C14H15N3
Exact mass: 225.1266
SMILES: CN(C)C1=CC=C(C=C1)N=NC2=CC=CC=C2
InChI: InChI=1S/C14H15N3/c1-17(2)14-10-8-13(9-11-14)16-15-12-6-4-3-5-7-12/h3-11H,1-2H3
Instrument: TripleTOF 6600 SCIEX
Instrument type: LC-ESI-QTOF
Ms type: MS2
Ion mode: POSITIVE
Collision energy: 40
Fragmentation mode: CID
Ionization: ESI
Column name: Zorbax Eclipse Plus C18 2.1 mm x 150 mm, 3.5 um, Agilent
Retention time: 15.513 min
Precursor m/z: 226.1339
Precursor type: [M+H]+
m/z	relative intensity
51.0222	55
65.0373	18
68.0479	10
77.0375	999
79.0527	39
92.0482	38
93.0435	26
105.0434	34
106.0636	128
118.0561	13
119.0586	54
120.0794	312
121.0869	107
133.0748	171
134.0799	75
226.1325	62
