Mass spectrum: Methyl-N-(3-amino-2-methylphenyl)carbamate; LC-ESI-QTOF; MS2; 110 V
Name: Methyl-N-(3-amino-2-methylphenyl)carbamate
Formula: C9H12N2O2
Exact mass: 180.0899
SMILES: COC(=O)NC1=CC=CC(=C1C)N
InChI: InChI=1S/C9H12N2O2/c1-6-7(10)4-3-5-8(6)11-9(12)13-2/h3-5H,10H2,1-2H3,(H,11,12)
Instrument: TripleTOF 5600 SCIEX
Instrument type: LC-ESI-QTOF
Ms type: MS2
Ion mode: POSITIVE
Collision energy: 110
Fragmentation mode: CID
Ionization: ESI
Column name: Zorbax Eclipse Plus C18 2.1 mm x 150 mm, 3.5 um, Agilent
Retention time: 4.424 min
Precursor m/z: 181.0972
Precursor type: [M+H]+
m/z	relative intensity
49.0193	105
50.0246	999
52.0277	105
61.018	70
62.0232	87
63.0295	105
65.045	87
77.0426	227
80.0516	87
