Mass spectrum: Flufenacet ESA; LC-ESI-QTOF; MS2; 130 V
Name: Flufenacet ESA
Class: Herbicide; Transformation_product
Formula: C11H14FNO4S
Exact mass: 275.0628
SMILES: CC(C)N(C1=CC=C(C=C1)F)C(=O)CS(=O)(=O)O
InChI: InChI=1S/C11H14FNO4S/c1-8(2)13(11(14)7-18(15,16)17)10-5-3-9(12)4-6-10/h3-6,8H,7H2,1-2H3,(H,15,16,17)
Instrument: TripleTOF 6600 SCIEX
Instrument type: LC-ESI-QTOF
Ms type: MS2
Ion mode: POSITIVE
Collision energy: 130
Fragmentation mode: CID
Ionization: ESI
Column name: Zorbax Eclipse Plus C18 2.1 mm x 150 mm, 3.5 um, Agilent
Retention time: 6.781 min
Precursor m/z: 276.07
Precursor type: [M+H]+
m/z	relative intensity
37.0066	16
38.0145	25
39.0229	72
41.038	16
49.0065	25
50.015	100
51.0222	89
57.013	175
61.0065	22
62.0151	36
63.0224	64
63.961	16
64.03	13
64.9688	16
68.0045	13
69.0128	83
70.0205	27
73.0066	80
74.015	999
75.0225	456
77.0382	22
81.0133	25
83.0284	94
84.0383	16
95.0284	41
96.0357	16
107.0302	16
