Mass spectrum: Budesonide; LC-ESI-QTOF; MS2; 130 V
Name: Budesonide
Class: Pharmaceutical
Formula: C25H34O6
Exact mass: 430.2355
SMILES: CCC[C@@H]1O[C@@H]2C[C@H]3[C@@H]4CCC5=CC(=O)C=C[C@]5(C)[C@H]4[C@@H](O)C[C@]3(C)[C@@]2(O1)C(=O)CO
InChI: InChI=1S/C25H34O6/c1-4-5-21-30-20-11-17-16-7-6-14-10-15(27)8-9-23(14,2)22(16)18(28)12-24(17,3)25(20,31-21)19(29)13-26/h8-10,16-18,20-22,26,28H,4-7,11-13H2,1-3H3/t16-,17-,18-,20+,21+,22+,23-,24-,25+/m0/s1
Instrument: TripleTOF 5600 SCIEX
Instrument type: LC-ESI-QTOF
Ms type: MS2
Ion mode: POSITIVE
Collision energy: 130
Fragmentation mode: CID
Ionization: ESI
Column name: Zorbax Eclipse Plus C18 2.1 mm x 150 mm, 3.5 um, Agilent
Retention time: 11.041 min
Precursor m/z: 431.2428
Precursor type: [M+H]+
m/z	relative intensity
65.0426	161
77.0412	982
78.0486	96
79.0563	112
89.0386	80
91.0556	821
102.0452	96
103.0543	322
105.0695	64
115.0537	999
117.0668	112
121.0627	96
127.0533	418
128.0609	741
129.0685	241
131.0485	402
132.055	112
139.0534	145
141.0714	257
150.0464	80
151.0537	225
152.0605	853
153.0684	257
157.0633	112
164.0647	193
165.0696	870
166.0728	80
167.0877	96
176.0618	209
177.0694	145
178.0771	547
181.064	338
188.0642	64
189.0676	612
191.0863	112
195.0773	112
201.0672	64
202.0761	322
203.0852	80
213.0705	80
215.0841	96
218.0677	96
226.0724	128
231.0795	112
