Mass spectrum: Terfenadine; LC-ESI-QTOF; MS2; 50 V
Name: Terfenadine
Class: Pharmaceutical
Formula: C32H41NO2
Exact mass: 471.3137
SMILES: CC(C)(C)C1=CC=C(C=C1)C(CCCN2CCC(CC2)C(C3=CC=CC=C3)(C4=CC=CC=C4)O)O
InChI: InChI=1S/C32H41NO2/c1-31(2,3)26-18-16-25(17-19-26)30(34)15-10-22-33-23-20-29(21-24-33)32(35,27-11-6-4-7-12-27)28-13-8-5-9-14-28/h4-9,11-14,16-19,29-30,34-35H,10,15,20-24H2,1-3H3
Instrument: TripleTOF 6600 SCIEX
Instrument type: LC-ESI-QTOF
Ms type: MS2
Ion mode: POSITIVE
Collision energy: 50
Fragmentation mode: CID
Ionization: ESI
Column name: Zorbax Eclipse Plus C18 2.1 mm x 150 mm, 3.5 um, Agilent
Retention time: 10.223 min
Precursor m/z: 472.321
Precursor type: [M+H]+
m/z	relative intensity
41.0368	14
57.0681	276
82.0625	21
91.0518	61
96.0781	20
105.0663	14
111.1008	13
117.0667	22
122.094	12
124.1094	30
128.0591	11
129.0671	83
131.0825	81
143.0814	22
147.1144	57
161.0922	22
167.082	19
191.0835	9
203.1401	53
205.0996	15
216.0909	9
219.1139	15
230.1871	28
231.1145	14
262.1566	135
268.2028	64
270.2178	14
288.1714	41
420.2654	14
436.2982	999
454.3083	150
