Mass spectrum: 2-Naphthalenesulfonic acid; LC-ESI-QTOF; MS2; 100 V
Name: 2-Naphthalenesulfonic acid
Class: Industrial_process
Formula: C10H8O3S
Exact mass: 208.0194
SMILES: C1=CC=C2C=C(C=CC2=C1)S(=O)(=O)O
InChI: InChI=1S/C10H8O3S/c11-14(12,13)10-6-5-8-3-1-2-4-9(8)7-10/h1-7H,(H,11,12,13)
Instrument: TripleTOF 6600 SCIEX
Instrument type: LC-ESI-QTOF
Ms type: MS2
Ion mode: NEGATIVE
Collision energy: 100
Fragmentation mode: CID
Ionization: ESI
Column name: Zorbax Eclipse Plus C18 2.1 mm x 150 mm, 3.5 um, Agilent
Retention time: 7.09 min
Precursor m/z: 207.0121
Precursor type: [M-H]-
m/z	relative intensity
63.9618	128
79.9567	999
