Mass spectrum: Fluorescein; LC-ESI-QTOF; MS2; 70 V
Name: Fluorescein
Class: Industrial_process; Pharmaceutical
Formula: C20H12O5
Exact mass: 332.0685
SMILES: C1=CC=C2C(=C1)C(=O)OC23C4=C(C=C(C=C4)O)OC5=C3C=CC(=C5)O
InChI: InChI=1S/C20H12O5/c21-11-5-7-15-17(9-11)24-18-10-12(22)6-8-16(18)20(15)14-4-2-1-3-13(14)19(23)25-20/h1-10,21-22H
Instrument: TripleTOF 5600 SCIEX
Instrument type: LC-ESI-QTOF
Ms type: MS2
Ion mode: POSITIVE
Collision energy: 70
Fragmentation mode: CID
Ionization: ESI
Column name: Zorbax Eclipse Plus C18 2.1 mm x 150 mm, 3.5 um, Agilent
Retention time: 9.527 min
Precursor m/z: 333.0757
Precursor type: [M+H]+
m/z	relative intensity
65.0382	9
68.9961	14
77.038	22
102.0466	11
115.0547	42
127.0543	38
128.0609	25
131.0473	15
139.0538	54
140.0622	9
151.0558	24
152.0626	31
155.0496	42
163.0565	14
165.0698	75
168.0563	21
176.0615	51
177.0719	27
178.0781	61
181.0653	11
183.0452	11
184.0519	29
187.0544	22
188.0654	24
189.0697	303
190.0778	65
191.0837	29
199.0409	11
200.0628	64
201.07	163
202.0784	999
203.085	186
204.0965	14
205.0653	57
213.0696	208
214.0788	66
215.0858	249
217.0634	17
218.0747	58
225.0702	14
226.0802	14
229.0632	126
230.0736	57
231.0817	287
232.0921	11
233.057	14
233.095	18
234.0684	24
241.0677	24
242.0742	96
243.0839	68
244.0905	12
245.0599	45
247.0799	15
258.0676	309
259.0477	9
259.0758	230
260.0852	35
261.0631	12
261.0927	17
269.059	22
270.076	12
271.0753	156
285.0551	18
286.0611	39
287.0704	340
289.0865	32
315.0715	15
