Mass spectrum: Fluopicolide; LC-ESI-QTOF; MS2; 80 V
Name: Fluopicolide
Class: Fungicide
Formula: C14H8Cl3F3N2O
Exact mass: 381.9654
SMILES: c1cc(c(c(c1)Cl)C(=O)NCc2c(cc(cn2)C(F)(F)F)Cl)Cl
InChI: InChI=1S/C14H8Cl3F3N2O/c15-8-2-1-3-9(16)12(8)13(23)22-6-11-10(17)4-7(5-21-11)14(18,19)20/h1-5H,6H2,(H,22,23)
Instrument: TripleTOF 6600 SCIEX
Instrument type: LC-ESI-QTOF
Ms type: MS2
Ion mode: POSITIVE
Collision energy: 80
Fragmentation mode: CID
Ionization: ESI
Column name: Zorbax Eclipse Plus C18 2.1 mm x 150 mm, 3.5 um, Agilent
Retention time: 12.73 min
Precursor m/z: 382.9727
Precursor type: [M+H]+
m/z	relative intensity
74.0146	211
75.0213	18
108.9834	999
109.9901	23
144.96	474
159.0284	10
172.9643	505
