Mass spectrum: Chlorotoluron; LC-ESI-QTOF; MS2; 150 V
Name: Chlorotoluron
Class: Herbicide
Formula: C10H13ClN2O
Exact mass: 212.0716
SMILES: CC1=C(C=C(C=C1)NC(=O)N(C)C)Cl
InChI: InChI=1S/C10H13ClN2O/c1-7-4-5-8(6-9(7)11)12-10(14)13(2)3/h4-6H,1-3H3,(H,12,14)
Instrument: TripleTOF 6600 SCIEX
Instrument type: LC-ESI-QTOF
Ms type: MS2
Ion mode: POSITIVE
Collision energy: 150
Fragmentation mode: CID
Ionization: ESI
Column name: Zorbax Eclipse Plus C18 2.1 mm x 150 mm, 3.5 um, Agilent
Retention time: 9.778 min
Precursor m/z: 213.0789
Precursor type: [M+H]+
m/z	relative intensity
37.0081	344
38.0155	206
39.0238	206
46.9696	206
49.0078	344
50.0151	999
51.0236	482
56.0131	172
61.0075	654
62.0154	688
63.0231	413
74.0149	206
