Mass spectrum: 3,7-Dimethylxanthine; LC-ESI-QTOF; MS2; 30 V
Name: 3,7-Dimethylxanthine
Class: Pharmaceutical; Natural_product
Formula: C7H8N4O2
Exact mass: 180.0647
SMILES: Cn1cnc2N(C)C(=O)NC(=O)c12
InChI: InChI=1S/C7H8N4O2/c1-10-3-8-5-4(10)6(12)9-7(13)11(5)2/h3H,1-2H3,(H,9,12,13)
Instrument: TripleTOF 5600 SCIEX
Instrument type: LC-ESI-QTOF
Ms type: MS2
Ion mode: NEGATIVE
Collision energy: 30
Fragmentation mode: CID
Ionization: ESI
Column name: Zorbax Eclipse Plus C18 2.1 mm x 150 mm, 3.5 um, Agilent
Retention time: 5.242 min
Precursor m/z: 179.0574
Precursor type: [M-H]-
m/z	relative intensity
45.0	327
47.0094	83
79.0162	50
90.9979	999
94.0415	92
107.0132	50
122.036	428
134.988	360
135.0063	121
135.0323	71
164.0343	839
179.0577	432
