Mass spectrum: Oxcarbazepine; LC-ESI-QTOF; MS2; 30 V
Name: Oxcarbazepine
Class: Pharmaceutical
Formula: C15H12N2O2
Exact mass: 252.0899
SMILES: NC(=O)N1c2ccccc2CC(=O)c3ccccc13
InChI: InChI=1S/C15H12N2O2/c16-15(19)17-12-7-3-1-5-10(12)9-14(18)11-6-2-4-8-13(11)17/h1-8H,9H2,(H2,16,19)
Instrument: TripleTOF 5600 SCIEX
Instrument type: LC-ESI-QTOF
Ms type: MS2
Ion mode: POSITIVE
Collision energy: 30
Fragmentation mode: CID
Ionization: ESI
Column name: Zorbax Eclipse Plus C18 2.1 mm x 150 mm, 3.5 um, Agilent
Retention time: 8.323 min
Precursor m/z: 253.0972
Precursor type: [M+H]+
m/z	relative intensity
165.0705	26
167.0725	34
179.074	18
180.0811	761
181.0881	28
182.0963	214
192.0805	12
208.0759	999
210.0913	240
236.0706	202
