Mass spectrum: Benzyl-triethylammonium; LC-ESI-QTOF; MS2; 40 V
Name: Benzyl-triethylammonium
Class: Industrial_process; Personal_care_product
Formula: [C13H22N]+
Exact mass: 192.1747
SMILES: CC[N+](CC)(CC)Cc1ccccc1
InChI: InChI=1S/C13H22N/c1-4-14(5-2,6-3)12-13-10-8-7-9-11-13/h7-11H,4-6,12H2,1-3H3/q+1
Instrument: TripleTOF 5600 SCIEX
Instrument type: LC-ESI-QTOF
Ms type: MS2
Ion mode: POSITIVE
Collision energy: 40
Fragmentation mode: CID
Ionization: ESI
Column name: Zorbax Eclipse Plus C18 2.1 mm x 150 mm, 3.5 um, Agilent
Retention time: 5.094 min
Precursor m/z: 192.1747
Precursor type: [M]+
m/z	relative intensity
65.0428	114
86.0979	156
91.0558	999
100.1123	126
