Mass spectrum: 2-(2-Hydroxyphenyl)-1H-benzimidazole; LC-ESI-QTOF; MS2; 70 V
Name: 2-(2-Hydroxyphenyl)-1H-benzimidazole
Class: Industrial_process; Pharmaceutical
Formula: C13H10N2O
Exact mass: 210.0793
SMILES: C1=CC=C2C(=C1)NC(=C3C=CC=CC3=O)N2
InChI: InChI=1S/C13H10N2O/c16-12-8-4-1-5-9(12)13-14-10-6-2-3-7-11(10)15-13/h1-8,14-15H
Instrument: TripleTOF 5600 SCIEX
Instrument type: LC-ESI-QTOF
Ms type: MS2
Ion mode: POSITIVE
Collision energy: 70
Fragmentation mode: CID
Ionization: ESI
Column name: Zorbax Eclipse Plus C18 2.1 mm x 150 mm, 3.5 um, Agilent
Retention time: 6.225 min
Precursor m/z: 211.0866
Precursor type: [M+H]+
m/z	relative intensity
64.0352	61
66.0414	32
74.0213	17
75.0288	49
76.0359	32
77.0442	378
78.0403	41
88.0346	17
89.0421	45
90.0437	41
91.0451	152
92.053	278
101.0421	25
102.0365	164
103.0435	154
104.0514	114
113.0407	54
114.046	59
115.0519	46
116.0514	20
117.0581	40
118.0543	157
119.0615	40
127.0547	112
128.0517	135
129.0487	139
130.0406	20
130.0658	19
131.0617	156
132.0708	25
137.04	32
138.0464	69
139.0561	125
140.0512	162
141.058	38
142.0552	56
143.0603	125
153.0558	27
154.0657	165
155.0609	170
156.0678	154
164.0503	218
165.0534	74
166.0613	37
167.0616	62
168.0684	141
169.0735	17
179.0588	53
180.0686	136
181.0768	999
182.0833	151
183.0957	17
191.0593	82
192.0684	59
