Mass spectrum: Ranitidine; LC-ESI-QTOF; MS2; 100 V
Name: Ranitidine
Class: Pharmaceutical
Formula: C13H22N4O3S
Exact mass: 314.1413
SMILES: CNC(=C[N+](=O)[O-])NCCSCC1=CC=C(O1)CN(C)C
InChI: InChI=1S/C13H22N4O3S/c1-14-13(9-17(18)19)15-6-7-21-10-12-5-4-11(20-12)8-16(2)3/h4-5,9,14-15H,6-8,10H2,1-3H3
Instrument: TripleTOF 5600 SCIEX
Instrument type: LC-ESI-QTOF
Ms type: MS2
Ion mode: POSITIVE
Collision energy: 100
Fragmentation mode: CID
Ionization: ESI
Column name: Zorbax Eclipse Plus C18 2.1 mm x 150 mm, 3.5 um, Agilent
Retention time: 4.832 min
Precursor m/z: 315.1485
Precursor type: [M+H]+
m/z	relative intensity
42.042	106
43.0246	23
51.0272	106
52.0368	37
53.0439	383
54.0389	41
55.0463	111
55.0585	18
56.0543	323
57.0486	83
57.0646	37
58.0357	18
58.0697	37
58.9992	175
60.0073	27
65.0428	161
66.0502	55
67.0438	37
67.0557	46
68.0532	129
68.9825	23
69.0561	27
70.0674	37
70.9968	18
74.0072	23
77.041	832
78.0356	115
78.0476	106
79.0563	175
80.0161	32
80.0292	18
80.0508	208
81.0359	999
82.0544	143
82.0699	32
82.0827	18
83.0623	50
85.0414	41
88.0218	46
89.0393	50
90.0413	23
91.0549	106
92.0506	46
93.0586	120
94.0429	46
94.0649	166
95.049	18
96.0697	157
97.0108	106
97.0761	550
97.1073	23
102.0373	619
104.0495	189
105.0328	32
105.0498	60
106.0401	27
106.0645	55
107.0494	235
107.07	18
108.0451	23
109.0744	18
110.0715	27
116.0469	32
117.0566	97
118.0652	60
119.0589	87
120.0684	41
121.074	23
125.0051	41
129.0475	46
130.0647	32
132.0436	185
133.0525	55
133.0756	37
148.0656	23
