Mass spectrum: Spirodiclofen-enol; LC-ESI-QTOF; MS2; 150 V
Name: Spirodiclofen-enol
Formula: C15H14Cl2O3
Exact mass: 312.032
SMILES: C1CCC2(CC1)C(=C(C(=O)O2)C3=C(C=C(C=C3)Cl)Cl)O
InChI: InChI=1S/C15H14Cl2O3/c16-9-4-5-10(11(17)8-9)12-13(18)15(20-14(12)19)6-2-1-3-7-15/h4-5,8,18H,1-3,6-7H2
Instrument: TripleTOF 6600 SCIEX
Instrument type: LC-ESI-QTOF
Ms type: MS2
Ion mode: POSITIVE
Collision energy: 150
Fragmentation mode: CID
Ionization: ESI
Column name: Zorbax Eclipse Plus C18 2.1 mm x 150 mm, 3.5 um, Agilent
Retention time: 12.261 min
Precursor m/z: 313.0393
Precursor type: [M+H]+
m/z	relative intensity
37.0078	109
38.0152	45
39.0226	180
41.0386	19
46.9686	83
50.015	138
51.0228	145
60.0001	83
61.007	325
62.0153	428
62.962	19
63.0228	232
65.038	16
70.9682	16
71.9752	174
72.9839	341
73.0072	167
74.0151	999
75.0226	283
76.0298	35
77.0375	112
78.0451	16
82.944	61
83.975	16
83.998	90
84.9831	19
85.0068	331
86.015	663
87.0233	512
88.0296	22
89.0387	151
95.9746	70
96.9837	64
97.0068	25
98.0147	193
99.022	32
101.0386	19
102.0469	29
106.9438	103
108.9819	16
110.0135	22
111.024	12
113.0384	48
115.0542	38
122.0131	25
126.0451	48
137.0357	12
139.054	25
150.0448	132
151.0546	48
152.0616	19
161.038	25
162.0452	22
163.0517	58
164.0621	16
175.0542	22
176.0602	41
