Mass spectrum: Fingolimod; LC-ESI-QTOF; MS2; 120 V
Name: Fingolimod
Class: Pharmaceutical
Formula: C19H33NO2
Exact mass: 307.2511
SMILES: CCCCCCCCC1=CC=C(C=C1)CCC(CO)(CO)N
InChI: InChI=1S/C19H33NO2/c1-2-3-4-5-6-7-8-17-9-11-18(12-10-17)13-14-19(20,15-21)16-22/h9-12,21-22H,2-8,13-16,20H2,1H3
Instrument: TripleTOF 6600 SCIEX
Instrument type: LC-ESI-QTOF
Ms type: MS2
Ion mode: POSITIVE
Collision energy: 120
Fragmentation mode: CID
Ionization: ESI
Column name: Zorbax Eclipse Plus C18 2.1 mm x 150 mm, 3.5 um, Agilent
Retention time: 10.17 min
Precursor m/z: 308.2584
Precursor type: [M+H]+
m/z	relative intensity
37.0065	148
38.0138	129
39.022	721
41.0379	314
50.0142	370
51.022	610
62.0129	111
63.0225	277
65.0374	814
76.0293	111
77.0372	999
78.0447	222
79.0526	111
89.0376	148
91.0528	573
102.0454	333
103.0524	111
115.0522	684
126.0443	111
127.0531	240
128.0603	481
141.0674	148
152.0592	129
