Mass spectrum: Tetrahydroharman-3-carboxylic acid; LC-ESI-QTOF; MS2; 20 V
Name: Tetrahydroharman-3-carboxylic acid
Formula: C13H14N2O2
Exact mass: 230.1055
SMILES: CC1C2=C(CC(N1)C(=O)O)C3=CC=CC=C3N2
InChI: InChI=1S/C13H14N2O2/c1-7-12-9(6-11(14-7)13(16)17)8-4-2-3-5-10(8)15-12/h2-5,7,11,14-15H,6H2,1H3,(H,16,17)
Instrument: TripleTOF 6600 SCIEX
Instrument type: LC-ESI-QTOF
Ms type: MS2
Ion mode: NEGATIVE
Collision energy: 20
Fragmentation mode: CID
Ionization: ESI
Column name: Zorbax Eclipse Plus C18 2.1 mm x 150 mm, 3.5 um, Agilent
Retention time: 5.62 min
Precursor m/z: 229.0982
Precursor type: [M-H]-
m/z	relative intensity
72.009	19
92.0514	85
100.0403	710
116.051	874
142.0664	402
155.075	12
156.0714	25
156.0808	27
158.0965	9
168.0837	36
185.1089	819
229.0983	999
