Mass spectrum: Lisofylline; LC-ESI-QTOF; MS2; 50 V
Name: Lisofylline
Class: Pharmaceutical; Metabolite
Formula: C13H20N4O3
Exact mass: 280.1535
SMILES: CC(O)CCCCN1C(=O)N(C)c2ncn(C)c2C1=O
InChI: InChI=1S/C13H20N4O3/c1-9(18)6-4-5-7-17-12(19)10-11(14-8-15(10)2)16(3)13(17)20/h8-9,18H,4-7H2,1-3H3
Instrument: TripleTOF 5600 SCIEX
Instrument type: LC-ESI-QTOF
Ms type: MS2
Ion mode: POSITIVE
Collision energy: 50
Fragmentation mode: CID
Ionization: ESI
Column name: Zorbax Eclipse Plus C18 2.1 mm x 150 mm, 3.5 um, Agilent
Retention time: 6.425 min
Precursor m/z: 281.1608
Precursor type: [M+H]+
m/z	relative intensity
42.0423	117
55.0605	91
56.0183	57
56.0567	37
67.0338	217
68.0651	14
69.0484	208
69.0764	14
81.0476	154
82.0535	17
83.0249	37
83.0631	183
83.0892	17
93.0445	20
94.0413	22
95.0622	37
96.0574	77
107.061	11
108.0555	463
108.0814	14
109.0392	57
109.0639	22
110.071	466
110.1056	20
113.034	45
120.054	34
121.0631	123
122.0587	123
122.0706	120
123.0436	114
124.0492	37
132.0567	71
135.0664	240
136.0501	228
137.0614	20
137.0818	283
138.0661	999
147.0663	31
149.0848	40
163.0612	603
165.0763	283
181.0714	712
193.0715	320
