Mass spectrum: Mebendazole; LC-ESI-QTOF; MS2; 120 V
Name: Mebendazole
Class: Pharmaceutical
Formula: C16H13N3O3
Exact mass: 295.0957
SMILES: COC(=O)Nc1[nH]c2cc(ccc2n1)C(=O)c3ccccc3
InChI: InChI=1S/C16H13N3O3/c1-22-16(21)19-15-17-12-8-7-11(9-13(12)18-15)14(20)10-5-3-2-4-6-10/h2-9H,1H3,(H2,17,18,19,21)
Instrument: TripleTOF 5600 SCIEX
Instrument type: LC-ESI-QTOF
Ms type: MS2
Ion mode: POSITIVE
Collision energy: 120
Fragmentation mode: CID
Ionization: ESI
Column name: Zorbax Eclipse Plus C18 2.1 mm x 150 mm, 3.5 um, Agilent
Retention time: 8.672 min
Precursor m/z: 296.103
Precursor type: [M+H]+
m/z	relative intensity
51.0176	11
52.0245	23
52.0338	20
64.0347	25
65.0415	17
69.0121	57
74.0186	28
75.0141	103
76.0208	374
77.0412	999
77.0689	37
78.0363	201
78.0536	14
89.0402	34
90.0354	25
103.03	63
104.0369	71
105.0446	126
113.0373	37
114.0461	17
115.0533	20
126.0478	23
127.054	17
130.0408	23
131.0481	14
139.0546	57
140.05	25
164.05	14
