Mass spectrum: Lincomycin; LC-ESI-QTOF; MS2; 70 V
Name: Lincomycin
Class: Pharmaceutical
Formula: C18H34N2O6S
Exact mass: 406.2138
SMILES: CCCC1CC(N(C1)C)C(=O)NC(C2C(C(C(C(O2)SC)O)O)O)C(C)O
InChI: InChI=1S/C18H34N2O6S/c1-5-6-10-7-11(20(3)8-10)17(25)19-12(9(2)21)16-14(23)13(22)15(24)18(26-16)27-4/h9-16,18,21-24H,5-8H2,1-4H3,(H,19,25)
Instrument: TripleTOF 5600 SCIEX
Instrument type: LC-ESI-QTOF
Ms type: MS2
Ion mode: POSITIVE
Collision energy: 70
Fragmentation mode: CID
Ionization: ESI
Column name: Zorbax Eclipse Plus C18 2.1 mm x 150 mm, 3.5 um, Agilent
Retention time: 4.875 min
Precursor m/z: 407.221
Precursor type: [M+H]+
m/z	relative intensity
42.0334	17
69.0691	14
70.0648	47
82.0647	45
83.0722	48
84.0802	18
95.085	12
124.1119	24
126.1273	999
