Mass spectrum: Napropamide; LC-ESI-QTOF; MS2; 150 V
Name: Napropamide
Class: Herbicide
Formula: C17H21NO2
Exact mass: 271.1572
SMILES: CCN(CC)C(=O)C(C)Oc1cccc2c1cccc2
InChI: InChI=1S/C17H21NO2/c1-4-18(5-2)17(19)13(3)20-16-12-8-10-14-9-6-7-11-15(14)16/h6-13H,4-5H2,1-3H3
Instrument: TripleTOF 6600 SCIEX
Instrument type: LC-ESI-QTOF
Ms type: MS2
Ion mode: POSITIVE
Collision energy: 150
Fragmentation mode: CID
Ionization: ESI
Column name: Zorbax Eclipse Plus C18 2.1 mm x 150 mm, 3.5 um, Agilent
Retention time: 12.596 min
Precursor m/z: 272.1645
Precursor type: [M+H]+
m/z	relative intensity
37.0081	97
38.0029	215
38.0154	97
39.0229	352
42.0342	215
44.0131	411
44.0492	293
49.0067	274
50.0148	979
51.0227	920
55.0177	97
61.0074	293
62.015	626
63.0227	803
65.0385	195
73.0071	156
74.0149	999
75.0235	470
76.0307	215
77.0375	313
78.0457	137
85.0073	156
86.015	254
87.0241	176
89.0387	254
98.014	235
99.0214	137
102.0457	156
115.0542	195
126.0461	195
150.0469	156
