Mass spectrum: Methoxyfenozide; LC-ESI-QTOF; MS2; 110 V
Name: Methoxyfenozide
Class: Insecticide
Formula: C22H28N2O3
Exact mass: 368.21
SMILES: CC1=CC(=CC(=C1)C(=O)N(C(C)(C)C)NC(=O)C2=C(C(=CC=C2)OC)C)C
InChI: InChI=1S/C22H28N2O3/c1-14-11-15(2)13-17(12-14)21(26)24(22(4,5)6)23-20(25)18-9-8-10-19(27-7)16(18)3/h8-13H,1-7H3,(H,23,25)
Instrument: TripleTOF 6600 SCIEX
Instrument type: LC-ESI-QTOF
Ms type: MS2
Ion mode: NEGATIVE
Collision energy: 110
Fragmentation mode: CID
Ionization: ESI
Column name: Zorbax Eclipse Plus C18 2.1 mm x 150 mm, 3.5 um, Agilent
Retention time: 12.837 min
Precursor m/z: 367.2027
Precursor type: [M-H]-
m/z	relative intensity
41.997	999
65.0008	75
91.0158	193
