Mass spectrum: Desethylterbuthylazine; LC-ESI-QTOF; MS2; 110 V
Name: Desethylterbuthylazine
Class: Herbicide; Transformation_product; Metabolite; Transformation_product-Metabolite
Formula: C7H12ClN5
Exact mass: 201.0781
SMILES: CC(C)(C)NC1=NC(=NC(=N1)N)Cl
InChI: InChI=1S/C7H12ClN5/c1-7(2,3)13-6-11-4(8)10-5(9)12-6/h1-3H3,(H3,9,10,11,12,13)
Instrument: TripleTOF 6600 SCIEX
Instrument type: LC-ESI-QTOF
Ms type: MS2
Ion mode: POSITIVE
Collision energy: 110
Fragmentation mode: CID
Ionization: ESI
Column name: Zorbax Eclipse Plus C18 2.1 mm x 150 mm, 3.5 um, Agilent
Retention time: 9.136 min
Precursor m/z: 202.0854
Precursor type: [M+H]+
m/z	relative intensity
35.9989	11
37.0072	53
38.0034	12
38.015	41
39.0231	176
41.0136	75
41.0385	17
42.0217	90
42.0331	20
43.0297	872
53.0135	49
61.9795	999
68.0245	236
86.974	11
