Mass spectrum: m-Hydroxybenzoylecgonine; LC-ESI-QTOF; MS2; 40 V
Name: m-Hydroxybenzoylecgonine
Class: Metabolite
Formula: C16H19NO5
Exact mass: 305.1263
SMILES: CN1C2CCC1C(C(C2)OC(=O)C3=CC(=CC=C3)O)C(=O)O
InChI: InChI=1S/C16H19NO5/c1-17-10-5-6-12(17)14(15(19)20)13(8-10)22-16(21)9-3-2-4-11(18)7-9/h2-4,7,10,12-14,18H,5-6,8H2,1H3,(H,19,20)
Instrument: TripleTOF 6600 SCIEX
Instrument type: LC-ESI-QTOF
Ms type: MS2
Ion mode: POSITIVE
Collision energy: 40
Fragmentation mode: CID
Ionization: ESI
Column name: Zorbax Eclipse Plus C18 2.1 mm x 150 mm, 3.5 um, Agilent
Retention time: 5.39 min
Precursor m/z: 306.1342
Precursor type: [M+H]+
m/z	relative intensity
44.0507	9
57.0588	14
65.0398	76
67.0428	8
67.055	38
68.0503	33
77.0388	16
79.0543	10
81.0702	12
82.0662	325
83.0514	15
83.0735	96
84.0813	13
91.0547	171
93.0347	277
93.0493	9
93.07	34
94.0664	37
96.0813	29
100.0764	33
107.0738	10
108.0814	34
109.0665	7
111.044	8
117.058	8
119.0497	128
121.0296	893
122.0968	82
124.1126	62
132.0807	14
135.0674	23
137.0609	11
140.07	15
140.1062	7
150.091	107
168.1023	999
186.1124	7
288.1214	10
306.1317	46
