Mass spectrum: Clopidogrel carboxylic acid; LC-ESI-QTOF; MS2; 40 V
Name: Clopidogrel carboxylic acid
Class: Pharmaceutical; Transformation_product-Metabolite
Formula: C15H14ClNO2S
Exact mass: 307.0434
SMILES: C1CN(CC2=C1SC=C2)C(C3=CC=CC=C3Cl)C(=O)O
InChI: InChI=1S/C15H14ClNO2S/c16-12-4-2-1-3-11(12)14(15(18)19)17-7-5-13-10(9-17)6-8-20-13/h1-4,6,8,14H,5,7,9H2,(H,18,19)
Instrument: TripleTOF 6600 SCIEX
Instrument type: LC-ESI-QTOF
Ms type: MS2
Ion mode: POSITIVE
Collision energy: 40
Fragmentation mode: CID
Ionization: ESI
Column name: Zorbax Eclipse Plus C18 2.1 mm x 150 mm, 3.5 um, Agilent
Retention time: 6.621 min
Precursor m/z: 308.0507
Precursor type: [M+H]+
m/z	relative intensity
77.0396	229
111.0267	20
113.016	370
117.0574	10
125.016	622
134.0366	26
140.0268	168
141.011	755
152.0271	779
169.0061	999
170.0375	254
198.0324	362
