Mass spectrum: Piroxicam; LC-ESI-QTOF; MS2; 50 V
Name: Piroxicam
Class: Pharmaceutical
Formula: C15H13N3O4S
Exact mass: 331.0627
SMILES: CN1C(=C(C2=CC=CC=C2S1(=O)=O)O)C(=O)NC3=CC=CC=N3
InChI: InChI=1S/C15H13N3O4S/c1-18-13(15(20)17-12-8-4-5-9-16-12)14(19)10-6-2-3-7-11(10)23(18,21)22/h2-9,19H,1H3,(H,16,17,20)
Instrument: TripleTOF 5600 SCIEX
Instrument type: LC-ESI-QTOF
Ms type: MS2
Ion mode: POSITIVE
Collision energy: 50
Fragmentation mode: CID
Ionization: ESI
Column name: Zorbax Eclipse Plus C18 2.1 mm x 150 mm, 3.5 um, Agilent
Retention time: 9.527 min
Precursor m/z: 332.07
Precursor type: [M+H]+
m/z	relative intensity
77.0436	12
78.0396	446
91.0586	12
94.0589	10
95.0644	999
97.014	17
104.0305	12
105.0425	45
107.0633	18
109.0137	31
121.0419	676
123.0572	29
125.0063	12
137.0085	18
146.063	16
148.0525	13
149.0588	27
153	58
164.0185	30
164.0824	20
168.9938	66
210.0199	15
