Mass spectrum: Octocrylene; LC-ESI-QTOF; MS2; 50 V
Name: Octocrylene
Class: Industrial_process; Personal_care_product
Formula: C24H27NO2
Exact mass: 361.2042
SMILES: CCCCC(CC)COC(=O)C(=C(C1=CC=CC=C1)C2=CC=CC=C2)C#N
InChI: InChI=1S/C24H27NO2/c1-3-5-12-19(4-2)18-27-24(26)22(17-25)23(20-13-8-6-9-14-20)21-15-10-7-11-16-21/h6-11,13-16,19H,3-5,12,18H2,1-2H3
Instrument: TripleTOF 5600 SCIEX
Instrument type: LC-ESI-QTOF
Ms type: MS2
Ion mode: POSITIVE
Collision energy: 50
Fragmentation mode: CID
Ionization: ESI
Column name: Zorbax Eclipse Plus C18 2.1 mm x 150 mm, 3.5 um, Agilent
Retention time: 17.664 min
Precursor m/z: 362.2115
Precursor type: [M+H]+
m/z	relative intensity
71.0924	32
77.0425	48
104.0475	32
104.0612	12
105.0346	375
128.0505	16
129.034	25
151.0537	19
157.0279	29
176.0609	142
177.0697	378
178.0746	58
179.085	19
182.0977	25
202.0648	32
203.0723	252
204.0812	982
205.0698	25
206.0995	29
232.0756	999
