Mass spectrum: 3,3`-Dimethoxybenzidine; LC-ESI-QTOF; MS2; 40 V
Name: 3,3`-Dimethoxybenzidine
Formula: C14H16N2O2
Exact mass: 244.1212
SMILES: COC1=C(C=CC(=C1)C2=CC(=C(C=C2)N)OC)N
InChI: InChI=1S/C14H16N2O2/c1-17-13-7-9(3-5-11(13)15)10-4-6-12(16)14(8-10)18-2/h3-8H,15-16H2,1-2H3
Instrument: TripleTOF 6600 SCIEX
Instrument type: LC-ESI-QTOF
Ms type: MS2
Ion mode: POSITIVE
Collision energy: 40
Fragmentation mode: CID
Ionization: ESI
Column name: Zorbax Eclipse Plus C18 2.1 mm x 150 mm, 3.5 um, Agilent
Retention time: 5.188 min
Precursor m/z: 245.1285
Precursor type: [M+H]+
m/z	relative intensity
115.0528	14
142.0628	14
143.0723	79
153.0557	11
154.0637	29
158.0833	42
159.0871	106
169.0751	63
170.0827	203
171.0908	19
181.0752	21
182.0829	40
186.0806	34
187.0858	999
197.0676	19
198.0784	166
199.0887	10
201.1008	33
202.105	194
213.1009	77
215.0804	144
230.1042	236
245.1238	30
