Mass spectrum: p-Phenetidine; LC-ESI-QTOF; MS2; 50 V
Name: p-Phenetidine
Formula: C8H11NO
Exact mass: 137.0841
SMILES: CCOC1=CC=C(C=C1)N
InChI: InChI=1S/C8H11NO/c1-2-10-8-5-3-7(9)4-6-8/h3-6H,2,9H2,1H3
Instrument: TripleTOF 6600 SCIEX
Instrument type: LC-ESI-QTOF
Ms type: MS2
Ion mode: POSITIVE
Collision energy: 50
Fragmentation mode: CID
Ionization: ESI
Column name: Zorbax Eclipse Plus C18 2.1 mm x 150 mm, 3.5 um, Agilent
Retention time: 4.84 min
Precursor m/z: 138.0914
Precursor type: [M+H]+
m/z	relative intensity
37.0081	96
38.0159	75
39.0242	630
42.0351	12
51.0241	31
53.0398	61
62.0155	11
63.0242	149
64.0326	38
65.0395	993
66.0472	66
67.0419	63
77.0387	26
80.0503	999
81.058	106
82.0659	11
92.0504	53
93.0347	31
93.0586	156
108.0448	144
109.0523	162
110.0617	14
