Mass spectrum: Citalopram; LC-ESI-QTOF; MS2; 130 V
Name: Citalopram
Class: Pharmaceutical
Formula: C20H21FN2O
Exact mass: 324.1638
SMILES: CN(C)CCCC1(OCc2cc(ccc12)C#N)c3ccc(F)cc3
InChI: InChI=1S/C20H21FN2O/c1-23(2)11-3-10-20(17-5-7-18(21)8-6-17)19-9-4-15(13-22)12-16(19)14-24-20/h4-9,12H,3,10-11,14H2,1-2H3
Instrument: TripleTOF 5600 SCIEX
Instrument type: LC-ESI-QTOF
Ms type: MS2
Ion mode: POSITIVE
Collision energy: 130
Fragmentation mode: CID
Ionization: ESI
Column name: Zorbax Eclipse Plus C18 2.1 mm x 150 mm, 3.5 um, Agilent
Retention time: 7.757 min
Precursor m/z: 325.1711
Precursor type: [M+H]+
m/z	relative intensity
42.0425	57
43.0503	14
44.0573	25
51.0292	95
56.0535	14
57.0197	613
58.0706	191
59.0345	70
60.0047	11
65.0424	54
70.026	19
73.0125	18
74.0187	299
75.0264	353
76.0341	39
77.0413	159
78.05	15
81.0174	72
83.0324	999
85.0092	40
86.0177	75
87.0246	180
88.0205	88
89.0406	400
90.0357	42
94.0226	44
95.0295	64
96.0386	28
97.0083	12
98.0166	222
99.0237	124
100.031	28
101.0384	33
102.0467	44
105.0148	29
106.0215	16
107.0301	113
109.0083	22
109.0454	247
110.0158	56
111.0231	60
112.019	22
113.0395	247
114.0347	102
115.0551	60
116.0508	18
118.0222	19
120.0372	91
122.0153	135
123.0094	15
123.0231	134
124.0215	15
124.0307	29
125.0386	51
126.0466	85
127.0409	12
127.0555	35
128.0627	33
129.0146	12
131.0287	68
132.0246	14
133.0441	128
134.0155	30
135.0232	26
136.0227	14
137.0384	72
138.0345	28
139.0539	49
140.0501	114
141.0133	12
142.0208	15
143.0294	15
144.0368	86
145.0455	15
146.015	68
146.0522	22
147.0234	84
148.0165	14
148.0299	42
149.0392	110
150.0464	190
151.053	57
152.062	14
155.0289	47
156.0381	14
157.044	63
158.0388	26
161.0389	201
162.0469	124
163.0538	168
164.0501	65
166.0208	21
167.0295	63
168.0374	325
169.0454	103
170.019	12
170.0531	70
171.0238	11
172.0293	22
173.0387	88
174.0466	225
175.0434	116
176.0562	36
177.0563	12
179.0289	88
180.0375	109
181.0448	392
182.0414	86
183.0619	12
185.0387	61
186.0462	113
187.0531	302
188.0503	214
189.059	33
190.064	18
191.0288	26
192.0374	218
193.0402	114
194.0532	103
195.0493	21
196.0318	14
197.0384	144
198.0465	427
199.05	236
200.0616	155
201.0598	40
203.0297	32
204.036	65
205.0449	281
206.0427	183
207.0576	67
208.0555	68
209.0409	12
210.0436	22
211.0537	172
212.0499	149
213.0663	68
214.0669	36
215.0303	11
216.0371	186
217.0453	302
218.0532	477
219.0484	103
220.0687	35
222.0483	23
223.0423	98
224.0496	102
225.0578	148
226.0645	14
229.0424	60
230.0422	81
231.0597	120
232.0559	39
236.0499	46
237.0595	12
238.064	77
240.0359	9
241.0362	11
242.0412	15
242.054	29
243.0478	221
244.0575	64
245.0635	68
256.056	30
258.0728	19
