Mass spectrum: Clenbuterol; LC-ESI-QTOF; MS2; 90 V
Name: Clenbuterol
Class: Pharmaceutical
Formula: C12H18Cl2N2O
Exact mass: 276.0796
SMILES: CC(C)(C)NCC(c1cc(c(c(c1)Cl)N)Cl)O
InChI: InChI=1S/C12H18Cl2N2O/c1-12(2,3)16-6-10(17)7-4-8(13)11(15)9(14)5-7/h4-5,10,16-17H,6,15H2,1-3H3
Instrument: TripleTOF 5600 SCIEX
Instrument type: LC-ESI-QTOF
Ms type: MS2
Ion mode: POSITIVE
Collision energy: 90
Fragmentation mode: CID
Ionization: ESI
Column name: Zorbax Eclipse Plus C18 2.1 mm x 150 mm, 3.5 um, Agilent
Retention time: 6.115 min
Precursor m/z: 277.0869
Precursor type: [M+H]+
m/z	relative intensity
51.0284	75
57.0752	102
58.0683	11
65.0423	21
72.9875	15
74.0218	17
75.0266	62
77.0418	553
77.0703	25
78.0376	74
78.0493	88
78.0675	11
79.0443	40
79.0559	38
80.0525	77
88.0326	20
89.0408	224
90.0356	78
90.0478	22
91.0435	24
92.0504	27
93.0581	22
99.0005	21
102.0345	41
104.0507	999
105.0582	242
106.0658	265
111.0003	35
113.0157	64
114.0124	11
114.0326	21
115.0429	35
116.0502	134
117.0574	130
118.0537	25
122.9989	37
124.0064	20
125.0033	15
126.0115	22
127.018	40
131.0609	425
132.069	483
133.077	37
138.0114	22
139.0186	15
140.0267	688
151.0179	77
153.021	28
160.9802	21
167.0371	30
173.9864	20
