Mass spectrum: 2-Dimethylaminoguanosine; LC-ESI-QTOF; MS2; 60 V
Name: 2-Dimethylaminoguanosine
Class: Pharmaceutical
Formula: C12H17N5O5
Exact mass: 311.123
SMILES: CN(C)C1=NC(=O)c2ncn([C@@H]3O[C@H](CO)[C@@H](O)[C@H]3O)c2N1
InChI: InChI=1S/C12H17N5O5/c1-16(2)12-14-9-6(10(21)15-12)13-4-17(9)11-8(20)7(19)5(3-18)22-11/h4-5,7-8,11,18-20H,3H2,1-2H3,(H,14,15,21)/t5-,7-,8-,11-/m1/s1
Instrument: TripleTOF 5600 SCIEX
Instrument type: LC-ESI-QTOF
Ms type: MS2
Ion mode: POSITIVE
Collision energy: 60
Fragmentation mode: CID
Ionization: ESI
Column name: Zorbax Eclipse Plus C18 2.1 mm x 150 mm, 3.5 um, Agilent
Retention time: 4.565 min
Precursor m/z: 312.1302
Precursor type: [M+H]+
m/z	relative intensity
55.0346	30
71.0628	75
80.0229	14
82.0422	58
107.0339	19
108.0423	19
110.0339	760
110.0593	11
122.033	16
122.057	75
135.0291	547
136.0382	25
137.0451	39
137.0806	182
147.053	39
148.0379	22
162.0766	89
163.0605	84
165.0626	72
178.0729	19
180.0861	999
