Mass spectrum: Ethisterone; LC-ESI-QTOF; MS2; 120 V
Name: Ethisterone
Class: Pharmaceutical; Metabolite
Formula: C21H28O2
Exact mass: 312.2089
SMILES: C[C@]12CCC(=O)C=C1CC[C@@H]3[C@@H]2CC[C@@]4(C)[C@H]3CC[C@@]4(O)C#C
InChI: InChI=1S/C21H28O2/c1-4-21(23)12-9-18-16-6-5-14-13-15(22)7-10-19(14,2)17(16)8-11-20(18,21)3/h1,13,16-18,23H,5-12H2,2-3H3/t16-,17+,18+,19+,20+,21+/m1/s1
Instrument: TripleTOF 5600 SCIEX
Instrument type: LC-ESI-QTOF
Ms type: MS2
Ion mode: POSITIVE
Collision energy: 120
Fragmentation mode: CID
Ionization: ESI
Column name: Zorbax Eclipse Plus C18 2.1 mm x 150 mm, 3.5 um, Agilent
Retention time: 11.662 min
Precursor m/z: 313.2162
Precursor type: [M+H]+
m/z	relative intensity
43.0262	153
53.0447	136
55.0225	119
55.0581	51
65.0435	281
66.0504	59
67.0582	128
77.041	999
79.0556	367
81.0365	42
81.0703	76
83.049	42
89.0398	145
91.0548	392
91.0706	68
97.0654	179
102.0463	153
103.0549	76
105.0704	42
107.0508	85
109.0646	76
115.0535	657
126.049	59
127.0536	179
128.0614	478
139.0534	85
141.0694	119
151.0531	76
152.0611	153
153.0696	42
163.0571	51
165.0696	93
178.0748	42
