Mass spectrum: 2-(4-Chlorophenyl)benzimidazole; LC-ESI-QTOF; MS2; 20 V
Name: 2-(4-Chlorophenyl)benzimidazole
Class: Pharmaceutical
Formula: C13H9ClN2
Exact mass: 228.0454
SMILES: C1=CC=C2C(=C1)NC(=N2)C3=CC=C(C=C3)Cl
InChI: InChI=1S/C13H9ClN2/c14-10-7-5-9(6-8-10)13-15-11-3-1-2-4-12(11)16-13/h1-8H,(H,15,16)
Instrument: TripleTOF 5600 SCIEX
Instrument type: LC-ESI-QTOF
Ms type: MS2
Ion mode: POSITIVE
Collision energy: 20
Fragmentation mode: CID
Ionization: ESI
Column name: Zorbax Eclipse Plus C18 2.1 mm x 150 mm, 3.5 um, Agilent
Retention time: 6.754 min
Precursor m/z: 229.0527
Precursor type: [M+H]+
m/z	relative intensity
92.052	15
194.0831	22
229.0514	999
