Mass spectrum: Promethazine; LC-ESI-QTOF; MS2; 100 V
Name: Promethazine
Class: Pharmaceutical
Formula: C17H20N2S
Exact mass: 284.1347
SMILES: CC(CN1c2ccccc2Sc3c1cccc3)N(C)C
InChI: InChI=1S/C17H20N2S/c1-13(18(2)3)12-19-14-8-4-6-10-16(14)20-17-11-7-5-9-15(17)19/h4-11,13H,12H2,1-3H3
Instrument: TripleTOF 5600 SCIEX
Instrument type: LC-ESI-QTOF
Ms type: MS2
Ion mode: POSITIVE
Collision energy: 100
Fragmentation mode: CID
Ionization: ESI
Column name: Zorbax Eclipse Plus C18 2.1 mm x 150 mm, 3.5 um, Agilent
Retention time: 7.995 min
Precursor m/z: 285.142
Precursor type: [M+H]+
m/z	relative intensity
41.0361	24
42.0448	104
43.0548	12
44.0569	39
51.0314	67
56.0578	999
58.0719	51
65.0432	87
68.9847	220
69.0226	10
69.993	15
70.0705	163
70.9987	12
71.0787	797
74.02	30
75.0281	130
76.0344	13
77.0433	448
79.0596	15
81.99	85
84.0848	73
86.0176	10
86.1009	395
87.0294	32
88.0349	27
89.0424	135
90.0495	20
91.0579	22
92.9825	24
92.9931	10
94.9986	32
98.0174	10
99.0247	22
100.0322	12
101.041	256
102.036	22
102.0491	37
103.0572	36
104.0503	12
108.0044	85
109.0145	37
113.0413	120
114.0357	20
114.0489	18
115.0566	87
116.0529	29
120.0065	12
121.0137	46
125.0416	60
126.0491	312
127.057	519
127.0896	15
128.0525	338
129.0468	25
130.0683	58
134.0185	15
137.0426	41
138.0483	29
139.0566	226
140.0534	309
145.0145	30
146.009	15
150.0497	42
151.0567	113
152.06	194
153.0612	214
153.0858	10
154.0683	144
159.0176	36
163.0588	61
164.0538	163
165.0718	106
166.068	116
167.0746	41
169.0141	61
170.0217	46
171.0288	87
172.026	17
176.0669	32
177.0604	48
178.0724	75
179.0765	41
180.084	18
189.0675	10
190.0683	63
191.0767	44
195.0281	32
196.0256	209
197.0331	163
198.0405	15
203.0774	17
204.0862	37
222.0418	98
223.0498	87
