Mass spectrum: (Vinylbenzyl)trimethyl ammonium; LC-ESI-QTOF; MS2; 120 V
Name: (Vinylbenzyl)trimethyl ammonium
Class: Industrial_process
Formula: [C12H18N]+
Exact mass: 176.1434
SMILES: C[N+](C)(C)Cc1ccc(cc1)C=C
InChI: InChI=1S/C12H18N/c1-5-11-6-8-12(9-7-11)10-13(2,3)4/h5-9H,1,10H2,2-4H3/q+1
Instrument: TripleTOF 5600 SCIEX
Instrument type: LC-ESI-QTOF
Ms type: MS2
Ion mode: POSITIVE
Collision energy: 120
Fragmentation mode: CID
Ionization: ESI
Column name: Zorbax Eclipse Plus C18 2.1 mm x 150 mm, 3.5 um, Agilent
Retention time: 5.404 min
Precursor m/z: 176.1434
Precursor type: [M]+
m/z	relative intensity
42.0431	381
58.0701	205
65.0428	477
73.0096	235
74.0178	999
75.0248	178
85.0084	331
86.016	351
89.0394	387
