Mass spectrum: Azacyclonol; LC-ESI-QTOF; MS2; 50 V
Name: Azacyclonol
Class: Pharmaceutical
Formula: C18H21NO
Exact mass: 267.1623
SMILES: OC(C1CCNCC1)(C2=CC=CC=C2)C3=CC=CC=C3
InChI: InChI=1S/C18H21NO/c20-18(15-7-3-1-4-8-15,16-9-5-2-6-10-16)17-11-13-19-14-12-17/h1-10,17,19-20H,11-14H2
Instrument: TripleTOF 5600 SCIEX
Instrument type: LC-ESI-QTOF
Ms type: MS2
Ion mode: POSITIVE
Collision energy: 50
Fragmentation mode: CID
Ionization: ESI
Column name: Zorbax Eclipse Plus C18 2.1 mm x 150 mm, 3.5 um, Agilent
Retention time: 6.644 min
Precursor m/z: 268.1696
Precursor type: [M+H]+
m/z	relative intensity
42.034	11
44.0496	19
56.0495	36
65.0383	63
68.0497	17
70.0645	13
77.0388	40
79.0538	30
80.0503	19
82.0654	107
91.0544	999
102.0481	10
103.054	124
105.07	199
115.0552	167
117.0662	109
127.0542	122
128.0623	724
129.0698	56
130.0645	74
132.0802	29
141.0692	50
142.0783	10
143.0859	188
144.0829	18
152.0628	88
155.0598	11
165.0709	135
166.0772	71
167.0855	66
178.0771	57
179.0855	23
181.0993	13
189.0716	10
191.0857	30
192.0944	10
203.0872	24
204.0944	19
