Mass spectrum: Hydrocodone; LC-ESI-QTOF; MS2; 60 V
Name: Hydrocodone
Class: Pharmaceutical
Formula: C18H21NO3
Exact mass: 299.1521
SMILES: CN1CCC23C4C1CC5=C2C(=C(C=C5)OC)OC3C(=O)CC4
InChI: InChI=1S/C18H21NO3/c1-19-8-7-18-11-4-5-13(20)17(18)22-16-14(21-2)6-3-10(15(16)18)9-12(11)19/h3,6,11-12,17H,4-5,7-9H2,1-2H3
Instrument: TripleTOF 6600 SCIEX
Instrument type: LC-ESI-QTOF
Ms type: MS2
Ion mode: POSITIVE
Collision energy: 60
Fragmentation mode: CID
Ionization: ESI
Column name: Zorbax Eclipse Plus C18 2.1 mm x 150 mm, 3.5 um, Agilent
Retention time: 5.331 min
Precursor m/z: 300.1594
Precursor type: [M+H]+
m/z	relative intensity
44.0487	53
55.0172	45
77.0376	25
91.0534	19
102.0449	25
103.0525	18
114.0456	25
115.0529	428
116.0612	17
126.0428	15
127.0536	166
128.0609	999
129.0678	99
131.0468	18
137.0574	11
139.0523	33
140.0601	26
141.0688	690
142.04	16
142.076	56
143.0471	36
143.084	39
144.0563	103
145.0633	28
151.0545	58
152.0607	423
153.0686	686
154.0758	122
155.048	196
155.083	102
156.0558	341
157.0632	43
158.0714	42
159.0783	15
161.0578	21
164.0607	12
165.0684	342
166.0745	31
167.0844	27
168.0558	121
169.0284	10
169.0642	184
170.036	152
170.0709	168
171.0475	29
171.0791	977
172.0474	31
178.0802	21
179.084	15
181.0636	262
182.0719	89
183.0429	445
183.0747	43
184.0513	148
185.0586	342
185.0932	50
186.0676	23
187.0762	21
189.0705	12
193.0632	32
194.0702	37
195.0783	32
197.0574	77
198.0655	271
199.0748	691
200.0774	17
210.0673	30
211.0719	24
212.0804	19
213.0898	100
225.0899	20
241.0846	19
