Mass spectrum: Iopromide; LC-ESI-QTOF; MS2; 100 V
Name: Iopromide
Class: Pharmaceutical
Formula: C18H24I3N3O8
Exact mass: 790.8698
SMILES: COCC(=O)Nc1c(I)c(C(=O)NCC(O)CO)c(I)c(c1I)C(=O)N(C)CC(O)CO
InChI: InChI=1S/C18H24I3N3O8/c1-24(4-9(28)6-26)18(31)12-13(19)11(17(30)22-3-8(27)5-25)14(20)16(15(12)21)23-10(29)7-32-2/h8-9,25-28H,3-7H2,1-2H3,(H,22,30)(H,23,29)
Instrument: TripleTOF 5600 SCIEX
Instrument type: LC-ESI-QTOF
Ms type: MS2
Ion mode: POSITIVE
Collision energy: 100
Fragmentation mode: CID
Ionization: ESI
Column name: Zorbax Eclipse Plus C18 2.1 mm x 150 mm, 3.5 um, Agilent
Retention time: 4.895 min
Precursor m/z: 791.877
Precursor type: [M+H]+
m/z	relative intensity
45.0393	12
88.0203	21
101.0302	15
101.9976	12
104.0549	15
116.0116	21
116.0396	15
117.0207	98
128.0131	15
141.9925	52
144.0078	24
145.0154	39
154.897	12
157.0165	18
158.0241	27
158.045	18
159.0324	18
159.0526	12
172.0034	55
172.0272	33
172.061	12
173.0111	104
185.0437	24
188.034	30
200.9037	15
203.0229	12
215.9309	18
226.9251	12
227.9308	49
228.9256	12
242.9168	30
243.9227	55
254.9173	15
255.9257	128
256.9304	18
259.0718	12
269.9053	18
270.9125	33
271.9204	177
282.912	27
283.923	55
284.9213	12
284.9588	18
285.9338	15
286.9519	12
287.9508	27
298.9096	76
298.9332	64
299.9154	999
299.9721	12
312.9469	24
313.9311	113
314.9398	15
315.9463	15
326.9024	49
326.9627	12
327.8062	12
327.8235	15
339.8125	45
353.8261	18
355.8019	24
355.8346	24
357.9178	21
367.8055	18
369.815	18
379.8025	18
381.8255	30
382.8368	39
385.8208	18
398.8217	15
409.8213	36
422.8242	27
423.7968	131
425.8109	21
425.8404	18
