Mass spectrum: Olmesartan-d6; LC-ESI-QTOF; MS2; 40 V
Name: Olmesartan-d6
Class: Surrogate_standard
Formula: C24H20N6O3 2H6
Exact mass: 452.2443
SMILES: [2H]C([2H])([2H])C(C1=C(N(C(=N1)CCC)CC2=CC=C(C=C2)C3=CC=CC=C3C4=NNN=N4)C(=O)O)(C([2H])([2H])[2H])O
InChI: InChI=1S/C24H26N6O3/c1-4-7-19-25-21(24(2,3)33)20(23(31)32)30(19)14-15-10-12-16(13-11-15)17-8-5-6-9-18(17)22-26-28-29-27-22/h5-6,8-13,33H,4,7,14H2,1-3H3,(H,31,32)(H,26,27,28,29)/i2D3,3D3
Instrument: TripleTOF 5600 SCIEX
Instrument type: LC-ESI-QTOF
Ms type: MS2
Ion mode: POSITIVE
Collision energy: 40
Fragmentation mode: CID
Ionization: ESI
Column name: Zorbax Eclipse Plus C18 2.1 mm x 150 mm, 3.5 um, Agilent
Retention time: 7.306 min
Precursor m/z: 453.2527
Precursor type: [M+H]+
m/z	relative intensity
140.0508	15
152.0638	22
153.0712	75
163.0545	26
164.0571	10
165.0688	12
166.0668	14
167.0759	15
178.0777	215
179.0839	92
180.082	248
181.0868	46
182.1342	95
183.1395	90
190.0654	236
191.0733	117
192.0721	111
193.0747	16
201.1513	69
205.0772	59
206.0843	160
207.0912	999
208.0979	627
209.1021	21
235.0983	183
236.1028	53
363.248	14
435.2408	158
453.25	12
