Mass spectrum: Mefloquine; LC-ESI-QTOF; MS2; 120 V
Name: Mefloquine
Class: Pharmaceutical
Formula: C17H16F6N2O
Exact mass: 378.1167
SMILES: C1CCNC(C1)C(C2=CC(=NC3=C2C=CC=C3C(F)(F)F)C(F)(F)F)O
InChI: InChI=1S/C17H16F6N2O/c18-16(19,20)11-5-3-4-9-10(15(26)12-6-1-2-7-24-12)8-13(17(21,22)23)25-14(9)11/h3-5,8,12,15,24,26H,1-2,6-7H2
Instrument: TripleTOF 5600 SCIEX
Instrument type: LC-ESI-QTOF
Ms type: MS2
Ion mode: POSITIVE
Collision energy: 120
Fragmentation mode: CID
Ionization: ESI
Column name: Zorbax Eclipse Plus C18 2.1 mm x 150 mm, 3.5 um, Agilent
Retention time: 8.432 min
Precursor m/z: 379.124
Precursor type: [M+H]+
m/z	relative intensity
42.0475	27
51.0291	18
54.044	60
56.058	162
57.0239	12
65.0443	48
67.0479	220
68.0558	262
69.0003	244
70.0704	111
74.0208	114
75.0125	96
75.0272	135
76.0368	21
77.0432	117
78.0528	12
80.0533	132
81.0184	48
81.0642	15
82.07	455
83.0328	54
84.0844	178
85.0117	36
86.0196	54
87.0267	78
88.0186	24
88.0334	66
89.0423	39
92.0083	24
92.9973	15
93.0161	45
94.0238	24
95.0139	24
95.0336	24
96.0846	42
97.0118	24
98.0172	159
99.0092	93
99.0251	268
100.0213	87
101.0208	27
101.0396	48
102.0494	24
105.013	39
106.0205	72
107.0302	75
108.0263	18
110.019	51
111.023	159
112.0193	81
112.0342	15
113.0401	199
114.0348	126
115.0559	36
116.9939	18
117.0139	78
118.0226	48
119.0101	30
119.029	33
120.0351	15
121.0099	24
122.0164	123
123.02	371
124.0188	410
125.0194	63
125.0396	298
126.013	18
126.0443	277
127.0528	135
128.0512	45
129.0129	27
129.0574	12
130.0102	30
131.0285	250
132.0364	202
133.046	232
134.0429	27
135.0069	39
135.0269	24
136.0183	57
137.0399	214
138.0446	407
139.0505	341
140.0501	510
141.016	105
141.0574	15
142.018	87
143.0108	87
143.0293	196
144.027	184
145.0322	102
146.0153	42
146.0408	48
147.0179	214
148.019	380
149.0223	250
149.0387	193
150.0166	24
150.0425	371
151.0447	537
152.0508	660
153.0584	184
154.0415	21
154.0664	57
155.0294	162
156.0303	162
157.0465	153
158.0415	510
159.0516	15
160.0122	15
161.0199	220
161.0386	24
162.0277	407
163.0431	344
164.0499	999
165.0084	12
165.0589	347
166.0125	15
166.0222	18
166.065	138
167.0101	150
167.0282	262
167.0568	15
167.0719	36
168.0319	576
169.0381	443
170.0179	12
170.0424	217
171.0076	12
171.0463	54
172.0242	51
173.0214	81
174.0246	328
175.0382	335
175.0609	21
176.0364	585
177.0561	244
178.0427	18
178.0584	72
179.0318	60
179.0624	169
180.0229	93
180.039	30
180.061	24
180.0763	24
181.0387	319
182.0401	796
183.0452	172
184.0548	96
185.0211	54
185.0385	15
185.062	18
186.0286	368
187.0344	383
188.0386	331
189.0377	392
190.0618	159
191.0115	24
191.0663	60
192.0153	15
192.0289	42
192.0688	72
193.0298	277
193.0781	21
194.0217	594
195.0476	238
196.0421	111
196.0602	57
197.0215	21
197.0554	36
198.0203	48
198.0393	18
199.0364	172
200.031	437
201.0254	12
201.0462	150
202.0496	283
203.0632	108
204.0169	54
204.0794	42
205.0327	102
205.0766	36
206.0381	241
207.034	223
208.047	196
209.0547	81
210.0605	39
211.0244	75
212.0165	24
212.0339	84
213.0377	383
214.0467	114
215.0242	15
215.0513	90
216.0385	15
217.0159	12
217.031	36
217.0722	21
218.0228	193
219.0435	54
219.0895	12
220.0391	93
221.0503	57
222.0463	36
223.0366	15
224.0319	111
225.0305	30
225.0537	18
226.0453	162
227.0326	12
227.0475	45
228.0574	51
229.0477	15
229.0684	39
231.0302	84
232.0401	63
232.0619	15
233.0465	48
234.0581	48
235.0095	15
235.043	15
235.0592	12
237.0409	60
238.0266	87
239.0509	15
240.0405	21
241.06	45
242.0249	18
243.0347	21
244.0386	45
245.0452	27
246.0527	21
247.0574	30
250.0351	30
250.0527	18
251.0464	33
252.0553	51
253.0524	15
254.0605	24
258.0306	12
260.0686	18
262.034	12
271.0364	18
273.0648	18
275.0321	12
