Mass spectrum: 2,6-Dichlorodiphenylamine; LC-ESI-QTOF; MS2; 60 V
Name: 2,6-Dichlorodiphenylamine
Class: Pharmaceutical
Formula: C12H9Cl2N
Exact mass: 237.0112
SMILES: C1=CC=C(C=C1)NC2=C(C=CC=C2Cl)Cl
InChI: InChI=1S/C12H9Cl2N/c13-10-7-4-8-11(14)12(10)15-9-5-2-1-3-6-9/h1-8,15H
Instrument: TripleTOF 5600 SCIEX
Instrument type: LC-ESI-QTOF
Ms type: MS2
Ion mode: POSITIVE
Collision energy: 60
Fragmentation mode: CID
Ionization: ESI
Column name: Zorbax Eclipse Plus C18 2.1 mm x 150 mm, 3.5 um, Agilent
Retention time: 14.125 min
Precursor m/z: 238.0185
Precursor type: [M+H]+
m/z	relative intensity
65.046	89
66.0528	131
72.9915	152
77.0447	226
82.9483	52
90.037	320
92.0552	84
93.0595	683
96.9865	47
97.9934	63
99.0008	131
106.9444	36
115.055	57
123.9959	99
125.0029	499
126.0109	115
132.9603	488
133.969	47
139.0553	189
140.052	110
141.0692	52
159.9745	52
160.9799	878
166.0636	257
167.073	999
168.0814	126
