Mass spectrum: 4-Octylbenzenesulfonic acid; LC-ESI-QTOF; MS2; 40 V
Name: 4-Octylbenzenesulfonic acid
Formula: C14H22O3S
Exact mass: 270.129
SMILES: CCCCCCCCC1=CC=C(C=C1)S(=O)(=O)O
InChI: InChI=1S/C14H22O3S/c1-2-3-4-5-6-7-8-13-9-11-14(12-10-13)18(15,16)17/h9-12H,2-8H2,1H3,(H,15,16,17)
Instrument: TripleTOF 6600 SCIEX
Instrument type: LC-ESI-QTOF
Ms type: MS2
Ion mode: NEGATIVE
Collision energy: 40
Fragmentation mode: CID
Ionization: ESI
Column name: Zorbax Eclipse Plus C18 2.1 mm x 150 mm, 3.5 um, Agilent
Retention time: 14.385 min
Precursor m/z: 269.1217
Precursor type: [M-H]-
m/z	relative intensity
79.9576	38
155.9893	12
170.0056	999
183.0129	108
205.1601	16
269.1219	315
