Mass spectrum: Dicloxacillin; LC-ESI-QTOF; MS2; 40 V
Name: Dicloxacillin
Formula: C19H17Cl2N3O5S
Exact mass: 469.0266
SMILES: CC1=C(C(=NO1)C2=C(C=CC=C2Cl)Cl)C(=O)NC3C4N(C3=O)C(C(S4)(C)C)C(=O)O
InChI: InChI=1S/C19H17Cl2N3O5S/c1-7-10(12(23-29-7)11-8(20)5-4-6-9(11)21)15(25)22-13-16(26)24-14(18(27)28)19(2,3)30-17(13)24/h4-6,13-14,17H,1-3H3,(H,22,25)(H,27,28)
Instrument: TripleTOF 6600 SCIEX
Instrument type: LC-ESI-QTOF
Ms type: MS2
Ion mode: POSITIVE
Collision energy: 40
Fragmentation mode: CID
Ionization: ESI
Column name: Zorbax Eclipse Plus C18 2.1 mm x 150 mm, 3.5 um, Agilent
Retention time: 11.23 min
Precursor m/z: 470.0339
Precursor type: [M+H]+
m/z	relative intensity
87.0176	35
100.0305	19
114.0273	536
142.0206	19
160.029	999
183.9562	23
195.9547	62
197.9704	427
211.9483	458
213.9633	113
239.9781	293
253.9563	54
255.9716	141
266.9863	35
268.9687	23
310.9731	466
