Mass spectrum: Dacarbazine; LC-ESI-QTOF; MS2; 40 V
Name: Dacarbazine
Class: Pharmaceutical
Formula: C6H10N6O
Exact mass: 182.0916
SMILES: CN(C)NN=C1C(=NC=N1)C(=O)N
InChI: InChI=1S/C6H10N6O/c1-12(2)11-10-6-4(5(7)13)8-3-9-6/h3,11H,1-2H3,(H2,7,13)
Instrument: TripleTOF 5600 SCIEX
Instrument type: LC-ESI-QTOF
Ms type: MS2
Ion mode: POSITIVE
Collision energy: 40
Fragmentation mode: CID
Ionization: ESI
Column name: Zorbax Eclipse Plus C18 2.1 mm x 150 mm, 3.5 um, Agilent
Retention time: 4.473 min
Precursor m/z: 183.0989
Precursor type: [M+H]+
m/z	relative intensity
40.0293	43
53.0189	219
55.0348	87
65.0174	999
67.0086	32
67.0319	181
67.0566	32
68.0178	126
68.0403	631
79.0324	49
80.039	115
81.0463	54
83.0619	38
93.0095	98
94.0405	54
95.0237	230
95.0462	32
95.0601	76
96.0322	49
121.0133	120
123.0423	982
166.0723	38
