Mass spectrum: Mesotrione; LC-ESI-QTOF; MS2; 70 V
Name: Mesotrione
Class: Herbicide
Formula: C14H13NO7S
Exact mass: 339.0413
SMILES: CS(=O)(=O)C1=CC(=C(C=C1)C(=O)C2C(=O)CCCC2=O)[N+](=O)[O-]
InChI: InChI=1S/C14H13NO7S/c1-23(21,22)8-5-6-9(10(7-8)15(19)20)14(18)13-11(16)3-2-4-12(13)17/h5-7,13H,2-4H2,1H3
Instrument: TripleTOF 6600 SCIEX
Instrument type: LC-ESI-QTOF
Ms type: MS2
Ion mode: NEGATIVE
Collision energy: 70
Fragmentation mode: CID
Ionization: ESI
Column name: Zorbax Eclipse Plus C18 2.1 mm x 150 mm, 3.5 um, Agilent
Retention time: 9.26 min
Precursor m/z: 338.034
Precursor type: [M-H]-
m/z	relative intensity
45.9926	999
63.9607	30
79.0179	35
91.0177	60
93.0328	25
114.0467	20
139.0551	30
140.0626	25
142.0083	25
142.0409	70
158.0364	60
168.0572	50
169.0287	101
170.0365	172
183.0446	35
184.0519	45
210.0313	35
211.039	76
212.0472	187
