Mass spectrum: Benzyl-(1-hexyloxycarbonyl-undecyl)-dimethyl-ammonium; LC-ESI-QTOF; MS2; 30 V
Name: Benzyl-(1-hexyloxycarbonyl-undecyl)-dimethyl-ammonium
Formula: C27H48NO2
Exact mass: 418.368
InChI: InChI=1S/C27H48NO2/c1-5-7-9-11-12-13-14-18-22-26(27(29)30-23-19-10-8-6-2)28(3,4)24-25-20-16-15-17-21-25/h15-17,20-21,26H,5-14,18-19,22-24H2,1-4H3/q+1
Instrument: TripleTOF 5600 SCIEX
Instrument type: LC-ESI-QTOF
Ms type: CID
Ion mode: POSITIVE
Collision energy: 30
Ionization: ESI
Column name: Zorbax Eclipse Plus C18 2.1 mm x 150 mm, 3.5 um, Agilent
Retention time: 13.596 min
Precursor m/z: 418.368
Precursor type: [M]+
m/z	relative intensity
91.0564	431
186.1501	134
198.2228	265
242.2125	73
298.3116	273
326.3062	890
418.3692	999
