Mass spectrum: Tetrahydroharman-3-carboxylic acid; LC-ESI-QTOF; MS2; 130 V
Name: Tetrahydroharman-3-carboxylic acid
Formula: C13H14N2O2
Exact mass: 230.1055
SMILES: CC1C2=C(CC(N1)C(=O)O)C3=CC=CC=C3N2
InChI: InChI=1S/C13H14N2O2/c1-7-12-9(6-11(14-7)13(16)17)8-4-2-3-5-10(8)15-12/h2-5,7,11,14-15H,6H2,1H3,(H,16,17)
Instrument: TripleTOF 6600 SCIEX
Instrument type: LC-ESI-QTOF
Ms type: MS2
Ion mode: POSITIVE
Collision energy: 130
Fragmentation mode: CID
Ionization: ESI
Column name: Zorbax Eclipse Plus C18 2.1 mm x 150 mm, 3.5 um, Agilent
Retention time: 5.62 min
Precursor m/z: 231.1128
Precursor type: [M+H]+
m/z	relative intensity
37.0068	135
38.0147	123
39.023	393
49.0064	76
50.0144	523
51.0225	999
59.998	58
61.0056	223
62.015	458
63.0222	758
64.0309	23
65.038	117
73.0067	58
74.0144	787
75.022	493
76.0295	76
77.0372	317
78.0439	35
85.005	29
86.0132	99
87.0217	76
88.0294	35
89.0383	740
98.0133	52
102.0441	70
113.0372	135
114.0432	29
115.0524	164
126.043	35
127.0528	64
139.0513	41
140.0485	41
154.0629	23
