Mass spectrum: Methyl 3-hydroxybenzoate; LC-ESI-QTOF; MS2; 40 V
Name: Methyl 3-hydroxybenzoate
Class: Pharmaceutical
Formula: C8H8O3
Exact mass: 152.0473
SMILES: COC(=O)C1=CC(=CC=C1)O
InChI: InChI=1S/C8H8O3/c1-11-8(10)6-3-2-4-7(9)5-6/h2-5,9H,1H3
Instrument: TripleTOF 5600 SCIEX
Instrument type: LC-ESI-QTOF
Ms type: MS2
Ion mode: POSITIVE
Collision energy: 40
Fragmentation mode: CID
Ionization: ESI
Column name: Zorbax Eclipse Plus C18 2.1 mm x 150 mm, 3.5 um, Agilent
Retention time: 7.88 min
Precursor m/z: 153.0546
Precursor type: [M+H]+
m/z	relative intensity
38.0136	22
39.0223	155
41.0383	22
43.0301	22
51.0218	44
53.0045	22
53.038	44
59.0115	244
65.0382	999
66.045	155
77.0386	199
79.0536	88
81.0702	111
91.054	177
93.0332	444
94.0404	577
107.0492	133
109.0638	44
121.0287	244
