Mass spectrum: Tepraloxydim; LC-ESI-QTOF; MS2; 90 V
Name: Tepraloxydim
Class: Herbicide
Formula: C17H24ClNO4
Exact mass: 341.1394
SMILES: CCC(=NOCC=CCl)C1=C(CC(CC1=O)C2CCOCC2)O
InChI: InChI=1S/C17H24ClNO4/c1-2-14(19-23-7-3-6-18)17-15(20)10-13(11-16(17)21)12-4-8-22-9-5-12/h3,6,12-13,20H,2,4-5,7-11H2,1H3
Instrument: TripleTOF 6600 SCIEX
Instrument type: LC-ESI-QTOF
Ms type: MS2
Ion mode: POSITIVE
Collision energy: 90
Fragmentation mode: CID
Ionization: ESI
Column name: Zorbax Eclipse Plus C18 2.1 mm x 150 mm, 3.5 um, Agilent
Retention time: 12.248 min
Precursor m/z: 342.1467
Precursor type: [M+H]+
m/z	relative intensity
37.0063	28
38.0143	28
39.0221	165
41.0252	28
41.0377	165
42.0328	118
43.0167	132
44.0122	33
46.9673	28
48.9828	165
50.0141	61
51.022	198
53.0006	23
53.0374	132
54.0329	71
55.0162	56
55.0534	104
56.0485	198
63.0219	28
65.0373	317
66.0323	66
66.0453	47
67.0168	28
67.0405	104
67.053	132
68.0114	42
68.0485	165
69.0317	47
70.0636	28
72.0427	28
74.9983	113
75.0228	23
77.0375	999
78.0326	28
78.0449	52
79.0528	184
80.0483	146
81.0326	52
81.0554	71
81.0686	52
82.0636	99
83.0486	33
89.0379	47
91.053	520
92.0478	42
93.0312	28
93.0559	146
93.0681	66
94.0392	42
94.0637	127
95.0479	66
96.0431	227
98.0587	274
102.0453	56
103.0529	250
104.0484	37
105.0432	47
105.0686	56
106.0641	61
107.0483	42
107.0713	23
108.0435	18
108.079	80
110.0583	52
115.0526	184
116.0493	28
116.06	37
117.056	66
117.0673	37
118.0631	56
119.073	18
120.0788	47
121.0633	61
122.0577	37
127.0526	47
128.0607	108
129.0674	33
130.0639	52
132.0813	42
136.0747	23
141.0685	42
142.0657	28
143.0732	28
144.0779	42
146.06	23
147.0416	23
147.066	23
155.0613	23
