Mass spectrum: Atenolol acid; LC-ESI-QTOF; MS2; 130 V
Name: Atenolol acid
Class: Pharmaceutical; Transformation_product-Metabolite
Formula: C14H21NO4
Exact mass: 267.1471
SMILES: CC(C)NCC(COC1=CC=C(C=C1)CC(=O)O)O
InChI: InChI=1S/C14H21NO4/c1-10(2)15-8-12(16)9-19-13-5-3-11(4-6-13)7-14(17)18/h3-6,10,12,15-16H,7-9H2,1-2H3,(H,17,18)
Instrument: TripleTOF 5600 SCIEX
Instrument type: LC-ESI-QTOF
Ms type: MS2
Ion mode: POSITIVE
Collision energy: 130
Fragmentation mode: CID
Ionization: ESI
Column name: Zorbax Eclipse Plus C18 2.1 mm x 150 mm, 3.5 um, Agilent
Retention time: 4.893 min
Precursor m/z: 268.1543
Precursor type: [M+H]+
m/z	relative intensity
37.0076	79
38.0158	79
39.0232	371
41.0386	238
43.0549	79
44.0496	97
49.0077	44
50.0148	318
51.0232	999
53.0386	53
56.0493	123
58.0647	44
61.0068	70
62.0156	194
63.0229	530
65.039	194
74.0164	44
77.0389	795
89.037	141
91.0531	79
115.0553	70
