Mass spectrum: Pendimethalin; LC-ESI-QTOF; MS2; 130 V
Name: Pendimethalin
Class: Herbicide
Formula: C13H19N3O4
Exact mass: 281.1376
SMILES: CCC(CC)Nc1c(cc(c(c1[N+](=O)[O-])C)C)[N+](=O)[O-]
InChI: InChI=1S/C13H19N3O4/c1-5-10(6-2)14-12-11(15(17)18)7-8(3)9(4)13(12)16(19)20/h7,10,14H,5-6H2,1-4H3
Instrument: TripleTOF 6600 SCIEX
Instrument type: LC-ESI-QTOF
Ms type: MS2
Ion mode: POSITIVE
Collision energy: 130
Fragmentation mode: CID
Ionization: ESI
Column name: Zorbax Eclipse Plus C18 2.1 mm x 150 mm, 3.5 um, Agilent
Retention time: 16.198 min
Precursor m/z: 282.1448
Precursor type: [M+H]+
m/z	relative intensity
35.9997	75
37.0077	333
38.0025	90
38.0157	272
39.0238	999
41.0393	257
44.0137	60
49.0077	227
50.0157	862
51.0234	953
52.0186	287
53.0141	75
53.04	75
54.0333	60
61.0073	151
62.0159	287
63.0232	423
64.0204	90
65.0389	454
66.0333	75
74.0163	227
75.012	121
76.0187	136
77.0386	287
78.0339	136
89.0384	242
91.0539	90
104.0519	60
