Mass spectrum: Estradiol; LC-ESI-QTOF; MS2; 120 V
Name: Estradiol
Class: Pharmaceutical
Formula: C18H24O2
Exact mass: 272.1776
SMILES: CC12CCC3C(C1CCC2O)CCC4=C3C=CC(=C4)O
InChI: InChI=1S/C18H24O2/c1-18-9-8-14-13-5-3-12(19)10-11(13)2-4-15(14)16(18)6-7-17(18)20/h3,5,10,14-17,19-20H,2,4,6-9H2,1H3
Instrument: TripleTOF 5600 SCIEX
Instrument type: LC-ESI-QTOF
Ms type: MS2
Ion mode: POSITIVE
Collision energy: 120
Fragmentation mode: CID
Ionization: ESI
Column name: Zorbax Eclipse Plus C18 2.1 mm x 150 mm, 3.5 um, Agilent
Retention time: 10.403 min
Precursor m/z: 273.1849
Precursor type: [M+H]+
m/z	relative intensity
37.0077	21
38.0152	26
39.0227	99
41.0385	47
43.0174	21
49.0068	21
50.0151	127
51.023	620
53.039	66
55.0182	71
55.0543	26
62.0159	16
63.0233	49
65.0378	101
66.0462	14
67.0538	37
74.0149	9
75.0237	14
77.0386	999
78.0461	35
79.0534	85
81.0323	21
81.0684	11
89.0382	47
91.054	85
102.0465	18
103.0554	23
105.0698	9
107.0489	85
115.0529	89
116.0591	9
128.0618	30
152.0575	14
