Mass spectrum: Citalopram-N-oxide; LC-ESI-QTOF; MS2; 50 V
Name: Citalopram-N-oxide
Class: Metabolite; Pharmaceutical; Transformation_product; Transformation_product-Metabolite
Formula: C20H21FN2O2
Exact mass: 340.1587
SMILES: C[N+](C)(CCCC1(C2=C(CO1)C=C(C=C2)C#N)C3=CC=C(C=C3)F)[O-]
InChI: InChI=1S/C20H21FN2O2/c1-23(2,24)11-3-10-20(17-5-7-18(21)8-6-17)19-9-4-15(13-22)12-16(19)14-25-20/h4-9,12H,3,10-11,14H2,1-2H3
Instrument: TripleTOF 5600 SCIEX
Instrument type: LC-ESI-QTOF
Ms type: MS2
Ion mode: POSITIVE
Collision energy: 50
Fragmentation mode: CID
Ionization: ESI
Column name: Zorbax Eclipse Plus C18 2.1 mm x 150 mm, 3.5 um, Agilent
Retention time: 7.958 min
Precursor m/z: 341.166
Precursor type: [M+H]+
m/z	relative intensity
58.0703	21
83.0317	34
89.0399	24
109.0461	999
116.0505	200
123.0243	21
129.0705	28
139.055	14
140.0502	45
144.0442	13
156.0814	22
166.0656	134
190.0652	28
195.0603	10
202.0763	12
207.0606	23
208.0554	30
214.0666	24
215.0859	68
218.0602	39
219.058	11
220.0667	102
221.0643	178
222.0709	64
226.0674	14
227.0736	208
232.0567	11
233.0758	44
234.0723	378
235.0891	45
237.0584	10
238.0661	21
240.0803	68
241.0884	46
242.0972	34
244.0687	12
245.0677	33
246.0727	226
247.0798	348
259.0792	10
260.0867	39
261.0952	35
262.1036	110
