Mass spectrum: Codeinone; LC-ESI-QTOF; MS2; 30 V
Name: Codeinone
Class: Pharmaceutical
Formula: C18H19NO3
Exact mass: 297.1365
SMILES: CN1CCC23C4C1CC5=C2C(=C(C=C5)OC)OC3C(=O)C=C4
InChI: InChI=1S/C18H19NO3/c1-19-8-7-18-11-4-5-13(20)17(18)22-16-14(21-2)6-3-10(15(16)18)9-12(11)19/h3-6,11-12,17H,7-9H2,1-2H3
Instrument: TripleTOF 5600 SCIEX
Instrument type: LC-ESI-QTOF
Ms type: MS2
Ion mode: POSITIVE
Collision energy: 30
Fragmentation mode: CID
Ionization: ESI
Column name: Zorbax Eclipse Plus C18 2.1 mm x 150 mm, 3.5 um, Agilent
Retention time: 5.057 min
Precursor m/z: 298.1438
Precursor type: [M+H]+
m/z	relative intensity
58.0742	53
153.0704	18
181.0657	85
183.0816	11
185.0601	11
195.0821	16
198.0671	15
199.0759	45
207.0792	24
209.0595	32
210.0683	13
211.076	46
213.0913	77
223.0755	47
235.0745	15
237.0569	11
237.0905	12
239.0703	115
241.0856	279
252.0767	11
267.1012	13
283.1179	10
298.1433	999
