Mass spectrum: Ethyl-N-(4-aminophenyl)carbamate; LC-ESI-QTOF; MS2; 40 V
Name: Ethyl-N-(4-aminophenyl)carbamate
Class: Industrial_process
Formula: C9H12N2O2
Exact mass: 180.0899
SMILES: CCOC(=O)Nc1ccc(cc1)N
InChI: InChI=1S/C9H12N2O2/c1-2-13-9(12)11-8-5-3-7(10)4-6-8/h3-6H,2,10H2,1H3,(H,11,12)
Instrument: TripleTOF 5600 SCIEX
Instrument type: LC-ESI-QTOF
Ms type: MS2
Ion mode: POSITIVE
Collision energy: 40
Fragmentation mode: CID
Ionization: ESI
Column name: Zorbax Eclipse Plus C18 2.1 mm x 150 mm, 3.5 um, Agilent
Retention time: 4.863 min
Precursor m/z: 181.0972
Precursor type: [M+H]+
m/z	relative intensity
65.0425	314
66.0491	15
80.0522	340
81.0585	26
82.068	18
90.0352	264
92.0513	631
93.0588	647
93.0851	18
106.0516	25
107.0611	999
108.0459	18
108.0682	153
109.0764	365
118.0278	19
134.0468	52
135.0553	816
152.0572	12
153.0657	104
181.0972	28
