Mass spectrum: Procarbazine; LC-ESI-QTOF; MS2; 50 V
Name: Procarbazine
Class: Pharmaceutical
Formula: C12H19N3O
Exact mass: 221.1528
SMILES: CC(C)NC(=O)c1ccc(cc1)CNNC
InChI: InChI=1S/C12H19N3O/c1-9(2)15-12(16)11-6-4-10(5-7-11)8-14-13-3/h4-7,9,13-14H,8H2,1-3H3,(H,15,16)
Instrument: TripleTOF 5600 SCIEX
Instrument type: LC-ESI-QTOF
Ms type: MS2
Ion mode: POSITIVE
Collision energy: 50
Fragmentation mode: CID
Ionization: ESI
Column name: Zorbax Eclipse Plus C18 2.1 mm x 150 mm, 3.5 um, Agilent
Retention time: 4.911 min
Precursor m/z: 222.1601
Precursor type: [M+H]+
m/z	relative intensity
44.0205	44
65.0441	161
75.0263	279
76.0323	51
77.0408	793
77.0665	44
78.0492	117
79.0567	389
80.0593	29
89.0405	286
90.0479	999
90.072	58
91.055	962
91.0855	44
92.0619	183
103.0177	418
103.0481	51
104.0496	286
104.0791	36
105.0566	455
106.0652	976
107.0498	36
116.0583	36
117.0571	29
117.0687	36
118.0411	477
119.0497	36
122.0769	29
131.0607	44
131.0828	29
132.0431	110
135.0717	44
143.0732	51
149.0708	271
