Mass spectrum: Methabenzthiazuron; LC-ESI-QTOF; MS2; 60 V
Name: Methabenzthiazuron
Class: Herbicide
Formula: C10H11N3OS
Exact mass: 221.0623
SMILES: CNC(=O)N(C)c1sc2ccccc2n1
InChI: InChI=1S/C10H11N3OS/c1-11-9(14)13(2)10-12-7-5-3-4-6-8(7)15-10/h3-6H,1-2H3,(H,11,14)
Instrument: TripleTOF 5600 SCIEX
Instrument type: LC-ESI-QTOF
Ms type: MS2
Ion mode: POSITIVE
Collision energy: 60
Fragmentation mode: CID
Ionization: ESI
Column name: Zorbax Eclipse Plus C18 2.1 mm x 150 mm, 3.5 um, Agilent
Retention time: 9.783 min
Precursor m/z: 222.0696
Precursor type: [M+H]+
m/z	relative intensity
58.0331	23
65.0425	79
68.9829	31
69.9902	52
77.0399	13
79.0437	18
80.052	187
91.0424	16
92.0508	32
94.9955	52
96.0047	742
97.0108	22
105.0439	15
106.0523	43
108.0019	11
109.0104	114
118.0521	77
122.0051	75
123.0139	631
124.0208	128
131.0601	23
132.067	16
136.0195	16
150.025	999
165.0475	51
