Mass spectrum: O-desmethyl-naproxen; LC-ESI-QTOF; MS2; 40 V
Name: O-desmethyl-naproxen
Class: Metabolite; Pharmaceutical; Transformation_product
Formula: C13H12O3
Exact mass: 216.0786
SMILES: CC(C1=CC2=C(C=C1)C=C(C=C2)O)C(=O)O
InChI: InChI=1S/C13H12O3/c1-8(13(15)16)9-2-3-11-7-12(14)5-4-10(11)6-9/h2-8,14H,1H3,(H,15,16)
Instrument: TripleTOF 5600 SCIEX
Instrument type: LC-ESI-QTOF
Ms type: MS2
Ion mode: NEGATIVE
Collision energy: 40
Fragmentation mode: CID
Ionization: ESI
Column name: Zorbax Eclipse Plus C18 2.1 mm x 150 mm, 3.5 um, Agilent
Retention time: 8.5 min
Precursor m/z: 215.0722
Precursor type: [M-H]-
m/z	relative intensity
115.0586	15
141.072	54
143.0506	141
156.0578	81
167.0506	22
168.5377	13
169.0667	999
170.0738	91
171.0814	231
