Mass spectrum: 3-Desmethyl-trimethoprim; LC-ESI-QTOF; MS2; 40 V
Name: 3-Desmethyl-trimethoprim
Class: Pharmaceutical; Transformation_product; Transformation_product-Metabolite
Formula: C13H16N4O3
Exact mass: 276.1222
SMILES: OC1=CC(CC2=CN=C(N=C2N)N)=CC(OC)=C1OC
InChI: InChI=1S/C13H16N4O3/c1-19-10-5-7(4-9(18)11(10)20-2)3-8-6-16-13(15)17-12(8)14/h4-6,18H,3H2,1-2H3,(H4,14,15,16,17)
Instrument: TripleTOF 5600 SCIEX
Instrument type: LC-ESI-QTOF
Ms type: MS2
Ion mode: POSITIVE
Collision energy: 40
Fragmentation mode: CID
Ionization: ESI
Column name: Zorbax Eclipse Plus C18 2.1 mm x 150 mm, 3.5 um, Agilent
Retention time: 5.021 min
Precursor m/z: 277.1295
Precursor type: [M+H]+
m/z	relative intensity
81.0494	36
110.0598	20
111.0669	11
123.0674	259
124.0764	13
148.0744	17
149.0803	10
151.0392	11
161.0826	12
167.0714	11
173.081	30
187.0978	112
188.1052	59
203.0915	14
215.0933	43
216.0998	122
219.0872	168
227.0897	17
229.0711	12
231.0879	53
232.0941	73
233.1026	148
243.0859	42
244.0931	43
245.1022	55
247.0819	59
259.0812	40
261.0976	999
262.1049	94
277.1308	26
