Mass spectrum: Fluorescent brightener 363; LC-ESI-QTOF; MS2; 130 V
Name: Fluorescent brightener 363
Class: Pigment
Formula: [C19H19N2O4S]+
Exact mass: 371.106
SMILES: COC1=CC(OC(C2=[N+](C)C(C=C(S(=O)(C)=O)C=C3)=C3N2C)=C4)=C4C=C1
InChI: InChI=1S/C19H19N2O4S/c1-20-15-8-7-14(26(4,22)23)11-16(15)21(2)19(20)18-9-12-5-6-13(24-3)10-17(12)25-18/h5-11H,1-4H3/q+1
Instrument: TripleTOF 6600 SCIEX
Instrument type: LC-ESI-QTOF
Ms type: MS2
Ion mode: POSITIVE
Collision energy: 130
Fragmentation mode: CID
Ionization: ESI
Column name: Zorbax Eclipse Plus C18 2.1 mm x 150 mm, 3.5 um, Agilent
Retention time: 8.155 min
Precursor m/z: 371.106
Precursor type: [M]+
m/z	relative intensity
49.0072	133
50.0155	699
51.0232	532
62.0148	233
63.0225	532
65.0387	166
74.015	233
75.0218	366
76.0302	699
77.0372	999
88.0271	166
89.0378	632
90.0442	233
91.0526	199
102.0316	333
102.0443	166
103.0393	266
114.0332	133
115.0424	233
116.0459	299
125.0393	199
126.0443	199
128.048	133
129.0455	333
130.0408	233
137.0373	199
140.0483	133
149.0367	199
150.0452	699
151.055	899
152.0493	199
152.0588	399
153.0431	166
153.0559	133
155.0612	199
163.0526	199
164.0493	932
165.0697	299
166.063	166
176.051	199
177.0576	466
178.0633	266
179.0597	399
180.0658	166
189.0503	133
190.066	366
191.0653	366
192.0684	466
203.0605	466
204.0688	333
205.0763	366
216.0689	266
217.0755	333
218.083	932
219.0907	233
