Mass spectrum: Clomazone; LC-ESI-QTOF; MS2; 110 V
Name: Clomazone
Class: Herbicide; Pharmaceutical
Formula: C12H14ClNO2
Exact mass: 239.0713
SMILES: CC1(CON(C1=O)CC2=CC=CC=C2Cl)C
InChI: InChI=1S/C12H14ClNO2/c1-12(2)8-16-14(11(12)15)7-9-5-3-4-6-10(9)13/h3-6H,7-8H2,1-2H3
Instrument: TripleTOF 6600 SCIEX
Instrument type: LC-ESI-QTOF
Ms type: MS2
Ion mode: POSITIVE
Collision energy: 110
Fragmentation mode: CID
Ionization: ESI
Column name: Zorbax Eclipse Plus C18 2.1 mm x 150 mm, 3.5 um, Agilent
Retention time: 11.289 min
Precursor m/z: 240.0786
Precursor type: [M+H]+
m/z	relative intensity
35.9981	23
37.006	154
38.0136	143
39.0211	366
46.9663	77
48.9824	152
50.0131	67
51.0207	42
59.9966	57
61.0049	297
62.0132	607
63.0208	999
64.0282	90
65.0365	31
72.9814	721
74.0129	67
74.9967	14
75.0206	32
89.0359	905
90.0437	54
96.9809	21
98.9976	127
