Mass spectrum: Phencyclidine; LC-ESI-QTOF; MS2; 120 V
Name: Phencyclidine
Class: Pharmaceutical
Formula: C17H25N
Exact mass: 243.1987
SMILES: C1CCC(CC1)(C2=CC=CC=C2)N3CCCCC3
InChI: InChI=1S/C17H25N/c1-4-10-16(11-5-1)17(12-6-2-7-13-17)18-14-8-3-9-15-18/h1,4-5,10-11H,2-3,6-9,12-15H2
Instrument: TripleTOF 6600 SCIEX
Instrument type: LC-ESI-QTOF
Ms type: MS2
Ion mode: POSITIVE
Collision energy: 120
Fragmentation mode: CID
Ionization: ESI
Column name: Zorbax Eclipse Plus C18 2.1 mm x 150 mm, 3.5 um, Agilent
Retention time: 7.311 min
Precursor m/z: 244.206
Precursor type: [M+H]+
m/z	relative intensity
30.0329	16
35.9985	42
37.0064	225
38.0143	195
39.0222	999
41.0375	96
49.005	18
50.0139	127
51.022	172
59.9979	14
61.0057	67
62.014	133
63.0217	195
65.0375	526
74.0131	17
77.0371	36
89.0372	42
91.0525	137
115.0523	46
