Mass spectrum: 4-chloro-2-hydroxy-4-methoxybenzophenone; LC-ESI-QTOF; MS2; 90 V
Name: 4-chloro-2-hydroxy-4-methoxybenzophenone
Formula: C14H11ClO3
Exact mass: 262.0397
SMILES: COC1=CC(=C(C=C1)C(=O)C2=CC=C(C=C2)Cl)O
InChI: InChI=1S/C14H11ClO3/c1-18-11-6-7-12(13(16)8-11)14(17)9-2-4-10(15)5-3-9/h2-8,16H,1H3
Instrument: TripleTOF 5600 SCIEX
Instrument type: LC-ESI-QTOF
Ms type: MS2
Ion mode: POSITIVE
Collision energy: 90
Fragmentation mode: CID
Ionization: ESI
Column name: Zorbax Eclipse Plus C18 2.1 mm x 150 mm, 3.5 um, Agilent
Retention time: 14.544 min
Precursor m/z: 263.0469
Precursor type: [M+H]+
m/z	relative intensity
53.0113	17
65.046	43
69.0025	40
73.0148	28
74.0208	452
75.0292	999
76.0363	28
77.0426	12
79.0224	12
80.0326	66
84.9893	125
89.0437	28
95.0535	30
108.025	68
111.0025	424
113.0417	33
126.0469	12
138.0465	25
139.0074	40
139.0553	125
151.0524	15
152.0677	12
