Mass spectrum: Loratadine; LC-ESI-QTOF; MS2; 150 V
Name: Loratadine
Class: Pharmaceutical
Formula: C22H23ClN2O2
Exact mass: 382.1448
SMILES: CCOC(=O)N1CCC(=C2C3=C(CCC4=C2N=CC=C4)C=C(C=C3)Cl)CC1
InChI: InChI=1S/C22H23ClN2O2/c1-2-27-22(26)25-12-9-15(10-13-25)20-19-8-7-18(23)14-17(19)6-5-16-4-3-11-24-21(16)20/h3-4,7-8,11,14H,2,5-6,9-10,12-13H2,1H3
Instrument: TripleTOF 6600 SCIEX
Instrument type: LC-ESI-QTOF
Ms type: MS2
Ion mode: POSITIVE
Collision energy: 150
Fragmentation mode: CID
Ionization: ESI
Column name: Zorbax Eclipse Plus C18 2.1 mm x 150 mm, 3.5 um, Agilent
Retention time: 9.41 min
Precursor m/z: 383.1521
Precursor type: [M+H]+
m/z	relative intensity
51.0225	14
63.0229	29
65.0382	26
74.0145	11
75.0225	20
77.0384	43
89.0382	55
98.0149	26
102.0462	23
113.0374	40
115.0537	75
125.0382	23
126.0462	58
127.0534	20
128.0602	20
137.0375	23
139.0535	140
140.0482	52
149.0386	52
150.0455	259
151.0531	239
152.061	157
154.0651	17
161.0373	32
162.0446	64
163.0532	458
164.0484	35
164.0606	125
165.0687	110
166.0649	32
167.0707	14
174.0452	113
175.0537	178
176.0612	245
177.057	87
178.0655	35
179.059	14
186.0442	37
187.0535	636
188.0604	338
189.0685	458
190.0646	178
191.0713	119
192.0804	26
198.0455	32
199.0537	134
200.0619	709
201.0687	449
202.0766	362
203.0718	119
204.0557	17
204.0786	29
211.0531	84
212.0554	102
213.0689	408
214.0647	537
215.0719	224
216.0794	227
217.0876	29
218.0969	20
223.0282	17
224.0511	14
224.0613	29
225.057	90
226.0646	324
227.0725	452
228.0803	572
229.0796	14
229.0896	46
230.0931	29
236.051	11
238.0641	283
239.0728	198
240.0801	999
241.0882	607
242.0949	99
251.0742	32
252.0794	49
253.0869	49
254.0952	87
