Mass spectrum: N,N`-diphenyl-p-phenylenediamine; LC-ESI-QTOF; MS2; 40 V
Name: N,N`-diphenyl-p-phenylenediamine
Class: Industrial_process
Formula: C18H16N2
Exact mass: 260.1313
SMILES: N(c1ccccc1)c2ccc(Nc3ccccc3)cc2
InChI: InChI=1S/C18H16N2/c1-3-7-15(8-4-1)19-17-11-13-18(14-12-17)20-16-9-5-2-6-10-16/h1-14,19-20H
Instrument: TripleTOF 5600 SCIEX
Instrument type: LC-ESI-QTOF
Ms type: MS2
Ion mode: POSITIVE
Collision energy: 40
Fragmentation mode: CID
Ionization: ESI
Column name: Zorbax Eclipse Plus C18 2.1 mm x 150 mm, 3.5 um, Agilent
Retention time: 14.544 min
Precursor m/z: 261.1386
Precursor type: [M+H]+
m/z	relative intensity
80.0514	26
81.0593	16
93.0591	13
107.0606	119
118.0526	19
128.0593	16
129.0681	28
130.0683	23
143.0722	15
156.0791	30
157.085	25
166.0639	49
167.0715	67
168.0778	120
169.0869	91
182.0803	37
183.0913	285
184.099	999
260.1256	14
261.1348	237
