Mass spectrum: C-desmethyl-metoprolol; LC-ESI-QTOF; MS2; 140 V
Name: C-desmethyl-metoprolol
Formula: C14H23NO3
Exact mass: 253.1678
SMILES: CCNCC(COC1=CC=C(C=C1)CCOC)O
InChI: InChI=1S/C14H23NO3/c1-3-15-10-13(16)11-18-14-6-4-12(5-7-14)8-9-17-2/h4-7,13,15-16H,3,8-11H2,1-2H3
Instrument: TripleTOF 5600 SCIEX
Instrument type: LC-ESI-QTOF
Ms type: MS2
Ion mode: POSITIVE
Collision energy: 140
Fragmentation mode: CID
Ionization: ESI
Column name: Zorbax Eclipse Plus C18 2.1 mm x 150 mm, 3.5 um, Agilent
Retention time: 5.422 min
Precursor m/z: 254.1751
Precursor type: [M+H]+
m/z	relative intensity
37.0071	56
38.0159	68
39.0228	215
44.0492	102
45.0333	68
49.0078	79
50.0153	522
51.0231	999
58.0651	136
61.0069	45
62.0149	124
63.0236	204
65.0387	147
74.015	124
75.0213	56
77.0393	317
89.0391	56
91.0551	90
