Mass spectrum: 2-Isopropylphenyl diphenyl phosphate; LC-ESI-QTOF; MS2; 130 V
Name: 2-Isopropylphenyl diphenyl phosphate
Class: Industrial_process
Formula: C21H21O4P
Exact mass: 368.1177
SMILES: CC(C)C1=CC=CC=C1OP(=O)(OC2=CC=CC=C2)OC3=CC=CC=C3
InChI: InChI=1S/C21H21O4P/c1-17(2)20-15-9-10-16-21(20)25-26(22,23-18-11-5-3-6-12-18)24-19-13-7-4-8-14-19/h3-17H,1-2H3
Instrument: TripleTOF 6600 SCIEX
Instrument type: LC-ESI-QTOF
Ms type: MS2
Ion mode: POSITIVE
Collision energy: 130
Fragmentation mode: CID
Ionization: ESI
Column name: Zorbax Eclipse Plus C18 2.1 mm x 150 mm, 3.5 um, Agilent
Retention time: 15.788 min
Precursor m/z: 369.125
Precursor type: [M+H]+
m/z	relative intensity
39.0226	395
50.0147	437
51.0226	999
63.0228	145
65.0382	499
75.0225	104
76.0305	104
77.0381	353
78.0476	104
91.0527	208
102.0455	124
126.0459	228
139.0536	270
150.0453	333
151.0542	312
152.0594	249
224.0663	83
226.0788	145
