Mass spectrum: Demeton-S-methylsulphon; LC-ESI-QTOF; MS2; 40 V
Name: Demeton-S-methylsulphon
Class: Insecticide; Metabolite; Pesticide
Formula: C6H15O5PS2
Exact mass: 262.0099
SMILES: CCS(=O)(=O)CCSP(=O)(OC)OC
InChI: InChI=1S/C6H15O5PS2/c1-4-14(8,9)6-5-13-12(7,10-2)11-3/h4-6H2,1-3H3
Instrument: TripleTOF 6600 SCIEX
Instrument type: LC-ESI-QTOF
Ms type: CID
Ion mode: POSITIVE
Collision energy: 40
Ionization: ESI
Column name: Zorbax Eclipse Plus C18 2.1 mm x 150 mm, 3.5 um, Agilent
Retention time: 5.996 min
Precursor m/z: 263.0171
Precursor type: [M+H]+
m/z	relative intensity
46.9943	19
64.9679	18
74.9888	10
78.9932	127
92.9987	33
109.0039	999
110.9645	60
124.9806	334
127.014	55
142.9905	10
169.0063	40
