Mass spectrum: Dacarbazine; LC-ESI-QTOF; MS2; 30 V
Name: Dacarbazine
Class: Pharmaceutical
Formula: C6H10N6O
Exact mass: 182.0916
SMILES: CN(C)NN=C1C(=NC=N1)C(=O)N
InChI: InChI=1S/C6H10N6O/c1-12(2)11-10-6-4(5(7)13)8-3-9-6/h3,11H,1-2H3,(H2,7,13)
Instrument: TripleTOF 5600 SCIEX
Instrument type: LC-ESI-QTOF
Ms type: MS2
Ion mode: POSITIVE
Collision energy: 30
Fragmentation mode: CID
Ionization: ESI
Column name: Zorbax Eclipse Plus C18 2.1 mm x 150 mm, 3.5 um, Agilent
Retention time: 4.473 min
Precursor m/z: 183.0989
Precursor type: [M+H]+
m/z	relative intensity
53.0187	20
55.0332	32
56.0573	13
65.0182	206
67.0316	39
68.0156	20
68.0405	192
69.0482	28
80.038	39
81.0463	37
83.0618	44
93.0093	59
94.0406	17
95.0252	119
95.0442	26
95.0604	57
96.0325	31
121.0136	94
123.043	999
138.0405	20
166.0726	30
