Mass spectrum: Dimethenamid; LC-ESI-QTOF; MS2; 90 V
Name: Dimethenamid
Class: Herbicide
Formula: C12H18ClNO2S
Exact mass: 275.0747
SMILES: CC1=CSC(=C1N(C(C)COC)C(=O)CCl)C
InChI: InChI=1S/C12H18ClNO2S/c1-8-7-17-10(3)12(8)14(11(15)5-13)9(2)6-16-4/h7,9H,5-6H2,1-4H3
Instrument: TripleTOF 6600 SCIEX
Instrument type: LC-ESI-QTOF
Ms type: MS2
Ion mode: POSITIVE
Collision energy: 90
Fragmentation mode: CID
Ionization: ESI
Column name: Zorbax Eclipse Plus C18 2.1 mm x 150 mm, 3.5 um, Agilent
Retention time: 11.971 min
Precursor m/z: 276.082
Precursor type: [M+H]+
m/z	relative intensity
37.0075	58
38.0159	58
39.0237	309
41.039	212
42.0347	51
43.0195	51
43.972	32
44.9799	315
45.0348	174
46.9693	58
48.9843	502
50.0156	70
51.0233	244
52.0317	45
53.0395	174
54.0347	51
55.0551	58
57.9872	64
58.9955	302
59.9903	103
63.0234	51
64.0294	38
65.039	470
66.0343	45
66.0464	128
67.0426	64
67.0548	322
68.0497	32
68.9799	109
69.9883	25
70.9951	212
77.0391	586
78.0347	96
78.046	270
79.0421	38
79.0545	109
80.0499	554
81.0587	38
82.0665	45
82.9956	45
84.0034	77
85.0115	128
89.0392	45
90.0471	38
91.0427	64
91.0548	225
92.0498	141
93.0577	264
94.0655	999
95.0735	116
96.0038	64
97.0109	418
98.0178	25
99.0261	90
104.0499	219
105.0581	251
106.0661	109
107.0738	32
108.0809	38
109.0109	148
110.0061	70
110.0188	51
111.0264	464
112.0213	122
117.0571	141
118.0654	135
119.0731	45
120.0821	45
121.0118	25
122.0068	45
123.0136	109
124.0216	251
125.0394	51
126.0375	225
134.019	25
134.0973	32
135.0127	45
136.0208	270
138.0021	58
138.0378	64
149.0319	45
150.0361	70
152.0172	322
