Mass spectrum: Citalopram; LC-ESI-QTOF; MS2; 140 V
Name: Citalopram
Class: Pharmaceutical
Formula: C20H21FN2O
Exact mass: 324.1638
SMILES: CN(C)CCCC1(OCc2cc(ccc12)C#N)c3ccc(F)cc3
InChI: InChI=1S/C20H21FN2O/c1-23(2)11-3-10-20(17-5-7-18(21)8-6-17)19-9-4-15(13-22)12-16(19)14-24-20/h4-9,12H,3,10-11,14H2,1-2H3
Instrument: TripleTOF 5600 SCIEX
Instrument type: LC-ESI-QTOF
Ms type: MS2
Ion mode: POSITIVE
Collision energy: 140
Fragmentation mode: CID
Ionization: ESI
Column name: Zorbax Eclipse Plus C18 2.1 mm x 150 mm, 3.5 um, Agilent
Retention time: 7.757 min
Precursor m/z: 325.1711
Precursor type: [M+H]+
m/z	relative intensity
42.0431	81
43.0499	13
44.0571	46
51.03	138
56.0559	9
57.0197	888
58.0702	280
59.036	83
60.0048	31
65.0424	72
68.0107	25
69.0187	17
70.0247	29
73.0098	50
74.0189	525
75.0268	469
75.0644	9
76.0343	62
77.0413	167
78.05	13
81.0165	111
83.032	999
85.0098	77
86.017	175
87.0247	299
88.0213	136
89.0407	377
90.0353	35
92.0081	17
94.0225	75
95.031	48
96.0373	29
97.0075	31
98.0161	401
99.0236	200
100.0187	9
100.0309	54
101.04	44
102.0477	54
105.0138	42
106.022	25
107.0301	157
109.0065	46
109.0453	173
110.0008	11
110.0148	114
111.0106	17
111.0231	91
112.0203	35
113.0387	220
114.0351	79
115.0535	58
116.0506	19
117.015	9
118.0218	29
119.9993	17
120.0372	97
121.0065	25
122.0152	323
123.0229	218
124.0189	13
124.0312	44
125.0392	44
126.0485	87
127.0547	29
128.0614	19
129.0145	23
131.0291	75
133.0084	23
133.045	136
134.0154	62
135.0208	60
136.0183	25
137.0379	114
138.0332	15
138.0439	13
139.0542	35
140.0045	15
140.0498	79
141.0136	17
142.0217	33
143.0284	21
144.0376	132
145.0447	21
146.0151	128
146.0526	23
147.0225	142
148.0294	75
149.0395	159
150.0466	218
151.0514	54
152.0614	13
153.0144	21
155.0296	72
156.0367	23
157.0436	74
158.0165	19
158.0402	19
159.0092	17
160.0324	15
161.039	249
162.0468	130
163.0546	183
164.0498	58
166.021	25
167.0294	101
168.0376	385
169.045	89
170.0163	38
170.0529	62
171.023	50
172.0307	44
173.0392	85
174.0459	216
175.0435	130
176.0603	31
177.0574	11
179.0289	153
180.0369	161
181.0454	338
182.0401	40
182.0527	27
185.0386	116
186.0452	183
187.0546	321
188.0491	212
190.0236	13
190.0626	11
191.0312	25
192.0373	218
193.0381	101
194.0531	66
195.0485	13
196.0252	11
196.035	21
197.0382	216
198.0463	481
199.048	241
200.0627	134
201.0567	21
203.0294	68
204.0373	89
205.045	299
206.0412	185
207.0557	31
208.0558	37
209.0393	11
210.0441	50
211.0535	200
212.0515	149
213.0664	56
214.066	15
215.0303	38
216.0374	317
217.0448	239
218.0528	381
219.0489	77
220.0689	25
222.0436	27
223.0433	163
224.05	95
225.0575	112
228.0324	15
229.0463	75
230.0419	91
231.0599	72
232.0547	15
235.048	15
236.0503	60
237.0565	13
238.0664	50
240.0375	17
241.0298	11
242.0432	46
243.0481	210
244.0586	33
245.0678	23
254.0402	9
256.0562	35
