Mass spectrum: Budesonide; LC-ESI-QTOF; MS2; 50 V
Name: Budesonide
Class: Pharmaceutical
Formula: C25H34O6
Exact mass: 430.2355
SMILES: CCC[C@@H]1O[C@@H]2C[C@H]3[C@@H]4CCC5=CC(=O)C=C[C@]5(C)[C@H]4[C@@H](O)C[C@]3(C)[C@@]2(O1)C(=O)CO
InChI: InChI=1S/C25H34O6/c1-4-5-21-30-20-11-17-16-7-6-14-10-15(27)8-9-23(14,2)22(16)18(28)12-24(17,3)25(20,31-21)19(29)13-26/h8-10,16-18,20-22,26,28H,4-7,11-13H2,1-3H3/t16-,17-,18-,20+,21+,22+,23-,24-,25+/m0/s1
Instrument: TripleTOF 5600 SCIEX
Instrument type: LC-ESI-QTOF
Ms type: MS2
Ion mode: POSITIVE
Collision energy: 50
Fragmentation mode: CID
Ionization: ESI
Column name: Zorbax Eclipse Plus C18 2.1 mm x 150 mm, 3.5 um, Agilent
Retention time: 11.041 min
Precursor m/z: 431.2428
Precursor type: [M+H]+
m/z	relative intensity
77.0431	29
79.0556	29
81.0713	53
91.0558	96
93.0696	53
95.0835	24
97.0645	29
105.0694	116
107.0503	33
107.0869	24
109.065	48
115.0535	24
117.0685	53
119.0848	145
121.0645	358
123.0795	19
128.0618	53
129.0696	58
131.0506	29
131.0854	67
132.057	53
133.0648	33
135.0796	135
137.0609	63
139.074	33
141.0695	24
143.084	43
145.0642	145
145.0993	92
147.0801	999
153.0706	29
154.0775	24
155.0845	96
157.1022	29
158.0719	140
159.0806	164
161.0959	92
163.0759	33
165.0731	29
166.0788	19
167.0835	63
169.0992	53
170.0734	38
171.0794	538
171.1185	29
172.0894	29
173.0955	635
178.0775	33
179.0861	48
181.1023	33
183.0791	43
185.0947	126
185.1373	19
187.1119	33
189.0921	24
191.0865	29
192.0922	63
193.1011	77
194.0669	33
195.0795	72
195.1186	43
196.0874	67
197.0946	179
198.1033	33
199.1106	77
203.0871	19
205.0996	38
207.0848	24
207.1158	106
208.0869	48
209.0952	150
210.1032	140
211.1112	315
213.0902	29
213.128	58
215.087	29
219.0803	19
219.1172	33
220.0882	24
221.0954	126
221.1319	24
222.1016	121
223.1102	140
224.1181	63
225.1255	300
226.1347	198
227.1008	33
227.1416	72
228.095	29
230.1081	19
231.0745	19
232.0861	29
233.0945	67
233.1301	29
234.1023	77
235.1106	140
236.1176	53
237.1259	184
239.1442	53
245.0946	29
246.1046	53
247.1103	116
248.1183	106
249.1258	121
250.1331	24
251.1438	72
253.1551	24
255.12	19
260.1168	24
261.1265	72
262.1385	72
263.1072	29
263.1435	116
264.1493	82
265.158	101
271.1086	24
272.117	58
275.139	33
276.1095	24
277.1192	19
277.1581	82
281.1298	19
287.1356	63
295.1719	29
305.1516	53
323.1633	29
