Mass spectrum: Fluazifop; LC-ESI-QTOF; MS2; 150 V
Name: Fluazifop
Class: Herbicide; Transformation_product
Formula: C15H12F3NO4
Exact mass: 327.0718
SMILES: CC(C(=O)O)Oc1ccc(cc1)Oc2ccc(cn2)C(F)(F)F
InChI: InChI=1S/C15H12F3NO4/c1-9(14(20)21)22-11-3-5-12(6-4-11)23-13-7-2-10(8-19-13)15(16,17)18/h2-9H,1H3,(H,20,21)
Instrument: TripleTOF 6600 SCIEX
Instrument type: LC-ESI-QTOF
Ms type: MS2
Ion mode: POSITIVE
Collision energy: 150
Fragmentation mode: CID
Ionization: ESI
Column name: Zorbax Eclipse Plus C18 2.1 mm x 150 mm, 3.5 um, Agilent
Retention time: 11.668 min
Precursor m/z: 328.0791
Precursor type: [M+H]+
m/z	relative intensity
30.9977	32
35.9999	65
37.0078	295
38.0156	276
39.0235	506
49.0078	276
49.9968	52
50.0157	999
51.006	124
51.0233	893
52.0185	118
52.0311	52
53.0035	65
56.0056	46
57.014	98
59.9999	65
61.0076	361
62.0154	637
63.0232	841
64.0188	32
64.0316	39
65.0386	124
68.9947	473
69.0124	32
70.0211	98
73.0068	118
74.0155	453
75.0049	874
75.022	124
76.0179	256
76.0302	39
77.0389	118
78.0343	46
78.9993	26
80.005	32
81.0139	118
85.0074	78
86.015	131
87.0232	111
88.0188	39
89.0388	65
92.9943	59
98.0149	78
99.0039	203
99.9991	59
101.0191	39
105.0132	32
113.039	59
114.0339	32
117.0157	39
119.0092	26
121.0072	32
122.0149	98
123.0098	46
126.0145	26
131.0286	39
149.0194	39
