Mass spectrum: Tetrabutylphosphonium; LC-ESI-QTOF; MS2; 50 V
Name: Tetrabutylphosphonium
Class: Industrial_process
Formula: [C16H36P]+
Exact mass: 259.2549
SMILES: CCCC[P+](CCCC)(CCCC)CCCC
InChI: InChI=1S/C16H36P/c1-5-9-13-17(14-10-6-2,15-11-7-3)16-12-8-4/h5-16H2,1-4H3/q+1
Instrument: TripleTOF 5600 SCIEX
Instrument type: LC-ESI-QTOF
Ms type: MS2
Ion mode: POSITIVE
Collision energy: 50
Fragmentation mode: CID
Ionization: ESI
Column name: Zorbax Eclipse Plus C18 2.1 mm x 150 mm, 3.5 um, Agilent
Retention time: 9.655 min
Precursor m/z: 259.2549
Precursor type: [M]+
m/z	relative intensity
56.994	69
59.0097	64
61.0251	208
62.0329	285
75.0386	149
76.0463	999
89.0522	92
90.0599	337
103.0678	63
117.0825	68
131.0986	219
145.1143	133
173.1455	328
187.1613	216
203.1925	234
259.2553	604
