Mass spectrum: Rhein; LC-ESI-QTOF; MS2; 90 V
Name: Rhein
Class: Metabolite
Formula: C15H8O6
Exact mass: 284.0321
SMILES: C1=CC2=C(C(=C1)O)C(=O)C3=C(C=C(C=C3C2=O)C(=O)O)O
InChI: InChI=1S/C15H8O6/c16-9-3-1-2-7-11(9)14(19)12-8(13(7)18)4-6(15(20)21)5-10(12)17/h1-5,16-17H,(H,20,21)
Instrument: TripleTOF 5600 SCIEX
Instrument type: LC-ESI-QTOF
Ms type: MS2
Ion mode: POSITIVE
Collision energy: 90
Fragmentation mode: CID
Ionization: ESI
Column name: Zorbax Eclipse Plus C18 2.1 mm x 150 mm, 3.5 um, Agilent
Retention time: 10.796 min
Precursor m/z: 285.0394
Precursor type: [M+H]+
m/z	relative intensity
51.022	249
63.0222	204
65.0384	408
74.0146	90
75.0223	385
77.0382	999
81.0332	136
87.0219	249
89.0382	227
93.033	113
101.0379	204
102.045	204
105.0343	90
113.0394	113
115.0544	136
126.0471	567
127.0542	567
128.0612	431
137.0385	363
139.055	476
155.047	181
