Mass spectrum: Penconazol; LC-ESI-QTOF; MS2; 20 V
Name: Penconazol
Class: Fungicide
Formula: C13H15Cl2N3
Exact mass: 283.0643
SMILES: CCCC(CN1C=NC=N1)C2=C(C=C(C=C2)Cl)Cl
InChI: InChI=1S/C13H15Cl2N3/c1-2-3-10(7-18-9-16-8-17-18)12-5-4-11(14)6-13(12)15/h4-6,8-10H,2-3,7H2,1H3
Instrument: TripleTOF 6600 SCIEX
Instrument type: LC-ESI-QTOF
Ms type: MS2
Ion mode: POSITIVE
Collision energy: 20
Fragmentation mode: CID
Ionization: ESI
Column name: Zorbax Eclipse Plus C18 2.1 mm x 150 mm, 3.5 um, Agilent
Retention time: 12.845 min
Precursor m/z: 284.0716
Precursor type: [M+H]+
m/z	relative intensity
70.0406	999
158.977	472
172.9927	159
284.0733	673
