Mass spectrum: Trihexyltetradecylphosphonium; LC-ESI-QTOF; MS2; 70 V
Name: Trihexyltetradecylphosphonium
Formula: [C32H68P]+
Exact mass: 483.5053
SMILES: CCCCCCCCCCCCCC[P+](CCCCCC)(CCCCCC)CCCCCC
InChI: InChI=1S/C32H68P/c1-5-9-13-17-18-19-20-21-22-23-24-28-32-33(29-25-14-10-6-2,30-26-15-11-7-3)31-27-16-12-8-4/h5-32H2,1-4H3/q+1
Instrument: TripleTOF 5600 SCIEX
Instrument type: LC-ESI-QTOF
Ms type: MS2
Ion mode: POSITIVE
Collision energy: 70
Fragmentation mode: CID
Ionization: ESI
Column name: Zorbax Eclipse Plus C18 2.1 mm x 150 mm, 3.5 um, Agilent
Retention time: 17.125 min
Precursor m/z: 483.5053
Precursor type: [M]+
m/z	relative intensity
76.0435	88
159.1302	54
187.1625	55
201.1777	60
229.2093	103
243.2248	57
257.2405	72
271.2559	142
285.2717	95
299.2871	56
313.303	148
327.3181	50
341.3339	87
355.3494	76
369.367	83
383.3813	128
397.3973	82
399.4109	101
425.4293	64
483.505	999
