Mass spectrum: N-desmethyl-diphenhydramine; LC-ESI-QTOF; MS2; 30 V
Name: N-desmethyl-diphenhydramine
Class: Pharmaceutical; Metabolite
Formula: C16H19NO
Exact mass: 241.1467
SMILES: CNCCOC(c1ccccc1)c2ccccc2
InChI: InChI=1S/C16H19NO/c1-17-12-13-18-16(14-8-4-2-5-9-14)15-10-6-3-7-11-15/h2-11,16-17H,12-13H2,1H3
Instrument: TripleTOF 5600 SCIEX
Instrument type: LC-ESI-QTOF
Ms type: CID
Ion mode: POSITIVE
Collision energy: 30
Ionization: ESI
Column name: Zorbax Eclipse Plus C18 2.1 mm x 150 mm, 3.5 um, Agilent
Retention time: 7.557 min
Precursor m/z: 242.1539
Precursor type: [M+H]+
m/z	relative intensity
151.0536	10
152.0622	131
165.0701	165
166.0778	68
167.0849	999
