Mass spectrum: 2-(5-Chloro-2-methoxyphenyl)-1H-benzimidazole; LC-ESI-QTOF; MS2; 80 V
Name: 2-(5-Chloro-2-methoxyphenyl)-1H-benzimidazole
Class: Pharmaceutical
Formula: C14H11ClN2O
Exact mass: 258.056
SMILES: COc1ccc(cc1c2[nH]c3ccccc3n2)Cl
InChI: InChI=1S/C14H11ClN2O/c1-18-13-7-6-9(15)8-10(13)14-16-11-4-2-3-5-12(11)17-14/h2-8H,1H3,(H,16,17)
Instrument: TripleTOF 5600 SCIEX
Instrument type: LC-ESI-QTOF
Ms type: MS2
Ion mode: POSITIVE
Collision energy: 80
Fragmentation mode: CID
Ionization: ESI
Column name: Zorbax Eclipse Plus C18 2.1 mm x 150 mm, 3.5 um, Agilent
Retention time: 7.374 min
Precursor m/z: 259.0633
Precursor type: [M+H]+
m/z	relative intensity
65.0438	343
66.0375	10
74.018	18
75.0272	67
76.0219	20
76.0355	15
77.0426	605
78.0357	62
89.0446	12
90.0353	278
91.0439	76
92.0515	107
101.0394	81
102.0348	170
103.0415	65
104.0486	59
113.0393	12
114.0389	17
115.0428	25
117.0581	14
118.0521	26
119.061	23
125.0378	29
126.0458	84
127.0545	645
128.0518	333
129.0487	218
130.0395	25
130.0686	15
131.06	82
140.0486	42
141.0559	15
142.0507	95
143.0599	37
152.0487	154
153.0561	223
154.0648	476
155.0603	220
156.067	23
164.0506	10
166.0548	17
168.0691	50
178.0521	14
179.0599	567
180.0671	492
181.0756	999
203.0382	14
215.0358	37
216.0447	14
