Mass spectrum: Febantel; LC-ESI-QTOF; MS2; 110 V
Name: Febantel
Class: Pharmaceutical
Formula: C20H22N4O6S
Exact mass: 446.126
SMILES: COCC(=O)Nc1cc(Sc2ccccc2)ccc1NC(NC(=O)OC)=NC(=O)OC
InChI: InChI=1S/C20H22N4O6S/c1-28-12-17(25)21-16-11-14(31-13-7-5-4-6-8-13)9-10-15(16)22-18(23-19(26)29-2)24-20(27)30-3/h4-11H,12H2,1-3H3,(H,21,25)(H2,22,23,24,26,27)
Instrument: TripleTOF 5600 SCIEX
Instrument type: LC-ESI-QTOF
Ms type: MS2
Ion mode: POSITIVE
Collision energy: 110
Fragmentation mode: CID
Ionization: ESI
Column name: Zorbax Eclipse Plus C18 2.1 mm x 150 mm, 3.5 um, Agilent
Retention time: 13.085 min
Precursor m/z: 447.1333
Precursor type: [M+H]+
m/z	relative intensity
45.0433	494
45.0719	17
51.0295	28
63.0371	14
64.0358	42
65.0317	35
65.0435	345
66.0509	14
68.0172	21
68.9842	70
68.9977	17
69.013	21
69.997	21
75.0139	14
75.0241	24
76.0214	63
76.0343	60
77.0376	398
78.0376	49
78.0485	63
79.0455	52
83.0274	130
88.0202	38
89.0276	74
89.0399	35
90.0358	148
91.0302	21
91.0442	250
92.0404	31
92.0519	49
93.0606	63
94.996	63
96.0036	21
101.0284	60
102.0358	109
103.0389	225
104.0381	494
104.0826	24
105.0456	141
106.0535	74
107.0607	24
108.0034	56
108.9977	17
109.0112	405
113.0394	17
115.0299	77
115.0553	91
116.0376	938
116.0659	21
117.0449	102
118.0532	638
118.0821	21
119.06	56
119.9912	52
120.9997	52
122.0062	367
126.0475	24
127.0544	211
128.0388	21
128.061	60
129.0459	105
129.07	24
130.0407	225
131.0283	35
131.0507	621
131.9932	17
132.0294	17
132.0704	31
133.0002	24
133.0612	31
134.0191	31
134.0459	17
135.0003	17
135.0546	38
137.0375	17
138.0493	52
139.0545	667
140.05	144
141.0696	28
142.0401	49
143.0478	367
144.0339	24
144.0565	102
145.0125	17
145.0404	70
145.0648	98
146.0161	17
146.0357	56
146.0724	21
147.0017	105
147.0303	42
148.0095	21
149.0182	81
150.027	31
150.0455	35
151.0558	91
152.0609	201
153.058	67
154.0663	148
158.019	28
158.0337	56
158.0714	28
159.0022	56
159.0431	649
160.0112	24
160.0546	35
161.0184	35
163.0246	35
164.0295	21
164.0507	148
165.0578	91
166.0669	123
167.0759	31
169.0109	28
170.0196	77
170.0371	21
171.0273	999
172.0336	105
172.0515	229
173.0321	24
173.056	52
175.0203	14
176.0506	38
177.0569	232
178.0508	21
178.0631	35
179.0594	67
180.0661	21
180.0796	24
181.0797	28
182.0184	88
183.0249	204
184.0198	24
184.0346	180
185.0293	45
186.036	91
190.0061	98
190.0558	14
191.0135	17
191.0605	91
192.0689	88
193.076	31
194.0899	21
195.014	28
196.0225	550
196.0911	14
197.0289	112
198.0372	165
199.0456	67
200.0428	17
202.0047	17
203.0165	35
203.0575	14
205.0761	63
206.075	56
207.0775	21
207.0933	14
208.0211	137
209.0298	533
210.0294	183
211.0334	275
213.0491	17
219.0801	35
221.014	14
223.0327	77
224.0398	374
225.0478	74
235.0351	35
235.0736	17
237.0452	102
238.0469	116
239.0532	45
246.0651	49
252.0267	24
265.0321	95
266.0366	63
278.0404	17
