Mass spectrum: N-desmethylterbinafine; LC-ESI-QTOF; MS2; 130 V
Name: N-desmethylterbinafine
Class: Pharmaceutical; Metabolite
Formula: C20H23N
Exact mass: 277.183
SMILES: CC(C)(C)C#C/C=C/CNCc1cccc2ccccc12
InChI: InChI=1S/C20H23N/c1-20(2,3)14-7-4-8-15-21-16-18-12-9-11-17-10-5-6-13-19(17)18/h4-6,8-13,21H,15-16H2,1-3H3/b8-4+
Instrument: TripleTOF 5600 SCIEX
Instrument type: LC-ESI-QTOF
Ms type: MS2
Ion mode: POSITIVE
Collision energy: 130
Fragmentation mode: CID
Ionization: ESI
Column name: Zorbax Eclipse Plus C18 2.1 mm x 150 mm, 3.5 um, Agilent
Retention time: 9.089 min
Precursor m/z: 278.1903
Precursor type: [M+H]+
m/z	relative intensity
60.004	12
65.0435	509
74.0171	106
75.0251	68
76.0329	40
77.0408	202
78.0505	24
79.0569	15
85.011	15
86.0165	59
87.0242	83
88.0326	36
89.0406	801
89.0782	12
91.0559	157
98.0144	17
102.0466	40
113.0389	61
114.0459	55
115.0547	999
126.0475	13
137.0374	10
138.0469	26
139.0537	162
