Mass spectrum: 4-(4-Chloro-2-methylphenoxy)butanoic acid; LC-ESI-QTOF; MS2; 70 V
Name: 4-(4-Chloro-2-methylphenoxy)butanoic acid
Class: Herbicide
Formula: C11H13ClO3
Exact mass: 228.0553
SMILES: CC1=C(C=CC(=C1)Cl)OCCCC(=O)O
InChI: InChI=1S/C11H13ClO3/c1-8-7-9(12)4-5-10(8)15-6-2-3-11(13)14/h4-5,7H,2-3,6H2,1H3,(H,13,14)
Instrument: TripleTOF 6600 SCIEX
Instrument type: LC-ESI-QTOF
Ms type: MS2
Ion mode: POSITIVE
Collision energy: 70
Fragmentation mode: CID
Ionization: ESI
Column name: Zorbax Eclipse Plus C18 2.1 mm x 150 mm, 3.5 um, Agilent
Retention time: 11.775 min
Precursor m/z: 229.0626
Precursor type: [M+H]+
m/z	relative intensity
37.0072	212
38.0145	106
39.0227	935
40.0051	21
41.0376	595
43.0175	701
44.9966	233
45.0332	999
48.9847	21
51.0223	170
53.0385	21
65.0382	148
69.0331	63
72.9836	212
74.9999	63
75.0217	42
77.0379	255
78.0465	85
79.054	85
89.0372	446
90.045	191
91.0531	170
98.9974	276
102.0411	42
103.0535	42
107.0498	148
115.0538	148
125.017	63
127.0518	106
128.0612	191
129.0697	42
131.0486	21
