Mass spectrum: Ciprofloxacin; LC-ESI-QTOF; MS2; 70 V
Name: Ciprofloxacin
Class: Pharmaceutical
Formula: C17H18FN3O3
Exact mass: 331.1332
SMILES: C1CC1N2C=C(C(=O)C3=CC(=C(C=C32)N4CCNCC4)F)C(=O)O
InChI: InChI=1S/C17H18FN3O3/c18-13-7-11-14(8-15(13)20-5-3-19-4-6-20)21(10-1-2-10)9-12(16(11)22)17(23)24/h7-10,19H,1-6H2,(H,23,24)
Instrument: TripleTOF 6600 SCIEX
Instrument type: LC-ESI-QTOF
Ms type: MS2
Ion mode: POSITIVE
Collision energy: 70
Fragmentation mode: CID
Ionization: ESI
Column name: Zorbax Eclipse Plus C18 2.1 mm x 150 mm, 3.5 um, Agilent
Retention time: 5.497 min
Precursor m/z: 332.1405
Precursor type: [M+H]+
m/z	relative intensity
107.028	57
128.0494	114
132.0241	85
134.0395	171
135.0475	156
140.0478	99
142.0644	57
148.0561	428
154.0659	85
155.0603	171
156.0681	71
158.0383	71
160.0427	128
161.0274	114
162.0353	185
163.0665	85
174.0354	71
174.0612	142
175.0331	57
175.0669	228
184.0569	99
187.0312	142
187.0671	85
188.0384	470
189.0484	128
191.0653	85
203.0603	356
215.025	85
215.0625	71
231.0568	999
