Mass spectrum: Mirtazapine; LC-ESI-QTOF; MS2; 150 V
Name: Mirtazapine
Class: Pharmaceutical
Formula: C17H19N3
Exact mass: 265.1579
SMILES: CN1CCN2C(C1)C3=CC=CC=C3CC4=C2N=CC=C4
InChI: InChI=1S/C17H19N3/c1-19-9-10-20-16(12-19)15-7-3-2-5-13(15)11-14-6-4-8-18-17(14)20/h2-8,16H,9-12H2,1H3
Instrument: TripleTOF 5600 SCIEX
Instrument type: LC-ESI-QTOF
Ms type: MS2
Ion mode: POSITIVE
Collision energy: 150
Fragmentation mode: CID
Ionization: ESI
Column name: Zorbax Eclipse Plus C18 2.1 mm x 150 mm, 3.5 um, Agilent
Retention time: 5.459 min
Precursor m/z: 266.1652
Precursor type: [M+H]+
m/z	relative intensity
42.0439	134
52.0262	73
56.0581	60
64.0306	109
65.0456	402
73.0152	121
74.0203	999
75.027	694
76.0356	304
77.0433	706
78.0399	73
78.0484	60
85.0113	255
86.0184	621
87.0265	767
88.0209	109
88.0332	207
89.0409	938
91.0592	97
98.0168	706
99.0244	328
100.03	97
101.0406	97
102.0488	194
109.0073	109
110.0158	231
111.0232	207
112.0205	97
113.0393	706
114.0364	170
114.0505	73
115.056	243
116.0482	48
122.0149	182
123.0237	73
124.0315	73
125.035	97
126.0465	328
127.0514	60
137.0399	341
138.0436	219
139.0539	767
140.0505	328
149.0393	109
150.0473	609
151.0536	353
152.0628	121
161.0385	146
162.0502	170
163.055	268
164.05	450
175.0432	60
187.0443	60
188.0465	121
190.0637	60
191.0653	85
