Mass spectrum: Alpha-hydroxy-metoprolol; LC-ESI-QTOF; MS2; 140 V
Name: Alpha-hydroxy-metoprolol
Class: Pharmaceutical; Metabolite; Transformation_product-Metabolite
Formula: C15H25NO4
Exact mass: 283.1784
SMILES: COCC(O)c1ccc(OCC(O)CNC(C)C)cc1
InChI: InChI=1S/C15H25NO4/c1-11(2)16-8-13(17)9-20-14-6-4-12(5-7-14)15(18)10-19-3/h4-7,11,13,15-18H,8-10H2,1-3H3
Instrument: TripleTOF 5600 SCIEX
Instrument type: LC-ESI-QTOF
Ms type: MS2
Ion mode: POSITIVE
Collision energy: 140
Fragmentation mode: CID
Ionization: ESI
Column name: Zorbax Eclipse Plus C18 2.1 mm x 150 mm, 3.5 um, Agilent
Retention time: 5.057 min
Precursor m/z: 284.1856
Precursor type: [M+H]+
m/z	relative intensity
42.0439	28
44.0654	28
45.0417	46
56.0542	98
58.0703	80
65.0429	375
74.0186	86
75.025	51
76.0337	40
77.0422	999
78.0488	98
89.041	311
91.0562	138
107.0507	28
115.0557	46
