Mass spectrum: Fludioxonil; LC-ESI-QTOF; MS2; 50 V
Name: Fludioxonil
Class: Fungicide
Formula: C12H6F2N2O2
Exact mass: 248.0397
SMILES: c1cc(c2c(c1)OC(O2)(F)F)c3c[nH]cc3C#N
InChI: InChI=1S/C12H6F2N2O2/c13-12(14)17-10-3-1-2-8(11(10)18-12)9-6-16-5-7(9)4-15/h1-3,5-6,16H
Instrument: TripleTOF 6600 SCIEX
Instrument type: LC-ESI-QTOF
Ms type: MS2
Ion mode: NEGATIVE
Collision energy: 50
Fragmentation mode: CID
Ionization: ESI
Column name: Zorbax Eclipse Plus C18 2.1 mm x 150 mm, 3.5 um, Agilent
Retention time: 11.757 min
Precursor m/z: 247.0324
Precursor type: [M-H]-
m/z	relative intensity
49.0081	22
50.0033	275
64.0054	28
65.0135	79
65.9984	15
70.9928	66
73.0077	12
74.0032	19
89.0131	95
89.038	63
98.0024	12
114.0342	15
115.029	41
124.0178	69
126.0341	878
127.029	72
140.0363	57
141.0448	180
151.0299	294
152.0373	675
153.0446	85
169.0395	555
179.0241	66
180.0321	999
181.0378	31
197.0333	22
199.0287	19
247.0304	66
