Mass spectrum: Torasemide; LC-ESI-QTOF; MS2; 50 V
Name: Torasemide
Class: Pharmaceutical
Formula: C16H20N4O3S
Exact mass: 348.1256
SMILES: CC(C)NC(=O)N[S](=O)(=O)c1cnccc1Nc2cccc(C)c2
InChI: InChI=1S/C16H20N4O3S/c1-11(2)18-16(21)20-24(22,23)15-10-17-8-7-14(15)19-13-6-4-5-12(3)9-13/h4-11H,1-3H3,(H,17,19)(H2,18,20,21)
Instrument: TripleTOF 5600 SCIEX
Instrument type: LC-ESI-QTOF
Ms type: MS2
Ion mode: POSITIVE
Collision energy: 50
Fragmentation mode: CID
Ionization: ESI
Column name: Zorbax Eclipse Plus C18 2.1 mm x 150 mm, 3.5 um, Agilent
Retention time: 7.633 min
Precursor m/z: 349.1329
Precursor type: [M+H]+
m/z	relative intensity
98.0065	11
122.0596	23
125.0171	157
128.0617	13
129.0698	23
137.0169	34
140.0491	13
141.0569	19
154.0653	11
156.08	33
167.0595	20
168.0684	847
169.0759	20
176.0403	13
181.0759	103
182.0838	282
183.0913	999
185.0707	23
191.0633	65
197.0705	10
198.0784	100
199.0863	93
201.0479	69
202.0547	10
219.0583	91
229.0432	28
230.0508	141
247.0534	92
264.0809	420
290.0589	18
