Mass spectrum: Cocaine; LC-ESI-QTOF; MS2; 50 V
Name: Cocaine
Class: Pharmaceutical
Formula: C17H21NO4
Exact mass: 303.1471
SMILES: CN1C2CCC1C(C(C2)OC(=O)C3=CC=CC=C3)C(=O)OC
InChI: InChI=1S/C17H21NO4/c1-18-12-8-9-13(18)15(17(20)21-2)14(10-12)22-16(19)11-6-4-3-5-7-11/h3-7,12-15H,8-10H2,1-2H3
Instrument: TripleTOF 6600 SCIEX
Instrument type: LC-ESI-QTOF
Ms type: MS2
Ion mode: POSITIVE
Collision energy: 50
Fragmentation mode: CID
Ionization: ESI
Column name: Zorbax Eclipse Plus C18 2.1 mm x 150 mm, 3.5 um, Agilent
Retention time: 6.407 min
Precursor m/z: 304.1543
Precursor type: [M+H]+
m/z	relative intensity
42.0336	31
44.0491	47
57.0578	31
59.013	47
65.0382	126
67.0415	31
68.0494	105
70.0647	47
77.0383	531
79.0539	63
80.0494	26
81.0702	31
82.0651	999
83.0729	178
91.0538	357
93.0329	120
93.0683	63
94.0649	157
96.0803	57
97.064	78
105.0334	851
105.0692	21
107.0733	42
108.0805	173
118.0406	52
119.0486	199
122.0961	168
135.0678	47
150.0903	110
154.0851	57
182.1169	184
