Mass spectrum: 1-Amino-3-phenoxy-2-propanol; LC-ESI-QTOF; MS2; 40 V
Name: 1-Amino-3-phenoxy-2-propanol
Class: Pharmaceutical
Formula: C9H13NO2
Exact mass: 167.0946
SMILES: C1=CC=C(C=C1)OCC(CN)O
InChI: InChI=1S/C9H13NO2/c10-6-8(11)7-12-9-4-2-1-3-5-9/h1-5,8,11H,6-7,10H2
Instrument: TripleTOF 5600 SCIEX
Instrument type: LC-ESI-QTOF
Ms type: MS2
Ion mode: POSITIVE
Collision energy: 40
Fragmentation mode: CID
Ionization: ESI
Column name: Zorbax Eclipse Plus C18 2.1 mm x 150 mm, 3.5 um, Agilent
Retention time: 4.753 min
Precursor m/z: 168.1019
Precursor type: [M+H]+
m/z	relative intensity
51.0227	89
56.0494	167
74.0603	32
77.0385	999
79.0544	152
91.0558	13
95.0498	13
103.0545	39
105.0683	65
107.049	59
