Mass spectrum: Lumichrome; LC-ESI-QTOF; MS2; 140 V
Name: Lumichrome
Class: Pharmaceutical
Formula: C12H10N4O2
Exact mass: 242.0804
SMILES: CC1=CC2=C(C=C1C)N=C3C(=N2)C(=O)NC(=O)N3
InChI: InChI=1S/C12H10N4O2/c1-5-3-7-8(4-6(5)2)14-10-9(13-7)11(17)16-12(18)15-10/h3-4H,1-2H3,(H2,14,15,16,17,18)
Instrument: TripleTOF 6600 SCIEX
Instrument type: LC-ESI-QTOF
Ms type: MS2
Ion mode: POSITIVE
Collision energy: 140
Fragmentation mode: CID
Ionization: ESI
Column name: Zorbax Eclipse Plus C18 2.1 mm x 150 mm, 3.5 um, Agilent
Retention time: 7.067 min
Precursor m/z: 243.0877
Precursor type: [M+H]+
m/z	relative intensity
36.0002	27
37.0078	96
38.0155	82
39.0239	146
44.0137	36
49.0078	233
50.0159	953
51.0234	999
52.0187	54
60.0003	36
61.0078	178
62.0157	247
63.0236	224
64.0186	54
65.0389	41
73.008	59
74.016	407
75.0112	91
75.0234	100
76.019	73
76.0314	22
77.0395	64
85.0076	18
86.0147	18
88.0193	18
89.0378	45
99.0101	22
