Mass spectrum: N-acetyl-sitagliptin; LC-ESI-QTOF; MS2; 110 V
Name: N-acetyl-sitagliptin
Class: Metabolite; Pharmaceutical
Formula: C18H17F6N5O2
Exact mass: 449.1286
SMILES: CC(=O)NC(CC1=CC(=C(C=C1F)F)F)CC(=O)N2CCN3C(=NN=C3C(F)(F)F)C2
InChI: InChI=1S/C18H17F6N5O2/c1-9(30)25-11(4-10-5-13(20)14(21)7-12(10)19)6-16(31)28-2-3-29-15(8-28)26-27-17(29)18(22,23)24/h5,7,11H,2-4,6,8H2,1H3,(H,25,30)
Instrument: TripleTOF 5600 SCIEX
Instrument type: LC-ESI-QTOF
Ms type: MS2
Ion mode: POSITIVE
Collision energy: 110
Fragmentation mode: CID
Ionization: ESI
Column name: Zorbax Eclipse Plus C18 2.1 mm x 150 mm, 3.5 um, Agilent
Retention time: 8.852 min
Precursor m/z: 450.1359
Precursor type: [M+H]+
m/z	relative intensity
56.0528	13
75.0066	16
77.0409	13
87.024	23
95.0299	24
101.0198	91
107.0286	88
118.0215	19
119.0094	15
120.0358	11
125.0188	94
127.0355	999
131.0283	18
134.0393	52
137.0194	49
145.0257	445
150.0253	12
151.0352	398
153.0377	66
154.0453	112
157.0253	16
165.0244	13
169.0259	47
171.041	17
174.051	42
