Mass spectrum: 5-Methyl-1H-benzotriazole; LC-ESI-QTOF; MS2; 70 V
Name: 5-Methyl-1H-benzotriazole
Class: Industrial_process
Formula: C7H7N3
Exact mass: 133.064
InChI: InChI=1S/C7H7N3/c1-5-2-3-6-7(4-5)9-10-8-6/h2-4H,1H3,(H,8,9,10)
Instrument: TripleTOF 5600 SCIEX
Instrument type: LC-ESI-QTOF
Ms type: CID
Ion mode: NEGATIVE
Collision energy: 70
Ionization: ESI
Column name: Zorbax Eclipse Plus C18 2.1 mm x 150 mm, 3.5 um, Agilent
Retention time: 7.021 min
Precursor m/z: 132.0567
Precursor type: [M-H]-
m/z	relative intensity
40.0235	142
42.0145	142
42.0204	285
50.0067	999
63.0134	428
88.0202	713
