Mass spectrum: Flazasulfuron; LC-ESI-QTOF; MS2; 70 V
Name: Flazasulfuron
Class: Herbicide
Formula: C13H12F3N5O5S
Exact mass: 407.0511
SMILES: COC1=CC(=NC(=N1)NC(=O)NS(=O)(=O)C2=C(C=CC=N2)C(F)(F)F)OC
InChI: InChI=1S/C13H12F3N5O5S/c1-25-8-6-9(26-2)19-11(18-8)20-12(22)21-27(23,24)10-7(13(14,15)16)4-3-5-17-10/h3-6H,1-2H3,(H2,18,19,20,21,22)
Instrument: TripleTOF 6600 SCIEX
Instrument type: LC-ESI-QTOF
Ms type: MS2
Ion mode: NEGATIVE
Collision energy: 70
Fragmentation mode: CID
Ionization: ESI
Column name: Zorbax Eclipse Plus C18 2.1 mm x 150 mm, 3.5 um, Agilent
Retention time: 11.145 min
Precursor m/z: 406.0438
Precursor type: [M-H]-
m/z	relative intensity
40.0059	34
41.0133	108
41.9972	312
50.0012	15
64.0042	70
65.013	357
65.9965	999
74.0017	42
77.9629	27
82.0155	68
87.9977	39
89.0132	25
90.0069	65
91.0278	36
94.0077	18
97.0381	20
98.0202	15
101.0108	29
107.011	801
108.0198	48
109.0257	58
114.0116	13
121.0203	96
122.0344	944
124.049	56
139.0382	391
141.0251	37
142.0091	92
154.0599	372
161.032	53
162.0165	89
163.0255	10
164.0319	13
