Mass spectrum: Methadone; LC-ESI-QTOF; MS2; 130 V
Name: Methadone
Class: Pharmaceutical
Formula: C21H27NO
Exact mass: 309.2093
SMILES: CCC(=O)C(CC(C)N(C)C)(C1=CC=CC=C1)C2=CC=CC=C2
InChI: InChI=1S/C21H27NO/c1-5-20(23)21(16-17(2)22(3)4,18-12-8-6-9-13-18)19-14-10-7-11-15-19/h6-15,17H,5,16H2,1-4H3
Instrument: TripleTOF 6600 SCIEX
Instrument type: LC-ESI-QTOF
Ms type: MS2
Ion mode: POSITIVE
Collision energy: 130
Fragmentation mode: CID
Ionization: ESI
Column name: Zorbax Eclipse Plus C18 2.1 mm x 150 mm, 3.5 um, Agilent
Retention time: 8.79 min
Precursor m/z: 310.2166
Precursor type: [M+H]+
m/z	relative intensity
37.0072	53
38.0031	11
38.0152	46
39.0226	219
41.0383	25
42.0332	47
43.0171	11
44.049	14
49.0068	32
50.0147	333
51.0227	999
56.0488	12
59.9984	11
61.0064	32
62.0142	66
63.0221	150
65.0379	316
72.0797	10
73.0063	11
74.0138	78
75.0216	43
76.0293	35
77.0378	553
78.0456	38
85.0062	12
86.0139	31
87.0218	35
89.0375	177
91.053	173
98.0137	33
99.0222	11
101.0373	11
102.0456	100
105.0429	10
113.0375	39
115.0532	394
126.045	81
127.0539	68
128.0611	115
137.0377	18
138.045	16
139.0535	190
149.036	21
150.0453	152
151.0526	148
152.061	136
161.0384	14
162.044	40
163.053	362
164.0609	165
165.0687	194
174.0442	45
175.0531	37
176.0603	125
177.0673	10
178.0778	24
187.0534	69
188.0624	37
189.0678	91
198.0448	22
199.0535	37
200.0603	263
201.0696	86
202.0758	88
211.0519	10
213.0697	101
215.0854	36
