Mass spectrum: Hydrocodone; LC-ESI-QTOF; MS2; 100 V
Name: Hydrocodone
Class: Pharmaceutical; Transformation_product-Metabolite
Formula: C18H21NO3
Exact mass: 299.1521
SMILES: CN1CCC23C4C1CC5=C2C(=C(C=C5)OC)OC3C(=O)CC4
InChI: InChI=1S/C18H21NO3/c1-19-8-7-18-11-4-5-13(20)17(18)22-16-14(21-2)6-3-10(15(16)18)9-12(11)19/h3,6,11-12,17H,4-5,7-9H2,1-2H3
Instrument: TripleTOF 6600 SCIEX
Instrument type: LC-ESI-QTOF
Ms type: MS2
Ion mode: POSITIVE
Collision energy: 100
Fragmentation mode: CID
Ionization: ESI
Column name: Zorbax Eclipse Plus C18 2.1 mm x 150 mm, 3.5 um, Agilent
Retention time: 5.331 min
Precursor m/z: 300.1594
Precursor type: [M+H]+
m/z	relative intensity
39.022	17
44.0485	29
51.0217	48
55.0173	16
61.0056	12
62.0139	27
63.0216	47
65.0374	43
74.0142	41
75.0216	75
76.0298	41
77.0373	390
78.0451	118
86.0126	12
87.0214	20
88.0293	83
89.0374	136
91.0532	60
101.0372	116
102.0451	322
103.0525	22
113.0372	194
114.0451	273
115.053	999
116.0604	20
125.0365	23
126.0452	273
127.0531	749
128.061	809
129.0427	18
129.0672	21
131.047	12
139.0527	232
140.0596	29
141.0329	24
141.0685	208
142.0387	18
143.0493	14
150.0437	72
151.0537	244
152.0609	761
153.0689	122
155.0506	252
156.0521	9
163.0521	64
164.0605	50
165.0686	121
168.0553	19
169.0288	28
169.0626	21
170.0352	38
176.0599	10
179.0589	12
181.062	18
183.043	48
189.0708	10
