Mass spectrum: Valsartanic acid; LC-ESI-QTOF; MS2; 90 V
Name: Valsartanic acid
Class: Pharmaceutical; Transformation_product
Formula: C14H10N4O2
Exact mass: 266.0804
SMILES: O=C(O)C(C=C1)=CC=C1C2=CC=CC=C2C3=NN=NN3
InChI: InChI=1S/C14H10N4O2/c19-14(20)10-7-5-9(6-8-10)11-3-1-2-4-12(11)13-15-17-18-16-13/h1-8H,(H,19,20)(H,15,16,17,18)
Instrument: TripleTOF 5600 SCIEX
Instrument type: LC-ESI-QTOF
Ms type: MS2
Ion mode: POSITIVE
Collision energy: 90
Fragmentation mode: CID
Ionization: ESI
Column name: Zorbax Eclipse Plus C18 2.1 mm x 150 mm, 3.5 um, Agilent
Retention time: 8.027 min
Precursor m/z: 267.0877
Precursor type: [M+H]+
m/z	relative intensity
51.0286	54
74.017	30
75.0256	67
76.0326	15
77.0413	160
87.0243	12
89.0405	14
98.0161	41
99.0236	80
100.0313	11
101.0394	30
102.047	21
113.0391	21
122.016	10
123.0229	16
124.0308	20
125.0386	128
126.0455	51
127.041	15
127.0545	35
139.0536	18
140.051	17
149.0387	101
150.0471	999
151.0538	324
152.0619	97
164.0521	25
175.0418	49
176.0509	55
177.0575	221
