Mass spectrum: 3,3-Diphenylacrylonitrile; LC-ESI-QTOF; MS2; 90 V
Name: 3,3-Diphenylacrylonitrile
Formula: C15H11N
Exact mass: 205.0891
SMILES: C1=CC=C(C=C1)C(=CC#N)C2=CC=CC=C2
InChI: InChI=1S/C15H11N/c16-12-11-15(13-7-3-1-4-8-13)14-9-5-2-6-10-14/h1-11H
Instrument: TripleTOF 6600 SCIEX
Instrument type: LC-ESI-QTOF
Ms type: MS2
Ion mode: POSITIVE
Collision energy: 90
Fragmentation mode: CID
Ionization: ESI
Column name: Zorbax Eclipse Plus C18 2.1 mm x 150 mm, 3.5 um, Agilent
Retention time: 13.746 min
Precursor m/z: 206.0964
Precursor type: [M+H]+
m/z	relative intensity
49.0067	36
50.0146	357
51.0218	999
63.021	58
73.0063	51
74.0137	481
75.0215	466
76.017	29
77.0374	379
87.0218	43
89.0364	36
98.0137	51
99.0216	36
102.0457	87
115.0504	29
126.0445	109
127.0477	36
139.0527	65
150.0436	306
151.0522	123
163.0561	51
174.0432	29
175.0529	43
176.0601	123
