Mass spectrum: Flumioxazin; LC-ESI-QTOF; MS2; 140 V
Name: Flumioxazin
Class: Herbicide
Formula: C19H15FN2O4
Exact mass: 354.1016
SMILES: C#CCN1c2cc(c(cc2OCC1=O)F)N3C(=O)C4=C(C3=O)CCCC4
InChI: InChI=1S/C19H15FN2O4/c1-2-7-21-15-9-14(13(20)8-16(15)26-10-17(21)23)22-18(24)11-5-3-4-6-12(11)19(22)25/h1,8-9H,3-7,10H2
Instrument: TripleTOF 6600 SCIEX
Instrument type: LC-ESI-QTOF
Ms type: MS2
Ion mode: POSITIVE
Collision energy: 140
Fragmentation mode: CID
Ionization: ESI
Column name: Zorbax Eclipse Plus C18 2.1 mm x 150 mm, 3.5 um, Agilent
Retention time: 11.704 min
Precursor m/z: 355.1089
Precursor type: [M+H]+
m/z	relative intensity
37.0069	142
39.0219	142
51.0221	999
53.0376	142
57.0125	142
73.0071	142
74.014	713
75.0094	285
75.0218	428
76.017	428
77.0376	999
78.0455	142
81.0132	285
83.029	142
89.0406	142
95.0176	142
96.0228	142
97.0088	142
107.0291	285
108.0239	142
127.0409	142
164.0476	285
