Mass spectrum: Capecitabine; LC-ESI-QTOF; MS2; 90 V
Name: Capecitabine
Class: Pharmaceutical
Formula: C15H22FN3O6
Exact mass: 359.1493
SMILES: CCCCCOC(=O)NC1=NC(=O)N(C=C1F)[C@@H]2O[C@H](C)[C@@H](O)[C@H]2O
InChI: InChI=1S/C15H22FN3O6/c1-3-4-5-6-24-15(23)18-12-9(16)7-19(14(22)17-12)13-11(21)10(20)8(2)25-13/h7-8,10-11,13,20-21H,3-6H2,1-2H3,(H,17,18,22,23)/t8-,10-,11-,13-/m1/s1
Instrument: TripleTOF 5600 SCIEX
Instrument type: LC-ESI-QTOF
Ms type: MS2
Ion mode: POSITIVE
Collision energy: 90
Fragmentation mode: CID
Ionization: ESI
Column name: Zorbax Eclipse Plus C18 2.1 mm x 150 mm, 3.5 um, Agilent
Retention time: 8.389 min
Precursor m/z: 360.1565
Precursor type: [M+H]+
m/z	relative intensity
45.042	32
58.0153	144
58.0378	13
58.0496	13
60.0284	46
67.0336	42
73.032	75
85.0226	561
85.0638	23
87.0378	216
112.0313	394
112.0623	16
113.0153	999
113.0469	16
113.0571	16
130.0414	433
156.0223	19
