Mass spectrum: Mitomycin A; LC-ESI-QTOF; MS2; 140 V
Name: Mitomycin A
Class: Pharmaceutical
Formula: C16H19N3O6
Exact mass: 349.1274
SMILES: COC1=C(C)C(=O)C2=C([C@H](COC(N)=O)[C@]3(OC)[C@@H]4N[C@@H]4CN23)C1=O
InChI: InChI=1S/C16H19N3O6/c1-6-11(20)10-9(12(21)13(6)23-2)7(5-25-15(17)22)16(24-3)14-8(18-14)4-19(10)16/h7-8,14,18H,4-5H2,1-3H3,(H2,17,22)/t7-,8+,14+,16-/m0/s1
Instrument: TripleTOF 5600 SCIEX
Instrument type: LC-ESI-QTOF
Ms type: MS2
Ion mode: POSITIVE
Collision energy: 140
Fragmentation mode: CID
Ionization: ESI
Column name: Zorbax Eclipse Plus C18 2.1 mm x 150 mm, 3.5 um, Agilent
Retention time: 7.046 min
Precursor m/z: 350.1347
Precursor type: [M+H]+
m/z	relative intensity
63.0392	64
65.0419	354
74.0169	96
74.0279	75
75.0258	214
75.0433	42
76.0224	75
76.0322	107
77.0408	999
78.04	322
79.0497	139
81.0434	53
87.0266	53
88.0253	85
89.0402	644
89.0607	75
90.036	42
90.0465	64
91.0541	171
92.0517	75
101.0383	161
102.0335	64
102.0437	85
102.0579	75
103.0545	96
104.0506	236
105.0445	107
113.0374	150
114.0316	53
114.0456	75
115.0531	333
116.0482	64
117.0575	214
126.046	53
127.0543	42
128.0511	171
129.0436	64
130.0643	85
131.0614	75
140.0498	107
141.0578	128
142.0634	42
155.0601	300
156.0668	96
168.0661	42
