Mass spectrum: Mitomycin A; LC-ESI-QTOF; MS2; 30 V
Name: Mitomycin A
Class: Pharmaceutical
Formula: C16H19N3O6
Exact mass: 349.1274
SMILES: COC1=C(C)C(=O)C2=C([C@H](COC(N)=O)[C@]3(OC)[C@@H]4N[C@@H]4CN23)C1=O
InChI: InChI=1S/C16H19N3O6/c1-6-11(20)10-9(12(21)13(6)23-2)7(5-25-15(17)22)16(24-3)14-8(18-14)4-19(10)16/h7-8,14,18H,4-5H2,1-3H3,(H2,17,22)/t7-,8+,14+,16-/m0/s1
Instrument: TripleTOF 5600 SCIEX
Instrument type: LC-ESI-QTOF
Ms type: MS2
Ion mode: POSITIVE
Collision energy: 30
Fragmentation mode: CID
Ionization: ESI
Column name: Zorbax Eclipse Plus C18 2.1 mm x 150 mm, 3.5 um, Agilent
Retention time: 7.046 min
Precursor m/z: 350.1347
Precursor type: [M+H]+
m/z	relative intensity
156.0666	10
157.0757	10
199.0857	89
201.1022	15
211.086	26
213.0654	12
214.0731	107
216.0888	17
218.0818	12
227.0808	212
228.0894	640
229.0967	573
230.0811	21
239.082	30
242.0695	143
244.0842	67
245.0908	10
246.0744	16
255.0769	999
256.0813	14
257.0919	620
259.106	80
260.09	18
289.119	35
