Mass spectrum: Terbinafine; LC-ESI-QTOF; MS2; 140 V
Name: Terbinafine
Class: Pharmaceutical; Fungicide
Formula: C21H25N
Exact mass: 291.1987
SMILES: CC(C)(C)C#C/C=C/CN(C)CC1=CC=CC2=CC=CC=C21
InChI: InChI=1S/C21H25N/c1-21(2,3)15-8-5-9-16-22(4)17-19-13-10-12-18-11-6-7-14-20(18)19/h5-7,9-14H,16-17H2,1-4H3/b9-5+
Instrument: TripleTOF 5600 SCIEX
Instrument type: LC-ESI-QTOF
Ms type: MS2
Ion mode: POSITIVE
Collision energy: 140
Fragmentation mode: CID
Ionization: ESI
Column name: Zorbax Eclipse Plus C18 2.1 mm x 150 mm, 3.5 um, Agilent
Retention time: 9.655 min
Precursor m/z: 292.206
Precursor type: [M+H]+
m/z	relative intensity
52.0355	10
60.0038	17
65.0433	515
74.0185	133
75.0254	81
76.0327	59
77.0412	205
78.0485	19
79.0567	14
85.009	18
86.0169	64
87.0246	100
88.0311	35
89.0409	854
91.0559	167
98.0152	24
102.0467	40
113.0387	70
114.0463	50
115.0548	999
137.0385	10
138.0472	17
139.0543	168
