Mass spectrum: Quinoline; LC-ESI-QTOF; MS2; 50 V
Name: Quinoline
Formula: C9H7N
Exact mass: 129.0578
SMILES: C1=CC=C2C(=C1)C=CC=N2
InChI: InChI=1S/C9H7N/c1-2-6-9-8(4-1)5-3-7-10-9/h1-7H
Instrument: TripleTOF X500R SCIEX
Instrument type: LC-ESI-QTOF
Ms type: MS2
Ion mode: POSITIVE
Collision energy: 50
Fragmentation mode: CID
Ionization: ESI
Column name: Zorbax Eclipse Plus C18 2.1 mm x 150 mm, 3.5 um, Agilent
Retention time: 4.58 min
Precursor m/z: 130.0651
Precursor type: [M+H]+
m/z	relative intensity
39.023	12
49.0071	11
50.0151	225
51.0224	841
53.0384	13
62.0145	17
63.023	59
74.0149	24
75.023	115
76.0306	33
77.0378	999
78.0345	21
101.0386	120
102.0463	427
103.0541	683
105.0449	21
128.0494	169
129.0525	30
130.065	556
