Mass spectrum: Tribenzylphosphine oxide; LC-ESI-QTOF; MS2; 100 V
Name: Tribenzylphosphine oxide
Class: Industrial_process
Formula: C21H21OP
Exact mass: 320.133
SMILES: C1=CC=C(C=C1)CP(=O)(CC2=CC=CC=C2)CC3=CC=CC=C3
InChI: InChI=1S/C21H21OP/c22-23(16-19-10-4-1-5-11-19,17-20-12-6-2-7-13-20)18-21-14-8-3-9-15-21/h1-15H,16-18H2
Instrument: TripleTOF 5600 SCIEX
Instrument type: LC-ESI-QTOF
Ms type: MS2
Ion mode: POSITIVE
Collision energy: 100
Fragmentation mode: CID
Ionization: ESI
Column name: Zorbax Eclipse Plus C18 2.1 mm x 150 mm, 3.5 um, Agilent
Retention time: 11.644 min
Precursor m/z: 321.1403
Precursor type: [M+H]+
m/z	relative intensity
51.0345	14
63.0309	39
65.0471	682
77.0451	29
91.0598	999
121.0233	18
165.0724	43
