Mass spectrum: Enrofloxacin; LC-ESI-QTOF; MS2; 50 V
Name: Enrofloxacin
Class: Pharmaceutical; Antimicrobial
Formula: C19H22FN3O3
Exact mass: 359.1645
SMILES: CCN1CCN(CC1)c2cc3N(C=C(C(O)=O)C(=O)c3cc2F)C4CC4
InChI: InChI=1S/C19H22FN3O3/c1-2-21-5-7-22(8-6-21)17-10-16-13(9-15(17)20)18(24)14(19(25)26)11-23(16)12-3-4-12/h9-12H,2-8H2,1H3,(H,25,26)
Instrument: TripleTOF 5600 SCIEX
Instrument type: LC-ESI-QTOF
Ms type: MS2
Ion mode: POSITIVE
Collision energy: 50
Fragmentation mode: CID
Ionization: ESI
Column name: Zorbax Eclipse Plus C18 2.1 mm x 150 mm, 3.5 um, Agilent
Retention time: 5.696 min
Precursor m/z: 360.1718
Precursor type: [M+H]+
m/z	relative intensity
42.043	9
56.0548	11
70.0684	97
72.084	60
72.0971	12
84.0834	174
86.0961	9
134.0416	14
135.0476	25
136.0566	34
148.0546	15
149.0582	11
154.0614	12
155.0687	12
156.0711	19
161.0622	12
163.0403	12
169.0774	23
171.0906	12
172.0561	23
174.0662	30
175.065	27
176.0508	12
176.0764	49
182.0838	11
184.0687	14
185.0663	22
186.069	12
187.0689	30
188.0515	27
188.0787	12
189.0469	100
189.0839	23
190.0556	30
191.0581	12
196.0802	11
200.0467	11
200.0797	9
201.0562	9
201.0818	25
202.0297	27
202.0662	36
203.0378	28
203.0611	229
204.0694	139
205.0783	34
209.106	15
210.0425	23
210.1118	11
215.0255	93
215.0619	20
215.0947	12
216.0367	28
216.0685	54
217.0407	211
217.0743	12
217.0873	12
217.1112	19
218.048	17
223.1189	14
224.0569	22
225.0694	20
225.0954	15
227.1001	22
229.0395	19
229.0768	69
230.0471	39
230.0801	17
231.0562	36
231.0927	49
238.0688	14
238.1392	11
243.0566	289
245.0781	31
245.1076	359
257.0698	12
257.1056	25
257.1203	9
258.0674	197
266.0946	22
266.1303	30
266.1659	14
270.0984	11
271.0754	152
285.1279	33
286.0993	999
294.1232	12
294.1549	12
300.1157	133
301.1231	14
314.1275	15
314.1654	15
316.1784	17
322.1543	11
342.1616	617
