Mass spectrum: Fluazifop-P-butyl; LC-ESI-QTOF; MS2; 60 V
Name: Fluazifop-P-butyl
Class: Herbicide
Formula: C19H20F3NO4
Exact mass: 383.1344
SMILES: CCCCOC(=O)C(C)OC1=CC=C(C=C1)OC2=NC=C(C=C2)C(F)(F)F
InChI: InChI=1S/C19H20F3NO4/c1-3-4-11-25-18(24)13(2)26-15-6-8-16(9-7-15)27-17-10-5-14(12-23-17)19(20,21)22/h5-10,12-13H,3-4,11H2,1-2H3
Instrument: TripleTOF 6600 SCIEX
Instrument type: LC-ESI-QTOF
Ms type: MS2
Ion mode: POSITIVE
Collision energy: 60
Fragmentation mode: CID
Ionization: ESI
Column name: Zorbax Eclipse Plus C18 2.1 mm x 150 mm, 3.5 um, Agilent
Retention time: 15.933 min
Precursor m/z: 384.1417
Precursor type: [M+H]+
m/z	relative intensity
39.023	34
41.0389	53
57.0698	16
65.0384	152
75.022	12
77.0376	12
91.054	656
93.0331	32
119.0482	37
121.0278	19
126.0142	23
127.022	13
130.0641	13
131.0484	25
140.0501	12
141.0565	116
146.0203	144
147.0283	122
158.0594	42
163.035	12
164.0312	81
167.0725	25
168.0438	28
169.0513	35
170.0396	14
180.0369	19
184.0359	10
185.0444	24
186.0517	14
188.0497	21
190.0455	73
198.0509	76
199.0581	11
200.0356	12
207.0466	18
208.0569	11
209.0441	31
210.0512	36
211.0594	42
212.0696	15
216.0615	12
218.0406	161
226.0487	44
226.0833	20
227.0547	294
235.0597	29
236.0671	22
238.0471	999
239.0521	10
254.0433	603
255.0504	19
256.0572	60
264.0618	11
282.072	33
