Mass spectrum: 1,4-Dihydroxyanthraquinone; LC-ESI-QTOF; MS2; 20 V
Name: 1,4-Dihydroxyanthraquinone
Formula: C14H8O4
Exact mass: 240.0423
SMILES: C1=CC=C2C(=C1)C(=O)C3=C(C=CC(=C3C2=O)O)O
InChI: InChI=1S/C14H8O4/c15-9-5-6-10(16)12-11(9)13(17)7-3-1-2-4-8(7)14(12)18/h1-6,15-16H
Instrument: TripleTOF X500R SCIEX
Instrument type: LC-ESI-QTOF
Ms type: MS2
Ion mode: POSITIVE
Collision energy: 20
Fragmentation mode: CID
Ionization: ESI
Column name: Zorbax Eclipse Plus C18 2.1 mm x 150 mm, 3.5 um, Agilent
Retention time: 13.708 min
Precursor m/z: 241.0496
Precursor type: [M+H]+
m/z	relative intensity
157.066	10
185.0597	34
213.0553	27
241.0495	999
