Mass spectrum: Dronabinol; LC-ESI-QTOF; MS2; 110 V
Name: Dronabinol
Class: Pharmaceutical
Formula: C21H30O2
Exact mass: 314.2246
SMILES: CCCCCC1=CC(=C2C3C=C(CCC3C(OC2=C1)(C)C)C)O
InChI: InChI=1S/C21H30O2/c1-5-6-7-8-15-12-18(22)20-16-11-14(2)9-10-17(16)21(3,4)23-19(20)13-15/h11-13,16-17,22H,5-10H2,1-4H3
Instrument: TripleTOF 6600 SCIEX
Instrument type: LC-ESI-QTOF
Ms type: MS2
Ion mode: POSITIVE
Collision energy: 110
Fragmentation mode: CID
Ionization: ESI
Column name: Zorbax Eclipse Plus C18 2.1 mm x 150 mm, 3.5 um, Agilent
Retention time: 17.589 min
Precursor m/z: 315.2319
Precursor type: [M+H]+
m/z	relative intensity
35.9993	29
37.0068	117
38.0025	19
38.0146	124
39.0225	874
41.038	561
43.0173	26
43.0535	16
50.0143	107
51.022	319
53.0377	75
55.0172	48
55.0535	42
62.0141	16
63.0208	42
65.0374	333
66.0443	22
67.0525	55
75.0208	16
76.0307	16
77.0376	999
78.0453	78
79.0528	238
81.0698	19
89.0378	101
91.0532	378
94.0372	16
95.0491	19
102.0466	48
103.0528	84
105.0452	16
105.0698	39
107.0471	84
115.0518	411
116.0583	16
117.0684	29
126.0452	13
127.0525	65
128.0611	150
129.069	26
131.0471	45
139.053	39
141.0689	22
147.0382	19
151.051	13
152.0594	62
163.0521	16
165.0711	22
