Mass spectrum: Antipyrine; LC-ESI-QTOF; MS2; 140 V
Name: Antipyrine
Class: Pharmaceutical
Formula: C11H12N2O
Exact mass: 188.095
SMILES: CN1N(C(=O)C=C1C)c2ccccc2
InChI: InChI=1S/C11H12N2O/c1-9-8-11(14)13(12(9)2)10-6-4-3-5-7-10/h3-8H,1-2H3
Instrument: TripleTOF 5600 SCIEX
Instrument type: LC-ESI-QTOF
Ms type: MS2
Ion mode: POSITIVE
Collision energy: 140
Fragmentation mode: CID
Ionization: ESI
Column name: Zorbax Eclipse Plus C18 2.1 mm x 150 mm, 3.5 um, Agilent
Retention time: 6.261 min
Precursor m/z: 189.1022
Precursor type: [M+H]+
m/z	relative intensity
51.0285	999
56.0541	137
73.0084	117
74.0165	470
