Mass spectrum: Metobromuron; LC-ESI-QTOF; MS2; 110 V
Name: Metobromuron
Class: Herbicide
Formula: C9H11BrN2O2
Exact mass: 258.0004
SMILES: CN(C(=O)NC1=CC=C(C=C1)Br)OC
InChI: InChI=1S/C9H11BrN2O2/c1-12(14-2)9(13)11-8-5-3-7(10)4-6-8/h3-6H,1-2H3,(H,11,13)
Instrument: TripleTOF 6600 SCIEX
Instrument type: LC-ESI-QTOF
Ms type: MS2
Ion mode: POSITIVE
Collision energy: 110
Fragmentation mode: CID
Ionization: ESI
Column name: Zorbax Eclipse Plus C18 2.1 mm x 150 mm, 3.5 um, Agilent
Retention time: 10.623 min
Precursor m/z: 259.0077
Precursor type: [M+H]+
m/z	relative intensity
37.0047	154
38.0127	239
39.0205	393
50.012	98
51.0206	98
52.0155	154
59.9971	56
61.0041	225
62.0122	337
63.0199	999
64.0276	98
65.0355	309
74.0119	84
77.0359	56
91.038	98
92.0462	70
92.9296	98
116.9297	295
