Mass spectrum: 4,4`-Methylenebis(2-methylaniline); LC-ESI-QTOF; MS2; 70 V
Name: 4,4`-Methylenebis(2-methylaniline)
Formula: C15H18N2
Exact mass: 226.147
SMILES: CC1=C(C=CC(=C1)CC2=CC(=C(C=C2)N)C)N
InChI: InChI=1S/C15H18N2/c1-10-7-12(3-5-14(10)16)9-13-4-6-15(17)11(2)8-13/h3-8H,9,16-17H2,1-2H3
Instrument: TripleTOF 6600 SCIEX
Instrument type: LC-ESI-QTOF
Ms type: MS2
Ion mode: POSITIVE
Collision energy: 70
Fragmentation mode: CID
Ionization: ESI
Column name: Zorbax Eclipse Plus C18 2.1 mm x 150 mm, 3.5 um, Agilent
Retention time: 5.215 min
Precursor m/z: 227.1543
Precursor type: [M+H]+
m/z	relative intensity
42.0334	14
50.0143	11
51.0223	86
53.0377	14
65.0372	68
77.0374	999
78.0451	32
79.0514	29
80.0479	74
89.0394	35
91.0521	381
92.0481	20
92.0577	11
93.0549	104
93.0687	41
94.0639	14
102.0449	26
103.0523	143
104.0474	140
105.0461	14
105.056	53
106.0645	23
115.0539	53
117.0545	32
118.0613	131
119.071	71
120.079	873
126.0456	14
127.0505	32
128.0594	101
130.0621	17
139.0535	26
140.0491	11
150.0424	14
151.0511	164
152.0608	602
153.0678	104
163.0527	47
165.0679	187
166.0738	29
167.0755	38
168.0763	20
176.0614	155
177.0693	77
178.0554	14
178.076	95
179.0684	38
180.0802	68
181.0793	17
189.0682	23
191.0701	29
192.0796	23
193.0858	101
194.085	11
195.0951	20
196.0959	47
