Mass spectrum: Nitrazepam; LC-ESI-QTOF; MS2; 140 V
Name: Nitrazepam
Class: Pharmaceutical
Formula: C15H11N3O3
Exact mass: 281.08
SMILES: C1C(=O)NC2=C(C=C(C=C2)[N+](=O)[O-])C(=N1)C3=CC=CC=C3
InChI: InChI=1S/C15H11N3O3/c19-14-9-16-15(10-4-2-1-3-5-10)12-8-11(18(20)21)6-7-13(12)17-14/h1-8H,9H2,(H,17,19)
Instrument: TripleTOF 6600 SCIEX
Instrument type: LC-ESI-QTOF
Ms type: MS2
Ion mode: POSITIVE
Collision energy: 140
Fragmentation mode: CID
Ionization: ESI
Column name: Zorbax Eclipse Plus C18 2.1 mm x 150 mm, 3.5 um, Agilent
Retention time: 9.435 min
Precursor m/z: 282.0873
Precursor type: [M+H]+
m/z	relative intensity
35.9995	18
37.0065	65
38.015	39
39.0226	169
49.0062	67
50.0147	554
51.0225	658
52.0171	52
52.0303	31
59.999	39
61.0057	213
62.0141	254
63.0221	426
64.0166	39
65.0375	57
73.006	117
74.0142	835
75.0089	39
75.0217	478
76.0163	41
76.0296	288
77.0375	481
78.0449	65
83.9978	26
85.0059	156
86.0135	301
87.0086	13
87.0215	299
88.0163	26
88.0286	57
89.0381	228
90.0476	13
97.0059	44
98.0137	541
99.0079	26
99.0213	267
100.0158	18
100.0289	65
101.038	67
102.0448	145
109.0043	62
110.0138	163
111.0203	122
112.0164	15
112.0321	10
113.0369	184
114.0307	18
114.0424	20
115.0549	52
121.0063	20
122.0161	109
123.0086	15
123.0214	54
124.0312	39
125.037	145
126.0449	333
127.052	98
128.0597	23
129.0423	20
134.014	26
137.0364	93
138.0425	33
139.0534	80
140.0476	39
149.0371	119
150.0458	999
151.0529	437
152.0604	187
153.0548	13
161.0381	130
162.0447	114
163.0528	182
164.0486	46
164.0648	15
175.0397	33
176.0468	20
176.0565	15
177.0533	96
178.0651	13
187.0426	26
188.0492	49
189.0575	18
