Mass spectrum: Carbaryl; LC-ESI-QTOF; MS2; 100 V
Name: Carbaryl
Class: Insecticide
Formula: C12H11NO2
Exact mass: 201.079
SMILES: CNC(=O)Oc1cccc2ccccc12
InChI: InChI=1S/C12H11NO2/c1-13-12(14)15-11-8-4-6-9-5-2-3-7-10(9)11/h2-8H,1H3,(H,13,14)
Instrument: TripleTOF 5600 SCIEX
Instrument type: LC-ESI-QTOF
Ms type: MS2
Ion mode: POSITIVE
Collision energy: 100
Fragmentation mode: CID
Ionization: ESI
Column name: Zorbax Eclipse Plus C18 2.1 mm x 150 mm, 3.5 um, Agilent
Retention time: 10.147 min
Precursor m/z: 202.0863
Precursor type: [M+H]+
m/z	relative intensity
51.0285	999
58.0326	108
65.0416	586
73.0095	108
74.0173	999
75.0244	846
76.0313	86
77.0397	597
85.0081	76
86.0163	162
87.0248	130
89.0387	477
91.0548	249
91.0832	54
98.0152	173
101.0388	76
115.0533	618
126.0446	195
