Mass spectrum: Azo Rubin S; LC-ESI-QTOF; MS2; 120 V
Name: Azo Rubin S
Formula: C20H14N2O7S2
Exact mass: 458.0242
SMILES: C1=CC=C2C(=C1)C(=CC=C2S(=O)(=O)O)N=NC3=C(C4=CC=CC=C4C(=C3)S(=O)(=O)O)O
InChI: InChI=1S/C20H14N2O7S2/c23-20-15-8-4-3-7-14(15)19(31(27,28)29)11-17(20)22-21-16-9-10-18(30(24,25)26)13-6-2-1-5-12(13)16/h1-11,23H,(H,24,25,26)(H,27,28,29)
Instrument: TripleTOF 6600 SCIEX
Instrument type: LC-ESI-QTOF
Ms type: MS2
Ion mode: POSITIVE
Collision energy: 120
Fragmentation mode: CID
Ionization: ESI
Column name: Zorbax Eclipse Plus C18 2.1 mm x 150 mm, 3.5 um, Agilent
Retention time: 7.286 min
Precursor m/z: 459.0315
Precursor type: [M+H]+
m/z	relative intensity
51.0227	59
52.0181	141
63.0224	67
64.9691	40
65.0381	25
74.0152	14
75.0224	36
76.0301	15
77.0383	999
80.0125	99
88.0299	20
89.038	399
90.0344	14
91.0526	16
99.0222	9
100.0189	28
101.0374	32
102.0455	115
103.0536	870
104.0491	85
105.0434	22
113.038	72
114.0457	51
115.0537	931
116.0492	255
126.0363	11
126.0478	14
127.0547	12
128.0479	19
129.0459	16
130.0646	624
140.0484	225
142.0633	23
143.071	14
158.0593	23
213.069	14
224.0633	24
225.0666	14
226.0709	14
238.0653	27
239.0712	16
240.0834	27
249.0566	22
250.0632	18
251.0739	63
265.0723	45
266.0846	46
277.0762	24
278.0871	26
279.0891	19
