Mass spectrum: 2-Hydroxy-n-methyl-n-phenylpropanamide; LC-ESI-QTOF; MS2; 70 V
Name: 2-Hydroxy-n-methyl-n-phenylpropanamide
Formula: C10H13NO2
Exact mass: 179.0946
SMILES: CC(C(=O)N(C)C1=CC=CC=C1)O
InChI: InChI=1S/C10H13NO2/c1-8(12)10(13)11(2)9-6-4-3-5-7-9/h3-8,12H,1-2H3
Instrument: TripleTOF 5600 SCIEX
Instrument type: LC-ESI-QTOF
Ms type: MS2
Ion mode: POSITIVE
Collision energy: 70
Fragmentation mode: CID
Ionization: ESI
Column name: Zorbax Eclipse Plus C18 2.1 mm x 150 mm, 3.5 um, Agilent
Retention time: 6.763 min
Precursor m/z: 180.1019
Precursor type: [M+H]+
m/z	relative intensity
39.0231	42
42.0344	10
45.0337	44
49.0076	12
50.0149	111
51.023	558
52.0302	14
56.0505	24
63.0228	20
65.0385	190
66.0466	82
77.0387	999
78.0465	42
79.0543	48
89.0385	26
90.0478	24
91.0541	343
92.0485	38
93.0571	151
102.0459	10
103.0545	36
104.0489	88
105.0718	10
106.0657	139
117.0572	84
118.0646	133
132.084	12
