Mass spectrum: Iobitridol; LC-ESI-QTOF; MS2; 60 V
Name: Iobitridol
Class: Pharmaceutical
Formula: C20H28I3N3O9
Exact mass: 834.896
SMILES: CN(CC(O)CO)C(=O)c1c(I)c(NC(=O)C(CO)CO)c(I)c(c1I)C(=O)N(C)CC(O)CO
InChI: InChI=1S/C20H28I3N3O9/c1-25(3-10(31)7-29)19(34)12-14(21)13(20(35)26(2)4-11(32)8-30)16(23)17(15(12)22)24-18(33)9(5-27)6-28/h9-11,27-32H,3-8H2,1-2H3,(H,24,33)
Instrument: TripleTOF 5600 SCIEX
Instrument type: LC-ESI-QTOF
Ms type: MS2
Ion mode: POSITIVE
Collision energy: 60
Fragmentation mode: CID
Ionization: ESI
Column name: Zorbax Eclipse Plus C18 2.1 mm x 150 mm, 3.5 um, Agilent
Retention time: 4.58 min
Precursor m/z: 835.9032
Precursor type: [M+H]+
m/z	relative intensity
275.0989	31
321.1065	52
339.9087	52
343.9455	47
344.9501	21
345.9563	21
369.917	42
387.9299	78
400.9983	247
413.8096	57
416.9958	31
426.9839	73
431.0082	84
439.7913	52
449.0207	141
456.9845	36
467.8238	36
470.8388	57
474.995	178
477.0139	47
481.84	26
497.8329	289
499.8471	47
500.8885	42
515.8362	52
515.8583	26
554.8895	315
557.9172	26
575.9235	31
584.8991	205
602.9097	999
625.7443	63
628.7767	52
628.7969	73
641.9622	36
671.9808	36
689.9697	73
