Mass spectrum: Dronabinol; LC-ESI-QTOF; MS2; 140 V
Name: Dronabinol
Class: Pharmaceutical
Formula: C21H30O2
Exact mass: 314.2246
SMILES: CCCCCC1=CC(=C2C3C=C(CCC3C(OC2=C1)(C)C)C)O
InChI: InChI=1S/C21H30O2/c1-5-6-7-8-15-12-18(22)20-16-11-14(2)9-10-17(16)21(3,4)23-19(20)13-15/h11-13,16-17,22H,5-10H2,1-4H3
Instrument: TripleTOF 6600 SCIEX
Instrument type: LC-ESI-QTOF
Ms type: MS2
Ion mode: POSITIVE
Collision energy: 140
Fragmentation mode: CID
Ionization: ESI
Column name: Zorbax Eclipse Plus C18 2.1 mm x 150 mm, 3.5 um, Agilent
Retention time: 17.589 min
Precursor m/z: 315.2319
Precursor type: [M+H]+
m/z	relative intensity
35.9995	37
37.0067	283
38.0022	27
38.0145	236
39.0226	999
41.0381	223
43.0178	18
49.0068	18
50.0143	213
51.0225	469
53.0399	23
62.0148	41
63.0219	88
65.0381	218
74.0146	32
75.0214	27
76.0301	27
77.0373	487
78.0459	46
79.0543	46
89.0374	92
91.0538	130
102.0448	46
115.054	195
126.0456	27
127.0522	27
128.0614	69
139.0526	46
151.0535	18
152.0614	51
155.0585	18
