Mass spectrum: Reserpine; LC-ESI-QTOF; MS2; 80 V
Name: Reserpine
Class: Natural_product; Pharmaceutical
Formula: C33H40N2O9
Exact mass: 608.2734
SMILES: COC1C(CC2CN3CCC4=C(C3CC2C1C(=O)OC)NC5=C4C=CC(=C5)OC)OC(=O)C6=CC(=C(C(=C6)OC)OC)OC
InChI: InChI=1S/C33H40N2O9/c1-38-19-7-8-20-21-9-10-35-16-18-13-27(44-32(36)17-11-25(39-2)30(41-4)26(12-17)40-3)31(42-5)28(33(37)43-6)22(18)15-24(35)29(21)34-23(20)14-19/h7-8,11-12,14,18,22,24,27-28,31,34H,9-10,13,15-16H2,1-6H3
Instrument: TripleTOF 5600 SCIEX
Instrument type: LC-ESI-QTOF
Ms type: MS2
Ion mode: POSITIVE
Collision energy: 80
Fragmentation mode: CID
Ionization: ESI
Column name: Zorbax Eclipse Plus C18 2.1 mm x 150 mm, 3.5 um, Agilent
Retention time: 8.6 min
Precursor m/z: 609.2807
Precursor type: [M+H]+
m/z	relative intensity
77.044	36
79.0594	41
81.0386	30
81.0749	17
91.0582	45
94.0471	13
94.0695	20
95.0532	14
96.0611	37
103.0576	15
104.0593	10
105.0715	15
106.0671	11
107.0513	15
108.0598	22
109.0305	14
109.0678	60
111.0469	18
111.0837	12
113.0639	12
115.0567	57
116.0641	15
117.0674	53
118.0681	25
120.0824	16
121.0302	19
121.067	20
122.0388	53
124.0546	91
128.0636	12
129.0713	19
130.0678	116
131.0749	249
132.0828	50
133.0595	17
134.0388	15
136.077	11
137.0257	35
139.0773	152
142.066	47
143.0745	208
144.0597	10
144.0827	69
145.0593	21
145.0878	17
146.0619	30
146.0978	12
147.0804	58
148.0771	36
149.0612	16
151.0402	41
152.0483	275
154.0656	18
155.074	11
156.0828	14
157.0901	14
158.0622	44
159.0692	465
160.077	120
161.0842	40
162.0926	18
167.0717	191
168.0812	17
169.0882	14
170.0608	21
172.0749	35
173.0849	68
174.0923	999
181.0886	12
183.0678	14
184.0744	39
185.0841	36
186.0903	66
187.0991	27
188.1075	40
190.0883	11
192.1025	36
193.0865	11
195.0658	752
196.0765	13
197.0816	23
198.0921	40
199.0911	49
200.1064	44
201.1026	16
204.0989	27
205.0868	10
206.0946	11
208.076	13
209.0839	10
210.0931	37
211.0991	21
212.1004	31
213.1014	17
214.1101	15
215.1187	13
217.0872	12
218.0971	13
219.1037	14
221.0819	15
222.0894	31
223.0967	32
224.1065	52
226.1198	12
227.1166	29
231.103	12
232.0755	10
233.085	15
234.0922	27
235.0977	23
236.1024	40
236.1253	16
237.1077	38
238.117	46
239.1206	25
244.1129	11
246.092	30
247.1	28
248.1057	45
249.1062	41
250.1164	47
251.1165	88
252.1308	11
253.1341	22
258.0908	10
260.1046	38
261.1128	46
262.1203	55
263.1198	16
264.1267	19
265.1311	52
272.1052	11
273.1158	18
274.1221	37
275.1145	18
276.1379	43
277.1359	20
288.1014	12
288.1416	19
289.1104	16
290.115	11
291.1508	18
304.1331	13
305.164	18
322.1673	11
350.1605	26
365.1855	29
