Mass spectrum: Disperse brown 1; LC-ESI-QTOF; MS2; 80 V
Name: Disperse brown 1
Formula: C16H15Cl3N4O4
Exact mass: 432.0159
SMILES: C1=CC(=C(C=C1N(CCO)CCO)Cl)N=NC2=C(C=C(C=C2Cl)[N+](=O)[O-])Cl
InChI: InChI=1S/C16H15Cl3N4O4/c17-12-7-10(22(3-5-24)4-6-25)1-2-15(12)20-21-16-13(18)8-11(23(26)27)9-14(16)19/h1-2,7-9,24-25H,3-6H2
Instrument: TripleTOF 6600 SCIEX
Instrument type: LC-ESI-QTOF
Ms type: MS2
Ion mode: POSITIVE
Collision energy: 80
Fragmentation mode: CID
Ionization: ESI
Column name: Zorbax Eclipse Plus C18 2.1 mm x 150 mm, 3.5 um, Agilent
Retention time: 12.39 min
Precursor m/z: 433.0232
Precursor type: [M+H]+
m/z	relative intensity
45.034	89
74.0149	32
76.0175	32
77.0391	81
78.0332	32
89.039	32
90.033	121
91.041	32
91.0536	56
92.0497	40
96.9841	73
98.9995	89
103.0307	81
104.049	146
105.0453	40
105.057	73
106.065	48
106.9468	40
107.9766	89
108.9838	259
110.9971	40
111.9953	73
114.0091	81
116.0484	32
117.0445	154
117.0557	170
118.052	97
118.0639	186
119.0606	97
123.9941	251
125.002	64
126.0104	170
130.0636	64
131.0612	81
132.0663	40
133.0755	81
138.0106	89
139.0074	170
139.0195	113
140.0253	105
142.944	227
143.0615	81
143.9524	999
144.0666	40
144.9487	48
145.0777	56
152.0178	138
153.0211	739
158.0395	32
159.95	48
171.9594	81
183.0457	56
213.0236	73
247.997	48
296.9833	32
310.9856	162
