Mass spectrum: Oseltamivir carboxylic acid; LC-ESI-QTOF; MS2; 30 V
Name: Oseltamivir carboxylic acid
Class: Pharmaceutical; Metabolite; Transformation_product
Formula: C14H24N2O4
Exact mass: 284.1736
SMILES: CCC(CC)O[C@@H]1C=C(C[C@H](N)[C@H]1NC(C)=O)C(O)=O
InChI: InChI=1S/C14H24N2O4/c1-4-10(5-2)20-12-7-9(14(18)19)6-11(15)13(12)16-8(3)17/h7,10-13H,4-6,15H2,1-3H3,(H,16,17)(H,18,19)/t11-,12+,13+/m0/s1
Instrument: TripleTOF 5600 SCIEX
Instrument type: LC-ESI-QTOF
Ms type: MS2
Ion mode: NEGATIVE
Collision energy: 30
Fragmentation mode: CID
Ionization: ESI
Column name: Zorbax Eclipse Plus C18 2.1 mm x 150 mm, 3.5 um, Agilent
Retention time: 5.65 min
Precursor m/z: 283.1663
Precursor type: [M-H]-
m/z	relative intensity
42.0022	59
58.0322	417
66.0363	96
85.0657	96
92.0294	64
92.0515	999
109.0777	178
110.0614	155
134.0618	329
136.0416	769
137.0251	192
149.0732	77
151.0884	572
163.1137	224
178.0524	242
195.0785	219
207.1041	435
224.1291	54
