Mass spectrum: Cocaethylene; LC-ESI-QTOF; MS2; 40 V
Name: Cocaethylene
Class: Metabolite
Formula: C18H23NO4
Exact mass: 317.1627
SMILES: CCOC(=O)C1C2CCC(N2C)CC1OC(=O)C3=CC=CC=C3
InChI: InChI=1S/C18H23NO4/c1-3-22-18(21)16-14-10-9-13(19(14)2)11-15(16)23-17(20)12-7-5-4-6-8-12/h4-8,13-16H,3,9-11H2,1-2H3
Instrument: TripleTOF 6600 SCIEX
Instrument type: LC-ESI-QTOF
Ms type: MS2
Ion mode: POSITIVE
Collision energy: 40
Fragmentation mode: CID
Ionization: ESI
Column name: Zorbax Eclipse Plus C18 2.1 mm x 150 mm, 3.5 um, Agilent
Retention time: 7.013 min
Precursor m/z: 318.17
Precursor type: [M+H]+
m/z	relative intensity
44.0509	20
65.0397	19
67.043	17
67.055	78
68.0504	32
70.0659	13
77.04	165
79.0553	12
80.0499	11
81.0706	12
82.0666	910
83.0507	22
83.0737	47
91.0555	199
93.0348	17
93.0704	37
94.0657	35
96.0815	24
105.0348	365
107.0734	11
108.0817	167
111.0449	41
119.0499	161
122.0973	111
132.0812	10
135.0677	16
140.0717	21
150.0922	179
168.1024	95
196.1344	999
318.1699	42
