Mass spectrum: Acebutolol; LC-ESI-QTOF; MS2; 70 V
Name: Acebutolol
Class: Pharmaceutical
Formula: C18H28N2O4
Exact mass: 336.2049
SMILES: CCCC(=O)Nc1ccc(OCC(O)CNC(C)C)c(c1)C(C)=O
InChI: InChI=1S/C18H28N2O4/c1-5-6-18(23)20-14-7-8-17(16(9-14)13(4)21)24-11-15(22)10-19-12(2)3/h7-9,12,15,19,22H,5-6,10-11H2,1-4H3,(H,20,23)
Instrument: TripleTOF 5600 SCIEX
Instrument type: LC-ESI-QTOF
Ms type: MS2
Ion mode: POSITIVE
Collision energy: 70
Fragmentation mode: CID
Ionization: ESI
Column name: Zorbax Eclipse Plus C18 2.1 mm x 150 mm, 3.5 um, Agilent
Retention time: 5.965 min
Precursor m/z: 337.2122
Precursor type: [M+H]+
m/z	relative intensity
43.025	23
44.0582	31
56.0563	999
57.0383	29
58.0704	103
65.0421	51
71.0529	18
72.0846	287
74.0635	388
77.0414	89
79.0577	36
80.053	17
91.057	50
92.0513	42
93.0341	47
93.0601	62
94.0669	56
98.0975	44
100.1138	33
103.0547	95
105.0723	29
106.0661	88
107.0746	20
108.0451	11
108.0818	17
109.053	34
110.0604	284
115.0544	64
116.1074	102
117.0569	37
118.0666	45
119.0734	29
120.0809	193
122.0598	44
122.0976	12
127.0544	26
130.0648	61
131.0512	12
131.072	14
132.0795	26
133.0527	55
134.0607	12
136.0403	25
136.0748	15
143.0717	20
144.0797	15
146.0606	26
147.0688	11
148.0761	36
151.0634	12
160.0772	39
180.1013	12
