Mass spectrum: Beclomethasone; LC-ESI-QTOF; MS2; 40 V
Name: Beclomethasone
Class: Pharmaceutical
Formula: C22H29ClO5
Exact mass: 408.1704
SMILES: CC1CC2C3CCC4=CC(=O)C=CC4(C3(C(CC2(C1(C(=O)CO)O)C)O)Cl)C
InChI: InChI=1S/C22H29ClO5/c1-12-8-16-15-5-4-13-9-14(25)6-7-19(13,2)21(15,23)17(26)10-20(16,3)22(12,28)18(27)11-24/h6-7,9,12,15-17,24,26,28H,4-5,8,10-11H2,1-3H3
Instrument: TripleTOF 5600 SCIEX
Instrument type: LC-ESI-QTOF
Ms type: MS2
Ion mode: POSITIVE
Collision energy: 40
Fragmentation mode: CID
Ionization: ESI
Column name: Zorbax Eclipse Plus C18 2.1 mm x 150 mm, 3.5 um, Agilent
Retention time: 9.326 min
Precursor m/z: 409.1776
Precursor type: [M+H]+
m/z	relative intensity
91.0532	195
95.0845	97
101.06	78
105.0703	156
107.0853	156
109.1018	78
115.0543	78
119.0841	215
121.0652	568
121.0983	78
135.0803	313
143.0856	97
145.0652	117
145.1017	156
146.0725	137
147.0795	999
151.0756	176
158.0771	97
159.0799	274
161.0969	235
171.0797	509
171.1152	78
173.0956	274
179.0843	117
185.0952	274
193.1002	156
195.0769	78
196.087	97
197.0951	215
205.1	78
207.063	97
208.0876	215
209.0992	372
210.1046	137
211.1104	293
215.0998	117
217.0984	78
219.1128	78
221.1007	215
222.103	137
223.1116	391
224.1157	293
233.0942	137
234.11	97
235.1102	333
236.1179	97
237.1278	489
239.1433	587
247.1112	97
248.1229	254
249.1229	372
253.1551	156
259.1102	137
261.125	156
261.1618	117
262.133	313
263.1427	646
264.1502	156
267.1419	117
274.1324	176
275.1135	78
275.1449	176
276.152	156
277.1158	78
277.1618	274
278.1535	97
278.169	176
279.1752	842
289.1488	78
289.1635	156
291.1747	293
295.1667	176
301.155	137
307.1656	274
319.1684	274
337.1782	254
355.1981	97
391.1647	685
