Mass spectrum: Cyclopropyldiphenylsulfonium; LC-ESI-QTOF; MS2; 130 V
Name: Cyclopropyldiphenylsulfonium
Formula: [C15H15S]+
Exact mass: 227.0889
SMILES: C1CC1[S+](C2=CC=CC=C2)C3=CC=CC=C3
InChI: InChI=1S/C15H15S/c1-3-7-13(8-4-1)16(15-11-12-15)14-9-5-2-6-10-14/h1-10,15H,11-12H2/q+1
Instrument: TripleTOF 5600 SCIEX
Instrument type: LC-ESI-QTOF
Ms type: MS2
Ion mode: POSITIVE
Collision energy: 130
Fragmentation mode: CID
Ionization: ESI
Column name: Zorbax Eclipse Plus C18 2.1 mm x 150 mm, 3.5 um, Agilent
Retention time: 5.55 min
Precursor m/z: 227.0889
Precursor type: [M]+
m/z	relative intensity
37.0075	94
38.0162	77
39.0233	215
49.0077	111
50.0153	999
51.0229	947
61.0068	77
62.0147	163
63.0227	318
65.0381	103
68.978	301
74.0143	258
75.0215	111
77.0373	120
86.0138	111
87.0205	103
89.0375	198
98.013	94
113.0397	60
115.0535	68
126.0445	51
139.0527	198
150.0476	111
151.0579	60
