Mass spectrum: Cortisone; LC-ESI-QTOF; MS2; 50 V
Name: Cortisone
Class: Pharmaceutical
Formula: C21H28O5
Exact mass: 360.1937
SMILES: C[C@]12CCC(=O)C=C1CC[C@H]3[C@@H]4CC[C@](O)(C(=O)CO)[C@@]4(C)CC(=O)[C@H]23
InChI: InChI=1S/C21H28O5/c1-19-7-5-13(23)9-12(19)3-4-14-15-6-8-21(26,17(25)11-22)20(15,2)10-16(24)18(14)19/h9,14-15,18,22,26H,3-8,10-11H2,1-2H3/t14-,15-,18+,19-,20-,21-/m0/s1
Instrument: TripleTOF 5600 SCIEX
Instrument type: LC-ESI-QTOF
Ms type: MS2
Ion mode: POSITIVE
Collision energy: 50
Fragmentation mode: CID
Ionization: ESI
Column name: Zorbax Eclipse Plus C18 2.1 mm x 150 mm, 3.5 um, Agilent
Retention time: 8.396 min
Precursor m/z: 361.201
Precursor type: [M+H]+
m/z	relative intensity
55.0245	15
67.0602	39
71.0577	12
77.0436	130
77.0684	12
79.0584	197
81.0338	12
81.0745	118
83.0528	106
83.0787	12
91.0575	268
93.0733	325
95.053	21
95.0882	79
97.068	207
103.0563	36
105.0725	542
105.1092	15
107.05	39
107.0603	21
107.0876	341
109.0674	54
115.0564	76
116.0654	18
117.0715	155
119.0507	15
119.0871	283
121.0667	533
121.1025	79
123.0813	103
127.0546	24
128.0637	60
129.0726	124
130.0802	70
131.0518	12
131.0872	167
132.0607	18
133.0671	73
133.1026	109
135.0827	112
135.1175	67
139.0776	24
141.0724	51
142.0797	45
143.0884	207
144.0587	12
144.0942	21
145.0695	45
145.1032	341
146.077	21
147.0825	134
147.1168	27
148.0901	173
149.099	39
151.0781	15
152.0649	12
153.0708	21
154.0806	27
155.0875	94
156.0976	45
157.0671	24
157.1041	115
158.0741	15
159.0824	82
159.1184	76
161.0621	21
161.0993	118
162.1104	15
163.0781	15
163.1147	999
163.153	18
165.0718	33
166.0812	24
167.088	60
168.0946	30
169.1045	143
171.0846	42
171.12	94
173.0987	73
173.1339	18
174.1056	39
175.1134	39
177.0903	27
178.0799	21
179.0882	54
180.0947	33
181.1037	88
182.1105	30
183.0822	21
183.1211	106
184.0911	12
184.1286	21
185.0976	33
185.1339	48
185.1515	15
187.1162	30
187.1475	12
189.0947	18
189.1318	51
192.0957	48
193.1054	39
194.1087	36
195.0821	18
195.1195	85
196.0899	24
196.1278	21
197.097	18
197.1342	79
198.1061	18
198.1423	15
199.1134	57
199.1513	33
201.1339	24
205.1046	39
206.1149	33
207.121	60
208.0885	24
208.1279	15
209.0997	42
209.1351	70
210.1061	12
211.1159	57
211.1532	27
212.1272	12
213.1302	51
213.1682	15
215.1471	15
217.1017	15
219.12	33
221.0971	15
221.1357	42
223.1191	27
223.1503	51
224.1224	24
225.1301	79
225.1685	33
226.1365	36
227.1494	48
233.0988	18
233.1344	15
235.1504	15
237.1321	30
237.1638	18
239.1456	39
239.1803	12
240.1587	33
241.1631	127
242.1694	48
243.1411	112
247.1174	15
247.1505	15
249.1291	30
251.1493	51
253.1636	33
255.1439	15
255.1787	45
256.1856	27
257.1572	30
258.1652	201
265.1668	24
266.17	15
267.1784	27
269.1584	106
271.1736	15
284.1823	60
299.1746	27
