Mass spectrum: Quercetin; LC-ESI-QTOF; MS2; 130 V
Name: Quercetin
Class: Food_additive; Pharmaceutical
Formula: C15H10O7
Exact mass: 302.0427
SMILES: Oc1cc(O)c2C(=O)C(=C(Oc2c1)c3ccc(O)c(O)c3)O
InChI: InChI=1S/C15H10O7/c16-7-4-10(19)12-11(5-7)22-15(14(21)13(12)20)6-1-2-8(17)9(18)3-6/h1-5,16-19,21H
Instrument: TripleTOF 5600 SCIEX
Instrument type: LC-ESI-QTOF
Ms type: MS2
Ion mode: NEGATIVE
Collision energy: 130
Fragmentation mode: CID
Ionization: ESI
Column name: Zorbax Eclipse Plus C18 2.1 mm x 150 mm, 3.5 um, Agilent
Retention time: 8.074 min
Precursor m/z: 301.0354
Precursor type: [M-H]-
m/z	relative intensity
41.0071	999
41.019	111
41.0432	55
65.0036	999
65.0412	111
89.0045	55
91.0177	55
