Mass spectrum: Nevirapine; LC-ESI-QTOF; MS2; 40 V
Name: Nevirapine
Class: Pharmaceutical
Formula: C15H14N4O
Exact mass: 266.1168
SMILES: Cc1ccnc2N(C3CC3)c4ncccc4C(=O)Nc12
InChI: InChI=1S/C15H14N4O/c1-9-6-8-17-14-12(9)18-15(20)11-3-2-7-16-13(11)19(14)10-4-5-10/h2-3,6-8,10H,4-5H2,1H3,(H,18,20)
Instrument: TripleTOF 5600 SCIEX
Instrument type: LC-ESI-QTOF
Ms type: MS2
Ion mode: POSITIVE
Collision energy: 40
Fragmentation mode: CID
Ionization: ESI
Column name: Zorbax Eclipse Plus C18 2.1 mm x 150 mm, 3.5 um, Agilent
Retention time: 7.301 min
Precursor m/z: 267.124
Precursor type: [M+H]+
m/z	relative intensity
53.0437	38
78.0365	69
79.044	39
80.0521	251
92.0375	12
93.0454	35
94.0539	19
105.0446	49
106.0566	17
107.0605	235
108.0679	35
116.0495	16
117.0435	20
118.0573	14
119.0589	12
121.0389	18
130.0632	10
131.0597	68
132.0671	14
133.0747	17
134.0702	26
143.0596	39
144.0679	68
145.075	33
146.0716	24
147.0908	19
155.0598	34
157.0632	17
158.0705	34
159.0548	35
160.062	54
160.0858	12
161.0704	119
168.057	16
169.0649	25
170.0712	88
171.0785	65
172.0869	20
173.0699	18
180.0589	13
181.064	41
182.0707	149
183.078	110
184.0861	259
185.0608	34
187.0602	12
195.0868	12
196.0859	29
197.0818	349
198.0892	398
199.072	45
199.096	48
200.0796	12
206.0708	15
207.0792	37
208.078	41
209.0819	44
210.0654	131
210.089	48
211.0745	40
211.0969	48
212.0786	57
212.1101	19
220.0848	10
221.0874	28
222.1012	41
223.097	72
224.1057	37
225.077	209
226.085	999
227.0925	545
234.0881	17
235.0735	18
236.0758	20
237.077	125
237.1136	13
238.0857	29
239.0937	41
239.1276	56
248.1072	12
249.1132	127
250.0963	49
251.0929	222
252.0999	78
265.107	14
267.124	698
