Mass spectrum: 3-Desmethyl-trimethoprim; LC-ESI-QTOF; MS2; 110 V
Name: 3-Desmethyl-trimethoprim
Class: Pharmaceutical; Transformation_product
Formula: C13H16N4O3
Exact mass: 276.1222
SMILES: OC1=CC(CC2=CN=C(N=C2N)N)=CC(OC)=C1OC
InChI: InChI=1S/C13H16N4O3/c1-19-10-5-7(4-9(18)11(10)20-2)3-8-6-16-13(15)17-12(8)14/h4-6,18H,3H2,1-2H3,(H4,14,15,16,17)
Instrument: TripleTOF 5600 SCIEX
Instrument type: LC-ESI-QTOF
Ms type: MS2
Ion mode: POSITIVE
Collision energy: 110
Fragmentation mode: CID
Ionization: ESI
Column name: Zorbax Eclipse Plus C18 2.1 mm x 150 mm, 3.5 um, Agilent
Retention time: 5.021 min
Precursor m/z: 277.1295
Precursor type: [M+H]+
m/z	relative intensity
41.0396	79
43.0427	260
52.0272	202
53.0155	101
53.0308	36
53.0436	28
54.0419	267
54.0506	43
55.0505	43
65.0446	376
66.0383	72
67.0437	123
67.0617	36
68.0288	72
68.0443	72
69.0042	28
69.0507	50
74.0208	130
75.0272	318
76.0231	166
76.037	36
77.0432	999
78.039	340
79.0373	166
80.0545	152
81.0489	311
82.0446	36
83.0523	50
88.0214	65
88.0348	36
89.0418	434
90.0372	108
90.0511	43
91.0346	43
91.0567	166
92.0428	50
92.0535	86
93.049	159
94.0561	144
96.0583	72
100.0205	50
101.0407	144
102.0351	275
103.0316	152
103.052	43
104.0335	36
104.0487	238
105.0465	275
106.0547	86
107.0606	28
109.0529	65
114.0351	130
115.044	57
116.0496	152
117.0535	152
118.0429	72
118.0558	36
119.0615	50
120.0571	238
121.0742	50
123.0677	36
127.044	36
129.0446	108
130.0391	101
131.0598	101
132.0541	43
141.0491	28
142.0501	50
144.0577	72
147.0668	137
156.0582	28
