Mass spectrum: Denatonium; LC-ESI-QTOF; MS2; 40 V
Name: Denatonium
Formula: [C21H29N2O]+
Exact mass: 325.2274
SMILES: CC[N+](CC)(CC1=CC=CC=C1)CC(=O)NC2=C(C=CC=C2C)C
InChI: InChI=1S/C21H28N2O/c1-5-23(6-2,15-19-13-8-7-9-14-19)16-20(24)22-21-17(3)11-10-12-18(21)4/h7-14H,5-6,15-16H2,1-4H3/p+1
Instrument: TripleTOF 5600 SCIEX
Instrument type: LC-ESI-QTOF
Ms type: MS2
Ion mode: POSITIVE
Collision energy: 40
Fragmentation mode: CID
Ionization: ESI
Column name: Zorbax Eclipse Plus C18 2.1 mm x 150 mm, 3.5 um, Agilent
Retention time: 7.575 min
Precursor m/z: 325.2274
Precursor type: [M]+
m/z	relative intensity
84.0792	285
86.0945	795
91.0521	999
233.1645	257
325.2262	93
