Mass spectrum: Haloxyfop-methyl; LC-ESI-QTOF; MS2; 90 V
Name: Haloxyfop-methyl
Class: Herbicide
Formula: C16H13ClF3NO4
Exact mass: 375.0485
SMILES: COC(=O)C(C)Oc1ccc(Oc2ncc(cc2Cl)C(F)(F)F)cc1
InChI: InChI=1S/C16H13ClF3NO4/c1-9(15(22)23-2)24-11-3-5-12(6-4-11)25-14-13(17)7-10(8-21-14)16(18,19)20/h3-9H,1-2H3
Instrument: TripleTOF 5600 SCIEX
Instrument type: LC-ESI-QTOF
Ms type: MS2
Ion mode: POSITIVE
Collision energy: 90
Fragmentation mode: CID
Ionization: ESI
Column name: Zorbax Eclipse Plus C18 2.1 mm x 150 mm, 3.5 um, Agilent
Retention time: 14.891 min
Precursor m/z: 376.0558
Precursor type: [M+H]+
m/z	relative intensity
65.042	999
74.018	205
75.0256	411
77.0401	235
91.0546	558
109.9784	146
140.0487	528
151.036	235
158.0412	205
159.9749	381
162.0248	205
168.0412	146
179.9806	323
182.0293	146
188.0301	146
189.0377	235
190.046	381
208.0364	176
209.0428	176
216.0267	352
218.0401	235
