Mass spectrum: Acridine-9-carboxylic acid; LC-ESI-QTOF; MS2; 90 V
Name: Acridine-9-carboxylic acid
Class: Pharmaceutical; Metabolite; Transformation_product
Formula: C14H9NO2
Exact mass: 223.0633
SMILES: OC(=O)c1c2ccccc2nc3ccccc13
InChI: InChI=1S/C14H9NO2/c16-14(17)13-9-5-1-3-7-11(9)15-12-8-4-2-6-10(12)13/h1-8H,(H,16,17)
Instrument: TripleTOF 5600 SCIEX
Instrument type: LC-ESI-QTOF
Ms type: MS2
Ion mode: POSITIVE
Collision energy: 90
Fragmentation mode: CID
Ionization: ESI
Column name: Zorbax Eclipse Plus C18 2.1 mm x 150 mm, 3.5 um, Agilent
Retention time: 4.656 min
Precursor m/z: 224.0706
Precursor type: [M+H]+
m/z	relative intensity
51.0286	101
65.0413	56
74.0182	149
75.0258	246
76.0332	97
77.0408	307
78.0495	40
86.0165	32
87.025	88
88.0328	56
89.0401	258
90.0493	28
91.0564	32
98.017	72
99.0242	121
100.032	44
101.0395	157
102.0339	28
102.0467	109
113.0393	266
114.0457	84
115.0543	214
116.0495	36
117.0587	24
122.0148	20
123.0218	20
125.0385	198
126.0463	279
127.0492	125
128.0503	80
137.0401	56
138.0471	60
139.0542	999
139.0774	32
140.0495	699
149.0389	80
150.0466	683
151.055	659
152.0612	299
153.0591	52
164.0504	60
165.058	24
166.065	400
167.0738	117
175.0439	32
176.0531	76
177.056	250
178.0657	177
