Mass spectrum: Epirubicin; LC-ESI-QTOF; MS2; 90 V
Name: Epirubicin
Class: Pharmaceutical
Formula: C27H29NO11
Exact mass: 543.1741
SMILES: CC1C(C(CC(O1)OC2CC(CC3=C(C4=C(C(=C23)O)C(=O)C5=C(C4=O)C=CC=C5OC)O)(C(=O)CO)O)N)O
InChI: InChI=1S/C27H29NO11/c1-10-22(31)13(28)6-17(38-10)39-15-8-27(36,16(30)9-29)7-12-19(15)26(35)21-20(24(12)33)23(32)11-4-3-5-14(37-2)18(11)25(21)34/h3-5,10,13,15,17,22,29,31,33,35-36H,6-9,28H2,1-2H3
Instrument: TripleTOF 5600 SCIEX
Instrument type: LC-ESI-QTOF
Ms type: MS2
Ion mode: POSITIVE
Collision energy: 90
Fragmentation mode: CID
Ionization: ESI
Column name: Zorbax Eclipse Plus C18 2.1 mm x 150 mm, 3.5 um, Agilent
Retention time: 7.492 min
Precursor m/z: 544.1813
Precursor type: [M+H]+
m/z	relative intensity
58.0687	104
60.0473	69
60.0588	58
69.0355	104
71.0508	81
72.0479	81
77.0412	69
86.06	336
89.0422	58
107.0541	46
112.0734	81
113.0585	104
118.0399	46
121.0619	69
129.0337	58
130.0392	46
130.0862	81
135.0447	127
144.0255	58
145.0272	92
157.0265	46
165.0717	69
169.0334	46
170.0344	58
176.0596	58
178.0797	81
184.0186	58
186.0273	58
187.035	46
189.0678	151
202.0766	209
203.0851	69
204.0579	197
205.0637	127
206.0711	92
217.0618	104
218.0705	104
219.082	69
221.0574	116
229.0615	46
231.0832	116
232.0525	162
233.0603	127
234.0677	174
244.0498	127
245.0607	92
246.075	104
247.0734	185
249.0519	162
250.0612	58
257.0596	69
258.0734	46
259.0736	104
260.0423	81
261.0534	127
262.0606	162
272.0495	104
273.0561	127
275.0711	69
278.0561	104
279.0713	58
289.0493	499
290.0568	267
291.068	69
305.0482	127
306.0514	999
307.0564	116
317.0469	139
318.05	116
329.0449	290
345.0403	127
346.0475	638
