Mass spectrum: Mirtazapine; LC-ESI-QTOF; MS2; 140 V
Name: Mirtazapine
Class: Pharmaceutical
Formula: C17H19N3
Exact mass: 265.1579
SMILES: CN1CCN2C(C1)C3=CC=CC=C3CC4=C2N=CC=C4
InChI: InChI=1S/C17H19N3/c1-19-9-10-20-16(12-19)15-7-3-2-5-13(15)11-14-6-4-8-18-17(14)20/h2-8,16H,9-12H2,1H3
Instrument: TripleTOF 5600 SCIEX
Instrument type: LC-ESI-QTOF
Ms type: MS2
Ion mode: POSITIVE
Collision energy: 140
Fragmentation mode: CID
Ionization: ESI
Column name: Zorbax Eclipse Plus C18 2.1 mm x 150 mm, 3.5 um, Agilent
Retention time: 5.459 min
Precursor m/z: 266.1652
Precursor type: [M+H]+
m/z	relative intensity
42.0484	114
44.0602	57
56.0593	47
58.0711	38
65.0437	466
73.0144	95
74.0208	637
75.0286	580
76.0365	199
77.043	827
78.0377	38
78.0492	95
85.0109	133
86.018	323
87.0264	580
88.0329	266
89.0418	932
90.0366	47
91.0557	76
98.0173	447
99.0251	266
100.0325	114
101.0409	85
102.0473	247
103.0546	76
104.051	66
109.0083	47
110.0159	123
111.0242	152
112.0237	57
113.0385	675
114.0356	161
114.0485	76
115.0556	323
122.0136	95
123.0188	57
125.0411	133
126.0471	333
127.0432	47
127.0571	76
128.0538	57
129.0526	47
137.0395	333
138.0478	304
139.0549	999
140.0491	409
149.0419	123
150.0464	685
151.0535	409
152.0634	228
161.0361	95
162.0452	180
163.0548	333
164.0499	675
165.0538	123
166.0659	95
175.0464	47
176.0487	47
177.0617	85
188.0505	57
190.0655	76
191.067	85
192.068	76
