Mass spectrum: Lumichrome; LC-ESI-QTOF; MS2; 130 V
Name: Lumichrome
Class: Pharmaceutical
Formula: C12H10N4O2
Exact mass: 242.0804
SMILES: CC1=CC2=C(C=C1C)N=C3C(=N2)C(=O)NC(=O)N3
InChI: InChI=1S/C12H10N4O2/c1-5-3-7-8(4-6(5)2)14-10-9(13-7)11(17)16-12(18)15-10/h3-4H,1-2H3,(H2,14,15,16,17,18)
Instrument: TripleTOF 6600 SCIEX
Instrument type: LC-ESI-QTOF
Ms type: MS2
Ion mode: POSITIVE
Collision energy: 130
Fragmentation mode: CID
Ionization: ESI
Column name: Zorbax Eclipse Plus C18 2.1 mm x 150 mm, 3.5 um, Agilent
Retention time: 7.067 min
Precursor m/z: 243.0877
Precursor type: [M+H]+
m/z	relative intensity
35.9994	15
37.0086	75
38.016	52
39.0233	116
44.0142	41
49.008	218
50.0159	799
51.0236	999
52.0192	30
52.0309	22
61.0077	124
62.0156	143
63.0237	211
64.0186	56
65.0387	49
73.0077	49
74.0156	275
75.0106	67
75.024	109
76.0191	75
76.0307	41
77.0389	139
86.0145	18
88.0189	18
89.0384	56
