Mass spectrum: Tepraloxydim; LC-ESI-QTOF; MS2; 60 V
Name: Tepraloxydim
Class: Herbicide
Formula: C17H24ClNO4
Exact mass: 341.1394
SMILES: CCC(=NOCC=CCl)C1=C(CC(CC1=O)C2CCOCC2)O
InChI: InChI=1S/C17H24ClNO4/c1-2-14(19-23-7-3-6-18)17-15(20)10-13(11-16(17)21)12-4-8-22-9-5-12/h3,6,12-13,20H,2,4-5,7-11H2,1H3
Instrument: TripleTOF 6600 SCIEX
Instrument type: LC-ESI-QTOF
Ms type: MS2
Ion mode: NEGATIVE
Collision energy: 60
Fragmentation mode: CID
Ionization: ESI
Column name: Zorbax Eclipse Plus C18 2.1 mm x 150 mm, 3.5 um, Agilent
Retention time: 12.248 min
Precursor m/z: 340.1321
Precursor type: [M-H]-
m/z	relative intensity
34.9676	119
41.0008	15
65.9961	176
66.032	20
82.0266	16
92.0482	28
108.0435	18
109.0264	72
120.0057	110
120.0432	23
120.0785	11
134.0221	476
135.029	50
153.09	17
162.0517	23
165.076	23
178.0836	62
195.0973	27
220.0945	999
221.1144	14
233.1005	18
248.1247	33
