Mass spectrum: Ranitidine-N-oxide; LC-ESI-QTOF; MS2; 50 V
Name: Ranitidine-N-oxide
Class: Pharmaceutical; Transformation_product; Transformation_product-Metabolite
Formula: C13H22N4O4S
Exact mass: 330.1362
SMILES: CNC(=C[N+](=O)[O-])NCCSCC1=CC=C(O1)C[N+](C)(C)[O-]
InChI: InChI=1S/C13H22N4O4S/c1-14-13(8-16(18)19)15-6-7-22-10-12-5-4-11(21-12)9-17(2,3)20/h4-5,8,14-15H,6-7,9-10H2,1-3H3
Instrument: TripleTOF 5600 SCIEX
Instrument type: LC-ESI-QTOF
Ms type: MS2
Ion mode: POSITIVE
Collision energy: 50
Fragmentation mode: CID
Ionization: ESI
Column name: Zorbax Eclipse Plus C18 2.1 mm x 150 mm, 3.5 um, Agilent
Retention time: 4.879 min
Precursor m/z: 331.1435
Precursor type: [M+H]+
m/z	relative intensity
53.0459	11
55.0461	22
56.0538	47
57.0594	14
68.0543	19
71.063	22
77.0414	9
79.0581	11
81.0356	443
81.075	11
83.0618	39
84.0698	53
85.0798	13
88.0232	31
91.0555	14
94.042	13
94.0671	31
95.0497	34
96.0687	11
97.0115	19
97.0768	436
98.0842	286
101.0295	24
102.0376	999
104.0499	19
106.064	21
107.049	186
108.0561	13
109.0758	16
110.0588	34
114.0377	11
115.0335	17
117.0497	31
118.0329	14
118.0644	29
120.08	22
121.0755	88
122.0825	17
123.0268	13
124.0756	62
125.0053	779
126.0136	13
129.0476	42
130.0558	531
131.0633	14
132.0432	83
133.052	70
133.0743	14
134.0592	21
135.0249	16
135.0909	148
136.0736	14
136.0991	16
137.1067	17
139.0312	21
140.0515	11
145.0409	9
145.0749	9
146.06	16
147.0683	27
148.0747	197
149.0698	53
149.1043	11
150.0364	14
151.0208	22
153.0386	17
163.0854	91
164.0935	29
165.1017	114
167.0639	49
176.048	63
177.1004	127
178.031	55
181.0786	44
191.1178	76
192.0462	49
223.0869	9
