Mass spectrum: 3,5-Diiodothyronine; LC-ESI-QTOF; MS2; 70 V
Name: 3,5-Diiodothyronine
Class: Pharmaceutical
Formula: C15H13I2NO4
Exact mass: 524.8934
SMILES: NC(Cc1cc(I)c(Oc2ccc(O)cc2)c(I)c1)C(O)=O
InChI: InChI=1S/C15H13I2NO4/c16-11-5-8(7-13(18)15(20)21)6-12(17)14(11)22-10-3-1-9(19)2-4-10/h1-6,13,19H,7,18H2,(H,20,21)
Instrument: TripleTOF 5600 SCIEX
Instrument type: LC-ESI-QTOF
Ms type: MS2
Ion mode: POSITIVE
Collision energy: 70
Fragmentation mode: CID
Ionization: ESI
Column name: Zorbax Eclipse Plus C18 2.1 mm x 150 mm, 3.5 um, Agilent
Retention time: 7.539 min
Precursor m/z: 525.9007
Precursor type: [M+H]+
m/z	relative intensity
65.0425	51
77.0417	47
78.0486	20
79.0434	12
80.0533	14
81.0362	63
89.0409	39
90.0483	63
91.0531	12
93.035	49
94.0425	119
102.0469	22
103.0568	14
104.0495	121
105.034	72
105.0576	119
106.0411	24
107.0484	22
109.0284	111
110.0373	16
115.0547	82
116.0607	24
117.0573	303
118.0658	90
119.013	14
127.0552	45
128.0622	330
129.0316	10
129.0692	136
131.0497	70
132.0439	30
133.0286	37
133.0531	26
139.0541	136
140.0611	14
141.07	187
142.0777	189
143.0854	72
151.0548	43
152.0624	241
153.07	441
154.0747	35
155.0484	66
156.0563	61
157.0651	307
161.0239	41
162.032	10
163.0532	12
165.0699	140
167.0494	115
167.0693	12
168.0573	94
168.081	22
169.0653	177
170.0729	355
170.0994	14
171.0803	187
180.058	41
180.0813	78
181.0652	788
182.0717	94
183.0458	18
183.0679	45
183.0816	22
184.0523	918
185.0605	198
193.0526	18
195.0514	24
196.0519	41
196.0759	68
197.0607	705
197.1046	12
198.0677	336
199.076	416
202.9339	10
203.9412	24
206.0724	12
207.0677	18
208.0532	16
208.077	37
209.0586	113
209.0825	39
210.0679	243
211.0389	16
212.0476	12
216.9511	150
217.9219	101
219.9365	28
224.0704	206
225.0536	14
225.0782	383
226.0874	53
231.9382	57
231.9653	10
232.9463	220
237.055	68
242.9609	53
243.9542	10
244.9084	99
245.9192	66
246.9286	14
253.0519	20
259.9566	530
287.9264	26
296.9779	113
307.972	16
310.9566	24
311.9677	45
322.9561	18
324.9719	999
325.9804	115
330.8506	12
335.9652	43
336.9733	26
337.9641	10
338.953	165
339.9567	43
351.9843	53
352.9911	239
358.8426	26
364.9721	18
380.9646	35
