Mass spectrum: Voriconazole-N-oxide; LC-ESI-QTOF; MS2; 40 V
Name: Voriconazole-N-oxide
Class: Metabolite; Pharmaceutical
Formula: C16H14F3N5O2
Exact mass: 365.11
SMILES: CC(C1=NC=[N+](C=C1F)[O-])C(CN2C=NC=N2)(C3=C(C=C(C=C3)F)F)O
InChI: InChI=1S/C16H14F3N5O2/c1-10(15-14(19)5-24(26)9-21-15)16(25,6-23-8-20-7-22-23)12-3-2-11(17)4-13(12)18/h2-5,7-10,25H,6H2,1H3
Instrument: TripleTOF 5600 SCIEX
Instrument type: LC-ESI-QTOF
Ms type: MS2
Ion mode: POSITIVE
Collision energy: 40
Fragmentation mode: CID
Ionization: ESI
Column name: Zorbax Eclipse Plus C18 2.1 mm x 150 mm, 3.5 um, Agilent
Retention time: 7.739 min
Precursor m/z: 366.1172
Precursor type: [M+H]+
m/z	relative intensity
55.0331	32
68.0533	13
71.0322	12
78.036	13
82.0413	302
95.0247	10
95.061	100
96.0675	20
98.0259	10
98.0401	19
105.0431	12
107.0283	10
123.0544	41
125.05	403
126.0584	727
127.0348	644
143.06	136
154.0456	27
155.0294	114
197.0512	20
224.0622	999
261.0612	12
262.0697	17
279.0741	25
348.1066	12
