Mass spectrum: Caprolactam; LC-ESI-QTOF; MS2; 80 V
Name: Caprolactam
Class: Food_additive; Industrial_process
Formula: C6H11NO
Exact mass: 113.0841
SMILES: C1CCC(=O)NCC1
InChI: InChI=1S/C6H11NO/c8-6-4-2-1-3-5-7-6/h1-5H2,(H,7,8)
Instrument: TripleTOF 6600 SCIEX
Instrument type: LC-ESI-QTOF
Ms type: MS2
Ion mode: POSITIVE
Collision energy: 80
Fragmentation mode: CID
Ionization: ESI
Column name: Zorbax Eclipse Plus C18 2.1 mm x 150 mm, 3.5 um, Agilent
Retention time: 5.197 min
Precursor m/z: 114.0914
Precursor type: [M+H]+
m/z	relative intensity
30.0348	13
35.9999	38
37.0078	201
38.0033	46
38.0155	144
39.0238	311
41.027	16
41.0394	19
42.0107	32
42.0342	30
43.0059	21
43.0185	24
44.0139	999
50.0159	27
51.0238	13
53.0143	16
