Mass spectrum: Erlotinib; LC-ESI-QTOF; MS2; 150 V
Name: Erlotinib
Class: Pharmaceutical
Formula: C22H23N3O4
Exact mass: 393.1689
SMILES: COCCOC1=C(C=C2C(=C1)C(=NC=N2)NC3=CC=CC(=C3)C#C)OCCOC
InChI: InChI=1S/C22H23N3O4/c1-4-16-6-5-7-17(12-16)25-22-18-13-20(28-10-8-26-2)21(29-11-9-27-3)14-19(18)23-15-24-22/h1,5-7,12-15H,8-11H2,2-3H3,(H,23,24,25)
Instrument: TripleTOF 5600 SCIEX
Instrument type: LC-ESI-QTOF
Ms type: MS2
Ion mode: NEGATIVE
Collision energy: 150
Fragmentation mode: CID
Ionization: ESI
Column name: Zorbax Eclipse Plus C18 2.1 mm x 150 mm, 3.5 um, Agilent
Retention time: 7.429 min
Precursor m/z: 392.1616
Precursor type: [M-H]-
m/z	relative intensity
41.005	199
50.0039	399
65.0151	199
65.9986	999
89.0114	199
105.0208	199
114.036	599
134.0278	199
139.0299	199
141.0491	599
163.0288	599
164.0202	199
165.0479	399
187.0324	399
188.0258	199
188.0409	399
189.0469	999
190.0366	199
216.058	199
