Mass spectrum: Clozapine; LC-ESI-QTOF; MS2; 100 V
Name: Clozapine
Class: Pharmaceutical
Formula: C18H19ClN4
Exact mass: 326.1298
SMILES: CN1CCN(CC1)C2=NC3=C(C=CC(=C3)Cl)NC4=CC=CC=C42
InChI: InChI=1S/C18H19ClN4/c1-22-8-10-23(11-9-22)18-14-4-2-3-5-15(14)20-16-7-6-13(19)12-17(16)21-18/h2-7,12,20H,8-11H2,1H3
Instrument: TripleTOF 6600 SCIEX
Instrument type: LC-ESI-QTOF
Ms type: MS2
Ion mode: POSITIVE
Collision energy: 100
Fragmentation mode: CID
Ionization: ESI
Column name: Zorbax Eclipse Plus C18 2.1 mm x 150 mm, 3.5 um, Agilent
Retention time: 6.951 min
Precursor m/z: 327.1371
Precursor type: [M+H]+
m/z	relative intensity
42.034	19
63.0222	15
72.9829	17
87.0225	14
88.0298	25
89.0374	16
90.0333	10
98.9994	10
113.0367	27
114.035	40
137.0381	146
138.0449	230
139.0504	61
140.0493	81
151.054	15
152.0506	13
163.0402	27
164.049	999
165.0502	284
166.0658	32
177.0556	13
178.064	28
179.0641	23
189.0475	22
190.0539	35
191.0603	290
192.0678	147
205.074	18
216.0669	12
217.0745	13
218.0803	10
