Mass spectrum: Valsartan; LC-ESI-QTOF; MS2; 50 V
Name: Valsartan
Class: Pharmaceutical
Formula: C24H29N5O3
Exact mass: 435.227
SMILES: CCCCC(=O)N(Cc1ccc(cc1)c2ccccc2c3n[nH]nn3)[C@@H](C(C)C)C(O)=O
InChI: InChI=1S/C24H29N5O3/c1-4-5-10-21(30)29(22(16(2)3)24(31)32)15-17-11-13-18(14-12-17)19-8-6-7-9-20(19)23-25-27-28-26-23/h6-9,11-14,16,22H,4-5,10,15H2,1-3H3,(H,31,32)(H,25,26,27,28)/t22-/m0/s1
Instrument: TripleTOF 5600 SCIEX
Instrument type: LC-ESI-QTOF
Ms type: MS2
Ion mode: POSITIVE
Collision energy: 50
Fragmentation mode: CID
Ionization: ESI
Column name: Zorbax Eclipse Plus C18 2.1 mm x 150 mm, 3.5 um, Agilent
Retention time: 11.443 min
Precursor m/z: 436.2343
Precursor type: [M+H]+
m/z	relative intensity
115.054	10
140.0489	32
151.0537	14
152.0623	34
153.0701	163
163.0543	33
165.0692	49
166.0643	19
167.0743	36
177.0649	12
178.0769	239
179.0758	73
180.0808	628
181.0648	27
190.0649	509
191.0725	100
192.0747	311
193.0877	44
194.0957	78
195.0803	18
205.0751	106
206.0837	368
207.0918	999
208.0753	179
209.1065	53
235.0944	179
291.1491	93
