Mass spectrum: Fluconazole; LC-ESI-QTOF; MS2; 100 V
Name: Fluconazole
Class: Pharmaceutical
Formula: C13H12F2N6O
Exact mass: 306.1041
SMILES: OC(Cn1cncn1)(Cn2cncn2)c3ccc(F)cc3F
InChI: InChI=1S/C13H12F2N6O/c14-10-1-2-11(12(15)3-10)13(22,4-20-8-16-6-18-20)5-21-9-17-7-19-21/h1-3,6-9,22H,4-5H2
Instrument: TripleTOF 5600 SCIEX
Instrument type: LC-ESI-QTOF
Ms type: MS2
Ion mode: POSITIVE
Collision energy: 100
Fragmentation mode: CID
Ionization: ESI
Column name: Zorbax Eclipse Plus C18 2.1 mm x 150 mm, 3.5 um, Agilent
Retention time: 6.343 min
Precursor m/z: 307.1113
Precursor type: [M+H]+
m/z	relative intensity
43.0369	74
51.0093	24
51.0283	99
57.0181	74
70.0432	661
73.0112	31
74.0172	318
75.0082	56
75.0262	999
75.0537	37
75.0692	24
77.0411	43
81.0163	74
82.0433	56
93.0152	87
95.0296	174
98.0159	424
98.0446	24
99.0236	855
101.0209	374
101.0385	305
107.029	268
113.0214	93
119.0288	187
120.0375	49
125.019	149
127.0346	249
129.0441	43
131.0289	68
147.0336	37
151.0363	224
