Mass spectrum: Sulcotrione; LC-ESI-QTOF; MS2; 90 V
Name: Sulcotrione
Class: Herbicide
Formula: C14H13ClO5S
Exact mass: 328.0172
SMILES: CS(=O)(=O)C1=CC(=C(C=C1)C(=O)C2C(=O)CCCC2=O)Cl
InChI: InChI=1S/C14H13ClO5S/c1-21(19,20)8-5-6-9(10(15)7-8)14(18)13-11(16)3-2-4-12(13)17/h5-7,13H,2-4H2,1H3
Instrument: TripleTOF 6600 SCIEX
Instrument type: LC-ESI-QTOF
Ms type: MS2
Ion mode: POSITIVE
Collision energy: 90
Fragmentation mode: CID
Ionization: ESI
Column name: Zorbax Eclipse Plus C18 2.1 mm x 150 mm, 3.5 um, Agilent
Retention time: 9.651 min
Precursor m/z: 329.0245
Precursor type: [M+H]+
m/z	relative intensity
41.0032	79
55.0181	41
63.0235	12
66.0097	15
68.9973	999
72.9841	17
75.0224	17
87.0222	32
89.038	10
92.0264	19
96.9843	11
99.0006	12
99.0216	27
102.0459	13
107.9752	20
115.0538	25
121.0272	14
121.9923	20
122.9993	15
127.0175	14
128.0626	10
133.9919	22
139.0538	20
149.987	15
