Mass spectrum: 3-Hydroxycarbamazepine; LC-ESI-QTOF; MS2; 80 V
Name: 3-Hydroxycarbamazepine
Class: Pharmaceutical; Transformation_product-Metabolite
Formula: C15H12N2O2
Exact mass: 252.0899
SMILES: NC(=O)N1c2ccccc2C=Cc3ccc(O)cc13
InChI: InChI=1S/C15H12N2O2/c16-15(19)17-13-4-2-1-3-10(13)5-6-11-7-8-12(18)9-14(11)17/h1-9,18H,(H2,16,19)
Instrument: TripleTOF 5600 SCIEX
Instrument type: LC-ESI-QTOF
Ms type: MS2
Ion mode: NEGATIVE
Collision energy: 80
Fragmentation mode: CID
Ionization: ESI
Column name: Zorbax Eclipse Plus C18 2.1 mm x 150 mm, 3.5 um, Agilent
Retention time: 7.917 min
Precursor m/z: 251.0826
Precursor type: [M-H]-
m/z	relative intensity
40.0226	43
41.007	260
41.0154	86
42.0013	260
42.0108	43
65.0082	43
65.0446	86
66.0006	130
89.0314	86
90.0345	434
114.0354	260
115.056	130
116.0509	521
118.0287	130
129.0589	304
130.0637	347
131.0377	521
140.0531	347
142.0318	434
152.0589	86
153.0616	130
163.0463	130
164.0518	999
165.0651	173
166.0669	608
177.0602	304
178.0661	390
179.0783	173
180.0841	130
181.0543	130
192.0477	260
205.0552	347
206.0638	608
207.0777	173
