Mass spectrum: Azoxystrobin; LC-ESI-QTOF; MS2; 140 V
Name: Azoxystrobin
Class: Fungicide
Formula: C22H17N3O5
Exact mass: 403.1168
SMILES: COC=C(C1=CC=CC=C1OC2=NC=NC(=C2)OC3=CC=CC=C3C#N)C(=O)OC
InChI: InChI=1S/C22H17N3O5/c1-27-13-17(22(26)28-2)16-8-4-6-10-19(16)30-21-11-20(24-14-25-21)29-18-9-5-3-7-15(18)12-23/h3-11,13-14H,1-2H3
Instrument: TripleTOF 6600 SCIEX
Instrument type: LC-ESI-QTOF
Ms type: MS2
Ion mode: POSITIVE
Collision energy: 140
Fragmentation mode: CID
Ionization: ESI
Column name: Zorbax Eclipse Plus C18 2.1 mm x 150 mm, 3.5 um, Agilent
Retention time: 12.114 min
Precursor m/z: 404.1241
Precursor type: [M+H]+
m/z	relative intensity
37.0056	15
38.014	13
39.0217	79
49.006	77
50.0138	363
51.0218	999
52.0169	71
52.0291	15
53.0009	79
61.0059	50
62.0136	98
63.0215	353
64.0156	13
64.0292	21
65.037	106
68.9951	37
73.0052	18
74.0135	276
75.0102	34
75.0212	534
76.0169	146
76.0281	143
77.0371	674
78.0308	13
78.0449	34
86.0132	13
87.0213	29
88.0157	42
88.0282	34
89.037	557
90.0317	29
91.04	39
91.0518	26
98.0131	15
99.0095	15
99.0207	18
100.016	23
100.0291	15
101.0362	58
102.0318	154
102.0433	37
103.0396	31
104.0239	15
104.0475	74
105.0308	21
105.0425	29
113.0364	13
114.031	66
115.0388	13
115.0516	10
116.0479	45
127.0395	34
128.0479	15
129.0425	23
130.0368	82
140.0444	13
144.0427	74
150.0446	15
151.0516	15
162.045	10
163.0504	21
164.0485	15
172.0363	21
188.0466	37
189.0558	15
190.0612	13
202.0626	13
215.0585	29
