Mass spectrum: 4-(Triphenylphosphonio)-1-butanesulfonate; LC-ESI-QTOF; MS2; 20 V
Name: 4-(Triphenylphosphonio)-1-butanesulfonate
Class: Industrial_process
Formula: C22H24O3PS
Exact mass: 399.1178
SMILES: OS(=O)(CCCC[P+](c1ccccc1)(c2ccccc2)c3ccccc3)=O
InChI: InChI=1S/C22H23O3PS/c23-27(24,25)19-11-10-18-26(20-12-4-1-5-13-20,21-14-6-2-7-15-21)22-16-8-3-9-17-22/h1-9,12-17H,10-11,18-19H2/p+1
Instrument: TripleTOF 5600 SCIEX
Instrument type: LC-ESI-QTOF
Ms type: MS2
Ion mode: POSITIVE
Collision energy: 20
Fragmentation mode: CID
Ionization: ESI
Column name: Zorbax Eclipse Plus C18 2.1 mm x 150 mm, 3.5 um, Agilent
Retention time: 7.137 min
Precursor m/z: 399.1178
Precursor type: [M]+
m/z	relative intensity
399.1183	999
