Mass spectrum: Diisopentyl phthalate; LC-ESI-QTOF; MS2; 80 V
Name: Diisopentyl phthalate
Formula: C18H26O4
Exact mass: 306.1831
SMILES: CC(C)CCOC(=O)C1=CC=CC=C1C(=O)OCCC(C)C
InChI: InChI=1S/C18H26O4/c1-13(2)9-11-21-17(19)15-7-5-6-8-16(15)18(20)22-12-10-14(3)4/h5-8,13-14H,9-12H2,1-4H3
Instrument: TripleTOF 6600 SCIEX
Instrument type: LC-ESI-QTOF
Ms type: MS2
Ion mode: POSITIVE
Collision energy: 80
Fragmentation mode: CID
Ionization: ESI
Column name: Zorbax Eclipse Plus C18 2.1 mm x 150 mm, 3.5 um, Agilent
Retention time: 17.28 min
Precursor m/z: 307.1904
Precursor type: [M+H]+
m/z	relative intensity
37.0061	22
38.0022	12
38.0142	33
39.0222	323
41.0377	501
43.0533	529
53.0121	10
55.0536	24
65.0374	999
93.032	236
121.0294	168
149.0213	39
