Mass spectrum: Ampicillin; LC-ESI-QTOF; MS2; 70 V
Name: Ampicillin
Class: Pharmaceutical
Formula: C16H19N3O4S
Exact mass: 349.1096
SMILES: CC1(C)S[C@@H]2[C@H](NC(=O)[C@H](N)c3ccccc3)C(=O)N2[C@H]1C(O)=O
InChI: InChI=1S/C16H19N3O4S/c1-16(2)11(15(22)23)19-13(21)10(14(19)24-16)18-12(20)9(17)8-6-4-3-5-7-8/h3-7,9-11,14H,17H2,1-2H3,(H,18,20)(H,22,23)/t9-,10-,11+,14-/m1/s1
Instrument: TripleTOF 5600 SCIEX
Instrument type: LC-ESI-QTOF
Ms type: MS2
Ion mode: POSITIVE
Collision energy: 70
Fragmentation mode: CID
Ionization: ESI
Column name: Zorbax Eclipse Plus C18 2.1 mm x 150 mm, 3.5 um, Agilent
Retention time: 5.367 min
Precursor m/z: 350.1169
Precursor type: [M+H]+
m/z	relative intensity
53.0437	16
59.001	33
65.0431	16
68.0163	30
68.0523	10
70.0676	69
74.009	20
77.0401	101
79.0567	496
82.0692	10
86.0077	100
87.0274	86
89.0394	20
90.0473	45
91.0554	424
94.0663	18
96.0451	27
103.0531	74
106.0654	999
114	84
114.0368	220
115.0525	22
116.0495	13
117.0565	125
118.0422	35
118.0648	240
119.0485	13
121.0102	142
128.0492	52
130.0648	66
131.0746	11
135.0277	11
137.0404	15
137.0698	13
142.033	10
146.0595	27
147.0254	37
160.0425	22
173.0269	27
