Mass spectrum: Mebendazole; LC-ESI-QTOF; MS2; 60 V
Name: Mebendazole
Class: Pharmaceutical
Formula: C16H13N3O3
Exact mass: 295.0957
SMILES: COC(=O)Nc1[nH]c2cc(ccc2n1)C(=O)c3ccccc3
InChI: InChI=1S/C16H13N3O3/c1-22-16(21)19-15-17-12-8-7-11(9-13(12)18-15)14(20)10-5-3-2-4-6-10/h2-9H,1H3,(H2,17,18,19,21)
Instrument: TripleTOF 5600 SCIEX
Instrument type: LC-ESI-QTOF
Ms type: MS2
Ion mode: POSITIVE
Collision energy: 60
Fragmentation mode: CID
Ionization: ESI
Column name: Zorbax Eclipse Plus C18 2.1 mm x 150 mm, 3.5 um, Agilent
Retention time: 8.672 min
Precursor m/z: 296.103
Precursor type: [M+H]+
m/z	relative intensity
77.0423	999
104.0375	39
105.0345	420
130.0398	93
131.0234	18
131.0474	52
132.0546	32
139.0538	15
140.0496	12
158.0346	48
159.0425	137
160.0498	24
166.0651	44
167.0729	16
181.0756	17
186.0333	50
191.0588	10
208.0863	12
264.0766	71
