Mass spectrum: Resorcinol bis(diphenyl phosphate); LC-ESI-QTOF; MS2; 90 V
Name: Resorcinol bis(diphenyl phosphate)
Class: Industrial_process
Formula: C30H24O8P2
Exact mass: 574.0946
SMILES: C1=CC=C(C=C1)OP(=O)(OC2=CC=CC=C2)OC3=CC(=CC=C3)OP(=O)(OC4=CC=CC=C4)OC5=CC=CC=C5
InChI: InChI=1S/C30H24O8P2/c31-39(33-25-14-5-1-6-15-25,34-26-16-7-2-8-17-26)37-29-22-13-23-30(24-29)38-40(32,35-27-18-9-3-10-19-27)36-28-20-11-4-12-21-28/h1-24H
Instrument: TripleTOF 6600 SCIEX
Instrument type: LC-ESI-QTOF
Ms type: MS2
Ion mode: POSITIVE
Collision energy: 90
Fragmentation mode: CID
Ionization: ESI
Column name: Zorbax Eclipse Plus C18 2.1 mm x 150 mm, 3.5 um, Agilent
Retention time: 15.87 min
Precursor m/z: 575.1019
Precursor type: [M+H]+
m/z	relative intensity
50.0152	19
51.0231	80
65.0386	47
75.0227	10
77.0391	712
91.0544	13
92.0263	13
93.0335	29
94.0414	11
95.0494	35
102.046	10
105.0446	34
109.0298	13
115.0549	366
125.0395	29
126.0468	14
127.055	50
128.0628	142
129.0699	25
131.0491	16
133.0209	43
138.9949	40
139.0551	226
140.0628	47
141.0706	383
145.0215	11
147.0357	16
149.015	23
149.0385	17
150.0475	200
151.0552	476
152.0634	999
153.0712	148
154.0783	13
154.9905	31
155.0501	55
156.0582	71
157.0053	11
157.0206	56
157.0656	47
159.0361	31
165.0709	25
167.0501	43
168.0581	650
169.066	107
170.074	26
171.0809	13
173.0	10
173.0159	28
175.0272	107
177.0117	70
178.0786	40
179.0613	43
179.0857	11
183.0453	35
184.0527	200
185.0163	17
185.06	20
186.0246	23
187.0321	61
188.0649	10
189.011	22
189.0716	95
190.0784	35
191.0864	71
199.0333	11
200.0634	49
201.0118	29
201.0713	67
202.0186	13
202.0794	284
203.027	119
203.0862	32
204.0941	23
205.0069	94
205.0665	19
206.0754	20
206.9598	11
207.0362	23
207.0831	23
209.0511	10
213.0125	52
213.0716	47
214.0806	32
215.0275	253
215.0873	299
216.0957	56
217.0661	31
217.1028	44
218.074	109
218.9635	14
219.023	16
219.0826	22
222.0101	128
223.0174	127
224.0662	41
225.072	68
226.0799	807
227.0874	74
228.0951	101
229.0076	53
229.0677	13
229.1022	16
230.0152	11
230.0741	19
231.023	284
231.0826	52
232.0314	23
232.091	28
233.0374	22
233.0522	46
234.0698	46
234.9578	35
236.9717	11
242.0751	155
243.0837	77
244.09	94
246.1056	11
247.0178	32
248.0276	68
249.0342	67
251.0488	100
252.0975	11
253.0444	64
258.0701	20
259.0779	26
260.0406	50
260.0858	70
261.0461	34
263.0293	16
263.086	13
265.1004	19
267.0411	25
276.0954	37
277.0447	17
277.1037	11
278.1094	10
279.0601	20
281.0381	16
287.0879	16
289.0447	76
289.1042	44
291.0583	19
291.1176	22
292.9801	40
294.9945	17
298.0397	25
299.0517	32
300.0964	79
301.1044	37
302.1124	100
305.0375	20
305.0985	28
307.0549	70
309.0346	32
310.9905	95
318.1065	29
320.1215	10
322.047	11
327.0811	10
328.9977	22
343.0768	28
351.0005	10
369.0113	28
387.0224	20
405.0321	11
