Mass spectrum: 3-(Diethylcarbamoyl)benzoic acid; LC-ESI-QTOF; MS2; 150 V
Name: 3-(Diethylcarbamoyl)benzoic acid
Formula: C12H15NO3
Exact mass: 221.1052
SMILES: CCN(CC)C(=O)C1=CC(=CC=C1)C(=O)O
InChI: InChI=1S/C12H15NO3/c1-3-13(4-2)11(14)9-6-5-7-10(8-9)12(15)16/h5-8H,3-4H2,1-2H3,(H,15,16)
Instrument: TripleTOF 5600 SCIEX
Instrument type: LC-ESI-QTOF
Ms type: MS2
Ion mode: POSITIVE
Collision energy: 150
Fragmentation mode: CID
Ionization: ESI
Column name: Zorbax Eclipse Plus C18 2.1 mm x 150 mm, 3.5 um, Agilent
Retention time: 7.356 min
Precursor m/z: 222.1125
Precursor type: [M+H]+
m/z	relative intensity
37.0073	227
38.0153	181
39.0225	204
44.013	158
49.0072	249
50.0146	635
51.0227	295
73.0075	385
74.0141	999
75.0228	136
