Mass spectrum: 2`-Deoxyguanosine; LC-ESI-QTOF; MS2; 40 V
Name: 2`-Deoxyguanosine
Class: Natural_product
Formula: C10H13N5O4
Exact mass: 267.0968
SMILES: C1C(C(OC1N2C=NC3=C2NC(=NC3=O)N)CO)O
InChI: InChI=1S/C10H13N5O4/c11-10-13-8-7(9(18)14-10)12-3-15(8)6-1-4(17)5(2-16)19-6/h3-6,16-17H,1-2H2,(H3,11,13,14,18)
Instrument: TripleTOF 5600 SCIEX
Instrument type: LC-ESI-QTOF
Ms type: MS2
Ion mode: NEGATIVE
Collision energy: 40
Fragmentation mode: CID
Ionization: ESI
Column name: Zorbax Eclipse Plus C18 2.1 mm x 150 mm, 3.5 um, Agilent
Retention time: 4.09 min
Precursor m/z: 266.088
Precursor type: [M-H]-
m/z	relative intensity
66.0095	65
80.0254	107
104.9685	74
106.0223	66
107.036	217
108.0195	475
133.0146	803
150.0412	999
159.0303	61
176.0546	300
266.0824	158
