Mass spectrum: Naproxen; LC-ESI-QTOF; MS2; 100 V
Name: Naproxen
Class: Pharmaceutical
Formula: C14H14O3
Exact mass: 230.0943
SMILES: COc1ccc2cc(ccc2c1)C(C)C(O)=O
InChI: InChI=1S/C14H14O3/c1-9(14(15)16)10-3-4-12-8-13(17-2)6-5-11(12)7-10/h3-9H,1-2H3,(H,15,16)
Instrument: TripleTOF 5600 SCIEX
Instrument type: LC-ESI-QTOF
Ms type: MS2
Ion mode: POSITIVE
Collision energy: 100
Fragmentation mode: CID
Ionization: ESI
Column name: Zorbax Eclipse Plus C18 2.1 mm x 150 mm, 3.5 um, Agilent
Retention time: 10.907 min
Precursor m/z: 231.1016
Precursor type: [M+H]+
m/z	relative intensity
51.0281	31
65.0424	129
74.0177	55
75.0252	27
76.0337	47
77.0416	94
78.0501	23
86.0155	23
87.0247	35
89.0401	338
91.0545	35
102.047	102
113.0387	47
114.0454	35
115.0544	999
126.0467	74
127.0542	62
128.0622	47
139.054	70
141.0713	74
150.0444	62
151.053	82
152.0609	102
