Mass spectrum: Pyroxsulam; LC-ESI-QTOF; MS2; 110 V
Name: Pyroxsulam
Class: Herbicide
Formula: C14H13F3N6O5S
Exact mass: 434.062
SMILES: COC1=CC(=NC2=NC(=NN12)NS(=O)(=O)C3=C(C=CN=C3OC)C(F)(F)F)OC
InChI: InChI=1S/C14H13F3N6O5S/c1-26-8-6-9(27-2)23-13(19-8)20-12(21-23)22-29(24,25)10-7(14(15,16)17)4-5-18-11(10)28-3/h4-6H,1-3H3,(H,21,22)
Instrument: TripleTOF 6600 SCIEX
Instrument type: LC-ESI-QTOF
Ms type: MS2
Ion mode: NEGATIVE
Collision energy: 110
Fragmentation mode: CID
Ionization: ESI
Column name: Zorbax Eclipse Plus C18 2.1 mm x 150 mm, 3.5 um, Agilent
Retention time: 9.651 min
Precursor m/z: 433.0547
Precursor type: [M-H]-
m/z	relative intensity
40.0079	68
41.9979	55
50.0031	31
61.0078	43
64.0062	86
65.0136	186
65.9977	434
66.0081	999
68.9948	235
78.0331	24
78.999	31
86.0015	49
88.0174	62
89.0043	93
90.0084	68
93.0097	74
106.009	31
107.0117	99
108.0236	49
109.0197	24
116.012	31
116.0253	24
123.0253	24
134.0165	31
135.0017	37
147.021	43
153.011	24
154.0173	37
162.0155	43
172.0276	49
173.0174	43
184.0093	37
211.0256	31
227.0219	37
