Mass spectrum: 1-Methylguanine; LC-ESI-QTOF; MS2; 40 V
Name: 1-Methylguanine
Class: Natural_product
Formula: C6H7N5O
Exact mass: 165.0651
SMILES: CN1C(=Nc2nc[nH]c2C1=O)N
InChI: InChI=1S/C6H7N5O/c1-11-5(12)3-4(9-2-8-3)10-6(11)7/h2H,1H3,(H2,7,10)(H,8,9)
Instrument: TripleTOF 5600 SCIEX
Instrument type: LC-ESI-QTOF
Ms type: MS2
Ion mode: POSITIVE
Collision energy: 40
Fragmentation mode: CID
Ionization: ESI
Column name: Zorbax Eclipse Plus C18 2.1 mm x 150 mm, 3.5 um, Agilent
Retention time: 2.342 min
Precursor m/z: 166.0723
Precursor type: [M+H]+
m/z	relative intensity
53.0183	69
53.0282	17
55.0342	250
57.0497	82
65.0173	90
67.0331	190
80.0266	77
82.0426	129
93.0105	99
94.0406	95
107.0352	47
109.0505	177
110.0355	432
121.0511	82
134.0473	73
135.0296	999
149.0463	644
151.0486	38
166.0718	544
