Mass spectrum: Fexofenadinone; LC-ESI-QTOF; MS2; 100 V
Name: Fexofenadinone
Class: Pharmaceutical
Formula: C32H37NO4
Exact mass: 499.2723
SMILES: O=C(C1=CC=C(C(C)(C(O)=O)C)C=C1)CCCN(CCC2)CC2C(C3=CC=CC=C3)(O)C4=CC=CC=C4
InChI: InChI=1S/C32H37NO4/c1-31(2,30(35)36)25-19-17-24(18-20-25)29(34)16-10-22-33-21-9-15-28(23-33)32(37,26-11-5-3-6-12-26)27-13-7-4-8-14-27/h3-8,11-14,17-20,28,37H,9-10,15-16,21-23H2,1-2H3,(H,35,36)
Instrument: TripleTOF 5600 SCIEX
Instrument type: LC-ESI-QTOF
Ms type: MS2
Ion mode: POSITIVE
Collision energy: 100
Fragmentation mode: CID
Ionization: ESI
Column name: Zorbax Eclipse Plus C18 2.1 mm x 150 mm, 3.5 um, Agilent
Retention time: 8.706 min
Precursor m/z: 500.2795
Precursor type: [M+H]+
m/z	relative intensity
43.0186	10
65.0384	27
77.0387	55
78.0465	16
79.0545	38
89.0386	11
90.0457	56
91.0543	502
93.0334	17
93.0706	15
96.0816	15
102.047	19
103.0537	114
104.0618	25
105.0344	22
105.0705	23
107.0495	64
107.0866	18
115.0544	621
116.0612	48
117.0701	771
118.0778	999
119.0858	47
121.0281	148
127.0547	15
128.062	28
131.0489	176
131.0862	12
132.0931	72
135.0802	29
145.0651	45
145.1026	10
146.0731	489
147.045	11
147.0789	23
148.0525	38
163.0765	24
173.0973	92
176.0461	26
187.1144	13
188.12	18
191.0709	558
