Mass spectrum: Mefloquine; LC-ESI-QTOF; MS2; 150 V
Name: Mefloquine
Class: Pharmaceutical
Formula: C17H16F6N2O
Exact mass: 378.1167
SMILES: C1CCNC(C1)C(C2=CC(=NC3=C2C=CC=C3C(F)(F)F)C(F)(F)F)O
InChI: InChI=1S/C17H16F6N2O/c18-16(19,20)11-5-3-4-9-10(15(26)12-6-1-2-7-24-12)8-13(17(21,22)23)25-14(9)11/h3-5,8,12,15,24,26H,1-2,6-7H2
Instrument: TripleTOF 5600 SCIEX
Instrument type: LC-ESI-QTOF
Ms type: MS2
Ion mode: POSITIVE
Collision energy: 150
Fragmentation mode: CID
Ionization: ESI
Column name: Zorbax Eclipse Plus C18 2.1 mm x 150 mm, 3.5 um, Agilent
Retention time: 8.432 min
Precursor m/z: 379.124
Precursor type: [M+H]+
m/z	relative intensity
42.0485	38
51.019	24
51.0338	92
54.0423	67
56.0584	242
57.0201	111
65.0458	63
67.0469	223
68.0557	164
69.0014	412
70.0702	63
73.0109	43
74.0206	470
75.0105	203
75.0282	426
76.0215	24
76.0354	63
77.0443	223
78.0488	29
80.0542	96
81.0168	227
81.0607	19
82.0103	29
82.0695	271
83.0325	92
84.0026	38
84.0837	155
85.0118	232
86.0192	344
87.0263	451
88.0262	310
89.0417	106
92.0092	58
92.9973	67
93.0167	116
94.0256	72
95.0317	24
96.0818	29
97.0107	126
98.0171	824
99.0243	887
100.0015	29
100.02	271
101.0217	58
101.0355	24
101.0444	43
102.0453	63
102.9991	33
104.0092	53
105.0153	227
106.0204	169
107.03	189
108.0248	38
109.0093	106
110.0165	339
111.0238	446
112.0182	266
113.0388	446
114.0334	179
114.0505	29
115.0524	58
116.0065	77
116.9951	29
117.0151	203
118.0103	38
118.0237	58
119.016	24
119.0266	19
120.0009	43
121.0085	106
122.0162	557
123.0146	999
124.0004	33
124.0186	547
125.0176	58
125.0388	358
126.0167	29
126.0324	106
126.0455	213
127.0478	121
129.0137	82
129.0459	24
130.0136	53
131.0291	392
132.0239	106
132.0361	101
133.0437	106
134.014	92
135.0087	77
135.0234	77
136.0193	121
137.0384	489
138.0373	378
139.0512	252
140.0495	232
141.0133	184
142.0171	126
143.0114	24
143.0292	101
144.0334	111
145.0338	43
146.0146	193
146.0468	24
147.0117	572
148.0195	412
149.0214	300
149.0375	145
150.0453	504
151.0394	417
152.0486	261
153.0571	53
154.0155	43
155.0306	281
156.0272	150
157.0416	111
158.0404	237
159.0112	29
160.0115	48
161.0226	126
161.0406	48
162.0283	358
163.0518	223
164.0494	926
165.0141	19
165.0529	63
166.0201	63
166.0596	43
167.031	227
168.0367	358
169.0374	135
170.0403	38
170.0582	19
171.0115	63
171.0472	19
172.023	38
173.0194	126
174.0232	111
174.0405	63
175.0385	310
176.0378	174
176.0629	33
177.0503	58
178.0672	24
179.0294	82
179.06	58
180.0263	203
181.0472	164
182.0402	378
183.047	67
184.0577	24
185.0151	77
185.0361	33
186.0274	441
187.0184	19
187.0306	92
188.0475	242
189.0395	24
189.0523	53
190.0657	67
191.0158	24
191.0565	29
192.0278	58
193.0313	135
194.03	43
194.0488	33
195.0507	53
197.0178	38
198.0204	77
199.0373	101
200.03	174
201.0574	38
202.0417	29
202.0568	24
203.0644	38
204.024	77
205.0393	53
206.0394	116
207.0307	24
207.0401	33
208.0544	33
211.0247	43
212.0306	38
212.0488	24
213.0352	82
215.0239	24
217.0305	24
218.0241	38
219.0516	48
223.0279	19
224.0301	48
225.0416	24
227.0392	24
229.0242	19
230.0361	24
242.0202	19
