Mass spectrum: 2,4-Dinitrophenol; LC-ESI-QTOF; MS2; 150 V
Name: 2,4-Dinitrophenol
Class: Industrial_process
Formula: C6H4N2O5
Exact mass: 184.012
InChI: InChI=1S/C6H4N2O5/c9-6-2-1-4(7(10)11)3-5(6)8(12)13/h1-3,9H
Instrument: TripleTOF 5600 SCIEX
Instrument type: LC-ESI-QTOF
Ms type: CID
Ion mode: NEGATIVE
Collision energy: 150
Ionization: ESI
Column name: Zorbax Eclipse Plus C18 2.1 mm x 150 mm, 3.5 um, Agilent
Retention time: 9.209 min
Precursor m/z: 183.0047
Precursor type: [M-H]-
m/z	relative intensity
45.9956	999
