Mass spectrum: Triclosan; LC-ESI-QTOF; MS2; 140 V
Name: Triclosan
Class: Personal_care_product; Antimicrobial; Pharmaceutical
Formula: C12H7Cl3O2
Exact mass: 287.9512
SMILES: C1=CC(=C(C=C1Cl)O)OC2=C(C=C(C=C2)Cl)Cl
InChI: InChI=1S/C12H7Cl3O2/c13-7-1-3-11(9(15)5-7)17-12-4-2-8(14)6-10(12)16/h1-6,16H
Instrument: TripleTOF 5600 SCIEX
Instrument type: LC-ESI-QTOF
Ms type: MS2
Ion mode: NEGATIVE
Collision energy: 140
Fragmentation mode: CID
Ionization: ESI
Column name: Zorbax Eclipse Plus C18 2.1 mm x 150 mm, 3.5 um, Agilent
Retention time: 13.802 min
Precursor m/z: 286.9439
Precursor type: [M-H]-
m/z	relative intensity
34.9687	999
