Mass spectrum: Fluorescent brightener 363; LC-ESI-QTOF; MS2; 110 V
Name: Fluorescent brightener 363
Class: Pigment
Formula: [C19H19N2O4S]+
Exact mass: 371.106
SMILES: COC1=CC(OC(C2=[N+](C)C(C=C(S(=O)(C)=O)C=C3)=C3N2C)=C4)=C4C=C1
InChI: InChI=1S/C19H19N2O4S/c1-20-15-8-7-14(26(4,22)23)11-16(15)21(2)19(20)18-9-12-5-6-13(24-3)10-17(12)25-18/h5-11H,1-4H3/q+1
Instrument: TripleTOF 6600 SCIEX
Instrument type: LC-ESI-QTOF
Ms type: MS2
Ion mode: POSITIVE
Collision energy: 110
Fragmentation mode: CID
Ionization: ESI
Column name: Zorbax Eclipse Plus C18 2.1 mm x 150 mm, 3.5 um, Agilent
Retention time: 8.155 min
Precursor m/z: 371.106
Precursor type: [M]+
m/z	relative intensity
50.0151	90
51.0235	74
63.0222	66
65.038	49
75.0205	57
76.03	181
77.0376	288
89.0374	115
91.0526	123
102.0421	181
103.0396	82
104.0475	66
118.0396	57
128.0496	66
129.0438	115
130.0386	90
130.0525	57
131.0582	82
138.0462	99
140.049	66
150.0459	90
151.0548	338
152.0605	66
153.0565	90
155.0596	66
164.0499	321
165.0536	66
168.0677	66
169.0751	74
177.0569	214
178.0653	222
179.0597	181
180.0675	99
190.0578	82
191.0724	123
192.0689	156
193.077	156
194.0873	57
203.0585	173
204.0671	214
205.0754	999
206.082	66
216.0666	57
217.0779	123
218.0839	602
219.0907	503
220.0982	140
232.0631	49
