Mass spectrum: N,N-bis(ethoxycarbonyl)-4-methyl-1,3-phenylenediamine; LC-ESI-QTOF; MS2; 110 V
Name: N,N-bis(ethoxycarbonyl)-4-methyl-1,3-phenylenediamine
Class: Pharmaceutical
Formula: C13H18N2O4
Exact mass: 266.1267
SMILES: CCOC(=O)NC1=CC(=C(C=C1)C)NC(=O)OCC
InChI: InChI=1S/C13H18N2O4/c1-4-18-12(16)14-10-7-6-9(3)11(8-10)15-13(17)19-5-2/h6-8H,4-5H2,1-3H3,(H,14,16)(H,15,17)
Instrument: TripleTOF 5600 SCIEX
Instrument type: LC-ESI-QTOF
Ms type: MS2
Ion mode: POSITIVE
Collision energy: 110
Fragmentation mode: CID
Ionization: ESI
Column name: Zorbax Eclipse Plus C18 2.1 mm x 150 mm, 3.5 um, Agilent
Retention time: 10.056 min
Precursor m/z: 267.1339
Precursor type: [M+H]+
m/z	relative intensity
42.0511	10
54.0426	18
64.0391	12
65.0451	150
66.0515	39
67.0479	67
74.0205	22
75.029	32
76.0232	16
77.0436	999
78.0389	152
79.0468	125
80.0532	117
81.0616	12
89.0421	39
90.0476	10
91.0508	47
92.0506	41
93.0604	63
94.0666	41
102.0381	12
104.05	53
105.0467	152
106.0635	61
107.0643	18
108.0675	12
117.0615	12
