Mass spectrum: Sulfasalazine; LC-ESI-QTOF; MS2; 50 V
Name: Sulfasalazine
Class: Pharmaceutical
Formula: C18H14N4O5S
Exact mass: 398.0685
SMILES: C1=CC=NC(=C1)NS(=O)(=O)C2=CC=C(C=C2)NN=C3C=CC(=O)C(=C3)C(=O)O
InChI: InChI=1S/C18H14N4O5S/c23-16-9-6-13(11-15(16)18(24)25)21-20-12-4-7-14(8-5-12)28(26,27)22-17-3-1-2-10-19-17/h1-11,20H,(H,19,22)(H,24,25)
Instrument: TripleTOF 5600 SCIEX
Instrument type: LC-ESI-QTOF
Ms type: MS2
Ion mode: POSITIVE
Collision energy: 50
Fragmentation mode: CID
Ionization: ESI
Column name: Zorbax Eclipse Plus C18 2.1 mm x 150 mm, 3.5 um, Agilent
Retention time: 9.217 min
Precursor m/z: 399.0758
Precursor type: [M+H]+
m/z	relative intensity
63.0323	12
67.0486	97
76.0363	12
77.0432	24
81.0389	18
91.022	261
93.0506	29
94.0568	482
95.0644	12
105.0466	9
109.0306	18
119.0153	999
127.0556	12
128.0518	12
134.0268	15
137.025	169
139.0562	219
140.0521	19
143.0598	11
147.0203	619
155.0575	63
156.0703	14
157.008	21
157.0772	91
165.0312	203
167.0592	49
168.0673	79
169.0773	86
170.083	32
171.0552	16
181.0645	15
183.0529	26
183.0738	16
185.0362	21
185.0698	67
186.0561	16
195.0537	39
197.0711	22
211.0507	31
213.065	172
223.0492	707
224.0577	46
225.063	14
226.0642	15
234.0452	33
239.0454	360
241.0549	14
259.0872	19
287.081	41
289.1101	12
315.0752	19
315.0898	18
317.0991	19
317.1123	14
381.0697	38
