Mass spectrum: (3-Carboxypropyl)triphenylphosphonium; LC-ESI-QTOF; MS2; 140 V
Name: (3-Carboxypropyl)triphenylphosphonium
Class: Pharmaceutical
Formula: [C22H22O2P]+
Exact mass: 349.1352
SMILES: c1ccc(cc1)[P+](CCCC(=O)O)(c2ccccc2)c3ccccc3
InChI: InChI=1S/C22H21O2P/c23-22(24)17-10-18-25(19-11-4-1-5-12-19,20-13-6-2-7-14-20)21-15-8-3-9-16-21/h1-9,11-16H,10,17-18H2/p+1
Instrument: TripleTOF 5600 SCIEX
Instrument type: LC-ESI-QTOF
Ms type: MS2
Ion mode: POSITIVE
Collision energy: 140
Fragmentation mode: CID
Ionization: ESI
Column name: Zorbax Eclipse Plus C18 2.1 mm x 150 mm, 3.5 um, Agilent
Retention time: 7.192 min
Precursor m/z: 349.1352
Precursor type: [M]+
m/z	relative intensity
56.9923	73
65.0422	73
79.9825	107
80.9902	213
89.0386	243
102.0463	95
107.0049	863
113.038	75
115.0543	392
126.0467	251
131.0046	104
133.0195	72
139.054	315
150.046	204
151.0541	491
152.0623	999
155.0036	55
156.0121	82
157.0201	507
180.0118	72
181.0199	431
183.0365	132
226.078	65
