Mass spectrum: 2,2`-Dihydroxy-4-methoxybenzophenone; LC-ESI-QTOF; MS2; 90 V
Name: 2,2`-Dihydroxy-4-methoxybenzophenone
Class: Personal_care_product
Formula: C14H12O4
Exact mass: 244.0736
SMILES: COc1ccc(c(O)c1)C(=O)c2ccccc2O
InChI: InChI=1S/C14H12O4/c1-18-9-6-7-11(13(16)8-9)14(17)10-4-2-3-5-12(10)15/h2-8,15-16H,1H3
Instrument: TripleTOF 5600 SCIEX
Instrument type: LC-ESI-QTOF
Ms type: MS2
Ion mode: POSITIVE
Collision energy: 90
Fragmentation mode: CID
Ionization: ESI
Column name: Zorbax Eclipse Plus C18 2.1 mm x 150 mm, 3.5 um, Agilent
Retention time: 11.753 min
Precursor m/z: 245.0808
Precursor type: [M+H]+
m/z	relative intensity
51.0283	94
53.0061	62
65.0423	999
69.0013	86
77.0416	70
78.0478	31
80.0282	70
89.0387	39
93.0353	39
95.0502	31
102.0476	102
108.0222	78
115.0526	47
121.0277	39
126.0458	31
128.0646	39
139.0541	47
