Mass spectrum: Dronabinol; LC-ESI-QTOF; MS2; 70 V
Name: Dronabinol
Class: Pharmaceutical
Formula: C21H30O2
Exact mass: 314.2246
SMILES: CCCCCC1=CC(=C2C3C=C(CCC3C(OC2=C1)(C)C)C)O
InChI: InChI=1S/C21H30O2/c1-5-6-7-8-15-12-18(22)20-16-11-14(2)9-10-17(16)21(3,4)23-19(20)13-15/h11-13,16-17,22H,5-10H2,1-4H3
Instrument: TripleTOF 6600 SCIEX
Instrument type: LC-ESI-QTOF
Ms type: MS2
Ion mode: POSITIVE
Collision energy: 70
Fragmentation mode: CID
Ionization: ESI
Column name: Zorbax Eclipse Plus C18 2.1 mm x 150 mm, 3.5 um, Agilent
Retention time: 17.589 min
Precursor m/z: 315.2319
Precursor type: [M+H]+
m/z	relative intensity
37.0067	31
38.0145	34
39.0224	350
41.0384	721
43.0174	29
43.0537	138
51.0233	75
53.0369	75
55.0176	99
55.0531	92
57.0679	14
65.0377	253
66.0461	12
67.0533	438
68.9967	12
69.0315	41
69.0689	119
77.0377	999
78.045	36
79.0531	579
80.0601	14
81.0312	34
81.0685	319
83.0112	24
89.0375	12
91.053	830
92.0616	12
93.0339	14
93.0684	136
94.0414	14
95.0479	199
95.0836	21
103.052	99
104.0606	19
105.0388	34
105.0695	209
107.0472	197
107.0842	43
108.0552	77
109.0651	43
109.1	17
115.0532	168
116.0606	34
117.0686	56
119.0461	12
119.0844	34
121.0633	43
121.1013	24
123.0424	416
124.0475	9
127.0533	41
128.0604	107
129.0711	65
130.0756	14
131.0475	51
131.0833	21
132.0564	26
133.0624	19
136.0487	56
137.0569	36
141.0692	85
142.0744	21
143.0827	14
144.0564	43
145.0639	38
147.0419	60
147.0782	19
152.0596	19
153.0703	14
155.0612	14
155.0828	41
157.0627	21
158.0736	19
159.0418	12
159.0777	12
160.05	85
161.0574	75
165.0673	14
169.0616	14
173.0602	82
174.0667	80
175.0767	41
178.0733	17
181.0756	14
186.067	14
187.0758	90
188.0835	17
193.1193	21
