Mass spectrum: Propaquizafop; LC-ESI-QTOF; MS2; 150 V
Name: Propaquizafop
Class: Herbicide
Formula: C22H22ClN3O5
Exact mass: 443.1248
SMILES: CC(Oc1ccc(Oc2cnc3cc(Cl)ccc3n2)cc1)C(=O)OCCON=C(C)C
InChI: InChI=1S/C22H22ClN3O5/c1-14(2)26-29-11-10-28-22(27)15(3)30-17-5-7-18(8-6-17)31-21-13-24-20-12-16(23)4-9-19(20)25-21/h4-9,12-13,15H,10-11H2,1-3H3
Instrument: TripleTOF 6600 SCIEX
Instrument type: LC-ESI-QTOF
Ms type: MS2
Ion mode: POSITIVE
Collision energy: 150
Fragmentation mode: CID
Ionization: ESI
Column name: Zorbax Eclipse Plus C18 2.1 mm x 150 mm, 3.5 um, Agilent
Retention time: 15.307 min
Precursor m/z: 444.1321
Precursor type: [M+H]+
m/z	relative intensity
39.0228	114
42.0343	40
50.0153	57
51.0233	163
54.0345	81
55.0184	40
55.0421	131
56.0495	106
61.9786	49
62.0145	65
63.0233	147
65.0388	98
70.0651	90
72.9838	49
73.0082	106
74.0153	294
75.0228	204
77.0395	131
86.015	57
87.0227	90
88.0297	81
89.0393	98
90.033	32
91.054	90
99.0109	466
100.0184	999
102.0331	73
108.9833	57
109.9923	73
112.0297	57
113.0388	81
114.0337	90
123.0045	40
127.0413	32
135.9944	40
137.0392	180
138.0347	114
138.0457	106
139.0431	57
139.054	49
140.0503	90
151.0551	49
153.0437	32
162.034	49
163.0429	65
164.0048	57
164.0499	442
165.0459	106
189.0428	49
190.056	49
191.0624	73
192.0685	57
205.0784	32
