Mass spectrum: Dipyridamole; LC-ESI-QTOF; MS2; 110 V
Name: Dipyridamole
Class: Pharmaceutical
Formula: C24H40N8O4
Exact mass: 504.3173
SMILES: OCCN(CCO)c1nc(N2CCCCC2)c3nc(nc(N4CCCCC4)c3n1)N(CCO)CCO
InChI: InChI=1S/C24H40N8O4/c33-15-11-31(12-16-34)23-26-20-19(21(27-23)29-7-3-1-4-8-29)25-24(32(13-17-35)14-18-36)28-22(20)30-9-5-2-6-10-30/h33-36H,1-18H2
Instrument: TripleTOF 5600 SCIEX
Instrument type: LC-ESI-QTOF
Ms type: MS2
Ion mode: POSITIVE
Collision energy: 110
Fragmentation mode: CID
Ionization: ESI
Column name: Zorbax Eclipse Plus C18 2.1 mm x 150 mm, 3.5 um, Agilent
Retention time: 7.666 min
Precursor m/z: 505.3245
Precursor type: [M+H]+
m/z	relative intensity
56.0544	78
68.0502	67
69.0457	78
70.0683	123
78.035	44
79.0317	78
81.0453	101
82.0689	78
84.0813	202
86.0988	56
93.045	89
94.0402	123
94.0677	56
103.0342	44
104.0474	56
105.0443	101
106.0395	213
107.0459	56
107.0589	56
108.0567	145
116.0496	56
118.0397	190
118.075	44
119.0332	168
120.0551	213
121.0494	202
123.0665	56
130.0417	78
131.0382	67
132.0546	291
133.0502	392
134.0466	347
134.0649	101
135.0639	269
135.0899	56
136.0602	78
143.035	67
143.0585	56
144.0405	78
144.0549	101
145.049	448
146.0466	134
146.063	168
147.0519	67
147.0657	280
148.0608	381
149.0733	168
150.078	67
156.0543	67
157.0498	179
158.0587	89
159.0506	157
159.0665	314
160.061	976
160.0884	89
161.0584	572
161.0815	202
162.0624	134
162.0765	280
163.0731	179
164.0823	67
168.0563	78
169.0475	56
170.0467	78
170.0699	112
171.0645	190
172.0615	471
172.087	89
173.0663	763
174.0434	44
174.0767	662
174.0978	78
175.0716	572
176.0762	381
177.0771	168
177.0924	123
182.049	67
182.0704	67
183.0649	123
184.0609	213
185.0581	359
185.0805	190
186.0776	460
187.0722	999
188.0735	303
188.0922	235
189.0494	44
189.0873	550
190.0874	336
192.0932	123
196.0622	89
197.0738	67
198.0751	314
199.0731	404
199.0958	78
200.0889	505
201.0877	740
201.1101	112
202.083	886
203.0687	89
203.0991	269
203.1229	67
204.0754	78
204.0986	426
205.1066	101
206.1099	56
210.0754	145
211.0728	269
212.0881	448
213.0871	740
213.1103	56
214.0851	538
214.1058	235
215.0702	44
215.1024	505
216.0996	538
216.1262	112
217.0916	246
217.1102	101
217.1211	67
218.11	89
218.1276	67
219.1002	101
224.0909	89
225.0881	370
226.0891	314
226.1128	44
227.1025	493
227.1191	56
228.1012	561
229.09	145
229.1145	471
230.0773	56
230.1119	235
230.142	134
231.107	190
231.1341	56
232.1191	157
233.1107	89
234.1073	56
236.0935	78
237.0878	67
238.082	56
238.1029	56
239.1029	347
240.0976	336
240.1206	67
241.0992	134
241.1202	381
242.1151	448
243.111	392
243.1361	123
244.1261	224
245.1156	123
245.148	112
246.1129	101
247.1271	145
248.129	101
251.0998	67
252.0995	157
253.1183	258
254.1146	258
254.1306	44
255.1082	134
255.1337	168
256.1295	235
257.1173	101
257.1493	179
258.1136	89
258.1464	56
259.131	89
259.1654	56
260.1253	78
263.1042	44
265.1135	56
266.1188	67
267.1076	44
267.1216	89
268.1317	202
269.1313	168
270.1433	213
271.133	78
272.1237	179
272.1647	56
273.1434	44
274.146	78
275.1346	67
279.1242	56
280.1272	78
281.123	67
282.1487	112
284.1603	67
285.1453	67
286.1431	145
287.1324	56
288.1595	56
289.1795	56
293.1539	101
294.1484	44
296.162	78
297.166	67
299.167	67
300.1583	56
309.1578	89
311.1729	78
313.182	56
314.1686	56
316.1957	44
322.1814	56
326.1676	56
329.1841	44
341.186	56
353.1885	89
