Mass spectrum: 3,3`-Dichlorobenzidine; LC-ESI-QTOF; MS2; 140 V
Name: 3,3`-Dichlorobenzidine
Formula: C12H10Cl2N2
Exact mass: 252.0221
SMILES: C1=CC(=C(C=C1C2=CC(=C(C=C2)N)Cl)Cl)N
InChI: InChI=1S/C12H10Cl2N2/c13-9-5-7(1-3-11(9)15)8-2-4-12(16)10(14)6-8/h1-6H,15-16H2
Instrument: TripleTOF 6600 SCIEX
Instrument type: LC-ESI-QTOF
Ms type: MS2
Ion mode: POSITIVE
Collision energy: 140
Fragmentation mode: CID
Ionization: ESI
Column name: Zorbax Eclipse Plus C18 2.1 mm x 150 mm, 3.5 um, Agilent
Retention time: 11.426 min
Precursor m/z: 253.0294
Precursor type: [M+H]+
m/z	relative intensity
37.0073	66
38.0161	46
39.0238	122
49.0078	30
50.0156	384
51.0233	625
52.018	107
59.9997	35
61.0076	302
62.0152	496
63.0238	368
64.0183	25
65.0377	25
72.9838	20
73.0073	107
74.015	999
75.0094	25
75.0233	491
76.0189	40
76.0309	76
77.0382	230
83.9996	61
85.0072	322
86.0149	758
87.0225	225
88.0173	40
88.0294	25
89.039	71
97.0068	61
98.0154	435
99.0228	102
100.0175	20
100.0301	25
101.0378	35
102.0448	40
109.0081	107
110.0143	189
111.0232	40
113.0382	30
122.0132	46
125.0401	20
126.0443	97
137.0407	25
