Mass spectrum: 4-Carboxy-9-acridanone; LC-ESI-QTOF; MS2; 50 V
Name: 4-Carboxy-9-acridanone
Class: Pharmaceutical; Antimicrobial
Formula: C14H9NO3
Exact mass: 239.0582
SMILES: c1ccc2c(c1)c(=O)c3cccc(c3[nH]2)C(=O)O
InChI: InChI=1S/C14H9NO3/c16-13-8-4-1-2-7-11(8)15-12-9(13)5-3-6-10(12)14(17)18/h1-7H,(H,15,16)(H,17,18)
Instrument: TripleTOF 5600 SCIEX
Instrument type: LC-ESI-QTOF
Ms type: MS2
Ion mode: POSITIVE
Collision energy: 50
Fragmentation mode: CID
Ionization: ESI
Column name: Zorbax Eclipse Plus C18 2.1 mm x 150 mm, 3.5 um, Agilent
Retention time: 8.816 min
Precursor m/z: 240.0655
Precursor type: [M+H]+
m/z	relative intensity
76.0326	17
104.0247	26
113.036	17
115.0528	71
116.0487	21
139.0534	317
140.0489	451
165.0563	11
166.0646	999
194.0585	82
222.0534	54
