Mass spectrum: Phenylbutazone; LC-ESI-QTOF; MS2; 140 V
Name: Phenylbutazone
Class: Pharmaceutical
Formula: C19H20N2O2
Exact mass: 308.1525
SMILES: CCCCC1C(=O)N(N(C1=O)C2=CC=CC=C2)C3=CC=CC=C3
InChI: InChI=1S/C19H20N2O2/c1-2-3-14-17-18(22)20(15-10-6-4-7-11-15)21(19(17)23)16-12-8-5-9-13-16/h4-13,17H,2-3,14H2,1H3
Instrument: TripleTOF 5600 SCIEX
Instrument type: LC-ESI-QTOF
Ms type: MS2
Ion mode: POSITIVE
Collision energy: 140
Fragmentation mode: CID
Ionization: ESI
Column name: Zorbax Eclipse Plus C18 2.1 mm x 150 mm, 3.5 um, Agilent
Retention time: 13.103 min
Precursor m/z: 309.1598
Precursor type: [M+H]+
m/z	relative intensity
55.0284	38
64.039	24
66.0538	73
67.0555	17
74.0233	66
75.0288	45
77.0447	999
78.0373	21
78.0513	14
79.0574	14
89.0427	101
90.0525	17
91.059	112
92.0542	73
93.0596	45
94.071	14
103.0601	17
104.052	21
113.0392	14
115.0586	24
117.0623	24
130.0663	14
139.0577	31
140.0505	14
166.0705	17
