Mass spectrum: Trinexapac-ethyl; LC-ESI-QTOF; MS2; 30 V
Name: Trinexapac-ethyl
Class: Pesticide
Formula: C13H16O5
Exact mass: 252.0998
SMILES: CCOC(=O)C1CC(=O)C(=C(C2CC2)O)C(=O)C1
InChI: InChI=1S/C13H16O5/c1-2-18-13(17)8-5-9(14)11(10(15)6-8)12(16)7-3-4-7/h7-8,16H,2-6H2,1H3
Instrument: TripleTOF 6600 SCIEX
Instrument type: LC-ESI-QTOF
Ms type: MS2
Ion mode: NEGATIVE
Collision energy: 30
Fragmentation mode: CID
Ionization: ESI
Column name: Zorbax Eclipse Plus C18 2.1 mm x 150 mm, 3.5 um, Agilent
Retention time: 11.11 min
Precursor m/z: 251.0925
Precursor type: [M-H]-
m/z	relative intensity
83.048	115
95.012	86
107.0504	76
109.0276	230
111.045	76
119.0514	57
125.0579	67
133.0641	307
135.0066	76
135.0431	105
135.0796	144
137.0239	86
137.0594	537
141.0565	96
146.0348	76
159.0425	105
161.0598	259
163.04	124
177.0544	595
179.0693	182
183.0665	144
205.0486	230
251.0908	999
