Mass spectrum: Disperse Red 1; LC-ESI-QTOF; MS2; 30 V
Name: Disperse Red 1
Formula: C16H18N4O3
Exact mass: 314.1379
SMILES: CCN(CCO)C1=CC=C(C=C1)N=NC2=CC=C(C=C2)[N+](=O)[O-]
InChI: InChI=1S/C16H18N4O3/c1-2-19(11-12-21)15-7-3-13(4-8-15)17-18-14-5-9-16(10-6-14)20(22)23/h3-10,21H,2,11-12H2,1H3
Instrument: TripleTOF X500R SCIEX
Instrument type: LC-ESI-QTOF
Ms type: MS2
Ion mode: POSITIVE
Collision energy: 30
Fragmentation mode: CID
Ionization: ESI
Column name: Zorbax Eclipse Plus C18 2.1 mm x 150 mm, 3.5 um, Agilent
Retention time: 12.973 min
Precursor m/z: 315.1452
Precursor type: [M+H]+
m/z	relative intensity
106.0655	22
119.0653	17
120.0816	52
122.0244	64
132.0813	21
134.097	503
136.0765	39
147.0945	112
148.0869	33
149.0606	20
150.0304	128
164.0835	15
178.1107	105
251.1438	21
255.0886	365
267.1244	10
269.1051	13
269.1518	140
270.1117	66
271.1192	14
284.1284	285
286.1066	55
297.1357	58
315.1462	999
