Mass spectrum: Estrone 3-methyl ether; LC-ESI-QTOF; MS2; 100 V
Name: Estrone 3-methyl ether
Class: Pharmaceutical
Formula: C19H24O2
Exact mass: 284.1776
SMILES: C[C@]12CC[C@@H]3c4ccc(cc4CC[C@H]3[C@@H]1CCC2=O)OC
InChI: InChI=1S/C19H24O2/c1-19-10-9-15-14-6-4-13(21-2)11-12(14)3-5-16(15)17(19)7-8-18(19)20/h4,6,11,15-17H,3,5,7-10H2,1-2H3/t15-,16-,17+,19+/m1/s1
Instrument: TripleTOF 5600 SCIEX
Instrument type: LC-ESI-QTOF
Ms type: MS2
Ion mode: POSITIVE
Collision energy: 100
Fragmentation mode: CID
Ionization: ESI
Column name: Zorbax Eclipse Plus C18 2.1 mm x 150 mm, 3.5 um, Agilent
Retention time: 10.549 min
Precursor m/z: 285.1849
Precursor type: [M+H]+
m/z	relative intensity
55.0583	18
65.0429	136
76.034	32
77.0415	287
78.048	216
89.0401	136
91.0559	273
102.0449	273
103.0532	202
104.0629	42
115.0537	999
116.0621	32
121.0642	23
126.0444	47
127.0539	197
128.0608	579
129.0678	42
131.0481	80
132.0585	28
139.0521	51
141.0682	122
150.0495	32
151.0531	70
152.0612	315
153.0667	42
153.0773	28
163.051	42
164.0617	28
165.0696	155
176.0609	47
178.0764	65
