Mass spectrum: Proquinazid; LC-ESI-QTOF; MS2; 140 V
Name: Proquinazid
Class: Fungicide
Formula: C14H17IN2O2
Exact mass: 372.0335
SMILES: CCCN1C(=O)C2=C(C=CC(=C2)I)N=C1OCCC
InChI: InChI=1S/C14H17IN2O2/c1-3-7-17-13(18)11-9-10(15)5-6-12(11)16-14(17)19-8-4-2/h5-6,9H,3-4,7-8H2,1-2H3
Instrument: TripleTOF 6600 SCIEX
Instrument type: LC-ESI-QTOF
Ms type: MS2
Ion mode: POSITIVE
Collision energy: 140
Fragmentation mode: CID
Ionization: ESI
Column name: Zorbax Eclipse Plus C18 2.1 mm x 150 mm, 3.5 um, Agilent
Retention time: 17.121 min
Precursor m/z: 373.0408
Precursor type: [M+H]+
m/z	relative intensity
36.0034	15
37.0113	70
38.0186	100
39.0266	97
41.0428	44
50.0187	14
52.0223	41
60.0027	106
61.0108	515
62.0188	999
63.0154	85
63.0244	176
64.0222	17
64.0335	40
65.0295	40
66.0131	29
74.0178	17
75.0137	39
86.0053	20
87.0131	57
88.0213	355
89.0291	212
90.0373	23
91.0445	16
92.0288	21
116.0386	19
117.0235	50
140.9212	45
164.92	53
188.9196	16
215.9301	54
