Mass spectrum: Inosine 5`-monophosphate; LC-ESI-QTOF; MS2; 130 V
Name: Inosine 5`-monophosphate
Class: Metabolite
Formula: C10H13N4O8P
Exact mass: 348.0471
SMILES: O=P(O)(O)OCC(O1)C(C(O)C1N(C=N2)C3=C2C(NC=N3)=O)O
InChI: InChI=1S/C10H13N4O8P/c15-6-4(1-21-23(18,19)20)22-10(7(6)16)14-3-13-5-8(14)11-2-12-9(5)17/h2-4,6-7,10,15-16H,1H2,(H,11,12,17)(H2,18,19,20)
Instrument: TripleTOF 5600 SCIEX
Instrument type: LC-ESI-QTOF
Ms type: MS2
Ion mode: POSITIVE
Collision energy: 130
Fragmentation mode: CID
Ionization: ESI
Column name: Zorbax Eclipse Plus C18 2.1 mm x 150 mm, 3.5 um, Agilent
Retention time: 2.062 min
Precursor m/z: 349.0544
Precursor type: [M+H]+
m/z	relative intensity
39.0232	244
40.0185	101
41.0392	142
55.0295	999
62.9634	101
65.014	489
67.029	326
69.034	142
77.0164	81
80.9735	407
82.0408	509
92.0251	366
94.04	305
97.0299	163
98.9838	142
110.0359	468
119.0347	672
120.0169	101
137.0444	183
