Mass spectrum: Cyclopropyldiphenylsulfonium; LC-ESI-QTOF; MS2; 140 V
Name: Cyclopropyldiphenylsulfonium
Formula: [C15H15S]+
Exact mass: 227.0889
SMILES: C1CC1[S+](C2=CC=CC=C2)C3=CC=CC=C3
InChI: InChI=1S/C15H15S/c1-3-7-13(8-4-1)16(15-11-12-15)14-9-5-2-6-10-14/h1-10,15H,11-12H2/q+1
Instrument: TripleTOF 5600 SCIEX
Instrument type: LC-ESI-QTOF
Ms type: MS2
Ion mode: POSITIVE
Collision energy: 140
Fragmentation mode: CID
Ionization: ESI
Column name: Zorbax Eclipse Plus C18 2.1 mm x 150 mm, 3.5 um, Agilent
Retention time: 5.55 min
Precursor m/z: 227.0889
Precursor type: [M]+
m/z	relative intensity
37.0077	103
38.0153	56
39.0232	160
49.0072	207
50.0149	999
51.0229	753
61.0061	103
62.0148	160
63.0217	207
65.0378	56
68.9785	226
73.0067	94
74.0141	235
75.0216	84
85.0049	65
86.0139	75
87.0217	84
89.0376	131
98.0135	103
139.0553	47
150.045	84
