Mass spectrum: N,O-didesmethyl-venlafaxine; LC-ESI-QTOF; MS2; 130 V
Name: N,O-didesmethyl-venlafaxine
Class: Pharmaceutical; Metabolite; Transformation_product-Metabolite
Formula: C15H23NO2
Exact mass: 249.1729
SMILES: CNCC(c1ccc(cc1)O)C2(CCCCC2)O
InChI: InChI=1S/C15H23NO2/c1-16-11-14(12-5-7-13(17)8-6-12)15(18)9-3-2-4-10-15/h5-8,14,16-18H,2-4,9-11H2,1H3
Instrument: TripleTOF 5600 SCIEX
Instrument type: LC-ESI-QTOF
Ms type: MS2
Ion mode: POSITIVE
Collision energy: 130
Fragmentation mode: CID
Ionization: ESI
Column name: Zorbax Eclipse Plus C18 2.1 mm x 150 mm, 3.5 um, Agilent
Retention time: 5.659 min
Precursor m/z: 250.1802
Precursor type: [M+H]+
m/z	relative intensity
42.0416	53
42.0507	17
44.0579	999
53.0449	82
55.0228	35
63.044	11
65.0413	247
66.0495	29
74.017	58
75.0243	50
76.0348	20
77.0408	878
77.0791	17
78.0467	23
79.057	70
81.0336	14
81.0716	20
89.0391	114
91.0554	58
103.0532	20
107.0469	35
115.0535	88
127.0595	11
