Mass spectrum: Amitriptyline; LC-ESI-QTOF; MS2; 140 V
Name: Amitriptyline
Class: Pharmaceutical
Formula: C20H23N
Exact mass: 277.183
SMILES: CN(C)CCC=C1C2=CC=CC=C2CCC3=CC=CC=C31
InChI: InChI=1S/C20H23N/c1-21(2)15-7-12-20-18-10-5-3-8-16(18)13-14-17-9-4-6-11-19(17)20/h3-6,8-12H,7,13-15H2,1-2H3
Instrument: TripleTOF 6600 SCIEX
Instrument type: LC-ESI-QTOF
Ms type: MS2
Ion mode: POSITIVE
Collision energy: 140
Fragmentation mode: CID
Ionization: ESI
Column name: Zorbax Eclipse Plus C18 2.1 mm x 150 mm, 3.5 um, Agilent
Retention time: 8.708 min
Precursor m/z: 278.1903
Precursor type: [M+H]+
m/z	relative intensity
35.9997	20
37.0073	101
38.0152	73
39.0232	344
41.0384	16
42.0339	55
44.0495	17
49.0071	120
50.0151	583
51.0232	726
52.0305	42
59.9991	26
61.0072	180
62.0151	316
63.023	589
65.0386	269
73.007	43
74.0152	431
75.0228	218
76.0307	209
77.0388	343
78.0462	92
83.9992	12
85.0074	90
86.0148	207
87.0226	221
88.0304	23
89.0384	328
91.0539	50
97.0068	29
98.015	315
99.023	119
100.0305	56
101.0379	31
102.0463	223
109.0071	42
110.0148	116
111.0227	91
113.0388	120
114.0461	15
115.0539	263
121.0068	15
122.0149	121
123.0227	64
124.0304	39
125.0384	80
126.0463	267
127.0536	88
128.0615	55
129.0452	11
133.0071	13
134.0147	40
135.0214	24
137.0379	80
138.0467	28
139.0538	162
146.0151	25
147.0242	11
148.0309	25
149.0382	175
150.0465	899
151.0542	370
152.0617	137
155.0598	10
161.0383	189
162.0463	259
163.054	664
164.0618	68
165.0698	43
173.0378	51
174.0466	397
175.0539	117
176.0624	149
179.0613	17
185.0382	131
186.0465	227
187.0542	999
188.0621	147
189.07	180
197.0368	27
198.0466	320
199.0546	360
200.0624	816
201.0693	59
202.078	24
209.0385	12
210.0459	40
211.0543	244
212.0624	82
213.0696	304
215.0861	20
224.0614	18
