Mass spectrum: O-desmethyl-venlafaxine; LC-ESI-QTOF; MS2; 100 V
Name: O-desmethyl-venlafaxine
Class: Metabolite; Pharmaceutical
Formula: C16H25NO2
Exact mass: 263.1885
SMILES: CN(C)CC(C1=CC=C(C=C1)O)C2(CCCCC2)O
InChI: InChI=1S/C16H25NO2/c1-17(2)12-15(13-6-8-14(18)9-7-13)16(19)10-4-3-5-11-16/h6-9,15,18-19H,3-5,10-12H2,1-2H3
Instrument: TripleTOF 5600 SCIEX
Instrument type: LC-ESI-QTOF
Ms type: MS2
Ion mode: POSITIVE
Collision energy: 100
Fragmentation mode: CID
Ionization: ESI
Column name: Zorbax Eclipse Plus C18 2.1 mm x 150 mm, 3.5 um, Agilent
Retention time: 5.367 min
Precursor m/z: 264.1958
Precursor type: [M+H]+
m/z	relative intensity
42.0478	199
43.0554	67
55.0278	48
56.0603	38
58.0743	999
65.0454	74
77.0439	984
78.0491	19
79.0588	187
81.0386	26
81.0741	69
89.0409	36
91.0578	137
94.0448	21
103.0568	48
107.0507	272
115.0552	161
119.0498	33
120.0586	14
126.0478	9
127.0553	21
128.0628	28
131.0521	16
