Mass spectrum: Dichlorvos; LC-ESI-QTOF; MS2; 60 V
Name: Dichlorvos
Class: Insecticide; Transformation_product; Pharmaceutical
Formula: C4H7Cl2O4P
Exact mass: 219.9459
SMILES: CO[P](=O)(OC)OC=C(Cl)Cl
InChI: InChI=1S/C4H7Cl2O4P/c1-8-11(7,9-2)10-3-4(5)6/h3H,1-2H3
Instrument: TripleTOF 5600 SCIEX
Instrument type: LC-ESI-QTOF
Ms type: MS2
Ion mode: POSITIVE
Collision energy: 60
Fragmentation mode: CID
Ionization: ESI
Column name: Zorbax Eclipse Plus C18 2.1 mm x 150 mm, 3.5 um, Agilent
Retention time: 9.126 min
Precursor m/z: 220.9532
Precursor type: [M+H]+
m/z	relative intensity
43.0248	48
55.0605	243
59.9812	670
65.0413	207
77.0404	645
78.9962	584
79.0153	60
79.0563	328
91.0558	743
94.9458	999
94.9907	353
96.9598	85
103.0539	109
107.0506	73
109.0052	730
111.9485	121
115.0533	134
127.0155	48
