Mass spectrum: 4'-O-Demethyl pantoprazole sulfide; LC-ESI-QTOF; MS2; 80 V
Name: 4'-O-Demethyl pantoprazole sulfide
Class: Pharmaceutical; Transformation_product-Metabolite
Formula: C15H13F2N3O3S
Exact mass: 353.0646
SMILES: COC1=C(NC=CC1=O)CSC2=NC3=C(N2)C=C(C=C3)OC(F)F
InChI: InChI=1S/C15H13F2N3O3S/c1-22-13-11(18-5-4-12(13)21)7-24-15-19-9-3-2-8(23-14(16)17)6-10(9)20-15/h2-6,14H,7H2,1H3,(H,18,21)(H,19,20)
Instrument: TripleTOF 6600 SCIEX
Instrument type: LC-ESI-QTOF
Ms type: MS2
Ion mode: POSITIVE
Collision energy: 80
Fragmentation mode: CID
Ionization: ESI
Column name: Zorbax Eclipse Plus C18 2.1 mm x 150 mm, 3.5 um, Agilent
Retention time: 7.57 min
Precursor m/z: 354.0719
Precursor type: [M+H]+
m/z	relative intensity
37.0069	25
38.0144	26
39.0222	208
41.0259	22
41.0377	21
42.0335	130
43.0175	14
44.0118	13
51.0222	22
52.0167	21
53.0011	32
53.0378	999
54.0328	37
55.0166	56
61.006	9
62.015	12
63.022	220
64.0171	16
65.0376	106
66.0089	103
66.0324	40
66.0453	44
67.0171	344
67.0403	265
68.0119	78
68.0487	18
69.0313	12
70.0279	72
70.9931	14
78.0327	61
79.041	18
80.0132	33
80.0481	686
81.0323	82
82.0278	18
82.0636	79
83.0346	26
86.0055	28
90.0322	179
92.0483	109
93.0557	87
94.0273	165
95.035	254
96.043	165
98.0573	16
99.0125	86
106.0523	18
107.0583	64
108.0429	471
109.0512	37
110.0586	188
111.0299	37
117.0429	87
118.0512	168
120.0423	53
124.0382	35
125.0443	18
125.9991	253
126.054	30
127.0065	203
134.0469	36
135.0542	444
136.0371	298
137.0139	20
137.9989	14
138.0536	57
140.0152	52
141.0409	12
142.0306	10
142.051	16
155.0021	86
159.0518	36
165.0101	25
166.0188	25
170.0276	18
209.0505	24
210.069	10
211.0712	13
228.0797	16
