Mass spectrum: Tributyltetradecylphosphonium; LC-ESI-QTOF; MS2; 130 V
Name: Tributyltetradecylphosphonium
Formula: [C26H56P]+
Exact mass: 399.4114
SMILES: CCCCCCCCCCCCCC[P+](CCCC)(CCCC)CCCC
InChI: InChI=1S/C26H56P/c1-5-9-13-14-15-16-17-18-19-20-21-22-26-27(23-10-6-2,24-11-7-3)25-12-8-4/h5-26H2,1-4H3/q+1
Instrument: TripleTOF 5600 SCIEX
Instrument type: LC-ESI-QTOF
Ms type: MS2
Ion mode: POSITIVE
Collision energy: 130
Fragmentation mode: CID
Ionization: ESI
Column name: Zorbax Eclipse Plus C18 2.1 mm x 150 mm, 3.5 um, Agilent
Retention time: 14.891 min
Precursor m/z: 399.4114
Precursor type: [M]+
m/z	relative intensity
39.0233	93
41.0391	131
43.9812	131
44.9894	265
45.997	247
47.0046	144
56.9888	436
59.0044	557
61.02	999
62.0278	436
73.0191	109
75.0351	503
76.0427	557
89.0497	77
115.0649	59
