Mass spectrum: Pantoprazole sulfide; LC-ESI-QTOF; MS2; 90 V
Name: Pantoprazole sulfide
Class: Pharmaceutical; Metabolite; Transformation_product-Metabolite
Formula: C16H15F2N3O3S
Exact mass: 367.0802
SMILES: COC1=C(C(=NC=C1)CSC2=NC3=C(N2)C=CC(=C3)OC(F)F)OC
InChI: InChI=1S/C16H15F2N3O3S/c1-22-13-5-6-19-12(14(13)23-2)8-25-16-20-10-4-3-9(24-15(17)18)7-11(10)21-16/h3-7,15H,8H2,1-2H3,(H,20,21)
Instrument: TripleTOF 5600 SCIEX
Instrument type: LC-ESI-QTOF
Ms type: MS2
Ion mode: NEGATIVE
Collision energy: 90
Fragmentation mode: CID
Ionization: ESI
Column name: Zorbax Eclipse Plus C18 2.1 mm x 150 mm, 3.5 um, Agilent
Retention time: 7.575 min
Precursor m/z: 366.0729
Precursor type: [M-H]-
m/z	relative intensity
57.9753	438
65.9981	231
77.0137	170
81.9763	60
89.0135	97
92.0137	109
102.023	219
113.0147	109
115.0326	60
116.0136	73
117.9756	60
118.9854	48
119.025	791
135.0035	73
145.9945	536
147.0074	60
161.0176	158
162.9969	999
172.9816	60
192.9871	85
193.9923	60
