Mass spectrum: Repaglinide; LC-ESI-QTOF; MS2; 150 V
Name: Repaglinide
Class: Pharmaceutical
Formula: C27H36N2O4
Exact mass: 452.2675
SMILES: CCOc1cc(CC(=O)N[C@@H](CC(C)C)c2ccccc2N3CCCCC3)ccc1C(O)=O
InChI: InChI=1S/C27H36N2O4/c1-4-33-25-17-20(12-13-22(25)27(31)32)18-26(30)28-23(16-19(2)3)21-10-6-7-11-24(21)29-14-8-5-9-15-29/h6-7,10-13,17,19,23H,4-5,8-9,14-16,18H2,1-3H3,(H,28,30)(H,31,32)/t23-/m0/s1
Instrument: TripleTOF 5600 SCIEX
Instrument type: LC-ESI-QTOF
Ms type: MS2
Ion mode: POSITIVE
Collision energy: 150
Fragmentation mode: CID
Ionization: ESI
Column name: Zorbax Eclipse Plus C18 2.1 mm x 150 mm, 3.5 um, Agilent
Retention time: 10.348 min
Precursor m/z: 453.2748
Precursor type: [M+H]+
m/z	relative intensity
65.0432	215
77.0421	441
78.0482	12
79.0568	36
86.0981	10
89.0408	266
90.0482	235
91.0563	574
93.0579	12
102.046	30
103.0548	240
104.0503	32
105.0345	17
105.0702	15
106.0653	49
115.0545	231
116.0512	30
116.0613	28
117.058	435
118.0652	99
127.0537	51
128.0513	127
129.0629	38
130.0656	999
131.0727	53
132.0804	20
142.0651	46
143.0731	205
144.0809	268
156.0807	42
157.088	24
158.096	55
170.0959	22
172.112	24
