Mass spectrum: Sunitinib; LC-ESI-QTOF; MS2; 80 V
Name: Sunitinib
Class: Pharmaceutical
Formula: C22H27FN4O2
Exact mass: 398.2118
SMILES: CCN(CC)CCNC(=O)C1=C(NC(=C1C)C=C2C3=C(C=CC(=C3)F)NC2=O)C
InChI: InChI=1S/C22H27FN4O2/c1-5-27(6-2)10-9-24-22(29)20-13(3)19(25-14(20)4)12-17-16-11-15(23)7-8-18(16)26-21(17)28/h7-8,11-12,25H,5-6,9-10H2,1-4H3,(H,24,29)(H,26,28)
Instrument: TripleTOF 5600 SCIEX
Instrument type: LC-ESI-QTOF
Ms type: MS2
Ion mode: NEGATIVE
Collision energy: 80
Fragmentation mode: CID
Ionization: ESI
Column name: Zorbax Eclipse Plus C18 2.1 mm x 150 mm, 3.5 um, Agilent
Retention time: 6.516 min
Precursor m/z: 397.2045
Precursor type: [M-H]-
m/z	relative intensity
42.0019	606
78.0325	71
94.0659	178
134.0398	249
149.0295	499
150.0353	178
158.0391	71
159.0366	142
162.0364	356
175.033	71
184.0618	71
187.0287	285
188.0338	178
188.0492	107
209.0515	71
211.0689	999
212.0484	71
212.074	499
222.0596	178
223.0664	71
225.0518	178
225.0809	71
233.0728	71
236.0756	107
237.058	142
237.0764	178
238.0545	178
239.0617	499
240.0697	107
250.068	35
251.0653	71
252.0722	321
253.0793	356
266.0628	35
278.0752	142
280.0588	35
296.0793	71
