Mass spectrum: Doxepin; LC-ESI-QTOF; MS2; 50 V
Name: Doxepin
Class: Pharmaceutical
Formula: C19H21NO
Exact mass: 279.1623
SMILES: CN(C)CCC=C1C2=CC=CC=C2COC3=CC=CC=C31
InChI: InChI=1S/C19H21NO/c1-20(2)13-7-11-17-16-9-4-3-8-15(16)14-21-19-12-6-5-10-18(17)19/h3-6,8-12H,7,13-14H2,1-2H3
Instrument: TripleTOF 5600 SCIEX
Instrument type: LC-ESI-QTOF
Ms type: MS2
Ion mode: POSITIVE
Collision energy: 50
Fragmentation mode: CID
Ionization: ESI
Column name: Zorbax Eclipse Plus C18 2.1 mm x 150 mm, 3.5 um, Agilent
Retention time: 7.447 min
Precursor m/z: 280.1696
Precursor type: [M+H]+
m/z	relative intensity
42.0463	30
55.0269	10
58.0737	148
65.0454	33
70.0718	86
72.0859	11
77.0444	497
79.0596	342
82.0703	20
84.0858	251
85.0932	14
89.0412	10
91.0585	479
103.0569	41
105.0728	29
107.0522	999
115.0568	628
116.064	13
117.0722	306
119.0515	21
127.0557	67
128.0643	198
129.0715	197
131.0508	127
141.0715	421
142.0793	100
151.056	15
152.063	145
153.0704	27
157.0637	28
164.0618	11
165.0706	608
166.0779	238
167.0857	213
168.0566	21
176.0631	27
177.07	67
178.0779	595
179.0853	209
181.0635	27
181.0989	12
189.0708	92
190.078	101
191.0855	421
192.0936	215
193.0644	32
194.0727	351
195.0804	30
200.0624	19
201.07	98
202.0775	826
203.0856	115
205.0648	78
205.1002	12
207.0808	122
215.0849	270
216.093	65
217.1019	29
218.0711	55
219.08	368
220.0883	374
233.0949	17
234.1015	10
