Mass spectrum: Flavanone; LC-ESI-QTOF; MS2; 90 V
Name: Flavanone
Class: Personal_care_product
Formula: C15H12O2
Exact mass: 224.0837
SMILES: C1C(OC2=CC=CC=C2C1=O)C3=CC=CC=C3
InChI: InChI=1S/C15H12O2/c16-13-10-15(11-6-2-1-3-7-11)17-14-9-5-4-8-12(13)14/h1-9,15H,10H2
Instrument: TripleTOF 5600 SCIEX
Instrument type: LC-ESI-QTOF
Ms type: MS2
Ion mode: POSITIVE
Collision energy: 90
Fragmentation mode: CID
Ionization: ESI
Column name: Zorbax Eclipse Plus C18 2.1 mm x 150 mm, 3.5 um, Agilent
Retention time: 12.61 min
Precursor m/z: 225.091
Precursor type: [M+H]+
m/z	relative intensity
37.0073	65
38.0148	65
39.0231	297
49.0082	23
50.0149	130
51.0226	440
53.0027	23
63.0218	47
65.0383	422
74.0149	77
75.023	101
76.0335	41
77.0383	999
91.0561	23
93.034	35
102.0469	107
103.0532	59
115.0555	35
126.0476	71
127.0522	41
139.0521	29
149.0393	29
150.0465	202
151.0532	243
152.0613	208
175.0531	47
176.0618	208
