Mass spectrum: Ethyldiphenylphosphine oxide; LC-ESI-QTOF; MS2; 30 V
Name: Ethyldiphenylphosphine oxide
Class: Industrial_process
Formula: C14H15OP
Exact mass: 230.0861
SMILES: CC[P](=O)(c1ccccc1)c2ccccc2
InChI: InChI=1S/C14H15OP/c1-2-16(15,13-9-5-3-6-10-13)14-11-7-4-8-12-14/h3-12H,2H2,1H3
Instrument: TripleTOF 5600 SCIEX
Instrument type: LC-ESI-QTOF
Ms type: MS2
Ion mode: POSITIVE
Collision energy: 30
Fragmentation mode: CID
Ionization: ESI
Column name: Zorbax Eclipse Plus C18 2.1 mm x 150 mm, 3.5 um, Agilent
Retention time: 8.816 min
Precursor m/z: 231.0933
Precursor type: [M+H]+
m/z	relative intensity
105.0703	32
109.0206	58
125.0158	526
153.0467	799
231.0931	999
