Mass spectrum: Tributylmethylammonium; LC-ESI-QTOF; MS2; 140 V
Name: Tributylmethylammonium
Class: Industrial_process
Formula: [C13H30N]+
Exact mass: 200.2373
SMILES: CCCC[N+](C)(CCCC)CCCC
InChI: InChI=1S/C13H30N/c1-5-8-11-14(4,12-9-6-2)13-10-7-3/h5-13H2,1-4H3/q+1
Instrument: TripleTOF 5600 SCIEX
Instrument type: LC-ESI-QTOF
Ms type: MS2
Ion mode: POSITIVE
Collision energy: 140
Fragmentation mode: CID
Ionization: ESI
Column name: Zorbax Eclipse Plus C18 2.1 mm x 150 mm, 3.5 um, Agilent
Retention time: 7.009 min
Precursor m/z: 200.2373
Precursor type: [M]+
m/z	relative intensity
42.0438	999
43.0504	112
44.0582	313
56.0553	69
58.0707	309
