Mass spectrum: 3,7-Dimethylxanthine; LC-ESI-QTOF; MS2; 50 V
Name: 3,7-Dimethylxanthine
Class: Pharmaceutical; Natural_product
Formula: C7H8N4O2
Exact mass: 180.0647
SMILES: Cn1cnc2N(C)C(=O)NC(=O)c12
InChI: InChI=1S/C7H8N4O2/c1-10-3-8-5-4(10)6(12)9-7(13)11(5)2/h3H,1-2H3,(H,9,12,13)
Instrument: TripleTOF 5600 SCIEX
Instrument type: LC-ESI-QTOF
Ms type: MS2
Ion mode: NEGATIVE
Collision energy: 50
Fragmentation mode: CID
Ionization: ESI
Column name: Zorbax Eclipse Plus C18 2.1 mm x 150 mm, 3.5 um, Agilent
Retention time: 5.242 min
Precursor m/z: 179.0574
Precursor type: [M-H]-
m/z	relative intensity
45.0002	999
45.0192	98
47.0112	168
65.998	351
79.0179	309
90.9975	225
92.0267	98
94.0409	182
107.0116	211
122.0356	98
135.0079	84
135.0299	211
164.0348	112
