Mass spectrum: Piroxicam; LC-ESI-QTOF; MS2; 30 V
Name: Piroxicam
Class: Pharmaceutical
Formula: C15H13N3O4S
Exact mass: 331.0627
SMILES: CN1C(=C(C2=CC=CC=C2S1(=O)=O)O)C(=O)NC3=CC=CC=N3
InChI: InChI=1S/C15H13N3O4S/c1-18-13(15(20)17-12-8-4-5-9-16-12)14(19)10-6-2-3-7-11(10)23(18,21)22/h2-9,19H,1H3,(H,16,17,20)
Instrument: TripleTOF 5600 SCIEX
Instrument type: LC-ESI-QTOF
Ms type: MS2
Ion mode: POSITIVE
Collision energy: 30
Fragmentation mode: CID
Ionization: ESI
Column name: Zorbax Eclipse Plus C18 2.1 mm x 150 mm, 3.5 um, Agilent
Retention time: 9.527 min
Precursor m/z: 332.07
Precursor type: [M+H]+
m/z	relative intensity
78.0385	95
95.0641	999
105.047	17
107.0629	23
121.0415	745
123.0567	39
135.057	21
136.0877	53
137.0062	10
149.0587	24
152.9992	48
162.0654	54
164.0166	33
164.0817	435
168.9954	22
210.0216	104
332.0695	123
