Mass spectrum: 2-Ethyl-6-methylaniline; LC-ESI-QTOF; MS2; 90 V
Name: 2-Ethyl-6-methylaniline
Class: Industrial_process
Formula: C9H13N
Exact mass: 135.1048
SMILES: CCC1=CC=CC(=C1N)C
InChI: InChI=1S/C9H13N/c1-3-8-6-4-5-7(2)9(8)10/h4-6H,3,10H2,1-2H3
Instrument: TripleTOF 5600 SCIEX
Instrument type: LC-ESI-QTOF
Ms type: MS2
Ion mode: POSITIVE
Collision energy: 90
Fragmentation mode: CID
Ionization: ESI
Column name: Zorbax Eclipse Plus C18 2.1 mm x 150 mm, 3.5 um, Agilent
Retention time: 7.958 min
Precursor m/z: 136.1121
Precursor type: [M+H]+
m/z	relative intensity
35.9991	65
37.0071	210
38.0157	78
39.0227	473
49.0071	170
50.015	999
51.0228	920
52.0304	65
61.0074	276
62.0152	420
63.0228	381
65.0388	131
74.014	144
77.0382	197
89.0394	52
