Mass spectrum: Azo Rubin S; LC-ESI-QTOF; MS2; 80 V
Name: Azo Rubin S
Formula: C20H14N2O7S2
Exact mass: 458.0242
SMILES: C1=CC=C2C(=C1)C(=CC=C2S(=O)(=O)O)N=NC3=C(C4=CC=CC=C4C(=C3)S(=O)(=O)O)O
InChI: InChI=1S/C20H14N2O7S2/c23-20-15-8-4-3-7-14(15)19(31(27,28)29)11-17(20)22-21-16-9-10-18(30(24,25)26)13-6-2-1-5-12(13)16/h1-11,23H,(H,24,25,26)(H,27,28,29)
Instrument: TripleTOF 6600 SCIEX
Instrument type: LC-ESI-QTOF
Ms type: MS2
Ion mode: POSITIVE
Collision energy: 80
Fragmentation mode: CID
Ionization: ESI
Column name: Zorbax Eclipse Plus C18 2.1 mm x 150 mm, 3.5 um, Agilent
Retention time: 7.286 min
Precursor m/z: 459.0315
Precursor type: [M+H]+
m/z	relative intensity
52.018	16
64.9689	11
77.0382	79
80.0125	134
89.0378	56
101.0385	10
103.0537	262
104.0475	17
105.0325	36
115.0534	209
116.0489	63
126.0337	19
128.0499	16
130.0647	999
131.0484	36
140.0486	53
141.0564	10
142.0645	156
143.0721	57
154.0355	20
158.0598	475
159.0664	16
223.029	58
240.0798	18
251.0739	13
252.0835	15
266.0846	46
267.0917	70
268.0989	39
278.0829	24
279.0907	57
280.1006	35
