Mass spectrum: 1-Boc-4-[3-(ethoxycarbonyl)phenyl]piperazine; LC-ESI-QTOF; MS2; 140 V
Name: 1-Boc-4-[3-(ethoxycarbonyl)phenyl]piperazine
Formula: C18H26N2O4
Exact mass: 334.1893
SMILES: CCOC(=O)C1=CC(=CC=C1)N2CCN(CC2)C(=O)OC(C)(C)C
InChI: InChI=1S/C18H26N2O4/c1-5-23-16(21)14-7-6-8-15(13-14)19-9-11-20(12-10-19)17(22)24-18(2,3)4/h6-8,13H,5,9-12H2,1-4H3
Instrument: TripleTOF 6600 SCIEX
Instrument type: LC-ESI-QTOF
Ms type: MS2
Ion mode: POSITIVE
Collision energy: 140
Fragmentation mode: CID
Ionization: ESI
Column name: Zorbax Eclipse Plus C18 2.1 mm x 150 mm, 3.5 um, Agilent
Retention time: 14.611 min
Precursor m/z: 335.1965
Precursor type: [M+H]+
m/z	relative intensity
35.999	26
37.0074	197
38.0027	53
38.0151	160
39.0232	999
41.0389	170
42.034	80
44.0495	80
49.0072	90
50.015	432
51.023	982
52.0311	64
53.0131	26
53.0387	26
61.0073	37
62.0154	69
63.0229	186
64.0299	26
65.0386	774
66.0461	42
73.0073	37
74.0151	208
75.0227	272
76.0299	37
77.0384	609
78.0336	58
78.0459	64
89.0382	384
90.0466	149
91.0545	731
92.0494	48
93.0571	42
102.0457	48
104.0496	74
105.0454	26
116.0486	42
117.0568	235
118.0649	122
121.0277	21
130.0645	21
148.0372	21
