Mass spectrum: Carbadox; LC-ESI-QTOF; MS2; 90 V
Name: Carbadox
Class: Antimicrobial; Pharmaceutical
Formula: C11H10N4O4
Exact mass: 262.0702
SMILES: COC(=O)N=NC=C1C=[N+]([O-])c2ccccc2N1O
InChI: InChI=1S/C11H10N4O4/c1-19-11(16)13-12-6-8-7-14(17)9-4-2-3-5-10(9)15(8)18/h2-7,18H,1H3
Instrument: TripleTOF 5600 SCIEX
Instrument type: LC-ESI-QTOF
Ms type: MS2
Ion mode: POSITIVE
Collision energy: 90
Fragmentation mode: CID
Ionization: ESI
Column name: Zorbax Eclipse Plus C18 2.1 mm x 150 mm, 3.5 um, Agilent
Retention time: 5.823 min
Precursor m/z: 263.0775
Precursor type: [M+H]+
m/z	relative intensity
52.0227	142
52.0343	28
63.0148	22
63.0556	39
64.0465	45
65.0307	45
65.042	51
73.011	34
74.0177	502
75.0261	981
76.0222	228
76.0327	884
77.041	559
78.0355	91
88.0209	39
89.0272	45
89.0387	102
90.035	353
91.042	108
100.02	39
101.0401	45
102.0345	999
102.0628	45
103.042	313
114.0335	79
116.0378	91
129.0455	62
130.0398	119
