Mass spectrum: 3-O-benzyl estriol; LC-ESI-QTOF; MS2; 40 V
Name: 3-O-benzyl estriol
Class: Pharmaceutical
Formula: C25H30O3
Exact mass: 378.2195
SMILES: CC12CCC3C(C1CC(C2O)O)CCC4=C3C=CC(=C4)OCC5=CC=CC=C5
InChI: InChI=1S/C25H30O3/c1-25-12-11-20-19-10-8-18(28-15-16-5-3-2-4-6-16)13-17(19)7-9-21(20)22(25)14-23(26)24(25)27/h2-6,8,10,13,20-24,26-27H,7,9,11-12,14-15H2,1H3
Instrument: TripleTOF 5600 SCIEX
Instrument type: LC-ESI-QTOF
Ms type: MS2
Ion mode: POSITIVE
Collision energy: 40
Fragmentation mode: CID
Ionization: ESI
Column name: Zorbax Eclipse Plus C18 2.1 mm x 150 mm, 3.5 um, Agilent
Retention time: 13.267 min
Precursor m/z: 379.2268
Precursor type: [M+H]+
m/z	relative intensity
65.0423	23
91.056	999
133.0657	29
145.0639	10
147.115	13
157.0624	18
159.0795	23
195.0812	23
197.095	44
209.0977	18
211.1106	21
213.1253	13
225.128	15
251.1437	55
269.1504	37
287.1654	21
301.1819	34
343.2067	13
379.225	13
