Mass spectrum: N-[4-(1H-benzimidazol-2-yl)phenyl]-N,N-dimethylamine; LC-ESI-QTOF; MS2; 90 V
Name: N-[4-(1H-benzimidazol-2-yl)phenyl]-N,N-dimethylamine
Class: Pharmaceutical
Formula: C15H15N3
Exact mass: 237.1266
SMILES: CN(C)C1=CC=C(C=C1)C2=NC3=CC=CC=C3N2
InChI: InChI=1S/C15H15N3/c1-18(2)12-9-7-11(8-10-12)15-16-13-5-3-4-6-14(13)17-15/h3-10H,1-2H3,(H,16,17)
Instrument: TripleTOF 5600 SCIEX
Instrument type: LC-ESI-QTOF
Ms type: MS2
Ion mode: POSITIVE
Collision energy: 90
Fragmentation mode: CID
Ionization: ESI
Column name: Zorbax Eclipse Plus C18 2.1 mm x 150 mm, 3.5 um, Agilent
Retention time: 6.517 min
Precursor m/z: 238.1339
Precursor type: [M+H]+
m/z	relative intensity
52.0293	25
64.0384	158
65.0461	753
66.0516	10
74.0203	10
75.0282	39
76.0232	11
77.0443	166
78.048	17
89.0425	264
90.0496	126
91.0444	150
92.0528	169
102.0364	84
103.0454	28
104.051	71
113.0417	27
114.045	16
115.0548	57
116.0508	32
117.0568	17
118.0535	34
119.0642	10
127.0559	25
128.052	22
129.0448	50
130.0445	17
131.0604	11
138.048	52
139.0554	332
140.0507	250
141.0601	14
142.0591	11
143.0613	85
145.0784	13
152.0479	14
153.0558	11
154.0679	34
155.0634	11
164.0497	155
165.0576	95
166.0661	452
167.0714	196
168.0699	57
179.0623	19
181.0757	15
191.0614	117
192.0689	760
193.077	999
194.085	167
205.0758	11
206.0732	11
220.0869	11
