Mass spectrum: Flufenacet ESA; LC-ESI-QTOF; MS2; 20 V
Name: Flufenacet ESA
Class: Herbicide; Transformation_product
Formula: C11H14FNO4S
Exact mass: 275.0628
SMILES: CC(C)N(C1=CC=C(C=C1)F)C(=O)CS(=O)(=O)O
InChI: InChI=1S/C11H14FNO4S/c1-8(2)13(11(14)7-18(15,16)17)10-5-3-9(12)4-6-10/h3-6,8H,7H2,1-2H3,(H,15,16,17)
Instrument: TripleTOF 6600 SCIEX
Instrument type: LC-ESI-QTOF
Ms type: MS2
Ion mode: POSITIVE
Collision energy: 20
Fragmentation mode: CID
Ionization: ESI
Column name: Zorbax Eclipse Plus C18 2.1 mm x 150 mm, 3.5 um, Agilent
Retention time: 6.781 min
Precursor m/z: 276.07
Precursor type: [M+H]+
m/z	relative intensity
112.0558	198
124.0555	11
152.0505	29
154.0663	33
216.0136	155
234.0242	999
276.0709	125
