Mass spectrum: Chlormequat; LC-ESI-QTOF; MS2; 10 V
Name: Chlormequat
Class: Herbicide
Formula: [C5H13ClN]+
Exact mass: 122.0731
SMILES: C[N+](C)(CCCl)C
InChI: InChI=1S/C5H13ClN/c1-7(2,3)5-4-6/h4-5H2,1-3H3/q+1
Instrument: TripleTOF 6600 SCIEX
Instrument type: LC-ESI-QTOF
Ms type: MS2
Ion mode: POSITIVE
Collision energy: 10
Fragmentation mode: CID
Ionization: ESI
Column name: Zorbax Eclipse Plus C18 2.1 mm x 150 mm, 3.5 um, Agilent
Retention time: 1.306 min
Precursor m/z: 122.0731
Precursor type: [M]+
m/z	relative intensity
122.0702	999
