Mass spectrum: Fexofenadinone; LC-ESI-QTOF; MS2; 140 V
Name: Fexofenadinone
Class: Pharmaceutical
Formula: C32H37NO4
Exact mass: 499.2723
SMILES: O=C(C1=CC=C(C(C)(C(O)=O)C)C=C1)CCCN(CCC2)CC2C(C3=CC=CC=C3)(O)C4=CC=CC=C4
InChI: InChI=1S/C32H37NO4/c1-31(2,30(35)36)25-19-17-24(18-20-25)29(34)16-10-22-33-21-9-15-28(23-33)32(37,26-11-5-3-6-12-26)27-13-7-4-8-14-27/h3-8,11-14,17-20,28,37H,9-10,15-16,21-23H2,1-2H3,(H,35,36)
Instrument: TripleTOF 5600 SCIEX
Instrument type: LC-ESI-QTOF
Ms type: MS2
Ion mode: POSITIVE
Collision energy: 140
Fragmentation mode: CID
Ionization: ESI
Column name: Zorbax Eclipse Plus C18 2.1 mm x 150 mm, 3.5 um, Agilent
Retention time: 8.706 min
Precursor m/z: 500.2795
Precursor type: [M+H]+
m/z	relative intensity
39.0227	14
41.0387	10
43.0173	14
51.0234	14
63.0227	10
65.0381	131
77.0382	284
78.0458	67
79.054	53
89.0379	99
90.0463	181
91.054	901
93.0328	23
96.0809	15
101.0375	12
102.0456	65
103.0544	362
104.0616	23
105.0341	31
105.0686	15
107.0487	33
115.0543	999
116.062	71
117.0696	734
118.0774	455
119.0485	10
121.0283	24
127.0531	24
128.0606	40
131.0497	131
131.0849	12
145.0655	19
146.071	23
147.0455	17
173.0967	10
