Mass spectrum: Trifloxystrobin acid; LC-ESI-QTOF; MS2; 50 V
Name: Trifloxystrobin acid
Class: Metabolite; Fungicide; Transformation_product
Formula: C19H17F3N2O4
Exact mass: 394.114
SMILES: C/C(=N\OCC1=CC=CC=C1/C(=N\OC)/C(=O)O)/C2=CC(=CC=C2)C(F)(F)F
InChI: InChI=1S/C19H17F3N2O4/c1-12(13-7-5-8-15(10-13)19(20,21)22)23-28-11-14-6-3-4-9-16(14)17(18(25)26)24-27-2/h3-10H,11H2,1-2H3,(H,25,26)/b23-12+,24-17+
Instrument: TripleTOF 5600 SCIEX
Instrument type: LC-ESI-QTOF
Ms type: MS2
Ion mode: POSITIVE
Collision energy: 50
Fragmentation mode: CID
Ionization: ESI
Column name: Zorbax Eclipse Plus C18 2.1 mm x 150 mm, 3.5 um, Agilent
Retention time: 13.286 min
Precursor m/z: 395.1213
Precursor type: [M+H]+
m/z	relative intensity
89.0432	51
90.0499	12
95.0318	21
116.0517	420
117.0598	145
125.021	11
134.0609	17
145.0274	963
148.077	100
173.0331	115
186.0535	999
204.064	35
