Mass spectrum: Ethisterone; LC-ESI-QTOF; MS2; 50 V
Name: Ethisterone
Class: Pharmaceutical; Metabolite
Formula: C21H28O2
Exact mass: 312.2089
SMILES: C[C@]12CCC(=O)C=C1CC[C@@H]3[C@@H]2CC[C@@]4(C)[C@H]3CC[C@@]4(O)C#C
InChI: InChI=1S/C21H28O2/c1-4-21(23)12-9-18-16-6-5-14-13-15(22)7-10-19(14,2)17(16)8-11-20(18,21)3/h1,13,16-18,23H,5-12H2,2-3H3/t16-,17+,18+,19+,20+,21+/m1/s1
Instrument: TripleTOF 5600 SCIEX
Instrument type: LC-ESI-QTOF
Ms type: MS2
Ion mode: POSITIVE
Collision energy: 50
Fragmentation mode: CID
Ionization: ESI
Column name: Zorbax Eclipse Plus C18 2.1 mm x 150 mm, 3.5 um, Agilent
Retention time: 11.662 min
Precursor m/z: 313.2162
Precursor type: [M+H]+
m/z	relative intensity
43.0257	18
55.0234	20
55.0601	11
65.0436	16
67.0581	57
69.0725	45
77.0412	100
79.0571	273
81.0726	185
83.051	45
91.0559	164
93.0707	59
95.0868	51
97.0665	886
103.0541	10
105.0693	105
107.0495	12
107.0855	27
109.0657	999
115.0536	41
116.0613	16
117.0691	51
119.0858	60
121.0652	19
121.1018	15
123.0796	116
127.053	13
128.062	63
129.0693	70
130.0759	24
131.086	56
133.1012	15
141.0692	43
142.0772	36
143.0847	51
145.1	33
153.0705	13
154.0783	12
155.0849	37
156.0917	22
157.0999	27
159.1161	13
165.0683	16
166.0775	9
167.0853	21
168.0922	13
169.0997	28
171.1177	22
179.0852	12
181.0992	16
183.1161	10
185.1323	15
193.0974	13
195.1166	15
207.1153	11
