Mass spectrum: Betaxolol; LC-ESI-QTOF; MS2; 30 V
Name: Betaxolol
Class: Pharmaceutical
Formula: C18H29NO3
Exact mass: 307.2147
SMILES: CC(C)NCC(COC1=CC=C(C=C1)CCOCC2CC2)O
InChI: InChI=1S/C18H29NO3/c1-14(2)19-11-17(20)13-22-18-7-5-15(6-8-18)9-10-21-12-16-3-4-16/h5-8,14,16-17,19-20H,3-4,9-13H2,1-2H3
Instrument: TripleTOF 5600 SCIEX
Instrument type: LC-ESI-QTOF
Ms type: MS2
Ion mode: POSITIVE
Collision energy: 30
Fragmentation mode: CID
Ionization: ESI
Column name: Zorbax Eclipse Plus C18 2.1 mm x 150 mm, 3.5 um, Agilent
Retention time: 7.064 min
Precursor m/z: 308.222
Precursor type: [M+H]+
m/z	relative intensity
56.0587	29
72.0874	112
74.0664	100
84.086	10
91.0589	13
98.1006	141
105.0728	14
110.0993	12
116.1103	276
121.068	86
131.0882	13
133.0673	61
135.0818	10
147.0821	16
151.0769	15
159.0821	70
161.0979	92
171.0807	12
175.1134	16
176.1088	20
177.0919	96
185.0974	12
187.1124	13
189.0915	19
194.1185	14
203.1076	12
205.1237	12
212.1288	30
213.1288	16
218.1547	22
224.129	10
231.1381	45
236.1653	11
254.1766	23
266.1756	45
290.2119	19
308.2217	999
