Mass spectrum: Irbesartan; LC-ESI-QTOF; MS2; 100 V
Name: Irbesartan
Class: Pharmaceutical
Formula: C25H28N6O
Exact mass: 428.2325
SMILES: CCCCC1=NC2(CCCC2)C(=O)N1Cc3ccc(cc3)c4ccccc4c5n[nH]nn5
InChI: InChI=1S/C25H28N6O/c1-2-3-10-22-26-25(15-6-7-16-25)24(32)31(22)17-18-11-13-19(14-12-18)20-8-4-5-9-21(20)23-27-29-30-28-23/h4-5,8-9,11-14H,2-3,6-7,10,15-17H2,1H3,(H,27,28,29,30)
Instrument: TripleTOF 5600 SCIEX
Instrument type: LC-ESI-QTOF
Ms type: MS2
Ion mode: POSITIVE
Collision energy: 100
Fragmentation mode: CID
Ionization: ESI
Column name: Zorbax Eclipse Plus C18 2.1 mm x 150 mm, 3.5 um, Agilent
Retention time: 9.345 min
Precursor m/z: 429.2397
Precursor type: [M+H]+
m/z	relative intensity
67.0572	36
75.0259	14
77.0418	119
78.036	17
80.0513	27
84.0832	85
89.0395	18
101.0385	15
102.0343	27
113.0392	37
114.0457	15
115.0544	75
116.0501	11
125.0384	23
126.0459	27
127.0545	125
128.0519	67
129.0449	22
137.0388	19
138.0464	50
139.0544	121
140.0499	169
141.0569	20
149.0388	14
150.0467	139
151.0549	624
152.0623	975
153.0665	152
154.065	32
162.047	39
163.0548	305
164.055	358
165.0695	559
166.065	78
167.0734	40
168.0686	13
176.0559	39
177.058	227
178.066	540
179.0727	283
180.0807	154
181.0763	12
188.0496	42
189.0573	98
190.0655	484
191.0638	123
192.0687	162
204.0666	11
205.077	999
206.0839	42
