Mass spectrum: Inabenfide; LC-ESI-QTOF; MS2; 60 V
Name: Inabenfide
Formula: C19H15ClN2O2
Exact mass: 338.0822
SMILES: C1=CC=C(C=C1)C(C2=C(C=CC(=C2)Cl)NC(=O)C3=CC=NC=C3)O
InChI: InChI=1S/C19H15ClN2O2/c20-15-6-7-17(22-19(24)14-8-10-21-11-9-14)16(12-15)18(23)13-4-2-1-3-5-13/h1-12,18,23H,(H,22,24)
Instrument: TripleTOF 6600 SCIEX
Instrument type: LC-ESI-QTOF
Ms type: MS2
Ion mode: POSITIVE
Collision energy: 60
Fragmentation mode: CID
Ionization: ESI
Column name: Zorbax Eclipse Plus C18 2.1 mm x 150 mm, 3.5 um, Agilent
Retention time: 10.231 min
Precursor m/z: 339.0895
Precursor type: [M+H]+
m/z	relative intensity
50.0146	26
51.0225	28
52.0298	74
53.0377	38
77.0372	12
78.0329	26
79.0409	999
80.0487	919
105.0438	29
108.043	13
115.0523	11
139.0532	16
141.0679	14
151.0534	34
152.0476	12
152.0604	26
153.0556	12
154.0636	41
155.0725	11
165.0692	130
166.0039	13
166.0642	29
167.071	79
168.0796	104
169.0876	155
178.0638	52
179.0713	180
180.0677	43
181.0751	113
187.0296	11
188.0259	37
189.0341	12
189.0559	11
190.0637	33
191.0728	18
199.0289	32
200.025	21
201.0327	19
202.076	14
203.0723	19
206.0586	107
207.0669	140
208.0628	22
213.0707	12
214.0413	198
215.0369	259
215.0837	21
216.0449	38
216.0801	36
217.0892	42
219.066	28
224.0255	11
227.0498	11
228.0806	18
229.0873	37
230.0959	71
231.1008	21
238.0396	13
240.0806	49
241.088	91
242.0355	18
242.0943	62
243.0311	31
243.1036	150
244.0389	154
244.1111	13
250.0406	18
251.0497	39
251.0699	9
252.0586	14
253.067	23
255.0911	46
256.0989	74
257.107	188
258.1146	49
264.0563	39
265.0627	16
266.077	48
267.0913	26
268.1	24
269.0818	12
275.0487	23
276.0574	18
277.0609	43
278.0725	79
279.0793	33
284.0933	27
285.1006	63
286.1108	34
289.0531	11
290.0596	16
291.0668	169
292.0753	48
320.0718	11
321.0789	17
