Mass spectrum: Propyphenazone; LC-ESI-QTOF; MS2; 120 V
Name: Propyphenazone
Class: Pharmaceutical
Formula: C14H18N2O
Exact mass: 230.1419
SMILES: CC1=C(C(=O)N(N1C)C2=CC=CC=C2)C(C)C
InChI: InChI=1S/C14H18N2O/c1-10(2)13-11(3)15(4)16(14(13)17)12-8-6-5-7-9-12/h5-10H,1-4H3
Instrument: TripleTOF 5600 SCIEX
Instrument type: LC-ESI-QTOF
Ms type: MS2
Ion mode: POSITIVE
Collision energy: 120
Fragmentation mode: CID
Ionization: ESI
Column name: Zorbax Eclipse Plus C18 2.1 mm x 150 mm, 3.5 um, Agilent
Retention time: 9.545 min
Precursor m/z: 231.1492
Precursor type: [M+H]+
m/z	relative intensity
37.0077	70
38.0152	44
39.0229	224
41.0269	96
41.0391	51
42.0341	96
49.0084	70
50.0154	537
51.0231	999
52.0189	70
52.0293	25
53.0384	102
54.0334	38
56.0499	621
61.0065	25
62.0151	57
63.023	121
65.0388	166
67.0416	275
74.0154	70
75.0236	51
77.0389	473
78.0349	32
79.0422	25
80.0495	320
81.0582	25
82.0656	64
89.039	115
91.0523	25
94.0662	25
102.0464	32
115.0531	38
