Mass spectrum: C-desmethyl-metoprolol; LC-ESI-QTOF; MS2; 80 V
Name: C-desmethyl-metoprolol
Formula: C14H23NO3
Exact mass: 253.1678
SMILES: CCNCC(COC1=CC=C(C=C1)CCOC)O
InChI: InChI=1S/C14H23NO3/c1-3-15-10-13(16)11-18-14-6-4-12(5-7-14)8-9-17-2/h4-7,13,15-16H,3,8-11H2,1-2H3
Instrument: TripleTOF 5600 SCIEX
Instrument type: LC-ESI-QTOF
Ms type: MS2
Ion mode: POSITIVE
Collision energy: 80
Fragmentation mode: CID
Ionization: ESI
Column name: Zorbax Eclipse Plus C18 2.1 mm x 150 mm, 3.5 um, Agilent
Retention time: 5.422 min
Precursor m/z: 254.1751
Precursor type: [M+H]+
m/z	relative intensity
39.0236	25
41.0389	23
42.035	11
44.0497	39
45.0339	25
50.0158	23
51.0231	154
56.0506	44
58.0658	225
63.024	14
65.0389	91
70.0654	21
77.0392	999
78.0471	25
79.0547	100
84.0804	30
86.0964	18
89.0378	32
91.0551	264
102.0467	51
103.0542	121
104.0612	11
105.0348	25
105.0699	16
107.0489	18
115.0547	117
116.0627	11
119.0483	16
128.0627	23
