Mass spectrum: 14-Hydroxycodeinone; LC-ESI-QTOF; MS2; 110 V
Name: 14-Hydroxycodeinone
Class: Pharmaceutical; Transformation_product
Formula: C18H19NO4
Exact mass: 313.1314
SMILES: COc1ccc2C[C@H]3N(C)CC[C@@]45C(Oc1c24)C(=O)C=C[C@@]35O
InChI: InChI=1S/C18H19NO4/c1-19-8-7-17-14-10-3-4-12(22-2)15(14)23-16(17)11(20)5-6-18(17,21)13(19)9-10/h3-6,13,16,21H,7-9H2,1-2H3/t13-,16?,17+,18-/m1/s1
Instrument: TripleTOF 5600 SCIEX
Instrument type: LC-ESI-QTOF
Ms type: MS2
Ion mode: POSITIVE
Collision energy: 110
Fragmentation mode: CID
Ionization: ESI
Column name: Zorbax Eclipse Plus C18 2.1 mm x 150 mm, 3.5 um, Agilent
Retention time: 5.367 min
Precursor m/z: 314.1387
Precursor type: [M+H]+
m/z	relative intensity
51.0277	17
65.0427	33
74.0173	18
75.025	22
76.0328	17
77.0413	119
78.049	24
86.0179	10
87.024	16
88.033	24
89.0402	163
90.0488	13
91.0558	30
93.0587	10
99.0235	12
101.0391	27
102.0471	66
103.0549	22
113.0385	97
114.0468	62
115.0549	478
116.0488	47
117.0579	24
118.0681	10
125.0391	22
126.047	93
127.0543	204
128.0622	125
130.0664	15
131.0732	10
137.0387	16
138.0482	36
139.0549	999
140.0529	327
141.0635	71
142.065	26
150.0454	69
151.0546	250
152.0623	505
153.0633	111
154.0647	128
155.0731	13
162.0482	12
163.0543	163
164.0613	133
165.0692	243
166.0654	656
167.048	12
167.0727	256
168.059	19
168.0804	90
175.0547	18
176.0612	86
177.061	36
178.0656	94
179.0737	34
180.0819	183
181.0656	22
181.0879	101
182.0584	17
189.0698	18
190.0644	66
191.0734	53
192.0826	18
194.0608	43
194.0964	15
195.069	33
202.0668	13
203.073	19
204.0839	17
206.0606	13
208.0747	16
210.0918	13
222.054	11
