Mass spectrum: N-Cyclohexyl-1,3-benzothiazol-2-amine; LC-ESI-QTOF; MS2; 130 V
Name: N-Cyclohexyl-1,3-benzothiazol-2-amine
Formula: C13H16N2S
Exact mass: 232.1034
SMILES: C1CCC(CC1)NC2=NC3=CC=CC=C3S2
InChI: InChI=1S/C13H16N2S/c1-2-6-10(7-3-1)14-13-15-11-8-4-5-9-12(11)16-13/h4-5,8-10H,1-3,6-7H2,(H,14,15)
Instrument: TripleTOF 6600 SCIEX
Instrument type: LC-ESI-QTOF
Ms type: MS2
Ion mode: POSITIVE
Collision energy: 130
Fragmentation mode: CID
Ionization: ESI
Column name: Zorbax Eclipse Plus C18 2.1 mm x 150 mm, 3.5 um, Agilent
Retention time: 9.082 min
Precursor m/z: 233.1107
Precursor type: [M+H]+
m/z	relative intensity
35.9989	45
37.007	376
38.0144	316
39.0227	999
40.0049	11
41.0378	29
43.0281	20
44.9784	41
49.0062	17
50.0144	106
51.0221	133
52.017	10
53.0126	10
53.0377	43
57.9862	11
59.9892	29
61.0062	38
62.0142	74
63.0217	107
64.017	51
65.0375	97
67.9703	43
68.9786	640
74.0134	19
77.0374	13
80.0482	17
80.9784	11
81.9859	24
92.9775	30
94.993	12
