Mass spectrum: Febantel; LC-ESI-QTOF; MS2; 40 V
Name: Febantel
Class: Pharmaceutical
Formula: C20H22N4O6S
Exact mass: 446.126
SMILES: COCC(=O)Nc1cc(Sc2ccccc2)ccc1NC(NC(=O)OC)=NC(=O)OC
InChI: InChI=1S/C20H22N4O6S/c1-28-12-17(25)21-16-11-14(31-13-7-5-4-6-8-13)9-10-15(16)22-18(23-19(26)29-2)24-20(27)30-3/h4-11H,12H2,1-3H3,(H,21,25)(H2,22,23,24,26,27)
Instrument: TripleTOF 5600 SCIEX
Instrument type: LC-ESI-QTOF
Ms type: MS2
Ion mode: POSITIVE
Collision energy: 40
Fragmentation mode: CID
Ionization: ESI
Column name: Zorbax Eclipse Plus C18 2.1 mm x 150 mm, 3.5 um, Agilent
Retention time: 13.085 min
Precursor m/z: 447.1333
Precursor type: [M+H]+
m/z	relative intensity
45.0423	59
83.0275	39
109.0119	77
118.0528	11
145.0648	15
146.0472	14
149.0177	24
159.0433	26
171.043	29
172.0518	29
173.0586	23
190.0074	39
198.0375	14
202.0067	30
203.0685	16
204.0767	35
210.0375	13
213.0423	15
214.0488	35
225.0497	33
227.0642	258
229.036	70
237.0492	45
238.0544	24
239.0636	54
240.0614	23
242.0466	10
243.0584	15
246.0723	23
247.0746	23
252.0609	15
253.0432	61
253.0781	11
254.0742	15
255.0584	20
261.0614	47
264.0589	17
265.0384	29
266.0394	65
267.0466	254
268.0538	203
268.0872	14
269.0746	31
278.038	37
280.0546	999
282.07	172
293.0478	28
294.0332	49
297.0701	75
300.0802	13
308.0498	58
311.0604	44
312.0807	446
321.0802	19
323.0603	386
325.0754	51
339.0899	56
340.0753	70
344.1074	15
