Mass spectrum: o-Aminoazotoluene; LC-ESI-QTOF; MS2; 40 V
Name: o-Aminoazotoluene
Formula: C14H15N3
Exact mass: 225.1266
SMILES: CC1=CC=CC=C1N=NC2=CC(=C(C=C2)N)C
InChI: InChI=1S/C14H15N3/c1-10-5-3-4-6-14(10)17-16-12-7-8-13(15)11(2)9-12/h3-9H,15H2,1-2H3
Instrument: TripleTOF X500R SCIEX
Instrument type: LC-ESI-QTOF
Ms type: MS2
Ion mode: POSITIVE
Collision energy: 40
Fragmentation mode: CID
Ionization: ESI
Column name: Zorbax Eclipse Plus C18 2.1 mm x 150 mm, 3.5 um, Agilent
Retention time: 13.733 min
Precursor m/z: 226.1339
Precursor type: [M+H]+
m/z	relative intensity
39.0228	20
41.0385	9
65.0384	171
77.0385	81
79.0543	84
89.0387	219
90.0464	116
91.054	946
92.0493	24
93.0577	25
94.0653	132
104.0489	25
105.0461	22
106.065	654
107.073	999
108.0806	19
118.053	30
119.0601	67
120.0808	78
121.076	524
133.0761	136
165.0692	37
166.0662	13
167.0733	67
168.0771	22
180.0797	19
181.082	22
182.0957	35
183.1029	12
192.0825	12
193.077	43
194.0843	75
195.0905	18
207.0901	31
208.101	43
209.1079	113
210.1029	51
211.1115	15
224.1179	32
226.1341	194
