Mass spectrum: Clenbuterol; LC-ESI-QTOF; MS2; 20 V
Name: Clenbuterol
Class: Pharmaceutical; Transformation_product-Metabolite
Formula: C12H18Cl2N2O
Exact mass: 276.0796
SMILES: CC(C)(C)NCC(c1cc(c(c(c1)Cl)N)Cl)O
InChI: InChI=1S/C12H18Cl2N2O/c1-12(2,3)16-6-10(17)7-4-8(13)11(15)9(14)5-7/h4-5,10,16-17H,6,15H2,1-3H3
Instrument: TripleTOF 5600 SCIEX
Instrument type: LC-ESI-QTOF
Ms type: MS2
Ion mode: POSITIVE
Collision energy: 20
Fragmentation mode: CID
Ionization: ESI
Column name: Zorbax Eclipse Plus C18 2.1 mm x 150 mm, 3.5 um, Agilent
Retention time: 6.115 min
Precursor m/z: 277.0869
Precursor type: [M+H]+
m/z	relative intensity
131.0609	13
132.0693	53
167.0383	33
168.0457	35
203.0148	999
259.0778	619
277.0889	138
