Mass spectrum: Leucomalachite green; LC-ESI-QTOF; MS2; 30 V
Name: Leucomalachite green
Class: Metabolite; Antimicrobial; Fungicide; Transformation_product-Metabolite
Formula: C23H26N2
Exact mass: 330.2096
SMILES: CN(C)C1=CC=C(C=C1)C(C2=CC=CC=C2)C3=CC=C(C=C3)N(C)C
InChI: InChI=1S/C23H26N2/c1-24(2)21-14-10-19(11-15-21)23(18-8-6-5-7-9-18)20-12-16-22(17-13-20)25(3)4/h5-17,23H,1-4H3
Instrument: TripleTOF 6600 SCIEX
Instrument type: LC-ESI-QTOF
Ms type: MS2
Ion mode: POSITIVE
Collision energy: 30
Fragmentation mode: CID
Ionization: ESI
Column name: Zorbax Eclipse Plus C18 2.1 mm x 150 mm, 3.5 um, Agilent
Retention time: 9.974 min
Precursor m/z: 331.2169
Precursor type: [M+H]+
m/z	relative intensity
194.0952	17
195.1028	44
196.1121	14
208.1111	10
209.119	82
210.1274	47
238.1455	23
239.1542	999
254.173	15
272.1427	93
286.1589	47
301.1701	17
315.1859	224
316.1934	887
331.2169	945
