Mass spectrum: Aclonifen; LC-ESI-QTOF; MS2; 80 V
Name: Aclonifen
Class: Herbicide
Formula: C12H9ClN2O3
Exact mass: 264.0302
SMILES: Nc1c(Cl)c(Oc2ccccc2)ccc1[N+]([O-])=O
InChI: InChI=1S/C12H9ClN2O3/c13-11-10(18-8-4-2-1-3-5-8)7-6-9(12(11)14)15(16)17/h1-7H,14H2
Instrument: TripleTOF 5600 SCIEX
Instrument type: LC-ESI-QTOF
Ms type: MS2
Ion mode: POSITIVE
Collision energy: 80
Fragmentation mode: CID
Ionization: ESI
Column name: Zorbax Eclipse Plus C18 2.1 mm x 150 mm, 3.5 um, Agilent
Retention time: 13.815 min
Precursor m/z: 265.0374
Precursor type: [M+H]+
m/z	relative intensity
51.0287	397
52.0237	135
65.0428	33
72.9859	48
74.0188	33
75.0258	72
76.0205	43
76.0338	33
77.0411	999
78.0354	58
78.0463	43
80.0148	72
86.0158	48
88.0189	19
88.0324	58
89.0393	24
96.9852	29
99.0232	24
101.0392	155
102.0471	135
103.0575	24
112.018	58
112.0295	29
113.0395	92
114.0449	29
115.0537	48
125.0014	19
125.042	38
126.0464	354
127.0537	834
128.0484	77
128.0612	247
129.0523	29
137.0378	38
138.0341	130
139.0415	53
140.0483	67
152.0493	38
153.0566	121
154.0645	169
155.0487	208
165.0422	24
182.061	106
216.0224	38
