Mass spectrum: Norethynodrel; LC-ESI-QTOF; MS2; 40 V
Name: Norethynodrel
Class: Pharmaceutical
Formula: C20H26O2
Exact mass: 298.1933
SMILES: C[C@]12CC[C@H]3[C@@H](CCC4=C3CCC(=O)C4)[C@@H]1CC[C@@]2(O)C#C
InChI: InChI=1S/C20H26O2/c1-3-20(22)11-9-18-17-6-4-13-12-14(21)5-7-15(13)16(17)8-10-19(18,20)2/h1,16-18,22H,4-12H2,2H3/t16-,17-,18+,19+,20+/m1/s1
Instrument: TripleTOF 5600 SCIEX
Instrument type: LC-ESI-QTOF
Ms type: MS2
Ion mode: POSITIVE
Collision energy: 40
Fragmentation mode: CID
Ionization: ESI
Column name: Zorbax Eclipse Plus C18 2.1 mm x 150 mm, 3.5 um, Agilent
Retention time: 11.133 min
Precursor m/z: 299.2006
Precursor type: [M+H]+
m/z	relative intensity
55.0228	10
55.0596	38
65.042	18
67.0581	109
69.0725	18
77.0417	122
79.0574	322
81.0361	16
81.0726	260
83.0516	407
91.0562	502
93.0715	249
95.0491	13
95.0863	101
97.0661	29
103.0541	45
105.0704	390
107.0492	166
107.0849	118
109.0656	999
109.098	56
111.0799	24
115.0537	125
116.0614	44
117.0697	286
119.0855	364
121.0637	30
121.1014	111
123.081	76
123.1162	24
127.0539	23
128.062	139
129.0697	232
130.0766	65
131.0853	301
133.0622	17
133.1001	103
135.0806	235
135.1142	29
137.0984	21
141.0699	109
142.0766	103
143.0854	284
144.0929	27
145.0665	13
145.1007	259
147.079	56
147.116	35
148.0875	11
149.0953	95
149.1277	11
152.0611	16
153.0695	34
154.0766	44
155.0854	130
156.0932	72
157.0637	14
157.1003	170
158.1084	11
159.0792	24
159.116	86
161.096	101
161.1311	64
163.1107	49
165.0686	59
166.0786	28
167.0843	67
168.0926	29
169.1006	132
170.1095	17
171.1164	197
173.0952	16
173.1318	77
175.1104	55
178.0756	22
179.0843	59
180.0939	27
181.1005	69
182.1084	18
183.1158	71
184.1227	11
185.0953	23
185.1321	73
187.1119	19
187.1482	28
188.1178	15
189.127	16
191.0852	17
192.0931	23
193.1007	52
194.1088	14
195.1159	63
196.1259	14
197.0967	11
197.1327	40
199.1104	11
199.1451	12
201.1268	18
202.1359	11
205.1003	18
206.1081	24
207.1165	57
208.1247	17
209.1317	33
211.1111	11
211.1469	46
213.1629	83
219.1158	13
220.1224	13
221.133	33
222.1374	12
223.1478	40
225.166	10
231.1738	116
233.1327	18
235.147	26
237.1645	15
248.1568	11
253.1571	15
263.175	10
281.1896	17
299.2015	23
