Mass spectrum: Diphenhydramine; LC-ESI-QTOF; MS2; 40 V
Name: Diphenhydramine
Class: Pharmaceutical
Formula: C17H21NO
Exact mass: 255.1623
InChI: InChI=1S/C17H21NO/c1-18(2)13-14-19-17(15-9-5-3-6-10-15)16-11-7-4-8-12-16/h3-12,17H,13-14H2,1-2H3
Instrument: TripleTOF 5600 SCIEX
Instrument type: LC-ESI-QTOF
Ms type: CID
Ion mode: POSITIVE
Collision energy: 40
Ionization: ESI
Column name: Zorbax Eclipse Plus C18 2.1 mm x 150 mm, 3.5 um, Agilent
Retention time: 7.721 min
Precursor m/z: 256.1696
Precursor type: [M+H]+
m/z	relative intensity
115.0539	23
128.0626	46
141.0698	50
151.0544	75
152.0623	519
164.0617	15
165.0701	581
166.078	271
167.0852	999
