Mass spectrum: 5-(4-Hydroxyphenyl)-5-phenylhydantoin; LC-ESI-QTOF; MS2; 70 V
Name: 5-(4-Hydroxyphenyl)-5-phenylhydantoin
Class: Metabolite; Pharmaceutical
Formula: C15H12N2O3
Exact mass: 268.0848
SMILES: C1=CC=C(C=C1)C2(C(=O)NC(=O)N2)C3=CC=C(C=C3)O
InChI: InChI=1S/C15H12N2O3/c18-12-8-6-11(7-9-12)15(10-4-2-1-3-5-10)13(19)16-14(20)17-15/h1-9,18H,(H2,16,17,19,20)
Instrument: TripleTOF 5600 SCIEX
Instrument type: LC-ESI-QTOF
Ms type: MS2
Ion mode: POSITIVE
Collision energy: 70
Fragmentation mode: CID
Ionization: ESI
Column name: Zorbax Eclipse Plus C18 2.1 mm x 150 mm, 3.5 um, Agilent
Retention time: 7.265 min
Precursor m/z: 269.0921
Precursor type: [M+H]+
m/z	relative intensity
65.0456	246
75.027	20
77.0439	999
92.053	54
93.0359	87
102.0315	16
104.051	698
105.0334	16
120.0451	326
121.0278	20
132.0479	20
148.0425	50
