Mass spectrum: Venlafaxine; LC-ESI-QTOF; MS2; 130 V
Name: Venlafaxine
Class: Pharmaceutical
Formula: C17H27NO2
Exact mass: 277.2042
SMILES: CN(C)CC(c1ccc(cc1)OC)C2(CCCCC2)O
InChI: InChI=1S/C17H27NO2/c1-18(2)13-16(17(19)11-5-4-6-12-17)14-7-9-15(20-3)10-8-14/h7-10,16,19H,4-6,11-13H2,1-3H3
Instrument: TripleTOF 5600 SCIEX
Instrument type: LC-ESI-QTOF
Ms type: MS2
Ion mode: POSITIVE
Collision energy: 130
Fragmentation mode: CID
Ionization: ESI
Column name: Zorbax Eclipse Plus C18 2.1 mm x 150 mm, 3.5 um, Agilent
Retention time: 6.626 min
Precursor m/z: 278.2115
Precursor type: [M+H]+
m/z	relative intensity
42.043	287
43.0506	59
52.036	119
53.0436	29
58.0711	999
65.0422	329
74.017	35
76.032	29
77.0412	490
77.065	41
78.0488	652
79.0565	65
81.0715	41
89.0403	95
91.0557	239
102.0469	41
103.0541	23
115.054	173
128.0622	53
