Mass spectrum: Fluconazole; LC-ESI-QTOF; MS2; 100 V
Name: Fluconazole
Class: Pharmaceutical
Formula: C13H12F2N6O
Exact mass: 306.1041
SMILES: OC(Cn1cncn1)(Cn2cncn2)c3ccc(F)cc3F
InChI: InChI=1S/C13H12F2N6O/c14-10-1-2-11(12(15)3-10)13(22,4-20-8-16-6-18-20)5-21-9-17-7-19-21/h1-3,6-9,22H,4-5H2
Instrument: TripleTOF 5600 SCIEX
Instrument type: LC-ESI-QTOF
Ms type: MS2
Ion mode: NEGATIVE
Collision energy: 100
Fragmentation mode: CID
Ionization: ESI
Column name: Zorbax Eclipse Plus C18 2.1 mm x 150 mm, 3.5 um, Agilent
Retention time: 6.343 min
Precursor m/z: 305.0968
Precursor type: [M-H]-
m/z	relative intensity
44.9986	142
68.0263	999
68.0567	71
73.0094	285
93.0162	428
