Mass spectrum: Oxcarbazepine; LC-ESI-QTOF; MS2; 150 V
Name: Oxcarbazepine
Class: Pharmaceutical
Formula: C15H12N2O2
Exact mass: 252.0899
SMILES: NC(=O)N1c2ccccc2CC(=O)c3ccccc13
InChI: InChI=1S/C15H12N2O2/c16-15(19)17-12-7-3-1-5-10(12)9-14(18)11-6-2-4-8-13(11)17/h1-8H,9H2,(H2,16,19)
Instrument: TripleTOF 5600 SCIEX
Instrument type: LC-ESI-QTOF
Ms type: MS2
Ion mode: POSITIVE
Collision energy: 150
Fragmentation mode: CID
Ionization: ESI
Column name: Zorbax Eclipse Plus C18 2.1 mm x 150 mm, 3.5 um, Agilent
Retention time: 8.323 min
Precursor m/z: 253.0972
Precursor type: [M+H]+
m/z	relative intensity
44.0219	36
60.0043	36
65.0453	31
73.011	119
74.0182	999
75.0128	46
75.0258	522
76.0216	36
76.0334	134
77.0411	253
78.0498	31
85.0094	150
86.0167	305
87.0111	25
87.0236	243
88.0321	36
89.0411	144
89.055	25
97.0085	46
98.0163	398
99.0107	41
99.023	119
100.0286	41
101.0398	46
102.0486	51
109.0075	56
110.017	82
111.0224	46
113.0387	77
115.0522	36
122.0171	67
123.01	25
123.0233	25
124.032	31
125.0376	62
126.0463	134
128.0475	25
137.037	25
149.04	41
150.0467	320
150.0671	20
151.0539	144
152.0605	46
161.0384	31
162.045	36
163.0547	56
175.0419	25
176.0495	36
177.0588	62
178.0588	25
188.0483	25
