Mass spectrum: Bisoprolol; LC-ESI-QTOF; MS2; 50 V
Name: Bisoprolol
Class: Pharmaceutical
Formula: C18H31NO4
Exact mass: 325.2253
SMILES: CC(C)NCC(COC1=CC=C(C=C1)COCCOC(C)C)O
InChI: InChI=1S/C18H31NO4/c1-14(2)19-11-17(20)13-23-18-7-5-16(6-8-18)12-21-9-10-22-15(3)4/h5-8,14-15,17,19-20H,9-13H2,1-4H3
Instrument: TripleTOF 6600 SCIEX
Instrument type: LC-ESI-QTOF
Ms type: MS2
Ion mode: POSITIVE
Collision energy: 50
Fragmentation mode: CID
Ionization: ESI
Column name: Zorbax Eclipse Plus C18 2.1 mm x 150 mm, 3.5 um, Agilent
Retention time: 7.01 min
Precursor m/z: 326.2326
Precursor type: [M+H]+
m/z	relative intensity
30.0334	85
39.0224	17
41.0382	71
43.0538	88
44.0487	21
45.0332	245
56.0491	632
58.064	69
63.0217	26
65.0376	18
72.0797	264
73.028	11
74.0591	999
75.0426	24
77.0374	95
79.053	113
84.0792	33
89.0373	383
91.0528	363
98.0948	118
100.1113	36
103.0529	32
105.0682	174
107.0479	780
115.0524	46
116.106	334
117.0676	44
119.0473	181
119.0838	18
121.0633	135
133.0633	280
134.0586	21
137.058	19
145.0627	104
147.0789	64
162.0892	21
