Mass spectrum: Etrimfos; LC-ESI-QTOF; MS2; 130 V
Name: Etrimfos
Class: Insecticide
Formula: C10H17N2O4PS
Exact mass: 292.0647
SMILES: CCC1=NC(=CC(=N1)OP(=S)(OC)OC)OCC
InChI: InChI=1S/C10H17N2O4PS/c1-5-8-11-9(15-6-2)7-10(12-8)16-17(18,13-3)14-4/h7H,5-6H2,1-4H3
Instrument: TripleTOF 6600 SCIEX
Instrument type: LC-ESI-QTOF
Ms type: MS2
Ion mode: POSITIVE
Collision energy: 130
Fragmentation mode: CID
Ionization: ESI
Column name: Zorbax Eclipse Plus C18 2.1 mm x 150 mm, 3.5 um, Agilent
Retention time: 14.241 min
Precursor m/z: 293.072
Precursor type: [M+H]+
m/z	relative intensity
31.9703	10
38.0014	13
40.0177	79
41.0022	11
41.0254	14
43.9711	46
44.9789	999
45.9749	15
45.9863	42
46.9682	443
46.9891	118
48.9827	13
56.048	10
56.9779	14
62.9439	87
62.9982	23
68.0117	63
68.9962	16
78.9386	17
78.9932	14
