Mass spectrum: Lomefloxacin; LC-ESI-QTOF; MS2; 40 V
Name: Lomefloxacin
Class: Pharmaceutical; Antimicrobial
Formula: C17H19F2N3O3
Exact mass: 351.1394
SMILES: CCn1cc(c(=O)c2c1c(c(c(c2)F)N3CCNC(C3)C)F)C(=O)O
InChI: InChI=1S/C17H19F2N3O3/c1-3-21-8-11(17(24)25)16(23)10-6-12(18)15(13(19)14(10)21)22-5-4-20-9(2)7-22/h6,8-9,20H,3-5,7H2,1-2H3,(H,24,25)
Instrument: TripleTOF 5600 SCIEX
Instrument type: LC-ESI-QTOF
Ms type: MS2
Ion mode: POSITIVE
Collision energy: 40
Fragmentation mode: CID
Ionization: ESI
Column name: Zorbax Eclipse Plus C18 2.1 mm x 150 mm, 3.5 um, Agilent
Retention time: 5.44 min
Precursor m/z: 352.1467
Precursor type: [M+H]+
m/z	relative intensity
84.0809	11
175.0695	23
194.0635	52
195.0477	26
195.0737	14
196.0442	14
197.0522	20
202.053	17
203.063	37
203.0943	11
208.0572	26
208.0791	11
209.0553	23
209.0682	20
215.047	14
215.0582	29
217.0738	40
222.0597	72
222.0961	14
223.0666	160
224.0754	23
225.0851	40
230.0839	11
230.112	11
231.091	17
235.0678	34
236.0768	69
237.0837	486
243.0517	11
243.1164	64
244.0501	29
244.09	20
245.1064	32
249.0474	84
249.0853	20
250.0933	20
251.0995	247
257.1013	14
257.1354	14
258.1412	64
262.0938	17
263.0651	37
263.0954	34
265.1154	999
268.1502	11
271.075	14
272.0831	46
286.0987	81
286.1338	17
288.1504	43
291.0941	84
291.1241	55
306.1064	110
308.1569	49
314.1288	183
334.137	806
