Mass spectrum: Tepraloxydim; LC-ESI-QTOF; MS2; 50 V
Name: Tepraloxydim
Class: Herbicide
Formula: C17H24ClNO4
Exact mass: 341.1394
SMILES: CCC(=NOCC=CCl)C1=C(CC(CC1=O)C2CCOCC2)O
InChI: InChI=1S/C17H24ClNO4/c1-2-14(19-23-7-3-6-18)17-15(20)10-13(11-16(17)21)12-4-8-22-9-5-12/h3,6,12-13,20H,2,4-5,7-11H2,1H3
Instrument: TripleTOF 6600 SCIEX
Instrument type: LC-ESI-QTOF
Ms type: MS2
Ion mode: POSITIVE
Collision energy: 50
Fragmentation mode: CID
Ionization: ESI
Column name: Zorbax Eclipse Plus C18 2.1 mm x 150 mm, 3.5 um, Agilent
Retention time: 12.248 min
Precursor m/z: 342.1467
Precursor type: [M+H]+
m/z	relative intensity
39.0221	45
41.0379	48
42.0332	48
43.0171	90
44.0486	15
48.983	33
51.0224	18
53.0378	45
54.033	15
55.0167	51
55.0534	132
56.0487	81
57.0323	18
57.0559	21
58.0647	21
65.0377	60
67.0168	18
67.0407	48
67.0531	192
68.048	102
69.032	60
69.069	33
70.0276	12
70.0641	48
71.0717	12
72.0432	36
72.0797	15
74.9982	195
77.0376	282
79.0529	249
80.0483	36
80.0602	18
81.0322	63
81.0565	27
81.0686	138
82.0639	123
83.0479	192
83.0721	18
84.043	21
84.0793	21
91.053	501
92.0484	33
93.0328	30
93.0561	54
93.0684	312
94.0636	201
95.0475	87
95.0849	63
96.0432	468
96.079	42
97.0512	39
97.0628	33
98.059	999
102.0467	15
103.0533	210
105.0686	228
106.0636	36
107.0478	99
107.0716	12
107.0842	81
108.043	57
108.0796	330
109.0277	24
109.0504	21
109.0633	84
109.0871	12
109.1003	15
110.0585	324
110.0946	81
111.0429	117
111.0662	243
112.0378	12
112.0752	21
113.0835	33
114.0899	48
115.0526	117
116.0608	33
117.0558	24
117.0687	126
118.0638	54
119.0478	42
119.0712	30
119.0841	99
120.0425	18
120.0793	72
121.0637	585
121.0873	21
121.098	12
122.059	153
122.0943	21
123.0435	39
123.0659	15
123.0797	18
124.0379	168
124.0745	81
126.0535	27
127.053	21
128.0602	78
129.0685	99
130.0639	30
130.074	36
131.048	30
131.0711	30
131.084	96
132.0798	66
133.0509	21
133.064	63
133.0865	30
133.0996	27
134.0591	48
134.095	57
135.0438	15
135.0793	42
136.0373	18
136.0743	402
137.0579	57
137.082	45
138.0536	78
138.0671	21
138.0901	339
139.0612	30
139.0737	15
140.0683	27
141.069	36
142.0754	54
143.0839	66
144.0542	21
144.0787	39
145.0653	36
145.086	18
145.0991	54
146.0592	60
146.0959	66
147.0433	57
147.0739	75
147.1082	24
148.074	132
148.1096	24
149.0585	426
149.0848	36
150.0545	15
150.0897	48
151.0721	15
152.07	57
153.0689	42
154.0753	18
155.0581	15
156.0799	21
157.0872	24
157.0992	18
158.071	21
158.0943	45
159.0659	15
159.0797	45
159.1157	15
160.0756	84
160.1109	30
161.0586	60
161.0823	21
161.0935	33
162.0533	36
162.0899	27
162.1279	15
163.0624	33
163.1086	18
164.0694	207
164.1058	24
165.0834	21
166.0855	651
166.1202	27
167.0924	33
169.1004	12
170.0942	42
171.1071	27
172.0739	12
173.0961	21
174.0913	42
174.1258	12
175.1046	39
176.0703	30
176.1057	42
177.085	27
177.1256	15
180.1364	24
184.0748	15
186.0899	12
188.1064	21
189.1162	15
190.0848	24
192.1373	21
194.1138	12
204.1362	15
222.1098	15
222.1463	27
234.1473	96
250.1444	36
