Mass spectrum: Metsulfuron-methyl; LC-ESI-QTOF; MS2; 70 V
Name: Metsulfuron-methyl
Formula: C14H15N5O6S
Exact mass: 381.0743
SMILES: CC1=NC(=NC(=N1)OC)NC(=O)NS(=O)(=O)C2=CC=CC=C2C(=O)OC
InChI: InChI=1S/C14H15N5O6S/c1-8-15-12(18-14(16-8)25-3)17-13(21)19-26(22,23)10-7-5-4-6-9(10)11(20)24-2/h4-7H,1-3H3,(H2,15,16,17,18,19,21)
Instrument: TripleTOF 6600 SCIEX
Instrument type: LC-ESI-QTOF
Ms type: MS2
Ion mode: POSITIVE
Collision energy: 70
Fragmentation mode: CID
Ionization: ESI
Column name: Zorbax Eclipse Plus C18 2.1 mm x 150 mm, 3.5 um, Agilent
Retention time: 9.15008 min
Precursor m/z: 382.0816
Precursor type: [M+H]+
m/z	relative intensity
42.0341	153
51.0233	38
56.0485	153
56.0546	38
57.045	76
58.0289	268
64.034	76
69.0074	345
69.0146	38
77.0384	999
79.0546	115
83.0243	268
90.0325	461
92.0244	422
102.0323	115
105.0315	38
105.0454	76
120.0188	153
135.0407	153
135.0484	38
141.0757	76
167.0546	192
