Mass spectrum: Tetrabutylphosphonium; LC-ESI-QTOF; MS2; 40 V
Name: Tetrabutylphosphonium
Class: Industrial_process
Formula: C16H36P
Exact mass: 259.2549
SMILES: CCCC[P+](CCCC)(CCCC)CCCC
InChI: InChI=1S/C16H36P/c1-5-9-13-17(14-10-6-2,15-11-7-3)16-12-8-4/h5-16H2,1-4H3/q+1
Instrument: TripleTOF 5600 SCIEX
Instrument type: LC-ESI-QTOF
Ms type: CID
Ion mode: POSITIVE
Collision energy: 40
Ionization: ESI
Column name: Zorbax Eclipse Plus C18 2.1 mm x 150 mm, 3.5 um, Agilent
Retention time: 9.655 min
Precursor m/z: 259.2549
Precursor type: [M]+
m/z	relative intensity
61.0249	59
62.033	88
76.0464	277
90.0601	123
131.098	76
145.114	50
173.1457	111
187.1612	86
203.1913	152
259.2542	999
