Mass spectrum: Anagrelide; LC-ESI-QTOF; MS2; 80 V
Name: Anagrelide
Class: Pharmaceutical
Formula: C10H7Cl2N3O
Exact mass: 254.9966
SMILES: c1cc(c(c2c1NC3=NC(=O)CN3C2)Cl)Cl
InChI: InChI=1S/C10H7Cl2N3O/c11-6-1-2-7-5(9(6)12)3-15-4-8(16)14-10(15)13-7/h1-2H,3-4H2,(H,13,14,16)
Instrument: TripleTOF 5600 SCIEX
Instrument type: LC-ESI-QTOF
Ms type: MS2
Ion mode: POSITIVE
Collision energy: 80
Fragmentation mode: CID
Ionization: ESI
Column name: Zorbax Eclipse Plus C18 2.1 mm x 150 mm, 3.5 um, Agilent
Retention time: 7.666 min
Precursor m/z: 256.0039
Precursor type: [M+H]+
m/z	relative intensity
61.9834	93
72.9858	25
73.0105	51
73.0259	12
74.0181	269
75.0252	179
75.047	22
76.0209	57
84.9852	28
89.0409	19
96.9865	19
99.0097	218
100.019	999
101.0263	32
102.0345	420
102.0574	19
108.9835	395
109.9798	22
109.9908	32
110.9991	38
111.9956	22
122.9988	35
127.0288	38
128.046	16
129.0445	128
130.0404	41
135.9948	215
137.0021	427
137.0338	12
144.9604	215
151.019	19
156.9589	16
163.0049	41
164.0024	83
171.9694	51
172.9639	44
198.9818	16
