Mass spectrum: 2-(3-Hydroxyquinolin-2-yl)indene-1,3-dione; LC-ESI-QTOF; MS2; 60 V
Name: 2-(3-Hydroxyquinolin-2-yl)indene-1,3-dione
Class: Industrial_process; Personal_care_product; Pigment
Formula: C18H11NO3
Exact mass: 289.0739
SMILES: C1=CC=C2C(=C1)C=C(C(=N2)C3C(=O)C4=CC=CC=C4C3=O)O
InChI: InChI=1S/C18H11NO3/c20-14-9-10-5-1-4-8-13(10)19-16(14)15-17(21)11-6-2-3-7-12(11)18(15)22/h1-9,15,20H
Instrument: TripleTOF 6600 SCIEX
Instrument type: LC-ESI-QTOF
Ms type: MS2
Ion mode: POSITIVE
Collision energy: 60
Fragmentation mode: CID
Ionization: ESI
Column name: Zorbax Eclipse Plus C18 2.1 mm x 150 mm, 3.5 um, Agilent
Retention time: 14.718 min
Precursor m/z: 290.0812
Precursor type: [M+H]+
m/z	relative intensity
65.0385	42
77.0387	181
89.0386	163
90.0449	24
91.0542	30
101.0378	30
103.0534	66
105.0338	72
115.0548	102
116.049	133
117.0585	24
128.0497	54
130.0647	211
140.0498	42
158.0601	66
163.0534	96
165.069	145
176.061	42
177.057	36
178.0761	102
179.0821	30
187.0535	66
188.0606	187
189.0691	896
190.0645	411
191.0735	36
201.0661	36
204.0798	369
205.09	72
206.0968	30
214.0645	569
215.0719	581
216.08	999
217.0647	30
217.0876	272
232.0756	108
233.0831	78
243.0665	48
244.0729	54
245.0834	30
246.0905	54
272.0707	66
