Mass spectrum: 2-Methoxyethyl-N-(3-aminophenyl)carbamate; LC-ESI-QTOF; MS2; 70 V
Name: 2-Methoxyethyl-N-(3-aminophenyl)carbamate
Class: Industrial_process
Formula: C10H14N2O3
Exact mass: 210.1004
SMILES: COCCOC(=O)NC1=CC=CC(=C1)N
InChI: InChI=1S/C10H14N2O3/c1-14-5-6-15-10(13)12-9-4-2-3-8(11)7-9/h2-4,7H,5-6,11H2,1H3,(H,12,13)
Instrument: TripleTOF 5600 SCIEX
Instrument type: LC-ESI-QTOF
Ms type: MS2
Ion mode: POSITIVE
Collision energy: 70
Fragmentation mode: CID
Ionization: ESI
Column name: Zorbax Eclipse Plus C18 2.1 mm x 150 mm, 3.5 um, Agilent
Retention time: 4.802 min
Precursor m/z: 211.1077
Precursor type: [M+H]+
m/z	relative intensity
59.0586	281
64.0328	34
65.046	999
66.0514	51
80.0548	333
90.0376	264
92.0528	256
93.0603	307
107.0625	51
