Mass spectrum: Diphenylphosphinamide; LC-ESI-QTOF; MS2; 50 V
Name: Diphenylphosphinamide
Formula: C12H12NOP
Exact mass: 217.0657
SMILES: C1=CC=C(C=C1)P(=O)(C2=CC=CC=C2)N
InChI: InChI=1S/C12H12NOP/c13-15(14,11-7-3-1-4-8-11)12-9-5-2-6-10-12/h1-10H,(H2,13,14)
Instrument: TripleTOF 5600 SCIEX
Instrument type: LC-ESI-QTOF
Ms type: MS2
Ion mode: POSITIVE
Collision energy: 50
Fragmentation mode: CID
Ionization: ESI
Column name: Zorbax Eclipse Plus C18 2.1 mm x 150 mm, 3.5 um, Agilent
Retention time: 7.411 min
Precursor m/z: 218.0729
Precursor type: [M+H]+
m/z	relative intensity
50.015	14
51.0233	109
68.9886	22
77.0391	999
95.0051	140
107.0052	18
115.0547	18
123.0002	32
127.0547	12
128.0626	110
129.0705	67
133.021	73
141.0713	26
145.022	11
147.037	18
152.0628	37
153.0704	78
154.0787	56
157.0203	14
170.0272	41
171.0366	157
173.0524	96
183.0364	94
199.0308	11
201.0466	164
