Mass spectrum: Esculetin; LC-ESI-QTOF; MS2; 30 V
Name: Esculetin
Class: Pharmaceutical
Formula: C9H6O4
Exact mass: 178.0266
SMILES: Oc1cc2OC(=O)C=Cc2cc1O
InChI: InChI=1S/C9H6O4/c10-6-3-5-1-2-9(12)13-8(5)4-7(6)11/h1-4,10-11H
Instrument: TripleTOF 5600 SCIEX
Instrument type: LC-ESI-QTOF
Ms type: MS2
Ion mode: NEGATIVE
Collision energy: 30
Fragmentation mode: CID
Ionization: ESI
Column name: Zorbax Eclipse Plus C18 2.1 mm x 150 mm, 3.5 um, Agilent
Retention time: 5.732 min
Precursor m/z: 177.0193
Precursor type: [M-H]-
m/z	relative intensity
77.0392	167
81.034	86
89.0393	423
93.0343	109
105.0349	590
107.0141	85
121.0297	119
133.0302	912
149.0252	249
177.0205	999
