Mass spectrum: Sulpiride; LC-ESI-QTOF; MS2; 80 V
Name: Sulpiride
Class: Pharmaceutical
Formula: C15H23N3O4S
Exact mass: 341.1409
SMILES: CCN1CCCC1CNC(=O)c2cc(ccc2OC)[S](N)(=O)=O
InChI: InChI=1S/C15H23N3O4S/c1-3-18-8-4-5-11(18)10-17-15(19)13-9-12(23(16,20)21)6-7-14(13)22-2/h6-7,9,11H,3-5,8,10H2,1-2H3,(H,17,19)(H2,16,20,21)
Instrument: TripleTOF 5600 SCIEX
Instrument type: LC-ESI-QTOF
Ms type: MS2
Ion mode: POSITIVE
Collision energy: 80
Fragmentation mode: CID
Ionization: ESI
Column name: Zorbax Eclipse Plus C18 2.1 mm x 150 mm, 3.5 um, Agilent
Retention time: 4.958 min
Precursor m/z: 342.1482
Precursor type: [M+H]+
m/z	relative intensity
42.0451	83
44.0606	23
51.0296	83
52.0379	97
53.0451	27
56.0558	381
58.0701	283
65.044	120
67.0586	88
68.056	46
70.0681	209
74.0167	60
75.0255	710
76.0329	195
77.0418	153
78.0479	250
79.0218	65
79.0441	190
80.0519	55
81.036	37
82.0671	130
82.9972	23
83.083	18
84.0832	999
86.0082	23
90.0346	46
91.0191	171
92.0513	46
94.0643	18
95.0483	37
96.0824	32
97.0912	27
98.0967	645
98.9894	18
103.0164	27
104.0255	69
105.0335	88
106.0273	32
106.0398	46
107.0125	274
107.0358	218
108.021	41
108.0437	139
109.0278	120
110.0962	83
110.9868	32
112.111	729
119.0129	69
133.0283	111
134.0353	492
135.0063	51
135.0316	27
136.0115	23
138.9849	162
154.9788	357
156.014	18
170.9965	69
182.9736	41
184.0159	60
198.9934	65
199.0118	27
214.0156	353
