Mass spectrum: Dexpanthenol; LC-ESI-QTOF; MS2; 50 V
Name: Dexpanthenol
Formula: C9H19NO4
Exact mass: 205.1314
SMILES: CC(C)(CO)C(C(=O)NCCCO)O
InChI: InChI=1S/C9H19NO4/c1-9(2,6-12)7(13)8(14)10-4-3-5-11/h7,11-13H,3-6H2,1-2H3,(H,10,14)
Instrument: TripleTOF 6600 SCIEX
Instrument type: LC-ESI-QTOF
Ms type: MS2
Ion mode: POSITIVE
Collision energy: 50
Fragmentation mode: CID
Ionization: ESI
Column name: Zorbax Eclipse Plus C18 2.1 mm x 150 mm, 3.5 um, Agilent
Retention time: 4.791 min
Precursor m/z: 206.1387
Precursor type: [M+H]+
m/z	relative intensity
30.0336	155
31.0174	149
37.0073	28
38.0144	28
39.0225	545
41.0382	999
42.0337	45
43.0173	528
43.0412	45
45.0328	91
46.0279	86
55.0531	86
56.0129	947
57.0693	51
58.0645	533
59.0482	80
65.0374	160
67.0539	568
69.0691	28
74.0222	51
76.0752	166
79.0526	28
80.0479	34
81.0575	28
83.0491	28
84.0428	28
95.0471	22
