Mass spectrum: Spirodiclofen-enol; LC-ESI-QTOF; MS2; 40 V
Name: Spirodiclofen-enol
Formula: C15H14Cl2O3
Exact mass: 312.032
SMILES: C1CCC2(CC1)C(=C(C(=O)O2)C3=C(C=C(C=C3)Cl)Cl)O
InChI: InChI=1S/C15H14Cl2O3/c16-9-4-5-10(11(17)8-9)12-13(18)15(20-14(12)19)6-2-1-3-7-15/h4-5,8,18H,1-3,6-7H2
Instrument: TripleTOF 6600 SCIEX
Instrument type: LC-ESI-QTOF
Ms type: MS2
Ion mode: POSITIVE
Collision energy: 40
Fragmentation mode: CID
Ionization: ESI
Column name: Zorbax Eclipse Plus C18 2.1 mm x 150 mm, 3.5 um, Agilent
Retention time: 12.261 min
Precursor m/z: 313.0393
Precursor type: [M+H]+
m/z	relative intensity
67.0538	27
79.0535	14
81.0691	32
110.9989	14
138.9957	18
146.9749	23
149.0143	10
156.9597	467
158.9752	378
162.0212	12
166.0175	12
170.9747	29
172.9542	36
174.9701	73
178.0769	40
179.0839	118
182.9744	24
184.9546	999
186.9703	33
188.0384	13
196.9904	36
198.9707	10
202.9645	56
204.0309	38
208.9904	19
212.9495	708
214.0527	86
214.9657	51
230.959	99
239.0008	56
242.047	16
249.0212	35
267.0323	42
277.0153	11
295.0261	50
