Mass spectrum: Clenbuterol; LC-ESI-QTOF; MS2; 110 V
Name: Clenbuterol
Class: Pharmaceutical
Formula: C12H18Cl2N2O
Exact mass: 276.0796
SMILES: CC(C)(C)NCC(c1cc(c(c(c1)Cl)N)Cl)O
InChI: InChI=1S/C12H18Cl2N2O/c1-12(2,3)16-6-10(17)7-4-8(13)11(15)9(14)5-7/h4-5,10,16-17H,6,15H2,1-3H3
Instrument: TripleTOF 5600 SCIEX
Instrument type: LC-ESI-QTOF
Ms type: MS2
Ion mode: POSITIVE
Collision energy: 110
Fragmentation mode: CID
Ionization: ESI
Column name: Zorbax Eclipse Plus C18 2.1 mm x 150 mm, 3.5 um, Agilent
Retention time: 6.115 min
Precursor m/z: 277.0869
Precursor type: [M+H]+
m/z	relative intensity
51.029	252
53.0435	11
57.0748	135
58.0703	41
64.0334	13
65.0423	20
67.0454	27
72.9877	55
74.0184	68
75.0262	101
76.021	32
76.0326	18
77.0421	953
78.038	103
78.0488	156
79.0429	62
79.0573	45
80.0518	75
87.0239	11
88.0322	43
89.0412	328
90.0353	59
90.0474	71
91.0432	32
92.0522	20
96.984	11
99.0019	27
102.0351	41
103.0427	13
104.0507	999
105.0577	119
106.0662	103
110.999	22
113.0151	25
114.0109	16
114.0346	27
115.041	18
116.0492	50
117.0577	71
118.0541	11
122.9999	22
127.0212	16
131.0609	225
132.0689	133
138.0097	11
140.0265	174
151.019	22
