Mass spectrum: 3,5-Diiodothyronine; LC-ESI-QTOF; MS2; 60 V
Name: 3,5-Diiodothyronine
Class: Pharmaceutical
Formula: C15H13I2NO4
Exact mass: 524.8934
SMILES: NC(Cc1cc(I)c(Oc2ccc(O)cc2)c(I)c1)C(O)=O
InChI: InChI=1S/C15H13I2NO4/c16-11-5-8(7-13(18)15(20)21)6-12(17)14(11)22-10-3-1-9(19)2-4-10/h1-6,13,19H,7,18H2,(H,20,21)
Instrument: TripleTOF 5600 SCIEX
Instrument type: LC-ESI-QTOF
Ms type: MS2
Ion mode: POSITIVE
Collision energy: 60
Fragmentation mode: CID
Ionization: ESI
Column name: Zorbax Eclipse Plus C18 2.1 mm x 150 mm, 3.5 um, Agilent
Retention time: 7.539 min
Precursor m/z: 525.9007
Precursor type: [M+H]+
m/z	relative intensity
77.0411	11
90.049	15
93.0345	12
94.0422	56
104.0496	32
105.0338	30
105.0575	29
109.0281	42
115.0535	14
117.0577	142
118.0644	43
127.0545	21
128.0622	66
129.0696	46
131.049	19
132.0441	16
133.0284	13
139.0547	37
141.0697	52
142.0774	39
143.0844	32
151.0571	13
152.062	53
153.0698	158
155.0488	14
155.0841	16
156.0571	10
157.0649	121
161.0231	32
165.0691	46
167.0493	70
168.0555	21
169.0643	37
170.0724	144
171.0799	98
180.0799	42
181.0644	407
182.072	31
183.0749	38
184.0516	373
185.0588	186
195.0539	14
196.0744	18
197.0597	296
198.0674	143
198.0909	60
199.0749	427
208.0753	29
209.0594	138
210.0664	124
211.0734	14
216.9504	93
217.9219	53
224.0698	78
225.0781	239
226.0851	98
231.9386	35
232.9451	123
237.0548	69
242.9578	24
243.9604	26
244.9095	32
244.9699	17
245.918	52
246.9308	10
259.9559	259
287.9279	26
296.9755	54
307.966	13
311.9649	53
322.9579	21
324.9719	999
325.9806	476
330.8375	11
335.9629	44
335.9873	10
336.972	56
338.9517	55
339.9589	86
344.8252	13
351.9815	79
352.991	477
353.9742	11
358.844	34
364.9681	25
372.8234	19
380.9604	28
381.9674	10
479.8941	51
