Mass spectrum: Trimethyl phosphate; LC-ESI-QTOF; MS2; 50 V
Name: Trimethyl phosphate
Class: Industrial_process
Formula: C3H9O4P
Exact mass: 140.0238
SMILES: COP(=O)(OC)OC
InChI: InChI=1S/C3H9O4P/c1-5-8(4,6-2)7-3/h1-3H3
Instrument: TripleTOF 5600 SCIEX
Instrument type: LC-ESI-QTOF
Ms type: MS2
Ion mode: POSITIVE
Collision energy: 50
Fragmentation mode: CID
Ionization: ESI
Column name: Zorbax Eclipse Plus C18 2.1 mm x 150 mm, 3.5 um, Agilent
Retention time: 4.966 min
Precursor m/z: 141.0311
Precursor type: [M+H]+
m/z	relative intensity
46.968	525
64.9796	210
78.9937	999
109.0049	315
