Mass spectrum: Alachlor; LC-ESI-QTOF; MS2; 40 V
Name: Alachlor
Class: Herbicide
Formula: C14H20ClNO2
Exact mass: 269.1183
SMILES: CCC1=C(C(=CC=C1)CC)N(COC)C(=O)CCl
InChI: InChI=1S/C14H20ClNO2/c1-4-11-7-6-8-12(5-2)14(11)16(10-18-3)13(17)9-15/h6-8H,4-5,9-10H2,1-3H3
Instrument: TripleTOF 6600 SCIEX
Instrument type: LC-ESI-QTOF
Ms type: MS2
Ion mode: POSITIVE
Collision energy: 40
Fragmentation mode: CID
Ionization: ESI
Column name: Zorbax Eclipse Plus C18 2.1 mm x 150 mm, 3.5 um, Agilent
Retention time: 13.233 min
Precursor m/z: 270.1255
Precursor type: [M+H]+
m/z	relative intensity
31.017	127
41.0377	34
45.0325	484
48.9829	54
59.0479	108
76.9769	50
90.0099	166
91.0527	92
93.068	23
105.0676	81
106.0635	23
115.0525	58
116.0617	23
117.0575	73
118.064	81
119.0721	54
119.0827	23
120.0796	108
128.0619	19
129.071	46
130.0632	58
130.0756	27
131.0743	81
132.08	549
133.0867	999
134.0953	92
142.0646	15
143.0721	34
144.0781	108
145.0864	50
146.0947	220
147.0637	23
147.1027	979
148.1108	716
149.0947	89
155.0685	15
156.0796	34
157.0888	27
158.0971	58
159.1032	23
160.0716	15
160.1098	34
161.1184	38
162.1261	844
163.1112	212
168.0825	15
169.0856	19
170.0949	81
171.1031	50
172.1088	30
173.082	27
174.0937	38
184.1106	38
185.1193	46
192.0568	15
206.0687	65
210.0695	15
220.0878	54
238.0978	15
