Mass spectrum: Quinmerac; LC-ESI-QTOF; MS2; 70 V
Name: Quinmerac
Class: Herbicide
Formula: C11H8ClNO2
Exact mass: 221.0244
SMILES: Cc1cc2ccc(c(c2nc1)C(=O)O)Cl
InChI: InChI=1S/C11H8ClNO2/c1-6-4-7-2-3-8(12)9(11(14)15)10(7)13-5-6/h2-5H,1H3,(H,14,15)
Instrument: TripleTOF 6600 SCIEX
Instrument type: LC-ESI-QTOF
Ms type: MS2
Ion mode: POSITIVE
Collision energy: 70
Fragmentation mode: CID
Ionization: ESI
Column name: Zorbax Eclipse Plus C18 2.1 mm x 150 mm, 3.5 um, Agilent
Retention time: 7.013 min
Precursor m/z: 222.0316
Precursor type: [M+H]+
m/z	relative intensity
39.023	14
48.9835	10
61.007	21
62.015	53
63.0226	137
64.0178	13
65.0386	35
72.9842	30
74.0149	26
75.0226	11
76.0312	17
86.0144	27
87.0228	92
88.0303	305
89.0377	49
90.0341	24
96.983	19
98.9994	40
102.0464	34
113.0384	717
114.0458	965
115.0416	32
115.0541	23
122.9999	74
123.9949	10
139.0417	21
140.0494	999
141.0567	159
149.015	215
150.0093	16
161.0014	10
