Mass spectrum: Nilotinib; LC-ESI-QTOF; MS2; 150 V
Name: Nilotinib
Class: Pharmaceutical
Formula: C28H22F3N7O
Exact mass: 529.1838
SMILES: Cc1cn(cn1)c2cc(NC(=O)c3ccc(C)c(Nc4nccc(n4)c5cccnc5)c3)cc(c2)C(F)(F)F
InChI: InChI=1S/C28H22F3N7O/c1-17-5-6-19(10-25(17)37-27-33-9-7-24(36-27)20-4-3-8-32-14-20)26(39)35-22-11-21(28(29,30)31)12-23(13-22)38-15-18(2)34-16-38/h3-16H,1-2H3,(H,35,39)(H,33,36,37)
Instrument: TripleTOF 5600 SCIEX
Instrument type: LC-ESI-QTOF
Ms type: MS2
Ion mode: POSITIVE
Collision energy: 150
Fragmentation mode: CID
Ionization: ESI
Column name: Zorbax Eclipse Plus C18 2.1 mm x 150 mm, 3.5 um, Agilent
Retention time: 8.404 min
Precursor m/z: 530.1911
Precursor type: [M+H]+
m/z	relative intensity
63.0387	42
75.0266	136
77.0424	333
77.0608	42
78.0369	213
79.0452	42
89.0397	93
91.0527	59
102.0384	222
104.0493	290
113.0192	51
114.0336	68
115.0433	111
116.0384	51
116.049	76
117.0565	68
118.0594	51
125.0192	42
126.0276	51
128.0498	76
129.0452	256
130.0482	76
131.0598	153
139.0548	59
140.0292	93
141.0429	51
142.051	85
143.0582	93
145.0286	76
151.034	42
151.0588	42
152.0523	85
153.0424	59
153.0554	34
155.0596	102
156.0561	93
164.0504	128
165.0537	119
166.0487	85
166.0651	68
167.0657	59
177.0427	68
179.063	85
189.043	76
189.0543	34
190.0495	76
190.0645	68
191.0612	136
192.0671	153
193.0632	93
194.0698	76
203.0618	93
204.0544	128
205.0742	93
206.0692	119
207.076	51
215.0608	34
216.0547	102
216.0713	42
217.0635	358
218.0723	162
229.0693	42
230.0721	187
231.0695	51
231.082	93
232.0707	34
232.0879	119
243.0715	273
244.0746	990
245.0843	119
256.076	51
257.0822	999
258.09	333
259.0982	324
