Mass spectrum: Ketoconazole; LC-ESI-QTOF; MS2; 70 V
Name: Ketoconazole
Class: Fungicide; Pharmaceutical
Formula: C26H28Cl2N4O4
Exact mass: 530.1488
SMILES: CC(=O)N1CCN(CC1)C2=CC=C(C=C2)OCC3COC(O3)(CN4C=CN=C4)C5=C(C=C(C=C5)Cl)Cl
InChI: InChI=1S/C26H28Cl2N4O4/c1-19(33)31-10-12-32(13-11-31)21-3-5-22(6-4-21)34-15-23-16-35-26(36-23,17-30-9-8-29-18-30)24-7-2-20(27)14-25(24)28/h2-9,14,18,23H,10-13,15-17H2,1H3
Instrument: TripleTOF 5600 SCIEX
Instrument type: LC-ESI-QTOF
Ms type: MS2
Ion mode: POSITIVE
Collision energy: 70
Fragmentation mode: CID
Ionization: ESI
Column name: Zorbax Eclipse Plus C18 2.1 mm x 150 mm, 3.5 um, Agilent
Retention time: 7.94 min
Precursor m/z: 531.156
Precursor type: [M+H]+
m/z	relative intensity
54.0407	12
56.0573	27
68.047	36
69.0505	72
70.0707	136
71.0663	88
77.0438	30
79.0612	27
81.0492	652
82.0569	999
83.0656	27
86.0632	57
91.0569	30
93.0349	18
103.0569	27
105.0714	21
106.0673	24
107.0525	60
109.0445	24
109.0755	21
112.0768	412
115.0559	33
117.0653	48
118.0681	51
119.0726	21
120.0444	291
120.0794	91
121.0475	18
122.06	239
122.9996	45
125.0125	30
127.0522	160
128.061	15
129.0721	39
130.0662	100
131.0504	39
131.0747	30
132.0572	54
132.0813	66
133.0582	36
134.0607	264
135.0674	285
136.0081	27
136.0759	248
139.0295	21
143.0725	30
144.0801	151
144.9582	15
145.0897	42
145.9726	12
146.0576	124
146.0978	179
146.9767	15
147.0655	15
147.0867	18
148.0761	419
149.0145	51
150.0248	81
151.0288	33
154.0645	12
156.0802	63
157.0874	30
157.9685	157
158.0987	106
158.9763	431
159.069	39
160.0767	60
161.0793	21
162.0895	48
163.0322	39
163.0836	15
163.1262	30
167.0269	75
167.0815	288
169.9679	373
170.9739	42
172.0723	51
172.1126	33
172.9554	267
174.0908	412
174.9654	21
174.9744	12
175.0866	12
176.0992	39
177.0781	15
177.1021	388
178.0852	30
178.1106	36
179.0274	15
184.9899	157
185.9631	501
186.9698	66
188.1056	30
189.1373	45
190.085	24
191.0336	18
191.1152	21
192.1009	103
200.1029	33
202.9668	33
203.0363	127
204.0208	21
204.1041	27
205.0318	39
215.1156	15
216.1023	42
217.1334	78
218.1143	18
219.0418	15
219.1106	85
219.1517	15
220.1217	12
233.0438	15
233.1248	18
234.1146	24
235.1467	21
236.9939	15
238.0028	60
239.0121	51
244.0025	57
247.0607	69
248.9929	15
252.9899	27
255.0076	543
267.0049	330
281.0242	85
297.0156	30
311.0223	33
378.0659	106
489.16	27
