Mass spectrum: Trioctylphosphine oxide; LC-ESI-QTOF; MS2; 70 V
Name: Trioctylphosphine oxide
Class: Industrial_process
Formula: C24H51OP
Exact mass: 386.3678
SMILES: CCCCCCCCP(=O)(CCCCCCCC)CCCCCCCC
InChI: InChI=1S/C24H51OP/c1-4-7-10-13-16-19-22-26(25,23-20-17-14-11-8-5-2)24-21-18-15-12-9-6-3/h4-24H2,1-3H3
Instrument: TripleTOF 5600 SCIEX
Instrument type: LC-ESI-QTOF
Ms type: MS2
Ion mode: POSITIVE
Collision energy: 70
Fragmentation mode: CID
Ionization: ESI
Column name: Zorbax Eclipse Plus C18 2.1 mm x 150 mm, 3.5 um, Agilent
Retention time: 22.9 min
Precursor m/z: 387.375
Precursor type: [M+H]+
m/z	relative intensity
63.0074	355
64.0147	220
65.021	12
67.061	12
69.0767	227
71.0914	22
73.0258	55
75.0038	12
75.0407	11
77.0209	389
78.0287	974
79.0368	18
83.0901	33
87.0406	40
90.0272	23
91.035	220
92.0429	610
93.0505	12
101.0549	46
103.0342	20
104.0425	29
105.0494	225
106.0572	54
107.0647	19
109.1036	10
115.07	25
117.0495	52
118.0561	24
119.0646	236
121.0803	11
129.0844	10
131.0643	44
132.0727	14
133.0797	284
135.0949	9
143.1009	32
145.0788	37
147.0946	251
157.1149	21
159.0953	34
161.1094	205
163.1258	80
171.1313	10
173.1083	17
175.1251	216
187.1234	22
189.1408	556
191.1533	20
203.1565	333
205.1722	43
215.1558	55
217.1719	281
219.188	37
229.1734	10
231.1872	717
233.2022	24
245.2031	539
259.2171	126
273.2343	117
275.2495	145
287.2482	43
289.2632	17
301.2658	999
303.2816	85
317.2949	100
331.3116	51
345.3307	21
387.3763	426
