Mass spectrum: Trimethoprim; LC-ESI-QTOF; MS2; 110 V
Name: Trimethoprim
Class: Pharmaceutical
Formula: C14H18N4O3
Exact mass: 290.1379
SMILES: COC1=CC(=CC(=C1OC)OC)CC2=CN=C(N=C2N)N
InChI: InChI=1S/C14H18N4O3/c1-19-10-5-8(6-11(20-2)12(10)21-3)4-9-7-17-14(16)18-13(9)15/h5-7H,4H2,1-3H3,(H4,15,16,17,18)
Instrument: TripleTOF 5600 SCIEX
Instrument type: LC-ESI-QTOF
Ms type: MS2
Ion mode: POSITIVE
Collision energy: 110
Fragmentation mode: CID
Ionization: ESI
Column name: Zorbax Eclipse Plus C18 2.1 mm x 150 mm, 3.5 um, Agilent
Retention time: 5.112 min
Precursor m/z: 291.1452
Precursor type: [M+H]+
m/z	relative intensity
38.0165	27
39.0229	87
41.0258	101
42.0342	27
43.0291	242
50.0147	94
51.0229	290
52.018	195
52.0298	27
53.0024	27
53.014	33
53.0388	60
54.0337	371
55.0423	60
61.007	27
62.0155	87
63.0229	351
64.0184	87
64.0306	33
65.0387	432
66.0342	54
66.0469	80
67.0293	47
67.0419	54
68.0232	60
68.0368	108
68.9976	54
69.0467	47
74.0157	121
75.0229	384
76.0177	202
76.0302	148
77.039	999
78.0336	242
78.0457	54
79.0296	121
79.0416	40
79.0541	47
80.0366	40
80.0496	168
81.0448	404
83.0489	80
86.0147	33
87.023	40
88.0179	54
88.0304	47
89.0384	654
90.034	533
91.0287	108
91.0422	148
91.0538	229
92.0351	33
92.0494	242
93.0458	54
93.0576	80
94.0463	94
94.0659	40
95.0613	33
96.0563	74
99.0224	27
100.0205	40
101.0383	161
102.0344	492
103.0295	67
103.0414	74
103.0544	108
104.0496	229
105.0454	229
106.0414	33
106.0518	40
106.0631	27
107.0465	40
107.0608	67
108.0552	108
109.0508	87
110.0593	40
113.0396	87
114.0338	303
115.0432	121
115.0554	242
116.049	242
117.0455	654
118.0409	513
118.0654	33
119.0592	182
120.0553	161
123.0668	74
126.0375	74
127.0441	60
128.0515	175
129.0459	168
130.0406	121
130.0656	74
131.0571	155
132.0549	87
133.0724	27
134.071	74
135.0662	216
140.0489	114
141.0459	101
142.0535	67
143.064	60
144.0561	526
146.0666	40
147.0681	128
149.084	33
153.0498	33
154.0363	33
155.06	40
156.051	27
161.083	236
173.0894	33
185.0809	67
