Mass spectrum: Propamocarb; LC-ESI-QTOF; MS2; 70 V
Name: Propamocarb
Class: Fungicide
Formula: C9H20N2O2
Exact mass: 188.1525
SMILES: CCCOC(=O)NCCCN(C)C
InChI: InChI=1S/C9H20N2O2/c1-4-8-13-9(12)10-6-5-7-11(2)3/h4-8H2,1-3H3,(H,10,12)
Instrument: TripleTOF 6600 SCIEX
Instrument type: LC-ESI-QTOF
Ms type: MS2
Ion mode: POSITIVE
Collision energy: 70
Fragmentation mode: CID
Ionization: ESI
Column name: Zorbax Eclipse Plus C18 2.1 mm x 150 mm, 3.5 um, Agilent
Retention time: 4.882 min
Precursor m/z: 189.1598
Precursor type: [M+H]+
m/z	relative intensity
30.0341	494
37.008	229
38.0036	54
38.0153	128
39.0237	898
41.039	724
42.034	999
43.0414	522
43.0548	54
44.0502	91
44.9972	219
46.065	82
56.0143	64
56.0494	91
58.0654	595
74.0227	201
102.0545	36
