Mass spectrum: Citalopram-N-oxide; LC-ESI-QTOF; MS2; 70 V
Name: Citalopram-N-oxide
Class: Metabolite; Pharmaceutical; Transformation_product; Transformation_product-Metabolite
Formula: C20H21FN2O2
Exact mass: 340.1587
SMILES: C[N+](C)(CCCC1(C2=C(CO1)C=C(C=C2)C#N)C3=CC=C(C=C3)F)[O-]
InChI: InChI=1S/C20H21FN2O2/c1-23(2,24)11-3-10-20(17-5-7-18(21)8-6-17)19-9-4-15(13-22)12-16(19)14-25-20/h4-9,12H,3,10-11,14H2,1-2H3
Instrument: TripleTOF 5600 SCIEX
Instrument type: LC-ESI-QTOF
Ms type: MS2
Ion mode: POSITIVE
Collision energy: 70
Fragmentation mode: CID
Ionization: ESI
Column name: Zorbax Eclipse Plus C18 2.1 mm x 150 mm, 3.5 um, Agilent
Retention time: 7.958 min
Precursor m/z: 341.166
Precursor type: [M+H]+
m/z	relative intensity
57.0189	15
58.0707	53
77.0417	16
83.0323	221
89.0413	160
95.0306	27
101.0402	19
103.0547	14
109.0464	999
113.0395	14
115.0545	39
116.0505	225
123.0258	15
127.055	32
128.0626	36
129.0705	18
133.0458	32
139.0552	62
140.0503	230
146.0534	16
163.0544	13
166.0656	70
170.0537	13
175.0546	20
181.0462	10
182.0531	10
183.0609	47
187.0547	13
189.0662	29
190.0657	123
193.0465	16
194.0533	35
195.0609	33
196.0678	15
199.0553	24
200.0545	86
201.0642	23
202.07	34
203.0743	11
206.0538	14
207.0613	119
208.0569	209
209.0667	10
213.0704	28
214.0672	106
215.0865	63
218.0567	48
219.0606	177
220.0676	212
221.0644	274
222.073	14
225.0588	23
226.0661	118
227.0739	316
228.0802	21
232.057	93
233.075	153
234.0719	143
235.0797	17
237.0597	24
238.0644	11
240.0823	173
241.0873	21
244.0684	49
245.0649	330
246.0727	477
247.0799	216
258.0714	35
259.0803	39
260.0885	42
261.0948	17
