Mass spectrum: 4-Aminoazobenzene; LC-ESI-QTOF; MS2; 50 V
Name: 4-Aminoazobenzene
Formula: C12H11N3
Exact mass: 197.0953
SMILES: C1=CC=C(C=C1)N=NC2=CC=C(C=C2)N
InChI: InChI=1S/C12H11N3/c13-10-6-8-12(9-7-10)15-14-11-4-2-1-3-5-11/h1-9H,13H2
Instrument: TripleTOF 6600 SCIEX
Instrument type: LC-ESI-QTOF
Ms type: MS2
Ion mode: POSITIVE
Collision energy: 50
Fragmentation mode: CID
Ionization: ESI
Column name: Zorbax Eclipse Plus C18 2.1 mm x 150 mm, 3.5 um, Agilent
Retention time: 12.247 min
Precursor m/z: 198.1026
Precursor type: [M+H]+
m/z	relative intensity
50.015	81
51.0231	396
52.0301	12
65.0384	38
66.0457	83
76.0305	210
77.0385	999
78.033	17
79.041	46
92.0488	38
93.0568	252
95.0482	58
105.0438	228
106.0515	19
152.0612	14
