Mass spectrum: 4-Methoxycinnamaldehyde; LC-ESI-QTOF; MS2; 90 V
Name: 4-Methoxycinnamaldehyde
Formula: C10H10O2
Exact mass: 162.0681
SMILES: COC1=CC=C(C=C1)C=CC=O
InChI: InChI=1S/C10H10O2/c1-12-10-6-4-9(5-7-10)3-2-8-11/h2-8H,1H3
Instrument: TripleTOF 6600 SCIEX
Instrument type: LC-ESI-QTOF
Ms type: MS2
Ion mode: POSITIVE
Collision energy: 90
Fragmentation mode: CID
Ionization: ESI
Column name: Zorbax Eclipse Plus C18 2.1 mm x 150 mm, 3.5 um, Agilent
Retention time: 9.471 min
Precursor m/z: 163.0754
Precursor type: [M+H]+
m/z	relative intensity
37.0076	215
38.0158	274
39.0232	999
40.0271	97
49.0075	97
50.0148	685
51.0231	724
52.0305	117
61.0065	117
62.0152	391
63.023	587
65.0386	568
74.0166	117
75.0221	97
76.0315	97
89.0388	137
91.0541	195
