Mass spectrum: Sulcotrione; LC-ESI-QTOF; MS2; 100 V
Name: Sulcotrione
Class: Herbicide
Formula: C14H13ClO5S
Exact mass: 328.0172
SMILES: CS(=O)(=O)C1=CC(=C(C=C1)C(=O)C2C(=O)CCCC2=O)Cl
InChI: InChI=1S/C14H13ClO5S/c1-21(19,20)8-5-6-9(10(15)7-8)14(18)13-11(16)3-2-4-12(13)17/h5-7,13H,2-4H2,1H3
Instrument: TripleTOF 6600 SCIEX
Instrument type: LC-ESI-QTOF
Ms type: MS2
Ion mode: POSITIVE
Collision energy: 100
Fragmentation mode: CID
Ionization: ESI
Column name: Zorbax Eclipse Plus C18 2.1 mm x 150 mm, 3.5 um, Agilent
Retention time: 9.651 min
Precursor m/z: 329.0245
Precursor type: [M+H]+
m/z	relative intensity
39.0236	13
41.0025	113
51.0247	10
55.0184	44
63.0227	14
66.0102	13
68.9976	999
72.9839	26
74.0146	13
75.0226	21
77.0023	17
77.0381	13
87.0229	39
89.0376	10
92.0263	10
96.9833	13
98.0166	23
98.9989	11
99.0229	39
102.0444	10
107.9774	26
115.0542	28
121.0278	10
121.9915	19
127.0193	14
133.992	15
139.0552	25
