Mass spectrum: Simvastatin; LC-ESI-QTOF; MS2; 20 V
Name: Simvastatin
Class: Pharmaceutical
Formula: C25H38O5
Exact mass: 418.2719
SMILES: CCC(C)(C)C(=O)O[C@H]1C[C@@H](C)C=C2C=C[C@H](C)[C@H](CC[C@@H]3C[C@@H](O)CC(=O)O3)[C@@H]12
InChI: InChI=1S/C25H38O5/c1-6-25(4,5)24(28)30-21-12-15(2)11-17-8-7-16(3)20(23(17)21)10-9-19-13-18(26)14-22(27)29-19/h7-8,11,15-16,18-21,23,26H,6,9-10,12-14H2,1-5H3/t15-,16-,18+,19+,20-,21-,23-/m0/s1
Instrument: TripleTOF 5600 SCIEX
Instrument type: LC-ESI-QTOF
Ms type: MS2
Ion mode: POSITIVE
Collision energy: 20
Fragmentation mode: CID
Ionization: ESI
Column name: Zorbax Eclipse Plus C18 2.1 mm x 150 mm, 3.5 um, Agilent
Retention time: 15.438 min
Precursor m/z: 419.2792
Precursor type: [M+H]+
m/z	relative intensity
79.0556	12
107.0833	21
125.0591	48
131.0833	12
143.0681	57
145.0987	19
145.118	12
157.1004	14
159.1157	40
163.1114	9
169.1005	28
171.1159	21
173.1311	252
185.1311	16
191.104	16
197.1309	16
199.1472	763
201.1622	160
203.1045	9
205.1223	12
209.1162	38
211.1499	14
215.1807	19
223.1449	86
225.1629	429
229.1206	19
239.1782	129
243.1736	614
249.1635	144
267.1739	343
285.1835	999
303.1944	374
419.2788	105
