Mass spectrum: 7-Amino-4-methylcoumarin; LC-ESI-QTOF; MS2; 40 V
Name: 7-Amino-4-methylcoumarin
Formula: C10H9NO2
Exact mass: 175.0633
SMILES: CC1=CC(=O)OC2=C1C=CC(=C2)N
InChI: InChI=1S/C10H9NO2/c1-6-4-10(12)13-9-5-7(11)2-3-8(6)9/h2-5H,11H2,1H3
Instrument: TripleTOF X500R SCIEX
Instrument type: LC-ESI-QTOF
Ms type: MS2
Ion mode: POSITIVE
Collision energy: 40
Fragmentation mode: CID
Ionization: ESI
Column name: Zorbax Eclipse Plus C18 2.1 mm x 150 mm, 3.5 um, Agilent
Retention time: 7.107 min
Precursor m/z: 176.0706
Precursor type: [M+H]+
m/z	relative intensity
39.0229	15
42.034	26
51.0229	28
54.0342	10
65.0389	35
67.0177	18
68.0127	65
77.0388	452
79.0544	46
80.0496	23
89.0386	33
90.0475	30
91.0545	137
92.0505	45
93.0585	269
94.0405	11
94.0649	65
102.0472	56
103.0547	999
104.0497	216
105.058	122
106.0658	62
109.0641	20
115.0549	219
116.0608	10
117.0573	239
118.0658	140
119.0733	102
120.0809	538
130.0652	175
131.0495	36
131.0725	36
133.053	160
146.0611	26
147.0681	18
148.0772	15
176.0705	41
