Mass spectrum: 4-Aminoazobenzene; LC-ESI-QTOF; MS2; 140 V
Name: 4-Aminoazobenzene
Formula: C12H11N3
Exact mass: 197.0953
SMILES: C1=CC=C(C=C1)N=NC2=CC=C(C=C2)N
InChI: InChI=1S/C12H11N3/c13-10-6-8-12(9-7-10)15-14-11-4-2-1-3-5-11/h1-9H,13H2
Instrument: TripleTOF 6600 SCIEX
Instrument type: LC-ESI-QTOF
Ms type: MS2
Ion mode: POSITIVE
Collision energy: 140
Fragmentation mode: CID
Ionization: ESI
Column name: Zorbax Eclipse Plus C18 2.1 mm x 150 mm, 3.5 um, Agilent
Retention time: 12.247 min
Precursor m/z: 198.1026
Precursor type: [M+H]+
m/z	relative intensity
35.9993	19
37.0075	127
38.0151	61
39.0227	83
49.0073	301
50.0154	999
51.0105	15
51.0227	240
52.0178	79
61.0068	22
62.0152	11
65.0006	11
66.0092	11
73.0067	86
74.0144	176
77.0134	43
