Mass spectrum: 4-Amino-6-Chloro-1,3-Benzenedisulfonamide; LC-ESI-QTOF; MS2; 110 V
Name: 4-Amino-6-Chloro-1,3-Benzenedisulfonamide
Class: Pharmaceutical
Formula: C6H8ClN3O4S2
Exact mass: 284.9645
SMILES: C1=C(C(=CC(=C1Cl)S(=O)(=O)N)S(=O)(=O)N)N
InChI: InChI=1S/C6H8ClN3O4S2/c7-3-1-4(8)6(16(10,13)14)2-5(3)15(9,11)12/h1-2H,8H2,(H2,9,11,12)(H2,10,13,14)
Instrument: TripleTOF 5600 SCIEX
Instrument type: LC-ESI-QTOF
Ms type: CID
Ion mode: POSITIVE
Collision energy: 110
Ionization: ESI
Column name: Zorbax Eclipse Plus C18 2.1 mm x 150 mm, 3.5 um, Agilent
Retention time: 4.984 min
Precursor m/z: 285.9718
Precursor type: [M+H]+
m/z	relative intensity
51.0317	499
52.0277	999
52.0385	0
60.9982	499
62.0295	999
72.988	499
89.0336	499
120.956	499
