Mass spectrum: Azacyclonol; LC-ESI-QTOF; MS2; 90 V
Name: Azacyclonol
Class: Pharmaceutical
Formula: C18H21NO
Exact mass: 267.1623
SMILES: OC(C1CCNCC1)(C2=CC=CC=C2)C3=CC=CC=C3
InChI: InChI=1S/C18H21NO/c20-18(15-7-3-1-4-8-15,16-9-5-2-6-10-16)17-11-13-19-14-12-17/h1-10,17,19-20H,11-14H2
Instrument: TripleTOF 5600 SCIEX
Instrument type: LC-ESI-QTOF
Ms type: MS2
Ion mode: POSITIVE
Collision energy: 90
Fragmentation mode: CID
Ionization: ESI
Column name: Zorbax Eclipse Plus C18 2.1 mm x 150 mm, 3.5 um, Agilent
Retention time: 6.644 min
Precursor m/z: 268.1696
Precursor type: [M+H]+
m/z	relative intensity
37.0067	11
39.0232	64
41.039	20
42.0339	41
44.0493	32
50.0155	27
51.0231	96
56.0495	25
62.0138	11
63.0226	62
65.0388	622
67.0421	29
68.0496	29
74.0154	11
75.0248	22
76.0301	27
77.0385	466
78.0457	89
79.0537	55
80.0499	20
82.0653	43
84.0801	43
89.0378	103
91.0543	999
101.0391	22
102.0462	213
103.054	107
105.0692	34
115.0546	459
116.0626	13
117.0678	9
126.0475	78
127.054	264
128.0622	902
130.0658	16
139.0543	34
141.0695	48
150.0461	20
151.0553	57
152.0622	149
163.0548	36
164.0634	71
165.0696	296
176.0639	55
177.0664	16
177.0762	11
178.0767	68
189.0717	103
190.0737	13
200.0657	13
201.0675	20
202.0788	66
203.0856	16
