Mass spectrum: Lumichrome; LC-ESI-QTOF; MS2; 40 V
Name: Lumichrome
Class: Pharmaceutical
Formula: C12H10N4O2
Exact mass: 242.0804
SMILES: CC1=CC2=C(C=C1C)N=C3C(=N2)C(=O)NC(=O)N3
InChI: InChI=1S/C12H10N4O2/c1-5-3-7-8(4-6(5)2)14-10-9(13-7)11(17)16-12(18)15-10/h3-4H,1-2H3,(H2,14,15,16,17,18)
Instrument: TripleTOF 6600 SCIEX
Instrument type: LC-ESI-QTOF
Ms type: MS2
Ion mode: POSITIVE
Collision energy: 40
Fragmentation mode: CID
Ionization: ESI
Column name: Zorbax Eclipse Plus C18 2.1 mm x 150 mm, 3.5 um, Agilent
Retention time: 7.067 min
Precursor m/z: 243.0877
Precursor type: [M+H]+
m/z	relative intensity
77.0391	36
91.0548	48
103.0546	216
104.0495	26
116.0496	81
117.0576	13
118.0653	164
128.0495	32
130.0654	207
131.0715	10
143.0603	37
145.0765	452
153.0445	24
156.0541	11
157.0646	160
170.0715	523
172.0873	843
182.0703	32
197.083	26
198.0669	999
200.0822	54
216.0781	11
243.0877	38
