Mass spectrum: Ranitidine-N-oxide; LC-ESI-QTOF; MS2; 80 V
Name: Ranitidine-N-oxide
Class: Pharmaceutical; Transformation_product
Formula: C13H22N4O4S
Exact mass: 330.1362
SMILES: CNC(/NCCSCc1oc(C[N+](C)(C)[O-])cc1)=C\[N+]([O-])=O
InChI: InChI=1S/C13H22N4O4S/c1-14-13(8-16(18)19)15-6-7-22-10-12-5-4-11(21-12)9-17(2,3)20/h4-5,8,14-15H,6-7,9-10H2,1-3H3/b13-8+
Instrument: TripleTOF 5600 SCIEX
Instrument type: LC-ESI-QTOF
Ms type: MS2
Ion mode: POSITIVE
Collision energy: 80
Fragmentation mode: CID
Ionization: ESI
Column name: Zorbax Eclipse Plus C18 2.1 mm x 150 mm, 3.5 um, Agilent
Retention time: 4.879 min
Precursor m/z: 331.1435
Precursor type: [M+H]+
m/z	relative intensity
51.0298	21
53.0436	147
54.0391	17
55.0474	70
56.0537	182
57.0483	35
59.0005	49
60.007	24
65.0422	38
66.052	21
67.0574	24
68.0527	70
70.0691	28
71.0643	14
77.041	361
78.0365	31
78.0484	35
79.0567	98
80.0514	122
81.0363	999
81.0702	21
82.054	77
82.0649	21
83.0625	94
88.0227	31
91.0554	87
92.0514	17
93.0575	84
94.0426	70
94.0665	108
95.0498	35
95.0613	17
96.069	63
97.0119	80
97.0771	869
98.0831	45
101.03	21
102.0379	851
104.0498	192
105.0347	24
105.0568	17
106.043	17
106.0642	73
107.0496	466
108.0573	31
108.0806	28
109.0113	17
109.0258	14
109.0749	28
115.0335	42
117.057	70
118.064	101
119.0603	52
120.0702	66
121.0757	101
122.0602	28
122.0834	17
123.0265	49
125.0061	192
129.0485	38
130.0568	94
131.0807	14
132.0444	192
132.0631	14
133.009	24
133.0521	178
133.0759	70
134.0593	35
135.0262	14
135.0923	87
136.0739	17
137.0044	14
139.0335	14
146.0596	17
147.0663	28
147.0917	14
148.0763	73
150.0389	38
151.0206	24
163.0844	24
177.1039	21
178.0298	14
