Mass spectrum: Beclomethasone; LC-ESI-QTOF; MS2; 30 V
Name: Beclomethasone
Class: Pharmaceutical
Formula: C22H29ClO5
Exact mass: 408.1704
SMILES: CC1CC2C3CCC4=CC(=O)C=CC4(C3(C(CC2(C1(C(=O)CO)O)C)O)Cl)C
InChI: InChI=1S/C22H29ClO5/c1-12-8-16-15-5-4-13-9-14(25)6-7-19(13,2)21(15,23)17(26)10-20(16,3)22(12,28)18(27)11-24/h6-7,9,12,15-17,24,26,28H,4-5,8,10-11H2,1-3H3
Instrument: TripleTOF 5600 SCIEX
Instrument type: LC-ESI-QTOF
Ms type: MS2
Ion mode: POSITIVE
Collision energy: 30
Fragmentation mode: CID
Ionization: ESI
Column name: Zorbax Eclipse Plus C18 2.1 mm x 150 mm, 3.5 um, Agilent
Retention time: 9.326 min
Precursor m/z: 409.1776
Precursor type: [M+H]+
m/z	relative intensity
101.059	108
107.0843	40
109.1016	47
115.0485	27
119.0841	40
121.0643	135
121.1014	27
123.0796	61
133.0655	33
135.0785	169
137.0931	40
143.0928	33
145.1018	40
147.0808	305
151.0774	108
153.0937	61
159.0761	47
161.0946	108
169.0581	40
169.0836	40
171.0799	210
171.1157	33
173.0953	135
177.0875	33
185.0954	135
187.0725	40
187.1116	88
195.0789	33
197.0963	101
199.1109	47
209.0983	74
211.1108	149
213.1271	61
215.1057	61
221.0937	67
222.0959	27
223.1112	142
224.1178	47
225.128	101
233.0822	33
235.0983	33
235.1148	67
237.1269	292
239.1423	414
243.1253	27
247.1021	33
248.1191	33
249.1256	169
251.1494	54
253.1632	54
255.1402	40
259.1047	33
260.1136	40
261.1251	74
262.1309	27
262.1418	95
263.1413	373
264.1594	40
267.1369	61
274.1336	40
275.1454	129
276.1432	61
277.1609	285
278.1676	183
279.173	774
286.135	47
289.1592	197
291.1711	285
295.1666	142
297.175	27
301.1551	183
307.1727	149
309.1838	88
319.1704	251
337.1764	394
355.1883	163
391.1666	999
