Mass spectrum: (1-(3,4-Dimethoxybenzoyl)-undecyl)-trimethyl-ammonium; LC-ESI-QTOF; MS2; 110 V
Name: (1-(3,4-Dimethoxybenzoyl)-undecyl)-trimethyl-ammonium
Formula: C23H40NO3
Exact mass: 378.3003
SMILES: CCCCCCCCCCC(C(=O)c1ccc(c(c1)OC)OC)[N+](C)(C)C
InChI: InChI=1S/C23H40NO3/c1-7-8-9-10-11-12-13-14-15-20(24(2,3)4)23(25)19-16-17-21(26-5)22(18-19)27-6/h16-18,20H,7-15H2,1-6H3/q+1
Instrument: TripleTOF 5600 SCIEX
Instrument type: LC-ESI-QTOF
Ms type: CID
Ion mode: POSITIVE
Collision energy: 110
Ionization: ESI
Column name: Zorbax Eclipse Plus C18 2.1 mm x 150 mm, 3.5 um, Agilent
Retention time: 10.896 min
Precursor m/z: 378.3003
Precursor type: [M]+
m/z	relative intensity
44.0575	89
58.07	139
60.085	100
64.0336	84
65.0426	281
66.0504	429
77.0417	999
78.0475	52
79.0193	67
79.0554	155
92.0267	254
94.0422	131
105.0329	91
107.0129	223
107.0491	174
121.0287	329
122.0358	70
135.0446	52
