Mass spectrum: 4-Hydroxydiphenylamine; LC-ESI-QTOF; MS2; 60 V
Name: 4-Hydroxydiphenylamine
Class: Pesticide; Industrial_process
Formula: C12H11NO
Exact mass: 185.0841
SMILES: C1=CC=C(C=C1)NC2=CC=C(C=C2)O
InChI: InChI=1S/C12H11NO/c14-12-8-6-11(7-9-12)13-10-4-2-1-3-5-10/h1-9,13-14H
Instrument: TripleTOF 6600 SCIEX
Instrument type: LC-ESI-QTOF
Ms type: MS2
Ion mode: POSITIVE
Collision energy: 60
Fragmentation mode: CID
Ionization: ESI
Column name: Zorbax Eclipse Plus C18 2.1 mm x 150 mm, 3.5 um, Agilent
Retention time: 10.034 min
Precursor m/z: 186.0914
Precursor type: [M+H]+
m/z	relative intensity
39.0222	50
51.0222	17
53.0377	101
54.0334	28
63.0219	13
65.0374	90
66.0452	65
80.0489	999
81.0327	86
81.0557	52
82.0402	36
92.0484	25
93.056	83
108.0431	146
109.0513	295
115.0526	31
139.0532	12
