Mass spectrum: Dipyridamole; LC-ESI-QTOF; MS2; 60 V
Name: Dipyridamole
Class: Pharmaceutical
Formula: C24H40N8O4
Exact mass: 504.3173
SMILES: OCCN(CCO)c1nc(N2CCCCC2)c3nc(nc(N4CCCCC4)c3n1)N(CCO)CCO
InChI: InChI=1S/C24H40N8O4/c33-15-11-31(12-16-34)23-26-20-19(21(27-23)29-7-3-1-4-8-29)25-24(32(13-17-35)14-18-36)28-22(20)30-9-5-2-6-10-30/h33-36H,1-18H2
Instrument: TripleTOF 5600 SCIEX
Instrument type: LC-ESI-QTOF
Ms type: MS2
Ion mode: POSITIVE
Collision energy: 60
Fragmentation mode: CID
Ionization: ESI
Column name: Zorbax Eclipse Plus C18 2.1 mm x 150 mm, 3.5 um, Agilent
Retention time: 7.666 min
Precursor m/z: 505.3245
Precursor type: [M+H]+
m/z	relative intensity
114.0543	39
216.0978	9
217.1109	10
218.1104	11
220.1174	11
230.1253	9
233.1194	14
234.113	9
243.1316	11
245.1441	13
247.1274	16
248.1254	12
249.1203	15
257.153	10
258.1449	13
259.1423	25
260.1237	11
260.1514	14
261.133	12
263.1295	13
270.1521	10
272.1615	21
273.1525	51
274.1488	21
275.135	13
275.1586	12
276.168	13
277.1377	16
284.1608	17
285.1576	19
286.1399	12
286.1785	27
287.1696	19
288.1755	13
289.1728	22
290.1827	16
298.1764	18
299.1629	28
300.1851	17
302.1727	88
303.178	14
304.157	14
304.1857	39
313.1866	19
314.1734	29
315.1582	20
315.1876	9
316.1878	111
317.183	87
318.2038	29
320.1963	17
321.1663	14
325.1901	9
328.186	53
329.1852	45
330.2024	52
331.1998	52
332.1847	24
333.1948	9
334.1971	10
340.1904	9
341.189	11
341.2219	25
342.2021	11
342.2162	9
343.2005	57
344.1929	13
346.198	159
347.2017	13
348.1854	10
348.2135	109
354.2252	10
355.2021	39
355.2347	23
356.2176	23
357.2148	32
358.1975	33
360.2142	94
361.2086	86
367.2351	20
368.2186	28
369.2151	25
369.2499	13
370.2267	11
371.2268	14
372.2202	16
373.2113	52
374.2313	26
375.2287	19
378.2241	29
381.2471	14
382.2365	11
383.2307	40
385.2467	826
386.2401	45
387.2258	48
397.2465	44
398.259	18
399.2201	12
399.2617	218
400.2623	23
401.2393	33
402.2267	24
404.2399	111
411.2623	82
412.2533	18
413.2427	29
415.257	74
416.265	19
417.2351	102
417.269	33
419.2511	22
420.2378	33
422.2526	66
427.2565	31
429.2729	999
430.2806	33
431.2526	64
441.2698	20
442.285	14
443.2873	87
449.2628	27
459.2865	26
460.2891	37
461.3003	53
487.3139	120
503.3123	31
505.3253	669
