Mass spectrum: 4,4`-Thiodianiline; LC-ESI-QTOF; MS2; 40 V
Name: 4,4`-Thiodianiline
Formula: C12H12N2S
Exact mass: 216.0721
SMILES: C1=CC(=CC=C1N)SC2=CC=C(C=C2)N
InChI: InChI=1S/C12H12N2S/c13-9-1-5-11(6-2-9)15-12-7-3-10(14)4-8-12/h1-8H,13-14H2
Instrument: TripleTOF 6600 SCIEX
Instrument type: LC-ESI-QTOF
Ms type: MS2
Ion mode: POSITIVE
Collision energy: 40
Fragmentation mode: CID
Ionization: ESI
Column name: Zorbax Eclipse Plus C18 2.1 mm x 150 mm, 3.5 um, Agilent
Retention time: 6.429 min
Precursor m/z: 217.0794
Precursor type: [M+H]+
m/z	relative intensity
76.0297	13
80.0486	290
93.0568	115
97.0093	27
123.0126	14
124.0207	999
125.0237	12
129.0682	10
139.0531	269
156.079	43
157.0829	20
166.0623	30
167.0717	146
171.024	38
172.0312	42
183.0242	137
183.091	24
184.0328	209
184.0976	103
185.1012	95
198.0369	30
199.0434	464
200.051	56
215.0628	34
216.0692	33
217.0802	11
