Mass spectrum: Betamethasone; LC-ESI-QTOF; MS2; 140 V
Name: Betamethasone
Class: Pharmaceutical
Formula: C22H29FO5
Exact mass: 392.1999
SMILES: C[C@H]1C[C@H]2[C@@H]3CCC4=CC(=O)C=C[C@@]4([C@]3([C@H](C[C@@]2([C@]1(C(=O)CO)O)C)O)F)C
InChI: InChI=1S/C22H29FO5/c1-12-8-16-15-5-4-13-9-14(25)6-7-19(13,2)21(15,23)17(26)10-20(16,3)22(12,28)18(27)11-24/h6-7,9,12,15-17,24,26,28H,4-5,8,10-11H2,1-3H3/t12-,15-,16-,17-,19-,20-,21-,22-/m0/s1
Instrument: TripleTOF 5600 SCIEX
Instrument type: LC-ESI-QTOF
Ms type: MS2
Ion mode: POSITIVE
Collision energy: 140
Fragmentation mode: CID
Ionization: ESI
Column name: Zorbax Eclipse Plus C18 2.1 mm x 150 mm, 3.5 um, Agilent
Retention time: 9.016 min
Precursor m/z: 393.2072
Precursor type: [M+H]+
m/z	relative intensity
43.0312	42
51.033	219
65.0453	299
67.0614	33
75.0268	37
76.0353	21
77.0434	931
78.0514	113
79.0599	75
89.0412	134
91.0574	573
101.0388	33
102.0491	160
103.0548	185
104.0635	29
105.0697	46
107.0501	54
114.0472	21
115.0547	999
116.0648	33
117.0713	33
121.0655	71
125.038	25
126.0472	96
127.0535	316
128.0635	514
129.0693	67
131.0499	126
133.0461	29
139.0581	143
141.0707	139
146.0538	25
150.0447	80
151.0549	202
152.0621	522
153.0679	80
155.0464	25
163.0527	172
164.0622	134
165.0704	543
176.0616	252
177.0627	25
177.0723	71
178.0793	227
181.0623	63
187.0526	88
188.0635	80
189.0704	501
190.078	42
191.0875	29
200.0631	101
201.0714	92
202.0772	341
203.0845	25
205.0636	29
213.0709	130
214.0773	33
215.0857	92
218.0744	29
224.0628	29
225.0661	21
226.0784	164
228.0938	16
231.0844	21
238.0813	16
239.088	33
