Mass spectrum: Iopromide; LC-ESI-QTOF; MS2; 20 V
Name: Iopromide
Class: Pharmaceutical
Formula: C18H24I3N3O8
Exact mass: 790.8698
InChI: InChI=1S/C18H24I3N3O8/c1-24(4-9(28)6-26)18(31)12-13(19)11(17(30)22-3-8(27)5-25)14(20)16(15(12)21)23-10(29)7-32-2/h8-9,25-28H,3-7H2,1-2H3,(H,22,30)(H,23,29)
Instrument: TripleTOF 5600 SCIEX
Instrument type: LC-ESI-QTOF
Ms type: CID
Ion mode: POSITIVE
Collision energy: 20
Ionization: ESI
Column name: Zorbax Eclipse Plus C18 2.1 mm x 150 mm, 3.5 um, Agilent
Retention time: 4.895 min
Precursor m/z: 791.877
Precursor type: [M+H]+
m/z	relative intensity
558.8868	14
572.9023	34
686.8055	10
700.8139	18
773.8649	50
791.8767	999
