Mass spectrum: Sunitinib; LC-ESI-QTOF; MS2; 100 V
Name: Sunitinib
Class: Pharmaceutical
Formula: C22H27FN4O2
Exact mass: 398.2118
SMILES: CCN(CC)CCNC(=O)C1=C(NC(=C1C)C=C2C3=C(C=CC(=C3)F)NC2=O)C
InChI: InChI=1S/C22H27FN4O2/c1-5-27(6-2)10-9-24-22(29)20-13(3)19(25-14(20)4)12-17-16-11-15(23)7-8-18(16)26-21(17)28/h7-8,11-12,25H,5-6,9-10H2,1-4H3,(H,24,29)(H,26,28)
Instrument: TripleTOF 5600 SCIEX
Instrument type: LC-ESI-QTOF
Ms type: MS2
Ion mode: NEGATIVE
Collision energy: 100
Fragmentation mode: CID
Ionization: ESI
Column name: Zorbax Eclipse Plus C18 2.1 mm x 150 mm, 3.5 um, Agilent
Retention time: 6.516 min
Precursor m/z: 397.2045
Precursor type: [M-H]-
m/z	relative intensity
42.0015	570
42.0126	142
42.021	71
78.0365	71
94.0671	214
114.0361	142
134.0403	428
139.0295	142
139.0469	71
149.026	214
159.0365	356
162.0339	285
162.043	71
164.0592	71
174.032	142
175.0311	71
182.0436	142
184.0581	356
184.0735	71
187.0321	71
188.036	71
191.0611	356
191.0773	71
209.0503	356
211.0694	999
211.0987	71
212.0778	142
222.0601	142
223.0596	214
225.0772	71
235.074	71
236.0651	356
237.0465	214
237.0633	142
238.046	71
238.0578	356
239.0585	214
250.0535	142
253.0719	142
255.0947	71
264.071	71
