Mass spectrum: 14-Hydroxycodeinone; LC-ESI-QTOF; MS2; 50 V
Name: 14-Hydroxycodeinone
Class: Pharmaceutical; Transformation_product
Formula: C18H19NO4
Exact mass: 313.1314
SMILES: COc1ccc2C[C@H]3N(C)CC[C@@]45C(Oc1c24)C(=O)C=C[C@@]35O
InChI: InChI=1S/C18H19NO4/c1-19-8-7-17-14-10-3-4-12(22-2)15(14)23-16(17)11(20)5-6-18(17,21)13(19)9-10/h3-6,13,16,21H,7-9H2,1-2H3/t13-,16?,17+,18-/m1/s1
Instrument: TripleTOF 5600 SCIEX
Instrument type: LC-ESI-QTOF
Ms type: MS2
Ion mode: POSITIVE
Collision energy: 50
Fragmentation mode: CID
Ionization: ESI
Column name: Zorbax Eclipse Plus C18 2.1 mm x 150 mm, 3.5 um, Agilent
Retention time: 5.367 min
Precursor m/z: 314.1387
Precursor type: [M+H]+
m/z	relative intensity
94.0659	15
131.0721	11
139.0539	24
141.0696	12
152.0617	21
153.0695	19
155.0492	12
159.0738	15
165.0702	43
166.0769	18
167.0494	30
167.0779	31
168.0571	17
168.0788	18
169.0646	11
177.0698	14
178.0779	17
179.0842	16
180.0807	10
181.0669	16
181.0881	33
182.0961	65
183.0796	15
184.0516	11
192.0812	12
193.0657	11
193.0891	11
194.0749	15
194.0961	30
195.0796	34
196.0818	23
196.1121	15
197.059	25
197.0847	11
205.0647	21
206.0708	10
206.0957	13
207.0759	16
208.0758	22
208.1108	11
209.086	16
210.0917	132
211.0785	15
211.099	24
212.0818	24
212.1066	23
218.0967	60
220.0762	20
221.0609	15
221.0837	23
222.0682	16
222.0903	21
223.0991	50
224.1062	59
225.0573	14
226.0859	14
227.1054	12
234.0906	26
236.0749	11
236.1069	24
237.0806	32
238.0869	726
239.0941	999
240.0781	10
246.0912	22
247.099	10
249.0785	11
252.1023	117
253.11	55
254.1183	241
263.0951	10
264.1019	103
265.0771	12
265.1125	12
266.081	63
268.1343	10
280.0967	103
281.1055	48
296.1263	10
