Mass spectrum: Disperse orange 3; LC-ESI-QTOF; MS2; 110 V
Name: Disperse orange 3
Formula: C12H10N4O2
Exact mass: 242.0804
SMILES: C1=CC(=CC=C1N)N=NC2=CC=C(C=C2)[N+](=O)[O-]
InChI: InChI=1S/C12H10N4O2/c13-9-1-3-10(4-2-9)14-15-11-5-7-12(8-6-11)16(17)18/h1-8H,13H2
Instrument: TripleTOF 6600 SCIEX
Instrument type: LC-ESI-QTOF
Ms type: MS2
Ion mode: POSITIVE
Collision energy: 110
Fragmentation mode: CID
Ionization: ESI
Column name: Zorbax Eclipse Plus C18 2.1 mm x 150 mm, 3.5 um, Agilent
Retention time: 12.729 min
Precursor m/z: 243.0877
Precursor type: [M+H]+
m/z	relative intensity
37.006	60
38.0142	41
39.0223	95
49.0063	188
50.0143	999
51.0215	99
52.0166	26
52.0293	47
61.0067	25
62.0136	76
63.0213	118
65.0368	73
66.0446	26
73.0057	141
74.0136	961
75.0211	254
76.0287	68
78.0324	50
80.0467	17
92.048	10
93.0555	10
105.0416	27
