Mass spectrum: Triphenylphosphine oxide; LC-ESI-QTOF; MS2; 100 V
Name: Triphenylphosphine oxide
Class: Industrial_process
Formula: C18H15OP
Exact mass: 278.0861
SMILES: O=[P](c1ccccc1)(c2ccccc2)c3ccccc3
InChI: InChI=1S/C18H15OP/c19-20(16-10-4-1-5-11-16,17-12-6-2-7-13-17)18-14-8-3-9-15-18/h1-15H
Instrument: TripleTOF 5600 SCIEX
Instrument type: LC-ESI-QTOF
Ms type: MS2
Ion mode: POSITIVE
Collision energy: 100
Fragmentation mode: CID
Ionization: ESI
Column name: Zorbax Eclipse Plus C18 2.1 mm x 150 mm, 3.5 um, Agilent
Retention time: 10.458 min
Precursor m/z: 279.0933
Precursor type: [M+H]+
m/z	relative intensity
51.0308	999
65.0449	25
67.9853	40
68.9934	221
74.0189	29
76.0325	11
77.0416	713
78.0498	36
80.9898	14
89.0394	53
91.9824	11
92.9971	11
95.0048	57
98.0132	11
102.0471	77
107.0047	165
113.0424	12
115.0536	138
126.0466	70
127.0539	101
128.0616	151
131.0072	22
133.0189	38
139.0539	88
141.0687	11
144.0135	22
145.0203	16
150.0479	49
151.0543	147
152.0624	414
153.0689	23
155.0585	11
156.0135	12
157.0197	84
168.0122	16
169.0211	20
170.0282	105
181.0192	60
183.0363	27
