Mass spectrum: Drometrizole; LC-ESI-QTOF; MS2; 70 V
Name: Drometrizole
Class: Industrial_process
Formula: C13H11N3O
Exact mass: 225.0902
SMILES: CC1=CC(=C(C=C1)O)N2N=C3C=CC=CC3=N2
InChI: InChI=1S/C13H11N3O/c1-9-6-7-13(17)12(8-9)16-14-10-4-2-3-5-11(10)15-16/h2-8,17H,1H3
Instrument: TripleTOF 5600 SCIEX
Instrument type: LC-ESI-QTOF
Ms type: MS2
Ion mode: POSITIVE
Collision energy: 70
Fragmentation mode: CID
Ionization: ESI
Column name: Zorbax Eclipse Plus C18 2.1 mm x 150 mm, 3.5 um, Agilent
Retention time: 15.201 min
Precursor m/z: 226.0975
Precursor type: [M+H]+
m/z	relative intensity
65.0455	227
75.0279	22
77.0445	999
78.0404	68
79.0477	140
80.0562	24
89.0434	15
91.0477	20
92.0535	30
93.0617	17
101.0385	17
102.047	52
105.0464	177
106.0564	18
107.0523	17
115.0567	32
120.0585	34
126.0483	41
127.0565	168
128.0502	102
129.0474	17
130.0662	15
139.0566	11
140.0486	18
151.0553	20
152.0628	45
153.0593	18
154.0669	115
155.0622	20
164.0518	28
166.0606	11
167.0719	54
168.0801	13
179.0702	15
180.0784	13
181.0763	56
182.0679	11
