Mass spectrum: 2-Aminobenzimidazole; LC-ESI-QTOF; MS2; 140 V
Name: 2-Aminobenzimidazole
Class: Transformation_product; Fungicide
Formula: C7H7N3
Exact mass: 133.064
SMILES: C1=CC=C2C(=C1)NC(=N2)N
InChI: InChI=1S/C7H7N3/c8-7-9-5-3-1-2-4-6(5)10-7/h1-4H,(H3,8,9,10)
Instrument: TripleTOF 6600 SCIEX
Instrument type: LC-ESI-QTOF
Ms type: MS2
Ion mode: POSITIVE
Collision energy: 140
Fragmentation mode: CID
Ionization: ESI
Column name: Zorbax Eclipse Plus C18 2.1 mm x 150 mm, 3.5 um, Agilent
Retention time: 4.787 min
Precursor m/z: 134.0713
Precursor type: [M+H]+
m/z	relative intensity
35.999	442
37.0071	999
38.0028	152
38.0149	358
39.0223	114
42.0208	91
43.0285	144
49.0068	190
50.0146	190
51.0104	45
52.0181	68
59.9991	144
61.0069	335
62.0144	122
