Mass spectrum: Repaglinide; LC-ESI-QTOF; MS2; 80 V
Name: Repaglinide
Class: Pharmaceutical
Formula: C27H36N2O4
Exact mass: 452.2675
SMILES: CCOc1cc(CC(=O)N[C@@H](CC(C)C)c2ccccc2N3CCCCC3)ccc1C(O)=O
InChI: InChI=1S/C27H36N2O4/c1-4-33-25-17-20(12-13-22(25)27(31)32)18-26(30)28-23(16-19(2)3)21-10-6-7-11-24(21)29-14-8-5-9-15-29/h6-7,10-13,17,19,23H,4-5,8-9,14-16,18H2,1-3H3,(H,28,30)(H,31,32)/t23-/m0/s1
Instrument: TripleTOF 5600 SCIEX
Instrument type: LC-ESI-QTOF
Ms type: MS2
Ion mode: POSITIVE
Collision energy: 80
Fragmentation mode: CID
Ionization: ESI
Column name: Zorbax Eclipse Plus C18 2.1 mm x 150 mm, 3.5 um, Agilent
Retention time: 10.348 min
Precursor m/z: 453.2748
Precursor type: [M+H]+
m/z	relative intensity
44.0577	36
55.0592	14
65.0419	18
67.0578	10
69.0735	22
77.0415	37
79.0566	19
86.0986	122
89.0402	10
91.0562	257
103.0545	18
104.0517	15
105.0338	62
105.0696	25
106.0658	251
115.0542	19
117.0579	289
118.0656	796
119.0723	13
120.0809	112
123.044	12
129.0689	22
130.0657	600
131.0734	394
132.0812	309
133.0895	16
143.0726	43
144.0813	572
145.0886	114
146.0969	741
156.0814	11
157.0898	20
158.0973	377
159.1044	138
160.1125	67
162.1281	106
170.0963	18
172.1129	999
173.1199	37
174.1287	702
184.1115	16
186.1283	170
188.1438	20
202.1591	23
230.1912	318
