Mass spectrum: Budesonide; LC-ESI-QTOF; MS2; 40 V
Name: Budesonide
Class: Pharmaceutical
Formula: C25H34O6
Exact mass: 430.2355
SMILES: CCC[C@@H]1O[C@@H]2C[C@H]3[C@@H]4CCC5=CC(=O)C=C[C@]5(C)[C@H]4[C@@H](O)C[C@]3(C)[C@@]2(O1)C(=O)CO
InChI: InChI=1S/C25H34O6/c1-4-5-21-30-20-11-17-16-7-6-14-10-15(27)8-9-23(14,2)22(16)18(28)12-24(17,3)25(20,31-21)19(29)13-26/h8-10,16-18,20-22,26,28H,4-7,11-13H2,1-3H3/t16-,17-,18-,20+,21+,22+,23-,24-,25+/m0/s1
Instrument: TripleTOF 5600 SCIEX
Instrument type: LC-ESI-QTOF
Ms type: MS2
Ion mode: POSITIVE
Collision energy: 40
Fragmentation mode: CID
Ionization: ESI
Column name: Zorbax Eclipse Plus C18 2.1 mm x 150 mm, 3.5 um, Agilent
Retention time: 11.041 min
Precursor m/z: 431.2428
Precursor type: [M+H]+
m/z	relative intensity
81.0714	34
91.0554	49
93.0739	39
95.0857	34
101.0233	24
105.0696	29
107.086	34
109.0658	24
117.0689	24
119.0854	63
121.0642	236
123.0809	24
129.0707	24
131.0849	34
132.0562	24
133.0656	24
133.1027	29
135.0804	137
137.0586	59
139.0722	19
143.084	29
145.0655	49
145.1003	29
147.0802	999
149.061	29
149.0954	24
155.079	54
157.101	34
158.0725	29
159.08	132
161.0958	103
163.0749	49
169.0979	34
171.0799	413
172.0887	29
173.0959	733
175.1128	29
181.0961	39
183.0792	44
185.0976	127
187.077	24
187.1104	88
193.1022	29
195.0818	78
196.088	34
197.0944	201
199.1127	152
207.1184	59
208.0893	49
209.0949	103
210.1039	59
211.1112	236
213.1281	73
215.1077	29
220.0862	24
221.0973	103
221.1301	19
222.1052	83
223.1113	182
224.1172	49
225.0908	39
225.1266	487
226.1351	295
227.143	182
234.1022	34
235.1107	182
235.1444	24
237.1271	290
239.1035	34
239.1431	127
241.1596	63
245.0917	19
246.1038	29
247.1123	54
247.1477	34
248.1215	98
249.1261	191
250.1447	29
251.1423	113
253.1609	59
255.1386	29
259.1449	63
261.1254	68
262.1349	98
263.1042	39
263.1418	295
264.1495	103
265.1227	39
265.1591	280
267.14	44
267.1757	39
271.1132	29
272.1215	59
274.1386	19
275.1435	59
276.1158	29
277.1237	34
277.1579	255
279.1398	44
279.1712	24
281.1542	54
283.1726	24
287.143	88
290.1332	59
293.1547	34
295.1705	108
305.1518	123
323.1625	132
413.229	49
