Mass spectrum: 5-Chlorobenzotriazole; LC-ESI-QTOF; MS2; 50 V
Name: 5-Chlorobenzotriazole
Class: Industrial_process
Formula: C6H4ClN3
Exact mass: 153.0094
SMILES: Clc1ccc2n[nH]nc2c1
InChI: InChI=1S/C6H4ClN3/c7-4-1-2-5-6(3-4)9-10-8-5/h1-3H,(H,8,9,10)
Instrument: TripleTOF 5600 SCIEX
Instrument type: LC-ESI-QTOF
Ms type: MS2
Ion mode: POSITIVE
Collision energy: 50
Fragmentation mode: CID
Ionization: ESI
Column name: Zorbax Eclipse Plus C18 2.1 mm x 150 mm, 3.5 um, Agilent
Retention time: 7.635 min
Precursor m/z: 154.0167
Precursor type: [M+H]+
m/z	relative intensity
41.0362	17
52.025	57
60.0047	13
61.9838	32
65.0302	57
66.0375	13
72.9878	824
75.0128	25
76.0207	75
89.0272	12
90.0358	413
91.0433	500
97.9921	21
99.0004	999
119.0481	191
125.0024	56
126.0096	16
154.0161	21
