Mass spectrum: Phenacetin; LC-ESI-QTOF; MS2; 100 V
Name: Phenacetin
Class: Pharmaceutical
Formula: C10H13NO2
Exact mass: 179.0946
SMILES: CCOC1=CC=C(C=C1)NC(=O)C
InChI: InChI=1S/C10H13NO2/c1-3-13-10-6-4-9(5-7-10)11-8(2)12/h4-7H,3H2,1-2H3,(H,11,12)
Instrument: TripleTOF 5600 SCIEX
Instrument type: LC-ESI-QTOF
Ms type: MS2
Ion mode: POSITIVE
Collision energy: 100
Fragmentation mode: CID
Ionization: ESI
Column name: Zorbax Eclipse Plus C18 2.1 mm x 150 mm, 3.5 um, Agilent
Retention time: 7.622 min
Precursor m/z: 180.1019
Precursor type: [M+H]+
m/z	relative intensity
35.9994	84
37.0072	344
38.0151	316
39.0227	999
41.0258	39
42.0333	50
43.0178	953
44.0134	62
51.023	180
52.0183	45
53.003	28
53.0385	287
54.0339	101
65.0385	333
66.047	90
67.0415	50
74.0152	62
77.0376	33
78.0329	28
80.0492	417
92.0484	39
93.0571	22
