Mass spectrum: 5`-Deoxy-5`-(methylthio)adenosine; LC-ESI-QTOF; MS2; 120 V
Name: 5`-Deoxy-5`-(methylthio)adenosine
Class: Metabolite
Formula: C11H15N5O3S
Exact mass: 297.0896
SMILES: NC1=NC=NC2=C1N=CN2C3C(O)C(O)C(CSC)O3
InChI: InChI=1S/C11H15N5O3S/c1-20-2-5-7(17)8(18)11(19-5)16-4-15-6-9(12)13-3-14-10(6)16/h3-5,7-8,11,17-18H,2H2,1H3,(H2,12,13,14)
Instrument: TripleTOF 5600 SCIEX
Instrument type: LC-ESI-QTOF
Ms type: MS2
Ion mode: POSITIVE
Collision energy: 120
Fragmentation mode: CID
Ionization: ESI
Column name: Zorbax Eclipse Plus C18 2.1 mm x 150 mm, 3.5 um, Agilent
Retention time: 4.785 min
Precursor m/z: 298.0969
Precursor type: [M+H]+
m/z	relative intensity
34.9948	17
38.0027	40
39.023	33
40.0182	88
41.0387	28
43.0288	18
44.9795	113
45.9871	82
46.9951	71
49.0103	29
53.0136	28
55.0291	112
57.0337	14
57.9871	17
58.9949	52
60.0028	22
61.0107	388
65.0137	999
66.0214	19
67.0292	258
69.0337	11
71.0126	16
75.0265	111
77.0137	95
82.0403	20
92.0247	687
94.04	66
109.0513	22
119.0355	603
136.0618	32
