Mass spectrum: Thieno[3,2-b]pyridin-7-ol; LC-ESI-QTOF; MS2; 60 V
Name: Thieno[3,2-b]pyridin-7-ol
Formula: C7H5NOS
Exact mass: 151.0092
SMILES: C1=CNC2=C(C1=O)SC=C2
InChI: InChI=1S/C7H5NOS/c9-6-1-3-8-5-2-4-10-7(5)6/h1-4H,(H,8,9)
Instrument: TripleTOF 6600 SCIEX
Instrument type: LC-ESI-QTOF
Ms type: MS2
Ion mode: POSITIVE
Collision energy: 60
Fragmentation mode: CID
Ionization: ESI
Column name: Zorbax Eclipse Plus C18 2.1 mm x 150 mm, 3.5 um, Agilent
Retention time: 4.72 min
Precursor m/z: 152.0165
Precursor type: [M+H]+
m/z	relative intensity
35.9995	12
37.0076	158
38.0033	25
38.0153	148
39.0234	999
40.0185	30
41.0258	25
42.0342	12
43.9707	12
44.0131	37
44.9798	536
50.0148	32
51.0229	83
52.0179	21
52.0311	16
53.0027	261
53.0386	534
54.0339	68
55.018	79
56.9787	50
57.9874	81
61.0066	45
62.0148	68
63.0233	307
64.0176	56
64.0297	21
65.0384	34
66.0334	21
67.0415	153
67.9697	10
68.0131	95
68.9789	240
69.9867	32
70.9947	157
75.0095	79
76.0183	366
78.0343	34
79.0415	14
80.0496	518
80.9781	43
81.9879	52
82.995	202
83.9898	36
84.0021	63
84.974	14
90.0333	56
91.0423	39
94.029	135
94.9945	50
96.0023	57
97.0109	518
98.0054	32
100.0205	14
106.9937	16
110.0053	148
110.9993	39
111.9843	12
120.0437	21
122.0064	12
123.0134	45
134.0043	25
152.0144	25
