Mass spectrum: Daidzein; LC-ESI-QTOF; MS2; 60 V
Name: Daidzein
Class: Pharmaceutical; Natural_product
Formula: C15H10O4
Exact mass: 254.0579
SMILES: Oc1ccc(cc1)C2=COc3cc(O)ccc3C2=O
InChI: InChI=1S/C15H10O4/c16-10-3-1-9(2-4-10)13-8-19-14-7-11(17)5-6-12(14)15(13)18/h1-8,16-17H
Instrument: TripleTOF 5600 SCIEX
Instrument type: LC-ESI-QTOF
Ms type: MS2
Ion mode: POSITIVE
Collision energy: 60
Fragmentation mode: CID
Ionization: ESI
Column name: Zorbax Eclipse Plus C18 2.1 mm x 150 mm, 3.5 um, Agilent
Retention time: 7.744 min
Precursor m/z: 255.0652
Precursor type: [M+H]+
m/z	relative intensity
39.0232	37
51.023	20
53.0392	36
55.0182	21
63.0228	20
65.039	507
68.9978	59
75.0236	14
77.0388	112
78.0464	59
81.0334	220
89.0381	59
90.0472	11
91.0543	655
92.0255	12
93.0333	19
101.0382	14
102.0461	18
103.0549	38
105.0329	78
106.0418	43
107.0497	12
109.0282	28
115.0539	124
116.062	12
118.0412	28
119.0493	29
121.0274	21
126.0458	16
127.0542	159
128.0615	372
129.0691	29
131.0481	73
134.0349	19
137.0233	193
139.0539	24
141.0688	96
144.0567	19
145.0287	15
147.0442	24
150.0462	20
151.0544	158
152.0618	999
153.0692	211
155.0481	29
156.0579	11
157.0653	27
163.0545	24
165.0679	20
168.0579	25
169.0655	59
170.0717	15
171.0806	11
180.0571	15
181.0638	265
182.0725	15
184.0505	43
197.0592	128
198.0686	23
199.0767	15
225.0551	10
