Mass spectrum: Iobitridol; LC-ESI-QTOF; MS2; 90 V
Name: Iobitridol
Class: Pharmaceutical
Formula: C20H28I3N3O9
Exact mass: 834.896
SMILES: CN(CC(O)CO)C(=O)c1c(I)c(NC(=O)C(CO)CO)c(I)c(c1I)C(=O)N(C)CC(O)CO
InChI: InChI=1S/C20H28I3N3O9/c1-25(3-10(31)7-29)19(34)12-14(21)13(20(35)26(2)4-11(32)8-30)16(23)17(15(12)22)24-18(33)9(5-27)6-28/h9-11,27-32H,3-8H2,1-2H3,(H,24,33)
Instrument: TripleTOF 5600 SCIEX
Instrument type: LC-ESI-QTOF
Ms type: MS2
Ion mode: POSITIVE
Collision energy: 90
Fragmentation mode: CID
Ionization: ESI
Column name: Zorbax Eclipse Plus C18 2.1 mm x 150 mm, 3.5 um, Agilent
Retention time: 4.58 min
Precursor m/z: 835.9032
Precursor type: [M+H]+
m/z	relative intensity
170.0261	235
200.0365	146
273.0865	264
275.0975	146
296.927	499
313.9316	293
317.9668	235
325.9432	117
326.9407	205
339.9056	352
343.9413	411
344.9465	146
369.924	117
383.8063	264
385.8177	176
400.998	323
423.8399	381
425.8154	205
439.7883	999
467.8079	117
470.8382	176
497.8327	558
554.879	205
554.904	176
