Mass spectrum: Nitrazepam; LC-ESI-QTOF; MS2; 50 V
Name: Nitrazepam
Class: Pharmaceutical
Formula: C15H11N3O3
Exact mass: 281.08
SMILES: C1C(=O)NC2=C(C=C(C=C2)[N+](=O)[O-])C(=N1)C3=CC=CC=C3
InChI: InChI=1S/C15H11N3O3/c19-14-9-16-15(10-4-2-1-3-5-10)12-8-11(18(20)21)6-7-13(12)17-14/h1-8H,9H2,(H,17,19)
Instrument: TripleTOF 6600 SCIEX
Instrument type: LC-ESI-QTOF
Ms type: MS2
Ion mode: NEGATIVE
Collision energy: 50
Fragmentation mode: CID
Ionization: ESI
Column name: Zorbax Eclipse Plus C18 2.1 mm x 150 mm, 3.5 um, Agilent
Retention time: 9.435 min
Precursor m/z: 280.0727
Precursor type: [M-H]-
m/z	relative intensity
41.9982	23
45.993	68
101.0383	16
115.0546	17
141.0329	18
164.0528	10
165.0572	14
166.0662	634
194.0613	999
195.0546	41
205.0524	40
206.0607	169
222.056	850
223.063	14
251.0455	38
252.0531	221
278.0552	13
