Mass spectrum: Dimethachlor ESA; LC-ESI-QTOF; MS2; 80 V
Name: Dimethachlor ESA
Class: Transformation_product; Herbicide
Formula: C13H19NO5S
Exact mass: 301.0984
InChI: InChI=1S/C13H19NO5S/c1-10-5-4-6-11(2)13(10)14(7-8-19-3)12(15)9-20(16,17)18/h4-6H,7-9H2,1-3H3,(H,16,17,18)
Instrument: TripleTOF 6600 SCIEX
Instrument type: LC-ESI-QTOF
Ms type: CID
Ion mode: POSITIVE
Collision energy: 80
Ionization: ESI
Column name: Zorbax Eclipse Plus C18 2.1 mm x 150 mm, 3.5 um, Agilent
Retention time: 6.763 min
Precursor m/z: 302.1057
Precursor type: [M+H]+
m/z	relative intensity
51.0232	65
77.0386	329
79.0544	226
89.0392	56
90.0466	141
91.0538	141
103.0552	169
105.0701	386
115.053	47
117.0575	999
130.0645	659
131.073	452
132.0804	329
143.0712	65
144.0806	94
146.0958	94
158.0956	47
