Mass spectrum: Desethylterbuthylazine; LC-ESI-QTOF; MS2; 130 V
Name: Desethylterbuthylazine
Class: Herbicide; Transformation_product; Metabolite
Formula: C7H12ClN5
Exact mass: 201.0781
SMILES: CC(C)(C)NC1=NC(=NC(=N1)N)Cl
InChI: InChI=1S/C7H12ClN5/c1-7(2,3)13-6-11-4(8)10-5(9)12-6/h1-3H3,(H3,9,10,11,12,13)
Instrument: TripleTOF 6600 SCIEX
Instrument type: LC-ESI-QTOF
Ms type: MS2
Ion mode: POSITIVE
Collision energy: 130
Fragmentation mode: CID
Ionization: ESI
Column name: Zorbax Eclipse Plus C18 2.1 mm x 150 mm, 3.5 um, Agilent
Retention time: 9.136 min
Precursor m/z: 202.0854
Precursor type: [M+H]+
m/z	relative intensity
35.9997	27
37.0073	105
38.0033	15
38.015	82
39.0231	230
41.0135	94
41.0389	15
42.0216	157
42.033	42
43.0295	935
52.0055	11
53.0132	98
61.9795	999
68.0244	137
86.9737	10
