Mass spectrum: Methyl 4-hydroxybenzoate; LC-ESI-QTOF; MS2; 70 V
Name: Methyl 4-hydroxybenzoate
Formula: C8H8O3
Exact mass: 152.0473
InChI: InChI=1S/C8H8O3/c1-11-8(10)6-2-4-7(9)5-3-6/h2-5,9H,1H3
Ms type: Q
Ion mode: NEGATIVE
Collision energy: 70
Ionization: ESI
Retention time: 7.587 min
Precursor m/z: 151.0401
Precursor type: [M-H]-
m/z	relative intensity
41.0031	561
92.0264	999
