Mass spectrum: 2-Ethoxyethyl-N-(4-methylphenyl)carbamate; LC-ESI-QTOF; MS2; 100 V
Name: 2-Ethoxyethyl-N-(4-methylphenyl)carbamate
Class: Pharmaceutical
Formula: C12H17NO3
Exact mass: 223.1208
SMILES: CCOCCOC(=O)NC1=CC=C(C=C1)C
InChI: InChI=1S/C12H17NO3/c1-3-15-8-9-16-12(14)13-11-6-4-10(2)5-7-11/h4-7H,3,8-9H2,1-2H3,(H,13,14)
Instrument: TripleTOF 5600 SCIEX
Instrument type: LC-ESI-QTOF
Ms type: MS2
Ion mode: POSITIVE
Collision energy: 100
Fragmentation mode: CID
Ionization: ESI
Column name: Zorbax Eclipse Plus C18 2.1 mm x 150 mm, 3.5 um, Agilent
Retention time: 10.768 min
Precursor m/z: 224.1281
Precursor type: [M+H]+
m/z	relative intensity
43.0329	108
45.0473	659
50.0252	93
61.0155	23
62.0185	11
62.0258	32
63.0301	87
66.0525	43
77.045	999
78.0468	26
79.0613	84
89.0433	20
91.0592	87
92.0544	23
93.0623	43
106.0682	38
