Mass spectrum: Prallethrin; LC-ESI-QTOF; MS2; 30 V
Name: Prallethrin
Class: Insecticide
Formula: C19H24O3
Exact mass: 300.1725
SMILES: CC1=C(C(=O)CC1OC(=O)C2C(C2(C)C)C=C(C)C)CC#C
InChI: InChI=1S/C19H24O3/c1-7-8-13-12(4)16(10-15(13)20)22-18(21)17-14(9-11(2)3)19(17,5)6/h1,9,14,16-17H,8,10H2,2-6H3
Instrument: TripleTOF 6600 SCIEX
Instrument type: LC-ESI-QTOF
Ms type: MS2
Ion mode: POSITIVE
Collision energy: 30
Fragmentation mode: CID
Ionization: ESI
Column name: Zorbax Eclipse Plus C18 2.1 mm x 150 mm, 3.5 um, Agilent
Retention time: 14.861 min
Precursor m/z: 301.1798
Precursor type: [M+H]+
m/z	relative intensity
51.024	14
55.0184	57
55.0545	10
57.0706	22
67.0545	30
69.0704	54
77.0386	136
79.0548	290
81.0702	184
83.0861	21
85.066	15
91.0549	28
93.0698	21
95.0496	20
95.086	45
103.0547	211
105.0704	999
107.0852	13
109.065	35
109.1019	23
113.0602	28
115.0543	53
121.0648	28
121.1014	71
123.1175	642
131.0851	11
133.0655	294
139.1115	11
143.0857	11
149.0965	41
151.1123	68
199.1119	11
