Mass spectrum: Nitenpyram; LC-ESI-QTOF; MS2; 50 V
Name: Nitenpyram
Class: Pharmaceutical; Insecticide
Formula: C11H15ClN4O2
Exact mass: 270.0884
SMILES: CCN(Cc1ccc(Cl)nc1)\C(NC)=C\[N+]([O-])=O
InChI: InChI=1S/C11H15ClN4O2/c1-3-15(11(13-2)8-16(17)18)7-9-4-5-10(12)14-6-9/h4-6,8,13H,3,7H2,1-2H3/b11-8+
Instrument: TripleTOF 5600 SCIEX
Instrument type: LC-ESI-QTOF
Ms type: MS2
Ion mode: POSITIVE
Collision energy: 50
Fragmentation mode: CID
Ionization: ESI
Column name: Zorbax Eclipse Plus C18 2.1 mm x 150 mm, 3.5 um, Agilent
Retention time: 5.386 min
Precursor m/z: 271.0956
Precursor type: [M+H]+
m/z	relative intensity
42.0474	16
55.0361	10
56.0562	999
57.063	10
58.0704	50
58.0833	10
70.0663	10
71.0648	22
72.9883	33
78.0371	14
85.0423	14
85.077	10
90.0352	145
91.0454	37
98.0721	27
98.9991	85
99.0921	37
102.0365	18
104.0517	16
105.0547	14
106.0645	20
111.9941	10
114.0109	12
116.0495	12
117.0575	27
119.061	12
125.0045	14
126.0107	529
127.0176	16
128.0265	25
131.0596	20
132.0677	20
133.0765	39
138.0097	43
139.0055	47
140.0225	18
141.0211	70
145.0763	29
146.0814	22
150.0106	22
151.0151	22
152.0264	50
153.0208	39
154.0386	12
155.0351	29
159.0928	18
160.086	70
161.0971	12
165.0217	60
166.0161	18
167.0352	47
169.052	150
179.0373	133
179.0628	10
180.0369	35
181.0516	18
188.1185	16
193.0532	43
194.0364	37
195.0674	41
196.0629	20
207.0431	29
208.0518	14
209.0589	16
224.0952	66
