Mass spectrum: Fenbendazole; LC-ESI-QTOF; MS2; 70 V
Name: Fenbendazole
Class: Pharmaceutical
Formula: C15H13N3O2S
Exact mass: 299.0728
SMILES: COC(=O)Nc1[nH]c2cc(Sc3ccccc3)ccc2n1
InChI: InChI=1S/C15H13N3O2S/c1-20-15(19)18-14-16-12-8-7-11(9-13(12)17-14)21-10-5-3-2-4-6-10/h2-9H,1H3,(H2,16,17,18,19)
Instrument: TripleTOF 5600 SCIEX
Instrument type: LC-ESI-QTOF
Ms type: MS2
Ion mode: POSITIVE
Collision energy: 70
Fragmentation mode: CID
Ionization: ESI
Column name: Zorbax Eclipse Plus C18 2.1 mm x 150 mm, 3.5 um, Agilent
Retention time: 9.947 min
Precursor m/z: 300.0801
Precursor type: [M+H]+
m/z	relative intensity
65.0417	32
68.9814	15
76.0239	64
77.0292	318
78.0352	25
91.0439	11
92.0374	12
94.9955	19
103.0415	102
104.0379	798
105.0443	35
109.0104	95
115.0536	11
116.0356	27
118.0521	16
119.0486	46
120.9998	16
122.0055	136
127.0537	20
128.0618	11
130.0394	55
131.0479	999
136.0086	40
139.0531	10
146.0332	17
154.0631	20
158.0346	17
159.0425	852
163.0183	37
164.0262	19
166.0646	11
171.0258	116
172.0342	19
186.036	20
190.0061	37
191.0145	62
196.0219	17
198.0356	32
199.0436	18
211.0307	12
224.0384	17
225.0466	45
239.0507	22
