Mass spectrum: Metrafenone; LC-ESI-QTOF; MS2; 80 V
Name: Metrafenone
Class: Fungicide
Formula: C19H21BrO5
Exact mass: 408.0572
SMILES: CC1=CC(=C(C(=C1C(=O)C2=C(C=CC(=C2C)Br)OC)OC)OC)OC
InChI: InChI=1S/C19H21BrO5/c1-10-9-14(23-4)18(24-5)19(25-6)15(10)17(21)16-11(2)12(20)7-8-13(16)22-3/h7-9H,1-6H3
Instrument: TripleTOF 6600 SCIEX
Instrument type: LC-ESI-QTOF
Ms type: MS2
Ion mode: POSITIVE
Collision energy: 80
Fragmentation mode: CID
Ionization: ESI
Column name: Zorbax Eclipse Plus C18 2.1 mm x 150 mm, 3.5 um, Agilent
Retention time: 15.123 min
Precursor m/z: 409.0645
Precursor type: [M+H]+
m/z	relative intensity
39.0268	19
51.0273	51
52.0345	17
53.0424	13
62.0183	11
63.0285	41
64.0341	11
65.0426	103
66.0507	27
67.0591	58
75.0264	11
76.0342	17
77.0424	858
78.0503	76
79.0582	144
80.0296	28
80.0655	16
81.0369	16
81.0728	33
89.0423	641
90.0502	999
91.0581	809
92.0658	98
93.0023	10
93.0373	14
94.0449	64
95.0522	92
105.0368	600
106.0443	87
107.0525	126
108.0235	60
108.061	75
109.0686	76
118.0426	63
119.0517	103
120.0591	96
121.0311	83
121.0686	25
122.0383	84
123.0476	258
133.0303	36
134.0388	58
135.0467	207
136.0537	76
137.0628	65
142.9517	21
147.0453	50
148.0547	78
149.0259	23
150.0329	106
151.041	323
154.9499	218
155.9591	96
163.0418	53
164.0495	15
165.0566	334
166.0645	81
168.9666	414
177.0203	10
179.0359	28
182.9461	717
183.9531	484
191.0353	57
193.0502	46
194.0615	14
196.9725	19
209.09	10
211.9484	138
226.9705	77
