Mass spectrum: Gabapentin-lactam; LC-ESI-QTOF; MS2; 90 V
Name: Gabapentin-lactam
Formula: C9H15NO
Exact mass: 153.1154
InChI: InChI=1S/C9H15NO/c11-8-6-9(7-10-8)4-2-1-3-5-9/h1-7H2,(H,10,11)
Instrument: TripleTOF 5600 SCIEX
Instrument type: LC-ESI-QTOF
Ms type: CID
Ion mode: POSITIVE
Collision energy: 90
Ionization: ESI
Column name: Zorbax Eclipse Plus C18 2.1 mm x 150 mm, 3.5 um, Agilent
Retention time: 7.593 min
Precursor m/z: 154.1227
Precursor type: [M+H]+
m/z	relative intensity
37.0072	277
38.0147	333
39.0228	943
41.039	277
44.013	999
51.0233	499
65.0392	277
77.0375	333
