Mass spectrum: Foramsulfuron; LC-ESI-QTOF; MS2; 150 V
Name: Foramsulfuron
Class: Herbicide
Formula: C17H20N6O7S
Exact mass: 452.1114
SMILES: CN(C)C(=O)C1=C(C=C(C=C1)NC=O)S(=O)(=O)NC(=O)NC2=NC(=CC(=N2)OC)OC
InChI: InChI=1S/C17H20N6O7S/c1-23(2)15(25)11-6-5-10(18-9-24)7-12(11)31(27,28)22-17(26)21-16-19-13(29-3)8-14(20-16)30-4/h5-9H,1-4H3,(H,18,24)(H2,19,20,21,22,26)
Instrument: TripleTOF 6600 SCIEX
Instrument type: LC-ESI-QTOF
Ms type: MS2
Ion mode: POSITIVE
Collision energy: 150
Fragmentation mode: CID
Ionization: ESI
Column name: Zorbax Eclipse Plus C18 2.1 mm x 150 mm, 3.5 um, Agilent
Retention time: 8.823 min
Precursor m/z: 453.1187
Precursor type: [M+H]+
m/z	relative intensity
38.0122	63
40.0279	81
41.0123	34
41.0359	87
42.0317	52
42.0445	34
43.0396	116
44.0606	40
45.0436	23
50.0259	58
52.0285	87
53.0128	46
53.0241	40
54.0444	29
55.0396	75
56.0238	214
57.0547	52
61.0172	34
62.0248	52
63.0331	296
64.0279	104
65.0245	621
65.0487	679
66.0322	46
66.0435	40
67.0154	121
67.0389	29
68.0237	209
69.0072	232
69.0184	598
70.0384	63
77.0482	110
78.0433	313
79.0509	46
80.0584	104
82.0386	46
82.0502	40
83.0336	999
90.0435	63
91.0505	87
92.0373	29
92.0598	75
93.0179	749
94.026	23
94.0751	69
105.0538	249
109.0412	29
110.0436	29
