Mass spectrum: Fluconazole; LC-ESI-QTOF; MS2; 130 V
Name: Fluconazole
Class: Pharmaceutical
Formula: C13H12F2N6O
Exact mass: 306.1041
SMILES: OC(Cn1cncn1)(Cn2cncn2)c3ccc(F)cc3F
InChI: InChI=1S/C13H12F2N6O/c14-10-1-2-11(12(15)3-10)13(22,4-20-8-16-6-18-20)5-21-9-17-7-19-21/h1-3,6-9,22H,4-5H2
Instrument: TripleTOF 5600 SCIEX
Instrument type: LC-ESI-QTOF
Ms type: MS2
Ion mode: POSITIVE
Collision energy: 130
Fragmentation mode: CID
Ionization: ESI
Column name: Zorbax Eclipse Plus C18 2.1 mm x 150 mm, 3.5 um, Agilent
Retention time: 6.343 min
Precursor m/z: 307.1113
Precursor type: [M+H]+
m/z	relative intensity
43.0384	216
51.012	103
51.0281	179
57.0172	207
69.0153	37
70.0427	753
73.0111	84
74.0173	867
75.0084	188
75.0249	970
81.0149	207
82.0412	47
92.007	75
93.016	169
95.0293	75
98.0154	999
99.0233	414
101.0193	197
101.0374	56
105.0134	47
107.0293	113
113.0196	47
125.0199	84
