Mass spectrum: 2-Hydroxycarbamazepine; LC-ESI-QTOF; MS2; 60 V
Name: 2-Hydroxycarbamazepine
Class: Pharmaceutical; Metabolite
Formula: C15H12N2O2
Exact mass: 252.0899
SMILES: NC(=O)N1c2ccccc2C=Cc3cc(O)ccc13
InChI: InChI=1S/C15H12N2O2/c16-15(19)17-13-4-2-1-3-10(13)5-6-11-9-12(18)7-8-14(11)17/h1-9,18H,(H2,16,19)
Instrument: TripleTOF 5600 SCIEX
Instrument type: LC-ESI-QTOF
Ms type: MS2
Ion mode: POSITIVE
Collision energy: 60
Fragmentation mode: CID
Ionization: ESI
Column name: Zorbax Eclipse Plus C18 2.1 mm x 150 mm, 3.5 um, Agilent
Retention time: 7.476 min
Precursor m/z: 253.0972
Precursor type: [M+H]+
m/z	relative intensity
77.041	48
89.0402	41
90.0486	26
91.0562	14
101.0376	10
104.0497	12
115.0541	59
116.0491	19
117.0574	56
127.0545	46
128.0501	34
128.0626	20
139.0548	137
140.056	126
141.0661	21
150.0477	12
151.0549	91
152.0625	355
153.07	157
154.0656	63
155.075	15
163.0552	70
164.0612	78
165.0701	256
166.0659	344
167.0737	999
177.0584	24
178.0653	159
179.0732	119
180.0817	761
181.0888	222
182.06	14
182.0964	38
183.0676	26
189.0574	24
190.0653	218
191.0735	201
192.0812	106
193.089	68
194.0605	19
195.0683	201
206.0622	16
207.0681	125
208.0761	210
209.0841	208
210.0901	25
