Mass spectrum: Mesosulfuron-methyl; LC-ESI-QTOF; MS2; 110 V
Name: Mesosulfuron-methyl
Class: Herbicide
Formula: C17H21N5O9S2
Exact mass: 503.0781
SMILES: COC(=O)c1ccc(CN[S](C)(=O)=O)cc1[S](=O)(=O)NC(=O)Nc2nc(OC)cc(OC)n2
InChI: InChI=1S/C17H21N5O9S2/c1-29-13-8-14(30-2)20-16(19-13)21-17(24)22-33(27,28)12-7-10(9-18-32(4,25)26)5-6-11(12)15(23)31-3/h5-8,18H,9H2,1-4H3,(H2,19,20,21,22,24)
Instrument: TripleTOF 5600 SCIEX
Instrument type: LC-ESI-QTOF
Ms type: MS2
Ion mode: POSITIVE
Collision energy: 110
Fragmentation mode: CID
Ionization: ESI
Column name: Zorbax Eclipse Plus C18 2.1 mm x 150 mm, 3.5 um, Agilent
Retention time: 10.025 min
Precursor m/z: 504.0853
Precursor type: [M+H]+
m/z	relative intensity
56.017	26
57.0489	19
65.0182	26
68.0164	26
68.9996	41
69.0123	26
71.0624	61
77.0401	183
79.0542	22
81.0458	19
82.0306	64
83.026	999
90.0341	30
92.0263	72
92.0455	19
93.0087	240
93.0279	15
100.0399	45
104.0483	91
105.0314	19
109.038	45
118.0281	83
119.0387	30
135.0429	38
138.0288	19
139.0488	339
140.0435	45
162.0545	22
166.0253	19
182.0548	57
