Mass spectrum: 2-Phenylbenzimidazole-5-sulfonic acid; LC-ESI-QTOF; MS2; 150 V
Name: 2-Phenylbenzimidazole-5-sulfonic acid
Class: Personal_care_product
Formula: C13H10N2O3S
Exact mass: 274.0412
SMILES: C1=CC=C(C=C1)C2=NC3=C(N2)C=C(C=C3)S(=O)(=O)O
InChI: InChI=1S/C13H10N2O3S/c16-19(17,18)10-6-7-11-12(8-10)15-13(14-11)9-4-2-1-3-5-9/h1-8H,(H,14,15)(H,16,17,18)
Instrument: TripleTOF 5600 SCIEX
Instrument type: LC-ESI-QTOF
Ms type: MS2
Ion mode: POSITIVE
Collision energy: 150
Fragmentation mode: CID
Ionization: ESI
Column name: Zorbax Eclipse Plus C18 2.1 mm x 150 mm, 3.5 um, Agilent
Retention time: 5.039 min
Precursor m/z: 275.0485
Precursor type: [M+H]+
m/z	relative intensity
51.032	999
52.0302	280
60.0111	124
64.034	124
65.0476	156
74.0191	124
77.0435	530
86.0186	249
87.0278	343
89.0429	499
113.0414	280
164.0502	218
