Mass spectrum: Aminophenazone; LC-ESI-QTOF; MS2; 20 V
Name: Aminophenazone
Class: Pharmaceutical
Formula: C13H17N3O
Exact mass: 231.1372
SMILES: CC1=C(C(=O)N(N1C)C2=CC=CC=C2)N(C)C
InChI: InChI=1S/C13H17N3O/c1-10-12(14(2)3)13(17)16(15(10)4)11-8-6-5-7-9-11/h5-9H,1-4H3
Instrument: TripleTOF 5600 SCIEX
Instrument type: LC-ESI-QTOF
Ms type: MS2
Ion mode: POSITIVE
Collision energy: 20
Fragmentation mode: CID
Ionization: ESI
Column name: Zorbax Eclipse Plus C18 2.1 mm x 150 mm, 3.5 um, Agilent
Retention time: 4.71 min
Precursor m/z: 232.1444
Precursor type: [M+H]+
m/z	relative intensity
56.0581	77
58.0736	86
70.0721	82
72.0871	104
82.0709	21
84.0855	38
87.0965	20
97.08	125
98.0876	378
99.0955	109
106.0679	39
111.0947	573
113.11	999
118.0677	42
139.0884	56
146.0625	14
149.1083	44
159.0931	94
175.0865	27
177.1033	82
187.0871	102
188.0947	46
216.1147	11
217.1216	41
232.144	752
