Mass spectrum: 4-Nitrobenzyltriphenylphosphonium; LC-ESI-QTOF; MS2; 20 V
Name: 4-Nitrobenzyltriphenylphosphonium
Formula: C25H21NO2P
Exact mass: 398.1304
InChI: InChI=1S/C25H21NO2P/c27-26(28)22-18-16-21(17-19-22)20-29(23-10-4-1-5-11-23,24-12-6-2-7-13-24)25-14-8-3-9-15-25/h1-19H,20H2/q+1
Instrument: TripleTOF 5600 SCIEX
Instrument type: LC-ESI-QTOF
Ms type: CID
Ion mode: POSITIVE
Collision energy: 20
Ionization: ESI
Column name: Zorbax Eclipse Plus C18 2.1 mm x 150 mm, 3.5 um, Agilent
Retention time: 8.524 min
Precursor m/z: 398.1304
Precursor type: [M]+
m/z	relative intensity
398.1309	999
