Mass spectrum: 3-Desmethyl-trimethoprim; LC-ESI-QTOF; MS2; 140 V
Name: 3-Desmethyl-trimethoprim
Class: Pharmaceutical; Transformation_product
Formula: C13H16N4O3
Exact mass: 276.1222
SMILES: OC1=CC(CC2=CN=C(N=C2N)N)=CC(OC)=C1OC
InChI: InChI=1S/C13H16N4O3/c1-19-10-5-7(4-9(18)11(10)20-2)3-8-6-16-13(15)17-12(8)14/h4-6,18H,3H2,1-2H3,(H4,14,15,16,17)
Instrument: TripleTOF 5600 SCIEX
Instrument type: LC-ESI-QTOF
Ms type: MS2
Ion mode: POSITIVE
Collision energy: 140
Fragmentation mode: CID
Ionization: ESI
Column name: Zorbax Eclipse Plus C18 2.1 mm x 150 mm, 3.5 um, Agilent
Retention time: 5.021 min
Precursor m/z: 277.1295
Precursor type: [M+H]+
m/z	relative intensity
41.0422	209
43.0412	650
52.0284	999
53.0133	278
54.0432	487
65.045	348
67.0468	92
68.0327	116
74.0207	696
75.0133	139
75.0282	789
76.0241	743
77.0309	92
77.0431	906
78.0393	325
79.0362	139
80.0536	162
81.0525	162
88.021	232
89.0419	302
90.0352	139
91.0525	92
93.0498	185
98.0189	139
99.0104	116
100.0188	162
103.0326	139
104.0461	92
105.0464	162
114.038	139
120.0567	185
