Mass spectrum: Climbazole; LC-ESI-QTOF; MS2; 40 V
Name: Climbazole
Class: Pharmaceutical; Personal_care_product
Formula: C15H17ClN2O2
Exact mass: 292.0979
SMILES: CC(C)(C)C(=O)C(Oc1ccc(Cl)cc1)n2ccnc2
InChI: InChI=1S/C15H17ClN2O2/c1-15(2,3)13(19)14(18-9-8-17-10-18)20-12-6-4-11(16)5-7-12/h4-10,14H,1-3H3
Instrument: TripleTOF 5600 SCIEX
Instrument type: LC-ESI-QTOF
Ms type: MS2
Ion mode: POSITIVE
Collision energy: 40
Fragmentation mode: CID
Ionization: ESI
Column name: Zorbax Eclipse Plus C18 2.1 mm x 150 mm, 3.5 um, Agilent
Retention time: 8.761 min
Precursor m/z: 293.1051
Precursor type: [M+H]+
m/z	relative intensity
55.0586	60
57.0755	383
67.0571	25
69.074	999
70.0805	157
72.9872	16
75.0268	14
77.041	61
81.0456	37
82.0543	68
91.0552	33
93.0346	29
94.0407	26
98.9995	203
103.0314	14
109.0394	133
110.9986	177
113.0142	121
119.0467	14
120.0561	11
126.9939	469
127.0279	30
129.0092	360
137.107	21
139.0036	28
141.0091	555
147.0787	14
155.0244	218
161.0972	19
175.0739	14
190.0969	12
197.0706	94
