Mass spectrum: Isocaffeine; LC-ESI-QTOF; MS2; 40 V
Name: Isocaffeine
Class: Natural_product
Formula: C8H10N4O2
Exact mass: 194.0804
SMILES: CN1C=NC2=C1N(C(=O)N(C2=O)C)C
InChI: InChI=1S/C8H10N4O2/c1-10-4-9-5-6(10)11(2)8(14)12(3)7(5)13/h4H,1-3H3
Instrument: TripleTOF 5600 SCIEX
Instrument type: LC-ESI-QTOF
Ms type: MS2
Ion mode: POSITIVE
Collision energy: 40
Fragmentation mode: CID
Ionization: ESI
Column name: Zorbax Eclipse Plus C18 2.1 mm x 150 mm, 3.5 um, Agilent
Retention time: 4.729 min
Precursor m/z: 195.0877
Precursor type: [M+H]+
m/z	relative intensity
42.0339	203
69.0441	509
81.0441	40
82.0189	27
83.0599	88
91.054	27
95.0236	40
95.0483	33
97.0396	387
108.0563	47
109.0398	54
110.0708	203
111.0543	156
122.0754	33
123.0415	951
136.0494	54
138.0652	999
195.0903	101
