Mass spectrum: Hexazinone; LC-ESI-QTOF; MS2; 130 V
Name: Hexazinone
Class: Herbicide
Formula: C12H20N4O2
Exact mass: 252.1586
SMILES: CN1C(=NC(=O)N(C1=O)C2CCCCC2)N(C)C
InChI: InChI=1S/C12H20N4O2/c1-14(2)10-13-11(17)16(12(18)15(10)3)9-7-5-4-6-8-9/h9H,4-8H2,1-3H3
Instrument: TripleTOF 6600 SCIEX
Instrument type: LC-ESI-QTOF
Ms type: MS2
Ion mode: POSITIVE
Collision energy: 130
Fragmentation mode: CID
Ionization: ESI
Column name: Zorbax Eclipse Plus C18 2.1 mm x 150 mm, 3.5 um, Agilent
Retention time: 8.427 min
Precursor m/z: 253.1659
Precursor type: [M+H]+
m/z	relative intensity
35.9997	23
37.007	156
38.0021	18
38.0144	132
39.0227	483
41.0129	15
41.0257	10
41.0385	53
41.9974	18
42.0336	345
44.0124	37
44.0491	55
53.0131	34
53.0394	13
55.0286	802
56.0362	170
57.0446	15
60.9858	45
69.0087	61
69.044	999
69.991	98
70.0512	29
71.0603	66
83.0229	18
