Mass spectrum: Triamterene; LC-ESI-QTOF; MS2; 120 V
Name: Triamterene
Class: Pharmaceutical
Formula: C12H11N7
Exact mass: 253.1076
SMILES: C1=CC=C(C=C1)C2=NC3=C(N=C2N)N=C(N=C3N)N
InChI: InChI=1S/C12H11N7/c13-9-7(6-4-2-1-3-5-6)16-8-10(14)18-12(15)19-11(8)17-9/h1-5H,(H6,13,14,15,17,18,19)
Instrument: TripleTOF 5600 SCIEX
Instrument type: LC-ESI-QTOF
Ms type: MS2
Ion mode: POSITIVE
Collision energy: 120
Fragmentation mode: CID
Ionization: ESI
Column name: Zorbax Eclipse Plus C18 2.1 mm x 150 mm, 3.5 um, Agilent
Retention time: 5.203 min
Precursor m/z: 254.1149
Precursor type: [M+H]+
m/z	relative intensity
43.0409	121
43.0541	38
53.0225	174
55.0412	29
65.0205	155
65.0413	19
68.0335	43
74.0215	53
75.0149	19
75.029	82
76.0243	58
76.0347	126
77.0445	999
79.0585	24
80.0298	24
86.0161	24
87.0264	72
88.0225	150
88.037	38
89.0426	664
90.0118	19
90.0349	19
90.0489	24
99.0128	29
100.0242	33
103.0426	43
104.0498	106
114.0363	145
115.0435	29
