Mass spectrum: 2,6-Dimethylquinoline; LC-ESI-QTOF; MS2; 60 V
Name: 2,6-Dimethylquinoline
Formula: C11H11N
Exact mass: 157.0891
SMILES: CC1=CC2=C(C=C1)N=C(C=C2)C
InChI: InChI=1S/C11H11N/c1-8-3-6-11-10(7-8)5-4-9(2)12-11/h3-7H,1-2H3
Instrument: TripleTOF 6600 SCIEX
Instrument type: LC-ESI-QTOF
Ms type: MS2
Ion mode: POSITIVE
Collision energy: 60
Fragmentation mode: CID
Ionization: ESI
Column name: Zorbax Eclipse Plus C18 2.1 mm x 150 mm, 3.5 um, Agilent
Retention time: 5.162 min
Precursor m/z: 158.0964
Precursor type: [M+H]+
m/z	relative intensity
37.0069	21
38.0146	18
39.0228	150
41.0381	16
50.0145	24
51.0222	53
62.0146	11
63.0224	101
65.0382	400
74.0144	15
75.022	60
76.0294	24
77.038	82
89.0378	310
90.0457	22
91.0535	356
101.0374	34
102.0451	49
103.0527	19
113.0372	18
114.0451	33
115.0537	999
116.049	59
116.0596	24
117.0557	27
127.0525	30
128.0493	44
128.0594	72
129.068	19
130.0646	40
140.0481	53
141.0563	105
142.064	81
143.0722	16
154.0641	55
155.0716	23
156.0795	124
157.087	20
