Mass spectrum: Rhein; LC-ESI-QTOF; MS2; 70 V
Name: Rhein
Class: Metabolite
Formula: C15H8O6
Exact mass: 284.0321
SMILES: C1=CC2=C(C(=C1)O)C(=O)C3=C(C=C(C=C3C2=O)C(=O)O)O
InChI: InChI=1S/C15H8O6/c16-9-3-1-2-7-11(9)14(19)12-8(13(7)18)4-6(15(20)21)5-10(12)17/h1-5,16-17H,(H,20,21)
Instrument: TripleTOF 5600 SCIEX
Instrument type: LC-ESI-QTOF
Ms type: MS2
Ion mode: NEGATIVE
Collision energy: 70
Fragmentation mode: CID
Ionization: ESI
Column name: Zorbax Eclipse Plus C18 2.1 mm x 150 mm, 3.5 um, Agilent
Retention time: 10.796 min
Precursor m/z: 283.0248
Precursor type: [M-H]-
m/z	relative intensity
65.0021	114
89.0388	50
91.0185	356
101.0404	89
117.0364	101
137.0406	553
139.0564	95
141.0353	63
154.0429	706
155.0507	190
165.0352	254
167.0498	63
182.0382	999
183.0463	687
210.0354	50
211.0405	95
