Mass spectrum: Fluazifop; LC-ESI-QTOF; MS2; 40 V
Name: Fluazifop
Class: Herbicide; Transformation_product
Formula: C15H12F3NO4
Exact mass: 327.0718
SMILES: CC(C(=O)O)Oc1ccc(cc1)Oc2ccc(cn2)C(F)(F)F
InChI: InChI=1S/C15H12F3NO4/c1-9(14(20)21)22-11-3-5-12(6-4-11)23-13-7-2-10(8-19-13)15(16,17)18/h2-9H,1H3,(H,20,21)
Instrument: TripleTOF 6600 SCIEX
Instrument type: LC-ESI-QTOF
Ms type: MS2
Ion mode: NEGATIVE
Collision energy: 40
Fragmentation mode: CID
Ionization: ESI
Column name: Zorbax Eclipse Plus C18 2.1 mm x 150 mm, 3.5 um, Agilent
Retention time: 11.668 min
Precursor m/z: 326.0646
Precursor type: [M-H]-
m/z	relative intensity
71.0122	28
108.0206	233
138.0333	12
150.0333	22
158.0396	25
160.0372	18
162.016	64
163.0357	10
164.0314	13
166.028	14
170.0401	21
178.0461	86
184.0371	29
186.0155	21
186.0347	29
190.046	45
196.0363	11
198.0524	106
199.0231	76
200.0317	24
206.041	293
210.0527	69
212.0318	88
225.0382	15
226.0471	500
234.0359	72
253.0339	153
254.0419	999
