Mass spectrum: 3,3`-Dichlorobenzidine; LC-ESI-QTOF; MS2; 50 V
Name: 3,3`-Dichlorobenzidine
Formula: C12H10Cl2N2
Exact mass: 252.0221
SMILES: C1=CC(=C(C=C1C2=CC(=C(C=C2)N)Cl)Cl)N
InChI: InChI=1S/C12H10Cl2N2/c13-9-5-7(1-3-11(9)15)8-2-4-12(16)10(14)6-8/h1-6H,15-16H2
Instrument: TripleTOF 6600 SCIEX
Instrument type: LC-ESI-QTOF
Ms type: MS2
Ion mode: POSITIVE
Collision energy: 50
Fragmentation mode: CID
Ionization: ESI
Column name: Zorbax Eclipse Plus C18 2.1 mm x 150 mm, 3.5 um, Agilent
Retention time: 11.426 min
Precursor m/z: 253.0294
Precursor type: [M+H]+
m/z	relative intensity
115.0552	10
127.0173	38
127.0541	187
128.05	21
128.0618	73
129.0579	27
130.0654	149
131.0742	48
138.0473	15
139.0549	23
140.0508	18
153.0576	42
154.0657	999
155.0714	330
156.0813	42
164.0273	136
164.0491	32
165.0567	110
166.0649	74
167.074	16
173.0164	19
179.0612	14
180.0684	20
181.0766	923
182.0843	943
190.0424	573
201.0347	118
215.039	16
216.0442	65
217.0533	76
218.0607	229
252.0227	52
