Mass spectrum: Desmetryn; LC-ESI-QTOF; MS2; 110 V
Name: Desmetryn
Class: Herbicide
Formula: C8H15N5S
Exact mass: 213.1048
SMILES: CC(C)NC1=NC(=NC(=N1)NC)SC
InChI: InChI=1S/C8H15N5S/c1-5(2)10-7-11-6(9-3)12-8(13-7)14-4/h5H,1-4H3,(H2,9,10,11,12,13)
Instrument: TripleTOF 6600 SCIEX
Instrument type: LC-ESI-QTOF
Ms type: MS2
Ion mode: POSITIVE
Collision energy: 110
Fragmentation mode: CID
Ionization: ESI
Column name: Zorbax Eclipse Plus C18 2.1 mm x 150 mm, 3.5 um, Agilent
Retention time: 7.281 min
Precursor m/z: 214.1121
Precursor type: [M+H]+
m/z	relative intensity
37.0059	49
38.0017	19
38.0138	29
39.022	144
41.0123	114
41.0374	44
42.0199	134
42.0318	49
43.028	999
44.9781	218
45.9723	34
46.9936	99
53.0122	69
55.0274	173
57.043	342
57.973	84
58.9807	114
59.9885	149
68.0227	387
71.9879	29
74.0034	34
82.0378	84
84.9834	74
