Mass spectrum: 4'-O-Demethyl pantoprazole sulfide; LC-ESI-QTOF; MS2; 130 V
Name: 4'-O-Demethyl pantoprazole sulfide
Class: Pharmaceutical; Transformation_product-Metabolite
Formula: C15H13F2N3O3S
Exact mass: 353.0646
SMILES: COC1=C(NC=CC1=O)CSC2=NC3=C(N2)C=C(C=C3)OC(F)F
InChI: InChI=1S/C15H13F2N3O3S/c1-22-13-11(18-5-4-12(13)21)7-24-15-19-9-3-2-8(23-14(16)17)6-10(9)20-15/h2-6,14H,7H2,1H3,(H,18,21)(H,19,20)
Instrument: TripleTOF 6600 SCIEX
Instrument type: LC-ESI-QTOF
Ms type: MS2
Ion mode: POSITIVE
Collision energy: 130
Fragmentation mode: CID
Ionization: ESI
Column name: Zorbax Eclipse Plus C18 2.1 mm x 150 mm, 3.5 um, Agilent
Retention time: 7.57 min
Precursor m/z: 354.0719
Precursor type: [M+H]+
m/z	relative intensity
35.9987	48
37.0066	306
38.0026	26
38.0142	266
39.0225	985
40.0172	53
40.0302	22
41.0254	293
41.0368	31
42.0333	301
43.017	75
44.0133	53
44.979	35
50.0149	44
51.0225	142
52.0173	199
52.0309	31
53.0013	235
53.0376	999
53.9976	35
54.0327	71
55.0165	97
57.9861	39
61.0068	22
62.0137	93
63.0216	417
64.0173	137
64.0284	17
65.0378	128
66.009	621
66.032	159
67.0164	159
67.0401	257
68.0115	168
70.0282	66
70.995	106
78.0335	75
79.0401	75
80.0128	26
80.0483	301
81.0324	106
82.0291	44
83.036	66
86.0048	26
90.0325	102
91.0408	35
92.0489	106
94.0272	177
95.0366	48
96.0428	53
98.0047	35
99.016	31
105.0421	17
108.0424	48
117.0442	26
118.0502	31
125.9994	168
134.0493	17
136.0372	39
137.0136	26
