Mass spectrum: N-[2-[(2-Bromo-4,6-dinitrophenyl)azo]-5-(diethylamino)phenyl]acetamide; LC-ESI-QTOF; MS2; 30 V
Name: N-[2-[(2-Bromo-4,6-dinitrophenyl)azo]-5-(diethylamino)phenyl]acetamide
Formula: [C18H19BrN6O5]-
Exact mass: 478.06
SMILES: CCN(CC)C1=CC(=C(C=C1)N=NC2=C(C=C(C=C2Br)[N+](=O)[O-])[N+](=O)[O-])NC(=O)C
InChI: InChI=1S/C18H19BrN6O5/c1-4-23(5-2)12-6-7-15(16(9-12)20-11(3)26)21-22-18-14(19)8-13(24(27)28)10-17(18)25(29)30/h6-10H,4-5H2,1-3H3,(H,20,26)
Instrument: TripleTOF 6600 SCIEX
Instrument type: LC-ESI-QTOF
Ms type: MS2
Ion mode: NEGATIVE
Collision energy: 30
Fragmentation mode: CID
Ionization: ESI
Column name: Zorbax Eclipse Plus C18 2.1 mm x 150 mm, 3.5 um, Agilent
Retention time: 16.579 min
Precursor m/z: 478.0614
Precursor type: [M]-
m/z	relative intensity
78.9184	96
120.0075	1
132.0665	1
186.9252	10
199.9345	4
205.1335	5
214.9196	16
215.9272	13
224.1307	5
229.9311	45
230.9387	7
242.9265	4
244.9165	23
253.0871	1
254.0591	8
269.0777	2
281.0702	2
281.1138	3
282.1288	5
296.0716	1
298.1148	6
311.1114	6
321.1287	1
324.0718	4
324.1328	1
326.1131	7
326.1286	5
326.1915	2
327.0851	3
333.9861	1
341.077	1
341.0934	1
349.0035	3
350.1232	1
353.1285	6
355.1174	9
368.1326	11
369.0949	14
375.9877	2
378.0441	66
403.994	10
404.0562	7
406.0497	428
419.0161	14
446.6322	2
446.6511	5
448.0593	999
449.0173	218
478.0594	283
