Mass spectrum: Tebuconazole; LC-ESI-QTOF; MS2; 120 V
Name: Tebuconazole
Class: Fungicide
Formula: C16H22ClN3O
Exact mass: 307.1451
SMILES: CC(C)(C)C(O)(CCc1ccc(Cl)cc1)Cn2cncn2
InChI: InChI=1S/C16H22ClN3O/c1-15(2,3)16(21,10-20-12-18-11-19-20)9-8-13-4-6-14(17)7-5-13/h4-7,11-12,21H,8-10H2,1-3H3
Instrument: TripleTOF 5600 SCIEX
Instrument type: LC-ESI-QTOF
Ms type: MS2
Ion mode: POSITIVE
Collision energy: 120
Fragmentation mode: CID
Ionization: ESI
Column name: Zorbax Eclipse Plus C18 2.1 mm x 150 mm, 3.5 um, Agilent
Retention time: 12.72 min
Precursor m/z: 308.1524
Precursor type: [M+H]+
m/z	relative intensity
42.0361	35
43.04	345
57.0752	24
59.0551	45
64.0344	11
65.0423	30
70.0456	999
72.988	110
75.0254	16
77.0413	55
82.0429	37
89.0418	639
90.0489	124
99.0013	243
102.0472	17
103.0543	15
115.0554	355
116.0621	11
125.0163	160
127.0554	21
128.0623	57
