Mass spectrum: Fluopyram; LC-ESI-QTOF; MS2; 50 V
Name: Fluopyram
Class: Fungicide
Formula: C16H11ClF6N2O
Exact mass: 396.0464
SMILES: C1=CC=C(C(=C1)C(=O)NCCC2=C(C=C(C=N2)C(F)(F)F)Cl)C(F)(F)F
InChI: InChI=1S/C16H11ClF6N2O/c17-12-7-9(15(18,19)20)8-25-13(12)5-6-24-14(26)10-3-1-2-4-11(10)16(21,22)23/h1-4,7-8H,5-6H2,(H,24,26)
Instrument: TripleTOF 6600 SCIEX
Instrument type: LC-ESI-QTOF
Ms type: MS2
Ion mode: POSITIVE
Collision energy: 50
Fragmentation mode: CID
Ionization: ESI
Column name: Zorbax Eclipse Plus C18 2.1 mm x 150 mm, 3.5 um, Agilent
Retention time: 12.765 min
Precursor m/z: 397.0537
Precursor type: [M+H]+
m/z	relative intensity
95.0283	11
130.0281	45
145.0259	586
150.0346	14
152.0304	18
170.0409	14
172.0364	60
173.021	999
208.0136	582
