Mass spectrum: Brilliant Blue FCF; LC-ESI-QTOF; MS2; 90 V
Name: Brilliant Blue FCF
Class: Food_additive; Pigment
Formula: [C37H37N2O9S3]+
Exact mass: 749.1656
SMILES: CCN(CC1=CC(=CC=C1)S(=O)(=O)O)C2=CC=C(C=C2)C(=C3C=CC(=[N+](CC)CC4=CC(=CC=C4)S(=O)(=O)O)C=C3)C5=CC=CC=C5S(=O)(=O)O
InChI: InChI=1S/C37H36N2O9S3/c1-3-38(25-27-9-7-11-33(23-27)49(40,41)42)31-19-15-29(16-20-31)37(35-13-5-6-14-36(35)51(46,47)48)30-17-21-32(22-18-30)39(4-2)26-28-10-8-12-34(24-28)50(43,44)45/h5-24H,3-4,25-26H2,1-2H3,(H2-,40,41,42,43,44,45,46,47,48)/p+1
Instrument: TripleTOF 6600 SCIEX
Instrument type: LC-ESI-QTOF
Ms type: MS2
Ion mode: POSITIVE
Collision energy: 90
Fragmentation mode: CID
Ionization: ESI
Column name: Zorbax Eclipse Plus C18 2.1 mm x 150 mm, 3.5 um, Agilent
Retention time: 7.077 min
Precursor m/z: 749.1656
Precursor type: [M]+
m/z	relative intensity
120.0423	441
171.0108	650
178.0662	116
180.0565	232
180.0837	139
192.0803	139
208.0753	185
236.1048	185
240.09	162
268.1127	394
272.0369	999
281.1035	92
284.1437	534
297.138	278
311.1549	348
312.1615	185
327.1867	139
377.0963	371
393.1222	162
454.1442	139
483.172	92
497.187	185
563.1221	185
