Mass spectrum: N-(1,3-Dimethylbutyl)-N`-phenyl-p-phenylenediamine; LC-ESI-QTOF; MS2; 120 V
Name: N-(1,3-Dimethylbutyl)-N`-phenyl-p-phenylenediamine
Class: Industrial_process
Formula: C18H24N2
Exact mass: 268.1939
SMILES: CC(C)CC(C)NC1=CC=C(C=C1)NC2=CC=CC=C2
InChI: InChI=1S/C18H24N2/c1-14(2)13-15(3)19-17-9-11-18(12-10-17)20-16-7-5-4-6-8-16/h4-12,14-15,19-20H,13H2,1-3H3
Instrument: TripleTOF 6600 SCIEX
Instrument type: LC-ESI-QTOF
Ms type: MS2
Ion mode: POSITIVE
Collision energy: 120
Fragmentation mode: CID
Ionization: ESI
Column name: Zorbax Eclipse Plus C18 2.1 mm x 150 mm, 3.5 um, Agilent
Retention time: 9.189 min
Precursor m/z: 269.2012
Precursor type: [M+H]+
m/z	relative intensity
37.0065	59
38.0022	19
38.0146	51
39.0226	256
41.0381	31
49.0069	43
50.0144	142
51.0222	331
52.0176	71
52.0294	47
53.0379	750
54.0331	94
61.006	47
62.0143	106
63.0223	351
64.0176	47
64.0299	39
65.0247	23
65.0377	165
66.0342	19
66.0458	71
67.0403	23
74.0141	59
75.0221	78
76.0299	23
77.0377	169
78.0332	71
78.0453	27
79.0403	27
80.0489	999
86.0142	27
87.0223	47
88.0297	31
89.0375	205
90.033	59
90.0461	19
91.0406	27
92.0493	27
93.0565	23
101.0377	43
102.0454	47
105.0436	27
107.0593	67
113.038	138
114.034	27
114.0456	47
115.0535	110
116.0496	43
117.057	19
126.0448	43
127.0523	102
128.048	59
128.0603	86
137.0372	19
138.046	43
139.0535	256
140.0487	181
141.0554	31
154.0652	71
155.0592	27
164.0473	51
165.0562	19
166.0649	78
167.0713	27
181.076	27
