Mass spectrum: N-(1,3-Dimethylbutyl)-N`-phenyl-p-phenylenediamine; LC-ESI-QTOF; MS2; 60 V
Name: N-(1,3-Dimethylbutyl)-N`-phenyl-p-phenylenediamine
Class: Industrial_process
Formula: C18H24N2
Exact mass: 268.1939
SMILES: CC(C)CC(C)NC1=CC=C(C=C1)NC2=CC=CC=C2
InChI: InChI=1S/C18H24N2/c1-14(2)13-15(3)19-17-9-11-18(12-10-17)20-16-7-5-4-6-8-16/h4-12,14-15,19-20H,13H2,1-3H3
Instrument: TripleTOF 6600 SCIEX
Instrument type: LC-ESI-QTOF
Ms type: MS2
Ion mode: POSITIVE
Collision energy: 60
Fragmentation mode: CID
Ionization: ESI
Column name: Zorbax Eclipse Plus C18 2.1 mm x 150 mm, 3.5 um, Agilent
Retention time: 9.189 min
Precursor m/z: 269.2012
Precursor type: [M+H]+
m/z	relative intensity
41.0379	10
43.0536	11
53.038	23
65.0379	29
66.0456	45
77.0376	19
79.0406	15
80.0489	356
81.0566	54
90.0333	13
91.041	18
92.0487	22
93.0566	241
105.0436	16
106.0526	27
107.06	999
108.0671	52
115.0531	16
117.0565	12
118.0519	95
128.0589	10
129.0689	17
130.064	34
139.0536	30
140.0487	13
140.0584	11
143.0724	29
156.08	67
157.0879	18
166.0648	233
167.0725	224
168.0785	60
169.0765	30
169.0871	18
181.0767	12
182.0834	69
183.0914	331
184.099	499
