Mass spectrum: 3-Methyl-4-(methylthio)phenol; LC-ESI-QTOF; MS2; 30 V
Name: 3-Methyl-4-(methylthio)phenol
Class: Industrial_process
Formula: C8H10OS
Exact mass: 154.0452
SMILES: CC1=C(C=CC(=C1)O)SC
InChI: InChI=1S/C8H10OS/c1-6-5-7(9)3-4-8(6)10-2/h3-5,9H,1-2H3
Instrument: TripleTOF 6600 SCIEX
Instrument type: LC-ESI-QTOF
Ms type: MS2
Ion mode: POSITIVE
Collision energy: 30
Fragmentation mode: CID
Ionization: ESI
Column name: Zorbax Eclipse Plus C18 2.1 mm x 150 mm, 3.5 um, Agilent
Retention time: 9.802 min
Precursor m/z: 155.0525
Precursor type: [M+H]+
m/z	relative intensity
39.0235	33
44.98	74
51.0238	33
77.0389	690
79.055	707
80.0629	99
89.0383	41
90.0473	174
97.0116	41
105.0433	49
107.0492	990
108.0571	999
111.0273	74
139.0198	41
140.0291	183
