Mass spectrum: Flecainide meta-O-dealkylated; LC-ESI-QTOF; MS2; 120 V
Name: Flecainide meta-O-dealkylated
Class: Pharmaceutical; Transformation_product; Transformation_product-Metabolite
Formula: C15H19F3N2O3
Exact mass: 332.1348
SMILES: C1CCNC(C1)CNC(=O)C2=C(C=CC(=C2)O)OCC(F)(F)F
InChI: InChI=1S/C15H19F3N2O3/c16-15(17,18)9-23-13-5-4-11(21)7-12(13)14(22)20-8-10-3-1-2-6-19-10/h4-5,7,10,19,21H,1-3,6,8-9H2,(H,20,22)
Instrument: TripleTOF 5600 SCIEX
Instrument type: LC-ESI-QTOF
Ms type: MS2
Ion mode: POSITIVE
Collision energy: 120
Fragmentation mode: CID
Ionization: ESI
Column name: Zorbax Eclipse Plus C18 2.1 mm x 150 mm, 3.5 um, Agilent
Retention time: 5.586 min
Precursor m/z: 333.1421
Precursor type: [M+H]+
m/z	relative intensity
44.0599	106
51.0325	999
53.0123	19
54.0186	283
56.0566	129
57.0224	55
65.0454	106
66.0509	19
68.0546	27
69.0029	27
71.0332	153
73.0134	39
74.0193	82
75.0266	117
75.0343	27
77.0406	176
79.0205	106
79.0573	137
80.0295	432
80.0481	23
81.0353	35
81.0727	47
82.0086	165
82.067	27
83.0312	23
84.0839	125
92.0262	19
95.0298	82
98.0984	31
99.0249	491
108.0213	180
114.0284	27
127.0168	47
136.0114	19
