Mass spectrum: N-benzyl-N,N-diethyl-2-propen-1-aminium; LC-ESI-QTOF; MS2; 90 V
Name: N-benzyl-N,N-diethyl-2-propen-1-aminium
Class: Industrial_process
Formula: C14H22N
Exact mass: 204.1747
InChI: InChI=1S/C14H22N/c1-4-12-15(5-2,6-3)13-14-10-8-7-9-11-14/h4,7-11H,1,5-6,12-13H2,2-3H3/q+1
Instrument: TripleTOF 5600 SCIEX
Instrument type: LC-ESI-QTOF
Ms type: CID
Ion mode: POSITIVE
Collision energy: 90
Ionization: ESI
Column name: Zorbax Eclipse Plus C18 2.1 mm x 150 mm, 3.5 um, Agilent
Retention time: 5.349 min
Precursor m/z: 204.1747
Precursor type: [M]+
m/z	relative intensity
65.0432	894
91.0549	999
