Mass spectrum: Diclofenac; LC-ESI-QTOF; MS2; 150 V
Name: Diclofenac
Class: Pharmaceutical
Formula: C14H11Cl2NO2
Exact mass: 295.0167
SMILES: OC(Cc1c(Nc2c(Cl)cccc2Cl)cccc1)=O
InChI: InChI=1S/C14H11Cl2NO2/c15-10-5-3-6-11(16)14(10)17-12-7-2-1-4-9(12)8-13(18)19/h1-7,17H,8H2,(H,18,19)
Instrument: TripleTOF 5600 SCIEX
Instrument type: LC-ESI-QTOF
Ms type: MS2
Ion mode: POSITIVE
Collision energy: 150
Fragmentation mode: CID
Ionization: ESI
Column name: Zorbax Eclipse Plus C18 2.1 mm x 150 mm, 3.5 um, Agilent
Retention time: 12.622 min
Precursor m/z: 296.024
Precursor type: [M+H]+
m/z	relative intensity
51.0284	192
74.0174	630
75.0249	315
76.0335	192
77.0409	385
86.0156	87
98.0147	613
99.0236	368
100.0324	157
101.0382	70
102.0463	122
110.0173	87
122.0149	105
123.0169	140
125.0378	140
126.0468	227
149.0386	262
150.0459	999
151.0413	70
151.0521	210
175.041	157
177.0567	175
178.0632	70
