Mass spectrum: Dibenzylamine; LC-ESI-QTOF; MS2; 100 V
Name: Dibenzylamine
Class: Industrial_process
Formula: C14H15N
Exact mass: 197.1204
SMILES: C1=CC=C(C=C1)CNCC2=CC=CC=C2
InChI: InChI=1S/C14H15N/c1-3-7-13(8-4-1)11-15-12-14-9-5-2-6-10-14/h1-10,15H,11-12H2
Instrument: TripleTOF 6600 SCIEX
Instrument type: LC-ESI-QTOF
Ms type: MS2
Ion mode: POSITIVE
Collision energy: 100
Fragmentation mode: CID
Ionization: ESI
Column name: Zorbax Eclipse Plus C18 2.1 mm x 150 mm, 3.5 um, Agilent
Retention time: 5.997 min
Precursor m/z: 198.1277
Precursor type: [M+H]+
m/z	relative intensity
35.9988	32
37.007	247
38.0147	205
39.0229	999
41.038	40
49.0066	38
50.0146	256
51.0223	187
61.0064	82
62.0145	216
63.0222	226
65.038	489
74.0139	14
91.0532	49
