Mass spectrum: Amantadine; LC-ESI-QTOF; MS2; 150 V
Name: Amantadine
Class: Pharmaceutical
Formula: C10H17N
Exact mass: 151.1361
SMILES: C1C2CC3CC1CC(C2)(C3)N
InChI: InChI=1S/C10H17N/c11-10-4-7-1-8(5-10)3-9(2-7)6-10/h7-9H,1-6,11H2
Instrument: TripleTOF 5600 SCIEX
Instrument type: LC-ESI-QTOF
Ms type: MS2
Ion mode: POSITIVE
Collision energy: 150
Fragmentation mode: CID
Ionization: ESI
Column name: Zorbax Eclipse Plus C18 2.1 mm x 150 mm, 3.5 um, Agilent
Retention time: 5.148 min
Precursor m/z: 152.1434
Precursor type: [M+H]+
m/z	relative intensity
36	124
37.007	463
38.0149	196
39.023	214
49.007	606
50.0147	999
51.023	196
61.007	160
62.0149	124
73.0085	71
74.0145	124
