Mass spectrum: Tramadol; LC-ESI-QTOF; MS2; 140 V
Name: Tramadol
Class: Pharmaceutical
Formula: C16H25NO2
Exact mass: 263.1885
SMILES: COc1cccc(c1)[C@@]2(O)CCCC[C@@H]2CN(C)C
InChI: InChI=1S/C16H25NO2/c1-17(2)12-14-7-4-5-10-16(14,18)13-8-6-9-15(11-13)19-3/h6,8-9,11,14,18H,4-5,7,10,12H2,1-3H3/t14-,16+/m1/s1
Instrument: TripleTOF 5600 SCIEX
Instrument type: LC-ESI-QTOF
Ms type: MS2
Ion mode: POSITIVE
Collision energy: 140
Fragmentation mode: CID
Ionization: ESI
Column name: Zorbax Eclipse Plus C18 2.1 mm x 150 mm, 3.5 um, Agilent
Retention time: 6.207 min
Precursor m/z: 264.1958
Precursor type: [M+H]+
m/z	relative intensity
42.0433	589
43.0497	104
44.0568	32
52.0342	11
56.0548	41
58.0708	999
64.0347	13
65.0422	51
74.0189	16
75.0243	16
77.0412	58
78.0478	18
89.04	32
91.0555	18
115.053	46
128.0631	11
