Mass spectrum: Inabenfide; LC-ESI-QTOF; MS2; 150 V
Name: Inabenfide
Formula: C19H15ClN2O2
Exact mass: 338.0822
SMILES: C1=CC=C(C=C1)C(C2=C(C=CC(=C2)Cl)NC(=O)C3=CC=NC=C3)O
InChI: InChI=1S/C19H15ClN2O2/c20-15-6-7-17(22-19(24)14-8-10-21-11-9-14)16(12-15)18(23)13-4-2-1-3-5-13/h1-12,18,23H,(H,22,24)
Instrument: TripleTOF 6600 SCIEX
Instrument type: LC-ESI-QTOF
Ms type: MS2
Ion mode: POSITIVE
Collision energy: 150
Fragmentation mode: CID
Ionization: ESI
Column name: Zorbax Eclipse Plus C18 2.1 mm x 150 mm, 3.5 um, Agilent
Retention time: 10.231 min
Precursor m/z: 339.0895
Precursor type: [M+H]+
m/z	relative intensity
39.023	78
49.0065	186
50.0143	999
51.0221	881
52.0181	313
52.0298	754
53.0377	117
61.0059	78
62.0142	97
63.022	176
65.0374	88
74.0141	244
75.0219	254
76.03	117
77.0377	215
78.0323	117
79.0405	225
80.0484	107
86.0138	107
87.0215	127
88.0298	48
89.0377	176
98.0143	323
99.0217	244
100.03	78
101.0363	78
102.0452	107
110.0145	88
111.0217	68
113.0367	137
115.0534	176
122.0129	68
123.0215	39
125.0368	117
126.0453	195
127.0404	48
137.0377	78
139.0524	254
140.0483	68
149.0375	137
150.0455	577
151.0525	254
152.0488	58
152.0601	78
161.0376	88
162.0449	137
163.0532	274
164.06	78
174.0447	48
175.0409	68
176.0499	78
177.057	156
179.0549	48
186.0491	58
187.0523	176
188.0489	117
189.07	68
198.0459	97
199.0526	107
200.059	117
201.0697	39
204.0551	39
211.0524	88
212.0489	107
213.0681	117
225.056	117
226.062	127
236.049	48
238.0639	88
