Mass spectrum: Triethylphosphine oxide; LC-ESI-QTOF; MS2; 60 V
Name: Triethylphosphine oxide
Class: Pharmaceutical
Formula: C6H15OP
Exact mass: 134.0861
SMILES: CC[P](=O)(CC)CC
InChI: InChI=1S/C6H15OP/c1-4-8(7,5-2)6-3/h4-6H2,1-3H3
Instrument: TripleTOF 5600 SCIEX
Instrument type: LC-ESI-QTOF
Ms type: MS2
Ion mode: POSITIVE
Collision energy: 60
Fragmentation mode: CID
Ionization: ESI
Column name: Zorbax Eclipse Plus C18 2.1 mm x 150 mm, 3.5 um, Agilent
Retention time: 5.148 min
Precursor m/z: 135.0933
Precursor type: [M+H]+
m/z	relative intensity
43.9892	34
44.9959	159
45.0096	44
48.0073	44
49.9985	218
55.9851	29
55.9938	24
56.9941	531
59.0088	139
61.0226	24
62.9666	34
63.0039	999
77.017	233
78.0248	49
