Mass spectrum: 5-Aminofluorescein; LC-ESI-QTOF; MS2; 80 V
Name: 5-Aminofluorescein
Class: Pharmaceutical
Formula: C20H13NO5
Exact mass: 347.0794
SMILES: Nc1ccc2c(c1)C(=O)OC23c4ccc(O)cc4Oc5cc(O)ccc35
InChI: InChI=1S/C20H13NO5/c21-10-1-4-14-13(7-10)19(24)26-20(14)15-5-2-11(22)8-17(15)25-18-9-12(23)3-6-16(18)20/h1-9,22-23H,21H2
Instrument: TripleTOF 5600 SCIEX
Instrument type: LC-ESI-QTOF
Ms type: MS2
Ion mode: POSITIVE
Collision energy: 80
Fragmentation mode: CID
Ionization: ESI
Column name: Zorbax Eclipse Plus C18 2.1 mm x 150 mm, 3.5 um, Agilent
Retention time: 8.159 min
Precursor m/z: 348.0866
Precursor type: [M+H]+
m/z	relative intensity
65.0422	88
68.9995	42
77.0445	31
89.0397	17
92.0514	31
102.0472	24
103.0533	14
115.0543	95
117.0709	17
120.046	21
126.0462	21
127.0539	135
128.0602	60
130.0664	17
131.0464	17
139.0522	17
150.045	24
151.0542	67
152.0619	113
153.0663	21
154.0641	120
155.0483	99
163.0555	39
164.0623	60
165.0696	138
166.0623	21
167.0728	49
175.0535	53
176.0606	174
177.0698	92
178.0772	106
179.0779	17
180.0789	24
181.0634	31
183.0419	17
184.0524	46
187.0517	63
188.0627	67
189.0688	551
190.074	206
191.0747	177
192.0763	14
193.0659	17
193.0825	17
199.0516	28
200.0614	362
201.0695	465
202.0771	999
203.0798	188
204.0805	245
205.0638	85
205.0841	17
207.0711	14
211.053	39
212.0629	35
213.0686	191
214.0636	78
215.0756	106
216.0797	188
217.0873	380
218.0716	120
218.0936	63
219.0746	46
220.074	60
221.0586	71
226.0636	42
227.0743	113
228.0797	216
229.0642	341
230.0696	127
230.0942	74
231.0779	124
232.0762	74
233.0601	17
233.0827	42
234.0663	42
237.0545	21
238.0645	17
240.0538	28
240.0815	21
241.0636	21
242.0706	71
243.0794	39
244.0759	152
245.0578	74
245.078	53
246.0569	17
246.0897	167
247.0736	60
248.0697	24
248.1145	14
249.0696	24
250.0609	24
255.0663	17
256.0727	63
257.0573	42
257.0851	95
258.067	412
259.074	113
260.07	85
261.0848	17
262.0845	17
269.0596	53
271.073	35
272.0691	106
273.0763	163
274.0628	71
274.0851	110
275.0689	35
284.0713	46
285.0535	95
286.0578	17
286.0856	95
287.0694	127
288.0628	31
300.0609	24
301.0729	31
302.078	184
313.0513	14
