Mass spectrum: Abacavir; LC-ESI-QTOF; MS2; 120 V
Name: Abacavir
Class: Pharmaceutical
Formula: C14H18N6O
Exact mass: 286.1542
SMILES: Nc1nc(NC2CC2)c3ncn([C@@H]4C[C@H](CO)C=C4)c3n1
InChI: InChI=1S/C14H18N6O/c15-14-18-12(17-9-2-3-9)11-13(19-14)20(7-16-11)10-4-1-8(5-10)6-21/h1,4,7-10,21H,2-3,5-6H2,(H3,15,17,18,19)/t8-,10+/m1/s1
Instrument: TripleTOF 5600 SCIEX
Instrument type: LC-ESI-QTOF
Ms type: MS2
Ion mode: POSITIVE
Collision energy: 120
Fragmentation mode: CID
Ionization: ESI
Column name: Zorbax Eclipse Plus C18 2.1 mm x 150 mm, 3.5 um, Agilent
Retention time: 5.094 min
Precursor m/z: 287.1615
Precursor type: [M+H]+
m/z	relative intensity
40.028	27
43.0509	10
53.0195	101
53.0448	10
54.0273	32
54.0375	13
55.0343	81
65.0173	140
65.0431	55
66.0242	44
66.0354	13
67.0338	27
67.0579	171
68.0282	84
77.0421	999
78.0442	27
79.0311	14
79.0567	177
80.0283	55
81.035	13
81.0457	10
82.0413	14
92.0247	51
94.041	27
105.0444	10
106.041	21
107.0355	32
108.0422	47
109.0495	19
119.036	10
134.0451	11
