Mass spectrum: Febantel; LC-ESI-QTOF; MS2; 80 V
Name: Febantel
Class: Pharmaceutical
Formula: C20H22N4O6S
Exact mass: 446.126
SMILES: COCC(=O)Nc1cc(Sc2ccccc2)ccc1NC(NC(=O)OC)=NC(=O)OC
InChI: InChI=1S/C20H22N4O6S/c1-28-12-17(25)21-16-11-14(31-13-7-5-4-6-8-13)9-10-15(16)22-18(23-19(26)29-2)24-20(27)30-3/h4-11H,12H2,1-3H3,(H,21,25)(H2,22,23,24,26,27)
Instrument: TripleTOF 5600 SCIEX
Instrument type: LC-ESI-QTOF
Ms type: MS2
Ion mode: POSITIVE
Collision energy: 80
Fragmentation mode: CID
Ionization: ESI
Column name: Zorbax Eclipse Plus C18 2.1 mm x 150 mm, 3.5 um, Agilent
Retention time: 13.085 min
Precursor m/z: 447.1333
Precursor type: [M+H]+
m/z	relative intensity
45.0429	310
56.0187	14
59.0192	19
65.044	147
68.9845	25
69.0118	14
69.0526	10
77.0411	34
78.0491	59
83.0269	143
90.0357	19
91.043	35
91.0539	17
93.0596	25
94.9952	14
102.0356	12
103.0431	28
104.0374	77
105.0443	26
106.0539	19
108.0043	12
109.0119	948
115.0301	26
116.0377	281
117.0448	43
118.0534	521
119.0606	23
122.0064	143
127.0545	10
128.0372	25
128.0612	16
129.0445	55
130.0427	91
131.0248	17
131.0522	310
132.0547	10
132.0689	52
133.0383	14
134.0053	19
134.0481	30
135.0544	30
139.0543	197
140.0505	17
142.0398	46
143.0483	450
144.033	60
144.0563	44
145.0402	59
145.0627	129
146.0465	50
146.0746	12
147	89
147.0549	10
149.0177	141
150.0252	41
151.0551	25
152.0633	21
153.0668	17
154.065	69
158.0355	107
158.0718	17
159.0011	71
159.0428	869
159.0798	25
160.0514	50
161.0195	14
161.0346	44
162.0266	17
163.0297	23
164.0503	25
166.0677	55
167.0724	12
170.0343	68
171.0384	999
172.0504	396
173.037	30
173.0578	181
174.0116	28
174.0691	14
174.9947	21
176.0495	16
177.0581	50
178.0659	21
179.0581	12
180.0799	17
181.0764	16
183.0265	317
184.0348	161
185.0415	25
185.0582	10
186.032	190
187.0172	14
187.039	16
190.0069	200
191.0154	25
191.0592	35
192.0686	43
193.0764	23
194.082	25
196.0223	143
197.0293	52
198.0379	321
199.0447	112
200.0562	17
202.0068	166
202.048	10
203.0149	204
203.0598	19
204.076	105
205.0308	12
205.0749	78
206.0753	34
207.0906	59
208.0225	62
209.0293	582
209.0988	12
210.0359	143
211.0328	100
212.0531	23
213.0433	53
214.0455	12
218.0736	10
219.0791	95
220.0861	25
223.0339	80
224.0406	346
225.0207	21
225.0486	260
226.0528	21
227.0633	75
229.0357	53
233.0578	19
234.066	23
235.0317	30
235.0745	91
236.0379	19
237.0482	254
238.0451	276
239.0595	157
240.06	32
246.0658	161
247.0725	55
248.0813	91
250.0418	35
251.0513	12
252.0245	30
252.0596	44
253.0423	32
254.0704	10
264.0249	10
265.0303	138
266.0383	984
266.0734	14
267.0475	118
268.0543	114
278.0374	134
280.0527	186
282.0688	16
