Mass spectrum: Naproxen; LC-ESI-QTOF; MS2; 90 V
Name: Naproxen
Class: Pharmaceutical
Formula: C14H14O3
Exact mass: 230.0943
SMILES: COc1ccc2cc(ccc2c1)C(C)C(O)=O
InChI: InChI=1S/C14H14O3/c1-9(14(15)16)10-3-4-12-8-13(17-2)6-5-11(12)7-10/h3-9H,1-2H3,(H,15,16)
Instrument: TripleTOF 5600 SCIEX
Instrument type: LC-ESI-QTOF
Ms type: CID
Ion mode: POSITIVE
Collision energy: 90
Ionization: ESI
Column name: Zorbax Eclipse Plus C18 2.1 mm x 150 mm, 3.5 um, Agilent
Retention time: 10.907 min
Precursor m/z: 231.1016
Precursor type: [M+H]+
m/z	relative intensity
65.0421	102
74.0178	22
75.0255	27
76.0326	22
77.0407	58
78.0486	22
88.0319	27
89.0397	224
91.0563	35
102.0467	71
113.0391	22
114.0455	33
115.0541	999
126.0452	52
127.0539	74
128.062	71
139.0535	66
141.0692	157
150.046	49
151.0541	99
152.0606	182
153.0685	22
