Mass spectrum: Fingolimod; LC-ESI-QTOF; MS2; 50 V
Name: Fingolimod
Class: Pharmaceutical
Formula: C19H33NO2
Exact mass: 307.2511
SMILES: CCCCCCCCC1=CC=C(C=C1)CCC(CO)(CO)N
InChI: InChI=1S/C19H33NO2/c1-2-3-4-5-6-7-8-17-9-11-18(12-10-17)13-14-19(20,15-21)16-22/h9-12,21-22H,2-8,13-16,20H2,1H3
Instrument: TripleTOF 6600 SCIEX
Instrument type: LC-ESI-QTOF
Ms type: MS2
Ion mode: POSITIVE
Collision energy: 50
Fragmentation mode: CID
Ionization: ESI
Column name: Zorbax Eclipse Plus C18 2.1 mm x 150 mm, 3.5 um, Agilent
Retention time: 10.17 min
Precursor m/z: 308.2584
Precursor type: [M+H]+
m/z	relative intensity
39.0229	27
41.0377	130
43.0533	206
55.0529	41
57.0688	281
65.0373	20
69.0692	20
71.0846	92
77.0366	34
79.0531	55
91.0528	583
103.0532	39
105.0682	999
115.0526	69
116.0602	16
117.068	116
119.0839	88
127.0526	53
128.06	341
129.0676	188
130.0749	16
131.0832	144
141.0671	99
142.0762	141
143.0835	192
145.0983	55
155.0584	20
155.0813	25
156.0914	48
157.0984	132
255.2098	34
