Mass spectrum: Flecainide; LC-ESI-QTOF; MS2; 150 V
Name: Flecainide
Class: Pharmaceutical
Formula: C17H20F6N2O3
Exact mass: 414.1378
SMILES: FC(F)(F)COc1ccc(OCC(F)(F)F)c(c1)C(=O)NCC2CCCCN2
InChI: InChI=1S/C17H20F6N2O3/c18-16(19,20)9-27-12-4-5-14(28-10-17(21,22)23)13(7-12)15(26)25-8-11-3-1-2-6-24-11/h4-5,7,11,24H,1-3,6,8-10H2,(H,25,26)
Instrument: TripleTOF 5600 SCIEX
Instrument type: LC-ESI-QTOF
Ms type: MS2
Ion mode: POSITIVE
Collision energy: 150
Fragmentation mode: CID
Ionization: ESI
Column name: Zorbax Eclipse Plus C18 2.1 mm x 150 mm, 3.5 um, Agilent
Retention time: 7.983 min
Precursor m/z: 415.1451
Precursor type: [M+H]+
m/z	relative intensity
51.03	999
53.0081	226
53.0429	26
55.058	40
56.0544	108
57.0181	42
63.011	15
64.0333	35
65.043	22
66.0518	17
68.0522	14
70.023	24
70.0691	14
71.0314	12
74.0183	35
75.0076	21
75.0238	49
77.0413	110
77.0528	17
79.0201	471
79.0557	63
81.0149	40
81.072	19
82.0224	19
82.0673	12
83.0114	56
83.0301	40
84.0822	78
88.0136	42
92.0277	15
95.0317	19
96.0826	12
98.0971	15
99.0237	59
101.0203	33
107.0126	22
114.0265	29
