Mass spectrum: Tributylhexadecylphosphonium; LC-ESI-QTOF; MS2; 120 V
Name: Tributylhexadecylphosphonium
Class: Pharmaceutical; Industrial_process
Formula: [C28H60P]+
Exact mass: 427.4427
SMILES: CCCCCCCCCCCCCCCC[P+](CCCC)(CCCC)CCCC
InChI: InChI=1S/C28H60P/c1-5-9-13-14-15-16-17-18-19-20-21-22-23-24-28-29(25-10-6-2,26-11-7-3)27-12-8-4/h5-28H2,1-4H3/q+1
Instrument: TripleTOF 5600 SCIEX
Instrument type: LC-ESI-QTOF
Ms type: MS2
Ion mode: POSITIVE
Collision energy: 120
Fragmentation mode: CID
Ionization: ESI
Column name: Zorbax Eclipse Plus C18 2.1 mm x 150 mm, 3.5 um, Agilent
Retention time: 16.04 min
Precursor m/z: 427.4427
Precursor type: [M]+
m/z	relative intensity
56.9931	290
59.0094	346
61.0247	847
62.0331	489
73.0227	135
75.0384	660
76.0464	999
88.0439	95
89.0526	155
90.0592	147
101.0523	55
103.0673	103
115.0684	103
117.0836	67
131.0978	143
145.1135	83
173.1461	99
