Mass spectrum: Budesonide; LC-ESI-QTOF; MS2; 150 V
Name: Budesonide
Class: Pharmaceutical
Formula: C25H34O6
Exact mass: 430.2355
SMILES: CCC[C@@H]1O[C@@H]2C[C@H]3[C@@H]4CCC5=CC(=O)C=C[C@]5(C)[C@H]4[C@@H](O)C[C@]3(C)[C@@]2(O1)C(=O)CO
InChI: InChI=1S/C25H34O6/c1-4-5-21-30-20-11-17-16-7-6-14-10-15(27)8-9-23(14,2)22(16)18(28)12-24(17,3)25(20,31-21)19(29)13-26/h8-10,16-18,20-22,26,28H,4-7,11-13H2,1-3H3/t16-,17-,18-,20+,21+,22+,23-,24-,25+/m0/s1
Instrument: TripleTOF 5600 SCIEX
Instrument type: LC-ESI-QTOF
Ms type: MS2
Ion mode: POSITIVE
Collision energy: 150
Fragmentation mode: CID
Ionization: ESI
Column name: Zorbax Eclipse Plus C18 2.1 mm x 150 mm, 3.5 um, Agilent
Retention time: 11.041 min
Precursor m/z: 431.2428
Precursor type: [M+H]+
m/z	relative intensity
65.0421	158
77.0412	999
78.0493	95
79.0559	79
89.0409	111
91.0555	586
102.0459	142
103.0535	222
104.0659	95
107.0479	79
115.0542	840
121.0673	79
126.0469	111
127.0539	253
128.0614	824
129.0704	142
131.0495	285
139.0551	190
141.0703	190
150.0474	79
151.0538	285
152.0621	570
153.0717	142
157.0631	63
163.0525	126
164.0616	174
165.0699	729
176.0621	253
177.0704	158
178.0772	285
181.0643	126
188.0643	79
189.0682	713
200.062	79
201.063	95
202.0787	253
213.0702	126
215.091	95
