Mass spectrum: 14-Hydroxycodeinone; LC-ESI-QTOF; MS2; 60 V
Name: 14-Hydroxycodeinone
Class: Pharmaceutical; Transformation_product
Formula: C18H19NO4
Exact mass: 313.1314
SMILES: COc1ccc2C[C@H]3N(C)CC[C@@]45C(Oc1c24)C(=O)C=C[C@@]35O
InChI: InChI=1S/C18H19NO4/c1-19-8-7-17-14-10-3-4-12(22-2)15(14)23-16(17)11(20)5-6-18(17,21)13(19)9-10/h3-6,13,16,21H,7-9H2,1-2H3/t13-,16?,17+,18-/m1/s1
Instrument: TripleTOF 5600 SCIEX
Instrument type: LC-ESI-QTOF
Ms type: MS2
Ion mode: POSITIVE
Collision energy: 60
Fragmentation mode: CID
Ionization: ESI
Column name: Zorbax Eclipse Plus C18 2.1 mm x 150 mm, 3.5 um, Agilent
Retention time: 5.367 min
Precursor m/z: 314.1387
Precursor type: [M+H]+
m/z	relative intensity
115.054	21
128.0618	13
139.0539	32
141.0695	24
144.0553	10
151.0546	11
152.0622	43
153.0691	26
154.0707	15
155.0489	10
155.0795	12
165.0702	71
166.0726	14
167.0733	69
168.0581	17
168.0803	35
169.0642	15
176.0622	11
178.0767	26
179.0808	11
180.0805	25
181.0694	11
181.0881	77
182.0968	105
183.0772	13
191.0732	14
192.0802	16
193.0655	10
193.0887	14
194.0964	31
195.073	39
196.1116	14
197.0598	20
205.0646	17
206.0965	13
207.0709	13
208.0762	26
209.0833	24
210.0918	192
211.0738	24
211.0987	11
212.1069	18
218.0966	50
220.0758	19
221.061	10
221.0825	16
222.0594	12
222.0903	16
223.0661	18
223.0986	16
224.1065	46
226.0858	10
234.0914	18
236.0695	11
237.0779	28
238.0867	999
239.094	319
246.0908	10
249.0778	12
252.1015	64
254.1169	22
264.1011	25
266.0824	18
280.0971	37
