Mass spectrum: Sulfamethazine; LC-ESI-QTOF; MS2; 40 V
Name: Sulfamethazine
Class: Antimicrobial; Pharmaceutical
Formula: C12H14N4O2S
Exact mass: 278.0837
SMILES: CC1=CC(=NC(=N1)NS(=O)(=O)C2=CC=C(C=C2)N)C
InChI: InChI=1S/C12H14N4O2S/c1-8-7-9(2)15-12(14-8)16-19(17,18)11-5-3-10(13)4-6-11/h3-7H,13H2,1-2H3,(H,14,15,16)
Instrument: TripleTOF 5600 SCIEX
Instrument type: LC-ESI-QTOF
Ms type: MS2
Ion mode: POSITIVE
Collision energy: 40
Fragmentation mode: CID
Ionization: ESI
Column name: Zorbax Eclipse Plus C18 2.1 mm x 150 mm, 3.5 um, Agilent
Retention time: 6.115 min
Precursor m/z: 279.091
Precursor type: [M+H]+
m/z	relative intensity
54.044	10
65.0467	219
66.0405	15
67.0365	16
68.057	21
80.0556	120
81.0518	48
82.0714	37
92.0549	813
93.0631	34
94.0702	11
95.0658	113
96.0723	22
107.0644	129
108.0484	786
122.0746	91
123.0826	28
124.0902	999
156.013	292
186.0346	517
196.0881	23
198.0919	11
213.1133	158
279.0903	149
