Mass spectrum: Resorcinol bis(diphenyl phosphate); LC-ESI-QTOF; MS2; 80 V
Name: Resorcinol bis(diphenyl phosphate)
Class: Industrial_process
Formula: C30H24O8P2
Exact mass: 574.0946
SMILES: C1=CC=C(C=C1)OP(=O)(OC2=CC=CC=C2)OC3=CC(=CC=C3)OP(=O)(OC4=CC=CC=C4)OC5=CC=CC=C5
InChI: InChI=1S/C30H24O8P2/c31-39(33-25-14-5-1-6-15-25,34-26-16-7-2-8-17-26)37-29-22-13-23-30(24-29)38-40(32,35-27-18-9-3-10-19-27)36-28-20-11-4-12-21-28/h1-24H
Instrument: TripleTOF 6600 SCIEX
Instrument type: LC-ESI-QTOF
Ms type: MS2
Ion mode: POSITIVE
Collision energy: 80
Fragmentation mode: CID
Ionization: ESI
Column name: Zorbax Eclipse Plus C18 2.1 mm x 150 mm, 3.5 um, Agilent
Retention time: 15.87 min
Precursor m/z: 575.1019
Precursor type: [M+H]+
m/z	relative intensity
50.0152	16
51.0231	73
65.0386	53
77.039	606
91.0555	18
92.0251	13
93.0341	24
95.0125	10
95.0493	41
102.0469	12
105.0453	21
111.0457	12
115.0548	263
121.028	12
125.0388	18
126.0468	13
127.0544	35
128.0625	107
129.0711	23
133.0212	27
138.9956	35
139.0548	210
140.0622	44
141.0709	420
147.0365	12
149.0158	18
149.0394	15
150.0471	136
151.0553	474
152.0635	999
153.0703	210
154.0772	13
154.991	21
155.0532	55
156.0576	59
157.006	13
157.0211	35
157.0648	50
159.0359	26
165.071	26
167.0502	53
168.0582	623
169.066	154
170.074	42
173.0169	26
175.018	53
175.031	59
177.0144	62
178.0792	32
179.0618	44
183.0444	29
184.0536	199
185.0159	18
185.0616	29
186.0258	16
187.0324	72
187.0773	19
189.0111	19
189.0709	62
190.0781	24
191.0868	90
195.0575	12
200.0634	27
201.0117	27
201.0719	61
202.0798	300
203.0274	158
203.0877	26
204.0946	24
205.0071	72
206.0733	19
207.0373	13
207.0831	27
213.0122	58
213.0713	33
214.0198	10
214.079	35
215.0279	411
215.0604	32
215.0868	259
216.0948	58
217.0671	39
217.1037	72
218.0743	105
218.9604	26
219.0212	33
219.0816	42
222.0095	108
223.0183	170
224.0647	33
225.0726	49
226.0798	799
227.0879	101
228.0955	145
229.0067	56
229.0669	16
229.1038	27
230.0751	21
231.0228	426
231.0822	35
232.0316	26
232.0905	44
233.0412	79
233.0987	19
234.0679	49
234.9574	39
242.0745	164
243.0821	62
244.091	112
245.0973	39
246.1047	13
247.0177	39
248.0251	76
249.0337	108
251.0498	171
252.093	10
253.0429	72
258.0681	30
259.077	19
260.0411	41
260.085	70
261.0492	55
261.0921	10
263.0275	19
264.9833	18
265.1034	15
267.043	27
273.0468	23
276.0972	52
276.9831	13
277.0438	21
277.1028	21
278.1107	15
279.0595	49
281.0393	47
287.0903	16
289.0447	112
289.1051	38
290.1121	12
291.0596	29
291.1208	30
292.9801	69
294.995	36
298.0421	32
299.0503	79
300.096	76
301.1042	50
302.1132	135
305.0388	29
305.0997	26
306.0484	24
307.055	144
309.0346	41
309.0711	15
310.9905	190
313.0034	10
318.1094	26
319.1129	12
325.0622	16
327.0812	29
329.0003	49
343.0752	65
351.0005	35
359.0291	10
365.0772	23
369.012	50
383.0872	15
387.0201	58
405.0321	47
419.1117	10
481.0683	12
575.1013	16
