Mass spectrum: 3,3`-Dichlorobenzidine; LC-ESI-QTOF; MS2; 100 V
Name: 3,3`-Dichlorobenzidine
Formula: C12H10Cl2N2
Exact mass: 252.0221
SMILES: C1=CC(=C(C=C1C2=CC(=C(C=C2)N)Cl)Cl)N
InChI: InChI=1S/C12H10Cl2N2/c13-9-5-7(1-3-11(9)15)8-2-4-12(16)10(14)6-8/h1-6H,15-16H2
Instrument: TripleTOF 6600 SCIEX
Instrument type: LC-ESI-QTOF
Ms type: MS2
Ion mode: POSITIVE
Collision energy: 100
Fragmentation mode: CID
Ionization: ESI
Column name: Zorbax Eclipse Plus C18 2.1 mm x 150 mm, 3.5 um, Agilent
Retention time: 11.426 min
Precursor m/z: 253.0294
Precursor type: [M+H]+
m/z	relative intensity
39.0241	32
50.0152	53
51.0235	234
52.019	25
61.0079	41
62.0152	102
63.0236	230
64.031	11
65.0395	46
73.0071	13
74.0154	227
75.0228	464
76.0302	102
77.0388	999
78.035	11
78.0469	32
85.0086	34
86.015	236
87.022	223
88.0185	20
88.0309	111
89.0382	250
90.0472	13
91.0431	13
93.0591	11
97.007	11
98.0159	102
99.0215	123
100.0178	13
100.0318	18
101.0385	216
102.0469	181
103.0536	109
104.0502	48
110.0145	13
111.0225	27
112.0284	13
113.0388	146
114.0348	41
115.0557	23
116.0492	20
117.0574	23
122.0123	13
123.0223	11
125.0397	95
126.0464	652
127.0393	30
127.054	527
128.0509	174
129.0445	81
130.0431	13
130.0661	74
137.0378	260
138.047	88
139.0535	153
140.0485	65
141.0543	11
151.0425	13
152.0499	141
153.0575	195
154.0644	223
155.0639	95
164.0497	90
165.0568	23
179.063	58
