Mass spectrum: Hydroxy-DEET; LC-ESI-QTOF; MS2; 20 V
Name: Hydroxy-DEET
Class: Metabolite; Biocide; Personal_care_product; Transformation_product-Metabolite
Formula: C12H17NO2
Exact mass: 207.1259
SMILES: CCN(CC)C(=O)C1=CC(=CC=C1)CO
InChI: InChI=1S/C12H17NO2/c1-3-13(4-2)12(15)11-7-5-6-10(8-11)9-14/h5-8,14H,3-4,9H2,1-2H3
Instrument: TripleTOF 5600 SCIEX
Instrument type: LC-ESI-QTOF
Ms type: MS2
Ion mode: POSITIVE
Collision energy: 20
Fragmentation mode: CID
Ionization: ESI
Column name: Zorbax Eclipse Plus C18 2.1 mm x 150 mm, 3.5 um, Agilent
Retention time: 6.973 min
Precursor m/z: 208.1332
Precursor type: [M+H]+
m/z	relative intensity
72.0503	22
89.0427	50
100.079	52
105.0364	28
107.0521	38
119.0514	74
135.0452	741
178.1233	35
208.1327	999
