Mass spectrum: Diflufenican; LC-ESI-QTOF; MS2; 120 V
Name: Diflufenican
Class: Herbicide
Formula: C19H11F5N2O2
Exact mass: 394.0741
SMILES: C1=CC(=CC(=C1)OC2=C(C=CC=N2)C(=O)NC3=C(C=C(C=C3)F)F)C(F)(F)F
InChI: InChI=1S/C19H11F5N2O2/c20-12-6-7-16(15(21)10-12)26-17(27)14-5-2-8-25-18(14)28-13-4-1-3-11(9-13)19(22,23)24/h1-10H,(H,26,27)
Instrument: TripleTOF 6600 SCIEX
Instrument type: LC-ESI-QTOF
Ms type: MS2
Ion mode: POSITIVE
Collision energy: 120
Fragmentation mode: CID
Ionization: ESI
Column name: Zorbax Eclipse Plus C18 2.1 mm x 150 mm, 3.5 um, Agilent
Retention time: 14.853 min
Precursor m/z: 395.0814
Precursor type: [M+H]+
m/z	relative intensity
39.0234	137
50.0158	80
51.0235	172
57.0141	91
61.0078	91
62.015	160
63.0232	367
68.995	103
74.0157	355
75.0045	218
75.023	723
76.0222	45
78.0338	172
81.0137	126
83.0291	114
85.0074	57
86.0161	68
87.0238	252
88.0173	103
88.0306	287
89.0389	137
93.0129	103
95.0291	459
98.0155	160
99.0052	126
99.023	172
100.019	160
101.0196	126
101.0389	91
105.0132	114
106.0207	91
107.0289	275
111.0202	91
112.0193	68
113.0194	57
113.0387	838
114.0458	493
115.0434	80
115.0564	68
117.014	160
119.0117	45
122.0144	333
123.0222	746
124.0179	275
125.0188	310
125.0372	80
131.029	298
132.0233	114
132.035	149
133.045	620
138.0311	160
139.0415	45
140.0495	999
141.0261	68
141.0564	68
142.0211	45
143.0286	424
144.0237	80
144.0379	68
145.0267	447
147.0106	80
148.0178	114
149.019	80
150.0309	195
151.0377	149
156.0257	68
157.0331	103
158.039	241
162.0282	275
163.0348	172
164.0425	149
165.0413	57
169.0292	68
170.0404	68
171.0354	57
176.0309	149
182.0327	241
188.0286	68
189.0373	137
190.0514	45
218.0402	103
