Mass spectrum: Citalopram; LC-ESI-QTOF; MS2; 120 V
Name: Citalopram
Class: Pharmaceutical
Formula: C20H21FN2O
Exact mass: 324.1638
SMILES: CN(C)CCCC1(OCc2cc(ccc12)C#N)c3ccc(F)cc3
InChI: InChI=1S/C20H21FN2O/c1-23(2)11-3-10-20(17-5-7-18(21)8-6-17)19-9-4-15(13-22)12-16(19)14-24-20/h4-9,12H,3,10-11,14H2,1-2H3
Instrument: TripleTOF 5600 SCIEX
Instrument type: LC-ESI-QTOF
Ms type: MS2
Ion mode: POSITIVE
Collision energy: 120
Fragmentation mode: CID
Ionization: ESI
Column name: Zorbax Eclipse Plus C18 2.1 mm x 150 mm, 3.5 um, Agilent
Retention time: 7.757 min
Precursor m/z: 325.1711
Precursor type: [M+H]+
m/z	relative intensity
42.0422	37
43.0515	10
51.029	48
57.0194	422
58.0702	162
59.0342	97
65.0431	40
73.011	10
74.0186	160
75.0262	222
76.0327	21
77.0417	144
81.0155	37
83.0324	999
86.0168	36
87.0248	102
88.0193	30
88.0328	21
89.0406	381
90.0357	47
94.023	22
95.03	53
96.039	21
98.0157	108
99.0243	81
100.031	26
101.0389	26
102.0466	43
105.0132	11
107.0294	73
109.0452	343
110.0162	15
111.0239	30
112.019	13
113.039	221
114.0341	79
115.0544	54
116.0494	38
118.0206	11
120.0374	56
122.0152	62
123.023	92
124.0285	27
125.0385	44
126.0467	72
127.0537	67
128.0631	37
131.0302	40
133.0451	127
134.0146	12
135.0244	10
137.0384	75
138.0343	21
139.054	43
140.0498	152
142.0216	13
144.0367	61
145.0453	14
146.0155	34
146.0523	23
147.0224	29
148.0297	37
149.0385	98
150.0464	145
151.0513	55
152.0598	23
153.0561	11
155.0284	36
157.0451	68
158.0398	28
161.0381	108
162.0458	82
163.0543	178
164.0505	69
167.0289	51
168.0376	242
169.0449	84
170.0174	10
170.0524	90
171.0248	10
172.0307	18
173.0389	78
174.0458	180
175.0471	109
176.0585	48
177.057	21
179.0277	31
180.036	88
181.0442	307
182.0425	98
183.061	27
185.0389	52
186.0455	76
187.0537	235
188.0502	232
189.065	39
190.0647	25
191.0282	13
192.0371	164
193.0432	101
194.0521	123
195.0492	25
197.0391	92
198.0466	376
199.0519	252
200.0609	173
201.058	51
203.0291	13
204.0374	32
205.0448	215
206.0419	161
207.0575	118
208.0557	103
210.046	11
211.0537	93
212.051	154
213.0701	97
214.0655	43
216.0364	93
217.0453	220
218.0526	589
219.0524	136
220.0682	68
221.0635	14
222.0352	12
223.0422	45
224.0501	91
225.0573	245
226.0656	27
227.0722	13
229.0443	28
230.0418	68
231.0606	118
232.0557	61
233.0713	12
236.0482	35
237.0573	20
238.0651	107
240.0779	11
242.0511	29
243.0485	197
244.0569	125
245.0647	152
256.0538	39
258.0706	31
