Mass spectrum: Mefenpyr-diethyl; LC-ESI-QTOF; MS2; 150 V
Name: Mefenpyr-diethyl
Class: Herbicide
Formula: C16H18Cl2N2O4
Exact mass: 372.0644
SMILES: CCOC(=O)C1=NN(C(C1)(C)C(=O)OCC)C2=C(C=C(C=C2)Cl)Cl
InChI: InChI=1S/C16H18Cl2N2O4/c1-4-23-14(21)12-9-16(3,15(22)24-5-2)20(19-12)13-7-6-10(17)8-11(13)18/h6-8H,4-5,9H2,1-3H3
Instrument: TripleTOF 5600 SCIEX
Instrument type: LC-ESI-QTOF
Ms type: MS2
Ion mode: POSITIVE
Collision energy: 150
Fragmentation mode: CID
Ionization: ESI
Column name: Zorbax Eclipse Plus C18 2.1 mm x 150 mm, 3.5 um, Agilent
Retention time: 14.581 min
Precursor m/z: 373.0716
Precursor type: [M+H]+
m/z	relative intensity
48.9939	11
71.9838	18
72.9897	265
73.0119	99
74.0214	999
75.0287	154
76.031	12
77.0432	14
82.9493	254
83.9807	38
84.9885	22
87.0249	11
88.0239	18
89.0415	23
90.0383	21
96.9864	42
98.0175	17
99.0183	33
100.0203	37
101.0401	21
102.0486	14
106.9463	62
108.9859	216
109.9932	14
114.0365	17
125.0049	12
126.034	13
127.0438	19
128.0482	13
132.9614	74
