Mass spectrum: Saluamine; LC-ESI-QTOF; MS2; 30 V
Name: Saluamine
Class: Pharmaceutical; Transformation_product-Metabolite
Formula: C7H7ClN2O4S
Exact mass: 249.9815
SMILES: Nc1cc(Cl)c(cc1C(O)=O)[S](N)(=O)=O
InChI: InChI=1S/C7H7ClN2O4S/c8-4-2-5(9)3(7(11)12)1-6(4)15(10,13)14/h1-2H,9H2,(H,11,12)(H2,10,13,14)
Instrument: TripleTOF 5600 SCIEX
Instrument type: LC-ESI-QTOF
Ms type: MS2
Ion mode: POSITIVE
Collision energy: 30
Fragmentation mode: CID
Ionization: ESI
Column name: Zorbax Eclipse Plus C18 2.1 mm x 150 mm, 3.5 um, Agilent
Retention time: 5.713 min
Precursor m/z: 250.9888
Precursor type: [M+H]+
m/z	relative intensity
114.0094	20
123.9946	31
125.0004	15
134.047	37
141.0175	15
142.0029	20
151.9888	46
152.9966	34
154.9977	20
155.9868	41
157.0161	46
158.0002	24
167.9847	24
185.9963	22
187.9562	22
197.0056	27
204.9835	96
232.9774	999
