Mass spectrum: Fluroxypyr; LC-ESI-QTOF; MS2; 140 V
Name: Fluroxypyr
Class: Herbicide
Formula: C7H5Cl2FN2O3
Exact mass: 253.9661
SMILES: C(C(=O)O)OC1=NC(=C(C(=C1Cl)N)Cl)F
InChI: InChI=1S/C7H5Cl2FN2O3/c8-3-5(11)4(9)7(12-6(3)10)15-1-2(13)14/h1H2,(H2,11,12)(H,13,14)
Instrument: TripleTOF 6600 SCIEX
Instrument type: LC-ESI-QTOF
Ms type: MS2
Ion mode: POSITIVE
Collision energy: 140
Fragmentation mode: CID
Ionization: ESI
Column name: Zorbax Eclipse Plus C18 2.1 mm x 150 mm, 3.5 um, Agilent
Retention time: 8.859 min
Precursor m/z: 254.9734
Precursor type: [M+H]+
m/z	relative intensity
30.9979	268
37.007	146
46.0084	97
46.9681	292
48.9842	121
51.0105	438
52.019	170
53.014	243
54.9982	292
56.005	219
61.9782	243
62.0022	170
64.0198	97
66.9744	414
70.0081	999
70.9677	438
71.9754	389
76.0055	194
77.0127	657
82.0075	146
85.9789	730
89.966	999
90.9744	389
96.9721	219
100.936	170
105.9356	121
124.9343	146
