Mass spectrum: Oseltamivir; LC-ESI-QTOF; MS2; 110 V
Name: Oseltamivir
Class: Pharmaceutical
Formula: C16H28N2O4
Exact mass: 312.2049
SMILES: CCC(CC)O[C@@H]1C=C(C[C@@H]([C@H]1/N=C(\C)/O)N)C(=O)OCC
InChI: InChI=1S/C16H28N2O4/c1-5-12(6-2)22-14-9-11(16(20)21-7-3)8-13(17)15(14)18-10(4)19/h9,12-15H,5-8,17H2,1-4H3,(H,18,19)/t13-,14+,15+/m0/s1
Instrument: TripleTOF 5600 SCIEX
Instrument type: LC-ESI-QTOF
Ms type: MS2
Ion mode: POSITIVE
Collision energy: 110
Fragmentation mode: CID
Ionization: ESI
Column name: Zorbax Eclipse Plus C18 2.1 mm x 150 mm, 3.5 um, Agilent
Retention time: 6.973 min
Precursor m/z: 313.2122
Precursor type: [M+H]+
m/z	relative intensity
43.0256	51
43.0369	12
51.0282	129
53.0434	37
55.0595	18
65.043	999
66.0351	17
66.0492	118
67.0481	244
68.0535	22
75.0262	10
77.0412	478
78.0353	29
79.0421	13
79.0586	10
80.0515	378
81.0595	20
82.0678	72
91.0432	13
92.0504	311
93.0357	27
93.0583	186
94.0653	70
102.0339	12
108.0428	13
119.0593	13
120.0439	49
