Mass spectrum: Butyl-triphenylphosphonium; LC-ESI-QTOF; MS2; 20 V
Name: Butyl-triphenylphosphonium
Class: Industrial_process
Formula: C22H24P
Exact mass: 319.161
SMILES: CCCC[P+](c1ccccc1)(c2ccccc2)c3ccccc3
InChI: InChI=1S/C22H24P/c1-2-3-19-23(20-13-7-4-8-14-20,21-15-9-5-10-16-21)22-17-11-6-12-18-22/h4-18H,2-3,19H2,1H3/q+1
Instrument: TripleTOF 5600 SCIEX
Instrument type: LC-ESI-QTOF
Ms type: CID
Ion mode: POSITIVE
Collision energy: 20
Ionization: ESI
Column name: Zorbax Eclipse Plus C18 2.1 mm x 150 mm, 3.5 um, Agilent
Retention time: 8.852 min
Precursor m/z: 319.161
Precursor type: [M]+
m/z	relative intensity
319.1612	999
