Mass spectrum: Nitrazepam; LC-ESI-QTOF; MS2; 150 V
Name: Nitrazepam
Class: Pharmaceutical
Formula: C15H11N3O3
Exact mass: 281.08
SMILES: C1C(=O)NC2=C(C=C(C=C2)[N+](=O)[O-])C(=N1)C3=CC=CC=C3
InChI: InChI=1S/C15H11N3O3/c19-14-9-16-15(10-4-2-1-3-5-10)12-8-11(18(20)21)6-7-13(12)17-14/h1-8H,9H2,(H,17,19)
Instrument: TripleTOF 6600 SCIEX
Instrument type: LC-ESI-QTOF
Ms type: MS2
Ion mode: POSITIVE
Collision energy: 150
Fragmentation mode: CID
Ionization: ESI
Column name: Zorbax Eclipse Plus C18 2.1 mm x 150 mm, 3.5 um, Agilent
Retention time: 9.435 min
Precursor m/z: 282.0873
Precursor type: [M+H]+
m/z	relative intensity
36.0001	18
37.0072	93
38.0145	68
39.0223	180
49.0064	96
50.0146	669
51.0225	703
52.0177	24
52.0305	43
59.9976	68
61.0067	298
62.014	364
63.0219	451
64.0169	24
65.036	59
73.0063	133
74.0142	999
75.0098	59
75.0221	538
76.0177	46
76.0297	230
77.0376	308
78.0457	71
83.9978	43
85.0064	270
86.0138	432
87.0219	289
88.0161	84
88.0292	24
89.037	158
97.0054	80
98.0139	625
99.0213	292
100.0286	93
101.0381	37
102.0447	102
109.0054	121
110.0138	233
111.0078	15
111.0208	93
112.0172	28
113.0388	115
114.0332	31
115.0517	31
121.0067	37
122.0138	155
123.0196	65
124.0275	62
125.038	121
126.0451	245
127.05	40
134.0145	21
135.0195	21
136.0326	21
137.037	46
138.0436	21
139.0542	49
140.0503	21
149.0376	133
150.045	725
151.0533	233
152.061	71
153.0546	24
161.0378	96
162.0432	56
163.0537	90
164.0487	28
175.0391	43
176.0526	21
177.0526	40
188.0495	24
