Mass spectrum: Propyphenazone; LC-ESI-QTOF; MS2; 90 V
Name: Propyphenazone
Class: Pharmaceutical
Formula: C14H18N2O
Exact mass: 230.1419
SMILES: CC1=C(C(=O)N(N1C)C2=CC=CC=C2)C(C)C
InChI: InChI=1S/C14H18N2O/c1-10(2)13-11(3)15(4)16(14(13)17)12-8-6-5-7-9-12/h5-10H,1-4H3
Instrument: TripleTOF 5600 SCIEX
Instrument type: LC-ESI-QTOF
Ms type: MS2
Ion mode: POSITIVE
Collision energy: 90
Fragmentation mode: CID
Ionization: ESI
Column name: Zorbax Eclipse Plus C18 2.1 mm x 150 mm, 3.5 um, Agilent
Retention time: 9.545 min
Precursor m/z: 231.1492
Precursor type: [M+H]+
m/z	relative intensity
37.0075	13
38.0151	16
39.0229	134
41.0262	40
41.0386	47
42.0338	80
49.0075	26
50.0153	154
51.0228	565
52.0304	13
53.0386	87
54.0337	20
55.0547	37
56.0495	824
58.0638	16
63.0232	63
65.0388	242
66.0471	23
67.0192	16
67.0421	269
74.0153	20
75.0231	26
77.0389	999
78.0323	30
78.045	20
79.0551	40
80.0494	349
81.0572	87
82.0653	201
89.0388	141
90.0462	57
91.0543	77
92.0479	40
93.057	50
94.0658	158
96.0811	23
101.0402	16
102.0463	30
103.053	53
104.0485	40
115.0541	137
116.0523	26
117.0602	37
127.0567	30
128.0535	50
130.0653	74
140.0461	20
143.0716	23
