Mass spectrum: Iomeprol; LC-ESI-QTOF; MS2; 110 V
Name: Iomeprol
Class: Pharmaceutical
Formula: C17H22I3N3O8
Exact mass: 776.8541
SMILES: CN(C(=O)CO)c1c(I)c(C(=O)NCC(O)CO)c(I)c(C(=O)NCC(O)CO)c1I
InChI: InChI=1S/C17H22I3N3O8/c1-23(9(29)6-26)15-13(19)10(16(30)21-2-7(27)4-24)12(18)11(14(15)20)17(31)22-3-8(28)5-25/h7-8,24-28H,2-6H2,1H3,(H,21,30)(H,22,31)
Instrument: TripleTOF 5600 SCIEX
Instrument type: LC-ESI-QTOF
Ms type: MS2
Ion mode: POSITIVE
Collision energy: 110
Fragmentation mode: CID
Ionization: ESI
Column name: Zorbax Eclipse Plus C18 2.1 mm x 150 mm, 3.5 um, Agilent
Retention time: 4.596 min
Precursor m/z: 777.8614
Precursor type: [M+H]+
m/z	relative intensity
90.0359	10
91.0415	27
92.053	16
103.041	19
104.0492	21
105.0579	16
108.0411	10
118.0274	24
119.0358	43
120.0427	19
131.0353	24
132.0431	40
136.039	13
146.0236	35
147.0305	27
148.0378	43
149.0464	32
159.0553	13
160.0382	27
161.0459	203
162.0183	19
162.0544	29
163.0613	19
164.034	13
174.0444	19
175.023	21
175.0523	13
176.0354	27
177.0415	97
178.0499	16
179.0576	10
187.0258	13
187.0493	10
188.9168	27
204.0232	13
204.9142	13
205.028	13
205.0591	21
206.0477	13
217.057	13
217.9454	21
229.9446	16
231.9266	13
245.9407	46
257.9401	127
270.9466	13
273.9327	95
275.9548	13
277.0823	29
285.9365	21
286.952	19
287.9506	999
288.958	10
301.9296	16
303.9431	21
313.9335	19
331.9407	62
404.994	65
