Mass spectrum: Methyl-tris(4-fluorophenyl)phosphonium; LC-ESI-QTOF; MS2; 120 V
Name: Methyl-tris(4-fluorophenyl)phosphonium
Class: Industrial_process
Formula: [C19H15F3P]+
Exact mass: 331.0858
SMILES: C[P+](c1ccc(F)cc1)(c2ccc(F)cc2)c3ccc(F)cc3
InChI: InChI=1S/C19H15F3P/c1-23(17-8-2-14(20)3-9-17,18-10-4-15(21)5-11-18)19-12-6-16(22)7-13-19/h2-13H,1H3/q+1
Instrument: TripleTOF 5600 SCIEX
Instrument type: LC-ESI-QTOF
Ms type: MS2
Ion mode: POSITIVE
Collision energy: 120
Fragmentation mode: CID
Ionization: ESI
Column name: Zorbax Eclipse Plus C18 2.1 mm x 150 mm, 3.5 um, Agilent
Retention time: 7.52 min
Precursor m/z: 331.0858
Precursor type: [M]+
m/z	relative intensity
57.0202	52
68.9736	77
74.0175	206
74.9821	214
75.0258	129
76.034	55
78.9736	74
79.9825	195
83.0319	85
98.0158	214
98.9801	225
99.0224	96
100.0297	49
107.0289	57
122.0161	90
122.981	57
123.0232	165
124.0316	93
124.9956	999
126.0468	52
133.0453	88
144.036	134
149.039	275
150.0467	778
151.0347	60
151.0529	101
157.0452	71
168.0364	525
169.0459	321
170.0525	253
175.0107	77
179.0049	143
181.0212	93
187.0342	82
188.0439	390
193.0021	107
196.9968	57
198.0022	132
199.0106	423
217.0065	66
219.0169	159
