Mass spectrum: Venlafaxine; LC-ESI-QTOF; MS2; 90 V
Name: Venlafaxine
Class: Pharmaceutical
Formula: C17H27NO2
Exact mass: 277.2042
SMILES: CN(C)CC(c1ccc(cc1)OC)C2(CCCCC2)O
InChI: InChI=1S/C17H27NO2/c1-18(2)13-16(17(19)11-5-4-6-12-17)14-7-9-15(20-3)10-8-14/h7-10,16,19H,4-6,11-13H2,1-3H3
Instrument: TripleTOF 5600 SCIEX
Instrument type: LC-ESI-QTOF
Ms type: MS2
Ion mode: POSITIVE
Collision energy: 90
Fragmentation mode: CID
Ionization: ESI
Column name: Zorbax Eclipse Plus C18 2.1 mm x 150 mm, 3.5 um, Agilent
Retention time: 6.626 min
Precursor m/z: 278.2115
Precursor type: [M+H]+
m/z	relative intensity
42.0439	78
51.0288	51
52.0364	21
55.0599	10
56.0545	13
58.0708	999
65.0426	180
76.039	13
77.0415	372
77.0605	18
78.0492	523
79.056	70
81.0722	43
89.0398	32
89.0561	10
91.0555	380
102.0474	43
103.0542	78
104.0627	24
106.0409	29
107.0482	24
115.0542	229
116.0611	21
119.0503	21
121.0644	232
127.0526	24
128.0623	64
129.0709	29
131.0489	40
141.0682	10
