Mass spectrum: N-[4-(1H-benzimidazol-2-yl)phenyl]-N,N-dimethylamine; LC-ESI-QTOF; MS2; 150 V
Name: N-[4-(1H-benzimidazol-2-yl)phenyl]-N,N-dimethylamine
Class: Pharmaceutical
Formula: C15H15N3
Exact mass: 237.1266
SMILES: CN(C)C1=CC=C(C=C1)C2=NC3=CC=CC=C3N2
InChI: InChI=1S/C15H15N3/c1-18(2)12-9-7-11(8-10-12)15-16-13-5-3-4-6-14(13)17-15/h3-10H,1-2H3,(H,16,17)
Instrument: TripleTOF 5600 SCIEX
Instrument type: LC-ESI-QTOF
Ms type: MS2
Ion mode: POSITIVE
Collision energy: 150
Fragmentation mode: CID
Ionization: ESI
Column name: Zorbax Eclipse Plus C18 2.1 mm x 150 mm, 3.5 um, Agilent
Retention time: 6.517 min
Precursor m/z: 238.1339
Precursor type: [M+H]+
m/z	relative intensity
41.0414	45
52.0272	445
60.0054	154
65.0307	54
65.045	781
66.0424	36
73.0115	127
74.0208	999
75.0155	190
75.0274	454
76.0257	290
77.0423	299
85.0112	127
86.0196	336
87.0259	435
88.0264	227
89.0419	517
90.0398	54
91.0467	118
98.0173	118
99.0128	63
99.0305	54
100.0192	36
102.0342	45
109.0104	54
110.015	108
111.0101	45
111.0243	54
112.0177	54
113.0381	336
114.0347	136
137.0389	281
138.0377	245
139.055	181
140.0491	90
164.0493	272
191.0604	54
