Mass spectrum: Clomazone; LC-ESI-QTOF; MS2; 140 V
Name: Clomazone
Class: Herbicide; Pharmaceutical
Formula: C12H14ClNO2
Exact mass: 239.0713
SMILES: CC1(CON(C1=O)CC2=CC=CC=C2Cl)C
InChI: InChI=1S/C12H14ClNO2/c1-12(2)8-16-14(11(12)15)7-9-5-3-4-6-10(9)13/h3-6H,7-8H2,1-2H3
Instrument: TripleTOF 6600 SCIEX
Instrument type: LC-ESI-QTOF
Ms type: MS2
Ion mode: POSITIVE
Collision energy: 140
Fragmentation mode: CID
Ionization: ESI
Column name: Zorbax Eclipse Plus C18 2.1 mm x 150 mm, 3.5 um, Agilent
Retention time: 11.289 min
Precursor m/z: 240.0786
Precursor type: [M+H]+
m/z	relative intensity
35.9977	79
37.0057	397
38.0013	15
38.0135	360
39.021	490
46.9664	230
48.9818	177
49.005	47
50.0129	193
51.0214	71
59.9967	151
61.0046	691
62.013	999
63.0206	908
64.0282	29
72.9816	429
73.0051	31
74.0122	193
75.02	21
85.0053	18
86.0128	29
89.0369	246
98.9995	10
