Mass spectrum: 4-(Dimethylamino)azobenzene; LC-ESI-QTOF; MS2; 140 V
Name: 4-(Dimethylamino)azobenzene
Formula: C14H15N3
Exact mass: 225.1266
SMILES: CN(C)C1=CC=C(C=C1)N=NC2=CC=CC=C2
InChI: InChI=1S/C14H15N3/c1-17(2)14-10-8-13(9-11-14)16-15-12-6-4-3-5-7-12/h3-11H,1-2H3
Instrument: TripleTOF 6600 SCIEX
Instrument type: LC-ESI-QTOF
Ms type: MS2
Ion mode: POSITIVE
Collision energy: 140
Fragmentation mode: CID
Ionization: ESI
Column name: Zorbax Eclipse Plus C18 2.1 mm x 150 mm, 3.5 um, Agilent
Retention time: 15.513 min
Precursor m/z: 226.1339
Precursor type: [M+H]+
m/z	relative intensity
35.9984	22
37.0067	116
38.0142	85
39.0223	185
40.0173	11
41.0252	12
42.0328	21
49.0063	167
50.0144	999
51.0221	655
52.0173	40
61.0058	42
62.0139	69
63.0216	120
64.0168	24
65.0366	14
73.0056	16
74.0137	72
75.0088	11
75.021	10
76.0164	16
77.0368	78
