Mass spectrum: Clenbuterol; LC-ESI-QTOF; MS2; 60 V
Name: Clenbuterol
Class: Pharmaceutical; Transformation_product-Metabolite
Formula: C12H18Cl2N2O
Exact mass: 276.0796
SMILES: CC(C)(C)NCC(c1cc(c(c(c1)Cl)N)Cl)O
InChI: InChI=1S/C12H18Cl2N2O/c1-12(2,3)16-6-10(17)7-4-8(13)11(15)9(14)5-7/h4-5,10,16-17H,6,15H2,1-3H3
Instrument: TripleTOF 5600 SCIEX
Instrument type: LC-ESI-QTOF
Ms type: MS2
Ion mode: POSITIVE
Collision energy: 60
Fragmentation mode: CID
Ionization: ESI
Column name: Zorbax Eclipse Plus C18 2.1 mm x 150 mm, 3.5 um, Agilent
Retention time: 6.115 min
Precursor m/z: 277.0869
Precursor type: [M+H]+
m/z	relative intensity
57.0753	57
77.0415	37
80.0511	12
89.0401	12
104.0503	184
105.0581	96
106.0656	91
113.0152	22
116.0496	53
117.0568	34
127.0185	16
131.0611	293
132.0689	999
133.0761	184
140.0266	618
141.0337	33
151.0184	143
152.0263	40
153.0213	43
160.9792	22
167.0373	298
168.0451	465
173.987	39
