Mass spectrum: Phenylbutazone; LC-ESI-QTOF; MS2; 30 V
Name: Phenylbutazone
Class: Pharmaceutical
Formula: C19H20N2O2
Exact mass: 308.1525
SMILES: CCCCC1C(=O)N(N(C1=O)C2=CC=CC=C2)C3=CC=CC=C3
InChI: InChI=1S/C19H20N2O2/c1-2-3-14-17-18(22)20(15-10-6-4-7-11-15)21(19(17)23)16-12-8-5-9-13-16/h4-13,17H,2-3,14H2,1H3
Instrument: TripleTOF 5600 SCIEX
Instrument type: LC-ESI-QTOF
Ms type: MS2
Ion mode: NEGATIVE
Collision energy: 30
Fragmentation mode: CID
Ionization: ESI
Column name: Zorbax Eclipse Plus C18 2.1 mm x 150 mm, 3.5 um, Agilent
Retention time: 13.103 min
Precursor m/z: 307.1452
Precursor type: [M-H]-
m/z	relative intensity
77.0384	77
92.0495	144
131.038	591
157.0534	69
158.0972	56
160.1137	257
168.0822	101
170.0987	166
188.1088	174
279.1515	920
307.1461	999
