Mass spectrum: 5-Aminosalicylic acid; LC-ESI-QTOF; MS2; 140 V
Name: 5-Aminosalicylic acid
Class: Pharmaceutical
Formula: C7H7NO3
Exact mass: 153.0426
SMILES: C1=CC(=C(C=C1N)C(=O)O)O
InChI: InChI=1S/C7H7NO3/c8-4-1-2-6(9)5(3-4)7(10)11/h1-3,9H,8H2,(H,10,11)
Instrument: TripleTOF 6600 SCIEX
Instrument type: LC-ESI-QTOF
Ms type: MS2
Ion mode: POSITIVE
Collision energy: 140
Fragmentation mode: CID
Ionization: ESI
Column name: Zorbax Eclipse Plus C18 2.1 mm x 150 mm, 3.5 um, Agilent
Retention time: 2.181 min
Precursor m/z: 154.0499
Precursor type: [M+H]+
m/z	relative intensity
35.9994	418
37.0073	892
38.0025	177
38.0146	276
39.0226	92
49.0071	262
50.0151	247
51.0105	63
51.022	28
52.0186	85
53.0017	162
59.9992	396
61.0069	999
62.0146	219
73.0074	99
74.0141	63
