Mass spectrum: N-[2-[(2-Bromo-4,6-dinitrophenyl)azo]-5-(diethylamino)phenyl]acetamide; LC-ESI-QTOF; MS2; 120 V
Name: N-[2-[(2-Bromo-4,6-dinitrophenyl)azo]-5-(diethylamino)phenyl]acetamide
Formula: C18H19BrN6O5
Exact mass: 478.06
SMILES: CCN(CC)C1=CC(=C(C=C1)N=NC2=C(C=C(C=C2Br)[N+](=O)[O-])[N+](=O)[O-])NC(=O)C
InChI: InChI=1S/C18H19BrN6O5/c1-4-23(5-2)12-6-7-15(16(9-12)20-11(3)26)21-22-18-14(19)8-13(24(27)28)10-17(18)25(29)30/h6-10H,4-5H2,1-3H3,(H,20,26)
Instrument: TripleTOF 6600 SCIEX
Instrument type: LC-ESI-QTOF
Ms type: MS2
Ion mode: POSITIVE
Collision energy: 120
Fragmentation mode: CID
Ionization: ESI
Column name: Zorbax Eclipse Plus C18 2.1 mm x 150 mm, 3.5 um, Agilent
Retention time: 16.579 min
Precursor m/z: 479.0673
Precursor type: [M+H]+
m/z	relative intensity
39.0226	17
42.0333	30
43.0173	136
51.0219	20
52.0174	20
52.0292	61
53.0372	44
54.0334	17
62.015	17
63.0221	30
65.0379	180
66.032	20
66.0446	61
67.0413	37
68.0477	17
69.0446	13
76.0157	13
77.0377	194
78.0328	129
79.0278	71
79.0409	136
79.0531	34
80.0476	583
81.0562	17
89.0374	30
90.0318	64
91.0409	98
91.053	37
92.0485	320
93.0559	999
94.0635	167
95.0575	34
101.0377	20
102.0348	17
103.0281	27
104.0479	88
105.0437	248
106.0533	85
106.0631	109
107.0343	115
107.0582	167
107.0746	17
108.0459	27
108.0767	40
109.0744	30
113.038	37
114.0309	27
115.0554	17
116.048	27
117.048	136
118.053	68
119.0585	306
120.0542	34
120.0689	78
121.0485	30
121.0753	351
122.0574	17
126.0332	13
126.0431	17
127.0548	23
129.0459	34
130.0633	23
131.06	57
132.0461	23
133.0579	327
134.0493	34
134.0704	184
135.0758	17
135.0927	13
136.0757	17
137.0367	13
138.0435	71
139.0519	211
140.0483	115
141.049	23
142.0529	30
146.0697	146
147.0543	187
147.078	34
148.0621	61
148.0856	17
149.1059	23
150.041	20
152.0499	37
153.0488	54
154.0629	27
155.0605	23
161.0682	40
163.084	34
164.0465	81
165.0534	146
166.06	126
167.0702	13
168.061	20
177.0573	17
178.0465	30
178.0631	34
179.0601	54
180.0534	23
190.0583	27
191.0686	17
192.0639	78
193.0608	47
193.0735	40
194.0731	61
204.0661	17
206.0702	30
218.0687	17
221.0842	81
256.9859	17
283.9805	23
