Mass spectrum: Clenbuterol; LC-ESI-QTOF; MS2; 100 V
Name: Clenbuterol
Class: Pharmaceutical; Transformation_product-Metabolite
Formula: C12H18Cl2N2O
Exact mass: 276.0796
SMILES: CC(C)(C)NCC(c1cc(c(c(c1)Cl)N)Cl)O
InChI: InChI=1S/C12H18Cl2N2O/c1-12(2,3)16-6-10(17)7-4-8(13)11(15)9(14)5-7/h4-5,10,16-17H,6,15H2,1-3H3
Instrument: TripleTOF 5600 SCIEX
Instrument type: LC-ESI-QTOF
Ms type: MS2
Ion mode: POSITIVE
Collision energy: 100
Fragmentation mode: CID
Ionization: ESI
Column name: Zorbax Eclipse Plus C18 2.1 mm x 150 mm, 3.5 um, Agilent
Retention time: 6.115 min
Precursor m/z: 277.0869
Precursor type: [M+H]+
m/z	relative intensity
52.0356	12
57.0755	145
58.0698	14
65.0407	21
67.0448	19
72.9864	30
74.0185	27
74.0334	12
75.0258	86
76.0243	28
77.0416	793
78.037	81
78.0485	138
78.0721	12
79.0436	50
79.0558	52
80.0513	75
88.033	21
89.0399	304
90.0344	62
90.0468	50
91.0418	27
92.0501	14
93.0596	16
99.0001	30
102.0343	34
103.0418	10
104.0497	999
105.0574	226
106.0651	142
111.0001	25
113.0152	36
114.0105	16
114.0345	28
115.0427	27
116.0494	86
117.0564	115
118.0526	21
122.998	37
125.0013	12
126.0105	16
127.018	34
131.0602	311
132.068	221
138.0087	16
140.0259	361
151.0179	37
