Mass spectrum: Tadalafil; LC-ESI-QTOF; MS2; 110 V
Name: Tadalafil
Class: Pharmaceutical
Formula: C22H19N3O4
Exact mass: 389.1376
SMILES: CN1CC(=O)N2C(C1=O)CC3=C(C2C4=CC5=C(C=C4)OCO5)NC6=CC=CC=C36
InChI: InChI=1S/C22H19N3O4/c1-24-10-19(26)25-16(22(24)27)9-14-13-4-2-3-5-15(13)23-20(14)21(25)12-6-7-17-18(8-12)29-11-28-17/h2-8,16,21,23H,9-11H2,1H3
Instrument: TripleTOF 5600 SCIEX
Instrument type: LC-ESI-QTOF
Ms type: MS2
Ion mode: POSITIVE
Collision energy: 110
Fragmentation mode: CID
Ionization: ESI
Column name: Zorbax Eclipse Plus C18 2.1 mm x 150 mm, 3.5 um, Agilent
Retention time: 9.801 min
Precursor m/z: 390.1448
Precursor type: [M+H]+
m/z	relative intensity
51.0227	83
63.0221	17
77.0388	198
89.0388	66
101.0389	22
102.0447	17
103.0533	26
105.0337	22
115.0537	358
116.0481	26
127.0539	22
128.0487	30
130.0645	61
135.0432	53
138.038	17
139.0548	35
140.0489	70
141.0564	44
142.0667	48
150.0472	61
151.0549	212
152.0601	79
153.0562	22
154.0662	22
163.0551	88
164.0626	66
165.0714	35
166.0668	39
167.0693	48
168.0671	79
169.0756	61
175.0532	83
176.0615	419
177.0628	229
178.0645	66
178.0863	22
179.0706	17
180.0826	22
187.0534	57
188.0553	48
189.0685	79
190.0659	101
191.0733	163
192.0825	22
201.0558	57
202.0674	216
203.0729	676
204.0797	999
205.0909	22
214.0652	97
215.074	57
216.0785	44
217.0856	30
232.0769	22
