Mass spectrum: Mesosulfuron-methyl; LC-ESI-QTOF; MS2; 140 V
Name: Mesosulfuron-methyl
Class: Herbicide
Formula: C17H21N5O9S2
Exact mass: 503.0781
SMILES: COC(=O)c1ccc(CN[S](C)(=O)=O)cc1[S](=O)(=O)NC(=O)Nc2nc(OC)cc(OC)n2
InChI: InChI=1S/C17H21N5O9S2/c1-29-13-8-14(30-2)20-16(19-13)21-17(24)22-33(27,28)12-7-10(9-18-32(4,25)26)5-6-11(12)15(23)31-3/h5-8,18H,9H2,1-4H3,(H2,19,20,21,22,24)
Instrument: TripleTOF 5600 SCIEX
Instrument type: LC-ESI-QTOF
Ms type: MS2
Ion mode: POSITIVE
Collision energy: 140
Fragmentation mode: CID
Ionization: ESI
Column name: Zorbax Eclipse Plus C18 2.1 mm x 150 mm, 3.5 um, Agilent
Retention time: 10.025 min
Precursor m/z: 504.0853
Precursor type: [M+H]+
m/z	relative intensity
51.0276	58
56.0187	65
57.0482	43
65.0183	109
68.0152	72
69.0007	94
69.0124	102
71.0638	36
77.0407	306
81.0493	51
82.0307	72
83.0253	999
83.0572	29
90.0353	102
92.0261	80
92.0384	29
93.0103	473
93.0344	36
104.0502	72
109.0413	43
110.0359	51
118.0295	189
118.0571	29
138.0295	36
139.0494	102
140.0459	51
