Mass spectrum: Betamethasone; LC-ESI-QTOF; MS2; 70 V
Name: Betamethasone
Class: Pharmaceutical
Formula: C22H29FO5
Exact mass: 392.1999
SMILES: C[C@H]1C[C@H]2[C@@H]3CCC4=CC(=O)C=C[C@@]4([C@]3([C@H](C[C@@]2([C@]1(C(=O)CO)O)C)O)F)C
InChI: InChI=1S/C22H29FO5/c1-12-8-16-15-5-4-13-9-14(25)6-7-19(13,2)21(15,23)17(26)10-20(16,3)22(12,28)18(27)11-24/h6-7,9,12,15-17,24,26,28H,4-5,8,10-11H2,1-3H3/t12-,15-,16-,17-,19-,20-,21-,22-/m0/s1
Instrument: TripleTOF 5600 SCIEX
Instrument type: LC-ESI-QTOF
Ms type: MS2
Ion mode: POSITIVE
Collision energy: 70
Fragmentation mode: CID
Ionization: ESI
Column name: Zorbax Eclipse Plus C18 2.1 mm x 150 mm, 3.5 um, Agilent
Retention time: 9.016 min
Precursor m/z: 393.2072
Precursor type: [M+H]+
m/z	relative intensity
43.0307	82
55.0266	22
57.0421	14
65.0447	48
67.0596	137
69.0392	26
69.077	22
77.0436	439
78.0513	14
79.0588	264
81.0743	67
83.0531	14
91.0579	999
93.0724	208
95.052	33
95.0894	100
97.0679	26
103.0565	141
104.0642	29
105.0722	495
107.0506	115
107.0871	149
108.0562	22
109.0624	26
109.1019	63
115.0563	469
116.0619	115
117.0715	260
119.0543	18
119.0865	421
121.0657	704
121.0978	26
123.0808	41
125.0648	14
127.0545	182
128.0631	730
129.0708	339
130.0781	96
131.0485	96
131.0851	167
132.0579	301
133.0645	48
133.1021	67
135.0817	156
137.0615	14
137.1003	18
139.0585	14
140.0636	18
141.0712	361
142.0796	212
143.0852	227
144.0585	178
145.0662	253
145.1024	70
146.0763	104
147.0815	525
151.0526	26
152.0632	152
153.072	201
154.0774	70
155.053	37
155.0859	175
156.0552	37
156.0927	48
157.0671	156
157.0986	29
157.1138	14
158.0738	272
159.0809	260
160.088	22
161.0948	82
163.0795	26
164.0686	48
165.0708	421
166.0797	115
167.085	152
168.0599	48
168.0941	44
169.0647	152
169.0979	18
170.0723	70
171.0815	328
172.0901	44
173.0963	85
174.0702	26
176.0614	26
177.0704	74
178.0774	477
179.086	410
180.0952	119
181.0651	324
181.1004	44
182.0734	149
183.0825	123
184.0857	33
185.0968	100
189.0703	257
190.0789	175
191.086	264
192.0943	149
193.1018	212
194.0719	134
194.1099	55
195.0826	298
195.1191	41
196.0895	145
197.0951	100
198.1055	33
199.1092	29
201.0715	37
202.0787	197
203.0864	275
204.0903	130
205.065	82
205.1	190
206.0721	44
206.1127	70
207.0804	205
207.119	44
208.0893	208
209.0959	298
210.1063	52
211.1094	48
212.1189	22
214.087	26
215.0848	272
216.0931	134
217.1009	126
218.0724	93
218.1078	41
219.083	167
219.1211	63
220.0883	115
220.1294	37
221.0968	309
221.135	26
222.1038	186
223.0821	18
223.1117	111
224.0843	14
224.1221	18
226.0812	44
227.089	70
228.0945	119
229.1024	212
230.1095	85
231.0823	119
231.1131	100
232.0874	164
233.0975	216
233.1339	33
234.1048	123
235.1106	123
236.1099	18
237.1262	74
239.0849	48
240.0917	18
241.1062	26
242.1091	33
243.1186	89
244.0883	52
244.1244	37
245.097	145
245.1301	22
246.107	119
247.1127	201
248.1177	137
249.1277	74
251.1429	18
253.1153	18
255.0831	22
256.0915	29
257.0974	41
258.1039	41
259.1124	93
260.1216	18
261.1274	119
262.125	22
262.1434	18
263.1455	74
271.1048	18
271.1222	18
273.1305	22
285.1232	18
