Mass spectrum: Ethyl 2,4-diaminopyrimidine-5-carboxylate; LC-ESI-QTOF; MS2; 110 V
Name: Ethyl 2,4-diaminopyrimidine-5-carboxylate
Class: Pharmaceutical
Formula: C7H10N4O2
Exact mass: 182.0804
SMILES: CCOC(=O)C1=CN=C(N=C1N)N
InChI: InChI=1S/C7H10N4O2/c1-2-13-6(12)4-3-10-7(9)11-5(4)8/h3H,2H2,1H3,(H4,8,9,10,11)
Instrument: TripleTOF 5600 SCIEX
Instrument type: LC-ESI-QTOF
Ms type: MS2
Ion mode: POSITIVE
Collision energy: 110
Fragmentation mode: CID
Ionization: ESI
Column name: Zorbax Eclipse Plus C18 2.1 mm x 150 mm, 3.5 um, Agilent
Retention time: 4.607 min
Precursor m/z: 183.0877
Precursor type: [M+H]+
m/z	relative intensity
38.0165	128
40.0314	558
41.0244	97
41.0374	210
42.0456	143
43.0425	578
51.0185	35
52.0285	379
53.0113	292
55.0423	35
65.0211	66
66.0276	76
67.0365	102
68.0302	999
69.0125	25
70.0367	30
