Mass spectrum: Food Yellow 3 free acid; LC-ESI-QTOF; MS2; 40 V
Name: Food Yellow 3 free acid
Formula: C16H12N2O7S2
Exact mass: 408.0086
SMILES: C1=CC(=CC=C1N=NC2=C(C=CC3=C2C=CC(=C3)S(=O)(=O)O)O)S(=O)(=O)O
InChI: InChI=1S/C16H12N2O7S2/c19-15-8-1-10-9-13(27(23,24)25)6-7-14(10)16(15)18-17-11-2-4-12(5-3-11)26(20,21)22/h1-9,19H,(H,20,21,22)(H,23,24,25)
Instrument: TripleTOF 6600 SCIEX
Instrument type: LC-ESI-QTOF
Ms type: MS2
Ion mode: POSITIVE
Collision energy: 40
Fragmentation mode: CID
Ionization: ESI
Column name: Zorbax Eclipse Plus C18 2.1 mm x 150 mm, 3.5 um, Agilent
Retention time: 5.59 min
Precursor m/z: 409.0159
Precursor type: [M+H]+
m/z	relative intensity
80.0487	38
89.0377	28
92.0487	12
108.0443	230
109.0516	18
116.0491	34
126.0334	41
127.041	44
128.0484	20
144.0439	23
154.0289	216
156.0115	22
156.0436	19
173.0144	999
182.0342	89
208.0065	721
217.9899	15
236.0014	777
238.0165	18
247.0848	10
299.0497	30
310.0431	17
311.0474	61
327.0432	46
328.0504	79
391.0038	95
392.0141	677
409.0156	63
