Mass spectrum: Metoprolol; LC-ESI-QTOF; MS2; 30 V
Name: Metoprolol
Class: Pharmaceutical
Formula: C15H25NO3
Exact mass: 267.1834
SMILES: CC(C)NCC(COC1=CC=C(C=C1)CCOC)O
InChI: InChI=1S/C15H25NO3/c1-12(2)16-10-14(17)11-19-15-6-4-13(5-7-15)8-9-18-3/h4-7,12,14,16-17H,8-11H2,1-3H3
Instrument: TripleTOF 6600 SCIEX
Instrument type: LC-ESI-QTOF
Ms type: MS2
Ion mode: POSITIVE
Collision energy: 30
Fragmentation mode: CID
Ionization: ESI
Column name: Zorbax Eclipse Plus C18 2.1 mm x 150 mm, 3.5 um, Agilent
Retention time: 6.14 min
Precursor m/z: 268.1907
Precursor type: [M+H]+
m/z	relative intensity
30.0341	46
43.0181	24
43.0538	24
44.0496	18
56.0494	278
58.0646	48
72.0806	562
74.0597	762
77.0378	30
79.0534	21
84.0795	17
91.054	67
93.0695	18
98.096	534
100.1113	23
103.054	59
105.0691	108
107.0839	9
115.0528	20
116.1065	793
117.0684	28
119.0845	21
121.0644	636
129.0687	36
131.0479	16
131.0845	145
133.0643	688
135.0794	60
141.0684	48
144.0561	54
147.0799	87
148.0751	158
159.0802	720
161.0948	29
163.0866	51
163.1101	37
165.0906	202
176.1061	191
177.0898	138
179.1057	51
191.1064	513
194.1168	78
218.1542	82
226.1433	99
250.1814	26
268.1913	999
