Mass spectrum: Haloxyfop; LC-ESI-QTOF; MS2; 60 V
Name: Haloxyfop
Class: Herbicide
Formula: C15H11ClF3NO4
Exact mass: 361.0329
SMILES: CC(C(=O)O)OC1=CC=C(C=C1)OC2=C(C=C(C=N2)C(F)(F)F)Cl
InChI: InChI=1S/C15H11ClF3NO4/c1-8(14(21)22)23-10-2-4-11(5-3-10)24-13-12(16)6-9(7-20-13)15(17,18)19/h2-8H,1H3,(H,21,22)
Instrument: TripleTOF 5600 SCIEX
Instrument type: LC-ESI-QTOF
Ms type: MS2
Ion mode: POSITIVE
Collision energy: 60
Fragmentation mode: CID
Ionization: ESI
Column name: Zorbax Eclipse Plus C18 2.1 mm x 150 mm, 3.5 um, Agilent
Retention time: 12.921 min
Precursor m/z: 362.0401
Precursor type: [M+H]+
m/z	relative intensity
65.0442	169
75.0257	44
91.0557	490
91.0782	44
119.0487	53
140.0483	53
158.0379	44
179.9814	115
180.9903	53
189.037	35
197.995	71
206.038	44
208.0393	62
209.045	214
216.0258	151
217.0383	53
219.0087	62
226.0492	124
232.018	44
237.0402	160
251.9982	44
254.0381	80
261.0148	35
272.0091	570
288.0031	999
