Mass spectrum: Climbazole; LC-ESI-QTOF; MS2; 30 V
Name: Climbazole
Class: Pharmaceutical; Personal_care_product
Formula: C15H17ClN2O2
Exact mass: 292.0979
SMILES: CC(C)(C)C(=O)C(Oc1ccc(Cl)cc1)n2ccnc2
InChI: InChI=1S/C15H17ClN2O2/c1-15(2,3)13(19)14(18-9-8-17-10-18)20-12-6-4-11(16)5-7-12/h4-10,14H,1-3H3
Instrument: TripleTOF 5600 SCIEX
Instrument type: LC-ESI-QTOF
Ms type: MS2
Ion mode: POSITIVE
Collision energy: 30
Fragmentation mode: CID
Ionization: ESI
Column name: Zorbax Eclipse Plus C18 2.1 mm x 150 mm, 3.5 um, Agilent
Retention time: 8.761 min
Precursor m/z: 293.1051
Precursor type: [M+H]+
m/z	relative intensity
57.0757	202
69.0752	936
70.0802	32
81.0475	10
82.0548	63
99.0001	21
103.0304	14
109.0392	88
110.9993	17
113.0148	23
126.9944	121
129.0104	271
137.1066	41
141.0102	383
155.0258	177
161.096	30
166.11	35
190.0991	12
197.073	999
225.0671	90
293.1041	90
