Mass spectrum: Albendazole; LC-ESI-QTOF; MS2; 100 V
Name: Albendazole
Class: Pharmaceutical
Formula: C12H15N3O2S
Exact mass: 265.0885
SMILES: CCCSc1ccc2nc(NC(=O)OC)[nH]c2c1
InChI: InChI=1S/C12H15N3O2S/c1-3-6-18-8-4-5-9-10(7-8)14-11(13-9)15-12(16)17-2/h4-5,7H,3,6H2,1-2H3,(H2,13,14,15,16)
Instrument: TripleTOF 5600 SCIEX
Instrument type: LC-ESI-QTOF
Ms type: MS2
Ion mode: POSITIVE
Collision energy: 100
Fragmentation mode: CID
Ionization: ESI
Column name: Zorbax Eclipse Plus C18 2.1 mm x 150 mm, 3.5 um, Agilent
Retention time: 8.546 min
Precursor m/z: 266.0958
Precursor type: [M+H]+
m/z	relative intensity
41.0357	19
51.0156	10
51.0288	82
52.0251	47
52.037	50
53.0315	15
53.0426	13
54.0024	10
54.0401	11
56.9845	11
57.991	51
59.9952	11
64.0344	56
65.0307	201
66.0254	38
66.038	82
67.0459	38
67.9749	10
68.9832	272
69.0121	72
69.9904	135
70.9975	14
75.0134	83
76.0219	577
76.0564	11
77.0299	999
77.0626	10
78.0364	241
79.0316	18
79.0438	137
80.0521	17
80.9819	21
81.9897	300
82.9844	141
83.9918	68
84.0047	17
89.0271	10
90.036	91
91.0309	27
91.0431	56
92.0388	677
92.981	234
93.0458	78
93.9758	22
93.9885	147
94.9822	10
94.9959	227
95.9905	30
96.0041	108
97.0124	10
103.0297	291
104.038	630
105.0447	213
106.0529	34
107.9921	22
108.9987	300
109.9928	19
110.0056	62
111.0139	15
116.0357	14
118.0397	15
118.0519	33
119.0481	192
119.991	176
120.0566	27
120.9987	79
122.0062	204
123.0131	34
130.0405	215
131.0265	21
131.0477	246
132.055	14
133.0644	29
135.0011	74
136.0099	70
137.0169	38
146.0358	11
147.0009	11
158.0355	46
159.0427	80
162.0126	25
190.007	13
