Mass spectrum: Picoxystrobin; LC-ESI-QTOF; MS2; 90 V
Name: Picoxystrobin
Class: Fungicide
Formula: C18H16F3NO4
Exact mass: 367.1031
SMILES: COC=C(C1=CC=CC=C1COC2=CC=CC(=N2)C(F)(F)F)C(=O)OC
InChI: InChI=1S/C18H16F3NO4/c1-24-11-14(17(23)25-2)13-7-4-3-6-12(13)10-26-16-9-5-8-15(22-16)18(19,20)21/h3-9,11H,10H2,1-2H3
Instrument: TripleTOF 6600 SCIEX
Instrument type: LC-ESI-QTOF
Ms type: MS2
Ion mode: POSITIVE
Collision energy: 90
Fragmentation mode: CID
Ionization: ESI
Column name: Zorbax Eclipse Plus C18 2.1 mm x 150 mm, 3.5 um, Agilent
Retention time: 13.935 min
Precursor m/z: 368.1104
Precursor type: [M+H]+
m/z	relative intensity
65.0389	33
74.0149	16
76.0309	72
77.0389	109
89.0389	46
91.0544	173
102.0468	999
103.0545	244
115.0544	375
116.0623	14
117.0698	29
128.0621	31
130.0412	51
131.0488	22
