Mass spectrum: Sitagliptin; LC-ESI-QTOF; MS2; 60 V
Name: Sitagliptin
Class: Pharmaceutical
Formula: C16H15F6N5O
Exact mass: 407.1181
SMILES: c1c(c(cc(c1F)F)F)C[C@H](CC(=O)N2CCn3c(nnc3C(F)(F)F)C2)N
InChI: InChI=1S/C16H15F6N5O/c17-10-6-12(19)11(18)4-8(10)3-9(23)5-14(28)26-1-2-27-13(7-26)24-25-15(27)16(20,21)22/h4,6,9H,1-3,5,7,23H2/t9-/m1/s1
Instrument: TripleTOF 5600 SCIEX
Instrument type: LC-ESI-QTOF
Ms type: MS2
Ion mode: POSITIVE
Collision energy: 60
Fragmentation mode: CID
Ionization: ESI
Column name: Zorbax Eclipse Plus C18 2.1 mm x 150 mm, 3.5 um, Agilent
Retention time: 6.571 min
Precursor m/z: 408.1254
Precursor type: [M+H]+
m/z	relative intensity
43.0248	10
56.0557	106
101.0199	25
107.0298	27
118.0206	40
127.0354	999
134.0398	110
137.0176	14
137.0306	21
138.0271	191
145.0255	85
150.0268	152
151.0347	165
153.0381	57
154.0464	794
157.0262	29
165.0377	27
169.0253	10
171.0417	103
174.0525	930
176.0421	21
193.0693	405
235.0804	16
