Mass spectrum: 3-Hydroxyacetaminophen; LC-ESI-QTOF; MS2; 130 V
Name: 3-Hydroxyacetaminophen
Class: Pharmaceutical; Transformation_product
Formula: C8H9NO3
Exact mass: 167.0582
SMILES: CC(=O)Nc1ccc(O)c(O)c1
InChI: InChI=1S/C8H9NO3/c1-5(10)9-6-2-3-7(11)8(12)4-6/h2-4,11-12H,1H3,(H,9,10)
Instrument: TripleTOF 5600 SCIEX
Instrument type: LC-ESI-QTOF
Ms type: MS2
Ion mode: POSITIVE
Collision energy: 130
Fragmentation mode: CID
Ionization: ESI
Column name: Zorbax Eclipse Plus C18 2.1 mm x 150 mm, 3.5 um, Agilent
Retention time: 4.471 min
Precursor m/z: 168.0655
Precursor type: [M+H]+
m/z	relative intensity
40.0277	42
41.0375	45
42.0184	12
42.0429	73
43.0275	999
43.0575	18
44.0203	78
52.0249	438
53.0083	302
53.0433	97
54.04	59
60.0043	179
61.044	52
