Mass spectrum: Metoprolol; LC-ESI-QTOF; MS2; 70 V
Name: Metoprolol
Class: Pharmaceutical
Formula: C15H25NO3
Exact mass: 267.1834
SMILES: CC(C)NCC(COC1=CC=C(C=C1)CCOC)O
InChI: InChI=1S/C15H25NO3/c1-12(2)16-10-14(17)11-19-15-6-4-13(5-7-15)8-9-18-3/h4-7,12,14,16-17H,8-11H2,1-3H3
Instrument: TripleTOF 6600 SCIEX
Instrument type: LC-ESI-QTOF
Ms type: MS2
Ion mode: POSITIVE
Collision energy: 70
Fragmentation mode: CID
Ionization: ESI
Column name: Zorbax Eclipse Plus C18 2.1 mm x 150 mm, 3.5 um, Agilent
Retention time: 6.14 min
Precursor m/z: 268.1907
Precursor type: [M+H]+
m/z	relative intensity
30.0336	60
39.0228	55
41.0384	103
43.0175	12
43.0541	56
45.033	26
50.0152	12
51.0225	83
56.0493	115
58.0647	29
65.0375	58
74.0593	30
77.0381	999
78.0459	23
79.0531	142
89.0379	14
91.0532	332
93.0691	14
95.0481	12
102.0457	46
103.0534	270
104.0611	20
105.043	37
105.0688	39
115.0532	159
116.0608	31
119.0482	16
121.0633	19
128.061	34
131.0477	11
144.0568	10
