Mass spectrum: Pyrimethanil; LC-ESI-QTOF; MS2; 150 V
Name: Pyrimethanil
Class: Fungicide
Formula: C12H13N3
Exact mass: 199.1109
SMILES: CC1=CC(=NC(=N1)NC2=CC=CC=C2)C
InChI: InChI=1S/C12H13N3/c1-9-8-10(2)14-12(13-9)15-11-6-4-3-5-7-11/h3-8H,1-2H3,(H,13,14,15)
Instrument: TripleTOF 6600 SCIEX
Instrument type: LC-ESI-QTOF
Ms type: MS2
Ion mode: POSITIVE
Collision energy: 150
Fragmentation mode: CID
Ionization: ESI
Column name: Zorbax Eclipse Plus C18 2.1 mm x 150 mm, 3.5 um, Agilent
Retention time: 9.225 min
Precursor m/z: 200.1182
Precursor type: [M+H]+
m/z	relative intensity
35.9992	45
37.0073	174
38.0025	25
38.0151	109
39.0229	106
40.0176	29
41.0259	25
42.0337	93
49.0071	290
50.0151	999
51.0098	22
51.0224	206
52.0188	25
61.007	58
62.0144	54
63.0222	22
73.0067	35
74.0142	90
86.0145	16
