Mass spectrum: Promethazine; LC-ESI-QTOF; MS2; 120 V
Name: Promethazine
Class: Pharmaceutical
Formula: C17H20N2S
Exact mass: 284.1347
SMILES: CC(CN1c2ccccc2Sc3c1cccc3)N(C)C
InChI: InChI=1S/C17H20N2S/c1-13(18(2)3)12-19-14-8-4-6-10-16(14)20-17-11-7-5-9-15(17)19/h4-11,13H,12H2,1-3H3
Instrument: TripleTOF 5600 SCIEX
Instrument type: LC-ESI-QTOF
Ms type: MS2
Ion mode: POSITIVE
Collision energy: 120
Fragmentation mode: CID
Ionization: ESI
Column name: Zorbax Eclipse Plus C18 2.1 mm x 150 mm, 3.5 um, Agilent
Retention time: 7.995 min
Precursor m/z: 285.142
Precursor type: [M+H]+
m/z	relative intensity
41.034	25
41.0431	11
42.0429	136
43.0494	38
51.0301	173
56.0571	999
57.0684	9
57.9925	13
58.0719	68
60.0069	13
62.0455	11
65.0436	86
67.9764	18
68.9844	472
69.9929	22
70.0705	114
71.0027	18
71.0781	424
73.0125	9
74.0193	148
74.0422	18
75.027	287
75.0538	22
76.0352	36
77.0432	579
78.0559	22
79.0589	11
80.9845	20
81.9914	114
84.0837	22
86.0185	41
86.0988	107
87.0261	88
88.0231	13
88.0345	36
89.0423	207
90.0495	22
92.982	100
94.9978	29
95.9981	11
98.0172	43
99.0256	50
100.0326	25
100.051	13
101.0406	196
102.0355	20
102.0481	22
102.0574	15
103.0574	13
108.0054	43
109.0123	22
111.0255	13
112.0325	20
113.0407	184
114.0412	61
115.0553	75
116.0515	22
121.0128	43
124.0312	11
125.0404	93
126.0493	335
126.0885	11
127.0564	232
128.0516	159
129.0467	18
130.0675	22
132.0053	11
137.042	50
138.0488	34
139.0561	205
140.0529	207
145.0167	22
146.0085	13
150.0506	120
151.057	157
152.0596	248
153.0596	102
154.0659	20
159.016	9
162.0494	22
163.0584	125
164.0538	107
165.0745	41
166.0683	31
169.0141	59
170.0186	13
171.0298	22
175.0576	13
176.0645	52
177.0623	72
178.0705	57
179.0759	11
188.0488	9
190.0678	72
191.0772	20
195.0276	36
196.0248	88
197.0319	29
202.0655	11
203.0779	20
204.0891	13
222.0403	20
