Mass spectrum: 4-Desmethyl-trimethoprim; LC-ESI-QTOF; MS2; 110 V
Name: 4-Desmethyl-trimethoprim
Class: Pharmaceutical
Formula: C13H16N4O3
Exact mass: 276.1222
SMILES: COC1=CC(=CC(=C1O)OC)CC2=CN=C(N=C2N)N
InChI: InChI=1S/C13H16N4O3/c1-19-9-4-7(5-10(20-2)11(9)18)3-8-6-16-13(15)17-12(8)14/h4-6,18H,3H2,1-2H3,(H4,14,15,16,17)
Instrument: TripleTOF 5600 SCIEX
Instrument type: LC-ESI-QTOF
Ms type: MS2
Ion mode: POSITIVE
Collision energy: 110
Fragmentation mode: CID
Ionization: ESI
Column name: Zorbax Eclipse Plus C18 2.1 mm x 150 mm, 3.5 um, Agilent
Retention time: 4.783 min
Precursor m/z: 277.1295
Precursor type: [M+H]+
m/z	relative intensity
41.0391	192
51.0283	333
52.0248	455
54.0401	525
65.0427	333
66.0389	87
66.0527	70
67.045	192
68.0278	122
68.041	87
74.0192	140
75.0256	473
76.021	192
76.0324	122
77.0281	87
77.0412	999
78.0372	227
78.0488	87
79.0299	87
79.0521	70
80.0508	105
81.0458	280
81.0772	70
88.0199	70
89.0406	543
90.0372	227
91.054	140
92.0511	140
93.0531	245
94.0532	140
94.0625	122
101.0379	192
102.0337	333
103.0281	122
103.0452	87
104.0472	262
105.0458	262
106.0514	122
114.0318	175
116.0504	122
117.0438	105
118.0407	87
120.0553	280
128.0519	70
129.0442	105
130.0415	87
131.0645	87
142.0496	87
144.0536	105
147.0649	157
