Mass spectrum: Acetonyltriphenylphosphonium; LC-ESI-QTOF; MS2; 120 V
Name: Acetonyltriphenylphosphonium
Formula: [C21H20OP]+
Exact mass: 319.1246
SMILES: CC(=O)C[P+](C1=CC=CC=C1)(C2=CC=CC=C2)C3=CC=CC=C3
InChI: InChI=1S/C21H20OP/c1-18(22)17-23(19-11-5-2-6-12-19,20-13-7-3-8-14-20)21-15-9-4-10-16-21/h2-16H,17H2,1H3/q+1
Instrument: TripleTOF 5600 SCIEX
Instrument type: LC-ESI-QTOF
Ms type: MS2
Ion mode: POSITIVE
Collision energy: 120
Fragmentation mode: CID
Ionization: ESI
Column name: Zorbax Eclipse Plus C18 2.1 mm x 150 mm, 3.5 um, Agilent
Retention time: 7.28 min
Precursor m/z: 319.1246
Precursor type: [M]+
m/z	relative intensity
51.0231	57
77.0378	68
80.9874	90
89.0366	131
102.0444	54
107.003	439
113.0375	53
115.053	322
126.0455	149
131.0036	59
133.0194	86
139.0534	293
150.0456	93
151.0536	348
152.0615	999
156.0118	57
157.0197	534
181.0197	375
183.0355	288
213.0697	51
226.0773	257
255.0356	96
257.0515	184
