Mass spectrum: Chlorfenvinfos; LC-ESI-QTOF; MS2; 90 V
Name: Chlorfenvinfos
Class: Insecticide
Formula: C12H14Cl3O4P
Exact mass: 357.9695
SMILES: CCOP(=O)(OCC)OC(=CCl)C1=C(C=C(C=C1)Cl)Cl
InChI: InChI=1S/C12H14Cl3O4P/c1-3-17-20(16,18-4-2)19-12(8-13)10-6-5-9(14)7-11(10)15/h5-8H,3-4H2,1-2H3
Instrument: TripleTOF 6600 SCIEX
Instrument type: LC-ESI-QTOF
Ms type: MS2
Ion mode: POSITIVE
Collision energy: 90
Fragmentation mode: CID
Ionization: ESI
Column name: Zorbax Eclipse Plus C18 2.1 mm x 150 mm, 3.5 um, Agilent
Retention time: 13.629 min
Precursor m/z: 358.9768
Precursor type: [M+H]+
m/z	relative intensity
62.9606	91
74.0128	61
75.0207	30
80.9714	711
83.9739	13
84.9816	12
97.005	25
98.0128	657
98.9827	372
99.0203	628
107.9733	87
108.9809	91
132.9812	207
133.9895	229
134.9976	305
163.0027	137
168.9568	17
169.9661	999
