Mass spectrum: Flutriafol; LC-ESI-QTOF; MS2; 70 V
Name: Flutriafol
Class: Fungicide
Formula: C16H13F2N3O
Exact mass: 301.1027
SMILES: C1=CC=C(C(=C1)C(CN2C=NC=N2)(C3=CC=C(C=C3)F)O)F
InChI: InChI=1S/C16H13F2N3O/c17-13-7-5-12(6-8-13)16(22,9-21-11-19-10-20-21)14-3-1-2-4-15(14)18/h1-8,10-11,22H,9H2
Instrument: TripleTOF 6600 SCIEX
Instrument type: LC-ESI-QTOF
Ms type: MS2
Ion mode: POSITIVE
Collision energy: 70
Fragmentation mode: CID
Ionization: ESI
Column name: Zorbax Eclipse Plus C18 2.1 mm x 150 mm, 3.5 um, Agilent
Retention time: 10.047 min
Precursor m/z: 302.11
Precursor type: [M+H]+
m/z	relative intensity
43.0294	104
70.04	999
73.0067	10
74.0147	112
75.0229	338
83.029	152
89.0377	13
95.0291	774
109.0447	273
123.0307	391
149.0378	20
165.0688	22
168.0367	15
169.045	25
174.0462	20
175.0543	24
183.0602	28
194.0524	74
214.059	38
