Mass spectrum: Acetaminophen; LC-ESI-QTOF; MS2; 60 V
Name: Acetaminophen
Class: Pharmaceutical
Formula: C8H9NO2
Exact mass: 151.0633
SMILES: CC(=O)NC1=CC=C(C=C1)O
InChI: InChI=1S/C8H9NO2/c1-6(10)9-7-2-4-8(11)5-3-7/h2-5,11H,1H3,(H,9,10)
Instrument: TripleTOF 5600 SCIEX
Instrument type: LC-ESI-QTOF
Ms type: MS2
Ion mode: POSITIVE
Collision energy: 60
Fragmentation mode: CID
Ionization: ESI
Column name: Zorbax Eclipse Plus C18 2.1 mm x 150 mm, 3.5 um, Agilent
Retention time: 5.022 min
Precursor m/z: 152.0706
Precursor type: [M+H]+
m/z	relative intensity
43.0283	784
43.0526	37
53.0433	37
65.0432	999
66.0507	88
67.0461	118
80.0519	236
81.0608	29
92.0506	51
93.0343	37
93.0577	118
109.0532	74
