Mass spectrum: Venlafaxine; LC-ESI-QTOF; MS2; 60 V
Name: Venlafaxine
Class: Pharmaceutical
Formula: C17H27NO2
Exact mass: 277.2042
SMILES: CN(C)CC(c1ccc(cc1)OC)C2(CCCCC2)O
InChI: InChI=1S/C17H27NO2/c1-18(2)13-16(17(19)11-5-4-6-12-17)14-7-9-15(20-3)10-8-14/h7-10,16,19H,4-6,11-13H2,1-3H3
Instrument: TripleTOF 5600 SCIEX
Instrument type: LC-ESI-QTOF
Ms type: MS2
Ion mode: POSITIVE
Collision energy: 60
Fragmentation mode: CID
Ionization: ESI
Column name: Zorbax Eclipse Plus C18 2.1 mm x 150 mm, 3.5 um, Agilent
Retention time: 6.626 min
Precursor m/z: 278.2115
Precursor type: [M+H]+
m/z	relative intensity
42.0418	16
56.0573	14
58.0713	999
65.0419	46
67.059	10
77.0415	170
78.0485	88
79.0568	70
81.0731	40
91.0557	385
93.0738	16
103.0551	17
104.0622	19
105.0709	24
106.0412	20
107.0489	34
115.0538	126
116.0614	25
117.0705	28
119.085	13
121.065	651
127.0545	17
128.0615	40
129.0683	24
131.0495	47
132.0566	43
141.0689	24
144.0568	28
145.0643	16
147.0793	40
148.0748	13
158.072	42
159.08	20
162.0914	27
173.095	12
