Mass spectrum: Baclofen; LC-ESI-QTOF; MS2; 40 V
Name: Baclofen
Class: Pharmaceutical
Formula: C10H12ClNO2
Exact mass: 213.0557
SMILES: NCC(CC(O)=O)c1ccc(Cl)cc1
InChI: InChI=1S/C10H12ClNO2/c11-9-3-1-7(2-4-9)8(6-12)5-10(13)14/h1-4,8H,5-6,12H2,(H,13,14)
Instrument: TripleTOF 5600 SCIEX
Instrument type: LC-ESI-QTOF
Ms type: MS2
Ion mode: NEGATIVE
Collision energy: 40
Fragmentation mode: CID
Ionization: ESI
Column name: Zorbax Eclipse Plus C18 2.1 mm x 150 mm, 3.5 um, Agilent
Retention time: 5.336 min
Precursor m/z: 212.0484
Precursor type: [M-H]-
m/z	relative intensity
34.9734	999
64.972	635
77.0396	272
92.0496	227
93.0363	181
103.0544	908
111.0017	181
139.0284	90
141.0037	726
156.0161	90
176.9478	90
