Mass spectrum: 4-Toluenesulfonic acid; LC-ESI-QTOF; MS2; 40 V
Name: 4-Toluenesulfonic acid
Class: Industrial_process
Formula: C7H8O3S
Exact mass: 172.0194
InChI: InChI=1S/C7H8O3S/c1-6-2-4-7(5-3-6)11(8,9)10/h2-5H,1H3,(H,8,9,10)
Instrument: TripleTOF 5600 SCIEX
Instrument type: LC-ESI-QTOF
Ms type: CID
Ion mode: NEGATIVE
Collision energy: 40
Ionization: ESI
Column name: Zorbax Eclipse Plus C18 2.1 mm x 150 mm, 3.5 um, Agilent
Retention time: 5.399 min
Precursor m/z: 171.0121
Precursor type: [M-H]-
m/z	relative intensity
79.9567	999
107.0506	276
171.0128	444
