Mass spectrum: Prometon; LC-ESI-QTOF; MS2; 100 V
Name: Prometon
Class: Herbicide
Formula: C10H19N5O
Exact mass: 225.159
SMILES: COc1nc(NC(C)C)nc(NC(C)C)n1
InChI: InChI=1S/C10H19N5O/c1-6(2)11-8-13-9(12-7(3)4)15-10(14-8)16-5/h6-7H,1-5H3,(H2,11,12,13,14,15)
Instrument: TripleTOF 5600 SCIEX
Instrument type: LC-ESI-QTOF
Ms type: MS2
Ion mode: POSITIVE
Collision energy: 100
Fragmentation mode: CID
Ionization: ESI
Column name: Zorbax Eclipse Plus C18 2.1 mm x 150 mm, 3.5 um, Agilent
Retention time: 7.392 min
Precursor m/z: 226.1662
Precursor type: [M+H]+
m/z	relative intensity
41.0219	63
43.0388	538
44.0206	33
44.0293	9
55.0365	12
57.0509	252
58.034	113
58.0705	9
68.0292	999
68.0647	12
69.0126	698
69.0461	50
83.0252	12
100.0517	19
