Mass spectrum: Promethazine; LC-ESI-QTOF; MS2; 90 V
Name: Promethazine
Class: Pharmaceutical
Formula: C17H20N2S
Exact mass: 284.1347
SMILES: CC(CN1c2ccccc2Sc3c1cccc3)N(C)C
InChI: InChI=1S/C17H20N2S/c1-13(18(2)3)12-19-14-8-4-6-10-16(14)20-17-11-7-5-9-15(17)19/h4-11,13H,12H2,1-3H3
Instrument: TripleTOF 5600 SCIEX
Instrument type: LC-ESI-QTOF
Ms type: MS2
Ion mode: POSITIVE
Collision energy: 90
Fragmentation mode: CID
Ionization: ESI
Column name: Zorbax Eclipse Plus C18 2.1 mm x 150 mm, 3.5 um, Agilent
Retention time: 7.995 min
Precursor m/z: 285.142
Precursor type: [M+H]+
m/z	relative intensity
42.0442	86
43.0522	65
44.0589	48
51.0299	42
54.0408	10
56.0574	941
58.071	62
65.0433	69
68.9848	153
69.9912	12
70.0699	161
70.9993	15
71.0785	999
74.0196	16
75.0268	68
77.043	384
77.068	12
78.0507	15
79.059	19
81.991	63
84.0834	92
86.1	664
87.0266	10
89.0418	76
90.0488	18
91.0572	28
92.9842	18
94.9972	21
96.0055	16
101.0412	194
102.0356	15
102.0472	16
103.0562	66
104.0527	15
108.0048	80
109.0122	48
113.0407	72
114.0483	13
115.0565	92
116.0519	27
117.0589	16
120.0057	10
121.0119	66
122.0076	12
125.041	45
126.0492	223
126.087	10
127.0565	714
128.0521	533
129.0489	33
130.0668	86
132.0052	10
134.0218	27
137.0409	24
138.0483	25
139.056	206
140.0517	304
145.0124	41
146.0092	27
148.0233	12
150.0466	12
151.0562	71
152.0593	194
153.0602	282
154.0675	410
155.0626	10
159.0156	36
163.0585	39
164.0523	133
165.0711	130
166.0677	215
167.0751	71
169.0115	41
170.02	72
171.0295	183
172.0235	50
176.0646	21
177.0627	34
178.073	95
179.0737	44
180.0828	19
190.067	51
191.0763	57
192.0836	28
193.0908	19
195.0304	33
196.0241	232
197.0326	325
198.0402	91
203.0759	10
204.0836	76
222.0412	123
223.0483	205
224.0611	10
