Mass spectrum: Verapamil; LC-ESI-QTOF; MS2; 40 V
Name: Verapamil
Class: Pharmaceutical
Formula: C27H38N2O4
Exact mass: 454.2832
SMILES: CC(C)C(CCCN(C)CCc1ccc(c(c1)OC)OC)(C#N)c2ccc(c(c2)OC)OC
InChI: InChI=1S/C27H38N2O4/c1-20(2)27(19-28,22-10-12-24(31-5)26(18-22)33-7)14-8-15-29(3)16-13-21-9-11-23(30-4)25(17-21)32-6/h9-12,17-18,20H,8,13-16H2,1-7H3
Instrument: TripleTOF 5600 SCIEX
Instrument type: LC-ESI-QTOF
Ms type: MS2
Ion mode: POSITIVE
Collision energy: 40
Fragmentation mode: CID
Ionization: ESI
Column name: Zorbax Eclipse Plus C18 2.1 mm x 150 mm, 3.5 um, Agilent
Retention time: 8.542 min
Precursor m/z: 455.2904
Precursor type: [M+H]+
m/z	relative intensity
58.0707	11
77.0419	10
79.0575	17
91.0558	11
103.0551	22
105.0714	55
107.0504	12
118.0418	12
120.0574	13
121.0653	18
122.0967	14
133.0656	59
134.0733	40
135.0444	31
135.0804	26
150.0684	247
151.0757	43
165.0919	999
177.0913	40
218.1183	22
243.1384	13
245.1416	10
260.1653	138
261.1599	52
303.207	336
455.2897	306
