Mass spectrum: N,N-dimethylbenzylamine; LC-ESI-QTOF; MS2; 70 V
Name: N,N-dimethylbenzylamine
Class: Industrial_process
Formula: C9H13N
Exact mass: 135.1048
InChI: InChI=1S/C9H13N/c1-10(2)8-9-6-4-3-5-7-9/h3-7H,8H2,1-2H3
Instrument: TripleTOF 5600 SCIEX
Instrument type: LC-ESI-QTOF
Ms type: CID
Ion mode: POSITIVE
Collision energy: 70
Ionization: ESI
Column name: Zorbax Eclipse Plus C18 2.1 mm x 150 mm, 3.5 um, Agilent
Retention time: 4.419 min
Precursor m/z: 136.1121
Precursor type: [M+H]+
m/z	relative intensity
35.9999	38
37.0074	153
38.0148	108
39.0233	633
41.0387	57
44.0498	32
51.0234	192
65.0387	999
89.0411	32
91.0543	236
