Mass spectrum: Oxytetracycline; LC-ESI-QTOF; MS2; 100 V
Name: Oxytetracycline
Class: Pharmaceutical
Formula: C22H24N2O9
Exact mass: 460.1482
SMILES: CC1(C2C(C3C(C(=O)C(=C(C3(C(=O)C2=C(C4=C1C=CC=C4O)O)O)O)C(=O)N)N(C)C)O)O
InChI: InChI=1S/C22H24N2O9/c1-21(32)7-5-4-6-8(25)9(7)15(26)10-12(21)17(28)13-14(24(2)3)16(27)11(20(23)31)19(30)22(13,33)18(10)29/h4-6,12-14,17,25-26,28,30,32-33H,1-3H3,(H2,23,31)/t12-,13-,14+,17+,21-,22+/m1/s1
Instrument: TripleTOF 5600 SCIEX
Instrument type: LC-ESI-QTOF
Ms type: MS2
Ion mode: NEGATIVE
Collision energy: 100
Fragmentation mode: CID
Ionization: ESI
Column name: Zorbax Eclipse Plus C18 2.1 mm x 150 mm, 3.5 um, Agilent
Retention time: 5.586 min
Precursor m/z: 459.1409
Precursor type: [M-H]-
m/z	relative intensity
41.0065	279
42.0035	159
44.9989	39
65.9993	119
67.0182	159
68.9967	159
79.0204	159
83.0129	39
84.0075	119
91.0182	159
92.0272	639
93.0332	359
95.0143	199
96.0081	119
96.9927	159
107.0481	119
108.024	199
109.0305	159
115.0569	79
117.0329	399
120.0143	39
121.0307	79
122.0272	79
123.0079	79
124.0143	119
125.0219	39
130.0384	119
134.0281	159
135.0449	759
135.0637	119
139.0154	239
141.0362	79
143.0504	359
144.0578	319
145.0304	279
145.0686	79
149.0357	119
151.0292	39
151.0594	79
155.0499	119
157.0671	79
158.0382	439
159.0462	319
161.0248	279
163.0445	159
167.0518	79
169.0694	119
171.045	999
172.0542	719
173.0224	199
173.0624	679
174.0311	159
174.0374	79
179.0523	199
180.0507	79
180.0626	119
181.0639	159
182.0345	119
183.0488	199
183.0877	79
185.025	79
187.041	359
195.0479	439
196.0567	359
197.0579	239
198.0356	79
199.0366	39
199.0838	119
201.06	159
203.0364	79
207.0451	79
208.0612	239
209.0595	199
210.0251	119
210.0623	79
211.0387	359
218.0657	39
219.0499	79
223.0335	119
224.0465	359
225.0528	519
226.0334	159
227.0305	239
233.0705	79
235.0383	199
235.0659	79
237.0553	199
239.034	79
249.0566	39
252.0432	79
253.0543	479
255.0335	239
261.049	239
287.0751	79
