Mass spectrum: Metrafenone; LC-ESI-QTOF; MS2; 70 V
Name: Metrafenone
Class: Fungicide
Formula: C19H21BrO5
Exact mass: 408.0572
SMILES: CC1=CC(=C(C(=C1C(=O)C2=C(C=CC(=C2C)Br)OC)OC)OC)OC
InChI: InChI=1S/C19H21BrO5/c1-10-9-14(23-4)18(24-5)19(25-6)15(10)17(21)16-11(2)12(20)7-8-13(16)22-3/h7-9H,1-6H3
Instrument: TripleTOF 6600 SCIEX
Instrument type: LC-ESI-QTOF
Ms type: MS2
Ion mode: POSITIVE
Collision energy: 70
Fragmentation mode: CID
Ionization: ESI
Column name: Zorbax Eclipse Plus C18 2.1 mm x 150 mm, 3.5 um, Agilent
Retention time: 15.123 min
Precursor m/z: 409.0645
Precursor type: [M+H]+
m/z	relative intensity
51.0269	17
63.027	24
65.0425	50
66.0505	14
67.0579	39
77.0425	547
78.0495	61
79.0574	87
80.0293	9
80.0651	29
81.0729	26
89.0422	410
90.0502	923
91.0578	819
92.0652	196
93.0368	11
94.0442	39
95.0523	98
102.0495	11
105.0374	606
106.0446	99
107.0524	127
108.0242	31
108.0608	102
109.0688	98
118.0436	55
119.0524	151
120.0602	279
121.0315	66
121.0673	40
122.0382	48
123.047	250
133.0305	53
134.0387	103
135.0466	270
136.0546	233
137.0623	116
138.0698	11
142.9523	18
146.0389	17
147.0473	79
148.0549	297
149.0272	19
149.0628	24
150.034	88
151.0417	400
154.9503	73
155.9608	112
163.041	96
164.0483	35
165.0573	769
166.065	410
168.9669	981
170.9828	23
176.0482	47
177.0198	23
179.0362	82
182.9465	624
183.9531	999
191.0358	64
193.0513	101
194.0614	59
196.9723	81
209.0817	59
211.9478	360
226.9714	435
