Mass spectrum: N-desmethyl-diphenhydramine; LC-ESI-QTOF; MS2; 110 V
Name: N-desmethyl-diphenhydramine
Class: Pharmaceutical; Metabolite; Transformation_product-Metabolite
Formula: C16H19NO
Exact mass: 241.1467
SMILES: CNCCOC(c1ccccc1)c2ccccc2
InChI: InChI=1S/C16H19NO/c1-17-12-13-18-16(14-8-4-2-5-9-14)15-10-6-3-7-11-15/h2-11,16-17H,12-13H2,1H3
Instrument: TripleTOF 5600 SCIEX
Instrument type: LC-ESI-QTOF
Ms type: MS2
Ion mode: POSITIVE
Collision energy: 110
Fragmentation mode: CID
Ionization: ESI
Column name: Zorbax Eclipse Plus C18 2.1 mm x 150 mm, 3.5 um, Agilent
Retention time: 7.557 min
Precursor m/z: 242.1539
Precursor type: [M+H]+
m/z	relative intensity
51.0287	54
60.0048	11
65.0437	141
73.0098	10
74.0175	146
75.0259	84
76.0336	163
77.0419	151
78.0501	108
85.0103	20
86.0173	80
87.0251	114
88.032	14
89.0404	384
91.056	50
98.0155	97
99.0233	46
100.0324	32
101.0383	17
102.0467	230
110.0162	25
111.024	22
113.0386	90
114.0452	14
115.0539	614
125.0383	48
126.0468	249
127.0525	80
128.0615	81
137.0389	51
138.0453	48
139.0538	382
149.0394	22
150.0467	356
151.0545	274
152.0618	111
161.0386	34
162.047	124
163.0541	999
164.0617	467
165.0694	440
