Mass spectrum: Sotalol; LC-ESI-QTOF; MS2; 30 V
Name: Sotalol
Class: Pharmaceutical
Formula: C12H20N2O3S
Exact mass: 272.1195
SMILES: CC(C)NCC(C1=CC=C(C=C1)NS(=O)(=O)C)O
InChI: InChI=1S/C12H20N2O3S/c1-9(2)13-8-12(15)10-4-6-11(7-5-10)14-18(3,16)17/h4-7,9,12-15H,8H2,1-3H3
Instrument: TripleTOF 5600 SCIEX
Instrument type: LC-ESI-QTOF
Ms type: MS2
Ion mode: POSITIVE
Collision energy: 30
Fragmentation mode: CID
Ionization: ESI
Column name: Zorbax Eclipse Plus C18 2.1 mm x 150 mm, 3.5 um, Agilent
Retention time: 4.583 min
Precursor m/z: 273.1267
Precursor type: [M+H]+
m/z	relative intensity
106.0671	104
107.0746	48
116.0507	28
117.0584	30
118.0679	25
119.0616	18
132.0697	22
133.0774	773
134.0851	365
176.132	313
213.0704	999
255.1172	368
