Mass spectrum: Clopidogrel; LC-ESI-QTOF; MS2; 20 V
Name: Clopidogrel
Class: Pharmaceutical
Formula: C16H16ClNO2S
Exact mass: 321.059
SMILES: COC(=O)C(c1ccccc1Cl)N2CCc3c(ccs3)C2
InChI: InChI=1S/C16H16ClNO2S/c1-20-16(19)15(12-4-2-3-5-13(12)17)18-8-6-14-11(10-18)7-9-21-14/h2-5,7,9,15H,6,8,10H2,1H3
Instrument: TripleTOF 5600 SCIEX
Instrument type: LC-ESI-QTOF
Ms type: MS2
Ion mode: POSITIVE
Collision energy: 20
Fragmentation mode: CID
Ionization: ESI
Column name: Zorbax Eclipse Plus C18 2.1 mm x 150 mm, 3.5 um, Agilent
Retention time: 12.465 min
Precursor m/z: 322.0663
Precursor type: [M+H]+
m/z	relative intensity
152.0261	30
155.026	23
183.0211	43
184.0532	291
212.0476	869
322.0663	999
