Mass spectrum: 2-Propinyl-triphenylphosphonium; LC-ESI-QTOF; MS2; 110 V
Name: 2-Propinyl-triphenylphosphonium
Formula: [C21H18P]+
Exact mass: 301.1141
SMILES: C#CC[P+](C1=CC=CC=C1)(C2=CC=CC=C2)C3=CC=CC=C3
InChI: InChI=1S/C21H18P/c1-2-18-22(19-12-6-3-7-13-19,20-14-8-4-9-15-20)21-16-10-5-11-17-21/h1,3-17H,18H2/q+1
Instrument: TripleTOF 6600 SCIEX
Instrument type: LC-ESI-QTOF
Ms type: MS2
Ion mode: POSITIVE
Collision energy: 110
Fragmentation mode: CID
Ionization: ESI
Column name: Zorbax Eclipse Plus C18 2.1 mm x 150 mm, 3.5 um, Agilent
Retention time: 7.928 min
Precursor m/z: 301.1141
Precursor type: [M]+
m/z	relative intensity
39.0218	49
50.0136	146
51.0214	366
56.9866	98
63.0207	177
65.0362	127
67.9786	96
68.9863	108
74.0125	50
76.0284	76
77.0359	698
79.9782	125
80.9854	206
89.0347	290
102.0431	152
107.0012	999
113.0346	78
115.0509	694
126.0427	152
131.0006	74
133.0168	58
139.0514	383
144.0091	239
150.0434	189
151.0513	370
152.0596	778
157.017	336
163.0516	447
164.0596	202
165.0671	229
176.0596	249
181.0175	259
183.033	96
187.0521	84
188.0592	60
189.0676	348
205.0181	144
207.0332	145
