Mass spectrum: Fipronil; LC-ESI-QTOF; MS2; 80 V
Name: Fipronil
Class: Insecticide
Formula: C12H4Cl2F6N4OS
Exact mass: 435.9387
SMILES: C1=C(C=C(C(=C1Cl)N2C(=C(C(=N2)C#N)S(=O)C(F)(F)F)N)Cl)C(F)(F)F
InChI: InChI=1S/C12H4Cl2F6N4OS/c13-5-1-4(11(15,16)17)2-6(14)8(5)24-10(22)9(7(3-21)23-24)26(25)12(18,19)20/h1-2H,22H2
Instrument: TripleTOF 6600 SCIEX
Instrument type: LC-ESI-QTOF
Ms type: MS2
Ion mode: NEGATIVE
Collision energy: 80
Fragmentation mode: CID
Ionization: ESI
Column name: Zorbax Eclipse Plus C18 2.1 mm x 150 mm, 3.5 um, Agilent
Retention time: 13.577 min
Precursor m/z: 434.9314
Precursor type: [M-H]-
m/z	relative intensity
34.9698	224
50.0034	44
57.9753	88
76.0068	22
77.0145	30
86.0026	26
88.0009	39
98.0038	70
112.0017	140
113.0147	396
135.9996	44
143.0055	999
148.0069	52
148.9901	17
154.9977	22
162.0028	26
163.0119	915
166.9975	22
180.9997	30
182.0102	83
183.0178	585
188.0062	74
198.0035	30
199.0113	39
203.9763	79
205.0017	17
207.0085	22
208.0123	66
212.0075	74
213.9766	17
218.0088	44
223.9825	35
227.9771	88
232.0126	48
233.9816	44
243.9893	61
247.983	30
249.9574	66
267.9882	184
271.983	35
