Mass spectrum: Metachrome Yellow free acid; LC-ESI-QTOF; MS2; 60 V
Name: Metachrome Yellow free acid
Formula: C13H9N3O5
Exact mass: 287.0542
SMILES: C1=CC(=CC(=C1)[N+](=O)[O-])N=NC2=CC(=C(C=C2)O)C(=O)O
InChI: InChI=1S/C13H9N3O5/c17-12-5-4-9(7-11(12)13(18)19)15-14-8-2-1-3-10(6-8)16(20)21/h1-7,17H,(H,18,19)
Instrument: TripleTOF 6600 SCIEX
Instrument type: LC-ESI-QTOF
Ms type: MS2
Ion mode: POSITIVE
Collision energy: 60
Fragmentation mode: CID
Ionization: ESI
Column name: Zorbax Eclipse Plus C18 2.1 mm x 150 mm, 3.5 um, Agilent
Retention time: 11.919 min
Precursor m/z: 288.0615
Precursor type: [M+H]+
m/z	relative intensity
39.022	62
50.0139	29
51.0214	40
52.0174	16
53.0021	24
61.0062	40
62.0145	72
63.0219	696
64.0297	747
73.0062	16
74.0139	83
75.0219	999
76.0296	172
77.0261	18
77.0378	48
78.0324	126
80.0118	140
82.027	27
88.0286	21
89.0371	45
90.0323	18
90.0455	37
91.0166	315
91.0415	27
92.0248	367
101.038	16
102.0446	13
103.0407	10
105.017	13
106.0268	145
113.0373	70
114.032	37
114.0448	197
115.0411	56
115.0524	16
116.0492	21
117.0556	59
118.0512	10
119.0132	75
122.0241	24
125.0385	13
127.0522	13
128.0492	81
129.0421	16
134.023	86
138.0449	16
139.0515	396
140.0479	596
141.0556	186
142.0507	189
142.0712	13
150.0288	18
152.0459	10
154.0517	18
155.0562	89
166.0495	140
167.0579	413
168.046	10
168.0662	210
169.0485	27
179.0602	43
195.0556	97
223.0453	10
