Mass spectrum: Tributylphosphine oxide; LC-ESI-QTOF; MS2; 60 V
Name: Tributylphosphine oxide
Class: Industrial_process
Formula: C12H27OP
Exact mass: 218.18
SMILES: CCCC[P](=O)(CCCC)CCCC
InChI: InChI=1S/C12H27OP/c1-4-7-10-14(13,11-8-5-2)12-9-6-3/h4-12H2,1-3H3
Instrument: TripleTOF 5600 SCIEX
Instrument type: LC-ESI-QTOF
Ms type: MS2
Ion mode: POSITIVE
Collision energy: 60
Fragmentation mode: CID
Ionization: ESI
Column name: Zorbax Eclipse Plus C18 2.1 mm x 150 mm, 3.5 um, Agilent
Retention time: 11.114 min
Precursor m/z: 219.1872
Precursor type: [M+H]+
m/z	relative intensity
44.9962	35
55.0597	19
56.9936	28
57.0744	15
59.0091	33
61.0247	31
63.0052	999
77.0188	563
78.0262	594
79.0559	12
91.0328	27
91.0551	36
92.0403	258
103.0558	11
105.047	53
105.0699	15
107.0624	11
115.0539	20
119.0617	16
128.0619	14
129.0708	11
133.0772	51
147.0931	29
