Mass spectrum: Chlorotoluron; LC-ESI-QTOF; MS2; 50 V
Name: Chlorotoluron
Class: Herbicide
Formula: C10H13ClN2O
Exact mass: 212.0716
SMILES: CC1=C(C=C(C=C1)NC(=O)N(C)C)Cl
InChI: InChI=1S/C10H13ClN2O/c1-7-4-5-8(6-9(7)11)12-10(14)13(2)3/h4-6H,1-3H3,(H,12,14)
Instrument: TripleTOF 6600 SCIEX
Instrument type: LC-ESI-QTOF
Ms type: MS2
Ion mode: POSITIVE
Collision energy: 50
Fragmentation mode: CID
Ionization: ESI
Column name: Zorbax Eclipse Plus C18 2.1 mm x 150 mm, 3.5 um, Agilent
Retention time: 9.778 min
Precursor m/z: 213.0789
Precursor type: [M+H]+
m/z	relative intensity
30.0339	10
44.0501	19
46.0655	131
51.0229	13
56.0134	68
72.0448	999
77.0389	91
89.0386	38
90.0465	14
98.9994	22
104.0491	48
113.015	32
125.0153	31
140.0256	35
