Mass spectrum: Oxycodone; LC-ESI-QTOF; MS2; 60 V
Name: Oxycodone
Class: Pharmaceutical
Formula: C18H21NO4
Exact mass: 315.1471
SMILES: CN1CCC23C4C(=O)CCC2(C1CC5=C3C(=C(C=C5)OC)O4)O
InChI: InChI=1S/C18H21NO4/c1-19-8-7-17-14-10-3-4-12(22-2)15(14)23-16(17)11(20)5-6-18(17,21)13(19)9-10/h3-4,13,16,21H,5-9H2,1-2H3
Instrument: TripleTOF 6600 SCIEX
Instrument type: LC-ESI-QTOF
Ms type: MS2
Ion mode: POSITIVE
Collision energy: 60
Fragmentation mode: CID
Ionization: ESI
Column name: Zorbax Eclipse Plus C18 2.1 mm x 150 mm, 3.5 um, Agilent
Retention time: 5.206 min
Precursor m/z: 316.1543
Precursor type: [M+H]+
m/z	relative intensity
42.0331	32
44.0487	14
70.0636	13
77.0371	21
79.0527	10
82.0632	11
89.0376	14
91.0531	42
94.0639	55
102.0444	17
103.0521	51
104.0612	16
105.0686	16
108.0793	13
115.0527	141
116.0596	23
117.0566	15
117.0669	9
118.0401	13
127.0527	42
128.0603	120
129.0675	59
131.0478	123
131.0826	15
132.0565	97
132.0784	67
133.0627	19
139.0517	18
140.0605	12
141.0675	130
142.0744	18
143.0481	13
143.0738	15
144.0553	71
144.077	14
145.0626	29
146.0349	20
151.0515	20
152.0604	154
153.0677	229
154.0688	67
155.0494	45
155.0753	64
156.0553	26
156.0813	15
157.0648	30
158.0711	30
159.043	43
159.0778	64
160.0509	98
160.0738	30
161.0587	20
165.0683	124
166.0704	53
167.0779	87
168.0551	33
168.0787	138
169.0654	62
169.0861	180
170.0717	35
170.0948	106
171.0426	16
171.0794	50
172.0484	37
172.082	40
173.082	14
174.0889	22
175.0739	208
177.0676	21
178.0749	52
179.0831	39
180.0528	11
180.0798	60
181.0646	106
181.0868	414
182.0708	68
182.0952	73
183.0437	50
183.0695	95
184.0509	98
184.0758	45
184.1102	85
185.0574	44
185.0928	9
186.0646	13
187.0735	36
189.0694	10
191.0808	13
193.0624	11
193.0855	12
194.0941	98
195.0778	67
195.1014	22
196.0491	13
196.0775	83
196.1111	34
197.0818	292
198.0892	294
199.0734	150
200.0755	20
202.0836	22
204.0792	12
205.0759	22
206.066	12
206.094	11
207.0782	25
208.0736	41
208.1103	18
209.0581	18
209.082	47
210.0655	39
210.0892	128
211.0661	120
211.0953	40
212.0688	28
212.0818	39
212.1058	999
213.0836	64
213.1141	120
214.0848	22
215.099	19
218.0976	11
220.1106	25
221.0824	34
222.0895	59
223.0758	18
223.0955	26
224.0755	50
224.1043	83
225.08	144
226.0846	518
226.1186	15
227.094	53
228.1007	25
234.0905	17
236.0735	10
236.1032	24
238.085	53
238.1222	22
239.0933	67
240.0689	12
240.1008	301
241.109	243
242.1156	25
248.1056	18
250.0859	19
251.0938	10
252.1004	12
254.081	26
254.1149	66
255.0868	10
256.1349	28
264.1019	42
265.1111	12
266.1176	36
268.0958	33
282.1112	27
