Mass spectrum: Metrafenone; LC-ESI-QTOF; MS2; 150 V
Name: Metrafenone
Class: Fungicide
Formula: C19H21BrO5
Exact mass: 408.0572
SMILES: CC1=CC(=C(C(=C1C(=O)C2=C(C=CC(=C2C)Br)OC)OC)OC)OC
InChI: InChI=1S/C19H21BrO5/c1-10-9-14(23-4)18(24-5)19(25-6)15(10)17(21)16-11(2)12(20)7-8-13(16)22-3/h7-9H,1-6H3
Instrument: TripleTOF 6600 SCIEX
Instrument type: LC-ESI-QTOF
Ms type: MS2
Ion mode: POSITIVE
Collision energy: 150
Fragmentation mode: CID
Ionization: ESI
Column name: Zorbax Eclipse Plus C18 2.1 mm x 150 mm, 3.5 um, Agilent
Retention time: 15.123 min
Precursor m/z: 409.0645
Precursor type: [M+H]+
m/z	relative intensity
37.0113	72
38.0193	66
39.0269	291
40.035	16
41.0423	34
49.0107	45
50.0191	404
51.0271	999
52.0346	174
53.0061	24
53.0423	29
55.0222	21
60.0031	29
61.0108	96
62.0186	152
63.0267	404
64.0338	64
65.0061	48
65.0421	211
66.0145	13
66.0505	42
67.0212	61
69.0009	13
73.0122	26
74.0187	182
75.027	195
76.0346	224
77.0051	21
77.0422	690
78.05	32
79.0221	13
79.0576	24
80.0288	42
89.0424	677
90.0501	50
91.0575	144
93.0011	107
93.0387	16
94.0439	24
102.0507	13
105.0363	56
107.0487	13
115.0573	32
116.9333	16
126.0481	21
128.9359	24
139.057	29
150.0523	26
151.0552	29
152.0638	16
154.9513	171
182.9513	69
