Mass spectrum: Diphenhydramine; LC-ESI-QTOF; MS2; 90 V
Name: Diphenhydramine
Class: Pharmaceutical
Formula: C17H21NO
Exact mass: 255.1623
SMILES: CN(C)CCOC(c1ccccc1)c2ccccc2
InChI: InChI=1S/C17H21NO/c1-18(2)13-14-19-17(15-9-5-3-6-10-15)16-11-7-4-8-12-16/h3-12,17H,13-14H2,1-2H3
Instrument: TripleTOF 5600 SCIEX
Instrument type: LC-ESI-QTOF
Ms type: MS2
Ion mode: POSITIVE
Collision energy: 90
Fragmentation mode: CID
Ionization: ESI
Column name: Zorbax Eclipse Plus C18 2.1 mm x 150 mm, 3.5 um, Agilent
Retention time: 7.721 min
Precursor m/z: 256.1696
Precursor type: [M+H]+
m/z	relative intensity
65.0434	35
74.0183	12
76.0343	19
77.0418	26
78.0491	29
87.0249	10
89.0403	62
91.0556	17
102.0471	84
113.0395	12
115.0544	332
125.0388	11
126.0469	108
127.0548	36
128.062	134
139.0546	154
141.0706	26
150.0464	98
151.0544	269
152.0617	443
163.0542	204
164.0622	302
165.0693	999
