Mass spectrum: Aspartame; LC-ESI-QTOF; MS2; 100 V
Name: Aspartame
Class: Food_additive
Formula: C14H18N2O5
Exact mass: 294.1216
SMILES: COC(=O)C(Cc1ccccc1)NC(=O)C(N)CC(O)=O
InChI: InChI=1S/C14H18N2O5/c1-21-14(20)11(7-9-5-3-2-4-6-9)16-13(19)10(15)8-12(17)18/h2-6,10-11H,7-8,15H2,1H3,(H,16,19)(H,17,18)
Instrument: TripleTOF 5600 SCIEX
Instrument type: LC-ESI-QTOF
Ms type: MS2
Ion mode: NEGATIVE
Collision energy: 100
Fragmentation mode: CID
Ionization: ESI
Column name: Zorbax Eclipse Plus C18 2.1 mm x 150 mm, 3.5 um, Agilent
Retention time: 5.761 min
Precursor m/z: 293.1143
Precursor type: [M-H]-
m/z	relative intensity
42.002	999
42.0382	57
82.0187	76
96.0071	57
97.0392	192
98.9948	57
101.0402	76
116.0505	307
