Mass spectrum: Disperse Orange 37; LC-ESI-QTOF; MS2; 50 V
Name: Disperse Orange 37
Formula: C17H15Cl2N5O2
Exact mass: 391.0603
SMILES: CCN(CCC#N)C1=CC=C(C=C1)N=NC2=C(C=C(C=C2Cl)[N+](=O)[O-])Cl
InChI: InChI=1S/C17H15Cl2N5O2/c1-2-23(9-3-8-20)13-6-4-12(5-7-13)21-22-17-15(18)10-14(24(25)26)11-16(17)19/h4-7,10-11H,2-3,9H2,1H3
Instrument: TripleTOF X500R SCIEX
Instrument type: LC-ESI-QTOF
Ms type: MS2
Ion mode: POSITIVE
Collision energy: 50
Fragmentation mode: CID
Ionization: ESI
Column name: Zorbax Eclipse Plus C18 2.1 mm x 150 mm, 3.5 um, Agilent
Retention time: 15.169 min
Precursor m/z: 392.0676
Precursor type: [M+H]+
m/z	relative intensity
65.0388	22
79.0539	36
80.0498	16
91.0545	62
92.0501	124
93.0675	36
96.9833	19
97.9789	29
103.0526	22
104.0492	226
105.0578	409
106.0651	78
106.9454	91
107.0741	16
108.985	22
109.9796	62
117.0577	45
118.052	19
118.0663	134
119.0614	219
120.0815	389
128.0486	36
130.0657	32
131.0611	32
132.0729	117
133.0892	999
134.0961	160
142.9464	85
143.9538	199
144.068	22
145.0762	219
147.0924	320
148.0983	39
158.0697	29
159.0915	26
159.9471	42
171.9645	32
172.0875	137
179.0723	22
186.0999	16
187.1116	19
189.9469	389
213.0331	22
214.0412	32
217.9537	252
241.0447	16
242.073	29
249.0064	29
271.086	49
277.0175	527
305.0157	22
305.0485	707
305.0909	32
317.0802	108
323.0096	864
323.0558	32
351.0418	429
351.0894	22
