Mass spectrum: Oxcarbazepine; LC-ESI-QTOF; MS2; 130 V
Name: Oxcarbazepine
Class: Pharmaceutical
Formula: C15H12N2O2
Exact mass: 252.0899
SMILES: NC(=O)N1c2ccccc2CC(=O)c3ccccc13
InChI: InChI=1S/C15H12N2O2/c16-15(19)17-12-7-3-1-5-10(12)9-14(18)11-6-2-4-8-13(11)17/h1-8H,9H2,(H2,16,19)
Instrument: TripleTOF 5600 SCIEX
Instrument type: LC-ESI-QTOF
Ms type: MS2
Ion mode: POSITIVE
Collision energy: 130
Fragmentation mode: CID
Ionization: ESI
Column name: Zorbax Eclipse Plus C18 2.1 mm x 150 mm, 3.5 um, Agilent
Retention time: 8.323 min
Precursor m/z: 253.0972
Precursor type: [M+H]+
m/z	relative intensity
44.0209	60
60.0051	40
65.0434	101
73.0103	101
74.0185	999
75.0257	897
76.0205	60
76.0331	148
77.0418	749
77.0614	60
78.047	54
85.0098	101
86.0166	222
87.0247	351
87.0375	33
88.0195	33
88.0332	80
89.0408	479
90.0482	33
97.0094	33
98.0159	492
99.0111	40
99.0229	249
100.0312	121
101.0387	216
102.0473	290
109.0078	54
110.0147	114
111.0225	94
113.0387	337
114.0341	74
115.0546	108
122.0162	54
123.0191	47
124.0307	47
125.0386	256
126.0465	567
127.0538	168
128.0485	87
137.0383	141
138.0456	67
139.0533	256
140.049	161
149.0383	161
150.0465	904
151.0542	971
152.0616	526
153.0583	67
161.0394	87
162.0462	94
163.0543	216
164.0515	80
175.0414	60
176.0509	134
177.0572	229
178.0663	256
179.0727	47
188.0477	40
189.0616	47
190.0674	33
