Mass spectrum: Medroxyprogesterone; LC-ESI-QTOF; MS2; 100 V
Name: Medroxyprogesterone
Class: Pharmaceutical
Formula: C22H32O3
Exact mass: 344.2351
SMILES: CC1CC2C(CCC3(C2CCC3(C(=O)C)O)C)C4(C1=CC(=O)CC4)C
InChI: InChI=1S/C22H32O3/c1-13-11-16-17(20(3)8-5-15(24)12-19(13)20)6-9-21(4)18(16)7-10-22(21,25)14(2)23/h12-13,16-18,25H,5-11H2,1-4H3
Instrument: TripleTOF 6600 SCIEX
Instrument type: LC-ESI-QTOF
Ms type: MS2
Ion mode: POSITIVE
Collision energy: 100
Fragmentation mode: CID
Ionization: ESI
Column name: Zorbax Eclipse Plus C18 2.1 mm x 150 mm, 3.5 um, Agilent
Retention time: 12.524 min
Precursor m/z: 345.2424
Precursor type: [M+H]+
m/z	relative intensity
37.0073	33
38.0149	20
39.0231	185
41.039	203
43.0181	397
45.0335	15
49.0083	15
50.0148	59
51.0227	183
53.0387	116
55.0179	129
55.0539	234
57.0338	33
59.0497	12
63.0234	18
65.0385	216
66.0471	23
67.0541	283
69.0337	25
69.0699	46
77.0385	999
78.0464	43
79.054	428
80.0613	36
81.0327	38
81.0697	49
82.0412	54
83.0488	59
89.0389	25
90.0461	15
91.0541	655
92.0608	10
93.0694	69
94.041	25
95.0492	33
95.085	36
97.0646	134
102.0455	23
103.0539	126
104.062	28
105.0452	49
105.0694	201
107.0493	111
108.0567	49
109.0644	15
115.0537	283
116.0621	56
117.0695	100
119.0848	30
121.065	15
123.0798	54
126.0469	12
127.054	67
128.0617	307
129.0695	139
130.08	20
131.0504	12
131.0853	41
141.0693	172
142.0776	41
143.0857	30
151.0528	12
152.062	74
153.0697	90
154.0774	38
155.0616	28
155.0861	36
165.0695	123
166.0776	28
167.0849	23
168.0936	12
178.0763	49
179.0851	33
180.0914	10
189.0702	18
191.0855	20
