Mass spectrum: Progesterone; LC-ESI-QTOF; MS2; 110 V
Name: Progesterone
Class: Pharmaceutical
Formula: C21H30O2
Exact mass: 314.2246
SMILES: CC(=O)[C@H]1CC[C@H]2[C@@H]3CCC4=CC(=O)CC[C@]4(C)[C@H]3CC[C@]12C
InChI: InChI=1S/C21H30O2/c1-13(22)17-6-7-18-16-5-4-14-12-15(23)8-10-20(14,2)19(16)9-11-21(17,18)3/h12,16-19H,4-11H2,1-3H3/t16-,17+,18-,19-,20-,21+/m0/s1
Instrument: TripleTOF 5600 SCIEX
Instrument type: LC-ESI-QTOF
Ms type: MS2
Ion mode: POSITIVE
Collision energy: 110
Fragmentation mode: CID
Ionization: ESI
Column name: Zorbax Eclipse Plus C18 2.1 mm x 150 mm, 3.5 um, Agilent
Retention time: 13.796 min
Precursor m/z: 315.2319
Precursor type: [M+H]+
m/z	relative intensity
43.0263	231
43.0455	21
55.0234	118
55.0601	67
57.0374	16
65.0424	219
66.0512	29
67.058	147
69.0379	21
69.0719	25
77.0414	999
79.0566	552
81.0363	33
81.0714	168
82.0428	25
83.05	46
89.0408	33
91.0553	375
91.0846	16
93.0723	21
94.0422	46
95.0498	16
95.0892	25
97.0649	273
103.0552	59
105.0713	46
107.049	63
109.0651	147
115.0534	189
123.081	29
127.0538	29
128.0599	160
129.0718	21
141.0678	46
152.0615	46
165.0706	29
