Mass spectrum: Levetiracetam acid; LC-ESI-QTOF; MS2; 50 V
Name: Levetiracetam acid
Class: Pharmaceutical; Transformation_product
Formula: C8H13NO3
Exact mass: 171.0895
SMILES: CC[C@@H](C(=O)O)N1CCCC1=O
InChI: InChI=1S/C8H13NO3/c1-2-6(8(11)12)9-5-3-4-7(9)10/h6H,2-5H2,1H3,(H,11,12)/t6-/m0/s1
Instrument: TripleTOF 5600 SCIEX
Instrument type: LC-ESI-QTOF
Ms type: MS2
Ion mode: POSITIVE
Collision energy: 50
Fragmentation mode: CID
Ionization: ESI
Column name: Zorbax Eclipse Plus C18 2.1 mm x 150 mm, 3.5 um, Agilent
Retention time: 5.699 min
Precursor m/z: 172.0968
Precursor type: [M+H]+
m/z	relative intensity
42.0423	41
55.0583	37
56.0541	37
58.0693	212
68.0539	54
69.0368	999
70.0679	62
81.0713	20
83.0731	20
98.0608	24
98.0972	66
108.0807	20
126.0894	104
