Mass spectrum: Diphenylphosphinamide; LC-ESI-QTOF; MS2; 20 V
Name: Diphenylphosphinamide
Formula: C12H12NOP
Exact mass: 217.0657
SMILES: C1=CC=C(C=C1)P(=O)(C2=CC=CC=C2)N
InChI: InChI=1S/C12H12NOP/c13-15(14,11-7-3-1-4-8-11)12-9-5-2-6-10-12/h1-10H,(H2,13,14)
Instrument: TripleTOF 5600 SCIEX
Instrument type: LC-ESI-QTOF
Ms type: CID
Ion mode: POSITIVE
Collision energy: 20
Ionization: ESI
Column name: Zorbax Eclipse Plus C18 2.1 mm x 150 mm, 3.5 um, Agilent
Retention time: 7.411 min
Precursor m/z: 218.0729
Precursor type: [M+H]+
m/z	relative intensity
173.0511	11
201.0469	999
218.074	435
