Mass spectrum: Metolachlor ESA; LC-ESI-QTOF; MS2; 90 V
Name: Metolachlor ESA
Class: Herbicide; Transformation_product-Metabolite
Formula: C15H23NO5S
Exact mass: 329.1297
SMILES: CCC1=CC=CC(=C1N(C(C)COC)C(=O)CS(=O)(=O)O)C
InChI: InChI=1S/C15H23NO5S/c1-5-13-8-6-7-11(2)15(13)16(12(3)9-21-4)14(17)10-22(18,19)20/h6-8,12H,5,9-10H2,1-4H3,(H,18,19,20)
Instrument: TripleTOF 5600 SCIEX
Instrument type: LC-ESI-QTOF
Ms type: MS2
Ion mode: POSITIVE
Collision energy: 90
Fragmentation mode: CID
Ionization: ESI
Column name: Zorbax Eclipse Plus C18 2.1 mm x 150 mm, 3.5 um, Agilent
Retention time: 8.247 min
Precursor m/z: 330.137
Precursor type: [M+H]+
m/z	relative intensity
65.0456	54
73.0676	32
77.0423	128
79.0563	41
89.0414	45
90.0481	41
91.0559	339
93.0587	32
103.0531	82
105.0704	73
106.0661	45
108.0865	22
115.053	210
116.0578	45
117.0571	274
118.0631	128
119.0717	64
119.0862	27
120.0791	68
127.0523	50
128.06	77
129.0612	22
130.0654	655
131.0727	197
132.0798	142
133.0892	32
134.0977	27
142.0655	50
143.0719	164
144.0802	999
145.0886	288
146.0639	27
146.0972	36
156.0795	41
158.0946	197
159.1042	36
160.0742	18
160.1174	27
172.1108	22
