Mass spectrum: Sertraline; LC-ESI-QTOF; MS2; 70 V
Name: Sertraline
Class: Pharmaceutical
Formula: C17H17Cl2N
Exact mass: 305.0738
SMILES: CN[C@H]1CC[C@H](c2c1cccc2)c3ccc(c(c3)Cl)Cl
InChI: InChI=1S/C17H17Cl2N/c1-20-17-9-7-12(13-4-2-3-5-14(13)17)11-6-8-15(18)16(19)10-11/h2-6,8,10,12,17,20H,7,9H2,1H3/t12-,17-/m0/s1
Instrument: TripleTOF 5600 SCIEX
Instrument type: LC-ESI-QTOF
Ms type: MS2
Ion mode: POSITIVE
Collision energy: 70
Fragmentation mode: CID
Ionization: ESI
Column name: Zorbax Eclipse Plus C18 2.1 mm x 150 mm, 3.5 um, Agilent
Retention time: 8.925 min
Precursor m/z: 306.0811
Precursor type: [M+H]+
m/z	relative intensity
72.9876	50
77.041	11
88.033	11
89.0411	214
91.0562	39
96.9851	26
99.001	113
115.0551	15
123.0009	556
124.0079	191
125.015	16
127.0551	100
128.0629	260
129.0707	97
132.9613	98
158.9775	999
162.0242	24
189.0699	27
190.0789	15
202.0782	16
203.086	24
204.0949	13
225.0475	15
