Mass spectrum: Losartan; LC-ESI-QTOF; MS2; 100 V
Name: Losartan
Class: Pharmaceutical
Formula: C22H23ClN6O
Exact mass: 422.1622
SMILES: CCCCc1nc(c(n1Cc2ccc(cc2)c3ccccc3c4n[nH]nn4)CO)Cl
InChI: InChI=1S/C22H23ClN6O/c1-2-3-8-20-24-21(23)19(14-30)29(20)13-15-9-11-16(12-10-15)17-6-4-5-7-18(17)22-25-27-28-26-22/h4-7,9-12,30H,2-3,8,13-14H2,1H3,(H,25,26,27,28)
Instrument: TripleTOF 5600 SCIEX
Instrument type: LC-ESI-QTOF
Ms type: MS2
Ion mode: POSITIVE
Collision energy: 100
Fragmentation mode: CID
Ionization: ESI
Column name: Zorbax Eclipse Plus C18 2.1 mm x 150 mm, 3.5 um, Agilent
Retention time: 9.819 min
Precursor m/z: 423.1695
Precursor type: [M+H]+
m/z	relative intensity
75.027	16
77.041	136
78.0374	15
80.0511	29
87.0244	11
89.0028	9
89.0398	24
91.0562	10
101.0385	23
102.0351	20
102.0456	14
113.0387	46
114.0343	12
114.0446	14
115.0539	84
117.0593	10
125.0384	34
126.0463	33
127.0543	143
128.0511	66
129.0456	12
137.0384	25
138.0456	50
139.0547	111
140.0492	203
141.0209	10
141.0565	15
142.0283	48
149.0386	18
150.0461	167
151.0544	748
152.062	999
153.0626	143
154.0641	32
162.0463	42
163.0541	319
164.0529	408
165.0693	548
166.0657	70
167.0718	18
176.0544	60
177.0575	278
178.0653	559
179.0726	263
180.0805	115
181.0756	10
187.0545	17
188.0498	97
189.0585	99
190.0646	358
191.0609	119
192.0679	135
201.0604	10
203.0622	18
204.0718	16
205.0762	821
206.084	25
214.0644	48
215.0595	12
239.0599	10
