Mass spectrum: Disperse orange 3; LC-ESI-QTOF; MS2; 90 V
Name: Disperse orange 3
Formula: C12H10N4O2
Exact mass: 242.0804
SMILES: C1=CC(=CC=C1N)N=NC2=CC=C(C=C2)[N+](=O)[O-]
InChI: InChI=1S/C12H10N4O2/c13-9-1-3-10(4-2-9)14-15-11-5-7-12(8-6-11)16(17)18/h1-8H,13H2
Instrument: TripleTOF 6600 SCIEX
Instrument type: LC-ESI-QTOF
Ms type: MS2
Ion mode: POSITIVE
Collision energy: 90
Fragmentation mode: CID
Ionization: ESI
Column name: Zorbax Eclipse Plus C18 2.1 mm x 150 mm, 3.5 um, Agilent
Retention time: 12.729 min
Precursor m/z: 243.0877
Precursor type: [M+H]+
m/z	relative intensity
37.0057	15
38.0142	20
39.0221	57
49.0064	100
50.0142	999
51.0216	61
52.0296	59
54.0335	9
61.0063	10
62.0139	44
63.0215	179
65.0366	133
66.045	86
73.006	80
74.0134	744
75.0214	610
76.0292	290
77.0365	17
78.0327	87
79.0399	27
80.0473	33
92.0473	31
93.0551	38
105.0428	102
139.0541	14
