Mass spectrum: 4-Oxypiperidol; LC-ESI-QTOF; MS2; 10 V
Name: 4-Oxypiperidol
Class: Pharmaceutical
Formula: C9H18NO2
Exact mass: 172.1338
SMILES: CC1(CC(CC(N1[O])(C)C)O)C
InChI: InChI=1S/C9H18NO2/c1-8(2)5-7(11)6-9(3,4)10(8)12/h7,11H,5-6H2,1-4H3
Instrument: TripleTOF 5600 SCIEX
Instrument type: LC-ESI-QTOF
Ms type: MS2
Ion mode: POSITIVE
Collision energy: 10
Fragmentation mode: CID
Ionization: ESI
Column name: Zorbax Eclipse Plus C18 2.1 mm x 150 mm, 3.5 um, Agilent
Retention time: 5.696 min
Precursor m/z: 173.141
Precursor type: [M+H]+
m/z	relative intensity
102.0558	16
140.1074	18
158.1175	999
