Mass spectrum: Picolinafen; LC-ESI-QTOF; MS2; 140 V
Name: Picolinafen
Class: Herbicide
Formula: C19H12F4N2O2
Exact mass: 376.0835
SMILES: C1=CC(=CC(=C1)OC2=CC=CC(=N2)C(=O)NC3=CC=C(C=C3)F)C(F)(F)F
InChI: InChI=1S/C19H12F4N2O2/c20-13-7-9-14(10-8-13)24-18(26)16-5-2-6-17(25-16)27-15-4-1-3-12(11-15)19(21,22)23/h1-11H,(H,24,26)
Instrument: TripleTOF 6600 SCIEX
Instrument type: LC-ESI-QTOF
Ms type: MS2
Ion mode: POSITIVE
Collision energy: 140
Fragmentation mode: CID
Ionization: ESI
Column name: Zorbax Eclipse Plus C18 2.1 mm x 150 mm, 3.5 um, Agilent
Retention time: 15.501 min
Precursor m/z: 377.0908
Precursor type: [M+H]+
m/z	relative intensity
30.995	14
35.9992	22
37.0062	70
38.0136	53
39.0218	135
50.0144	31
51.003	59
51.0221	16
57.0125	47
61.0053	19
63.0207	25
68.0018	11
68.9935	166
69.0118	56
73.0056	95
74.0134	999
75.0032	237
75.021	990
81.0116	31
87.0211	14
92.9904	25
95.0092	16
95.0275	163
98.0142	14
99.0039	107
101.0166	14
105.0129	16
107.0276	11
113.0373	39
119.0085	16
122.0141	45
123.0085	11
123.0305	45
124.0123	11
125.0186	53
133.0448	14
140.0469	19
145.0231	31
