Mass spectrum: Moxidectin; LC-ESI-QTOF; MS2; 50 V
Name: Moxidectin
Class: Pharmaceutical; Insecticide
Formula: C37H53NO8
Exact mass: 639.3771
SMILES: CO\N=C\1C[C@]2(C[C@@H]3C[C@@H](C\C=C(/C)C[C@@H](C)/C=C/C=C/4CO[C@@H]5[C@H](O)C(=C[C@@H](C(=O)O3)[C@]45O)C)O2)OC([C@H]1C)C(/C)=C/C(C)C
InChI: InChI=1S/C37H53NO8/c1-21(2)14-25(6)33-26(7)31(38-42-8)19-36(46-33)18-29-17-28(45-36)13-12-23(4)15-22(3)10-9-11-27-20-43-34-32(39)24(5)16-30(35(40)44-29)37(27,34)41/h9-12,14,16,21-22,26,28-30,32-34,39,41H,13,15,17-20H2,1-8H3/b10-9+,23-12+,25-14+,27-11+,38-31+/t22-,26-,28+,29-,30-,32+,33?,34+,36-,37+/m0/s1
Instrument: TripleTOF 5600 SCIEX
Instrument type: LC-ESI-QTOF
Ms type: MS2
Ion mode: POSITIVE
Collision energy: 50
Fragmentation mode: CID
Ionization: ESI
Column name: Zorbax Eclipse Plus C18 2.1 mm x 150 mm, 3.5 um, Agilent
Retention time: 18.457 min
Precursor m/z: 640.3844
Precursor type: [M+H]+
m/z	relative intensity
98.06	499
107.086	249
122.0955	561
123.1162	374
143.0855	624
145.0651	499
145.1014	249
148.0779	312
150.0932	312
159.1157	374
164.1418	374
171.0815	312
171.1167	811
190.1229	249
197.098	374
199.1114	999
218.1545	811
