Mass spectrum: Fluorescein; LC-ESI-QTOF; MS2; 130 V
Name: Fluorescein
Class: Industrial_process; Pharmaceutical
Formula: C20H12O5
Exact mass: 332.0685
SMILES: C1=CC=C2C(=C1)C(=O)OC23C4=C(C=C(C=C4)O)OC5=C3C=CC(=C5)O
InChI: InChI=1S/C20H12O5/c21-11-5-7-15-17(9-11)24-18-10-12(22)6-8-16(18)20(15)14-4-2-1-3-13(14)19(23)25-20/h1-10,21-22H
Instrument: TripleTOF 5600 SCIEX
Instrument type: LC-ESI-QTOF
Ms type: MS2
Ion mode: POSITIVE
Collision energy: 130
Fragmentation mode: CID
Ionization: ESI
Column name: Zorbax Eclipse Plus C18 2.1 mm x 150 mm, 3.5 um, Agilent
Retention time: 9.527 min
Precursor m/z: 333.0757
Precursor type: [M+H]+
m/z	relative intensity
51.0234	21
61.0078	9
62.015	11
63.0222	21
65.0376	13
68.997	19
74.0144	23
75.0218	24
76.0293	13
77.0377	64
78.0445	11
86.0148	13
87.0221	23
89.0384	39
98.0143	36
99.023	14
101.0379	13
102.0466	38
110.0157	13
111.0235	13
113.0375	31
115.054	59
122.0147	18
123.0238	14
125.0408	23
126.0459	62
127.0539	26
128.0618	13
137.0367	18
138.0526	11
139.0522	59
149.0396	71
150.0462	293
151.0539	187
152.0616	120
161.0388	54
162.0474	54
163.055	193
164.0598	21
165.0699	26
173.04	21
174.0475	139
175.0537	112
176.0624	188
185.0374	36
186.047	84
187.054	366
188.0614	69
189.0698	99
198.0476	66
199.0546	177
200.0629	999
201.0691	172
202.077	134
210.0466	24
211.0543	205
212.0613	57
213.0704	155
222.0485	11
223.0597	13
224.0644	14
229.0651	14
