Mass spectrum: 6-Methylthioinosin; LC-ESI-QTOF; MS2; 100 V
Name: 6-Methylthioinosin
Class: Pharmaceutical
Formula: C11H14N4O4S
Exact mass: 298.0736
SMILES: CSc1ncnc2n(cnc12)C3OC(CO)C(O)C3O
InChI: InChI=1S/C11H14N4O4S/c1-20-10-6-9(12-3-13-10)15(4-14-6)11-8(18)7(17)5(2-16)19-11/h3-5,7-8,11,16-18H,2H2,1H3
Instrument: TripleTOF 5600 SCIEX
Instrument type: LC-ESI-QTOF
Ms type: MS2
Ion mode: POSITIVE
Collision energy: 100
Fragmentation mode: CID
Ionization: ESI
Column name: Zorbax Eclipse Plus C18 2.1 mm x 150 mm, 3.5 um, Agilent
Retention time: 5.666 min
Precursor m/z: 299.0809
Precursor type: [M+H]+
m/z	relative intensity
57.037	51
65.0171	576
66.0245	82
67.0334	226
69.0376	61
69.9774	72
70.0435	123
70.9864	638
71.0147	154
71.0282	51
71.9927	92
77.016	61
81.0338	133
82.9838	205
92.026	720
93.033	82
94.0429	51
97.994	659
99.0015	113
106.0398	123
107.0477	72
119.035	690
125.0045	999
126.0116	123
134.06	41
152.0168	391
167.0384	51
