Mass spectrum: Enalaprilat; LC-ESI-QTOF; MS2; 30 V
Name: Enalaprilat
Class: Pharmaceutical; Metabolite; Transformation_product
Formula: C18H24N2O5
Exact mass: 348.1685
SMILES: C[C@@H](C(=O)N1CCC[C@H]1C(=O)O)N[C@@H](CCC2=CC=CC=C2)C(=O)O
InChI: InChI=1S/C18H24N2O5/c1-12(16(21)20-11-5-8-15(20)18(24)25)19-14(17(22)23)10-9-13-6-3-2-4-7-13/h2-4,6-7,12,14-15,19H,5,8-11H2,1H3,(H,22,23)(H,24,25)/t12-,14-,15-/m0/s1
Instrument: TripleTOF 5600 SCIEX
Instrument type: LC-ESI-QTOF
Ms type: MS2
Ion mode: POSITIVE
Collision energy: 30
Fragmentation mode: CID
Ionization: ESI
Column name: Zorbax Eclipse Plus C18 2.1 mm x 150 mm, 3.5 um, Agilent
Retention time: 5.842 min
Precursor m/z: 349.1758
Precursor type: [M+H]+
m/z	relative intensity
44.0583	16
56.0534	18
70.0688	11
91.0573	59
102.0557	182
115.0562	10
116.0709	127
117.0702	187
134.0969	135
144.0809	12
160.1121	353
162.1266	11
178.1227	59
188.1084	11
206.1179	999
232.1346	29
303.1723	484
349.1773	101
