Mass spectrum: Antipyrine; LC-ESI-QTOF; MS2; 50 V
Name: Antipyrine
Class: Pharmaceutical
Formula: C11H12N2O
Exact mass: 188.095
SMILES: CN1N(C(=O)C=C1C)c2ccccc2
InChI: InChI=1S/C11H12N2O/c1-9-8-11(14)13(12(9)2)10-6-4-3-5-7-10/h3-8H,1-2H3
Instrument: TripleTOF 5600 SCIEX
Instrument type: LC-ESI-QTOF
Ms type: MS2
Ion mode: POSITIVE
Collision energy: 50
Fragmentation mode: CID
Ionization: ESI
Column name: Zorbax Eclipse Plus C18 2.1 mm x 150 mm, 3.5 um, Agilent
Retention time: 6.261 min
Precursor m/z: 189.1022
Precursor type: [M+H]+
m/z	relative intensity
54.038	13
56.0553	526
58.0684	82
65.0422	131
68.0513	10
77.0415	999
78.048	36
79.0557	82
80.0504	13
81.0463	39
89.0399	23
90.0474	22
91.0552	149
92.0503	27
93.0588	26
94.0658	14
95.0607	43
96.0672	11
98.0595	37
101.0397	10
102.0458	39
103.0535	67
104.0492	232
105.0567	10
106.0648	187
115.0536	170
117.057	87
118.065	61
120.0797	18
128.0488	46
129.057	26
130.0648	204
131.0605	224
132.0668	78
143.0731	15
144.08	28
145.0742	92
146.0843	18
147.0891	22
