Mass spectrum: Lumichrome; LC-ESI-QTOF; MS2; 110 V
Name: Lumichrome
Class: Pharmaceutical
Formula: C12H10N4O2
Exact mass: 242.0804
SMILES: CC1=CC2=C(C=C1C)N=C3C(=N2)C(=O)NC(=O)N3
InChI: InChI=1S/C12H10N4O2/c1-5-3-7-8(4-6(5)2)14-10-9(13-7)11(17)16-12(18)15-10/h3-4H,1-2H3,(H2,14,15,16,17,18)
Instrument: TripleTOF 6600 SCIEX
Instrument type: LC-ESI-QTOF
Ms type: MS2
Ion mode: POSITIVE
Collision energy: 110
Fragmentation mode: CID
Ionization: ESI
Column name: Zorbax Eclipse Plus C18 2.1 mm x 150 mm, 3.5 um, Agilent
Retention time: 7.067 min
Precursor m/z: 243.0877
Precursor type: [M+H]+
m/z	relative intensity
37.0078	22
38.0153	19
39.0236	90
44.0135	25
49.0079	118
50.0158	464
51.0236	999
52.0186	30
61.0075	45
62.0158	98
63.0234	182
64.0194	39
65.0389	95
73.0078	19
74.0158	146
75.0116	33
75.0233	115
76.019	75
76.031	50
77.0391	351
78.0469	14
88.0176	14
89.0388	126
90.047	11
91.0549	25
102.0335	19
102.0471	30
105.0448	14
114.0341	11
