Mass spectrum: Mefloquine; LC-ESI-QTOF; MS2; 130 V
Name: Mefloquine
Class: Pharmaceutical
Formula: C17H16F6N2O
Exact mass: 378.1167
SMILES: C1CCNC(C1)C(C2=CC(=NC3=C2C=CC=C3C(F)(F)F)C(F)(F)F)O
InChI: InChI=1S/C17H16F6N2O/c18-16(19,20)11-5-3-4-9-10(15(26)12-6-1-2-7-24-12)8-13(17(21,22)23)25-14(9)11/h3-5,8,12,15,24,26H,1-2,6-7H2
Instrument: TripleTOF 5600 SCIEX
Instrument type: LC-ESI-QTOF
Ms type: MS2
Ion mode: POSITIVE
Collision energy: 130
Fragmentation mode: CID
Ionization: ESI
Column name: Zorbax Eclipse Plus C18 2.1 mm x 150 mm, 3.5 um, Agilent
Retention time: 8.432 min
Precursor m/z: 379.124
Precursor type: [M+H]+
m/z	relative intensity
42.0439	18
44.0662	14
51.0158	14
51.0326	32
54.0422	83
56.0588	209
57.021	36
65.046	61
67.048	213
68.0561	217
69.0008	304
70.0704	108
73.0141	32
74.0216	173
75.0061	50
75.027	260
76.0351	25
77.0439	159
80.0526	133
81.018	97
81.0587	21
82.0142	28
82.0686	398
83.0323	54
83.0401	21
84.0041	32
84.0842	199
85.0119	76
86.0182	141
87.026	195
88.0178	61
88.032	97
89.0427	72
92.0103	39
92.9972	25
93.016	83
94.0242	32
95.0305	21
96.0828	36
97.0105	32
98.0171	282
99.024	575
100.0213	141
101.0229	43
101.0393	68
102.0371	25
102.0489	21
104.0105	39
105.0148	137
106.0227	123
107.0313	108
108.0251	28
109.0097	28
110.0169	104
111.0078	54
111.0234	202
112.0171	137
112.0301	28
113.0397	318
114.0353	206
115.0557	36
116.0058	14
117.0143	123
118.0193	72
119.0114	25
119.027	14
121.0083	47
122.0169	191
123.0213	524
124.0191	608
125.0214	101
125.0393	351
126.0108	14
126.0427	329
127.0438	246
128.0508	36
129.0155	32
130.0118	25
130.0238	18
131.029	311
132.0324	235
133.0469	195
134.0154	32
134.041	21
134.9985	25
135.0125	21
135.0256	25
136.0201	83
137.0397	296
138.0436	456
139.0516	369
140.05	441
141.0144	159
142.016	101
143.0129	90
143.0293	173
144.0059	21
144.0267	155
145.0327	86
146.0151	72
146.04	47
147.0133	329
148.0187	383
149.0284	510
150.0417	528
151.0457	477
152.0506	568
153.0569	141
154.0076	14
154.025	21
154.065	43
155.0294	235
156.0284	191
157.0429	220
158.0404	390
160.0116	36
161.0208	267
162.0304	390
163.0192	43
163.0465	285
164.0507	999
165.0059	25
165.0564	228
166.026	25
166.064	108
167.0113	152
167.028	238
167.0766	14
168.0338	557
169.0338	358
170.0398	159
171.0123	47
171.0464	39
172.0209	72
173.0215	123
173.0402	21
174.0239	253
175.0369	358
176.0317	409
177.0518	180
178.0595	97
179.031	68
179.0594	112
180.0226	199
180.0805	18
181.0374	249
182.0388	666
183.0429	72
184.0555	50
185.0169	76
186.0282	481
187.0297	293
188.0408	401
189.0452	224
190.062	97
191.0129	28
191.0607	25
192.0055	18
192.018	50
192.0325	25
192.0684	36
193.0312	224
193.0769	21
194.0206	278
194.0392	137
195.0476	148
196.0485	97
197.0218	32
198.0272	79
199.0342	148
200.0307	383
201.0257	21
201.0525	101
202.0496	126
202.0704	28
203.066	65
204.0201	97
204.072	18
205.0171	21
205.032	65
205.0735	25
206.0376	246
207.0376	159
208.0372	21
208.0561	61
209.055	57
210.0644	25
211.0216	79
212.0142	21
212.0345	61
213.038	235
214.0455	68
215.0287	21
215.0466	21
215.0669	21
216.0234	21
216.0685	18
217.0282	68
218.0236	83
218.0857	18
219.0471	39
220.0363	50
220.0519	36
221.0526	36
222.0603	18
223.0225	18
223.0688	18
224.0299	108
225.0422	61
226.0463	65
227.0445	50
228.0509	32
229.0105	21
230.0387	21
231.0325	68
232.0487	47
233.0558	43
234.0527	32
236.0129	18
237.0319	50
238.0261	32
239.0429	14
243.0196	14
244.0397	39
247.053	14
249.0204	18
251.046	25
253.06	32
254.0694	25
258.0595	18
