Mass spectrum: 6PPD-quinone; LC-ESI-QTOF; MS2; 60 V
Name: 6PPD-quinone
Class: Industrial_process
Formula: C18H22N2O2
Exact mass: 298.1681
SMILES: CC(C)CC(C)NC1=CC(=O)C(=CC1=O)NC2=CC=CC=C2
InChI: InChI=1S/C18H22N2O2/c1-12(2)9-13(3)19-15-10-18(22)16(11-17(15)21)20-14-7-5-4-6-8-14/h4-8,10-13,19-20H,9H2,1-3H3
Instrument: TripleTOF 6600 SCIEX
Instrument type: LC-ESI-QTOF
Ms type: MS2
Ion mode: POSITIVE
Collision energy: 60
Fragmentation mode: CID
Ionization: ESI
Column name: Zorbax Eclipse Plus C18 2.1 mm x 150 mm, 3.5 um, Agilent
Retention time: 13.951 min
Precursor m/z: 299.1754
Precursor type: [M+H]+
m/z	relative intensity
41.0387	224
43.0538	224
51.0229	99
55.0167	149
68.0134	99
77.0381	774
82.0518	149
84.0443	224
91.0543	274
93.0569	349
94.0649	174
104.0487	649
110.0471	124
115.0539	999
116.049	149
117.0574	299
118.0644	574
120.0802	149
127.0532	224
128.0487	324
130.0645	174
139.0497	99
142.0642	274
143.0716	224
144.0453	149
144.0799	474
146.0598	324
148.0386	124
154.0638	324
158.0843	274
159.0919	224
170.0598	374
172.0745	549
182.06	124
186.0903	249
187.0861	674
199.0623	99
200.0692	574
226.0743	299
227.0792	174
241.0956	824
