Mass spectrum: Mesosulfuron-methyl; LC-ESI-QTOF; MS2; 90 V
Name: Mesosulfuron-methyl
Class: Herbicide
Formula: C17H21N5O9S2
Exact mass: 503.0781
SMILES: COC(=O)c1ccc(CN[S](C)(=O)=O)cc1[S](=O)(=O)NC(=O)Nc2nc(OC)cc(OC)n2
InChI: InChI=1S/C17H21N5O9S2/c1-29-13-8-14(30-2)20-16(19-13)21-17(24)22-33(27,28)12-7-10(9-18-32(4,25)26)5-6-11(12)15(23)31-3/h5-8,18H,9H2,1-4H3,(H2,19,20,21,22,24)
Instrument: TripleTOF 5600 SCIEX
Instrument type: LC-ESI-QTOF
Ms type: MS2
Ion mode: POSITIVE
Collision energy: 90
Fragmentation mode: CID
Ionization: ESI
Column name: Zorbax Eclipse Plus C18 2.1 mm x 150 mm, 3.5 um, Agilent
Retention time: 10.025 min
Precursor m/z: 504.0853
Precursor type: [M+H]+
m/z	relative intensity
56.0165	14
57.0468	14
68.0165	23
69.0008	35
71.0622	53
77.0416	127
79.0571	29
81.0465	23
82.0298	56
83.0255	999
83.073	17
90.0355	23
92.0262	41
93.0094	121
100.0392	65
104.0484	121
105.0349	17
106.0679	14
109.0389	41
117.0452	14
118.0286	38
119.0361	50
119.0585	11
124.0515	23
132.0478	14
134.0593	20
135.0427	65
138.0294	20
139.0496	844
140.0446	20
147.0313	14
156.0767	44
162.055	127
166.0231	23
182.0547	222
