Mass spectrum: Methacetin; LC-ESI-QTOF; MS2; 40 V
Name: Methacetin
Class: Pharmaceutical
Formula: C9H11NO2
Exact mass: 165.079
SMILES: COc1ccc(NC(C)=O)cc1
InChI: InChI=1S/C9H11NO2/c1-7(11)10-8-3-5-9(12-2)6-4-8/h3-6H,1-2H3,(H,10,11)
Instrument: TripleTOF 5600 SCIEX
Instrument type: LC-ESI-QTOF
Ms type: MS2
Ion mode: POSITIVE
Collision energy: 40
Fragmentation mode: CID
Ionization: ESI
Column name: Zorbax Eclipse Plus C18 2.1 mm x 150 mm, 3.5 um, Agilent
Retention time: 6.508 min
Precursor m/z: 166.0863
Precursor type: [M+H]+
m/z	relative intensity
43.029	295
64.0359	32
65.0436	554
66.0513	184
67.0569	15
77.0417	558
78.0458	14
79.0566	26
80.052	691
81.0599	804
82.0436	17
92.049	773
93.0589	999
94.0653	52
97.0649	18
107.0489	63
108.0446	214
109.0518	893
123.0672	75
124.0747	817
