Mass spectrum: 1-Myristoyl-sn-glycero-3-phosphocholine; LC-ESI-QTOF; MS2; 60 V
Name: 1-Myristoyl-sn-glycero-3-phosphocholine
Class: Natural_product
Formula: C22H46NO7P
Exact mass: 467.3012
SMILES: CCCCCCCCCCCCCC(=O)OCC(COP(=O)([O-])OCC[N+](C)(C)C)O
InChI: InChI=1S/C22H46NO7P/c1-5-6-7-8-9-10-11-12-13-14-15-16-22(25)28-19-21(24)20-30-31(26,27)29-18-17-23(2,3)4/h21,24H,5-20H2,1-4H3
Instrument: TripleTOF 6600 SCIEX
Instrument type: LC-ESI-QTOF
Ms type: MS2
Ion mode: POSITIVE
Collision energy: 60
Fragmentation mode: CID
Ionization: ESI
Column name: Zorbax Eclipse Plus C18 2.1 mm x 150 mm, 3.5 um, Agilent
Retention time: 12.658 min
Precursor m/z: 468.3085
Precursor type: [M+H]+
m/z	relative intensity
41.0401	14
43.0551	25
44.0501	14
45.034	34
45.058	10
55.0542	10
56.0499	35
57.0339	13
57.0707	56
58.066	19
60.0814	244
67.0552	17
69.0715	14
71.0736	163
71.0854	32
80.9743	27
81.0713	19
85.1016	19
86.097	999
95.0862	31
98.9844	154
104.1074	754
125.0001	831
163.0159	11
166.0634	172
184.0733	552
