Mass spectrum: C-desmethyl-metoprolol; LC-ESI-QTOF; MS2; 90 V
Name: C-desmethyl-metoprolol
Formula: C14H23NO3
Exact mass: 253.1678
SMILES: CCNCC(COC1=CC=C(C=C1)CCOC)O
InChI: InChI=1S/C14H23NO3/c1-3-15-10-13(16)11-18-14-6-4-12(5-7-14)8-9-17-2/h4-7,13,15-16H,3,8-11H2,1-2H3
Instrument: TripleTOF 5600 SCIEX
Instrument type: LC-ESI-QTOF
Ms type: MS2
Ion mode: POSITIVE
Collision energy: 90
Fragmentation mode: CID
Ionization: ESI
Column name: Zorbax Eclipse Plus C18 2.1 mm x 150 mm, 3.5 um, Agilent
Retention time: 5.422 min
Precursor m/z: 254.1751
Precursor type: [M+H]+
m/z	relative intensity
39.0236	31
41.0391	22
42.034	15
44.0503	38
45.0337	28
50.0155	50
51.0236	304
56.0494	47
58.0657	253
63.0237	28
65.0388	120
70.0646	22
77.0391	999
78.0472	47
79.0547	69
84.081	25
86.097	25
89.0396	41
91.0549	260
102.0467	66
103.0546	66
115.0552	98
128.0638	15
