Mass spectrum: Prednisolone; LC-ESI-QTOF; MS2; 60 V
Name: Prednisolone
Class: Pharmaceutical
Formula: C21H28O5
Exact mass: 360.1937
SMILES: C[C@]12C[C@H](O)[C@H]3[C@@H](CCC4=CC(=O)C=C[C@]34C)[C@@H]1CC[C@]2(O)C(=O)CO
InChI: InChI=1S/C21H28O5/c1-19-7-5-13(23)9-12(19)3-4-14-15-6-8-21(26,17(25)11-22)20(15,2)10-16(24)18(14)19/h5,7,9,14-16,18,22,24,26H,3-4,6,8,10-11H2,1-2H3/t14-,15-,16-,18+,19-,20-,21-/m0/s1
Instrument: TripleTOF 5600 SCIEX
Instrument type: LC-ESI-QTOF
Ms type: MS2
Ion mode: POSITIVE
Collision energy: 60
Fragmentation mode: CID
Ionization: ESI
Column name: Zorbax Eclipse Plus C18 2.1 mm x 150 mm, 3.5 um, Agilent
Retention time: 8.432 min
Precursor m/z: 361.201
Precursor type: [M+H]+
m/z	relative intensity
43.0259	53
55.0608	31
65.0427	26
67.0589	66
69.037	26
77.041	253
79.0563	164
81.0387	17
81.0722	75
91.0564	679
93.0709	146
95.0499	26
95.0858	62
97.0681	22
103.0539	79
105.0704	324
107.0488	75
107.0848	93
109.0668	26
109.1026	17
111.0819	26
115.0543	213
116.0626	62
117.0693	208
119.0852	386
121.0644	999
127.0531	93
128.0616	341
129.0696	199
130.0773	97
131.0481	71
131.086	128
132.0569	213
133.0648	39
133.102	39
135.0802	102
141.0688	164
142.0771	71
143.0846	173
144.0567	84
145.0656	230
145.1	124
146.0707	84
147.0801	874
152.0621	48
153.0694	106
154.0807	31
155.0852	133
157.0648	88
158.0727	452
159.08	182
159.1132	17
161.0959	75
165.069	186
166.0767	57
167.0868	75
168.0528	17
169.064	102
169.0987	31
170.0733	57
170.0995	26
171.0801	643
172.0878	22
173.0965	301
177.0695	31
178.0768	124
179.0856	195
180.0951	44
181.0634	128
181.1004	57
182.0724	106
183.0805	57
183.1176	17
184.0875	62
185.0951	57
189.0683	88
190.0764	111
191.0843	88
192.0928	84
193.1007	71
194.0736	102
194.1084	22
195.0789	217
195.1154	17
196.088	146
197.0943	88
198.1053	26
199.1065	35
202.0761	62
203.0842	88
204.0929	48
205.099	71
206.1082	26
207.0798	128
207.1173	39
208.0871	248
209.0957	199
210.1028	79
211.1099	79
212.1154	31
213.1252	26
215.0865	79
216.0941	35
217.1013	48
218.0689	22
218.1122	31
219.0787	53
219.119	35
220.0885	31
221.097	128
221.1313	35
222.1022	137
223.1106	195
224.1166	48
228.0932	48
229.1023	53
231.0804	48
231.1167	39
232.0843	48
233.0956	75
233.1249	17
234.1037	39
235.1135	97
236.122	44
237.1248	57
241.1036	17
244.0859	57
245.0964	75
246.1077	48
247.1098	66
248.1219	22
249.1254	31
249.162	48
251.1426	208
255.1131	17
258.0996	22
259.1082	79
260.1145	22
261.1249	22
263.1419	31
265.1532	17
273.1244	39
