Mass spectrum: Trazodone; LC-ESI-QTOF; MS2; 90 V
Name: Trazodone
Class: Pharmaceutical
Formula: C19H22ClN5O
Exact mass: 371.1513
SMILES: C1CN(CCN1CCCN2C(=O)N3C=CC=CC3=N2)C4=CC(=CC=C4)Cl
InChI: InChI=1S/C19H22ClN5O/c20-16-5-3-6-17(15-16)23-13-11-22(12-14-23)8-4-10-25-19(26)24-9-2-1-7-18(24)21-25/h1-3,5-7,9,15H,4,8,10-14H2
Instrument: TripleTOF 6600 SCIEX
Instrument type: LC-ESI-QTOF
Ms type: MS2
Ion mode: POSITIVE
Collision energy: 90
Fragmentation mode: CID
Ionization: ESI
Column name: Zorbax Eclipse Plus C18 2.1 mm x 150 mm, 3.5 um, Agilent
Retention time: 7.095 min
Precursor m/z: 372.1586
Precursor type: [M+H]+
m/z	relative intensity
39.0219	25
41.0243	10
42.0327	11
50.0135	10
51.0216	88
65.0243	30
66.0326	37
67.0402	12
75.021	13
78.0325	999
79.0399	59
80.0478	28
91.0514	11
92.0356	175
93.043	72
94.0512	19
104.0475	12
105.043	22
107.0583	16
110.9974	41
117.0549	13
118.0634	50
119.0588	90
120.0304	85
120.0521	24
121.0381	13
121.074	25
131.0598	22
133.0733	10
138.0088	19
139.0051	13
148.0484	57
