Mass spectrum: Clonazepam; LC-ESI-QTOF; MS2; 90 V
Name: Clonazepam
Class: Pharmaceutical
Formula: C15H10ClN3O3
Exact mass: 315.0411
SMILES: C1C(=O)NC2=C(C=C(C=C2)[N+](=O)[O-])C(=N1)C3=CC=CC=C3Cl
InChI: InChI=1S/C15H10ClN3O3/c16-12-4-2-1-3-10(12)15-11-7-9(19(21)22)5-6-13(11)18-14(20)8-17-15/h1-7H,8H2,(H,18,20)
Instrument: TripleTOF 6600 SCIEX
Instrument type: LC-ESI-QTOF
Ms type: MS2
Ion mode: POSITIVE
Collision energy: 90
Fragmentation mode: CID
Ionization: ESI
Column name: Zorbax Eclipse Plus C18 2.1 mm x 150 mm, 3.5 um, Agilent
Retention time: 9.867 min
Precursor m/z: 316.0484
Precursor type: [M+H]+
m/z	relative intensity
51.0227	34
63.0227	13
74.0145	12
75.0222	46
76.0303	39
77.0381	119
78.0324	26
78.046	16
89.0378	34
99.0211	14
101.0377	13
102.0333	60
103.0409	23
104.0486	59
113.0376	20
115.0535	42
125.0377	52
126.0457	72
127.0532	80
128.0609	60
129.0443	37
130.0391	28
137.0379	15
138.0456	25
139.0541	117
140.0495	101
149.0386	40
150.046	400
151.0544	999
152.0612	669
153.0605	103
154.0653	35
155.0597	10
161.0385	12
162.0466	39
163.054	282
164.0551	198
165.0699	103
166.0654	61
167.0724	43
174.0099	13
175.0416	21
176.0487	92
177.0568	518
178.0643	468
179.0723	226
180.0823	23
186.023	39
187.0273	9
188.0492	97
189.0577	70
190.0652	121
191.0699	39
192.0698	24
199.0313	13
203.0609	43
204.0649	59
205.0764	340
206.0827	20
213.0338	19
214.0404	47
224.0242	27
239.0385	41
