Mass spectrum: Losartan carboxylic acid; LC-ESI-QTOF; MS2; 50 V
Name: Losartan carboxylic acid
Class: Pharmaceutical; Transformation_product-Metabolite
Formula: C22H21ClN6O2
Exact mass: 436.1415
SMILES: CCCCc1nc(Cl)c(n1Cc2ccc(cc2)c3ccccc3c4n[nH]nn4)C(O)=O
InChI: InChI=1S/C22H21ClN6O2/c1-2-3-8-18-24-20(23)19(22(30)31)29(18)13-14-9-11-15(12-10-14)16-6-4-5-7-17(16)21-25-27-28-26-21/h4-7,9-12H,2-3,8,13H2,1H3,(H,30,31)(H,25,26,27,28)
Instrument: TripleTOF 5600 SCIEX
Instrument type: LC-ESI-QTOF
Ms type: MS2
Ion mode: POSITIVE
Collision energy: 50
Fragmentation mode: CID
Ionization: ESI
Column name: Zorbax Eclipse Plus C18 2.1 mm x 150 mm, 3.5 um, Agilent
Retention time: 10.786 min
Precursor m/z: 437.1487
Precursor type: [M+H]+
m/z	relative intensity
77.0409	12
80.0516	11
115.0549	19
129.0444	13
140.0501	58
141.0692	12
151.0549	25
152.062	58
153.0703	309
163.0544	77
164.0624	16
165.0697	25
166.0654	27
167.0731	44
168.0689	10
177.07	10
178.0781	438
179.0737	100
180.0817	999
181.0776	13
185.0484	114
190.0661	961
191.0724	740
192.0693	293
205.0771	221
206.0848	624
207.0926	836
235.0981	44
