Mass spectrum: 3-Acetamido-5-aminobenzoic acid; LC-ESI-QTOF; MS2; 40 V
Name: 3-Acetamido-5-aminobenzoic acid
Class: Pharmaceutical
Formula: C9H10N2O3
Exact mass: 194.0691
SMILES: CC(=O)Nc1cc(N)cc(c1)C(O)=O
InChI: InChI=1S/C9H10N2O3/c1-5(12)11-8-3-6(9(13)14)2-7(10)4-8/h2-4H,10H2,1H3,(H,11,12)(H,13,14)
Instrument: TripleTOF 5600 SCIEX
Instrument type: LC-ESI-QTOF
Ms type: MS2
Ion mode: NEGATIVE
Collision energy: 40
Fragmentation mode: CID
Ionization: ESI
Column name: Zorbax Eclipse Plus C18 2.1 mm x 150 mm, 3.5 um, Agilent
Retention time: 4.455 min
Precursor m/z: 193.0619
Precursor type: [M-H]-
m/z	relative intensity
42.0018	380
42.013	95
44.9978	47
58.0304	666
58.0454	142
66.0346	95
90.0356	190
107.0627	618
133.038	95
149.0714	999
