Mass spectrum: Aldicarb; LC-ESI-QTOF; MS2; 130 V
Name: Aldicarb
Class: Insecticide; Transformation_product-Metabolite
Formula: C7H14N2O2S
Exact mass: 190.0776
SMILES: CC(C)(C=NOC(=O)NC)SC
InChI: InChI=1S/C7H14N2O2S/c1-7(2,12-4)5-9-11-6(10)8-3/h5H,1-4H3,(H,8,10)
Instrument: TripleTOF 6600 SCIEX
Instrument type: LC-ESI-QTOF
Ms type: MS2
Ion mode: POSITIVE
Collision energy: 130
Fragmentation mode: CID
Ionization: ESI
Column name: Zorbax Eclipse Plus C18 2.1 mm x 150 mm, 3.5 um, Agilent
Retention time: 8.404 min
Precursor m/z: 213.0668
Precursor type: [M+Na]+
m/z	relative intensity
37.0072	140
38.0154	87
39.0231	236
44.98	227
46.9958	78
57.9876	262
58.9954	999
