Mass spectrum: Triadimefon; LC-ESI-QTOF; MS2; 30 V
Name: Triadimefon
Class: Fungicide; Transformation_product
Formula: C14H16ClN3O2
Exact mass: 293.0931
SMILES: CC(C)(C)C(=O)C(N1C=NC=N1)OC2=CC=C(C=C2)Cl
InChI: InChI=1S/C14H16ClN3O2/c1-14(2,3)12(19)13(18-9-16-8-17-18)20-11-6-4-10(15)5-7-11/h4-9,13H,1-3H3
Instrument: TripleTOF 5600 SCIEX
Instrument type: LC-ESI-QTOF
Ms type: MS2
Ion mode: POSITIVE
Collision energy: 30
Fragmentation mode: CID
Ionization: ESI
Column name: Zorbax Eclipse Plus C18 2.1 mm x 150 mm, 3.5 um, Agilent
Retention time: 12.319 min
Precursor m/z: 294.1004
Precursor type: [M+H]+
m/z	relative intensity
39.0234	13
41.0391	49
57.0706	151
69.0704	999
70.0781	29
98.9997	15
103.031	10
111.0003	12
113.0154	17
126.9948	88
129.0106	183
141.0107	279
155.0264	135
161.0973	17
190.1009	10
197.0734	644
225.0676	51
294.1018	12
