Mass spectrum: Abacavir; LC-ESI-QTOF; MS2; 130 V
Name: Abacavir
Class: Pharmaceutical
Formula: C14H18N6O
Exact mass: 286.1542
SMILES: Nc1nc(NC2CC2)c3ncn([C@@H]4C[C@H](CO)C=C4)c3n1
InChI: InChI=1S/C14H18N6O/c15-14-18-12(17-9-2-3-9)11-13(19-14)20(7-16-11)10-4-1-8(5-10)6-21/h1,4,7-10,21H,2-3,5-6H2,(H3,15,17,18,19)/t8-,10+/m1/s1
Instrument: TripleTOF 5600 SCIEX
Instrument type: LC-ESI-QTOF
Ms type: MS2
Ion mode: POSITIVE
Collision energy: 130
Fragmentation mode: CID
Ionization: ESI
Column name: Zorbax Eclipse Plus C18 2.1 mm x 150 mm, 3.5 um, Agilent
Retention time: 5.094 min
Precursor m/z: 287.1615
Precursor type: [M+H]+
m/z	relative intensity
38.0128	12
40.0267	29
52.0241	29
53.0204	129
53.0403	27
54.0261	58
55.0348	95
65.0181	173
65.0425	77
66.0245	76
66.0413	12
67.0333	30
67.0594	210
68.0287	120
68.0511	14
77.0422	999
77.0693	16
78.0415	27
79.0315	12
79.0574	126
80.0272	32
81.0341	11
92.0252	42
94.0404	19
105.046	9
108.0429	21
109.0516	11
