Mass spectrum: Acetamiprid; LC-ESI-QTOF; MS2; 140 V
Name: Acetamiprid
Class: Insecticide
Formula: C10H11ClN4
Exact mass: 222.0672
SMILES: CN(Cc1ccc(Cl)nc1)C(C)=NC#N
InChI: InChI=1S/C10H11ClN4/c1-8(14-7-12)15(2)6-9-3-4-10(11)13-5-9/h3-5H,6H2,1-2H3
Instrument: TripleTOF 5600 SCIEX
Instrument type: LC-ESI-QTOF
Ms type: MS2
Ion mode: POSITIVE
Collision energy: 140
Fragmentation mode: CID
Ionization: ESI
Column name: Zorbax Eclipse Plus C18 2.1 mm x 150 mm, 3.5 um, Agilent
Retention time: 7.466 min
Precursor m/z: 223.0745
Precursor type: [M+H]+
m/z	relative intensity
51.0281	17
56.0539	17
60.0049	41
61.0453	17
62.0564	17
64.0356	13
71.979	13
72.9875	999
75.0127	13
