Mass spectrum: Sulisobenzone; LC-ESI-QTOF; MS2; 40 V
Name: Sulisobenzone
Class: Personal_care_product
Formula: C14H12O6S
Exact mass: 308.0355
SMILES: COc1c(S(O)(=O)=O)cc(C(c2ccccc2)=O)c(O)c1
InChI: InChI=1S/C14H12O6S/c1-20-12-8-11(15)10(7-13(12)21(17,18)19)14(16)9-5-3-2-4-6-9/h2-8,15H,1H3,(H,17,18,19)
Instrument: TripleTOF 5600 SCIEX
Instrument type: LC-ESI-QTOF
Ms type: MS2
Ion mode: NEGATIVE
Collision energy: 40
Fragmentation mode: CID
Ionization: ESI
Column name: Zorbax Eclipse Plus C18 2.1 mm x 150 mm, 3.5 um, Agilent
Retention time: 7.476 min
Precursor m/z: 307.0282
Precursor type: [M-H]-
m/z	relative intensity
79.9559	417
80.963	79
94.0035	63
121.9989	58
182.0355	291
183.043	138
184.0502	59
185.961	60
199.0375	80
200.0454	136
210.0308	297
211.0386	807
212.0456	125
213.9557	155
227.0702	391
228.0412	322
228.9791	204
263.0009	173
264.0091	126
290.9952	461
292.0035	81
307.0271	999
308.0282	88
