Mass spectrum: Baclofen; LC-ESI-QTOF; MS2; 30 V
Name: Baclofen
Class: Pharmaceutical
Formula: C10H12ClNO2
Exact mass: 213.0557
SMILES: NCC(CC(O)=O)c1ccc(Cl)cc1
InChI: InChI=1S/C10H12ClNO2/c11-9-3-1-7(2-4-9)8(6-12)5-10(13)14/h1-4,8H,5-6,12H2,(H,13,14)
Instrument: TripleTOF 5600 SCIEX
Instrument type: LC-ESI-QTOF
Ms type: MS2
Ion mode: POSITIVE
Collision energy: 30
Fragmentation mode: CID
Ionization: ESI
Column name: Zorbax Eclipse Plus C18 2.1 mm x 150 mm, 3.5 um, Agilent
Retention time: 5.336 min
Precursor m/z: 214.0629
Precursor type: [M+H]+
m/z	relative intensity
77.0417	163
115.0547	229
116.0628	235
118.0652	13
119.0732	23
125.0155	51
137.0147	18
141.001	41
143.0463	10
143.0729	38
144.0576	255
151.032	999
154.042	37
155.0264	41
178.0418	29
179.0262	115
196.0516	16
197.0374	13
