Mass spectrum: Ethyl-N-(4-aminophenyl)carbamate; LC-ESI-QTOF; MS2; 60 V
Name: Ethyl-N-(4-aminophenyl)carbamate
Class: Industrial_process
Formula: C9H12N2O2
Exact mass: 180.0899
SMILES: CCOC(=O)Nc1ccc(cc1)N
InChI: InChI=1S/C9H12N2O2/c1-2-13-9(12)11-8-5-3-7(10)4-6-8/h3-6H,2,10H2,1H3,(H,11,12)
Instrument: TripleTOF 5600 SCIEX
Instrument type: LC-ESI-QTOF
Ms type: MS2
Ion mode: POSITIVE
Collision energy: 60
Fragmentation mode: CID
Ionization: ESI
Column name: Zorbax Eclipse Plus C18 2.1 mm x 150 mm, 3.5 um, Agilent
Retention time: 4.863 min
Precursor m/z: 181.0972
Precursor type: [M+H]+
m/z	relative intensity
51.0273	10
53.0448	241
54.0382	16
65.0427	886
66.037	16
66.0497	193
67.0435	31
77.0401	12
78.0366	27
79.0432	31
80.0519	999
81.0604	56
82.0662	18
90.0351	638
91.0426	27
91.0556	10
92.0504	387
93.0587	886
105.0452	35
106.0527	60
107.0601	522
107.098	14
108.0449	12
108.0679	187
109.076	22
134.0467	29
135.0542	29
