Mass spectrum: Irbesartan; LC-ESI-QTOF; MS2; 80 V
Name: Irbesartan
Class: Pharmaceutical
Formula: C25H28N6O
Exact mass: 428.2325
SMILES: CCCCC1=NC2(CCCC2)C(=O)N1Cc3ccc(cc3)c4ccccc4c5n[nH]nn5
InChI: InChI=1S/C25H28N6O/c1-2-3-10-22-26-25(15-6-7-16-25)24(32)31(22)17-18-11-13-19(14-12-18)20-8-4-5-9-21(20)23-27-29-30-28-23/h4-5,8-9,11-14H,2-3,6-7,10,15-17H2,1H3,(H,27,28,29,30)
Instrument: TripleTOF 5600 SCIEX
Instrument type: LC-ESI-QTOF
Ms type: MS2
Ion mode: POSITIVE
Collision energy: 80
Fragmentation mode: CID
Ionization: ESI
Column name: Zorbax Eclipse Plus C18 2.1 mm x 150 mm, 3.5 um, Agilent
Retention time: 9.345 min
Precursor m/z: 429.2397
Precursor type: [M+H]+
m/z	relative intensity
67.0574	24
77.0415	69
80.0515	25
84.0831	126
115.0544	17
127.054	39
128.0513	17
129.0456	17
138.0466	11
139.054	30
140.0496	73
150.047	23
151.0546	278
152.0622	481
153.0694	162
154.0649	21
163.0545	129
164.0564	115
165.0694	346
166.0657	49
167.073	57
168.0674	13
176.0514	13
177.058	90
178.066	256
179.0729	347
180.081	418
181.0755	19
189.0575	46
190.0654	496
191.0712	126
192.0701	317
205.0766	999
206.0838	372
207.0917	78
