Mass spectrum: Sulfamerazine; LC-ESI-QTOF; MS2; 130 V
Name: Sulfamerazine
Class: Antimicrobial; Pharmaceutical
Formula: C11H12N4O2S
Exact mass: 264.0681
SMILES: CC1=NC(=NC=C1)NS(=O)(=O)C2=CC=C(C=C2)N
InChI: InChI=1S/C11H12N4O2S/c1-8-6-7-13-11(14-8)15-18(16,17)10-4-2-9(12)3-5-10/h2-7H,12H2,1H3,(H,13,14,15)
Instrument: TripleTOF 5600 SCIEX
Instrument type: LC-ESI-QTOF
Ms type: MS2
Ion mode: POSITIVE
Collision energy: 130
Fragmentation mode: CID
Ionization: ESI
Column name: Zorbax Eclipse Plus C18 2.1 mm x 150 mm, 3.5 um, Agilent
Retention time: 5.769 min
Precursor m/z: 265.0754
Precursor type: [M+H]+
m/z	relative intensity
52.0294	64
53.0465	204
54.0417	64
65.0309	115
65.0451	999
66.0414	192
67.0351	102
74.0221	115
80.0532	307
81.0469	51
82.0526	51
