Mass spectrum: Reactive Orange; LC-ESI-QTOF; MS2; 40 V
Name: Reactive Orange
Formula: C20H19N3O11S3
Exact mass: 573.0182
SMILES: CC(=O)NC1=CC2=C(C(=C(C=C2C=C1)S(=O)(=O)O)N=NC3=CC=C(C=C3)S(=O)(=O)CCOS(=O)(=O)O)O
InChI: InChI=1S/C20H19N3O11S3/c1-12(24)21-15-3-2-13-10-18(36(28,29)30)19(20(25)17(13)11-15)23-22-14-4-6-16(7-5-14)35(26,27)9-8-34-37(31,32)33/h2-7,10-11,25H,8-9H2,1H3,(H,21,24)(H,28,29,30)(H,31,32,33)
Instrument: TripleTOF 6600 SCIEX
Instrument type: LC-ESI-QTOF
Ms type: MS2
Ion mode: NEGATIVE
Collision energy: 40
Fragmentation mode: CID
Ionization: ESI
Column name: Zorbax Eclipse Plus C18 2.1 mm x 150 mm, 3.5 um, Agilent
Retention time: 5.751 min
Precursor m/z: 285.5022
Precursor type: [M-2H]2-
m/z	relative intensity
63.9619	11
76.0307	0
79.9569	160
80.9646	3
90.9849	8
93.0339	0
95.9511	1
96.6585	3
96.9598	999
97.9597	0
107.0373	0
116.0506	1
117.0331	0
127.0416	1
128.049	5
129.053	61
130.0297	0
130.054	5
131.0342	0
132.0444	0
139.9928	1
144.045	116
145.0296	2
145.0484	2
155.0046	0
155.0379	3
156.0439	7
157.0464	3
158.0229	7
158.061	0
159.0321	0
167.0154	5
169.042	0
170.0605	5
171.0382	1
171.0674	5
171.4966	0
172.0407	266
173.0468	41
174.054	1
182.026	1
183.0117	1
183.0532	1
184.0388	8
186.0186	4
186.0525	1
187.0625	2
198.0549	9
199.0636	12
200.0346	112
201.0395	1
202.0506	1
208.0069	5
209.998	7
214.0475	1
215.0578	10
220.0743	0
227.0444	1
231.0713	1
232.0758	3
233.0831	2
234.0914	1
235.0059	1
235.2558	0
236.0022	270
236.2629	1
237.009	371
238.0121	4
247.0979	0
248.0713	1
249.0788	1
249.9771	1
250.0154	1
251.0238	4
260.0743	0
263.159	0
263.9963	265
264.9991	3
266.0117	1
273.0778	1
275.0945	15
276.0669	1
276.1001	1
276.9919	2
278.0115	31
278.1313	0
279.02	252
280.0223	4
288.0768	0
290.0831	0
291.0891	7
292.0989	0
293.0245	1
303.102	0
312.0324	2
313.0394	1
323.0632	1
324.0677	1
340.0616	0
355.0504	1
366.0783	6
382.0711	2
383.055	0
394.0848	5
446.0353	1
474.0395	2
