Mass spectrum: Nevirapine; LC-ESI-QTOF; MS2; 50 V
Name: Nevirapine
Class: Pharmaceutical
Formula: C15H14N4O
Exact mass: 266.1168
SMILES: Cc1ccnc2N(C3CC3)c4ncccc4C(=O)Nc12
InChI: InChI=1S/C15H14N4O/c1-9-6-8-17-14-12(9)18-15(20)11-3-2-7-16-13(11)19(14)10-4-5-10/h2-3,6-8,10H,4-5H2,1H3,(H,18,20)
Instrument: TripleTOF 5600 SCIEX
Instrument type: LC-ESI-QTOF
Ms type: MS2
Ion mode: POSITIVE
Collision energy: 50
Fragmentation mode: CID
Ionization: ESI
Column name: Zorbax Eclipse Plus C18 2.1 mm x 150 mm, 3.5 um, Agilent
Retention time: 7.301 min
Precursor m/z: 267.124
Precursor type: [M+H]+
m/z	relative intensity
51.0281	10
65.0411	19
66.0371	14
67.0445	33
77.0403	19
78.0364	163
79.044	84
80.0524	564
81.0597	9
89.0405	11
90.0351	16
91.0546	14
92.0379	22
92.0492	32
93.046	102
94.0536	36
95.0608	15
103.0286	12
104.0488	18
105.0448	115
106.0533	18
107.0606	289
108.0684	47
116.0488	36
117.0457	84
118.0529	45
119.0539	43
120.0555	23
121.0387	35
128.0505	16
130.0639	22
131.0599	145
132.067	37
133.0747	33
134.071	40
141.045	11
142.053	16
143.0595	40
144.0678	61
145.0758	48
146.0711	49
147.084	30
148.0496	11
154.0518	28
155.0603	103
156.0628	47
157.0646	51
158.071	99
159.0553	57
160.063	40
160.0865	23
161.0706	78
167.0605	17
168.0557	51
169.064	44
170.0715	238
171.0784	133
172.0864	56
173.0702	14
180.0578	26
181.0639	89
182.0716	370
183.078	194
184.0871	533
185.0616	91
187.0616	27
194.0724	25
195.0792	36
196.0509	11
196.0854	68
197.0827	999
198.0894	883
199.0742	43
199.0968	49
200.0815	25
206.0708	36
207.0786	49
208.0763	84
209.0576	17
209.0815	73
210.0665	231
210.0908	37
211.0703	105
211.0965	45
212.0764	89
220.0878	25
221.0906	51
222.092	53
223.0981	143
224.0824	17
224.1049	23
225.0775	419
226.0853	659
227.093	641
233.0823	22
234.0647	12
234.0903	18
235.0751	22
235.098	11
236.0741	49
237.0776	191
237.1139	13
239.0933	16
247.0983	13
248.1036	10
249.1133	39
250.0959	27
251.093	346
252.1005	24
265.1086	12
267.1244	42
