Mass spectrum: Triadimefon; LC-ESI-QTOF; MS2; 60 V
Name: Triadimefon
Class: Fungicide; Transformation_product
Formula: C14H16ClN3O2
Exact mass: 293.0931
SMILES: CC(C)(C)C(=O)C(N1C=NC=N1)OC2=CC=C(C=C2)Cl
InChI: InChI=1S/C14H16ClN3O2/c1-14(2,3)12(19)13(18-9-16-8-17-18)20-11-6-4-10(15)5-7-11/h4-9,13H,1-3H3
Instrument: TripleTOF 5600 SCIEX
Instrument type: LC-ESI-QTOF
Ms type: MS2
Ion mode: POSITIVE
Collision energy: 60
Fragmentation mode: CID
Ionization: ESI
Column name: Zorbax Eclipse Plus C18 2.1 mm x 150 mm, 3.5 um, Agilent
Retention time: 12.319 min
Precursor m/z: 294.1004
Precursor type: [M+H]+
m/z	relative intensity
37.0074	16
38.0153	20
39.0232	171
41.039	382
42.0468	16
51.0241	11
55.0548	163
57.0705	450
63.0232	11
65.0385	60
67.0548	23
69.0701	202
70.0781	122
72.9845	125
74.0153	48
75.0231	216
77.039	203
84.9844	14
91.0543	123
93.0345	67
94.0417	97
99.0001	999
101.0382	11
102.0477	22
110.9999	751
113.0151	109
119.0494	20
120.0566	26
125.0161	23
126.9948	246
127.0316	13
128.0026	10
129.0104	79
131.0476	11
139.0063	88
141.0099	151
155.0267	28
175.0774	20
