Mass spectrum: Pregabalin; LC-ESI-QTOF; MS2; 50 V
Name: Pregabalin
Class: Pharmaceutical
Formula: C8H17NO2
Exact mass: 159.1259
SMILES: CC(C)C[C@H](CN)CC(O)=O
InChI: InChI=1S/C8H17NO2/c1-6(2)3-7(5-9)4-8(10)11/h6-7H,3-5,9H2,1-2H3,(H,10,11)/t7-/m0/s1
Instrument: TripleTOF 5600 SCIEX
Instrument type: LC-ESI-QTOF
Ms type: MS2
Ion mode: POSITIVE
Collision energy: 50
Fragmentation mode: CID
Ionization: ESI
Column name: Zorbax Eclipse Plus C18 2.1 mm x 150 mm, 3.5 um, Agilent
Retention time: 5.167 min
Precursor m/z: 160.1332
Precursor type: [M+H]+
m/z	relative intensity
43.0263	50
53.0446	56
55.0234	301
55.0401	31
55.0596	999
57.0743	31
59.0534	100
65.0426	62
68.0526	75
69.0749	87
77.0412	81
79.0573	50
81.0717	37
82.0657	37
83.0536	31
83.0865	69
91.0541	56
