Mass spectrum: Tolnaftate; LC-ESI-QTOF; MS2; 10 V
Name: Tolnaftate
Class: Fungicide; Pharmaceutical
Formula: C19H17NOS
Exact mass: 307.1031
SMILES: CC1=CC(=CC=C1)N(C)C(=S)OC2=CC3=CC=CC=C3C=C2
InChI: InChI=1S/C19H17NOS/c1-14-6-5-9-17(12-14)20(2)19(22)21-18-11-10-15-7-3-4-8-16(15)13-18/h3-13H,1-2H3
Instrument: TripleTOF 5600 SCIEX
Instrument type: LC-ESI-QTOF
Ms type: MS2
Ion mode: POSITIVE
Collision energy: 10
Fragmentation mode: CID
Ionization: ESI
Column name: Zorbax Eclipse Plus C18 2.1 mm x 150 mm, 3.5 um, Agilent
Retention time: 15.53 min
Precursor m/z: 308.1104
Precursor type: [M+H]+
m/z	relative intensity
120.0789	53
121.0883	14
148.0758	999
159.0242	11
164.0534	550
180.0479	496
