Mass spectrum: Opipramol; LC-ESI-QTOF; MS2; 120 V
Name: Opipramol
Class: Pharmaceutical
Formula: C23H29N3O
Exact mass: 363.2311
SMILES: OCCN1CCN(CCCN2c3ccccc3C=Cc4ccccc24)CC1
InChI: InChI=1S/C23H29N3O/c27-19-18-25-16-14-24(15-17-25)12-5-13-26-22-8-3-1-6-20(22)10-11-21-7-2-4-9-23(21)26/h1-4,6-11,27H,5,12-19H2
Instrument: TripleTOF 5600 SCIEX
Instrument type: LC-ESI-QTOF
Ms type: MS2
Ion mode: POSITIVE
Collision energy: 120
Fragmentation mode: CID
Ionization: ESI
Column name: Zorbax Eclipse Plus C18 2.1 mm x 150 mm, 3.5 um, Agilent
Retention time: 7.242 min
Precursor m/z: 364.2383
Precursor type: [M+H]+
m/z	relative intensity
42.0418	269
45.0405	73
45.0482	19
45.0592	19
51.0284	44
56.0544	107
58.0703	29
68.0525	39
69.0486	44
70.0687	186
74.0179	34
75.0261	117
77.0402	284
82.0673	68
83.0613	200
89.04	39
97.0757	171
98.0838	137
100.0755	97
101.0385	146
102.0449	24
111.0907	19
115.0534	44
125.0395	24
126.0444	29
127.0549	34
128.0491	68
128.0604	58
129.0439	24
139.0536	97
140.0483	44
149.0396	24
150.0464	142
151.054	333
152.0615	607
153.0599	24
163.0533	127
164.06	83
165.0706	146
166.064	48
167.0748	34
175.053	78
176.062	999
177.0683	475
178.0771	670
180.0798	19
188.0537	19
189.0706	34
190.0636	156
191.0734	122
192.0803	29
201.0573	34
202.066	142
203.0738	298
204.0807	734
216.0797	48
