Mass spectrum: 3,3`-Dimethoxybenzidine; LC-ESI-QTOF; MS2; 120 V
Name: 3,3`-Dimethoxybenzidine
Formula: C14H16N2O2
Exact mass: 244.1212
SMILES: COC1=C(C=CC(=C1)C2=CC(=C(C=C2)N)OC)N
InChI: InChI=1S/C14H16N2O2/c1-17-13-7-9(3-5-11(13)15)10-4-6-12(16)14(8-10)18-2/h3-8H,15-16H2,1-2H3
Instrument: TripleTOF 6600 SCIEX
Instrument type: LC-ESI-QTOF
Ms type: MS2
Ion mode: POSITIVE
Collision energy: 120
Fragmentation mode: CID
Ionization: ESI
Column name: Zorbax Eclipse Plus C18 2.1 mm x 150 mm, 3.5 um, Agilent
Retention time: 5.188 min
Precursor m/z: 245.1285
Precursor type: [M+H]+
m/z	relative intensity
39.0231	208
50.0146	208
51.0231	346
52.0184	69
53.0397	55
61.0067	97
62.0141	291
63.0223	707
65.0383	208
73.0075	83
74.0153	374
75.0229	319
76.0303	83
77.0379	568
78.0389	180
80.0479	83
86.0141	97
87.0217	152
88.0295	124
89.0379	999
90.0441	138
91.0517	83
98.0156	152
99.0209	83
104.0506	97
105.05	69
113.0382	277
114.0421	180
115.053	416
116.0483	55
126.0454	83
127.0545	55
130.0626	69
140.054	83
