Mass spectrum: Desmetryn; LC-ESI-QTOF; MS2; 150 V
Name: Desmetryn
Class: Herbicide
Formula: C8H15N5S
Exact mass: 213.1048
SMILES: CC(C)NC1=NC(=NC(=N1)NC)SC
InChI: InChI=1S/C8H15N5S/c1-5(2)10-7-11-6(9-3)12-8(13-7)14-4/h5H,1-4H3,(H2,9,10,11,12,13)
Instrument: TripleTOF 6600 SCIEX
Instrument type: LC-ESI-QTOF
Ms type: MS2
Ion mode: POSITIVE
Collision energy: 150
Fragmentation mode: CID
Ionization: ESI
Column name: Zorbax Eclipse Plus C18 2.1 mm x 150 mm, 3.5 um, Agilent
Retention time: 7.281 min
Precursor m/z: 214.1121
Precursor type: [M+H]+
m/z	relative intensity
31.9706	42
37.006	99
38.001	49
38.0135	78
39.0217	171
41.0123	178
42.0198	285
42.0319	42
43.0277	999
43.9701	57
44.9777	406
45.9729	78
46.993	42
53.012	121
55.0269	49
57.0428	57
57.9729	164
58.9806	107
59.9884	135
68.0225	185
84.9828	42
