Mass spectrum: 2-(4-Chlorophenyl)benzimidazole; LC-ESI-QTOF; MS2; 90 V
Name: 2-(4-Chlorophenyl)benzimidazole
Class: Pharmaceutical
Formula: C13H9ClN2
Exact mass: 228.0454
SMILES: C1=CC=C2C(=C1)NC(=N2)C3=CC=C(C=C3)Cl
InChI: InChI=1S/C13H9ClN2/c14-10-7-5-9(6-8-10)13-15-11-3-1-2-4-12(11)16-13/h1-8H,(H,15,16)
Instrument: TripleTOF 5600 SCIEX
Instrument type: LC-ESI-QTOF
Ms type: MS2
Ion mode: POSITIVE
Collision energy: 90
Fragmentation mode: CID
Ionization: ESI
Column name: Zorbax Eclipse Plus C18 2.1 mm x 150 mm, 3.5 um, Agilent
Retention time: 6.754 min
Precursor m/z: 229.0527
Precursor type: [M+H]+
m/z	relative intensity
52.0278	162
64.0381	429
74.0199	383
75.0266	423
76.0248	87
77.0439	365
87.0281	52
88.0343	63
89.043	999
90.0458	226
91.0447	220
92.0521	162
102.0391	63
104.0516	63
111.0017	121
113.0387	238
114.046	63
115.0553	203
116.0495	52
118.0537	58
126.0474	52
127.0536	46
137.0385	110
138.0483	249
139.055	859
140.0501	615
164.0492	679
165.0565	214
166.0669	290
167.0731	75
191.0587	232
192.0678	453
193.0771	110
