Mass spectrum: Tributylphosphine oxide; LC-ESI-QTOF; MS2; 70 V
Name: Tributylphosphine oxide
Class: Industrial_process
Formula: C12H27OP
Exact mass: 218.18
SMILES: CCCC[P](=O)(CCCC)CCCC
InChI: InChI=1S/C12H27OP/c1-4-7-10-14(13,11-8-5-2)12-9-6-3/h4-12H2,1-3H3
Instrument: TripleTOF 5600 SCIEX
Instrument type: LC-ESI-QTOF
Ms type: MS2
Ion mode: POSITIVE
Collision energy: 70
Fragmentation mode: CID
Ionization: ESI
Column name: Zorbax Eclipse Plus C18 2.1 mm x 150 mm, 3.5 um, Agilent
Retention time: 11.114 min
Precursor m/z: 219.1872
Precursor type: [M+H]+
m/z	relative intensity
44.9962	36
55.0587	14
56.9942	36
59.0097	30
61.0233	13
63.0051	999
65.043	11
77.0185	463
78.0254	265
79.0566	10
91.0314	17
91.0551	52
92.0394	77
105.0459	28
105.0691	12
115.0539	26
128.0613	24
129.0694	11
133.0756	11
