Mass spectrum: Temazepam; LC-ESI-QTOF; MS2; 130 V
Name: Temazepam
Class: Pharmaceutical
Formula: C16H13ClN2O2
Exact mass: 300.0666
SMILES: CN1C2=C(C=C(C=C2)Cl)C(=NC(C1=O)O)C3=CC=CC=C3
InChI: InChI=1S/C16H13ClN2O2/c1-19-13-8-7-11(17)9-12(13)14(18-15(20)16(19)21)10-5-3-2-4-6-10/h2-9,15,20H,1H3
Instrument: TripleTOF 6600 SCIEX
Instrument type: LC-ESI-QTOF
Ms type: MS2
Ion mode: POSITIVE
Collision energy: 130
Fragmentation mode: CID
Ionization: ESI
Column name: Zorbax Eclipse Plus C18 2.1 mm x 150 mm, 3.5 um, Agilent
Retention time: 10.497 min
Precursor m/z: 301.0738
Precursor type: [M+H]+
m/z	relative intensity
35.9979	11
37.0061	84
38.0137	55
39.0213	210
46.9662	23
48.9826	55
49.0059	34
50.0134	312
51.0219	599
52.0167	11
59.9967	60
61.0054	201
62.0131	382
63.0212	651
64.0166	45
64.0287	38
65.0367	158
66.0449	23
71.9981	11
72.9822	294
73.005	114
74.0133	726
75.0082	23
75.0209	374
76.0157	31
76.0284	99
77.0374	386
78.0435	31
83.9724	11
83.9959	11
84.982	25
85.0053	50
86.0128	111
87.0208	156
88.017	42
88.0282	41
89.0367	632
90.0316	12
90.043	28
91.0508	20
96.9816	26
97.0055	26
97.9771	12
98.0131	321
99.0122	434
100.0158	137
100.0283	58
101.0361	38
102.0429	60
104.0477	34
109.005	15
110.0125	74
111.0204	52
112.0181	15
113.0356	214
114.0321	60
115.0525	269
116.0452	28
121.0063	11
122.0124	125
123.0078	31
123.0205	152
123.992	20
124.0286	85
125.036	130
126.0442	176
127.038	34
127.0497	28
128.0564	14
129.0472	14
136.0174	11
137.0359	93
138.0425	91
139.0526	396
140.0477	214
147.0069	11
148.0284	41
149.0366	245
150.0445	999
151.0496	253
152.0592	130
153.0566	15
161.0366	55
162.0449	156
163.0519	651
164.054	348
165.0673	147
166.0623	61
174.0365	33
175.0396	275
176.0481	128
177.0553	195
178.0629	34
188.0462	34
189.0563	25
190.0633	39
191.0601	36
192.0657	53
202.0504	15
203.0645	11
204.055	26
