Mass spectrum: 2-Mercaptobenzoxazole; LC-ESI-QTOF; MS2; 70 V
Name: 2-Mercaptobenzoxazole
Class: Industrial_process
Formula: C7H5NOS
Exact mass: 151.0092
SMILES: S=C1Nc2ccccc2O1
InChI: InChI=1S/C7H5NOS/c10-7-8-5-3-1-2-4-6(5)9-7/h1-4H,(H,8,10)
Instrument: TripleTOF 5600 SCIEX
Instrument type: LC-ESI-QTOF
Ms type: MS2
Ion mode: POSITIVE
Collision energy: 70
Fragmentation mode: CID
Ionization: ESI
Column name: Zorbax Eclipse Plus C18 2.1 mm x 150 mm, 3.5 um, Agilent
Retention time: 8.264 min
Precursor m/z: 152.0165
Precursor type: [M+H]+
m/z	relative intensity
45.9823	78
59.9936	109
60.9781	999
65.0412	312
74.0181	62
80.0495	93
90.0341	93
