Mass spectrum: Abacavir; LC-ESI-QTOF; MS2; 90 V
Name: Abacavir
Class: Pharmaceutical
Formula: C14H18N6O
Exact mass: 286.1542
SMILES: Nc1nc(NC2CC2)c3ncn([C@@H]4C[C@H](CO)C=C4)c3n1
InChI: InChI=1S/C14H18N6O/c15-14-18-12(17-9-2-3-9)11-13(19-14)20(7-16-11)10-4-1-8(5-10)6-21/h1,4,7-10,21H,2-3,5-6H2,(H3,15,17,18,19)/t8-,10+/m1/s1
Instrument: TripleTOF 5600 SCIEX
Instrument type: LC-ESI-QTOF
Ms type: MS2
Ion mode: POSITIVE
Collision energy: 90
Fragmentation mode: CID
Ionization: ESI
Column name: Zorbax Eclipse Plus C18 2.1 mm x 150 mm, 3.5 um, Agilent
Retention time: 5.094 min
Precursor m/z: 287.1615
Precursor type: [M+H]+
m/z	relative intensity
43.039	39
53.0204	28
53.0448	10
54.0267	24
54.0389	16
55.0351	99
58.0708	15
65.0183	72
65.0417	48
66.0251	23
66.0372	13
67.0588	161
68.0279	34
68.0523	21
77.0427	999
78.0376	34
79.0578	294
80.027	112
81.0358	34
81.0474	11
82.0425	53
92.0262	114
93.0335	10
93.0468	15
94.0412	33
95.0606	15
105.0448	29
106.0277	10
106.0402	35
107.0361	281
108.0438	216
109.0517	138
119.0352	29
121.0514	15
132.0561	13
133.0421	66
134.0471	170
150.0641	21
175.0725	39
