Mass spectrum: Clopidogrel carboxylic acid; LC-ESI-QTOF; MS2; 90 V
Name: Clopidogrel carboxylic acid
Class: Pharmaceutical; Transformation_product-Metabolite
Formula: C15H14ClNO2S
Exact mass: 307.0434
SMILES: C1CN(CC2=C1SC=C2)C(C3=CC=CC=C3Cl)C(=O)O
InChI: InChI=1S/C15H14ClNO2S/c16-12-4-2-1-3-11(12)14(15(18)19)17-7-5-13-10(9-17)6-8-20-13/h1-4,6,8,14H,5,7,9H2,(H,18,19)
Instrument: TripleTOF 6600 SCIEX
Instrument type: LC-ESI-QTOF
Ms type: MS2
Ion mode: POSITIVE
Collision energy: 90
Fragmentation mode: CID
Ionization: ESI
Column name: Zorbax Eclipse Plus C18 2.1 mm x 150 mm, 3.5 um, Agilent
Retention time: 6.621 min
Precursor m/z: 308.0507
Precursor type: [M+H]+
m/z	relative intensity
49.0079	13
50.0157	59
51.0238	268
63.0235	25
72.9846	15
77.0395	999
78.0467	62
89.0391	129
90.0466	50
98.9999	63
105.045	22
113.0153	30
117.0566	11
125.0155	144
134.0369	12
