Mass spectrum: Azithromycin; LC-ESI-QTOF; MS2; 80 V
Name: Azithromycin
Class: Pharmaceutical
Formula: C38H72N2O12
Exact mass: 748.5085
SMILES: CC[C@H]1OC(=O)[C@H](C)[C@@H](O[C@H]2C[C@@](C)(OC)[C@@H](O)[C@H](C)O2)C(C)[C@@H](O[C@@H]3O[C@H](C)C[C@@H]([C@H]3O)N(C)C)[C@](C)(O)C[C@@H](C)CN(C)[C@H](C)[C@@H](O)[C@]1(C)O
InChI: InChI=1S/C38H72N2O12/c1-15-27-38(10,46)31(42)24(6)40(13)19-20(2)17-36(8,45)33(52-35-29(41)26(39(11)12)16-21(3)48-35)22(4)30(23(5)34(44)50-27)51-28-18-37(9,47-14)32(43)25(7)49-28/h20-33,35,41-43,45-46H,15-19H2,1-14H3/t20-,21-,22?,23-,24-,25+,26+,27-,28+,29-,30+,31-,32+,33-,35+,36-,37-,38-/m1/s1
Instrument: TripleTOF 5600 SCIEX
Instrument type: LC-ESI-QTOF
Ms type: MS2
Ion mode: POSITIVE
Collision energy: 80
Fragmentation mode: CID
Ionization: ESI
Column name: Zorbax Eclipse Plus C18 2.1 mm x 150 mm, 3.5 um, Agilent
Retention time: 6.249 min
Precursor m/z: 749.5158
Precursor type: [M+H]+
m/z	relative intensity
43.0242	11
44.0659	11
55.0608	53
58.0693	15
59.0529	11
59.0613	11
70.066	17
72.0846	299
73.0642	11
81.0718	28
83.0512	999
84.0828	28
85.0288	15
86.0632	11
87.0456	108
88.0772	124
95.0503	11
98.0612	19
98.0968	443
99.0805	26
99.1057	22
100.0761	35
109.062	11
110.0953	15
113.0595	79
114.0911	53
115.0749	31
116.0699	276
116.1066	449
121.0995	22
123.1219	15
125.0997	11
127.0743	24
128.1086	13
138.1301	24
156.1385	50
158.1172	489
174.1518	24
182.1523	13
186.15	33
274.2013	22
300.2214	24
398.2864	22
416.3027	31
434.3109	26
457.333	15
