Mass spectrum: Uric acid; LC-ESI-QTOF; MS2; 60 V
Name: Uric acid
Class: Natural_product
Formula: C5H4N4O3
Exact mass: 168.0283
InChI: InChI=1S/C5H4N4O3/c10-3-1-2(7-4(11)6-1)8-5(12)9-3/h(H4,6,7,8,9,10,11,12)
Instrument: TripleTOF 5600 SCIEX
Instrument type: LC-ESI-QTOF
Ms type: CID
Ion mode: POSITIVE
Collision energy: 60
Ionization: ESI
Column name: Zorbax Eclipse Plus C18 2.1 mm x 150 mm, 3.5 um, Agilent
Retention time: 2.079 min
Precursor m/z: 169.0356
Precursor type: [M+H]+
m/z	relative intensity
43.0291	635
44.0125	168
53.0133	999
55.0289	220
68.0251	90
69.0084	337
69.9921	90
70.041	142
96.0192	116
