Mass spectrum: Kresoxim-methyl; LC-ESI-QTOF; MS2; 130 V
Name: Kresoxim-methyl
Class: Fungicide
Formula: C18H19NO4
Exact mass: 313.1314
SMILES: CC1=CC=CC=C1OCC2=CC=CC=C2C(=NOC)C(=O)OC
InChI: InChI=1S/C18H19NO4/c1-13-8-4-7-11-16(13)23-12-14-9-5-6-10-15(14)17(19-22-3)18(20)21-2/h4-11H,12H2,1-3H3
Instrument: TripleTOF 6600 SCIEX
Instrument type: LC-ESI-QTOF
Ms type: MS2
Ion mode: POSITIVE
Collision energy: 130
Fragmentation mode: CID
Ionization: ESI
Column name: Zorbax Eclipse Plus C18 2.1 mm x 150 mm, 3.5 um, Agilent
Retention time: 13.809 min
Precursor m/z: 314.1387
Precursor type: [M+H]+
m/z	relative intensity
37.0064	63
38.0144	77
39.0225	311
50.0149	170
51.0227	389
60.0002	35
61.0063	184
62.0149	290
63.0227	715
64.0166	35
64.03	35
65.0373	120
73.0065	35
74.0138	297
75.0229	219
76.0293	148
77.0375	453
78.0449	49
85.0072	35
86.0155	99
87.0216	120
88.017	35
88.03	35
89.0376	729
91.0512	28
98.0152	205
99.0214	141
100.0285	70
101.0396	63
102.0436	148
109.0059	35
110.0131	56
111.0204	42
113.0364	120
115.0542	212
117.0552	28
122.013	85
123.0205	63
124.0299	35
125.0366	141
126.0449	318
127.0525	85
128.0604	28
137.036	56
138.0441	42
139.0525	269
140.0497	85
149.0386	155
150.0445	999
151.0535	588
152.0585	361
161.0392	35
162.0466	99
163.0521	517
164.061	198
165.0687	170
174.0436	92
175.0469	99
176.0594	304
177.0574	106
178.0783	42
179.0576	42
187.0515	35
188.0474	63
189.0618	28
190.0643	127
201.0645	35
