Mass spectrum: Linezolid; LC-ESI-QTOF; MS2; 60 V
Name: Linezolid
Class: Pharmaceutical
Formula: C16H20FN3O4
Exact mass: 337.1438
SMILES: CC(=O)NCC1CN(C(=O)O1)C2=CC(=C(C=C2)N3CCOCC3)F
InChI: InChI=1S/C16H20FN3O4/c1-11(21)18-9-13-10-20(16(22)24-13)12-2-3-15(14(17)8-12)19-4-6-23-7-5-19/h2-3,8,13H,4-7,9-10H2,1H3,(H,18,21)
Instrument: TripleTOF 5600 SCIEX
Instrument type: LC-ESI-QTOF
Ms type: MS2
Ion mode: POSITIVE
Collision energy: 60
Fragmentation mode: CID
Ionization: ESI
Column name: Zorbax Eclipse Plus C18 2.1 mm x 150 mm, 3.5 um, Agilent
Retention time: 6.936 min
Precursor m/z: 338.1511
Precursor type: [M+H]+
m/z	relative intensity
43.0175	11
45.0337	11
56.0498	136
75.0227	13
77.0389	31
78.0322	11
83.029	15
89.0392	29
91.0542	22
95.0294	29
97.0441	20
101.0376	24
103.0546	18
104.049	43
106.0664	18
107.0297	36
108.037	40
109.0455	111
110.0476	77
111.0475	61
112.0555	15
115.0558	65
116.0502	138
117.0575	95
118.065	61
121.0447	11
122.0399	104
122.0552	13
123.0481	104
124.0562	147
125.0506	88
126.0345	13
126.0699	13
128.051	36
129.0568	31
130.0658	93
131.0619	59
132.0692	18
133.0446	24
133.0756	43
134.0409	74
135.0483	567
136.0555	329
137.0595	336
138.0673	118
139.0673	68
140.0485	22
141.0569	36
142.0652	115
143.067	74
144.082	34
145.0421	18
145.075	20
146.0405	72
147.0487	79
148.0563	999
149.0579	286
150.066	168
151.0671	272
152.0506	20
152.0743	97
153.083	81
154.0684	27
155.0591	18
156.069	72
157.0768	54
158.0687	11
159.0929	22
160.055	36
161.0642	111
162.0513	15
162.0713	208
163.0673	315
164.0752	49
165.0485	9
165.0829	274
166.0893	18
167.0614	20
167.0966	18
168.0684	45
169.077	211
170.082	29
171.0922	29
172.0559	84
173.0531	22
173.0662	15
174.0594	320
175.0667	70
176.0724	54
177.0812	152
178.0901	27
179.0608	47
179.0997	36
180.0836	24
181.0881	59
182.0827	11
183.0913	15
185.1058	11
186.0727	11
186.1046	11
187.0676	111
188.0726	34
189.0824	143
190.0914	27
191.0983	120
195.0931	113
196.101	43
201.0844	20
203.0962	15
205.0804	13
209.1099	29
215.1175	13
