Mass spectrum: 10,11-Dihydrocarbamazepine; LC-ESI-QTOF; MS2; 60 V
Name: 10,11-Dihydrocarbamazepine
Class: Pharmaceutical; Metabolite
Formula: C15H14N2O
Exact mass: 238.1106
SMILES: NC(=O)N1c2ccccc2CCc3ccccc13
InChI: InChI=1S/C15H14N2O/c16-15(18)17-13-7-3-1-5-11(13)9-10-12-6-2-4-8-14(12)17/h1-8H,9-10H2,(H2,16,18)
Instrument: TripleTOF 5600 SCIEX
Instrument type: LC-ESI-QTOF
Ms type: MS2
Ion mode: POSITIVE
Collision energy: 60
Fragmentation mode: CID
Ionization: ESI
Column name: Zorbax Eclipse Plus C18 2.1 mm x 150 mm, 3.5 um, Agilent
Retention time: 9.235 min
Precursor m/z: 239.1179
Precursor type: [M+H]+
m/z	relative intensity
65.0424	89
77.0401	50
89.0392	19
90.0472	14
91.0556	422
93.0579	11
101.0378	10
103.0529	14
115.054	25
116.0485	30
117.056	37
118.0645	65
119.0715	11
127.0529	10
128.0491	38
130.0643	13
139.0534	11
140.0504	21
151.0534	52
152.061	126
153.0643	30
154.0646	10
165.0686	63
166.0643	57
167.0724	162
168.0798	14
176.0599	23
177.0642	28
178.068	145
179.0719	193
180.0798	999
181.0869	36
191.0712	60
192.0795	177
193.0876	229
194.0951	164
