Mass spectrum: Nevirapine; LC-ESI-QTOF; MS2; 130 V
Name: Nevirapine
Class: Pharmaceutical
Formula: C15H14N4O
Exact mass: 266.1168
SMILES: Cc1ccnc2N(C3CC3)c4ncccc4C(=O)Nc12
InChI: InChI=1S/C15H14N4O/c1-9-6-8-17-14-12(9)18-15(20)11-3-2-7-16-13(11)19(14)10-4-5-10/h2-3,6-8,10H,4-5H2,1H3,(H,18,20)
Instrument: TripleTOF 5600 SCIEX
Instrument type: LC-ESI-QTOF
Ms type: MS2
Ion mode: POSITIVE
Collision energy: 130
Fragmentation mode: CID
Ionization: ESI
Column name: Zorbax Eclipse Plus C18 2.1 mm x 150 mm, 3.5 um, Agilent
Retention time: 7.301 min
Precursor m/z: 267.124
Precursor type: [M+H]+
m/z	relative intensity
41.0372	50
52.0232	120
52.0363	233
53.0232	31
53.0443	347
62.0423	31
64.0323	69
65.0299	101
65.0417	107
66.038	126
67.0459	107
73.0122	50
74.0182	265
75.0141	303
75.0248	322
75.0626	44
76.0214	999
76.0456	31
77.0293	107
77.0412	227
78.0364	613
78.0679	31
79.045	113
80.0515	132
86.0174	69
87.024	56
88.0203	69
88.032	82
89.0398	335
90.0361	82
90.0484	56
91.0418	44
92.0374	63
92.0507	44
93.0463	50
98.0169	88
99.0096	25
99.0215	50
100.0189	120
101.0372	44
102.0352	88
102.0488	25
103.0288	183
104.0367	44
104.0508	56
105.0454	82
113.0382	44
114.0348	164
115.0422	75
116.0493	31
117.0493	88
118.0529	31
126.0337	37
126.0489	25
127.0424	31
128.0496	63
129.0444	44
131.0598	31
140.0492	56
142.0519	44
143.0596	31
153.0443	31
155.0621	44
166.0491	31
168.0572	50
180.0541	31
