Mass spectrum: Trihexyltetradecylphosphonium; LC-ESI-QTOF; MS2; 80 V
Name: Trihexyltetradecylphosphonium
Formula: [C32H68P]+
Exact mass: 483.5053
SMILES: CCCCCCCCCCCCCC[P+](CCCCCC)(CCCCCC)CCCCCC
InChI: InChI=1S/C32H68P/c1-5-9-13-17-18-19-20-21-22-23-24-28-32-33(29-25-14-10-6-2,30-26-15-11-7-3)31-27-16-12-8-4/h5-32H2,1-4H3/q+1
Instrument: TripleTOF 5600 SCIEX
Instrument type: LC-ESI-QTOF
Ms type: MS2
Ion mode: POSITIVE
Collision energy: 80
Fragmentation mode: CID
Ionization: ESI
Column name: Zorbax Eclipse Plus C18 2.1 mm x 150 mm, 3.5 um, Agilent
Retention time: 17.125 min
Precursor m/z: 483.5053
Precursor type: [M]+
m/z	relative intensity
61.0204	84
62.0281	280
75.0355	173
76.0434	670
89.0503	158
90.0581	302
103.0662	169
104.0738	72
117.0821	228
131.0991	206
145.1144	257
159.1303	385
173.1464	256
187.1622	388
201.1781	410
215.1929	278
229.2091	621
243.2255	375
257.2409	454
271.2566	841
285.2719	535
299.2872	294
313.3034	810
327.3187	245
341.335	413
355.3496	306
369.3651	342
383.3811	518
397.3962	317
399.4112	191
411.413	145
425.4269	211
483.5066	999
