Mass spectrum: 1,3-Bis(2-methylphenyl)urea; LC-ESI-QTOF; MS2; 100 V
Name: 1,3-Bis(2-methylphenyl)urea
Formula: C15H16N2O
Exact mass: 240.1263
SMILES: CC1=CC=CC=C1NC(=O)NC2=CC=CC=C2C
InChI: InChI=1S/C15H16N2O/c1-11-7-3-5-9-13(11)16-15(18)17-14-10-6-4-8-12(14)2/h3-10H,1-2H3,(H2,16,17,18)
Instrument: TripleTOF 6600 SCIEX
Instrument type: LC-ESI-QTOF
Ms type: MS2
Ion mode: POSITIVE
Collision energy: 100
Fragmentation mode: CID
Ionization: ESI
Column name: Zorbax Eclipse Plus C18 2.1 mm x 150 mm, 3.5 um, Agilent
Retention time: 11.062 min
Precursor m/z: 241.1336
Precursor type: [M+H]+
m/z	relative intensity
37.0072	54
38.0148	38
39.0229	437
40.0303	21
41.0259	11
41.0374	20
42.0333	10
49.0065	17
50.0146	100
51.0225	207
52.0178	23
53.038	10
54.0333	47
62.0142	34
63.0225	67
65.0382	999
66.0459	631
67.0414	27
77.0378	107
78.033	53
91.0534	46
92.0488	226
93.0567	474
106.0647	20
