Mass spectrum: Tenamfetamine; LC-ESI-QTOF; MS2; 40 V
Name: Tenamfetamine
Class: Pharmaceutical
Formula: C10H13NO2
Exact mass: 179.0946
SMILES: CC(CC1=CC2=C(C=C1)OCO2)N
InChI: InChI=1S/C10H13NO2/c1-7(11)4-8-2-3-9-10(5-8)13-6-12-9/h2-3,5,7H,4,6,11H2,1H3
Instrument: TripleTOF 6600 SCIEX
Instrument type: LC-ESI-QTOF
Ms type: MS2
Ion mode: POSITIVE
Collision energy: 40
Fragmentation mode: CID
Ionization: ESI
Column name: Zorbax Eclipse Plus C18 2.1 mm x 150 mm, 3.5 um, Agilent
Retention time: 5.295 min
Precursor m/z: 180.1019
Precursor type: [M+H]+
m/z	relative intensity
39.0229	13
50.0145	10
51.0223	105
55.0172	25
65.0379	65
77.038	999
78.0408	16
79.0537	521
89.0378	12
91.0519	18
93.0334	25
103.053	377
105.0335	60
105.0693	623
115.0546	26
121.0268	55
122.0353	14
133.0644	148
135.0433	470
147.0427	62
148.0528	12
163.073	25
