Mass spectrum: Nevirapine; LC-ESI-QTOF; MS2; 90 V
Name: Nevirapine
Class: Pharmaceutical
Formula: C15H14N4O
Exact mass: 266.1168
SMILES: Cc1ccnc2N(C3CC3)c4ncccc4C(=O)Nc12
InChI: InChI=1S/C15H14N4O/c1-9-6-8-17-14-12(9)18-15(20)11-3-2-7-16-13(11)19(14)10-4-5-10/h2-3,6-8,10H,4-5H2,1H3,(H,18,20)
Instrument: TripleTOF 5600 SCIEX
Instrument type: LC-ESI-QTOF
Ms type: MS2
Ion mode: POSITIVE
Collision energy: 90
Fragmentation mode: CID
Ionization: ESI
Column name: Zorbax Eclipse Plus C18 2.1 mm x 150 mm, 3.5 um, Agilent
Retention time: 7.301 min
Precursor m/z: 267.124
Precursor type: [M+H]+
m/z	relative intensity
41.0358	14
52.0251	25
52.0361	94
53.0279	12
54.0391	16
64.0334	31
65.0296	31
65.0422	123
66.0381	142
67.0454	144
68.056	27
74.0187	27
75.0138	27
75.0259	94
76.0205	240
77.0289	41
77.0411	177
78.0367	999
79.0442	244
80.0518	386
81.054	12
87.025	22
88.0239	37
89.0405	208
90.0356	194
91.0306	20
91.0428	35
91.0541	18
91.0657	14
92.0383	188
93.0461	273
94.051	12
95.0607	10
99.0229	10
100.0183	14
100.0286	14
101.039	110
102.0337	137
103.0295	357
104.0369	50
104.0488	150
105.0447	244
106.0286	10
106.0513	16
107.0605	39
113.0384	16
114.0335	123
115.0416	68
115.0525	20
116.0492	175
117.0469	248
118.0394	25
118.0528	106
119.0529	60
120.055	37
125.0379	10
126.0328	64
127.0417	98
128.0361	12
128.0496	158
128.0758	10
129.0442	200
130.0453	104
130.0638	35
131.0601	125
132.0578	37
133.0655	20
134.0734	14
139.0418	27
140.0491	71
141.0425	117
142.0521	190
143.0596	186
144.0554	75
145.0489	18
145.074	31
146.0708	33
152.0512	20
153.0445	104
153.0602	10
154.0517	110
155.0599	252
156.0568	94
157.0633	64
158.0678	27
159.054	10
164.0533	10
165.0441	16
166.0516	31
167.0587	50
168.0559	181
169.0631	206
170.0713	344
170.0923	16
171.0637	14
171.0776	14
179.06	37
180.055	140
181.0639	89
182.071	223
183.0755	81
184.0881	20
192.0615	14
193.0596	18
194.0706	52
195.0666	96
196.0777	58
197.0815	104
198.0651	35
205.0644	14
206.07	54
207.068	39
208.0745	41
209.0944	10
218.071	14
219.0762	12
220.0806	14
221.083	75
