Mass spectrum: Duloxetine; LC-ESI-QTOF; MS2; 40 V
Name: Duloxetine
Class: Pharmaceutical
Formula: C18H19NOS
Exact mass: 297.1187
SMILES: CNCCC(C1=CC=CS1)OC2=CC=CC3=CC=CC=C32
InChI: InChI=1S/C18H19NOS/c1-19-12-11-17(18-10-5-13-21-18)20-16-9-4-7-14-6-2-3-8-15(14)16/h2-10,13,17,19H,11-12H2,1H3
Instrument: TripleTOF 5600 SCIEX
Instrument type: LC-ESI-QTOF
Ms type: MS2
Ion mode: POSITIVE
Collision energy: 40
Fragmentation mode: CID
Ionization: ESI
Column name: Zorbax Eclipse Plus C18 2.1 mm x 150 mm, 3.5 um, Agilent
Retention time: 8.432 min
Precursor m/z: 298.126
Precursor type: [M+H]+
m/z	relative intensity
44.0588	999
97.0113	25
123.0244	55
124.0342	111
127.0503	25
129.0691	30
155.0841	70
157.063	70
165.0682	20
178.0774	40
183.0769	45
221.047	30
239.0652	20
