Mass spectrum: Flecainide meta-O-dealkylated; LC-ESI-QTOF; MS2; 140 V
Name: Flecainide meta-O-dealkylated
Class: Pharmaceutical; Transformation_product; Transformation_product-Metabolite
Formula: C15H19F3N2O3
Exact mass: 332.1348
SMILES: C1CCNC(C1)CNC(=O)C2=C(C=CC(=C2)O)OCC(F)(F)F
InChI: InChI=1S/C15H19F3N2O3/c16-15(17,18)9-23-13-5-4-11(21)7-12(13)14(22)20-8-10-3-1-2-6-19-10/h4-5,7,10,19,21H,1-3,6,8-9H2,(H,20,22)
Instrument: TripleTOF 5600 SCIEX
Instrument type: LC-ESI-QTOF
Ms type: MS2
Ion mode: POSITIVE
Collision energy: 140
Fragmentation mode: CID
Ionization: ESI
Column name: Zorbax Eclipse Plus C18 2.1 mm x 150 mm, 3.5 um, Agilent
Retention time: 5.586 min
Precursor m/z: 333.1421
Precursor type: [M+H]+
m/z	relative intensity
42.0487	21
44.0597	51
51.0323	999
53.0123	34
54.0188	188
56.0581	85
57.0208	38
65.0446	60
66.051	21
68.0551	17
69.0041	21
69.0749	17
71.0351	47
73.0121	21
74.0192	90
75.0278	90
77.042	85
79.0211	64
79.0565	55
80.0282	98
81.0346	21
81.062	21
82.0102	47
82.0684	17
84.0838	94
95.0297	34
99.0241	124
108.0225	30
114.0259	21
