Mass spectrum: Carazolol; LC-ESI-QTOF; MS2; 140 V
Name: Carazolol
Class: Pharmaceutical
Formula: C18H22N2O2
Exact mass: 298.1681
SMILES: CC(C)NCC(O)COc1cccc2[nH]c3ccccc3c12
InChI: InChI=1S/C18H22N2O2/c1-12(2)19-10-13(21)11-22-17-9-5-8-16-18(17)14-6-3-4-7-15(14)20-16/h3-9,12-13,19-21H,10-11H2,1-2H3
Instrument: TripleTOF 5600 SCIEX
Instrument type: LC-ESI-QTOF
Ms type: MS2
Ion mode: POSITIVE
Collision energy: 140
Fragmentation mode: CID
Ionization: ESI
Column name: Zorbax Eclipse Plus C18 2.1 mm x 150 mm, 3.5 um, Agilent
Retention time: 6.882 min
Precursor m/z: 299.1754
Precursor type: [M+H]+
m/z	relative intensity
44.0576	39
56.0547	112
58.0715	101
63.0565	22
65.0425	163
73.0124	33
74.0184	361
75.0267	581
76.0338	158
77.0412	784
78.0495	95
85.0091	45
86.0164	270
86.045	28
87.0249	434
88.0196	56
88.0332	146
89.0411	999
90.0483	56
98.0161	124
99.0244	107
100.0308	33
101.0392	253
102.0326	33
102.0476	270
103.0563	22
110.0167	67
111.0257	39
112.0334	33
113.0391	626
114.0329	79
114.0468	79
115.0548	265
116.0511	28
117.0576	22
123.0242	22
125.0368	45
125.0451	22
126.0466	451
127.0547	451
128.0497	129
128.0625	259
137.039	174
138.048	135
139.0548	880
139.0771	39
140.0502	440
149.0425	50
150.0462	174
151.0547	90
152.0537	84
153.0578	67
154.0655	90
161.0383	50
162.046	84
163.0542	400
164.0535	253
165.0638	84
166.0671	112
174.0477	28
175.0496	28
176.0493	33
177.0588	28
188.0488	73
189.0574	79
190.0662	158
191.0731	33
