Mass spectrum: Itraconazole; LC-ESI-QTOF; MS2; 120 V
Name: Itraconazole
Class: Pharmaceutical
Formula: C35H38Cl2N8O4
Exact mass: 704.2393
SMILES: CCC(C)N1C(=O)N(C=N1)C2=CC=C(C=C2)N3CCN(CC3)C4=CC=C(C=C4)OCC5COC(O5)(CN6C=NC=N6)C7=C(C=C(C=C7)Cl)Cl
InChI: InChI=1S/C35H38Cl2N8O4/c1-3-25(2)45-34(46)44(24-40-45)29-7-5-27(6-8-29)41-14-16-42(17-15-41)28-9-11-30(12-10-28)47-19-31-20-48-35(49-31,21-43-23-38-22-39-43)32-13-4-26(36)18-33(32)37/h4-13,18,22-25,31H,3,14-17,19-21H2,1-2H3
Instrument: TripleTOF 5600 SCIEX
Instrument type: LC-ESI-QTOF
Ms type: MS2
Ion mode: POSITIVE
Collision energy: 120
Fragmentation mode: CID
Ionization: ESI
Column name: Zorbax Eclipse Plus C18 2.1 mm x 150 mm, 3.5 um, Agilent
Retention time: 13.565 min
Precursor m/z: 705.2466
Precursor type: [M+H]+
m/z	relative intensity
89.0383	124
91.0565	249
104.0489	374
105.0463	124
105.0557	124
107.0496	124
116.0447	124
117.0565	124
118.0648	624
119.0701	249
120.0411	124
122.9969	124
124.0053	124
127.0534	124
128.0651	124
130.0651	374
131.0641	124
131.0709	499
132.0589	124
132.0897	249
146.0607	124
146.0897	124
147.0542	124
158.9782	999
160.045	374
160.0766	249
161.0569	374
184.0733	124
186.0653	249
187.0621	374
187.075	124
189.0761	249
223.0806	374
236.0773	374
279.0739	124
279.1069	499
