Mass spectrum: 4,4-Chlorophenoxyphenol; LC-ESI-QTOF; MS2; 70 V
Name: 4,4-Chlorophenoxyphenol
Class: Herbicide
Formula: C12H9ClO2
Exact mass: 220.0291
SMILES: c1cc(ccc1O)Oc2ccc(cc2)Cl
InChI: InChI=1S/C12H9ClO2/c13-9-1-5-11(6-2-9)15-12-7-3-10(14)4-8-12/h1-8,14H
Instrument: TripleTOF 5600 SCIEX
Instrument type: LC-ESI-QTOF
Ms type: MS2
Ion mode: POSITIVE
Collision energy: 70
Fragmentation mode: CID
Ionization: ESI
Column name: Zorbax Eclipse Plus C18 2.1 mm x 150 mm, 3.5 um, Agilent
Retention time: 12.354 min
Precursor m/z: 221.0364
Precursor type: [M+H]+
m/z	relative intensity
65.0439	268
72.9874	194
77.0403	633
79.0581	219
81.0381	121
89.0395	97
91.0556	438
94.0432	170
98.9988	121
103.0534	170
114.0439	121
115.0541	268
127.053	97
128.0624	341
129.0675	97
139.0539	999
