Mass spectrum: Pregabalin; LC-ESI-QTOF; MS2; 40 V
Name: Pregabalin
Class: Pharmaceutical
Formula: C8H17NO2
Exact mass: 159.1259
SMILES: CC(C)C[C@H](CN)CC(O)=O
InChI: InChI=1S/C8H17NO2/c1-6(2)3-7(5-9)4-8(10)11/h6-7H,3-5,9H2,1-2H3,(H,10,11)/t7-/m0/s1
Instrument: TripleTOF 5600 SCIEX
Instrument type: LC-ESI-QTOF
Ms type: MS2
Ion mode: NEGATIVE
Collision energy: 40
Fragmentation mode: CID
Ionization: ESI
Column name: Zorbax Eclipse Plus C18 2.1 mm x 150 mm, 3.5 um, Agilent
Retention time: 5.167 min
Precursor m/z: 158.1187
Precursor type: [M-H]-
m/z	relative intensity
45.0006	999
61.99	360
70.9986	960
114.9876	491
