Mass spectrum: 3,3-Diphenylacrylonitrile; LC-ESI-QTOF; MS2; 130 V
Name: 3,3-Diphenylacrylonitrile
Formula: C15H11N
Exact mass: 205.0891
SMILES: C1=CC=C(C=C1)C(=CC#N)C2=CC=CC=C2
InChI: InChI=1S/C15H11N/c16-12-11-15(13-7-3-1-4-8-13)14-9-5-2-6-10-14/h1-11H
Instrument: TripleTOF 6600 SCIEX
Instrument type: LC-ESI-QTOF
Ms type: MS2
Ion mode: POSITIVE
Collision energy: 130
Fragmentation mode: CID
Ionization: ESI
Column name: Zorbax Eclipse Plus C18 2.1 mm x 150 mm, 3.5 um, Agilent
Retention time: 13.746 min
Precursor m/z: 206.0964
Precursor type: [M+H]+
m/z	relative intensity
49.0063	121
50.0138	893
51.0221	590
61.0056	75
62.0135	90
73.0059	257
74.0136	999
75.01	60
85.0049	121
86.0134	151
87.02	90
97.0063	60
98.0128	242
110.0149	105
122.0119	90
