Mass spectrum: O-tolidine; LC-ESI-QTOF; MS2; 80 V
Name: O-tolidine
Formula: C14H16N2
Exact mass: 212.1313
SMILES: CC1=C(C=CC(=C1)C2=CC(=C(C=C2)N)C)N
InChI: InChI=1S/C14H16N2/c1-9-7-11(3-5-13(9)15)12-4-6-14(16)10(2)8-12/h3-8H,15-16H2,1-2H3
Instrument: TripleTOF 6600 SCIEX
Instrument type: LC-ESI-QTOF
Ms type: MS2
Ion mode: POSITIVE
Collision energy: 80
Fragmentation mode: CID
Ionization: ESI
Column name: Zorbax Eclipse Plus C18 2.1 mm x 150 mm, 3.5 um, Agilent
Retention time: 5.073 min
Precursor m/z: 213.1386
Precursor type: [M+H]+
m/z	relative intensity
51.0241	18
63.0224	33
74.0164	15
77.0389	143
78.0461	21
87.024	15
89.039	21
102.047	27
103.0578	18
106.0659	18
113.0417	18
115.055	57
125.0383	12
126.0482	51
127.0544	100
128.0638	57
129.0467	12
130.0674	21
139.0575	39
140.0518	21
150.0491	121
151.0556	313
152.0631	999
153.0677	88
154.0642	15
155.0664	24
162.051	30
163.0566	173
164.0582	45
165.0684	51
166.0769	12
168.0765	18
176.0622	45
177.0594	24
178.0626	27
178.076	27
180.0813	63
181.0847	18
195.0915	18
