Mass spectrum: 5-Aminosalicylic acid; LC-ESI-QTOF; MS2; 110 V
Name: 5-Aminosalicylic acid
Class: Pharmaceutical
Formula: C7H7NO3
Exact mass: 153.0426
SMILES: C1=CC(=C(C=C1N)C(=O)O)O
InChI: InChI=1S/C7H7NO3/c8-4-1-2-6(9)5(3-4)7(10)11/h1-3,9H,8H2,(H,10,11)
Instrument: TripleTOF 6600 SCIEX
Instrument type: LC-ESI-QTOF
Ms type: MS2
Ion mode: POSITIVE
Collision energy: 110
Fragmentation mode: CID
Ionization: ESI
Column name: Zorbax Eclipse Plus C18 2.1 mm x 150 mm, 3.5 um, Agilent
Retention time: 2.181 min
Precursor m/z: 154.0499
Precursor type: [M+H]+
m/z	relative intensity
35.9994	204
37.0072	788
38.0026	107
38.0147	399
39.0229	338
41.0025	20
44.9969	30
49.0068	117
50.0146	271
51.0109	35
51.0226	112
52.0177	107
53.0016	343
53.0386	46
54.0335	46
59.9987	138
61.0069	999
62.0145	625
63.022	97
73.0066	112
74.0141	210
