Mass spectrum: Norlidocaine; LC-ESI-QTOF; MS2; 100 V
Name: Norlidocaine
Class: Pharmaceutical; Metabolite
Formula: C12H18N2O
Exact mass: 206.1419
SMILES: CCNCC(=O)Nc1c(cccc1C)C
InChI: InChI=1S/C12H18N2O/c1-4-13-8-11(15)14-12-9(2)6-5-7-10(12)3/h5-7,13H,4,8H2,1-3H3,(H,14,15)
Instrument: TripleTOF 5600 SCIEX
Instrument type: LC-ESI-QTOF
Ms type: MS2
Ion mode: POSITIVE
Collision energy: 100
Fragmentation mode: CID
Ionization: ESI
Column name: Zorbax Eclipse Plus C18 2.1 mm x 150 mm, 3.5 um, Agilent
Retention time: 5.349 min
Precursor m/z: 207.1492
Precursor type: [M+H]+
m/z	relative intensity
58.0705	999
65.0413	150
77.0409	892
79.056	141
80.05	44
89.0386	167
91.0556	150
106.0648	282
