Mass spectrum: L-Isoleucine; LC-ESI-QTOF; MS2; 50 V
Name: L-Isoleucine
Class: Food_additive; Personal_care_product
Formula: C6H13NO2
Exact mass: 131.0946
SMILES: CCC(C(C(O)=O)N)C
InChI: InChI=1S/C6H13NO2/c1-3-4(2)5(7)6(8)9/h4-5H,3,7H2,1-2H3,(H,8,9)
Instrument: TripleTOF 5600 SCIEX
Instrument type: LC-ESI-QTOF
Ms type: MS2
Ion mode: POSITIVE
Collision energy: 50
Fragmentation mode: CID
Ionization: ESI
Column name: Zorbax Eclipse Plus C18 2.1 mm x 150 mm, 3.5 um, Agilent
Retention time: 2.357 min
Precursor m/z: 132.1019
Precursor type: [M+H]+
m/z	relative intensity
35.9993	12
37.0075	86
38.0153	80
39.0233	587
41.0391	623
42.0344	231
43.0181	41
43.0424	28
43.0549	22
44.0501	822
44.9978	25
45.0336	208
53.0385	28
55.0207	12
55.0542	96
56.0499	999
57.0212	16
57.0576	520
58.0408	12
58.0657	115
59.0506	25
67.0546	25
68.0256	25
69.0341	51
69.0702	157
70.0653	122
73.0647	16
86.0959	86
