Mass spectrum: Hydroxytorasemide; LC-ESI-QTOF; MS2; 80 V
Name: Hydroxytorasemide
Class: Pharmaceutical; Transformation_product
Formula: C16H20N4O4S
Exact mass: 364.1205
SMILES: CC(C)NC(=O)NS(=O)(=O)c1cnccc1Nc2cccc(c2)CO
InChI: InChI=1S/C16H20N4O4S/c1-11(2)18-16(22)20-25(23,24)15-9-17-7-6-14(15)19-13-5-3-4-12(8-13)10-21/h3-9,11,21H,10H2,1-2H3,(H,17,19)(H2,18,20,22)
Instrument: TripleTOF 5600 SCIEX
Instrument type: LC-ESI-QTOF
Ms type: MS2
Ion mode: NEGATIVE
Collision energy: 80
Fragmentation mode: CID
Ionization: ESI
Column name: Zorbax Eclipse Plus C18 2.1 mm x 150 mm, 3.5 um, Agilent
Retention time: 5.824 min
Precursor m/z: 363.1132
Precursor type: [M-H]-
m/z	relative intensity
47.9694	50
48.9771	50
57.9771	67
63.9633	67
65.0149	56
77.9659	999
78.9736	141
90.0349	90
91.03	468
92.0374	282
93.0453	818
107.0479	73
108.0338	321
108.0567	242
109.0401	56
118.0437	56
167.0611	321
168.0566	174
169.0758	135
178.0532	129
179.0603	445
180.0655	79
181.0635	316
182.0505	62
182.0731	191
192.0562	445
194.0716	333
195.0563	84
196.0509	62
197.073	372
209.0571	50
210.0692	112
