Mass spectrum: Picolinafen; LC-ESI-QTOF; MS2; 60 V
Name: Picolinafen
Class: Herbicide
Formula: C19H12F4N2O2
Exact mass: 376.0835
SMILES: C1=CC(=CC(=C1)OC2=CC=CC(=N2)C(=O)NC3=CC=C(C=C3)F)C(F)(F)F
InChI: InChI=1S/C19H12F4N2O2/c20-13-7-9-14(10-8-13)24-18(26)16-5-2-6-17(25-16)27-15-4-1-3-12(11-15)19(21,22)23/h1-11H,(H,24,26)
Instrument: TripleTOF 6600 SCIEX
Instrument type: LC-ESI-QTOF
Ms type: MS2
Ion mode: POSITIVE
Collision energy: 60
Fragmentation mode: CID
Ionization: ESI
Column name: Zorbax Eclipse Plus C18 2.1 mm x 150 mm, 3.5 um, Agilent
Retention time: 15.501 min
Precursor m/z: 377.0908
Precursor type: [M+H]+
m/z	relative intensity
37.0066	18
38.0142	19
39.022	226
75.0213	22
95.0266	72
123.0334	19
125.0181	24
133.0437	12
141.0556	25
145.0239	999
163.0342	25
170.0385	33
173.0298	103
183.0398	132
190.044	208
191.0413	11
210.0502	213
218.0394	29
238.0462	952
359.0782	28
