Mass spectrum: Iprovalicarb; LC-ESI-QTOF; MS2; 110 V
Name: Iprovalicarb
Class: Fungicide
Formula: C18H28N2O3
Exact mass: 320.21
InChI: InChI=1S/C18H28N2O3/c1-11(2)16(20-18(22)23-12(3)4)17(21)19-14(6)15-9-7-13(5)8-10-15/h7-12,14,16H,1-6H3,(H,19,21)(H,20,22)
Instrument: TripleTOF 6600 SCIEX
Instrument type: LC-ESI-QTOF
Ms type: CID
Ion mode: POSITIVE
Collision energy: 110
Ionization: ESI
Column name: Zorbax Eclipse Plus C18 2.1 mm x 150 mm, 3.5 um, Agilent
Retention time: 11.936 min
Precursor m/z: 321.2173
Precursor type: [M+H]+
m/z	relative intensity
37.0075	27
38.0149	25
39.0233	191
41.0387	51
42.0341	17
49.008	23
50.0152	113
51.023	382
52.0311	19
53.0383	11
55.0546	51
56.0499	19
57.0576	31
61.0072	9
62.0153	29
63.0229	81
65.0387	736
72.0801	11
74.0166	13
75.024	21
76.0312	15
77.0389	999
78.0465	320
79.0545	21
89.0386	29
91.0544	801
93.071	13
102.0464	45
103.0542	304
104.0625	119
105.0444	31
115.0542	187
116.063	17
117.0698	55
