Mass spectrum: Triamterene; LC-ESI-QTOF; MS2; 40 V
Name: Triamterene
Class: Pharmaceutical
Formula: C12H11N7
Exact mass: 253.1076
SMILES: C1=CC=C(C=C1)C2=NC3=C(N=C2N)N=C(N=C3N)N
InChI: InChI=1S/C12H11N7/c13-9-7(6-4-2-1-3-5-6)16-8-10(14)18-12(15)19-11(8)17-9/h1-5H,(H6,13,14,15,17,18,19)
Instrument: TripleTOF 5600 SCIEX
Instrument type: LC-ESI-QTOF
Ms type: MS2
Ion mode: POSITIVE
Collision energy: 40
Fragmentation mode: CID
Ionization: ESI
Column name: Zorbax Eclipse Plus C18 2.1 mm x 150 mm, 3.5 um, Agilent
Retention time: 5.203 min
Precursor m/z: 254.1149
Precursor type: [M+H]+
m/z	relative intensity
77.0432	55
80.0292	11
82.0441	13
89.0421	47
92.0274	62
103.0447	16
104.0516	356
107.0375	13
114.0343	16
116.0507	161
117.059	13
128.0403	10
129.045	20
131.0613	39
134.0479	12
141.0453	211
142.0527	59
143.0615	188
153.0469	16
158.0718	11
166.0392	19
168.0562	307
169.0635	13
183.0669	78
185.083	46
193.0499	49
195.0672	339
210.0776	183
212.0931	124
220.0631	72
227.1054	59
237.0884	999
254.1152	989
