Mass spectrum: 4-Bromoantipyrine; LC-ESI-QTOF; MS2; 120 V
Name: 4-Bromoantipyrine
Class: Industrial_process
Formula: C11H11BrN2O
Exact mass: 266.0055
SMILES: CC1=C(C(=O)N(N1C)C2=CC=CC=C2)Br
InChI: InChI=1S/C11H11BrN2O/c1-8-10(12)11(15)14(13(8)2)9-6-4-3-5-7-9/h3-7H,1-2H3
Instrument: TripleTOF 6600 SCIEX
Instrument type: LC-ESI-QTOF
Ms type: MS2
Ion mode: POSITIVE
Collision energy: 120
Fragmentation mode: CID
Ionization: ESI
Column name: Zorbax Eclipse Plus C18 2.1 mm x 150 mm, 3.5 um, Agilent
Retention time: 7.678 min
Precursor m/z: 267.0128
Precursor type: [M+H]+
m/z	relative intensity
39.0218	166
42.0326	222
50.0139	610
51.0218	999
56.0481	444
77.0368	222
