Mass spectrum: (3-Methyl-2-butenyl)(triphenyl)phosphorane; LC-ESI-QTOF; MS2; 130 V
Name: (3-Methyl-2-butenyl)(triphenyl)phosphorane
Class: Industrial_process
Formula: [C23H24P]+
Exact mass: 331.161
SMILES: CC(=CC[P+](C1=CC=CC=C1)(C2=CC=CC=C2)C3=CC=CC=C3)C
InChI: InChI=1S/C23H24P/c1-20(2)18-19-24(21-12-6-3-7-13-21,22-14-8-4-9-15-22)23-16-10-5-11-17-23/h3-18H,19H2,1-2H3/q+1
Instrument: TripleTOF 6600 SCIEX
Instrument type: LC-ESI-QTOF
Ms type: MS2
Ion mode: POSITIVE
Collision energy: 130
Fragmentation mode: CID
Ionization: ESI
Column name: Zorbax Eclipse Plus C18 2.1 mm x 150 mm, 3.5 um, Agilent
Retention time: 9.017 min
Precursor m/z: 331.161
Precursor type: [M]+
m/z	relative intensity
41.0431	249
56.9931	120
62.0188	87
63.027	194
65.0425	132
74.0184	79
76.0337	62
78.9762	60
79.9843	223
80.9923	316
87.0255	74
89.0409	352
102.0493	133
103.9832	53
107.0071	999
113.0403	117
115.0565	429
126.0488	353
131.0064	127
133.0217	68
139.0572	324
150.0489	317
151.0567	656
152.0645	905
155.0065	80
156.0142	133
157.022	514
180.0138	107
181.0221	437
183.0375	81
