Mass spectrum: Spinosad A; LC-ESI-QTOF; MS2; 130 V
Name: Spinosad A
Class: Insecticide
Formula: C41H65NO10
Exact mass: 731.4608
SMILES: CCC1CCCC(C(C(=O)C2=CC3C4CC(CC4C=CC3C2CC(=O)O1)OC5C(C(C(C(O5)C)OC)OC)OC)C)OC6CCC(C(O6)C)N(C)C
InChI: InChI=1S/C41H65NO10/c1-10-26-12-11-13-34(52-36-17-16-33(42(5)6)23(3)48-36)22(2)37(44)32-20-30-28(31(32)21-35(43)50-26)15-14-25-18-27(19-29(25)30)51-41-40(47-9)39(46-8)38(45-7)24(4)49-41/h14-15,20,22-31,33-34,36,38-41H,10-13,16-19,21H2,1-9H3
Instrument: TripleTOF 6600 SCIEX
Instrument type: LC-ESI-QTOF
Ms type: MS2
Ion mode: POSITIVE
Collision energy: 130
Fragmentation mode: CID
Ionization: ESI
Column name: Zorbax Eclipse Plus C18 2.1 mm x 150 mm, 3.5 um, Agilent
Retention time: 10.391 min
Precursor m/z: 732.4681
Precursor type: [M+H]+
m/z	relative intensity
31.0173	11
39.0223	60
41.0379	182
42.0327	36
43.0172	102
43.0535	10
44.0487	50
45.0328	56
46.0646	26
47.0484	31
53.0376	31
55.0171	27
55.0533	128
56.025	11
56.0489	75
57.0326	41
57.0687	14
58.0644	24
59.012	13
59.0483	86
65.0376	27
67.0535	114
68.025	10
69.0689	134
70.064	95
71.0482	130
71.071	15
72.0438	56
72.0799	78
73.064	18
74.0353	63
75.043	76
77.0378	75
79.0536	109
81.0323	26
81.0689	43
82.0403	47
82.0634	11
83.048	20
83.0849	26
84.0795	47
85.0642	31
85.0872	85
86.095	18
89.059	20
91.0532	62
93.0682	18
95.084	24
97.0638	203
98.0349	24
98.0957	999
99.0433	62
99.0793	36
99.1026	13
101.0588	119
105.0691	14
115.0529	86
115.0737	11
116.0608	17
117.0687	33
124.111	40
125.0577	21
127.0533	54
128.0612	112
129.069	135
130.0748	11
131.0835	17
141.0689	143
142.0765	33
142.1217	141
143.0832	18
151.0542	17
152.0612	78
153.0689	239
154.076	128
155.0597	21
155.0844	182
156.092	17
157.0991	11
165.0689	54
166.0773	26
167.085	41
168.0919	13
169.1008	31
171.0796	14
178.0773	36
179.0846	26
181.0631	15
183.0793	14
191.087	21
193.1001	11
197.0956	11
203.086	13
205.0996	18
