Mass spectrum: Octrizole; LC-ESI-QTOF; MS2; 40 V
Name: Octrizole
Class: Industrial_process
Formula: C20H25N3O
Exact mass: 323.1998
SMILES: CC(C)(C)CC(C)(C)C1=CC(=C(C=C1)O)N2N=C3C=CC=CC3=N2
InChI: InChI=1S/C20H25N3O/c1-19(2,3)13-20(4,5)14-10-11-18(24)17(12-14)23-21-15-8-6-7-9-16(15)22-23/h6-12,24H,13H2,1-5H3
Instrument: TripleTOF 5600 SCIEX
Instrument type: LC-ESI-QTOF
Ms type: MS2
Ion mode: POSITIVE
Collision energy: 40
Fragmentation mode: CID
Ionization: ESI
Column name: Zorbax Eclipse Plus C18 2.1 mm x 150 mm, 3.5 um, Agilent
Retention time: 19.562 min
Precursor m/z: 324.207
Precursor type: [M+H]+
m/z	relative intensity
65.0452	29
91.0576	19
92.054	160
93.0374	27
105.0734	27
107.0523	14
107.0638	10
119.0532	19
120.0576	92
121.0685	16
129.0704	27
133.0681	42
134.0747	116
135.0794	31
139.0565	12
156.0811	21
166.0669	52
167.0762	23
182.0962	19
183.0696	52
184.0769	38
196.074	12
208.11	40
208.1232	12
209.0934	65
210.0911	213
211.0725	27
212.0812	999
224.1071	164
225.1167	40
238.0973	143
252.1124	139
253.1189	240
266.125	25
324.2054	933
