Mass spectrum: Hydrocodone; LC-ESI-QTOF; MS2; 140 V
Name: Hydrocodone
Class: Pharmaceutical
Formula: C18H21NO3
Exact mass: 299.1521
SMILES: CN1CCC23C4C1CC5=C2C(=C(C=C5)OC)OC3C(=O)CC4
InChI: InChI=1S/C18H21NO3/c1-19-8-7-18-11-4-5-13(20)17(18)22-16-14(21-2)6-3-10(15(16)18)9-12(11)19/h3,6,11-12,17H,4-5,7-9H2,1-2H3
Instrument: TripleTOF 6600 SCIEX
Instrument type: LC-ESI-QTOF
Ms type: MS2
Ion mode: POSITIVE
Collision energy: 140
Fragmentation mode: CID
Ionization: ESI
Column name: Zorbax Eclipse Plus C18 2.1 mm x 150 mm, 3.5 um, Agilent
Retention time: 5.331 min
Precursor m/z: 300.1594
Precursor type: [M+H]+
m/z	relative intensity
37.0064	55
38.0147	52
39.0222	199
41.0372	13
42.0324	26
44.0484	39
49.0063	31
50.0144	362
51.0222	628
52.0297	78
59.9976	55
61.0059	194
62.0137	510
63.0218	743
64.0293	10
65.0379	239
73.0053	110
74.0138	820
75.0217	680
76.0292	383
77.0372	917
78.0453	228
83.9984	18
85.0056	105
86.0135	307
87.0216	402
88.0289	325
89.0372	636
91.0528	68
97.0084	21
98.013	181
99.0213	99
100.0306	42
101.037	160
102.0453	617
103.0504	10
105.0439	13
110.0145	34
111.0223	26
113.0369	602
114.0443	118
115.0524	999
116.0617	13
122.0129	21
125.0358	55
126.0445	730
127.0521	386
128.0599	184
129.0427	44
137.0374	28
138.0427	36
139.0534	407
141.0694	31
149.039	31
150.0458	425
151.0539	402
152.0609	360
154.0617	15
155.0557	60
162.046	34
163.0532	162
164.0597	34
165.0678	26
179.0611	15
187.0512	15
