Mass spectrum: Terbinafine; LC-ESI-QTOF; MS2; 150 V
Name: Terbinafine
Class: Pharmaceutical; Fungicide
Formula: C21H25N
Exact mass: 291.1987
SMILES: CN(C\C=C\C#CC(C)(C)C)Cc1cccc2ccccc12
InChI: InChI=1S/C21H25N/c1-21(2,3)15-8-5-9-16-22(4)17-19-13-10-12-18-11-6-7-14-20(18)19/h5-7,9-14H,16-17H2,1-4H3/b9-5+
Instrument: TripleTOF 5600 SCIEX
Instrument type: LC-ESI-QTOF
Ms type: MS2
Ion mode: POSITIVE
Collision energy: 150
Fragmentation mode: CID
Ionization: ESI
Column name: Zorbax Eclipse Plus C18 2.1 mm x 150 mm, 3.5 um, Agilent
Retention time: 9.655 min
Precursor m/z: 292.206
Precursor type: [M+H]+
m/z	relative intensity
52.036	27
60.0033	48
65.043	640
74.0178	253
75.0255	136
76.0327	48
77.0411	238
78.0476	20
79.0558	15
85.0091	35
86.0168	162
87.0244	152
88.0314	47
89.0405	999
91.0554	153
98.0162	58
102.0466	37
113.0383	110
114.0464	52
115.0543	843
137.0378	21
138.0463	24
139.0536	174
