Mass spectrum: Alpha-hydroxy-metoprolol; LC-ESI-QTOF; MS2; 20 V
Name: Alpha-hydroxy-metoprolol
Class: Pharmaceutical; Metabolite; Transformation_product-Metabolite
Formula: C15H25NO4
Exact mass: 283.1784
SMILES: COCC(O)c1ccc(OCC(O)CNC(C)C)cc1
InChI: InChI=1S/C15H25NO4/c1-11(2)16-8-13(17)9-20-14-6-4-12(5-7-14)15(18)10-19-3/h4-7,11,13,15-18H,8-10H2,1-3H3
Instrument: TripleTOF 5600 SCIEX
Instrument type: LC-ESI-QTOF
Ms type: MS2
Ion mode: POSITIVE
Collision energy: 20
Fragmentation mode: CID
Ionization: ESI
Column name: Zorbax Eclipse Plus C18 2.1 mm x 150 mm, 3.5 um, Agilent
Retention time: 5.057 min
Precursor m/z: 284.1856
Precursor type: [M+H]+
m/z	relative intensity
72.0847	39
74.064	64
98.0975	50
116.1074	162
133.0649	34
151.0756	18
163.0755	10
175.0761	23
177.0907	11
189.091	24
192.1383	9
206.1181	11
207.1021	75
224.1287	56
242.1389	18
248.1655	30
266.1758	37
284.1873	999
