Mass spectrum: Betaxolol; LC-ESI-QTOF; MS2; 150 V
Name: Betaxolol
Class: Pharmaceutical
Formula: C18H29NO3
Exact mass: 307.2147
SMILES: CC(C)NCC(COC1=CC=C(C=C1)CCOCC2CC2)O
InChI: InChI=1S/C18H29NO3/c1-14(2)19-11-17(20)13-22-18-7-5-15(6-8-18)9-10-21-12-16-3-4-16/h5-8,14,16-17,19-20H,3-4,9-13H2,1-2H3
Instrument: TripleTOF 5600 SCIEX
Instrument type: LC-ESI-QTOF
Ms type: MS2
Ion mode: POSITIVE
Collision energy: 150
Fragmentation mode: CID
Ionization: ESI
Column name: Zorbax Eclipse Plus C18 2.1 mm x 150 mm, 3.5 um, Agilent
Retention time: 7.064 min
Precursor m/z: 308.222
Precursor type: [M+H]+
m/z	relative intensity
44.0599	243
56.0562	217
56.0647	51
58.075	179
65.0448	345
74.0222	89
75.0331	51
76.0403	64
77.0443	999
78.051	128
89.0435	294
91.0575	179
102.049	153
103.0569	64
115.0574	333
126.0501	64
127.0561	76
128.0614	115
