Mass spectrum: Sunitinib; LC-ESI-QTOF; MS2; 100 V
Name: Sunitinib
Class: Pharmaceutical
Formula: C22H27FN4O2
Exact mass: 398.2118
SMILES: CCN(CC)CCNC(=O)C1=C(NC(=C1C)C=C2C3=C(C=CC(=C3)F)NC2=O)C
InChI: InChI=1S/C22H27FN4O2/c1-5-27(6-2)10-9-24-22(29)20-13(3)19(25-14(20)4)12-17-16-11-15(23)7-8-18(16)26-21(17)28/h7-8,11-12,25H,5-6,9-10H2,1-4H3,(H,24,29)(H,26,28)
Instrument: TripleTOF 5600 SCIEX
Instrument type: LC-ESI-QTOF
Ms type: MS2
Ion mode: POSITIVE
Collision energy: 100
Fragmentation mode: CID
Ionization: ESI
Column name: Zorbax Eclipse Plus C18 2.1 mm x 150 mm, 3.5 um, Agilent
Retention time: 6.516 min
Precursor m/z: 399.2191
Precursor type: [M+H]+
m/z	relative intensity
65.0414	37
74.0195	15
75.0259	47
77.0406	20
80.0533	13
83.03	13
89.0392	17
91.056	12
92.0486	19
95.03	62
98.0141	17
99.0238	49
100.0169	13
100.1127	13
101.0373	23
102.0353	11
104.05	23
107.0281	57
108.0354	28
109.0435	23
115.0539	14
117.0588	19
119.0285	33
119.0598	15
120.0394	25
121.0439	11
122.039	73
123.0232	24
124.0179	24
125.0388	33
126.0322	82
127.0538	11
128.0513	17
131.0307	14
132.0403	19
133.0442	219
134.0411	74
135.0471	71
136.0526	11
137.0379	13
138.0441	36
139.0527	79
140.0489	57
144.0255	47
145.0446	78
146.0392	239
147.0474	62
148.0555	122
149.0373	64
150.0358	94
151.0311	24
151.053	73
152.0588	64
153.0678	24
154.039	35
154.0612	14
156.0372	13
157.0439	239
158.0404	193
159.0577	80
160.0546	36
161.0495	12
161.0623	15
162.0386	31
163.0529	120
164.0492	105
165.0624	87
166.0651	40
167.0314	18
167.0715	17
168.0364	79
169.0443	273
170.0513	242
171.0361	313
172.0285	17
172.0548	117
173.0395	71
174.0348	56
174.0672	15
175.0481	40
176.0485	71
177.0572	34
178.0644	41
179.068	19
180.0791	34
181.0438	99
182.0515	227
183.0594	507
184.0552	511
185.0632	932
186.0697	94
187.0664	22
188.049	44
189.0533	104
190.065	178
191.0642	78
192.0347	18
192.0691	35
193.0425	84
193.0752	12
194.0406	74
195.0474	280
196.0548	187
197.0589	131
198.0706	186
199.0407	33
199.0743	69
200.0481	137
200.0841	41
201.0585	13
203.0658	13
204.0563	14
205.076	34
206.0838	14
207.0459	20
207.094	9
208.055	508
209.0635	999
210.0682	294
211.0667	335
212.0504	29
212.0768	73
213.0569	30
213.0833	18
214.0659	13
215.0591	26
216.0683	19
217.0746	17
218.0733	14
219.0474	161
220.0551	88
221.0511	85
222.0579	74
223.0648	74
224.0732	77
225.0821	77
226.0631	14
226.0879	20
227.0964	19
228.0617	17
234.057	50
235.0664	77
236.0734	142
237.0812	155
238.0752	104
239.0618	161
240.0676	23
241.0803	9
248.0633	12
252.0711	11
253.0771	55
