Mass spectrum: Iobitridol; LC-ESI-QTOF; MS2; 100 V
Name: Iobitridol
Class: Pharmaceutical
Formula: C20H28I3N3O9
Exact mass: 834.896
SMILES: CN(CC(O)CO)C(=O)c1c(I)c(NC(=O)C(CO)CO)c(I)c(c1I)C(=O)N(C)CC(O)CO
InChI: InChI=1S/C20H28I3N3O9/c1-25(3-10(31)7-29)19(34)12-14(21)13(20(35)26(2)4-11(32)8-30)16(23)17(15(12)22)24-18(33)9(5-27)6-28/h9-11,27-32H,3-8H2,1-2H3,(H,24,33)
Instrument: TripleTOF 5600 SCIEX
Instrument type: LC-ESI-QTOF
Ms type: MS2
Ion mode: POSITIVE
Collision energy: 100
Fragmentation mode: CID
Ionization: ESI
Column name: Zorbax Eclipse Plus C18 2.1 mm x 150 mm, 3.5 um, Agilent
Retention time: 4.58 min
Precursor m/z: 835.9032
Precursor type: [M+H]+
m/z	relative intensity
170.0222	788
171.0316	315
200.0336	262
218.043	262
269.9381	368
285.9035	262
285.9359	473
296.9295	683
313.9295	630
317.9646	473
321.1085	368
339.9047	420
343.9414	736
383.8048	368
395.8339	420
401.001	630
439.7964	999
554.8816	315
