Mass spectrum: Ambroxol; LC-ESI-QTOF; MS2; 100 V
Name: Ambroxol
Class: Pharmaceutical
Formula: C13H18Br2N2O
Exact mass: 375.9786
SMILES: Nc1c(Br)cc(Br)cc1CNC2CCC(O)CC2
InChI: InChI=1S/C13H18Br2N2O/c14-9-5-8(13(16)12(15)6-9)7-17-10-1-3-11(18)4-2-10/h5-6,10-11,17-18H,1-4,7,16H2
Instrument: TripleTOF 5600 SCIEX
Instrument type: LC-ESI-QTOF
Ms type: MS2
Ion mode: POSITIVE
Collision energy: 100
Fragmentation mode: CID
Ionization: ESI
Column name: Zorbax Eclipse Plus C18 2.1 mm x 150 mm, 3.5 um, Agilent
Retention time: 6.498 min
Precursor m/z: 376.9859
Precursor type: [M+H]+
m/z	relative intensity
51.0281	74
74.0186	19
75.0261	39
76.0209	14
76.0337	106
77.0416	832
78.0366	154
79.0563	54
81.072	104
102.033	94
103.0417	203
104.0496	999
130.0385	12
154.949	114
155.956	106
181.9586	419
182.9667	208
261.8852	47
