Mass spectrum: 2,3,5-Triiodobenzoic acid; LC-ESI-QTOF; MS2; 70 V
Name: 2,3,5-Triiodobenzoic acid
Class: Pharmaceutical; Transformation_product
Formula: C7H3I3O2
Exact mass: 499.7267
SMILES: OC(=O)c1cc(I)cc(I)c1I
InChI: InChI=1S/C7H3I3O2/c8-3-1-4(7(11)12)6(10)5(9)2-3/h1-2H,(H,11,12)
Instrument: TripleTOF 5600 SCIEX
Instrument type: LC-ESI-QTOF
Ms type: MS2
Ion mode: NEGATIVE
Collision energy: 70
Fragmentation mode: CID
Ionization: ESI
Column name: Zorbax Eclipse Plus C18 2.1 mm x 150 mm, 3.5 um, Agilent
Retention time: 12.483 min
Precursor m/z: 498.7194
Precursor type: [M-H]-
m/z	relative intensity
126.9043	999
