Mass spectrum: Phenylbutazone; LC-ESI-QTOF; MS2; 20 V
Name: Phenylbutazone
Class: Pharmaceutical
Formula: C19H20N2O2
Exact mass: 308.1525
SMILES: CCCCC1C(=O)N(N(C1=O)C2=CC=CC=C2)C3=CC=CC=C3
InChI: InChI=1S/C19H20N2O2/c1-2-3-14-17-18(22)20(15-10-6-4-7-11-15)21(19(17)23)16-12-8-5-9-13-16/h4-13,17H,2-3,14H2,1H3
Instrument: TripleTOF 5600 SCIEX
Instrument type: LC-ESI-QTOF
Ms type: MS2
Ion mode: POSITIVE
Collision energy: 20
Fragmentation mode: CID
Ionization: ESI
Column name: Zorbax Eclipse Plus C18 2.1 mm x 150 mm, 3.5 um, Agilent
Retention time: 13.103 min
Precursor m/z: 309.1598
Precursor type: [M+H]+
m/z	relative intensity
71.0932	14
92.0546	18
93.0376	22
94.0699	32
120.0467	213
132.0466	23
146.0617	24
148.114	10
160.1137	48
162.1294	48
172.1143	12
188.1081	273
190.1236	253
211.0873	247
216.1031	67
253.0987	22
263.1554	24
265.1707	11
309.1589	999
