Mass spectrum: 1,3-Bis(2-methylphenyl)urea; LC-ESI-QTOF; MS2; 150 V
Name: 1,3-Bis(2-methylphenyl)urea
Formula: C15H16N2O
Exact mass: 240.1263
InChI: InChI=1S/C15H16N2O/c1-11-7-3-5-9-13(11)16-15(18)17-14-10-6-4-8-12(14)2/h3-10H,1-2H3,(H2,16,17,18)
Instrument: TripleTOF 6600 SCIEX
Instrument type: LC-ESI-QTOF
Ms type: CID
Ion mode: POSITIVE
Collision energy: 150
Ionization: ESI
Column name: Zorbax Eclipse Plus C18 2.1 mm x 150 mm, 3.5 um, Agilent
Retention time: 11.062 min
Precursor m/z: 241.1336
Precursor type: [M+H]+
m/z	relative intensity
35.9992	45
37.0071	376
38.0148	288
39.0229	999
40.0302	11
41.0252	23
42.0327	19
49.0067	114
50.0147	605
51.0224	400
52.0174	97
53.0376	11
54.0328	30
61.0061	107
62.0144	171
63.0224	109
65.0262	14
65.0376	221
66.033	26
66.0453	42
74.0135	28
77.0372	26
78.0324	21
92.049	19
