Mass spectrum: Disperse Yellow 3; LC-ESI-QTOF; MS2; 100 V
Name: Disperse Yellow 3
Formula: C15H15N3O2
Exact mass: 269.1164
SMILES: CC1=CC(=C(C=C1)O)N=NC2=CC=C(C=C2)NC(=O)C
InChI: InChI=1S/C15H15N3O2/c1-10-3-8-15(20)14(9-10)18-17-13-6-4-12(5-7-13)16-11(2)19/h3-9,20H,1-2H3,(H,16,19)
Instrument: TripleTOF 6600 SCIEX
Instrument type: LC-ESI-QTOF
Ms type: MS2
Ion mode: POSITIVE
Collision energy: 100
Fragmentation mode: CID
Ionization: ESI
Column name: Zorbax Eclipse Plus C18 2.1 mm x 150 mm, 3.5 um, Agilent
Retention time: 12.171 min
Precursor m/z: 270.1237
Precursor type: [M+H]+
m/z	relative intensity
39.0224	43
43.0174	48
51.023	23
53.038	271
54.0334	20
62.0137	10
63.0222	65
65.0379	15
77.0371	20
78.0325	10
80.0484	999
81.0564	69
90.0308	26
91.0404	14
107.0582	178
108.0668	50
