Mass spectrum: Quercetin; LC-ESI-QTOF; MS2; 100 V
Name: Quercetin
Class: Food_additive; Pharmaceutical
Formula: C15H10O7
Exact mass: 302.0427
InChI: InChI=1S/C15H10O7/c16-7-4-10(19)12-11(5-7)22-15(14(21)13(12)20)6-1-2-8(17)9(18)3-6/h1-5,16-19,21H
Instrument: TripleTOF 5600 SCIEX
Instrument type: LC-ESI-QTOF
Ms type: CID
Ion mode: NEGATIVE
Collision energy: 100
Ionization: ESI
Column name: Zorbax Eclipse Plus C18 2.1 mm x 150 mm, 3.5 um, Agilent
Retention time: 8.074 min
Precursor m/z: 301.0354
Precursor type: [M-H]-
m/z	relative intensity
41.0064	666
41.0235	66
65.0035	999
65.0386	99
67.0203	66
83.0153	66
91.0232	99
93.0337	199
107.0177	99
108.02	66
117.0344	99
132.0231	99
133.0286	66
