Mass spectrum: 10,11-Dihydrocarbamazepine; LC-ESI-QTOF; MS2; 80 V
Name: 10,11-Dihydrocarbamazepine
Class: Pharmaceutical; Metabolite
Formula: C15H14N2O
Exact mass: 238.1106
SMILES: NC(=O)N1c2ccccc2CCc3ccccc13
InChI: InChI=1S/C15H14N2O/c16-15(18)17-13-7-3-1-5-11(13)9-10-12-6-2-4-8-14(12)17/h1-8H,9-10H2,(H2,16,18)
Instrument: TripleTOF 5600 SCIEX
Instrument type: LC-ESI-QTOF
Ms type: MS2
Ion mode: POSITIVE
Collision energy: 80
Fragmentation mode: CID
Ionization: ESI
Column name: Zorbax Eclipse Plus C18 2.1 mm x 150 mm, 3.5 um, Agilent
Retention time: 9.235 min
Precursor m/z: 239.1179
Precursor type: [M+H]+
m/z	relative intensity
65.043	465
66.0498	19
74.0192	12
75.0252	39
76.033	10
77.0412	221
78.0493	19
89.0398	139
90.0474	72
91.0557	710
92.0518	10
93.0579	34
101.0387	81
102.0475	29
103.0558	21
113.0375	25
114.0464	12
115.0541	117
116.0498	39
117.0568	85
118.0653	123
125.0379	23
126.0457	56
127.0535	137
128.0494	188
129.0485	18
130.0638	23
138.0467	12
139.0532	161
140.0496	128
141.0646	14
149.0378	12
150.0456	116
151.0537	475
152.0615	910
153.0655	172
154.0644	58
163.0528	54
164.0612	96
165.0695	239
166.0651	215
167.0729	192
175.0501	18
176.0616	117
177.0569	152
178.0648	527
179.0722	598
180.0802	999
190.0639	101
191.0723	455
192.0801	248
193.0878	85
194.0959	19
201.0556	16
