Mass spectrum: Cocamidopropyl betaine; LC-ESI-QTOF; MS2; 150 V
Name: Cocamidopropyl betaine
Formula: C19H38N2O3
Exact mass: 342.2882
SMILES: CCCCCCCCCCCC(=O)NCCC[N+](C)(C)CC(=O)[O-]
InChI: InChI=1S/C19H38N2O3/c1-4-5-6-7-8-9-10-11-12-14-18(22)20-15-13-16-21(2,3)17-19(23)24/h4-17H2,1-3H3,(H-,20,22,23,24)
Instrument: TripleTOF 6600 SCIEX
Instrument type: LC-ESI-QTOF
Ms type: MS2
Ion mode: POSITIVE
Collision energy: 150
Fragmentation mode: CID
Ionization: ESI
Column name: Zorbax Eclipse Plus C18 2.1 mm x 150 mm, 3.5 um, Agilent
Retention time: 10.623 min
Precursor m/z: 343.2955
Precursor type: [M+H]+
m/z	relative intensity
37.0071	188
38.0026	82
38.0151	176
39.0231	999
41.0383	575
42.0337	235
43.0413	70
