Mass spectrum: Trioctylphosphine oxide; LC-ESI-QTOF; MS2; 80 V
Name: Trioctylphosphine oxide
Class: Industrial_process
Formula: C24H51OP
Exact mass: 386.3678
SMILES: CCCCCCCCP(=O)(CCCCCCCC)CCCCCCCC
InChI: InChI=1S/C24H51OP/c1-4-7-10-13-16-19-22-26(25,23-20-17-14-11-8-5-2)24-21-18-15-12-9-6-3/h4-24H2,1-3H3
Instrument: TripleTOF 5600 SCIEX
Instrument type: LC-ESI-QTOF
Ms type: MS2
Ion mode: POSITIVE
Collision energy: 80
Fragmentation mode: CID
Ionization: ESI
Column name: Zorbax Eclipse Plus C18 2.1 mm x 150 mm, 3.5 um, Agilent
Retention time: 22.9 min
Precursor m/z: 387.375
Precursor type: [M+H]+
m/z	relative intensity
44.9982	14
57.0002	12
59.0127	10
61.0286	10
63.0072	760
64.0151	303
65.0224	32
67.0613	18
69.0765	242
71.092	15
72.018	25
73.0263	87
75.006	38
75.0426	14
77.0211	725
78.0288	999
79.0358	32
83.0896	24
85.0258	14
87.0407	53
89.0185	25
90.0272	65
91.0353	288
92.043	503
93.0515	15
101.0557	56
103.0346	43
104.0419	58
105.0499	267
106.0578	24
107.0653	14
109.1071	9
115.0699	27
117.0495	105
118.0575	38
119.0648	250
121.0805	13
129.0878	15
131.0643	75
132.0736	13
133.0799	256
135.0951	10
143.1012	23
145.0793	62
147.095	192
157.1152	18
159.0928	49
161.1108	161
163.1247	44
171.1315	12
173.1099	29
175.1252	135
187.1252	20
189.1406	403
191.1607	13
203.1571	192
205.1728	12
215.1562	69
217.1718	150
219.1905	13
229.1771	14
231.1878	306
233.2049	14
245.2035	247
259.2145	36
273.2316	21
275.2459	19
287.2595	12
301.2656	302
317.2887	13
