Mass spectrum: Cocaethylene; LC-ESI-QTOF; MS2; 110 V
Name: Cocaethylene
Class: Metabolite
Formula: C18H23NO4
Exact mass: 317.1627
SMILES: CCOC(=O)C1C2CCC(N2C)CC1OC(=O)C3=CC=CC=C3
InChI: InChI=1S/C18H23NO4/c1-3-22-18(21)16-14-10-9-13(19(14)2)11-15(16)23-17(20)12-7-5-4-6-8-12/h4-8,13-16H,3,9-11H2,1-2H3
Instrument: TripleTOF 6600 SCIEX
Instrument type: LC-ESI-QTOF
Ms type: MS2
Ion mode: POSITIVE
Collision energy: 110
Fragmentation mode: CID
Ionization: ESI
Column name: Zorbax Eclipse Plus C18 2.1 mm x 150 mm, 3.5 um, Agilent
Retention time: 7.013 min
Precursor m/z: 318.17
Precursor type: [M+H]+
m/z	relative intensity
39.0242	129
41.0393	87
42.035	96
49.0081	41
50.0162	300
51.0241	907
53.0394	37
55.0549	45
56.0506	29
57.058	20
65.0394	192
67.0425	254
67.0543	33
68.0503	142
77.0397	999
78.0344	37
79.0422	25
79.0548	25
80.0499	66
81.0577	20
81.0701	20
82.0661	284
91.0553	79
93.0578	29
94.0657	150
105.0451	33
106.0665	25
