Mass spectrum: Penconazol; LC-ESI-QTOF; MS2; 80 V
Name: Penconazol
Class: Fungicide
Formula: C13H15Cl2N3
Exact mass: 283.0643
SMILES: CCCC(CN1C=NC=N1)C2=C(C=C(C=C2)Cl)Cl
InChI: InChI=1S/C13H15Cl2N3/c1-2-3-10(7-18-9-16-8-17-18)12-5-4-11(14)6-13(12)15/h4-6,8-10H,2-3,7H2,1H3
Instrument: TripleTOF 6600 SCIEX
Instrument type: LC-ESI-QTOF
Ms type: MS2
Ion mode: POSITIVE
Collision energy: 80
Fragmentation mode: CID
Ionization: ESI
Column name: Zorbax Eclipse Plus C18 2.1 mm x 150 mm, 3.5 um, Agilent
Retention time: 12.845 min
Precursor m/z: 284.0716
Precursor type: [M+H]+
m/z	relative intensity
43.0295	128
48.984	10
51.023	11
61.0076	12
62.0156	45
63.0233	113
70.0407	622
72.9843	294
74.0153	15
75.0232	95
76.0308	14
77.0388	10
82.9447	20
87.023	16
88.0307	54
89.0392	999
96.9842	115
98.9999	244
101.0389	45
102.0469	127
103.0544	15
123.0001	605
124.0079	189
129.0443	12
132.961	127
158.9767	263
