Mass spectrum: 2-Hydroxy-N-phenylpropanamide; LC-ESI-QTOF; MS2; 50 V
Name: 2-Hydroxy-N-phenylpropanamide
Class: Pharmaceutical
Formula: C9H11NO2
Exact mass: 165.079
SMILES: CC(C(=O)NC1=CC=CC=C1)O
InChI: InChI=1S/C9H11NO2/c1-7(11)9(12)10-8-5-3-2-4-6-8/h2-7,11H,1H3,(H,10,12)
Instrument: TripleTOF 5600 SCIEX
Instrument type: LC-ESI-QTOF
Ms type: MS2
Ion mode: POSITIVE
Collision energy: 50
Fragmentation mode: CID
Ionization: ESI
Column name: Zorbax Eclipse Plus C18 2.1 mm x 150 mm, 3.5 um, Agilent
Retention time: 6.608 min
Precursor m/z: 166.0863
Precursor type: [M+H]+
m/z	relative intensity
65.045	65
77.0425	999
79.0578	29
91.0574	65
92.0533	70
93.0594	112
94.0682	100
103.0567	100
104.0567	23
118.0697	118
120.0821	118
