Mass spectrum: Chlorpropham; LC-ESI-QTOF; MS2; 40 V
Name: Chlorpropham
Class: Herbicide; Biocide; Rodenticide
Formula: C10H12ClNO2
Exact mass: 213.0557
SMILES: CC(C)OC(=O)NC1=CC(=CC=C1)Cl
InChI: InChI=1S/C10H12ClNO2/c1-7(2)14-10(13)12-9-5-3-4-8(11)6-9/h3-7H,1-2H3,(H,12,13)
Instrument: TripleTOF 5600 SCIEX
Instrument type: LC-ESI-QTOF
Ms type: MS2
Ion mode: POSITIVE
Collision energy: 40
Fragmentation mode: CID
Ionization: ESI
Column name: Zorbax Eclipse Plus C18 2.1 mm x 150 mm, 3.5 um, Agilent
Retention time: 12.592 min
Precursor m/z: 214.0629
Precursor type: [M+H]+
m/z	relative intensity
66.0454	83
75.0221	166
77.0385	305
92.0468	69
93.0568	527
98.9995	277
110.9987	624
126.01	999
139.0035	69
154.0046	666
172.0182	152
