Mass spectrum: Linezolid; LC-ESI-QTOF; MS2; 80 V
Name: Linezolid
Class: Pharmaceutical
Formula: C16H20FN3O4
Exact mass: 337.1438
SMILES: CC(=O)NCC1CN(C(=O)O1)C2=CC(=C(C=C2)N3CCOCC3)F
InChI: InChI=1S/C16H20FN3O4/c1-11(21)18-9-13-10-20(16(22)24-13)12-2-3-15(14(17)8-12)19-4-6-23-7-5-19/h2-3,8,13H,4-7,9-10H2,1H3,(H,18,21)
Instrument: TripleTOF 5600 SCIEX
Instrument type: LC-ESI-QTOF
Ms type: MS2
Ion mode: POSITIVE
Collision energy: 80
Fragmentation mode: CID
Ionization: ESI
Column name: Zorbax Eclipse Plus C18 2.1 mm x 150 mm, 3.5 um, Agilent
Retention time: 6.936 min
Precursor m/z: 338.1511
Precursor type: [M+H]+
m/z	relative intensity
56.0499	117
65.0384	14
74.0149	22
75.0229	55
77.0392	95
78.0343	29
83.0298	73
84.0379	14
89.0391	106
90.035	25
90.0468	18
91.0535	36
92.0491	22
95.0286	69
96.0368	47
97.0442	36
98.0392	36
101.039	69
102.0391	22
103.0539	51
104.0507	58
106.066	18
107.0301	165
108.037	238
109.0447	282
110.0398	69
111.0475	124
115.0394	18
115.0535	113
116.0494	183
117.0561	157
118.065	66
120.0374	55
121.0465	33
122.0407	242
123.0481	128
124.0561	124
125.0497	66
126.0331	22
126.057	14
128.0502	84
129.0575	36
130.0654	95
131.0623	40
132.0689	25
133.0458	40
133.0743	14
134.0414	95
135.0483	561
136.0558	352
137.0275	14
137.0577	216
138.0704	40
139.067	22
140.0489	29
141.0577	80
142.064	80
143.0635	51
146.0421	80
147.0492	128
148.0562	999
149.0554	102
150.0662	128
151.0673	102
152.0743	36
154.0444	18
154.0666	22
155.0609	36
156.071	66
157.073	36
159.052	14
160.0578	55
161.0626	80
162.0657	99
163.0679	95
164.0754	18
165.0843	58
167.0674	40
168.0677	36
169.0774	102
172.0601	25
173.0514	55
174.0604	95
175.0708	40
176.0726	22
177.0825	25
179.0638	14
187.0689	51
189.0826	44
