Mass spectrum: Triclabendazole; LC-ESI-QTOF; MS2; 70 V
Name: Triclabendazole
Class: Pharmaceutical
Formula: C14H9Cl3N2OS
Exact mass: 357.9501
SMILES: CSc1[nH]c2cc(Cl)c(Oc3cccc(Cl)c3Cl)cc2n1
InChI: InChI=1S/C14H9Cl3N2OS/c1-21-14-18-9-5-8(16)12(6-10(9)19-14)20-11-4-2-3-7(15)13(11)17/h2-6H,1H3,(H,18,19)
Instrument: TripleTOF 5600 SCIEX
Instrument type: LC-ESI-QTOF
Ms type: MS2
Ion mode: POSITIVE
Collision energy: 70
Fragmentation mode: CID
Ionization: ESI
Column name: Zorbax Eclipse Plus C18 2.1 mm x 150 mm, 3.5 um, Agilent
Retention time: 13.11 min
Precursor m/z: 358.9574
Precursor type: [M+H]+
m/z	relative intensity
91.0293	13
99.9952	12
103.0299	10
107.9919	10
111.9956	11
123.9944	12
127.0062	139
128.9562	18
130.051	10
135.0006	19
138.0112	25
139.0056	62
143.9671	40
148.0088	96
153.0207	22
155.9668	47
160.0106	15
163.0326	156
165.0216	84
170.9786	949
179.0606	13
180.0479	23
182.9772	57
186.0141	13
187.021	23
188.0248	30
189.0115	59
194.975	10
196.9947	21
198.0024	23
198.9731	264
207.0561	14
211.0329	181
212.016	41
213.0244	23
214.0051	51
215.016	28
216.0211	65
218.9904	16
219.9742	15
221.9929	11
222.9725	13
229.0185	11
239.0274	251
241.0185	55
242.0248	637
244.9919	27
245.9785	52
248.974	10
249.9841	10
250.9901	223
272.9849	49
273.9974	999
275.9865	155
276.9917	15
280.9718	25
307.9546	15
