Mass spectrum: Atenolol acid; LC-ESI-QTOF; MS2; 150 V
Name: Atenolol acid
Class: Pharmaceutical
Formula: C14H21NO4
Exact mass: 267.1471
SMILES: CC(C)NCC(COC1=CC=C(C=C1)CC(=O)O)O
InChI: InChI=1S/C14H21NO4/c1-10(2)15-8-12(16)9-19-13-5-3-11(4-6-13)7-14(17)18/h3-6,10,12,15-16H,7-9H2,1-2H3,(H,17,18)
Instrument: TripleTOF 5600 SCIEX
Instrument type: LC-ESI-QTOF
Ms type: MS2
Ion mode: POSITIVE
Collision energy: 150
Fragmentation mode: CID
Ionization: ESI
Column name: Zorbax Eclipse Plus C18 2.1 mm x 150 mm, 3.5 um, Agilent
Retention time: 4.893 min
Precursor m/z: 268.1543
Precursor type: [M+H]+
m/z	relative intensity
37.007	83
38.0155	124
39.023	457
41.0391	208
43.0541	83
44.0493	166
49.0073	124
50.0154	561
51.0229	999
56.0495	83
61.0064	208
62.0153	582
63.0227	749
65.0384	124
74.014	124
77.039	437
89.0393	124
115.0541	83
