Mass spectrum: Warfarin; LC-ESI-QTOF; MS2; 130 V
Name: Warfarin
Class: Pesticide
Formula: C19H16O4
Exact mass: 308.1049
SMILES: CC(=O)CC(C1=CC=CC=C1)C2=C(C3=CC=CC=C3OC2=O)O
InChI: InChI=1S/C19H16O4/c1-12(20)11-15(13-7-3-2-4-8-13)17-18(21)14-9-5-6-10-16(14)23-19(17)22/h2-10,15,21H,11H2,1H3
Instrument: TripleTOF 6600 SCIEX
Instrument type: LC-ESI-QTOF
Ms type: MS2
Ion mode: POSITIVE
Collision energy: 130
Fragmentation mode: CID
Ionization: ESI
Column name: Zorbax Eclipse Plus C18 2.1 mm x 150 mm, 3.5 um, Agilent
Retention time: 11.631 min
Precursor m/z: 309.1122
Precursor type: [M+H]+
m/z	relative intensity
35.9992	37
37.0068	243
38.015	239
39.0229	999
41.0018	20
43.0182	255
49.0065	37
50.0149	330
51.0229	862
53.0019	103
61.0069	49
62.0155	78
63.0219	144
65.0384	408
68.9966	57
73.0067	45
74.0147	276
75.0226	206
76.0308	90
77.0381	466
78.0458	28
85.0071	20
86.0151	41
87.0207	49
89.0377	74
98.0145	53
99.0214	45
100.0288	24
101.0377	20
102.0447	94
110.0159	20
113.04	28
115.0537	86
122.0147	16
125.0362	33
126.045	74
127.0532	28
128.0604	33
137.0383	20
139.0527	74
149.0373	70
150.0443	330
151.0534	152
152.0613	57
162.0463	24
163.0537	119
164.0612	49
165.0668	66
174.0456	74
175.0536	33
176.0616	99
