Mass spectrum: Saluamine; LC-ESI-QTOF; MS2; 60 V
Name: Saluamine
Class: Pharmaceutical
Formula: C7H7ClN2O4S
Exact mass: 249.9815
SMILES: Nc1cc(Cl)c(cc1C(O)=O)[S](N)(=O)=O
InChI: InChI=1S/C7H7ClN2O4S/c8-4-2-5(9)3(7(11)12)1-6(4)15(10,13)14/h1-2H,9H2,(H,11,12)(H2,10,13,14)
Instrument: TripleTOF 5600 SCIEX
Instrument type: LC-ESI-QTOF
Ms type: MS2
Ion mode: POSITIVE
Collision energy: 60
Fragmentation mode: CID
Ionization: ESI
Column name: Zorbax Eclipse Plus C18 2.1 mm x 150 mm, 3.5 um, Agilent
Retention time: 5.713 min
Precursor m/z: 250.9888
Precursor type: [M+H]+
m/z	relative intensity
77.0067	111
78.0376	155
85.9837	88
89.0282	865
90.0355	377
96.9838	377
97.9928	155
99.9926	111
106.0554	133
114.0108	244
123.9949	688
125.0019	999
152.9955	177
154.9967	333
155.9857	466
