Mass spectrum: Sulpiride; LC-ESI-QTOF; MS2; 120 V
Name: Sulpiride
Class: Pharmaceutical
Formula: C15H23N3O4S
Exact mass: 341.1409
SMILES: CCN1CCCC1CNC(=O)c2cc(ccc2OC)[S](N)(=O)=O
InChI: InChI=1S/C15H23N3O4S/c1-3-18-8-4-5-11(18)10-17-15(19)13-9-12(23(16,20)21)6-7-14(13)22-2/h6-7,9,11H,3-5,8,10H2,1-2H3,(H,17,19)(H2,16,20,21)
Instrument: TripleTOF 5600 SCIEX
Instrument type: LC-ESI-QTOF
Ms type: MS2
Ion mode: POSITIVE
Collision energy: 120
Fragmentation mode: CID
Ionization: ESI
Column name: Zorbax Eclipse Plus C18 2.1 mm x 150 mm, 3.5 um, Agilent
Retention time: 4.958 min
Precursor m/z: 342.1482
Precursor type: [M+H]+
m/z	relative intensity
39.0305	184
51.0305	314
52.0378	228
56.0555	249
58.0698	162
65.0436	86
67.0482	76
68.0528	119
70.0675	238
70.081	54
74.0188	477
75.0255	999
76.0338	423
77.0406	119
78.0434	228
79.02	119
79.048	86
80.0521	86
82.0687	97
84.0833	304
91.0193	412
98.0973	260
107.0144	97
112.1119	97
119.0206	54
