Mass spectrum: Triclocarban; LC-ESI-QTOF; MS2; 130 V
Name: Triclocarban
Class: Antimicrobial; Personal_care_product; Biocide
Formula: C13H9Cl3N2O
Exact mass: 313.978
SMILES: Clc1ccc(NC(=O)Nc2ccc(Cl)c(Cl)c2)cc1
InChI: InChI=1S/C13H9Cl3N2O/c14-8-1-3-9(4-2-8)17-13(19)18-10-5-6-11(15)12(16)7-10/h1-7H,(H2,17,18,19)
Instrument: TripleTOF 5600 SCIEX
Instrument type: LC-ESI-QTOF
Ms type: MS2
Ion mode: POSITIVE
Collision energy: 130
Fragmentation mode: CID
Ionization: ESI
Column name: Zorbax Eclipse Plus C18 2.1 mm x 150 mm, 3.5 um, Agilent
Retention time: 14.574 min
Precursor m/z: 314.9853
Precursor type: [M+H]+
m/z	relative intensity
64.033	84
65.0414	999
66.0494	541
72.9869	745
74.0174	558
75.0252	406
92.0505	389
93.0579	423
98.9998	321
100.0078	101
110.9984	84
127.016	101
