Mass spectrum: Fenpropidin; LC-ESI-QTOF; MS2; 40 V
Name: Fenpropidin
Class: Fungicide
Formula: C19H31N
Exact mass: 273.2456
SMILES: CC(CC1=CC=C(C=C1)C(C)(C)C)CN2CCCCC2
InChI: InChI=1S/C19H31N/c1-16(15-20-12-6-5-7-13-20)14-17-8-10-18(11-9-17)19(2,3)4/h8-11,16H,5-7,12-15H2,1-4H3
Instrument: TripleTOF 6600 SCIEX
Instrument type: LC-ESI-QTOF
Ms type: MS2
Ion mode: POSITIVE
Collision energy: 40
Fragmentation mode: CID
Ionization: ESI
Column name: Zorbax Eclipse Plus C18 2.1 mm x 150 mm, 3.5 um, Agilent
Retention time: 9.471 min
Precursor m/z: 274.2529
Precursor type: [M+H]+
m/z	relative intensity
41.0387	18
57.0702	91
69.0697	21
84.0805	13
86.0965	332
91.0539	38
105.0698	136
107.0849	21
117.0696	66
119.0855	189
131.0858	10
132.0933	182
145.1008	10
147.1171	999
161.1321	23
189.1636	12
274.2534	440
