Mass spectrum: 4,4`-Methylenebis(2-chloroaniline); LC-ESI-QTOF; MS2; 20 V
Name: 4,4`-Methylenebis(2-chloroaniline)
Formula: C13H12Cl2N2
Exact mass: 266.0378
SMILES: C1=CC(=C(C=C1CC2=CC(=C(C=C2)N)Cl)Cl)N
InChI: InChI=1S/C13H12Cl2N2/c14-10-6-8(1-3-12(10)16)5-9-2-4-13(17)11(15)7-9/h1-4,6-7H,5,16-17H2
Instrument: TripleTOF 6600 SCIEX
Instrument type: LC-ESI-QTOF
Ms type: MS2
Ion mode: POSITIVE
Collision energy: 20
Fragmentation mode: CID
Ionization: ESI
Column name: Zorbax Eclipse Plus C18 2.1 mm x 150 mm, 3.5 um, Agilent
Retention time: 11.747 min
Precursor m/z: 267.045
Precursor type: [M+H]+
m/z	relative intensity
140.0259	12
231.0684	60
267.0462	999
