Mass spectrum: Metoprolol; LC-ESI-QTOF; MS2; 130 V
Name: Metoprolol
Class: Pharmaceutical
Formula: C15H25NO3
Exact mass: 267.1834
SMILES: CC(C)NCC(COC1=CC=C(C=C1)CCOC)O
InChI: InChI=1S/C15H25NO3/c1-12(2)16-10-14(17)11-19-15-6-4-13(5-7-15)8-9-18-3/h4-7,12,14,16-17H,8-11H2,1-3H3
Instrument: TripleTOF 6600 SCIEX
Instrument type: LC-ESI-QTOF
Ms type: MS2
Ion mode: POSITIVE
Collision energy: 130
Fragmentation mode: CID
Ionization: ESI
Column name: Zorbax Eclipse Plus C18 2.1 mm x 150 mm, 3.5 um, Agilent
Retention time: 6.14 min
Precursor m/z: 268.1907
Precursor type: [M+H]+
m/z	relative intensity
30.0335	121
35.9994	30
37.0069	157
38.0028	43
38.0145	129
39.0227	570
41.0385	157
42.033	36
43.0407	18
43.0539	18
44.0488	36
45.0322	18
49.0057	56
50.0144	449
51.0225	999
52.0303	15
53.0125	25
55.0175	10
58.0646	12
61.0064	33
62.0146	77
63.0217	141
65.0378	172
66.0442	15
73.0065	18
74.0146	72
75.0218	46
76.0306	20
77.0381	333
78.0451	18
89.0378	61
91.0531	74
102.0457	23
115.0526	36
