Mass spectrum: Food Yellow 3 free acid; LC-ESI-QTOF; MS2; 70 V
Name: Food Yellow 3 free acid
Formula: C16H12N2O7S2
Exact mass: 408.0086
SMILES: C1=CC(=CC=C1N=NC2=C(C=CC3=C2C=CC(=C3)S(=O)(=O)O)O)S(=O)(=O)O
InChI: InChI=1S/C16H12N2O7S2/c19-15-8-1-10-9-13(27(23,24)25)6-7-14(10)16(15)18-17-11-2-4-12(5-3-11)26(20,21)22/h1-9,19H,(H,20,21,22)(H,23,24,25)
Instrument: TripleTOF 6600 SCIEX
Instrument type: LC-ESI-QTOF
Ms type: MS2
Ion mode: POSITIVE
Collision energy: 70
Fragmentation mode: CID
Ionization: ESI
Column name: Zorbax Eclipse Plus C18 2.1 mm x 150 mm, 3.5 um, Agilent
Retention time: 5.59 min
Precursor m/z: 409.0159
Precursor type: [M+H]+
m/z	relative intensity
53.0384	14
63.0227	27
64.9686	14
65.038	43
74.0143	19
75.0226	22
76.0307	10
77.0379	36
80.0493	554
81.0332	41
89.0385	485
90.0325	11
92.0489	130
99.0224	37
100.0291	76
101.0379	51
108.0444	999
109.0521	94
115.0414	36
116.049	197
117.033	19
126.0333	242
127.0416	764
128.0484	90
129.0508	24
133.0268	20
144.0433	79
154.0376	99
156.0101	43
173.0135	207
190.0649	12
208.0063	268
210.0218	18
216.0683	14
217.0753	43
218.0825	82
219.091	22
229.0758	114
230.0844	119
231.0888	11
246.0768	45
247.084	18
310.0398	61
311.0487	32
327.0453	14
391.0064	13
