Mass spectrum: Basic yellow 28; LC-ESI-QTOF; MS2; 50 V
Name: Basic yellow 28
Class: Pigment
Formula: [C20H24N3O]+
Exact mass: 322.1914
SMILES: CC1(C2=CC=CC=C2[N+](=C1C=NN(C)C3=CC=C(C=C3)OC)C)C
InChI: InChI=1S/C20H24N3O/c1-20(2)17-8-6-7-9-18(17)22(3)19(20)14-21-23(4)15-10-12-16(24-5)13-11-15/h6-14H,1-5H3/q+1
Instrument: TripleTOF 6600 SCIEX
Instrument type: LC-ESI-QTOF
Ms type: MS2
Ion mode: POSITIVE
Collision energy: 50
Fragmentation mode: CID
Ionization: ESI
Column name: Zorbax Eclipse Plus C18 2.1 mm x 150 mm, 3.5 um, Agilent
Retention time: 9.082 min
Precursor m/z: 322.1914
Precursor type: [M]+
m/z	relative intensity
67.0417	59
77.0382	76
78.0458	53
93.0559	166
94.04	70
108.0561	428
109.0637	83
121.0516	412
122.0593	66
136.0753	999
144.0805	302
145.0885	897
158.0962	138
160.1121	620
171.0912	137
