Mass spectrum: Chloridazon; LC-ESI-QTOF; MS2; 140 V
Name: Chloridazon
Class: Herbicide
Formula: C10H8ClN3O
Exact mass: 221.0356
SMILES: C1=CC=C(C=C1)N2C(=O)C(=C(C=N2)N)Cl
InChI: InChI=1S/C10H8ClN3O/c11-9-8(12)6-13-14(10(9)15)7-4-2-1-3-5-7/h1-6H,12H2
Instrument: TripleTOF 6600 SCIEX
Instrument type: LC-ESI-QTOF
Ms type: MS2
Ion mode: POSITIVE
Collision energy: 140
Fragmentation mode: CID
Ionization: ESI
Column name: Zorbax Eclipse Plus C18 2.1 mm x 150 mm, 3.5 um, Agilent
Retention time: 6.924 min
Precursor m/z: 222.0429
Precursor type: [M+H]+
m/z	relative intensity
35.9995	27
37.0074	69
38.0032	24
38.0151	58
39.0115	13
39.0233	82
40.0188	17
46.9676	38
48.9847	17
49.0072	266
50.0153	999
51.0111	27
51.0229	404
52.0179	114
61.0074	51
62.0153	38
63.0221	48
65.0381	17
66.0209	27
73.008	20
74.0149	65
