Mass spectrum: Omeprazole 4-desmethylthioether; LC-ESI-QTOF; MS2; 40 V
Name: Omeprazole 4-desmethylthioether
Class: Metabolite; Pharmaceutical
Formula: C16H17N3O2S
Exact mass: 315.1041
SMILES: Cc1cnc(c(c1O)C)CSc2[nH]c3ccc(cc3n2)OC
InChI: InChI=1S/C16H17N3O2S/c1-9-7-17-14(10(2)15(9)20)8-22-16-18-12-5-4-11(21-3)6-13(12)19-16/h4-7H,8H2,1-3H3,(H,17,20)(H,18,19)
Instrument: TripleTOF 5600 SCIEX
Instrument type: LC-ESI-QTOF
Ms type: MS2
Ion mode: POSITIVE
Collision energy: 40
Fragmentation mode: CID
Ionization: ESI
Column name: Zorbax Eclipse Plus C18 2.1 mm x 150 mm, 3.5 um, Agilent
Retention time: 6.17 min
Precursor m/z: 316.1114
Precursor type: [M+H]+
m/z	relative intensity
67.0599	12
79.0576	13
81.0731	21
91.0547	21
93.057	21
94.0658	22
96.0803	10
106.051	18
107.0736	10
108.0807	161
109.0895	39
118.0644	12
122.0587	24
124.0762	13
134.0469	161
136.0755	760
137.0836	351
140.0531	30
149.0705	654
166.0307	30
167.0383	11
168.0476	999
180.0331	12
181.0418	38
240.1114	22
267.1004	18
268.1076	163
282.1235	19
283.1308	107
284.0861	18
316.116	14
