Mass spectrum: Betamethasone; LC-ESI-QTOF; MS2; 120 V
Name: Betamethasone
Class: Pharmaceutical
Formula: C22H29FO5
Exact mass: 392.1999
SMILES: C[C@H]1C[C@H]2[C@@H]3CCC4=CC(=O)C=C[C@@]4([C@]3([C@H](C[C@@]2([C@]1(C(=O)CO)O)C)O)F)C
InChI: InChI=1S/C22H29FO5/c1-12-8-16-15-5-4-13-9-14(25)6-7-19(13,2)21(15,23)17(26)10-20(16,3)22(12,28)18(27)11-24/h6-7,9,12,15-17,24,26,28H,4-5,8,10-11H2,1-3H3/t12-,15-,16-,17-,19-,20-,21-,22-/m0/s1
Instrument: TripleTOF 5600 SCIEX
Instrument type: LC-ESI-QTOF
Ms type: MS2
Ion mode: POSITIVE
Collision energy: 120
Fragmentation mode: CID
Ionization: ESI
Column name: Zorbax Eclipse Plus C18 2.1 mm x 150 mm, 3.5 um, Agilent
Retention time: 9.016 min
Precursor m/z: 393.2072
Precursor type: [M+H]+
m/z	relative intensity
43.0328	47
51.034	134
55.0253	19
65.0451	241
67.0603	51
77.0437	987
78.05	111
79.0582	150
89.0419	83
91.0573	868
93.0733	47
94.0417	19
95.0864	15
101.0378	23
102.0474	114
103.0556	202
104.0627	39
105.0717	122
107.05	71
109.042	23
115.0552	999
116.0636	107
117.0699	99
119.0512	15
119.0874	27
120.058	15
121.066	170
126.0485	83
127.0553	265
128.0626	669
129.0698	134
131.0492	206
132.0579	47
133.0461	23
139.0555	114
140.063	35
141.0707	190
144.0573	59
145.0642	51
146.0531	43
150.0452	47
151.0554	186
152.0626	574
153.0701	154
154.0778	27
155.055	39
157.0668	63
159.0621	35
163.0548	87
164.0614	95
165.0709	792
166.0794	23
167.0852	39
168.0543	23
176.0606	178
177.0717	99
178.0771	491
179.0874	71
181.069	103
187.0584	19
188.0622	51
189.0693	523
190.0771	114
191.0843	111
194.0736	43
200.061	63
201.0718	107
202.0783	479
203.085	99
205.0655	55
207.0837	35
213.071	114
214.076	43
215.0854	313
216.0898	27
218.0734	51
219.0775	35
226.0811	130
227.0824	47
228.0953	55
229.1037	39
231.0782	59
232.0872	31
239.0872	71
