Mass spectrum: Glycidyltrimethylaminium; LC-ESI-QTOF; MS2; 140 V
Name: Glycidyltrimethylaminium
Class: Industrial_process
Formula: [C6H14NO]+
Exact mass: 116.107
SMILES: C[N+](C)(C)CC1CO1
InChI: InChI=1S/C6H14NO/c1-7(2,3)4-6-5-8-6/h6H,4-5H2,1-3H3/q+1
Instrument: TripleTOF 6600 SCIEX
Instrument type: LC-ESI-QTOF
Ms type: MS2
Ion mode: POSITIVE
Collision energy: 140
Fragmentation mode: CID
Ionization: ESI
Column name: Zorbax Eclipse Plus C18 2.1 mm x 150 mm, 3.5 um, Agilent
Retention time: 1.307 min
Precursor m/z: 116.107
Precursor type: [M]+
m/z	relative intensity
37.007	63
38.0026	354
39.0103	63
40.0181	316
41.0257	434
42.0335	999
52.0054	71
53.0126	54
54.0084	59
