Mass spectrum: Diazinon; LC-ESI-QTOF; MS2; 50 V
Name: Diazinon
Class: Insecticide
Formula: C12H21N2O3PS
Exact mass: 304.1011
SMILES: CCO[P](=S)(OCC)Oc1cc(C)nc(n1)C(C)C
InChI: InChI=1S/C12H21N2O3PS/c1-6-15-18(19,16-7-2)17-11-8-10(5)13-12(14-11)9(3)4/h8-9H,6-7H2,1-5H3
Instrument: TripleTOF 5600 SCIEX
Instrument type: LC-ESI-QTOF
Ms type: MS2
Ion mode: POSITIVE
Collision energy: 50
Fragmentation mode: CID
Ionization: ESI
Column name: Zorbax Eclipse Plus C18 2.1 mm x 150 mm, 3.5 um, Agilent
Retention time: 14.526 min
Precursor m/z: 305.1083
Precursor type: [M+H]+
m/z	relative intensity
42.0436	27
58.9999	16
64.9827	24
67.0457	30
70.0697	145
78.943	44
80.9761	73
82.9968	10
84.0478	309
90.996	30
93.0463	15
96.9529	965
100.0232	708
109.0046	20
124.9815	27
135.0909	14
153.0481	14
153.1028	415
154.0558	30
169.0799	999
