Mass spectrum: Meptazinol; LC-ESI-QTOF; MS2; 70 V
Name: Meptazinol
Class: Pharmaceutical
Formula: C15H23NO
Exact mass: 233.178
SMILES: CCC1(CCCCN(C1)C)C2=CC(=CC=C2)O
InChI: InChI=1S/C15H23NO/c1-3-15(9-4-5-10-16(2)12-15)13-7-6-8-14(17)11-13/h6-8,11,17H,3-5,9-10,12H2,1-2H3
Instrument: TripleTOF 5600 SCIEX
Instrument type: LC-ESI-QTOF
Ms type: MS2
Ion mode: POSITIVE
Collision energy: 70
Fragmentation mode: CID
Ionization: ESI
Column name: Zorbax Eclipse Plus C18 2.1 mm x 150 mm, 3.5 um, Agilent
Retention time: 5.641 min
Precursor m/z: 234.1852
Precursor type: [M+H]+
m/z	relative intensity
39.0228	19
41.0388	16
44.0495	59
50.0151	16
51.023	94
53.0387	14
55.0181	37
55.0547	20
65.0392	38
67.054	18
70.0652	20
77.0389	999
78.0463	18
79.0545	200
81.0338	12
89.0388	16
91.0549	115
94.0423	11
103.0544	113
105.0703	70
107.0496	369
115.0546	88
116.0622	12
117.0709	22
127.0548	30
128.0624	40
131.0498	112
132.0585	22
133.0659	11
145.0669	27
