Mass spectrum: 2-(2-Hydroxyphenyl)-1H-benzimidazole; LC-ESI-QTOF; MS2; 90 V
Name: 2-(2-Hydroxyphenyl)-1H-benzimidazole
Class: Industrial_process; Pharmaceutical
Formula: C13H10N2O
Exact mass: 210.0793
SMILES: C1=CC=C2C(=C1)NC(=C3C=CC=CC3=O)N2
InChI: InChI=1S/C13H10N2O/c16-12-8-4-1-5-9(12)13-14-10-6-2-3-7-11(10)15-13/h1-8,14-15H
Instrument: TripleTOF 5600 SCIEX
Instrument type: LC-ESI-QTOF
Ms type: MS2
Ion mode: POSITIVE
Collision energy: 90
Fragmentation mode: CID
Ionization: ESI
Column name: Zorbax Eclipse Plus C18 2.1 mm x 150 mm, 3.5 um, Agilent
Retention time: 6.225 min
Precursor m/z: 211.0866
Precursor type: [M+H]+
m/z	relative intensity
52.0307	40
64.0353	81
65.0459	999
66.0419	17
66.0519	17
74.0213	84
75.0277	174
76.0299	171
77.0443	387
78.0397	40
86.0189	29
87.0269	52
88.0234	23
88.0358	32
89.0427	99
90.037	23
90.0463	17
91.0452	131
92.0537	110
98.0191	14
101.0386	58
102.0363	209
103.0444	104
104.0521	43
111.0243	11
112.0232	14
113.0402	87
114.0381	55
114.0493	11
115.0435	32
115.0577	20
116.0506	17
118.0533	64
119.062	26
126.0453	58
127.0553	104
128.0509	93
129.0476	72
130.0389	14
130.0649	17
131.0605	49
137.0398	93
138.0386	37
138.0474	14
139.0499	20
139.0596	29
140.0499	78
141.0554	11
142.0532	17
143.062	40
152.0521	34
153.0577	52
154.0656	75
155.0605	52
156.0665	11
164.048	168
165.0454	29
167.0596	23
168.0691	26
179.0609	66
180.0687	52
181.0765	96
