Mass spectrum: Eprosartan; LC-ESI-QTOF; MS2; 40 V
Name: Eprosartan
Class: Pharmaceutical
Formula: C23H24N2O4S
Exact mass: 424.1457
SMILES: CCCCc1ncc(\C=C(/Cc2sccc2)C(O)=O)n1Cc3ccc(cc3)C(O)=O
InChI: InChI=1S/C23H24N2O4S/c1-2-3-6-21-24-14-19(12-18(23(28)29)13-20-5-4-11-30-20)25(21)15-16-7-9-17(10-8-16)22(26)27/h4-5,7-12,14H,2-3,6,13,15H2,1H3,(H,26,27)(H,28,29)/b18-12+
Instrument: TripleTOF 5600 SCIEX
Instrument type: LC-ESI-QTOF
Ms type: MS2
Ion mode: POSITIVE
Collision energy: 40
Fragmentation mode: CID
Ionization: ESI
Column name: Zorbax Eclipse Plus C18 2.1 mm x 150 mm, 3.5 um, Agilent
Retention time: 6.955 min
Precursor m/z: 425.1528
Precursor type: [M+H]+
m/z	relative intensity
77.0422	31
78.0363	20
79.0595	10
80.0528	89
84.0836	22
97.0126	203
106.0307	52
107.0513	394
119.0617	16
120.0691	37
124.0404	57
135.0454	800
137.1089	14
153.104	10
161.0289	29
161.108	21
162.0382	34
162.1154	11
163.0471	12
163.1236	340
164.0574	42
168.0849	11
169.0776	17
170.0976	15
174.0377	21
177.103	18
189.102	30
196.076	13
201.048	98
202.0564	85
205.0969	18
207.1135	969
215.0641	21
231.0458	16
240.0654	14
243.0945	15
244.1027	119
245.1107	115
271.1442	11
272.0976	170
273.1058	126
278.0641	10
290.1088	36
291.116	46
295.1401	11
297.1605	78
323.1351	11
341.1501	397
361.1355	31
379.1479	104
389.1338	28
407.1402	168
425.1527	999
