Mass spectrum: Sulfadoxine; LC-ESI-QTOF; MS2; 40 V
Name: Sulfadoxine
Class: Pharmaceutical
Formula: C12H14N4O4S
Exact mass: 310.0736
SMILES: COc1ncnc(N[S](=O)(=O)c2ccc(N)cc2)c1OC
InChI: InChI=1S/C12H14N4O4S/c1-19-10-11(14-7-15-12(10)20-2)16-21(17,18)9-5-3-8(13)4-6-9/h3-7H,13H2,1-2H3,(H,14,15,16)
Instrument: TripleTOF 5600 SCIEX
Instrument type: LC-ESI-QTOF
Ms type: MS2
Ion mode: NEGATIVE
Collision energy: 40
Fragmentation mode: CID
Ionization: ESI
Column name: Zorbax Eclipse Plus C18 2.1 mm x 150 mm, 3.5 um, Agilent
Retention time: 7.083 min
Precursor m/z: 309.0663
Precursor type: [M-H]-
m/z	relative intensity
63.9664	72
92.0509	66
134.9874	102
138.0336	54
156.0137	999
178.978	90
196.0187	66
197.003	84
215.058	391
229.0705	54
230.081	84
251.0237	367
279.0189	559
294.0403	222
309.0647	186
