Mass spectrum: Losartan; LC-ESI-QTOF; MS2; 40 V
Name: Losartan
Class: Pharmaceutical
Formula: C22H23ClN6O
Exact mass: 422.1622
SMILES: CCCCc1nc(c(n1Cc2ccc(cc2)c3ccccc3c4n[nH]nn4)CO)Cl
InChI: InChI=1S/C22H23ClN6O/c1-2-3-8-20-24-21(23)19(14-30)29(20)13-15-9-11-16(12-10-15)17-6-4-5-7-18(17)22-25-27-28-26-22/h4-7,9-12,30H,2-3,8,13-14H2,1H3,(H,25,26,27,28)
Instrument: TripleTOF 5600 SCIEX
Instrument type: LC-ESI-QTOF
Ms type: MS2
Ion mode: POSITIVE
Collision energy: 40
Fragmentation mode: CID
Ionization: ESI
Column name: Zorbax Eclipse Plus C18 2.1 mm x 150 mm, 3.5 um, Agilent
Retention time: 9.819 min
Precursor m/z: 423.1695
Precursor type: [M+H]+
m/z	relative intensity
142.0294	12
153.0696	17
171.0683	107
178.0667	47
179.0722	26
180.0808	173
190.0655	69
191.073	12
192.0792	142
205.0754	43
206.084	159
207.0916	999
235.0975	36
241.0761	46
258.1026	45
281.0937	12
282.1021	17
298.1213	12
324.149	19
341.1758	18
362.1419	22
