Mass spectrum: 4-Aminoantipyrine; LC-ESI-QTOF; MS2; 90 V
Name: 4-Aminoantipyrine
Class: Transformation_product
Formula: C11H13N3O
Exact mass: 203.1059
SMILES: CC1=C(C(=O)N(N1C)C2=CC=CC=C2)N
InChI: InChI=1S/C11H13N3O/c1-8-10(12)11(15)14(13(8)2)9-6-4-3-5-7-9/h3-7H,12H2,1-2H3
Instrument: TripleTOF 5600 SCIEX
Instrument type: LC-ESI-QTOF
Ms type: MS2
Ion mode: POSITIVE
Collision energy: 90
Fragmentation mode: CID
Ionization: ESI
Column name: Zorbax Eclipse Plus C18 2.1 mm x 150 mm, 3.5 um, Agilent
Retention time: 4.783 min
Precursor m/z: 204.1131
Precursor type: [M+H]+
m/z	relative intensity
39.0231	24
41.0264	59
41.0378	12
42.034	103
49.0078	12
50.0155	71
51.0232	276
54.0341	17
56.0498	999
58.0657	14
63.0227	12
65.0384	64
66.0457	24
74.0158	14
75.0231	22
76.0319	17
77.0388	263
83.0592	24
89.0387	27
92.0494	12
93.0589	22
94.064	9
103.0576	14
