Mass spectrum: Tetraconazole; LC-ESI-QTOF; MS2; 90 V
Name: Tetraconazole
Class: Fungicide
Formula: C13H11Cl2F4N3O
Exact mass: 371.0215
SMILES: C1=CC(=C(C=C1Cl)Cl)C(CN2C=NC=N2)COC(C(F)F)(F)F
InChI: InChI=1S/C13H11Cl2F4N3O/c14-9-1-2-10(11(15)3-9)8(4-22-7-20-6-21-22)5-23-13(18,19)12(16)17/h1-3,6-8,12H,4-5H2
Instrument: TripleTOF 6600 SCIEX
Instrument type: LC-ESI-QTOF
Ms type: MS2
Ion mode: POSITIVE
Collision energy: 90
Fragmentation mode: CID
Ionization: ESI
Column name: Zorbax Eclipse Plus C18 2.1 mm x 150 mm, 3.5 um, Agilent
Retention time: 12.382 min
Precursor m/z: 372.0288
Precursor type: [M+H]+
m/z	relative intensity
43.0291	70
51.0042	71
61.0074	11
62.015	40
63.0232	109
70.0403	404
72.9841	245
82.9447	17
87.0231	15
88.0306	58
89.0389	999
96.9839	109
98.9996	314
101.0008	10
107.0293	18
113.0385	17
114.0464	42
115.0546	343
122.9999	910
124.0076	302
132.9606	183
133.0452	13
149.0158	36
158.9767	704
176.967	14
