Mass spectrum: Torasemide; LC-ESI-QTOF; MS2; 120 V
Name: Torasemide
Class: Pharmaceutical
Formula: C16H20N4O3S
Exact mass: 348.1256
SMILES: CC(C)NC(=O)N[S](=O)(=O)c1cnccc1Nc2cccc(C)c2
InChI: InChI=1S/C16H20N4O3S/c1-11(2)18-16(21)20-24(22,23)15-10-17-8-7-14(15)19-13-6-4-5-12(3)9-13/h4-11H,1-3H3,(H,17,19)(H2,18,20,21)
Instrument: TripleTOF 5600 SCIEX
Instrument type: LC-ESI-QTOF
Ms type: MS2
Ion mode: POSITIVE
Collision energy: 120
Fragmentation mode: CID
Ionization: ESI
Column name: Zorbax Eclipse Plus C18 2.1 mm x 150 mm, 3.5 um, Agilent
Retention time: 7.633 min
Precursor m/z: 349.1329
Precursor type: [M+H]+
m/z	relative intensity
51.0303	24
65.0424	22
67.0455	16
74.0174	43
75.0259	61
76.0338	10
77.0418	222
78.036	16
78.049	14
79.0441	12
81.0477	11
86.0172	21
87.0241	50
88.0326	179
89.0406	319
90.048	129
91.0432	10
91.0555	12
101.0391	124
102.0339	10
102.0468	68
103.0539	31
104.0493	14
113.0389	388
114.0459	536
115.0488	201
116.0493	45
117.0573	186
118.0527	14
125.0387	16
126.0462	74
127.054	313
128.0549	442
129.0473	49
130.064	16
138.0333	12
139.0411	46
140.0499	999
141.0566	230
142.0521	89
152.0481	38
153.0566	77
154.0649	217
155.0597	91
156.0685	13
165.0438	15
166.0524	92
167.0596	135
168.0679	425
169.0758	15
179.0598	81
180.0681	75
181.0759	493
182.0836	56
183.0902	28
