Mass spectrum: Coumaphos; LC-ESI-QTOF; MS2; 80 V
Name: Coumaphos
Class: Insecticide
Formula: C14H16ClO5PS
Exact mass: 362.0145
SMILES: CCOP(=S)(OCC)OC1=CC2=C(C=C1)C(=C(C(=O)O2)Cl)C
InChI: InChI=1S/C14H16ClO5PS/c1-4-17-21(22,18-5-2)20-10-6-7-11-9(3)13(15)14(16)19-12(11)8-10/h6-8H,4-5H2,1-3H3
Instrument: TripleTOF 6600 SCIEX
Instrument type: LC-ESI-QTOF
Ms type: MS2
Ion mode: POSITIVE
Collision energy: 80
Fragmentation mode: CID
Ionization: ESI
Column name: Zorbax Eclipse Plus C18 2.1 mm x 150 mm, 3.5 um, Agilent
Retention time: 14.049 min
Precursor m/z: 363.0218
Precursor type: [M+H]+
m/z	relative intensity
39.0218	12
43.017	14
44.9786	38
46.9676	50
49.0061	12
50.0151	24
51.0223	50
62.0146	9
62.9625	26
63.0218	26
64.9781	132
65.0377	139
68.9786	81
68.996	36
70.9944	14
72.9833	14
74.0142	14
75.0217	62
76.0304	31
77.038	380
78.0456	28
78.9393	146
79.0534	14
80.9728	57
84.9729	14
89.0383	125
90.0454	60
90.9936	12
91.0535	748
92.0248	9
92.0614	12
94.9935	16
96.9498	503
97.0093	9
98.9974	21
101.0379	98
102.0457	450
103.0536	486
104.0615	43
105.0327	19
105.0436	19
107.0485	16
108.0015	33
109.0095	14
113.0372	31
114.0459	60
115.0533	690
117.0338	16
118.0407	50
118.9938	12
119.0481	231
120.0561	81
121.0095	115
122.0185	21
123.0259	21
125.0144	79
126.0223	12
129.0329	16
129.0438	45
130.04	40
131.0487	999
132.0558	113
133.0091	31
134.0173	223
135.0253	368
136.0047	21
136.0325	38
137.015	115
138.0225	40
141.0094	14
145.0095	67
146.0172	31
146.0343	14
147.0268	219
147.0431	505
148.0051	12
148.0328	16
148.0516	161
149.014	187
150.0221	36
151.9888	14
153.0096	43
154.0168	33
155.025	43
159.0441	178
161.0055	19
162.0132	96
163.0211	551
164.0285	151
165.0095	226
166.0172	103
167.9784	21
168.9856	40
171.0016	31
175.0369	24
177.0095	19
178.9712	9
179.9793	21
180.9872	21
181.0039	52
182.0126	274
191.0167	79
193.0053	52
194.0138	96
196.9817	50
197.9896	26
207.9733	14
210.009	24
211.0147	48
224.9805	14
225.9854	127
226.9928	52
256.9757	31
