Mass spectrum: 4-Carboxy-9-acridanone; LC-ESI-QTOF; MS2; 130 V
Name: 4-Carboxy-9-acridanone
Class: Pharmaceutical; Antimicrobial
Formula: C14H9NO3
Exact mass: 239.0582
SMILES: c1ccc2c(c1)c(=O)c3cccc(c3[nH]2)C(=O)O
InChI: InChI=1S/C14H9NO3/c16-13-8-4-1-2-7-11(8)15-12-9(13)5-3-6-10(12)14(17)18/h1-7H,(H,15,16)(H,17,18)
Instrument: TripleTOF 5600 SCIEX
Instrument type: LC-ESI-QTOF
Ms type: MS2
Ion mode: POSITIVE
Collision energy: 130
Fragmentation mode: CID
Ionization: ESI
Column name: Zorbax Eclipse Plus C18 2.1 mm x 150 mm, 3.5 um, Agilent
Retention time: 8.816 min
Precursor m/z: 240.0655
Precursor type: [M+H]+
m/z	relative intensity
60.0041	159
62.0577	66
63.0525	106
65.0421	53
73.01	79
74.0175	719
75.0245	146
76.0316	53
84.002	79
85.0091	452
86.0159	999
87.0117	79
87.0245	466
87.0383	119
88.0201	253
89.0397	239
98.0159	239
99.022	106
109.0131	79
110.0122	133
111.0218	79
113.038	226
122.0132	106
137.0384	93
