Mass spectrum: Nadolol; LC-ESI-QTOF; MS2; 150 V
Name: Nadolol
Class: Pharmaceutical
Formula: C17H27NO4
Exact mass: 309.194
SMILES: CC(C)(C)NCC(COC1=CC=CC2=C1CC(C(C2)O)O)O
InChI: InChI=1S/C17H27NO4/c1-17(2,3)18-9-12(19)10-22-16-6-4-5-11-7-14(20)15(21)8-13(11)16/h4-6,12,14-15,18-21H,7-10H2,1-3H3
Instrument: TripleTOF 5600 SCIEX
Instrument type: LC-ESI-QTOF
Ms type: MS2
Ion mode: POSITIVE
Collision energy: 150
Fragmentation mode: CID
Ionization: ESI
Column name: Zorbax Eclipse Plus C18 2.1 mm x 150 mm, 3.5 um, Agilent
Retention time: 5.13 min
Precursor m/z: 310.2013
Precursor type: [M+H]+
m/z	relative intensity
50.0199	149
50.0289	83
51.0289	582
56.0549	166
57.0747	99
58.0698	166
58.078	83
62.0194	116
63.0271	249
65.0426	632
74.0175	183
75.0244	116
76.0337	83
77.0417	999
77.0626	116
78.0497	216
87.0247	83
89.0411	316
91.0563	133
91.0662	83
102.0467	183
103.0558	116
115.0557	566
126.0484	99
127.0533	116
128.0639	116
152.0604	116
