Mass spectrum: 3-Methyl-4-(methylthio)phenol; LC-ESI-QTOF; MS2; 70 V
Name: 3-Methyl-4-(methylthio)phenol
Class: Industrial_process
Formula: C8H10OS
Exact mass: 154.0452
SMILES: CC1=C(C=CC(=C1)O)SC
InChI: InChI=1S/C8H10OS/c1-6-5-7(9)3-4-8(6)10-2/h3-5,9H,1-2H3
Instrument: TripleTOF 6600 SCIEX
Instrument type: LC-ESI-QTOF
Ms type: MS2
Ion mode: POSITIVE
Collision energy: 70
Fragmentation mode: CID
Ionization: ESI
Column name: Zorbax Eclipse Plus C18 2.1 mm x 150 mm, 3.5 um, Agilent
Retention time: 9.802 min
Precursor m/z: 155.0525
Precursor type: [M+H]+
m/z	relative intensity
37.008	63
38.0155	63
39.0234	174
44.98	142
50.0156	348
51.0235	999
53.039	111
55.0188	95
63.0239	95
77.0393	666
79.0557	79
89.0387	63
