Mass spectrum: 3,5-Diacetamidobenzoic acid; LC-ESI-QTOF; MS2; 50 V
Name: 3,5-Diacetamidobenzoic acid
Class: Pharmaceutical
Formula: C11H12N2O4
Exact mass: 236.0797
SMILES: CC(=O)NC1=CC(=CC(=C1)C(=O)O)NC(=O)C
InChI: InChI=1S/C11H12N2O4/c1-6(14)12-9-3-8(11(16)17)4-10(5-9)13-7(2)15/h3-5H,1-2H3,(H,12,14)(H,13,15)(H,16,17)
Instrument: TripleTOF 5600 SCIEX
Instrument type: LC-ESI-QTOF
Ms type: MS2
Ion mode: POSITIVE
Collision energy: 50
Fragmentation mode: CID
Ionization: ESI
Column name: Zorbax Eclipse Plus C18 2.1 mm x 150 mm, 3.5 um, Agilent
Retention time: 5.221 min
Precursor m/z: 237.087
Precursor type: [M+H]+
m/z	relative intensity
43.0309	78
65.0461	182
66.0436	45
67.0396	22
77.0433	19
80.0548	333
82.07	19
90.0394	26
92.0533	603
93.0615	45
107.04	16
107.0628	999
108.0478	159
108.0698	91
109.0286	22
109.0784	473
131.0623	16
132.0435	22
135.0568	333
136.0405	29
148.0656	32
149.0737	114
150.0525	26
153.0679	91
177.0651	16
