Mass spectrum: Coumaphos; LC-ESI-QTOF; MS2; 60 V
Name: Coumaphos
Class: Insecticide
Formula: C14H16ClO5PS
Exact mass: 362.0145
SMILES: CCOP(=S)(OCC)OC1=CC2=C(C=C1)C(=C(C(=O)O2)Cl)C
InChI: InChI=1S/C14H16ClO5PS/c1-4-17-21(22,18-5-2)20-10-6-7-11-9(3)13(15)14(16)19-12(11)8-10/h6-8H,4-5H2,1-3H3
Instrument: TripleTOF 6600 SCIEX
Instrument type: LC-ESI-QTOF
Ms type: MS2
Ion mode: POSITIVE
Collision energy: 60
Fragmentation mode: CID
Ionization: ESI
Column name: Zorbax Eclipse Plus C18 2.1 mm x 150 mm, 3.5 um, Agilent
Retention time: 14.049 min
Precursor m/z: 363.0218
Precursor type: [M+H]+
m/z	relative intensity
64.9778	13
65.0382	12
68.9781	15
68.9964	11
77.0379	37
78.939	22
80.9724	32
90.993	15
91.0534	125
96.95	303
101.0372	11
102.0457	55
103.0533	143
104.0613	17
109.0045	11
114.0459	11
115.0537	358
119.0478	82
120.0562	13
121.009	25
123.026	10
125.0144	27
130.0397	13
131.0487	415
132.0569	175
133.0097	10
134.0178	34
135.0256	157
136.0329	22
137.0143	53
138.0224	16
146.0176	15
147.0261	405
148.0339	39
148.051	123
149.0141	100
150.0223	100
153.0094	24
155.0244	49
159.0436	95
162.0126	33
163.0208	255
164.0286	248
165.0095	104
166.0172	169
168.986	23
171.0025	49
175.0383	40
177.0099	10
180.9868	22
181.0045	39
182.0126	131
191.0153	117
192.0232	25
193.0039	43
194.0125	279
195.0194	10
196.9817	69
197.9886	33
208.9812	11
208.9994	31
210.007	65
211.0153	354
224.9776	43
225.9853	616
226.9934	999
242.9434	12
256.9764	122
270.938	38
272.9717	51
288.9483	82
