Mass spectrum: Fluquinconazole; LC-ESI-QTOF; MS2; 130 V
Name: Fluquinconazole
Class: Fungicide
Formula: C16H8Cl2FN5O
Exact mass: 375.009
SMILES: C1=CC2=C(C=C1F)C(=O)N(C(=N2)N3C=NC=N3)C4=C(C=C(C=C4)Cl)Cl
InChI: InChI=1S/C16H8Cl2FN5O/c17-9-1-4-14(12(18)5-9)24-15(25)11-6-10(19)2-3-13(11)22-16(24)23-8-20-7-21-23/h1-8H
Instrument: TripleTOF 6600 SCIEX
Instrument type: LC-ESI-QTOF
Ms type: MS2
Ion mode: POSITIVE
Collision energy: 130
Fragmentation mode: CID
Ionization: ESI
Column name: Zorbax Eclipse Plus C18 2.1 mm x 150 mm, 3.5 um, Agilent
Retention time: 12.549 min
Precursor m/z: 376.0163
Precursor type: [M+H]+
m/z	relative intensity
30.9976	129
33.014	57
37.0072	54
39.023	18
46.9689	30
48.9837	63
50.0135	15
57.0131	819
58.008	66
59.9996	15
61.0066	84
62.0147	45
63.0228	27
64.0173	171
68.0043	39
72.9833	231
73.0071	69
73.9771	12
74.0145	525
75.0097	18
75.023	78
76.0174	27
81.0123	303
82.008	999
82.944	33
83.0276	15
83.9742	27
84.9828	21
87.012	24
88.0169	72
93.0112	12
94.0209	33
96.9834	39
97.977	36
99.0097	153
100.0167	294
105.0117	15
106.0071	18
107.028	24
108.0228	510
108.9839	99
112.0149	21
123.9919	33
131.0267	21
132.0255	18
132.9577	15
135.0119	27
155.0255	45
156.0226	30
162.0317	18
164.0017	12
180.022	30
181.0315	18
182.0375	51
189.0435	12
207.0355	21
