Mass spectrum: Salicylamide; LC-ESI-QTOF; MS2; 40 V
Name: Salicylamide
Formula: C7H7NO2
Exact mass: 137.0477
SMILES: C1=CC=C(C(=C1)C(=O)N)O
InChI: InChI=1S/C7H7NO2/c8-7(10)5-3-1-2-4-6(5)9/h1-4,9H,(H2,8,10)
Instrument: TripleTOF X500R SCIEX
Instrument type: LC-ESI-QTOF
Ms type: CID
Ion mode: POSITIVE
Collision energy: 40
Ionization: ESI
Column name: Zorbax Eclipse Plus C18 2.1 mm x 150 mm, 3.5 um, Agilent
Retention time: 6.236 min
Precursor m/z: 138.055
Precursor type: [M+H]+
m/z	relative intensity
37.0075	18
38.0156	20
39.023	356
44.0131	42
51.0229	18
53.0017	13
65.0385	999
75.0242	10
77.0391	61
93.0334	173
102.0349	30
121.0289	283
