Mass spectrum: 6-Acetylcodeine; LC-ESI-QTOF; MS2; 90 V
Name: 6-Acetylcodeine
Class: Pharmaceutical; Transformation_product
Formula: C20H23NO4
Exact mass: 341.1627
SMILES: CC(=O)OC1C=CC2C3CC4=C5C2(C1OC5=C(C=C4)OC)CCN3C
InChI: InChI=1S/C20H23NO4/c1-11(22)24-16-7-5-13-14-10-12-4-6-15(23-3)18-17(12)20(13,19(16)25-18)8-9-21(14)2/h4-7,13-14,16,19H,8-10H2,1-3H3
Instrument: TripleTOF 5600 SCIEX
Instrument type: LC-ESI-QTOF
Ms type: MS2
Ion mode: POSITIVE
Collision energy: 90
Fragmentation mode: CID
Ionization: ESI
Column name: Zorbax Eclipse Plus C18 2.1 mm x 150 mm, 3.5 um, Agilent
Retention time: 6.207 min
Precursor m/z: 342.17
Precursor type: [M+H]+
m/z	relative intensity
43.0268	103
44.0573	21
58.0701	17
65.0423	13
77.0409	67
89.0397	25
91.0557	37
94.0421	11
102.0466	22
103.0539	32
114.0458	16
115.0544	334
116.0617	24
118.0411	22
126.0462	35
127.0539	152
128.0622	282
129.0693	35
131.049	34
139.0544	136
140.0611	26
141.0696	125
142.0757	10
143.0487	16
144.0564	27
150.0459	35
151.0543	212
152.0624	999
153.0698	360
154.0768	45
155.0486	79
156.0565	17
157.0646	23
161.0598	11
163.0543	81
164.0623	176
165.0701	696
166.078	28
167.0846	9
168.0565	69
169.0645	45
170.036	15
171.0447	16
171.0802	11
176.062	112
177.0693	41
178.078	125
179.0534	11
179.0858	22
180.0568	30
181.0647	206
182.0722	23
183.0435	53
184.0518	19
185.0594	19
189.0697	158
190.0774	30
191.0855	20
192.0557	17
193.0641	35
194.0709	14
195.0798	11
197.059	24
200.0603	16
201.0693	9
202.0783	15
204.0806	24
205.0642	32
205.0863	12
207.0789	21
209.0595	13
218.0962	15
221.0601	19
