Mass spectrum: Ranitidine-N-oxide; LC-ESI-QTOF; MS2; 50 V
Name: Ranitidine-N-oxide
Class: Pharmaceutical; Transformation_product
Formula: C13H22N4O4S
Exact mass: 330.1362
SMILES: CNC(/NCCSCc1oc(C[N+](C)(C)[O-])cc1)=C\[N+]([O-])=O
InChI: InChI=1S/C13H22N4O4S/c1-14-13(8-16(18)19)15-6-7-22-10-12-5-4-11(21-12)9-17(2,3)20/h4-5,8,14-15H,6-7,9-10H2,1-3H3/b13-8+
Instrument: TripleTOF 5600 SCIEX
Instrument type: LC-ESI-QTOF
Ms type: MS2
Ion mode: NEGATIVE
Collision energy: 50
Fragmentation mode: CID
Ionization: ESI
Column name: Zorbax Eclipse Plus C18 2.1 mm x 150 mm, 3.5 um, Agilent
Retention time: 4.879 min
Precursor m/z: 329.1289
Precursor type: [M-H]-
m/z	relative intensity
45.9971	691
46.0211	230
55.0305	76
60.0093	76
97.012	76
116.0473	999
120.9607	76
125.0062	614
136.9484	153
138.9583	76
