Mass spectrum: Benzyl-dimethyl-hexadecylammonium; LC-ESI-QTOF; MS2; 30 V
Name: Benzyl-dimethyl-hexadecylammonium
Class: Pharmaceutical
Formula: [C25H46N]+
Exact mass: 360.3625
SMILES: CCCCCCCCCCCCCCCC[N+](C)(C)Cc1ccccc1
InChI: InChI=1S/C25H46N/c1-4-5-6-7-8-9-10-11-12-13-14-15-16-20-23-26(2,3)24-25-21-18-17-19-22-25/h17-19,21-22H,4-16,20,23-24H2,1-3H3/q+1
Instrument: TripleTOF 5600 SCIEX
Instrument type: LC-ESI-QTOF
Ms type: MS2
Ion mode: POSITIVE
Collision energy: 30
Fragmentation mode: CID
Ionization: ESI
Column name: Zorbax Eclipse Plus C18 2.1 mm x 150 mm, 3.5 um, Agilent
Retention time: 13.869 min
Precursor m/z: 360.3625
Precursor type: [M]+
m/z	relative intensity
91.056	321
268.2999	531
360.3624	999
