Mass spectrum: Daidzein; LC-ESI-QTOF; MS2; 40 V
Name: Daidzein
Class: Pharmaceutical; Natural_product
Formula: C15H10O4
Exact mass: 254.0579
SMILES: Oc1ccc(cc1)C2=COc3cc(O)ccc3C2=O
InChI: InChI=1S/C15H10O4/c16-10-3-1-9(2-4-10)13-8-19-14-7-11(17)5-6-12(14)15(13)18/h1-8,16-17H
Instrument: TripleTOF 5600 SCIEX
Instrument type: LC-ESI-QTOF
Ms type: MS2
Ion mode: POSITIVE
Collision energy: 40
Fragmentation mode: CID
Ionization: ESI
Column name: Zorbax Eclipse Plus C18 2.1 mm x 150 mm, 3.5 um, Agilent
Retention time: 7.744 min
Precursor m/z: 255.0652
Precursor type: [M+H]+
m/z	relative intensity
55.0179	28
65.0385	78
68.9963	36
77.0383	23
81.0332	64
89.038	21
91.0541	408
93.0324	19
105.0336	34
106.0413	20
109.0287	19
115.0536	33
118.0405	15
119.0488	107
121.0285	55
127.0538	62
128.0618	207
129.0689	121
131.048	66
131.0861	17
133.028	50
134.0364	36
137.023	684
141.0698	36
143.0847	66
145.0275	90
147.0422	12
149.0232	66
151.0535	41
152.0615	245
153.0695	437
155.0514	15
156.0552	11
157.0637	130
165.0685	25
168.059	10
169.0644	33
170.0711	15
171.0797	150
175.0377	19
181.0645	802
182.0719	52
184.0514	103
185.0585	19
197.0603	84
198.0677	65
199.0753	999
209.0592	91
210.0664	31
211.0746	23
212.0448	25
225.0549	19
226.0629	42
227.0693	405
237.0541	252
255.0649	743
