Mass spectrum: Oxadixyl; LC-ESI-QTOF; MS2; 60 V
Name: Oxadixyl
Class: Fungicide
Formula: C14H18N2O4
Exact mass: 278.1267
SMILES: CC1=C(C(=CC=C1)C)N(C(=O)COC)N2CCOC2=O
InChI: InChI=1S/C14H18N2O4/c1-10-5-4-6-11(2)13(10)16(12(17)9-19-3)15-7-8-20-14(15)18/h4-6H,7-9H2,1-3H3
Instrument: TripleTOF 6600 SCIEX
Instrument type: LC-ESI-QTOF
Ms type: MS2
Ion mode: POSITIVE
Collision energy: 60
Fragmentation mode: CID
Ionization: ESI
Column name: Zorbax Eclipse Plus C18 2.1 mm x 150 mm, 3.5 um, Agilent
Retention time: 8.678 min
Precursor m/z: 279.1339
Precursor type: [M+H]+
m/z	relative intensity
45.0323	128
51.0219	20
65.0367	30
77.037	195
79.0523	77
89.0364	30
90.044	56
91.0522	185
103.0513	66
105.0676	190
115.0524	36
117.0554	952
118.0632	149
119.0823	20
120.0785	87
130.0618	36
131.0681	30
132.0789	999
