Mass spectrum: Phenothiazine; LC-ESI-QTOF; MS2; 10 V
Name: Phenothiazine
Class: Pharmaceutical
Formula: C12H9NS
Exact mass: 199.0456
InChI: InChI=1S/C12H9NS/c1-3-7-11-9(5-1)13-10-6-2-4-8-12(10)14-11/h1-8,13H
Instrument: TripleTOF 6600 SCIEX
Instrument type: LC-ESI-QTOF
Ms type: CID
Ion mode: POSITIVE
Collision energy: 10
Ionization: ESI
Column name: Zorbax Eclipse Plus C18 2.1 mm x 150 mm, 3.5 um, Agilent
Retention time: 13.113 min
Precursor m/z: 200.0529
Precursor type: [M+H]+
m/z	relative intensity
200.0522	999
