Mass spectrum: Cytidine; LC-ESI-QTOF; MS2; 40 V
Name: Cytidine
Formula: C9H13N3O5
Exact mass: 243.0855
SMILES: OCC(C(O)C1O)OC1N2C(N=C(N)C=C2)=O
InChI: InChI=1S/C9H13N3O5/c10-5-1-2-12(9(16)11-5)8-7(15)6(14)4(3-13)17-8/h1-2,4,6-8,13-15H,3H2,(H2,10,11,16)
Instrument: TripleTOF 6600 SCIEX
Instrument type: LC-ESI-QTOF
Ms type: MS2
Ion mode: POSITIVE
Collision energy: 40
Fragmentation mode: CID
Ionization: ESI
Column name: Zorbax Eclipse Plus C18 2.1 mm x 150 mm, 3.5 um, Agilent
Retention time: 2.2 min
Precursor m/z: 244.0928
Precursor type: [M+H]+
m/z	relative intensity
69.0436	30
94.0394	46
95.0232	144
112.0499	999
