Mass spectrum: 5`-Deoxy-5`-(methylthio)adenosine; LC-ESI-QTOF; MS2; 110 V
Name: 5`-Deoxy-5`-(methylthio)adenosine
Class: Metabolite
Formula: C11H15N5O3S
Exact mass: 297.0896
SMILES: NC1=NC=NC2=C1N=CN2C3C(O)C(O)C(CSC)O3
InChI: InChI=1S/C11H15N5O3S/c1-20-2-5-7(17)8(18)11(19-5)16-4-15-6-9(12)13-3-14-10(6)16/h3-5,7-8,11,17-18H,2H2,1H3,(H2,12,13,14)
Instrument: TripleTOF 5600 SCIEX
Instrument type: LC-ESI-QTOF
Ms type: MS2
Ion mode: POSITIVE
Collision energy: 110
Fragmentation mode: CID
Ionization: ESI
Column name: Zorbax Eclipse Plus C18 2.1 mm x 150 mm, 3.5 um, Agilent
Retention time: 4.785 min
Precursor m/z: 298.0969
Precursor type: [M+H]+
m/z	relative intensity
34.9952	15
38.003	19
39.0235	25
40.0188	60
41.0391	24
43.0294	14
44.9799	65
45.9877	58
46.9955	65
49.0113	22
53.0139	17
55.0295	96
57.034	15
57.9876	11
58.9953	40
60.003	16
61.0112	389
65.014	933
66.0213	12
67.0296	320
69.0338	11
71.0129	15
75.0268	135
77.014	80
82.0404	26
92.0249	947
94.0402	113
109.0512	40
119.0358	999
136.0621	105
