Mass spectrum: Betaxolol; LC-ESI-QTOF; MS2; 120 V
Name: Betaxolol
Class: Pharmaceutical
Formula: C18H29NO3
Exact mass: 307.2147
SMILES: CC(C)NCC(COC1=CC=C(C=C1)CCOCC2CC2)O
InChI: InChI=1S/C18H29NO3/c1-14(2)19-11-17(20)13-22-18-7-5-15(6-8-18)9-10-21-12-16-3-4-16/h5-8,14,16-17,19-20H,3-4,9-13H2,1-2H3
Instrument: TripleTOF 5600 SCIEX
Instrument type: LC-ESI-QTOF
Ms type: MS2
Ion mode: POSITIVE
Collision energy: 120
Fragmentation mode: CID
Ionization: ESI
Column name: Zorbax Eclipse Plus C18 2.1 mm x 150 mm, 3.5 um, Agilent
Retention time: 7.064 min
Precursor m/z: 308.222
Precursor type: [M+H]+
m/z	relative intensity
42.0489	19
44.0597	52
56.0579	224
58.0726	114
65.0458	272
72.0861	38
74.0656	43
75.03	28
76.0355	38
77.0441	999
78.0527	95
79.0598	71
89.0438	100
91.0582	344
101.0431	23
102.05	105
103.0566	114
115.0566	492
126.0466	33
127.0575	71
128.0649	148
139.0528	28
152.0651	28
