Mass spectrum: Heptadecafluoroundecanoic acid; LC-ESI-QTOF; MS2; 90 V
Name: Heptadecafluoroundecanoic acid
Formula: C11H5F17O2
Exact mass: 492.0018
SMILES: C(CC(C(C(C(C(C(C(C(F)(F)F)(F)F)(F)F)(F)F)(F)F)(F)F)(F)F)(F)F)C(=O)O
InChI: InChI=1S/C11H5F17O2/c12-4(13,2-1-3(29)30)5(14,15)6(16,17)7(18,19)8(20,21)9(22,23)10(24,25)11(26,27)28/h1-2H2,(H,29,30)
Instrument: TripleTOF 5600 SCIEX
Instrument type: LC-ESI-QTOF
Ms type: MS2
Ion mode: NEGATIVE
Collision energy: 90
Fragmentation mode: CID
Ionization: ESI
Column name: Zorbax Eclipse Plus C18 2.1 mm x 150 mm, 3.5 um, Agilent
Retention time: 15.293 min
Precursor m/z: 490.9945
Precursor type: [M-H]-
m/z	relative intensity
39.0054	70
92.9962	182
97.9978	365
116.9951	84
142.9935	98
147.9952	999
166.9892	56
178.9956	126
197.9899	337
216.9897	140
228.9872	56
242.9899	84
266.986	154
278.9874	70
292.9818	84
316.9872	84
