Mass spectrum: Diphenylphosphinic acid; LC-ESI-QTOF; MS2; 70 V
Name: Diphenylphosphinic acid
Class: Industrial_process
Formula: C12H11O2P
Exact mass: 218.0497
SMILES: C1=CC=C(C=C1)P(=O)(C2=CC=CC=C2)O
InChI: InChI=1S/C12H11O2P/c13-15(14,11-7-3-1-4-8-11)12-9-5-2-6-10-12/h1-10H,(H,13,14)
Instrument: TripleTOF 5600 SCIEX
Instrument type: LC-ESI-QTOF
Ms type: CID
Ion mode: NEGATIVE
Collision energy: 70
Ionization: ESI
Column name: Zorbax Eclipse Plus C18 2.1 mm x 150 mm, 3.5 um, Agilent
Retention time: 7.24 min
Precursor m/z: 217.0424
Precursor type: [M-H]-
m/z	relative intensity
62.9638	999
