Mass spectrum: Dihydroxycarbazepine; LC-ESI-QTOF; MS2; 120 V
Name: Dihydroxycarbazepine
Class: Pharmaceutical; Metabolite
Formula: C15H14N2O3
Exact mass: 270.1004
SMILES: NC(=O)N1c2ccccc2C(O)C(O)c3ccccc13
InChI: InChI=1S/C15H14N2O3/c16-15(20)17-11-7-3-1-5-9(11)13(18)14(19)10-6-2-4-8-12(10)17/h1-8,13-14,18-19H,(H2,16,20)
Instrument: TripleTOF 5600 SCIEX
Instrument type: LC-ESI-QTOF
Ms type: MS2
Ion mode: POSITIVE
Collision energy: 120
Fragmentation mode: CID
Ionization: ESI
Column name: Zorbax Eclipse Plus C18 2.1 mm x 150 mm, 3.5 um, Agilent
Retention time: 6.663 min
Precursor m/z: 271.1077
Precursor type: [M+H]+
m/z	relative intensity
51.029	199
65.0425	36
74.018	208
75.0256	385
76.0329	72
77.041	608
78.0474	59
86.0165	59
87.0241	95
89.0395	236
90.046	40
98.0161	108
99.0232	122
100.0296	54
101.0385	222
102.0447	131
111.0217	18
113.0381	204
114.0441	40
115.0544	113
125.0382	145
126.0467	417
127.0416	90
127.0531	168
128.0493	122
129.0474	40
137.0376	45
138.0482	36
139.0532	290
140.0488	249
149.0374	72
150.0459	731
151.0537	999
152.0608	880
152.099	27
153.0583	108
154.0641	27
162.0442	22
163.0539	172
164.0485	49
166.0622	59
175.0399	27
176.0507	77
177.057	331
178.0644	622
179.0713	195
180.0783	59
188.0497	31
189.055	45
190.0644	68
