Mass spectrum: N,O-didesmethyl-venlafaxine; LC-ESI-QTOF; MS2; 60 V
Name: N,O-didesmethyl-venlafaxine
Class: Pharmaceutical; Metabolite; Transformation_product-Metabolite
Formula: C15H23NO2
Exact mass: 249.1729
SMILES: CNCC(c1ccc(cc1)O)C2(CCCCC2)O
InChI: InChI=1S/C15H23NO2/c1-16-11-14(12-5-7-13(17)8-6-12)15(18)9-3-2-4-10-15/h5-8,14,16-18H,2-4,9-11H2,1H3
Instrument: TripleTOF 5600 SCIEX
Instrument type: LC-ESI-QTOF
Ms type: MS2
Ion mode: POSITIVE
Collision energy: 60
Fragmentation mode: CID
Ionization: ESI
Column name: Zorbax Eclipse Plus C18 2.1 mm x 150 mm, 3.5 um, Agilent
Retention time: 5.659 min
Precursor m/z: 250.1802
Precursor type: [M+H]+
m/z	relative intensity
42.0422	19
44.059	570
51.0283	17
53.0437	11
55.0575	13
65.0416	17
67.057	13
77.0416	609
79.0564	312
81.071	79
91.0551	117
94.0419	13
103.0543	97
105.0697	250
107.0496	999
115.0539	151
116.0603	25
117.0684	24
120.0572	11
121.0656	17
127.0536	62
128.0611	12
129.069	13
131.0492	41
132.0555	12
133.0634	84
134.0598	22
135.0671	28
141.0693	31
144.056	73
145.0637	34
159.0802	11
