Mass spectrum: Doxycycline; LC-ESI-QTOF; MS2; 90 V
Name: Doxycycline
Class: Antimicrobial; Pharmaceutical
Formula: C22H24N2O8
Exact mass: 444.1533
SMILES: CC1C2C(C3C(C(=O)C(=C(C3(C(=O)C2=C(C4=C1C=CC=C4O)O)O)O)C(=O)N)N(C)C)O
InChI: InChI=1S/C22H24N2O8/c1-7-8-5-4-6-9(25)11(8)16(26)12-10(7)17(27)14-15(24(2)3)18(28)13(21(23)31)20(30)22(14,32)19(12)29/h4-7,10,14-15,17,25-27,30,32H,1-3H3,(H2,23,31)
Instrument: TripleTOF 5600 SCIEX
Instrument type: LC-ESI-QTOF
Ms type: MS2
Ion mode: POSITIVE
Collision energy: 90
Fragmentation mode: CID
Ionization: ESI
Column name: Zorbax Eclipse Plus C18 2.1 mm x 150 mm, 3.5 um, Agilent
Retention time: 6.499 min
Precursor m/z: 445.1605
Precursor type: [M+H]+
m/z	relative intensity
58.0732	95
70.0721	54
77.0451	82
91.0585	150
98.064	342
103.0585	68
115.0569	424
116.0663	54
117.0722	150
121.0328	82
126.0494	136
127.0562	862
128.0653	260
129.0728	123
131.0504	164
139.058	191
140.0643	205
141.0717	260
144.0587	191
145.0669	273
151.0539	136
152.0637	478
153.07	136
155.0511	136
157.0685	95
159.0836	82
160.0503	95
163.0509	82
164.0646	109
165.0725	752
166.0795	82
167.089	136
168.0574	999
169.0654	54
170.0696	54
171.083	109
174.0703	54
176.0626	232
177.0685	95
178.0765	246
180.0572	177
181.0649	232
182.0772	68
184.0501	68
187.0763	95
189.0727	232
190.0761	109
192.058	95
193.0686	82
194.074	150
195.0784	177
196.051	533
197.0599	191
198.0694	109
201.0577	273
204.0568	123
205.0635	109
207.082	82
209.0604	109
210.0688	68
211.0782	246
219.0845	68
221.0603	177
222.07	54
223.0795	68
224.0498	301
225.0509	95
225.0908	82
226.0639	273
239.0652	54
247.0799	54
249.0476	109
250.0619	136
251.0682	109
252.0447	164
