Mass spectrum: 2-Ethoxyethyl-N-(4-methylphenyl)carbamate; LC-ESI-QTOF; MS2; 130 V
Name: 2-Ethoxyethyl-N-(4-methylphenyl)carbamate
Class: Pharmaceutical
Formula: C12H17NO3
Exact mass: 223.1208
SMILES: CCOCCOC(=O)NC1=CC=C(C=C1)C
InChI: InChI=1S/C12H17NO3/c1-3-15-8-9-16-12(14)13-11-6-4-10(2)5-7-11/h4-7H,3,8-9H2,1-2H3,(H,13,14)
Instrument: TripleTOF 5600 SCIEX
Instrument type: LC-ESI-QTOF
Ms type: MS2
Ion mode: POSITIVE
Collision energy: 130
Fragmentation mode: CID
Ionization: ESI
Column name: Zorbax Eclipse Plus C18 2.1 mm x 150 mm, 3.5 um, Agilent
Retention time: 10.768 min
Precursor m/z: 224.1281
Precursor type: [M+H]+
m/z	relative intensity
43.0297	218
43.0399	72
45.0469	999
49.0179	52
50.0246	447
61.0154	93
62.0237	291
63.0326	280
65.0457	322
74.0208	62
77.0456	697
78.0505	52
91.0603	52
106.0694	41
