Mass spectrum: Pregabalin; LC-ESI-QTOF; MS2; 40 V
Name: Pregabalin
Class: Pharmaceutical
Formula: C8H17NO2
Exact mass: 159.1259
SMILES: CC(C)C[C@H](CN)CC(O)=O
InChI: InChI=1S/C8H17NO2/c1-6(2)3-7(5-9)4-8(10)11/h6-7H,3-5,9H2,1-2H3,(H,10,11)/t7-/m0/s1
Instrument: TripleTOF 5600 SCIEX
Instrument type: LC-ESI-QTOF
Ms type: MS2
Ion mode: POSITIVE
Collision energy: 40
Fragmentation mode: CID
Ionization: ESI
Column name: Zorbax Eclipse Plus C18 2.1 mm x 150 mm, 3.5 um, Agilent
Retention time: 5.167 min
Precursor m/z: 160.1332
Precursor type: [M+H]+
m/z	relative intensity
43.027	31
55.0225	226
55.0596	999
57.0745	68
59.0547	78
65.0412	26
68.0517	152
69.0345	47
69.0727	152
77.0396	31
79.0569	78
81.0731	63
82.0675	73
83.0517	63
83.0868	347
91.0548	78
97.1023	168
107.0845	36
124.1113	199
125.0954	63
142.1219	131
143.1079	26
