Mass spectrum: 3-Hydroxycarbamazepine; LC-ESI-QTOF; MS2; 150 V
Name: 3-Hydroxycarbamazepine
Class: Pharmaceutical
Formula: C15H12N2O2
Exact mass: 252.0899
SMILES: NC(=O)N1c2ccccc2C=Cc3ccc(O)cc13
InChI: InChI=1S/C15H12N2O2/c16-15(19)17-13-4-2-1-3-10(13)5-6-11-7-8-12(18)9-14(11)17/h1-9,18H,(H2,16,19)
Instrument: TripleTOF 5600 SCIEX
Instrument type: LC-ESI-QTOF
Ms type: MS2
Ion mode: POSITIVE
Collision energy: 150
Fragmentation mode: CID
Ionization: ESI
Column name: Zorbax Eclipse Plus C18 2.1 mm x 150 mm, 3.5 um, Agilent
Retention time: 7.917 min
Precursor m/z: 253.0972
Precursor type: [M+H]+
m/z	relative intensity
52.0362	21
60.003	76
63.0504	70
65.0438	65
73.0108	190
74.0183	999
74.0499	32
75.0126	32
75.0256	450
75.05	38
76.0202	27
76.0341	124
77.0403	238
78.0486	21
84.0012	32
85.0094	271
86.017	526
87.0257	320
88.0209	48
88.0315	32
89.0405	369
97.0072	70
98.0157	597
99.0229	162
100.0205	38
100.0321	48
101.0387	32
102.0465	81
109.0082	70
110.0149	168
111.0226	54
112.0182	27
112.0363	21
113.0391	146
114.0349	21
122.0154	97
123.0149	38
124.0271	27
125.0387	65
126.0453	184
128.0634	21
134.0155	27
137.0374	65
138.0462	38
139.0539	54
140.0501	27
149.0394	48
150.0463	293
151.0556	130
152.0627	43
161.0373	86
162.048	65
163.0554	59
164.0483	32
176.0514	27
