Mass spectrum: Isopentyltriphenylphosphonium; LC-ESI-QTOF; MS2; 130 V
Name: Isopentyltriphenylphosphonium
Formula: [C23H26P]+
Exact mass: 333.1767
SMILES: CC(C)CC[P+](C1=CC=CC=C1)(C2=CC=CC=C2)C3=CC=CC=C3
InChI: InChI=1S/C23H26P/c1-20(2)18-19-24(21-12-6-3-7-13-21,22-14-8-4-9-15-22)23-16-10-5-11-17-23/h3-17,20H,18-19H2,1-2H3/q+1
Instrument: TripleTOF 6600 SCIEX
Instrument type: LC-ESI-QTOF
Ms type: MS2
Ion mode: POSITIVE
Collision energy: 130
Fragmentation mode: CID
Ionization: ESI
Column name: Zorbax Eclipse Plus C18 2.1 mm x 150 mm, 3.5 um, Agilent
Retention time: 9.314 min
Precursor m/z: 333.1767
Precursor type: [M]+
m/z	relative intensity
39.0218	64
56.9866	90
63.0204	151
65.0358	100
79.9776	118
80.9854	199
89.0346	245
102.0423	105
107.0007	735
113.0349	85
115.0503	383
126.0427	236
131.0007	89
133.0159	79
139.0509	327
150.0427	188
151.0509	459
152.0591	999
156.009	94
157.0171	534
180.0087	72
181.017	413
183.0327	179
226.0745	77
257.0488	60
