Mass spectrum: Dipyridamole; LC-ESI-QTOF; MS2; 150 V
Name: Dipyridamole
Class: Pharmaceutical
Formula: C24H40N8O4
Exact mass: 504.3173
SMILES: OCCN(CCO)c1nc(N2CCCCC2)c3nc(nc(N4CCCCC4)c3n1)N(CCO)CCO
InChI: InChI=1S/C24H40N8O4/c33-15-11-31(12-16-34)23-26-20-19(21(27-23)29-7-3-1-4-8-29)25-24(32(13-17-35)14-18-36)28-22(20)30-9-5-2-6-10-30/h33-36H,1-18H2
Instrument: TripleTOF 5600 SCIEX
Instrument type: LC-ESI-QTOF
Ms type: MS2
Ion mode: POSITIVE
Collision energy: 150
Fragmentation mode: CID
Ionization: ESI
Column name: Zorbax Eclipse Plus C18 2.1 mm x 150 mm, 3.5 um, Agilent
Retention time: 7.666 min
Precursor m/z: 505.3245
Precursor type: [M+H]+
m/z	relative intensity
56.0542	96
66.0348	134
67.0334	211
67.058	96
68.0513	76
69.0486	115
76.0218	76
77.0162	172
78.0351	249
79.0303	326
80.0255	211
80.051	153
81.048	307
82.0671	76
84.081	115
91.0305	192
91.0521	76
92.0252	384
92.0364	96
92.0515	96
93.0339	96
93.0452	345
94.041	480
94.0643	76
95.0531	134
103.0291	192
104.0265	172
105.0304	115
105.0459	288
106.0391	806
107.0342	115
107.047	326
108.0543	249
108.0698	96
109.0514	134
116.0477	96
117.0184	76
117.0299	76
117.0451	288
118.0389	864
118.0532	134
119.035	999
120.0557	326
121.0508	326
122.0564	96
123.0629	96
129.0444	153
130.0397	345
131.0357	499
131.061	153
132.0426	422
132.0545	345
133.0506	864
134.0462	691
134.0705	134
135.0647	172
141.0455	153
142.0387	153
142.0544	76
143.0347	268
143.0574	134
144.0323	268
144.0543	365
145.0502	691
146.0472	441
146.0694	153
147.0666	422
148.0616	249
156.0564	307
157.0513	268
158.0541	422
159.0517	211
159.0657	307
160.0626	672
161.0576	249
161.0766	153
162.0779	153
163.0723	96
169.0479	230
170.0461	211
170.0696	192
171.067	422
172.0614	653
173.0616	384
173.0782	134
174.0752	518
175.0714	345
176.065	115
182.0553	76
182.0672	96
183.0615	153
184.0612	403
185.059	384
185.0785	134
186.0745	499
187.0707	499
188.0725	134
189.0874	307
195.0613	115
196.0611	134
197.085	96
198.0766	384
199.0763	288
199.1007	96
200.0696	230
200.0942	192
201.0887	307
202.0843	249
209.0778	134
210.073	76
211.0713	268
212.0931	192
213.0892	288
214.0845	96
222.081	115
224.0821	153
225.0861	115
226.0834	172
227.102	134
228.1004	96
237.086	76
239.1046	96
240.0965	76
249.0836	96
253.1153	96
