Mass spectrum: Citalopram-N-oxide; LC-ESI-QTOF; MS2; 40 V
Name: Citalopram-N-oxide
Class: Metabolite; Pharmaceutical; Transformation_product
Formula: C20H21FN2O2
Exact mass: 340.1587
SMILES: C[N+](C)(CCCC1(C2=C(CO1)C=C(C=C2)C#N)C3=CC=C(C=C3)F)[O-]
InChI: InChI=1S/C20H21FN2O2/c1-23(2,24)11-3-10-20(17-5-7-18(21)8-6-17)19-9-4-15(13-22)12-16(19)14-25-20/h4-9,12H,3,10-11,14H2,1-2H3
Instrument: TripleTOF 5600 SCIEX
Instrument type: LC-ESI-QTOF
Ms type: MS2
Ion mode: POSITIVE
Collision energy: 40
Fragmentation mode: CID
Ionization: ESI
Column name: Zorbax Eclipse Plus C18 2.1 mm x 150 mm, 3.5 um, Agilent
Retention time: 7.958 min
Precursor m/z: 341.166
Precursor type: [M+H]+
m/z	relative intensity
58.0703	15
83.0318	26
89.0392	20
109.0457	999
116.0498	238
121.0443	10
123.0237	32
129.0693	26
139.0541	10
140.0498	30
144.0443	19
156.0807	55
166.0648	172
184.076	10
190.0633	21
202.0718	10
207.0594	21
208.0549	22
214.0681	16
215.0851	57
218.0595	26
220.0663	71
221.0637	149
222.0704	53
226.0662	17
227.0729	152
233.0742	42
234.0716	439
235.0899	66
236.0872	15
238.0658	45
240.0799	41
241.0897	36
242.0964	92
244.0669	11
245.0689	22
246.0727	131
247.079	346
260.0864	35
261.0935	50
262.1026	536
280.1134	61
341.1662	73
