Mass spectrum: Dimethachlor; LC-ESI-QTOF; MS2; 150 V
Name: Dimethachlor
Class: Herbicide
Formula: C13H18ClNO2
Exact mass: 255.1026
SMILES: CC1=C(C(=CC=C1)C)N(CCOC)C(=O)CCl
InChI: InChI=1S/C13H18ClNO2/c1-10-5-4-6-11(2)13(10)15(7-8-17-3)12(16)9-14/h4-6H,7-9H2,1-3H3
Instrument: TripleTOF 6600 SCIEX
Instrument type: LC-ESI-QTOF
Ms type: MS2
Ion mode: POSITIVE
Collision energy: 150
Fragmentation mode: CID
Ionization: ESI
Column name: Zorbax Eclipse Plus C18 2.1 mm x 150 mm, 3.5 um, Agilent
Retention time: 10.992 min
Precursor m/z: 256.1099
Precursor type: [M+H]+
m/z	relative intensity
37.0082	92
38.0157	99
39.0235	206
46.9685	128
47.9768	28
48.9842	271
49.0077	228
50.0156	934
51.0233	999
52.0315	35
53.0399	28
61.0079	99
62.0154	171
63.0233	299
64.0311	42
65.0385	99
74.0149	128
75.0225	57
77.0384	214
89.0389	249
