Mass spectrum: Metoclopramide; LC-ESI-QTOF; MS2; 70 V
Name: Metoclopramide
Class: Pharmaceutical
Formula: C14H22ClN3O2
Exact mass: 299.1401
SMILES: CCN(CC)CCNC(=O)C1=CC(=C(C=C1OC)N)Cl
InChI: InChI=1S/C14H22ClN3O2/c1-4-18(5-2)7-6-17-14(19)10-8-11(15)12(16)9-13(10)20-3/h8-9H,4-7,16H2,1-3H3,(H,17,19)
Instrument: TripleTOF 5600 SCIEX
Instrument type: LC-ESI-QTOF
Ms type: MS2
Ion mode: POSITIVE
Collision energy: 70
Fragmentation mode: CID
Ionization: ESI
Column name: Zorbax Eclipse Plus C18 2.1 mm x 150 mm, 3.5 um, Agilent
Retention time: 5.459 min
Precursor m/z: 300.1473
Precursor type: [M+H]+
m/z	relative intensity
65.0442	21
72.9898	21
78.0393	337
90.0382	339
91.0452	17
92.0544	32
93.061	114
99.0033	82
100.115	10
105.0477	76
113.0053	999
114.0123	21
119.0625	21
120.0468	40
126.0129	146
127.0207	26
128.0276	65
129.0123	52
139.006	14
140.0154	84
140.9989	945
142.0064	10
147.0572	18
148.0643	61
153.023	13
154.0059	69
156.022	91
168.0091	580
168.9926	252
170.0007	80
181.0169	36
182.0236	28
183.0321	47
184.0162	377
211.026	25
212.0341	63
