Mass spectrum: Tepraloxydim; LC-ESI-QTOF; MS2; 30 V
Name: Tepraloxydim
Class: Herbicide
Formula: C17H24ClNO4
Exact mass: 341.1394
SMILES: CCC(=NOCC=CCl)C1=C(CC(CC1=O)C2CCOCC2)O
InChI: InChI=1S/C17H24ClNO4/c1-2-14(19-23-7-3-6-18)17-15(20)10-13(11-16(17)21)12-4-8-22-9-5-12/h3,6,12-13,20H,2,4-5,7-11H2,1H3
Instrument: TripleTOF 6600 SCIEX
Instrument type: LC-ESI-QTOF
Ms type: MS2
Ion mode: POSITIVE
Collision energy: 30
Fragmentation mode: CID
Ionization: ESI
Column name: Zorbax Eclipse Plus C18 2.1 mm x 150 mm, 3.5 um, Agilent
Retention time: 12.248 min
Precursor m/z: 342.1467
Precursor type: [M+H]+
m/z	relative intensity
43.0171	12
55.0532	13
67.0534	27
69.069	14
70.0633	15
72.0428	10
74.9982	27
77.0367	20
79.0529	26
81.0685	24
82.0636	17
83.048	85
85.0637	10
91.0528	47
93.0687	84
94.0636	35
95.0483	24
95.0846	18
96.0433	100
96.0785	11
97.0636	18
98.0589	141
103.0534	11
105.0684	38
107.0477	15
107.0843	42
108.043	11
108.0803	30
109.0636	37
110.0589	99
111.0431	25
111.0667	20
111.0783	10
112.0746	17
113.0826	22
114.0901	19
117.0687	34
119.0484	15
119.0846	43
120.0798	16
121.0636	87
121.0991	14
122.0586	49
123.0427	13
123.0786	23
124.0382	33
124.0745	18
126.0536	15
128.0601	10
129.0686	16
131.0844	35
132.0787	17
133.0634	23
133.0999	24
134.0953	10
135.0793	43
135.1146	11
136.0745	115
137.0583	32
137.0824	15
137.0933	10
138.0538	47
138.0901	127
139.0619	24
139.0727	35
140.0697	29
141.0692	11
143.0848	24
144.0797	12
145.0637	16
145.0993	37
146.0592	18
146.0962	14
147.0439	18
147.0789	42
147.1155	11
148.0743	50
148.1116	12
149.0584	54
149.0946	17
150.0901	26
152.0694	26
154.0787	11
157.1002	10
158.0957	17
159.0797	20
159.1158	34
160.0739	24
160.1106	36
161.0571	18
161.0951	42
162.0541	12
162.0903	25
162.1261	17
163.0733	21
163.1104	20
164.0697	227
164.1042	15
165.0878	43
166.0855	999
167.0926	23
169.1006	22
171.0795	10
171.1124	15
172.1105	14
173.0939	32
174.0904	19
175.0731	12
175.1098	18
176.0703	16
176.1064	36
177.0884	15
177.1255	16
178.1212	20
180.1369	22
186.0901	16
186.1263	19
187.1114	44
188.1055	41
189.0899	20
189.1183	15
190.086	15
190.1221	31
191.1061	22
192.1367	11
194.116	14
194.152	17
204.101	24
204.1374	72
205.1208	52
206.1168	20
208.1331	91
214.1209	18
215.1066	13
222.1125	14
222.1481	276
223.1315	18
223.1555	12
224.1279	11
224.1635	27
232.1319	49
233.1161	16
234.1487	59
250.1438	660
251.1513	64
252.1588	69
342.1453	12
