Mass spectrum: 4'-O-Demethyl pantoprazole sulfide; LC-ESI-QTOF; MS2; 60 V
Name: 4'-O-Demethyl pantoprazole sulfide
Class: Pharmaceutical; Transformation_product-Metabolite
Formula: C15H13F2N3O3S
Exact mass: 353.0646
SMILES: COC1=C(NC=CC1=O)CSC2=NC3=C(N2)C=C(C=C3)OC(F)F
InChI: InChI=1S/C15H13F2N3O3S/c1-22-13-11(18-5-4-12(13)21)7-24-15-19-9-3-2-8(23-14(16)17)6-10(9)20-15/h2-6,14H,7H2,1H3,(H,18,21)(H,19,20)
Instrument: TripleTOF 6600 SCIEX
Instrument type: LC-ESI-QTOF
Ms type: MS2
Ion mode: POSITIVE
Collision energy: 60
Fragmentation mode: CID
Ionization: ESI
Column name: Zorbax Eclipse Plus C18 2.1 mm x 150 mm, 3.5 um, Agilent
Retention time: 7.57 min
Precursor m/z: 354.0719
Precursor type: [M+H]+
m/z	relative intensity
39.0223	12
42.033	21
53.0378	280
63.0217	28
65.0374	30
67.0165	57
67.0403	52
68.0119	19
78.033	10
80.0485	261
81.0325	43
82.0634	58
90.0327	62
92.0481	25
93.0558	54
94.028	12
95.0357	52
96.0426	46
108.0434	999
109.0512	26
110.0585	343
117.0435	36
118.0513	46
120.0427	36
121.0507	25
124.0377	65
125.0451	15
125.9992	14
126.0532	56
127.0066	56
135.0536	170
136.0377	128
138.0535	80
140.0148	96
142.0306	25
155.002	100
170.0253	143
185.051	132
209.0494	14
211.0718	13
216.0141	20
278.0726	47
