Mass spectrum: Timolol; LC-ESI-QTOF; MS2; 90 V
Name: Timolol
Class: Pharmaceutical
Formula: C13H24N4O3S
Exact mass: 316.1569
SMILES: CC(C)(C)NCC(COC1=NSN=C1N2CCOCC2)O
InChI: InChI=1S/C13H24N4O3S/c1-13(2,3)14-8-10(18)9-20-12-11(15-21-16-12)17-4-6-19-7-5-17/h10,14,18H,4-9H2,1-3H3
Instrument: TripleTOF 5600 SCIEX
Instrument type: LC-ESI-QTOF
Ms type: MS2
Ion mode: POSITIVE
Collision energy: 90
Fragmentation mode: CID
Ionization: ESI
Column name: Zorbax Eclipse Plus C18 2.1 mm x 150 mm, 3.5 um, Agilent
Retention time: 5.513 min
Precursor m/z: 317.1642
Precursor type: [M+H]+
m/z	relative intensity
42.0429	75
45.0443	105
56.0581	999
59.9974	181
69.0507	635
70.0603	121
71.9946	90
74.01	438
74.0647	847
85.9737	136
99.0027	272
101.0171	90
113.072	287
127.9919	90
144.0235	105
