Mass spectrum: 16alpha-hydroxyestrone; LC-ESI-QTOF; MS2; 120 V
Name: 16alpha-hydroxyestrone
Class: Pharmaceutical; Metabolite
Formula: C18H22O3
Exact mass: 286.1569
SMILES: C[C@]12CC[C@@H]3[C@H](CCc4cc(O)ccc34)[C@H]1C[C@@H](O)C2=O
InChI: InChI=1S/C18H22O3/c1-18-7-6-13-12-5-3-11(19)8-10(12)2-4-14(13)15(18)9-16(20)17(18)21/h3,5,8,13-16,19-20H,2,4,6-7,9H2,1H3/t13-,14-,15+,16+,18-/m0/s1
Instrument: TripleTOF 5600 SCIEX
Instrument type: LC-ESI-QTOF
Ms type: MS2
Ion mode: POSITIVE
Collision energy: 120
Fragmentation mode: CID
Ionization: ESI
Column name: Zorbax Eclipse Plus C18 2.1 mm x 150 mm, 3.5 um, Agilent
Retention time: 8.67 min
Precursor m/z: 287.1642
Precursor type: [M+H]+
m/z	relative intensity
43.0263	38
55.0241	18
65.0438	188
66.0501	15
67.0574	11
74.0179	40
75.0262	57
76.0335	31
77.0427	691
78.049	63
79.0573	73
86.0166	11
87.0249	24
89.0413	308
91.0558	125
94.0427	21
98.0158	10
101.0385	29
102.0473	130
103.0549	117
105.0695	18
107.0491	40
113.0383	27
114.0463	21
115.0552	999
116.0615	40
118.0409	11
125.0385	13
126.0465	98
127.0546	170
128.0624	276
129.0694	10
131.0489	52
139.0544	104
141.0701	20
144.0568	16
150.0467	85
151.0543	130
152.0624	271
153.0686	18
157.0647	10
162.0461	10
163.0544	94
164.0621	63
165.0702	114
176.0629	57
177.07	12
178.0773	13
181.0655	11
187.0549	15
189.0701	34
200.0637	13
202.0769	10
