Mass spectrum: Mitomycin C; LC-ESI-QTOF; MS2; 100 V
Name: Mitomycin C
Class: Pharmaceutical
Formula: C15H18N4O5
Exact mass: 334.1277
SMILES: CO[C@@]12[C@H](COC(N)=O)C3=C(N1C[C@@H]4N[C@H]24)C(=O)C(=C(N)C3=O)C
InChI: InChI=1S/C15H18N4O5/c1-5-9(16)12(21)8-6(4-24-14(17)22)15(23-2)13-7(18-13)3-19(15)10(8)11(5)20/h6-7,13,18H,3-4,16H2,1-2H3,(H2,17,22)/t6-,7+,13+,15-/m1/s1
Instrument: TripleTOF 5600 SCIEX
Instrument type: LC-ESI-QTOF
Ms type: MS2
Ion mode: POSITIVE
Collision energy: 100
Fragmentation mode: CID
Ionization: ESI
Column name: Zorbax Eclipse Plus C18 2.1 mm x 150 mm, 3.5 um, Agilent
Retention time: 5.588 min
Precursor m/z: 335.135
Precursor type: [M+H]+
m/z	relative intensity
51.0302	109
63.0298	60
65.0458	146
65.0621	73
75.0237	85
76.0338	73
77.0377	999
78.0342	170
78.0466	121
79.0421	73
79.0544	121
89.0391	426
90.047	73
91.0415	73
91.0542	146
92.0494	194
93.0564	85
94.0652	73
101.038	73
102.0436	121
103.0528	170
104.0479	706
105.0492	268
106.0647	73
114.0425	109
115.0379	97
115.0503	207
115.0634	60
116.0453	292
117.0543	353
117.071	73
118.0466	109
118.0605	134
119.0557	85
120.0448	73
128.0445	158
130.0604	280
131.054	986
132.0622	158
140.0422	121
141.0521	170
142.0494	255
143.0535	170
145.0673	146
155.0523	292
156.0576	207
157.0665	243
167.0484	73
168.0565	146
169.0625	170
170.0674	85
171.0413	97
197.0528	73
