Mass spectrum: Timolol; LC-ESI-QTOF; MS2; 40 V
Name: Timolol
Class: Pharmaceutical
Formula: C13H24N4O3S
Exact mass: 316.1569
SMILES: CC(C)(C)NCC(COC1=NSN=C1N2CCOCC2)O
InChI: InChI=1S/C13H24N4O3S/c1-13(2,3)14-8-10(18)9-20-12-11(15-21-16-12)17-4-6-19-7-5-17/h10,14,18H,4-9H2,1-3H3
Instrument: TripleTOF 5600 SCIEX
Instrument type: LC-ESI-QTOF
Ms type: MS2
Ion mode: POSITIVE
Collision energy: 40
Fragmentation mode: CID
Ionization: ESI
Column name: Zorbax Eclipse Plus C18 2.1 mm x 150 mm, 3.5 um, Agilent
Retention time: 5.513 min
Precursor m/z: 317.1642
Precursor type: [M+H]+
m/z	relative intensity
56.0587	128
74.0106	35
74.0658	809
86.0632	45
99.0012	19
104.0197	16
113.0726	237
118.0326	10
126.9942	19
130.1217	10
132.0132	10
144.0233	365
145.0437	118
158.0939	14
159.022	56
167.0686	11
170.0381	28
172.0539	88
188.0492	999
200.0481	60
243.0912	35
244.0755	764
261.1024	98
