Mass spectrum: 2,3,5-Trimethylpyrazine; LC-ESI-QTOF; MS2; 30 V
Name: 2,3,5-Trimethylpyrazine
Formula: C7H10N2
Exact mass: 122.0844
SMILES: N=1C=C(N=C(C1C)C)C
InChI: InChI=1S/C7H10N2/c1-5-4-8-6(2)7(3)9-5/h4H,1-3H3
Instrument: TripleTOF X500R SCIEX
Instrument type: LC-ESI-QTOF
Ms type: MS2
Ion mode: POSITIVE
Collision energy: 30
Fragmentation mode: CID
Ionization: ESI
Column name: Zorbax Eclipse Plus C18 2.1 mm x 150 mm, 3.5 um, Agilent
Retention time: 5.574 min
Precursor m/z: 123.0917
Precursor type: [M+H]+
m/z	relative intensity
39.0228	65
41.0388	117
42.0338	370
53.0384	39
54.0342	63
55.0541	195
56.0498	14
66.0346	26
67.0422	32
77.038	12
80.0499	37
81.0581	14
82.0648	164
94.0626	16
95.0614	22
96.0818	16
107.0611	45
108.0674	80
121.0733	24
122.0839	39
123.0916	999
