Mass spectrum: Chloridazon; LC-ESI-QTOF; MS2; 50 V
Name: Chloridazon
Class: Herbicide
Formula: C10H8ClN3O
Exact mass: 221.0356
SMILES: C1=CC=C(C=C1)N2C(=O)C(=C(C=N2)N)Cl
InChI: InChI=1S/C10H8ClN3O/c11-9-8(12)6-13-14(10(9)15)7-4-2-1-3-5-7/h1-6H,12H2
Instrument: TripleTOF 6600 SCIEX
Instrument type: LC-ESI-QTOF
Ms type: MS2
Ion mode: POSITIVE
Collision energy: 50
Fragmentation mode: CID
Ionization: ESI
Column name: Zorbax Eclipse Plus C18 2.1 mm x 150 mm, 3.5 um, Agilent
Retention time: 6.924 min
Precursor m/z: 222.0429
Precursor type: [M+H]+
m/z	relative intensity
39.0229	41
49.0068	11
50.0153	51
51.0232	224
52.0183	19
53.0261	12
54.0346	10
55.0293	60
63.9946	29
65.0389	712
66.0216	121
66.0467	21
73.9788	51
74.9874	11
75.9949	26
77.0389	999
87.9946	134
89.0384	11
92.0496	249
93.0571	114
94.0647	41
100.99	136
101.9738	15
102.0461	15
103.0542	20
104.0496	121
105.0441	35
114.0361	22
115.0526	11
116.9969	39
119.0617	15
123.0005	21
128.9841	38
130.0653	53
131.0608	25
132.0459	22
142.0526	13
146.0117	125
149.0153	15
150.0113	39
158.0631	11
222.045	12
