Mass spectrum: Iobitridol; LC-ESI-QTOF; MS2; 40 V
Name: Iobitridol
Class: Pharmaceutical
Formula: C20H28I3N3O9
Exact mass: 834.896
SMILES: CN(CC(O)CO)C(=O)c1c(I)c(NC(=O)C(CO)CO)c(I)c(c1I)C(=O)N(C)CC(O)CO
InChI: InChI=1S/C20H28I3N3O9/c1-25(3-10(31)7-29)19(34)12-14(21)13(20(35)26(2)4-11(32)8-30)16(23)17(15(12)22)24-18(33)9(5-27)6-28/h9-11,27-32H,3-8H2,1-2H3,(H,24,33)
Instrument: TripleTOF 6600 SCIEX
Instrument type: LC-ESI-QTOF
Ms type: MS2
Ion mode: POSITIVE
Collision energy: 40
Fragmentation mode: CID
Ionization: ESI
Column name: Zorbax Eclipse Plus C18 2.1 mm x 150 mm, 3.5 um, Agilent
Retention time: 4.58 min
Precursor m/z: 835.9033
Precursor type: [M+H]+
m/z	relative intensity
321.1071	13
387.9422	13
400.9976	27
417.0	11
418.9835	22
431.0151	13
449.0131	30
474.995	134
497.8173	13
504.0369	19
515.833	33
528.8658	16
554.8843	19
575.9163	79
584.9011	63
584.9261	11
602.9108	999
625.7255	30
625.7624	16
628.7848	126
689.9621	46
689.9877	22
690.0126	11
707.9729	11
712.8111	22
715.8122	13
715.8394	38
715.8667	16
730.8334	13
733.857	99
733.9258	11
817.8952	195
835.9013	338
