Mass spectrum: Dimethomorph; LC-ESI-QTOF; MS2; 60 V
Name: Dimethomorph
Class: Fungicide
Formula: C21H22ClNO4
Exact mass: 387.1237
SMILES: COc1ccc(cc1OC)/C(=C\C(=O)N2CCOCC2)/c3ccc(cc3)Cl
InChI: InChI=1S/C21H22ClNO4/c1-25-19-8-5-16(13-20(19)26-2)18(15-3-6-17(22)7-4-15)14-21(24)23-9-11-27-12-10-23/h3-8,13-14H,9-12H2,1-2H3/b18-14-
Instrument: TripleTOF 5600 SCIEX
Instrument type: LC-ESI-QTOF
Ms type: MS2
Ion mode: POSITIVE
Collision energy: 60
Fragmentation mode: CID
Ionization: ESI
Column name: Zorbax Eclipse Plus C18 2.1 mm x 150 mm, 3.5 um, Agilent
Retention time: 11.552 min
Precursor m/z: 388.131
Precursor type: [M+H]+
m/z	relative intensity
66.0497	15
70.0322	102
77.0412	78
79.0562	53
81.0719	10
89.0409	18
94.0416	53
105.0341	10
107.049	13
109.0648	38
110.9999	141
114.0539	16
121.0279	42
122.0358	121
125.0148	190
137.0147	10
137.0591	206
138.9939	335
150.0301	18
151.0526	17
152.0615	152
162.9941	16
163.0533	11
164.0614	18
165.055	999
166.0772	56
167.0846	102
176.0594	22
177.0693	72
178.0768	71
179.0846	20
180.0566	27
181.0633	10
187.0301	64
192.0553	16
193.0641	18
194.071	45
195.0802	141
199.03	170
201.0446	28
205.064	32
206.0705	12
207.0801	23
208.0502	13
208.0874	11
212.038	64
213.0445	14
215.0247	253
222.0672	13
223.0739	165
226.0178	20
227.0249	304
228.0325	60
229.0405	74
230.0497	13
235.0744	70
238.0983	109
239.0249	19
240.0324	18
241.0398	55
242.0484	421
243.0194	282
243.054	15
251.0689	13
257.0368	56
258.0427	232
266.0937	10
269.034	10
270.0449	25
273.067	70
286.0356	14
301.0615	20
