Mass spectrum: Carazolol; LC-ESI-QTOF; MS2; 80 V
Name: Carazolol
Class: Pharmaceutical
Formula: C18H22N2O2
Exact mass: 298.1681
SMILES: CC(C)NCC(O)COc1cccc2[nH]c3ccccc3c12
InChI: InChI=1S/C18H22N2O2/c1-12(2)19-10-13(21)11-22-17-9-5-8-16-18(17)14-6-3-4-7-15(14)20-16/h3-9,12-13,19-21H,10-11H2,1-2H3
Instrument: TripleTOF 5600 SCIEX
Instrument type: LC-ESI-QTOF
Ms type: MS2
Ion mode: POSITIVE
Collision energy: 80
Fragmentation mode: CID
Ionization: ESI
Column name: Zorbax Eclipse Plus C18 2.1 mm x 150 mm, 3.5 um, Agilent
Retention time: 6.882 min
Precursor m/z: 299.1754
Precursor type: [M+H]+
m/z	relative intensity
56.055	283
58.0698	76
72.0836	55
74.0626	98
77.0412	47
89.0405	59
90.0482	18
91.0559	12
100.1098	11
101.0388	25
102.0466	12
103.0529	16
113.0378	37
115.0541	170
116.0494	28
116.1069	21
117.0569	56
126.0462	25
127.0545	226
128.0618	559
129.0698	299
130.0652	35
138.0468	10
139.0545	894
140.0492	324
141.0693	67
150.0441	10
151.0531	90
152.062	159
153.0578	46
154.065	443
155.0722	81
156.0807	49
163.0546	18
164.0587	21
165.0697	178
166.0651	537
167.0732	999
168.0798	35
176.0615	43
177.0579	23
178.0651	116
179.0722	54
180.0789	32
182.0579	17
183.0683	87
190.0649	55
191.073	291
192.0802	333
193.0894	154
194.096	12
202.0669	17
203.0723	33
204.0804	47
220.0742	21
