Mass spectrum: Timolol; LC-ESI-QTOF; MS2; 70 V
Name: Timolol
Class: Pharmaceutical
Formula: C13H24N4O3S
Exact mass: 316.1569
SMILES: CC(C)(C)NCC(COC1=NSN=C1N2CCOCC2)O
InChI: InChI=1S/C13H24N4O3S/c1-13(2,3)14-8-10(18)9-20-12-11(15-21-16-12)17-4-6-19-7-5-17/h10,14,18H,4-9H2,1-3H3
Instrument: TripleTOF 5600 SCIEX
Instrument type: LC-ESI-QTOF
Ms type: MS2
Ion mode: POSITIVE
Collision energy: 70
Fragmentation mode: CID
Ionization: ESI
Column name: Zorbax Eclipse Plus C18 2.1 mm x 150 mm, 3.5 um, Agilent
Retention time: 5.513 min
Precursor m/z: 317.1642
Precursor type: [M+H]+
m/z	relative intensity
42.0511	32
45.044	46
56.0584	952
57.0432	32
59.9985	98
68.0434	32
68.0576	32
69.0516	460
70.058	52
71.9943	52
74.0124	414
74.0662	999
84.9901	32
85.9732	85
86.0622	85
99.0037	400
101.0192	105
113.0724	821
126.9986	144
127.9912	98
130.0064	65
144.0225	893
145.0438	98
188.0467	124
