Mass spectrum: Etofibrate; LC-ESI-QTOF; MS2; 140 V
Name: Etofibrate
Class: Pharmaceutical
Formula: C18H18ClNO5
Exact mass: 363.0874
SMILES: CC(C)(C(=O)OCCOC(=O)C1=CN=CC=C1)OC2=CC=C(C=C2)Cl
InChI: InChI=1S/C18H18ClNO5/c1-18(2,25-15-7-5-14(19)6-8-15)17(22)24-11-10-23-16(21)13-4-3-9-20-12-13/h3-9,12H,10-11H2,1-2H3
Instrument: TripleTOF 6600 SCIEX
Instrument type: LC-ESI-QTOF
Ms type: MS2
Ion mode: POSITIVE
Collision energy: 140
Fragmentation mode: CID
Ionization: ESI
Column name: Zorbax Eclipse Plus C18 2.1 mm x 150 mm, 3.5 um, Agilent
Retention time: 12.631 min
Precursor m/z: 364.0946
Precursor type: [M+H]+
m/z	relative intensity
35.9985	9
37.0062	52
38.0015	21
38.0138	54
39.0221	418
40.0299	17
41.0376	324
42.0452	23
43.017	25
45.0327	23
49.0061	84
50.014	486
51.0117	17
51.0219	760
52.0175	381
52.0285	304
53.0121	11
53.0376	465
55.0169	520
65.0372	68
66.0448	25
67.0397	15
69.0316	39
73.0059	29
73.0266	11
74.0137	408
75.0217	332
76.03	13
77.0367	80
78.0327	999
79.0403	218
80.0482	482
84.9819	52
89.0369	11
91.0535	13
92.0482	31
93.0558	17
94.0403	15
99.043	56
106.0655	9
110.9975	15
124.0365	13
