Mass spectrum: 3-Dimethylaminophenol; LC-ESI-QTOF; MS2; 110 V
Name: 3-Dimethylaminophenol
Formula: C8H11NO
Exact mass: 137.0841
SMILES: CN(C)C1=CC(=CC=C1)O
InChI: InChI=1S/C8H11NO/c1-9(2)7-4-3-5-8(10)6-7/h3-6,10H,1-2H3
Instrument: TripleTOF 6600 SCIEX
Instrument type: LC-ESI-QTOF
Ms type: MS2
Ion mode: POSITIVE
Collision energy: 110
Fragmentation mode: CID
Ionization: ESI
Column name: Zorbax Eclipse Plus C18 2.1 mm x 150 mm, 3.5 um, Agilent
Retention time: 4.073 min
Precursor m/z: 138.0914
Precursor type: [M+H]+
m/z	relative intensity
35.9986	250
37.0065	999
38.0025	36
38.0142	733
39.0222	631
40.0175	30
44.0483	26
49.0064	113
50.0141	286
51.0094	13
51.0219	73
52.0177	19
53.0011	76
59.9979	17
61.0063	113
62.014	119
63.022	59
73.0058	61
74.0138	102
