Mass spectrum: Clopidogrel; LC-ESI-QTOF; MS2; 100 V
Name: Clopidogrel
Class: Pharmaceutical
Formula: C16H16ClNO2S
Exact mass: 321.059
SMILES: COC(=O)C(c1ccccc1Cl)N2CCc3c(ccs3)C2
InChI: InChI=1S/C16H16ClNO2S/c1-20-16(19)15(12-4-2-3-5-13(12)17)18-8-6-14-11(10-18)7-9-21-14/h2-5,7,9,15H,6,8,10H2,1H3
Instrument: TripleTOF 5600 SCIEX
Instrument type: LC-ESI-QTOF
Ms type: MS2
Ion mode: POSITIVE
Collision energy: 100
Fragmentation mode: CID
Ionization: ESI
Column name: Zorbax Eclipse Plus C18 2.1 mm x 150 mm, 3.5 um, Agilent
Retention time: 12.465 min
Precursor m/z: 322.0663
Precursor type: [M+H]+
m/z	relative intensity
45.0411	40
51.0303	248
65.0433	285
72.9878	47
74.0179	79
75.0038	15
75.0258	219
76.0342	14
77.042	823
84.9861	17
89.0406	492
90.0477	155
91.0561	499
99.0005	253
105.0333	167
110.0198	13
111.0	839
112.0073	189
117.0564	31
125.0155	666
133.0276	102
138.9952	999
140.0033	18
155.0261	65
