Mass spectrum: Doxepin; LC-ESI-QTOF; MS2; 70 V
Name: Doxepin
Class: Pharmaceutical
Formula: C19H21NO
Exact mass: 279.1623
SMILES: CN(C)CCC=C1C2=CC=CC=C2COC3=CC=CC=C31
InChI: InChI=1S/C19H21NO/c1-20(2)13-7-11-17-16-9-4-3-8-15(16)14-21-19-12-6-5-10-18(17)19/h3-6,8-12H,7,13-14H2,1-2H3
Instrument: TripleTOF 5600 SCIEX
Instrument type: LC-ESI-QTOF
Ms type: MS2
Ion mode: POSITIVE
Collision energy: 70
Fragmentation mode: CID
Ionization: ESI
Column name: Zorbax Eclipse Plus C18 2.1 mm x 150 mm, 3.5 um, Agilent
Retention time: 7.447 min
Precursor m/z: 280.1696
Precursor type: [M+H]+
m/z	relative intensity
42.0459	28
58.0734	65
65.0458	80
70.0708	32
77.0443	723
79.0597	154
84.0851	53
89.0427	41
91.0583	353
102.0491	11
103.058	39
105.0737	11
107.0523	188
115.0567	670
116.0642	15
117.072	60
127.0561	78
128.064	230
129.0716	34
131.0509	33
139.0559	40
141.0713	179
151.0547	75
152.0626	283
163.0551	30
164.0624	79
165.0701	999
166.0787	52
167.0849	13
168.0578	31
176.0613	126
177.0695	96
178.078	445
179.0852	17
188.0618	11
189.0697	358
190.0775	208
191.0857	311
192.0927	16
193.065	17
194.0727	35
200.0614	135
201.0696	253
202.0777	447
203.0836	40
205.0647	35
213.069	46
214.0779	17
215.0852	231
218.0723	95
219.0787	59
220.0879	14
