Mass spectrum: 2-N-methyl-lamotrigine; LC-ESI-QTOF; MS2; 120 V
Name: 2-N-methyl-lamotrigine
Class: Metabolite; Pharmaceutical
Formula: C10H9Cl2N5
Exact mass: 269.0235
SMILES: CN1N=C(C2=CC=CC(Cl)=C2Cl)C(N)=NC1=N
InChI: InChI=1S/C10H9Cl2N5/c1-17-10(14)15-9(13)8(16-17)5-3-2-4-6(11)7(5)12/h2-4H,1H3,(H3,13,14,15)
Instrument: TripleTOF 5600 SCIEX
Instrument type: LC-ESI-QTOF
Ms type: MS2
Ion mode: POSITIVE
Collision energy: 120
Fragmentation mode: CID
Ionization: ESI
Column name: Zorbax Eclipse Plus C18 2.1 mm x 150 mm, 3.5 um, Agilent
Retention time: 6.444 min
Precursor m/z: 270.0308
Precursor type: [M+H]+
m/z	relative intensity
51.027	39
57.0492	999
57.0755	39
60.9905	31
62.0376	47
72.9859	511
73.0107	271
74.0168	967
75.011	47
75.0256	231
76.0213	71
82.9454	31
85.0087	71
86.0164	183
87.0235	311
88.0201	175
88.0313	111
96.9838	207
99.0104	615
100.0173	423
102.0336	47
108.9837	79
111.0001	39
114.0325	71
121.9929	31
122.9996	207
