Mass spectrum: Diprogulic acid; LC-ESI-QTOF; MS2; 30 V
Name: Diprogulic acid
Formula: C12H18O7
Exact mass: 274.1053
SMILES: CC1(C)OCC2C(C3C(OC(C)(C)O3)(C(O)=O)O2)O1
InChI: InChI=1S/C12H18O7/c1-10(2)15-5-6-7(17-10)8-12(16-6,9(13)14)19-11(3,4)18-8/h6-8H,5H2,1-4H3,(H,13,14)
Instrument: TripleTOF 6600 SCIEX
Instrument type: LC-ESI-QTOF
Ms type: MS2
Ion mode: POSITIVE
Collision energy: 30
Fragmentation mode: CID
Ionization: ESI
Column name: Zorbax Eclipse Plus C18 2.1 mm x 150 mm, 3.5 um, Agilent
Retention time: 7.352 min
Precursor m/z: 275.1125
Precursor type: [M+H]+
m/z	relative intensity
41.0387	33
43.0179	26
45.0336	13
55.0178	10
57.0332	70
59.0492	999
68.9971	20
69.0334	247
71.0125	44
73.0291	28
85.0279	104
87.0073	127
95.0123	137
97.0281	278
103.0385	20
111.0072	20
113.0227	104
115.0026	88
115.0395	20
127.0376	44
129.0167	33
131.0329	18
135.0435	13
141.0179	156
143.0707	15
145.0516	18
159.0279	130
171.0637	18
217.0718	13
