Mass spectrum: Metolachlor; LC-ESI-QTOF; MS2; 130 V
Name: Metolachlor
Class: Herbicide
Formula: C15H22ClNO2
Exact mass: 283.1339
SMILES: CCc1cccc(C)c1N(C(C)COC)C(=O)CCl
InChI: InChI=1S/C15H22ClNO2/c1-5-13-8-6-7-11(2)15(13)17(14(18)9-16)12(3)10-19-4/h6-8,12H,5,9-10H2,1-4H3
Instrument: TripleTOF 5600 SCIEX
Instrument type: LC-ESI-QTOF
Ms type: MS2
Ion mode: POSITIVE
Collision energy: 130
Fragmentation mode: CID
Ionization: ESI
Column name: Zorbax Eclipse Plus C18 2.1 mm x 150 mm, 3.5 um, Agilent
Retention time: 13.304 min
Precursor m/z: 284.1412
Precursor type: [M+H]+
m/z	relative intensity
45.0415	164
48.991	185
52.036	13
64.0374	16
65.0429	608
66.051	75
74.0188	37
75.0258	61
76.0335	37
77.0415	999
78.0363	18
78.0484	115
78.0632	10
79.0556	59
80.0509	18
87.0284	16
88.034	10
89.04	385
89.0655	16
90.0472	142
90.0648	21
91.0559	436
92.0495	40
93.0575	99
101.0384	40
102.0468	99
103.0546	226
104.0497	35
104.0607	18
105.0715	13
106.0663	72
113.0373	13
114.0486	10
115.0545	320
116.0532	40
117.0577	172
118.0655	40
127.0546	35
128.0511	61
129.0554	21
130.065	317
140.0495	21
141.0587	37
142.0651	45
143.0727	45
144.0789	35
154.0642	10
