Mass spectrum: Aclonifen; LC-ESI-QTOF; MS2; 10 V
Name: Aclonifen
Class: Herbicide
Formula: C12H9ClN2O3
Exact mass: 264.0302
SMILES: Nc1c(Cl)c(Oc2ccccc2)ccc1[N+]([O-])=O
InChI: InChI=1S/C12H9ClN2O3/c13-11-10(18-8-4-2-1-3-5-8)7-6-9(12(11)14)15(16)17/h1-7H,14H2
Instrument: TripleTOF 5600 SCIEX
Instrument type: LC-ESI-QTOF
Ms type: MS2
Ion mode: POSITIVE
Collision energy: 10
Fragmentation mode: CID
Ionization: ESI
Column name: Zorbax Eclipse Plus C18 2.1 mm x 150 mm, 3.5 um, Agilent
Retention time: 13.815 min
Precursor m/z: 265.0374
Precursor type: [M+H]+
m/z	relative intensity
247.0259	27
248.0342	59
265.0366	999
