Mass spectrum: Clothianidin; LC-ESI-QTOF; MS2; 40 V
Name: Clothianidin
Class: Insecticide
Formula: C6H8ClN5O2S
Exact mass: 249.0087
SMILES: CN=C(NCc1sc(Cl)nc1)N[N+]([O-])=O
InChI: InChI=1S/C6H8ClN5O2S/c1-8-6(11-12(13)14)10-3-4-2-9-5(7)15-4/h2H,3H2,1H3,(H2,8,10,11)
Instrument: TripleTOF 5600 SCIEX
Instrument type: LC-ESI-QTOF
Ms type: MS2
Ion mode: POSITIVE
Collision energy: 40
Fragmentation mode: CID
Ionization: ESI
Column name: Zorbax Eclipse Plus C18 2.1 mm x 150 mm, 3.5 um, Agilent
Retention time: 6.736 min
Precursor m/z: 250.016
Precursor type: [M+H]+
m/z	relative intensity
54.0388	27
57.0506	31
69.0463	22
70.9975	99
86.0079	113
96.0568	77
110.0706	458
111.0795	263
113.0161	781
118.9585	22
119.9671	36
126.0127	22
131.9667	999
132.9752	36
142.0424	31
146.9774	77
147.9867	59
153.019	18
167.0384	31
168.0472	49
169.0534	308
174.9735	49
