Mass spectrum: Diphenyl(2,4,6-trimethylbenzoyl)phosphine oxide; LC-ESI-QTOF; MS2; 120 V
Name: Diphenyl(2,4,6-trimethylbenzoyl)phosphine oxide
Class: Industrial_process
Formula: C22H21O2P
Exact mass: 348.1279
SMILES: Cc1cc(C)c(c(C)c1)C(=O)[P](=O)(c2ccccc2)c3ccccc3
InChI: InChI=1S/C22H21O2P/c1-16-14-17(2)21(18(3)15-16)22(23)25(24,19-10-6-4-7-11-19)20-12-8-5-9-13-20/h4-15H,1-3H3
Instrument: TripleTOF 5600 SCIEX
Instrument type: LC-ESI-QTOF
Ms type: MS2
Ion mode: POSITIVE
Collision energy: 120
Fragmentation mode: CID
Ionization: ESI
Column name: Zorbax Eclipse Plus C18 2.1 mm x 150 mm, 3.5 um, Agilent
Retention time: 14.088 min
Precursor m/z: 349.1352
Precursor type: [M+H]+
m/z	relative intensity
51.0305	119
65.0439	481
77.0423	800
77.0729	13
78.0495	272
79.0569	82
89.0401	16
91.0569	999
93.0711	23
102.0479	42
103.0553	295
104.0631	183
115.0548	218
116.0622	17
117.0704	89
119.0855	86
