Mass spectrum: 3,3`-Dichlorobenzidine; LC-ESI-QTOF; MS2; 90 V
Name: 3,3`-Dichlorobenzidine
Formula: C12H10Cl2N2
Exact mass: 252.0221
SMILES: C1=CC(=C(C=C1C2=CC(=C(C=C2)N)Cl)Cl)N
InChI: InChI=1S/C12H10Cl2N2/c13-9-5-7(1-3-11(9)15)8-2-4-12(16)10(14)6-8/h1-6H,15-16H2
Instrument: TripleTOF 6600 SCIEX
Instrument type: LC-ESI-QTOF
Ms type: MS2
Ion mode: POSITIVE
Collision energy: 90
Fragmentation mode: CID
Ionization: ESI
Column name: Zorbax Eclipse Plus C18 2.1 mm x 150 mm, 3.5 um, Agilent
Retention time: 11.426 min
Precursor m/z: 253.0294
Precursor type: [M+H]+
m/z	relative intensity
39.0238	13
50.0149	23
51.0233	132
52.0177	28
61.0085	11
62.0148	55
63.0231	155
64.031	13
65.039	30
74.0152	95
75.0229	297
76.0309	38
77.0387	857
78.0452	26
86.0145	63
87.0226	118
88.0189	17
88.0311	63
89.0379	239
90.0361	11
90.0472	11
91.0427	15
93.0568	11
98.0147	42
99.0237	42
100.0305	9
101.0387	228
102.0455	166
103.0553	170
104.0502	38
105.0455	13
110.014	11
111.0231	17
112.0312	23
113.0381	176
114.0337	32
114.0452	28
115.0529	53
116.0498	13
117.0571	13
123.0234	11
125.0376	93
126.0461	569
127.0538	999
128.0497	220
128.0624	59
129.0445	92
130.0642	180
137.039	222
138.0466	105
139.0544	253
140.0497	97
141.0447	9
141.058	21
151.0412	21
152.0507	132
153.0581	266
154.0647	713
155.0602	210
164.0254	13
164.0502	182
165.0578	24
166.0617	13
173.0172	24
179.0614	93
181.0752	55
188.0279	11
