Mass spectrum: (2-Hydroxyethyl)triphenylphosphonium; LC-ESI-QTOF; MS2; 60 V
Name: (2-Hydroxyethyl)triphenylphosphonium
Class: Industrial_process
Formula: [C20H20OP]+
Exact mass: 307.1246
SMILES: OCC[P+](c1ccccc1)(c2ccccc2)c3ccccc3
InChI: InChI=1S/C20H20OP/c21-16-17-22(18-10-4-1-5-11-18,19-12-6-2-7-13-19)20-14-8-3-9-15-20/h1-15,21H,16-17H2/q+1
Instrument: TripleTOF 5600 SCIEX
Instrument type: LC-ESI-QTOF
Ms type: MS2
Ion mode: POSITIVE
Collision energy: 60
Fragmentation mode: CID
Ionization: ESI
Column name: Zorbax Eclipse Plus C18 2.1 mm x 150 mm, 3.5 um, Agilent
Retention time: 7.101 min
Precursor m/z: 307.1246
Precursor type: [M]+
m/z	relative intensity
107.0038	186
108.0116	251
133.0194	87
152.0613	78
183.0344	999
185.051	71
228.093	52
259.0663	93
261.0813	125
275.0972	233
289.1124	439
