Mass spectrum: 5-(3,4,5-Trimethoxybenzoyl)-2,4-pyrimidinediamine; LC-ESI-QTOF; MS2; 30 V
Name: 5-(3,4,5-Trimethoxybenzoyl)-2,4-pyrimidinediamine
Class: Pharmaceutical; Transformation_product; Transformation_product-Metabolite
Formula: C14H16N4O4
Exact mass: 304.1172
SMILES: COc1cc(cc(c1OC)OC)C(=O)c2cnc(nc2N)N
InChI: InChI=1S/C14H16N4O4/c1-20-9-4-7(5-10(21-2)12(9)22-3)11(19)8-6-17-14(16)18-13(8)15/h4-6H,1-3H3,(H4,15,16,17,18)
Instrument: TripleTOF 5600 SCIEX
Instrument type: LC-ESI-QTOF
Ms type: MS2
Ion mode: POSITIVE
Collision energy: 30
Fragmentation mode: CID
Ionization: ESI
Column name: Zorbax Eclipse Plus C18 2.1 mm x 150 mm, 3.5 um, Agilent
Retention time: 5.86 min
Precursor m/z: 305.1244
Precursor type: [M+H]+
m/z	relative intensity
95.0251	78
110.0572	14
137.0457	345
195.0636	22
201.0773	39
214.0836	15
215.0915	57
216.0992	27
229.071	20
243.0883	42
244.0955	598
246.0735	13
247.082	27
259.0814	30
260.0915	53
261.0984	79
271.0821	115
272.0898	79
275.078	441
289.0935	288
290.1008	70
305.1242	999
