Mass spectrum: Salbutamol; LC-ESI-QTOF; MS2; 60 V
Name: Salbutamol
Class: Pharmaceutical
Formula: C13H21NO3
Exact mass: 239.1521
SMILES: CC(C)(NCC(c1cc(CO)c(O)cc1)O)C
InChI: InChI=1S/C13H21NO3/c1-13(2,3)14-7-12(17)9-4-5-11(16)10(6-9)8-15/h4-6,12,14-17H,7-8H2,1-3H3
Instrument: TripleTOF 5600 SCIEX
Instrument type: LC-ESI-QTOF
Ms type: MS2
Ion mode: NEGATIVE
Collision energy: 60
Fragmentation mode: CID
Ionization: ESI
Column name: Zorbax Eclipse Plus C18 2.1 mm x 150 mm, 3.5 um, Agilent
Retention time: 4.69 min
Precursor m/z: 238.1449
Precursor type: [M-H]-
m/z	relative intensity
77.0405	58
90.048	176
104.0561	58
106.0422	352
107.0531	117
116.0478	58
117.0617	235
118.0442	58
119.0516	587
121.0276	117
131.0351	235
131.0479	117
132.0462	470
133.0525	117
134.0369	352
134.0629	58
144.0446	470
160.0404	999
160.0764	352
161.0529	352
162.0523	58
163.0646	176
188.0751	117
