Mass spectrum: Amlodipine; LC-ESI-QTOF; MS2; 80 V
Name: Amlodipine
Class: Pharmaceutical
Formula: C20H25ClN2O5
Exact mass: 408.1452
SMILES: CCOC(=O)C1=C(COCCN)NC(=C(C1c2ccccc2Cl)C(=O)OC)C
InChI: InChI=1S/C20H25ClN2O5/c1-4-28-20(25)18-15(11-27-10-9-22)23-12(2)16(19(24)26-3)17(18)13-7-5-6-8-14(13)21/h5-8,17,23H,4,9-11,22H2,1-3H3
Instrument: TripleTOF 5600 SCIEX
Instrument type: LC-ESI-QTOF
Ms type: MS2
Ion mode: POSITIVE
Collision energy: 80
Fragmentation mode: CID
Ionization: ESI
Column name: Zorbax Eclipse Plus C18 2.1 mm x 150 mm, 3.5 um, Agilent
Retention time: 8.432 min
Precursor m/z: 409.1525
Precursor type: [M+H]+
m/z	relative intensity
42.044	44
44.057	124
65.0412	31
67.023	17
70.0326	11
72.0493	29
74.0178	11
74.0625	19
75.0261	56
77.0405	52
80.0518	13
89.0397	19
91.0545	11
92.05	60
93.0371	15
93.0579	17
94.0668	17
96.045	21
99.0009	19
101.0391	302
102.0464	364
103.0534	11
104.0481	13
105.0353	11
108.0438	13
110.9997	64
113.0152	13
113.0389	17
114.0458	122
115.0538	512
116.0616	168
120.0446	141
122.0595	27
124.0383	11
125.0148	79
126.0456	46
127.0538	174
128.0611	356
129.0498	100
129.0694	31
130.0754	29
136.0417	19
137.0152	535
138.0511	13
138.9947	73
139.0536	91
140.0256	32
140.0517	137
141.0691	106
142.0422	50
142.065	353
143.0519	9
143.0727	370
144.0571	13
148.0387	248
149.0154	999
150.051	19
151.0298	13
151.0554	85
152.0623	246
153.0691	131
154.0648	170
155.0267	31
155.0516	15
155.0718	25
156.0462	29
156.0799	65
157.0562	17
157.0873	23
161.0148	27
162.0227	15
163.0299	38
163.0536	9
164.025	56
164.064	31
165.0093	133
165.0698	32
166.0643	89
167.0721	207
168.0563	32
168.0807	162
168.1053	9
169.068	23
169.0873	50
170.0585	81
170.0964	17
173.0141	56
175.0297	52
176.034	149
177.0114	9
177.0349	17
177.0565	17
178.0422	104
178.0639	112
179.0721	96
180.0799	347
181.0653	62
181.0873	98
182.0593	46
182.0974	17
183.0694	23
184.0748	40
185.0831	21
187.0302	44
188.0257	23
189.0098	25
189.0473	15
190.04	29
190.0647	15
191.0245	17
192.0581	9
193.0864	11
194.0602	31
194.0935	27
195.067	50
196.0747	256
197.0828	56
198.092	19
201.0105	11
201.0311	19
202.0217	9
202.0408	48
203.047	29
204.0561	122
205.0816	11
206.0584	19
207.0685	29
208.0687	79
209.0831	52
211.0649	9
212.0686	40
213.0355	9
214.0418	91
215.0284	19
215.0499	13
216.057	15
217.0319	11
217.0658	11
218.0362	19
220.0532	11
222.0883	17
223.085	23
224.0701	89
225.079	58
226.0857	11
229.0241	15
230.0337	42
231.0387	11
231.0667	19
232.052	116
236.0677	19
239.0928	19
242.0389	21
244.0507	25
258.0324	9
260.0479	40
270.0303	11
