Mass spectrum: Metolachlor ESA; LC-ESI-QTOF; MS2; 30 V
Name: Metolachlor ESA
Class: Herbicide; Transformation_product-Metabolite
Formula: C15H23NO5S
Exact mass: 329.1297
SMILES: CCC1=CC=CC(=C1N(C(C)COC)C(=O)CS(=O)(=O)O)C
InChI: InChI=1S/C15H23NO5S/c1-5-13-8-6-7-11(2)15(13)16(12(3)9-21-4)14(17)10-22(18,19)20/h6-8,12H,5,9-10H2,1-4H3,(H,18,19,20)
Instrument: TripleTOF 5600 SCIEX
Instrument type: LC-ESI-QTOF
Ms type: MS2
Ion mode: NEGATIVE
Collision energy: 30
Fragmentation mode: CID
Ionization: ESI
Column name: Zorbax Eclipse Plus C18 2.1 mm x 150 mm, 3.5 um, Agilent
Retention time: 8.247 min
Precursor m/z: 328.1224
Precursor type: [M-H]-
m/z	relative intensity
79.9581	301
120.9608	244
328.123	999
