Mass spectrum: Cocaethylene; LC-ESI-QTOF; MS2; 120 V
Name: Cocaethylene
Class: Metabolite
Formula: C18H23NO4
Exact mass: 317.1627
SMILES: CCOC(=O)C1C2CCC(N2C)CC1OC(=O)C3=CC=CC=C3
InChI: InChI=1S/C18H23NO4/c1-3-22-18(21)16-14-10-9-13(19(14)2)11-15(16)23-17(20)12-7-5-4-6-8-12/h4-8,13-16H,3,9-11H2,1-2H3
Instrument: TripleTOF 6600 SCIEX
Instrument type: LC-ESI-QTOF
Ms type: MS2
Ion mode: POSITIVE
Collision energy: 120
Fragmentation mode: CID
Ionization: ESI
Column name: Zorbax Eclipse Plus C18 2.1 mm x 150 mm, 3.5 um, Agilent
Retention time: 7.013 min
Precursor m/z: 318.17
Precursor type: [M+H]+
m/z	relative intensity
37.0079	35
38.0162	22
39.0242	162
41.0273	17
41.0399	92
42.0351	66
49.0085	83
50.0163	308
51.0242	999
53.0394	44
55.0554	26
56.0498	39
65.0397	136
67.0425	237
68.0504	96
77.0397	550
78.034	30
79.0434	17
79.0544	22
80.0498	57
82.0663	145
89.0388	17
91.0555	39
94.0654	96
105.0456	22
