Mass spectrum: Betaxolol; LC-ESI-QTOF; MS2; 100 V
Name: Betaxolol
Class: Pharmaceutical
Formula: C18H29NO3
Exact mass: 307.2147
SMILES: CC(C)NCC(COC1=CC=C(C=C1)CCOCC2CC2)O
InChI: InChI=1S/C18H29NO3/c1-14(2)19-11-17(20)13-22-18-7-5-15(6-8-18)9-10-21-12-16-3-4-16/h5-8,14,16-17,19-20H,3-4,9-13H2,1-2H3
Instrument: TripleTOF 5600 SCIEX
Instrument type: LC-ESI-QTOF
Ms type: MS2
Ion mode: POSITIVE
Collision energy: 100
Fragmentation mode: CID
Ionization: ESI
Column name: Zorbax Eclipse Plus C18 2.1 mm x 150 mm, 3.5 um, Agilent
Retention time: 7.064 min
Precursor m/z: 308.222
Precursor type: [M+H]+
m/z	relative intensity
42.0474	12
44.0617	25
56.0588	231
58.0742	81
65.0458	170
72.0868	45
74.0679	40
77.0444	999
78.0517	66
79.0597	91
89.0433	55
91.0588	409
93.0735	12
94.0472	12
101.0398	10
102.0507	63
103.0583	160
104.0653	12
105.0749	22
107.051	15
115.0573	457
116.0644	25
117.0742	10
121.066	15
126.0504	12
127.0583	101
128.0639	223
129.0705	22
131.0501	25
141.071	55
152.0653	17
153.0663	10
