Mass spectrum: Octhilinone; LC-ESI-QTOF; MS2; 60 V
Name: Octhilinone
Class: Fungicide; Antimicrobial
Formula: C11H19NOS
Exact mass: 213.1187
SMILES: CCCCCCCCN1C(=O)C=CS1
InChI: InChI=1S/C11H19NOS/c1-2-3-4-5-6-7-9-12-11(13)8-10-14-12/h8,10H,2-7,9H2,1H3
Instrument: TripleTOF 6600 SCIEX
Instrument type: LC-ESI-QTOF
Ms type: MS2
Ion mode: POSITIVE
Collision energy: 60
Fragmentation mode: CID
Ionization: ESI
Column name: Zorbax Eclipse Plus C18 2.1 mm x 150 mm, 3.5 um, Agilent
Retention time: 11.855 min
Precursor m/z: 214.126
Precursor type: [M+H]+
m/z	relative intensity
36	17
37.0077	75
38.0031	41
38.0158	60
39.0236	462
41.0391	790
43.0548	405
44.0136	56
44.9796	13
46.9962	18
47.9908	48
52.0065	12
53.0137	17
55.019	18
55.0543	41
56.9799	703
57.0698	51
57.9874	29
58.9953	186
74.0063	51
83.9909	628
84.9747	241
102.0012	999
