Mass spectrum: Disperse Orange 61; LC-ESI-QTOF; MS2; 80 V
Name: Disperse Orange 61
Formula: C17H15Br2N5O2
Exact mass: 478.9592
SMILES: CCN(CCC#N)C1=CC=C(C=C1)N=NC2=C(C=C(C=C2Br)[N+](=O)[O-])Br
InChI: InChI=1S/C17H15Br2N5O2/c1-2-23(9-3-8-20)13-6-4-12(5-7-13)21-22-17-15(18)10-14(24(25)26)11-16(17)19/h4-7,10-11H,2-3,9H2,1H3
Instrument: TripleTOF X500R SCIEX
Instrument type: LC-ESI-QTOF
Ms type: MS2
Ion mode: POSITIVE
Collision energy: 80
Fragmentation mode: CID
Ionization: ESI
Column name: Zorbax Eclipse Plus C18 2.1 mm x 150 mm, 3.5 um, Agilent
Retention time: 15.39 min
Precursor m/z: 479.9665
Precursor type: [M+H]+
m/z	relative intensity
65.0378	152
77.0392	237
78.0345	101
78.0459	67
91.0539	287
92.0503	558
93.0597	84
103.0541	169
104.05	914
105.0574	999
106.0655	220
117.0563	186
117.0758	67
118.0659	372
119.0608	304
120.0806	118
127.9271	101
131.0604	101
132.0759	253
133.0889	812
134.0973	203
140.934	253
145.0759	118
147.0909	186
150.0462	406
151.0552	101
151.9263	253
152.0639	101
152.9343	389
172.0848	67
178.0663	338
179.0627	457
179.0802	135
194.8448	101
206.0721	135
230.8451	897
231.852	575
247.845	101
257.9876	423
277.8448	67
286.0206	67
