Mass spectrum: Disperse Red 1; LC-ESI-QTOF; MS2; 60 V
Name: Disperse Red 1
Formula: C16H18N4O3
Exact mass: 314.1379
SMILES: CCN(CCO)C1=CC=C(C=C1)N=NC2=CC=C(C=C2)[N+](=O)[O-]
InChI: InChI=1S/C16H18N4O3/c1-2-19(11-12-21)15-7-3-13(4-8-15)17-18-14-5-9-16(10-6-14)20(22)23/h3-10,21H,2,11-12H2,1H3
Instrument: TripleTOF X500R SCIEX
Instrument type: LC-ESI-QTOF
Ms type: MS2
Ion mode: POSITIVE
Collision energy: 60
Fragmentation mode: CID
Ionization: ESI
Column name: Zorbax Eclipse Plus C18 2.1 mm x 150 mm, 3.5 um, Agilent
Retention time: 12.973 min
Precursor m/z: 315.1452
Precursor type: [M+H]+
m/z	relative intensity
39.0232	35
50.0153	56
63.0238	49
64.0313	70
65.0385	106
75.0231	418
76.0314	283
77.0392	127
78.048	49
79.0546	120
80.05	49
91.0546	148
92.0262	283
92.0493	297
93.0609	63
94.0632	42
103.0552	70
104.0487	240
105.0578	517
106.0658	999
107.0715	28
108.0813	56
117.0568	85
118.0652	226
119.0616	453
120.0815	162
122.0244	247
132.0755	212
133.0838	99
134.0969	673
136.0765	35
140.0331	56
145.0779	42
146.0875	49
147.0944	347
150.0319	325
151.0384	28
152.0629	35
181.0791	92
209.0963	276
255.0877	141
