Mass spectrum: 2-Hydroxycarbamazepine; LC-ESI-QTOF; MS2; 70 V
Name: 2-Hydroxycarbamazepine
Class: Pharmaceutical; Metabolite
Formula: C15H12N2O2
Exact mass: 252.0899
SMILES: NC(=O)N1c2ccccc2C=Cc3cc(O)ccc13
InChI: InChI=1S/C15H12N2O2/c16-15(19)17-13-4-2-1-3-10(13)5-6-11-9-12(18)7-8-14(11)17/h1-9,18H,(H2,16,19)
Instrument: TripleTOF 5600 SCIEX
Instrument type: LC-ESI-QTOF
Ms type: MS2
Ion mode: NEGATIVE
Collision energy: 70
Fragmentation mode: CID
Ionization: ESI
Column name: Zorbax Eclipse Plus C18 2.1 mm x 150 mm, 3.5 um, Agilent
Retention time: 7.476 min
Precursor m/z: 251.0826
Precursor type: [M-H]-
m/z	relative intensity
41.0055	256
42.0025	153
65.9991	76
90.036	76
116.0518	153
118.0347	102
140.0555	102
164.0548	179
165.0716	281
166.068	999
179.0793	102
180.082	76
206.0689	76
207.0679	230
