Mass spectrum: Bromacil; LC-ESI-QTOF; MS2; 30 V
Name: Bromacil
Class: Herbicide
Formula: C9H13BrN2O2
Exact mass: 260.016
SMILES: CCC(C)N1C(=O)C(=C(NC1=O)C)Br
InChI: InChI=1S/C9H13BrN2O2/c1-4-5(2)12-8(13)7(10)6(3)11-9(12)14/h5H,4H2,1-3H3,(H,11,14)
Instrument: TripleTOF 6600 SCIEX
Instrument type: LC-ESI-QTOF
Ms type: MS2
Ion mode: POSITIVE
Collision energy: 30
Fragmentation mode: CID
Ionization: ESI
Column name: Zorbax Eclipse Plus C18 2.1 mm x 150 mm, 3.5 um, Agilent
Retention time: 8.493 min
Precursor m/z: 261.0233
Precursor type: [M+H]+
m/z	relative intensity
131.9419	14
161.9522	67
186.9476	24
187.9317	138
204.9592	999
