Mass spectrum: Oxcarbazepine; LC-ESI-QTOF; MS2; 70 V
Name: Oxcarbazepine
Class: Pharmaceutical
Formula: C15H12N2O2
Exact mass: 252.0899
SMILES: NC(=O)N1c2ccccc2CC(=O)c3ccccc13
InChI: InChI=1S/C15H12N2O2/c16-15(19)17-12-7-3-1-5-10(12)9-14(18)11-6-2-4-8-13(11)17/h1-8H,9H2,(H2,16,19)
Instrument: TripleTOF 5600 SCIEX
Instrument type: LC-ESI-QTOF
Ms type: MS2
Ion mode: POSITIVE
Collision energy: 70
Fragmentation mode: CID
Ionization: ESI
Column name: Zorbax Eclipse Plus C18 2.1 mm x 150 mm, 3.5 um, Agilent
Retention time: 8.323 min
Precursor m/z: 253.0972
Precursor type: [M+H]+
m/z	relative intensity
51.0289	11
75.0259	17
77.041	104
89.0394	12
101.039	81
102.0339	14
104.0483	11
115.0534	33
117.0573	10
126.0464	16
127.0545	58
128.0495	206
129.0467	9
139.054	89
140.0524	61
141.0563	21
150.0464	28
151.0537	174
152.062	530
153.0658	93
154.0646	45
163.0548	29
164.0612	45
165.0693	94
166.0646	139
167.0723	221
177.0571	36
178.0653	370
179.0726	362
180.0807	999
190.0644	16
191.0736	33
192.0805	26
