Mass spectrum: Spinosad A; LC-ESI-QTOF; MS2; 150 V
Name: Spinosad A
Class: Insecticide
Formula: C41H65NO10
Exact mass: 731.4608
SMILES: CCC1CCCC(C(C(=O)C2=CC3C4CC(CC4C=CC3C2CC(=O)O1)OC5C(C(C(C(O5)C)OC)OC)OC)C)OC6CCC(C(O6)C)N(C)C
InChI: InChI=1S/C41H65NO10/c1-10-26-12-11-13-34(52-36-17-16-33(42(5)6)23(3)48-36)22(2)37(44)32-20-30-28(31(32)21-35(43)50-26)15-14-25-18-27(19-29(25)30)51-41-40(47-9)39(46-8)38(45-7)24(4)49-41/h14-15,20,22-31,33-34,36,38-41H,10-13,16-19,21H2,1-9H3
Instrument: TripleTOF 6600 SCIEX
Instrument type: LC-ESI-QTOF
Ms type: MS2
Ion mode: POSITIVE
Collision energy: 150
Fragmentation mode: CID
Ionization: ESI
Column name: Zorbax Eclipse Plus C18 2.1 mm x 150 mm, 3.5 um, Agilent
Retention time: 10.391 min
Precursor m/z: 732.4681
Precursor type: [M+H]+
m/z	relative intensity
31.0172	24
37.0069	28
38.0146	24
39.0223	313
41.038	545
42.0329	120
43.0172	250
43.0535	28
44.0487	125
45.0326	154
46.0642	72
47.0484	72
53.0382	86
54.0452	33
55.0168	72
55.0532	342
56.0246	38
56.0482	183
57.0327	72
57.0681	24
58.0642	53
59.0119	38
59.048	159
65.0374	77
67.0531	193
68.0245	43
68.0485	24
69.0324	28
69.0689	164
70.0639	328
71.0478	183
71.0719	53
72.0431	106
72.0798	159
74.0351	130
75.0427	72
77.0376	275
79.0534	178
81.0322	48
81.0687	62
82.0402	115
82.0633	38
83.0478	43
83.0832	19
84.0798	159
85.0271	38
85.0627	28
85.0874	183
86.0948	33
89.0581	19
91.0528	188
93.0686	33
95.0828	48
97.0638	168
98.035	38
98.0952	999
99.0427	67
99.0792	24
99.1018	28
101.0585	115
103.0521	53
105.0696	24
107.0487	28
109.0879	28
115.0527	419
116.061	57
117.0686	77
124.1101	43
127.0527	241
128.0608	530
129.0685	313
131.0839	24
139.0533	24
141.0682	376
142.0761	72
142.1207	82
151.0525	72
152.0604	376
153.0685	752
154.0767	222
155.0579	72
155.0846	197
156.0912	24
165.0685	226
166.0755	57
167.084	72
168.0921	43
169.1	33
178.0764	120
179.0584	24
179.0842	28
183.0778	19
189.0664	38
190.0753	28
191.0841	24
193.0985	28
202.0773	38
203.0849	33
