Mass spectrum: 3,3`-Dimethoxybenzidine; LC-ESI-QTOF; MS2; 60 V
Name: 3,3`-Dimethoxybenzidine
Formula: C14H16N2O2
Exact mass: 244.1212
SMILES: COC1=C(C=CC(=C1)C2=CC(=C(C=C2)N)OC)N
InChI: InChI=1S/C14H16N2O2/c1-17-13-7-9(3-5-11(13)15)10-4-6-12(16)14(8-10)18-2/h3-8H,15-16H2,1-2H3
Instrument: TripleTOF 6600 SCIEX
Instrument type: LC-ESI-QTOF
Ms type: MS2
Ion mode: POSITIVE
Collision energy: 60
Fragmentation mode: CID
Ionization: ESI
Column name: Zorbax Eclipse Plus C18 2.1 mm x 150 mm, 3.5 um, Agilent
Retention time: 5.188 min
Precursor m/z: 245.1285
Precursor type: [M+H]+
m/z	relative intensity
77.0386	19
80.0483	29
89.0384	25
91.0542	17
93.0557	12
102.0469	11
103.0508	25
104.048	14
105.0671	17
109.0504	51
115.0533	600
116.0488	21
116.0613	77
117.055	95
118.0633	46
126.0448	42
127.054	66
128.0497	37
130.0639	126
131.0672	100
132.0794	58
139.0534	12
140.0485	30
141.0556	46
142.0647	199
143.0716	390
146.0587	38
152.0505	43
153.0556	59
154.0634	186
155.0581	34
157.074	43
158.083	343
159.0863	513
160.0743	17
167.0647	11
168.0664	51
169.0751	322
170.0598	46
170.0839	64
171.0676	11
171.088	34
181.0762	50
182.0818	19
186.0777	24
187.086	999
197.0703	12
