Mass spectrum: Amlodipine; LC-ESI-QTOF; MS2; 120 V
Name: Amlodipine
Class: Pharmaceutical
Formula: C20H25ClN2O5
Exact mass: 408.1452
SMILES: CCOC(=O)C1=C(COCCN)NC(=C(C1c2ccccc2Cl)C(=O)OC)C
InChI: InChI=1S/C20H25ClN2O5/c1-4-28-20(25)18-15(11-27-10-9-22)23-12(2)16(19(24)26-3)17(18)13-7-5-6-8-14(13)21/h5-8,17,23H,4,9-11,22H2,1-3H3
Instrument: TripleTOF 5600 SCIEX
Instrument type: LC-ESI-QTOF
Ms type: MS2
Ion mode: POSITIVE
Collision energy: 120
Fragmentation mode: CID
Ionization: ESI
Column name: Zorbax Eclipse Plus C18 2.1 mm x 150 mm, 3.5 um, Agilent
Retention time: 8.432 min
Precursor m/z: 409.1525
Precursor type: [M+H]+
m/z	relative intensity
42.044	108
44.0583	252
51.0268	44
65.0426	180
67.0204	40
72.048	40
74.018	148
75.026	597
76.034	44
77.0411	292
78.0479	40
80.0513	24
87.0238	24
88.0328	140
89.0405	180
90.0463	16
91.0569	40
92.0507	96
93.0562	20
99.0009	64
99.0227	28
100.0335	24
101.0391	549
102.0475	509
103.0537	28
104.0478	20
111.0003	108
113.0389	224
114.0465	589
115.0544	999
116.0498	56
116.0614	104
120.0441	72
123.0004	44
125.0145	80
125.0384	52
126.0467	220
127.0542	541
128.0621	441
129.045	52
129.0697	40
130.0635	20
136.0411	40
137.0153	40
137.0384	56
138.0455	92
138.9953	28
139.0544	593
140.0494	324
141.07	228
142.0647	32
143.0728	96
148.0389	40
149.0153	389
150.0455	160
151.0539	473
152.0619	950
153.069	284
154.0644	192
155.0502	36
156.0549	20
156.0834	28
161.0158	16
162.0201	28
163.0546	44
164.0494	48
164.0617	28
165.0698	96
166.0644	212
167.0729	373
168.0556	32
168.0808	140
169.0667	20
169.0907	20
173.0147	40
175.0354	28
177.0568	48
178.0656	164
178.0821	36
179.0732	108
180.0805	300
181.0683	20
181.0893	40
182.0619	24
186.0225	20
188.0247	20
190.0638	36
194.0604	16
194.0976	24
195.0673	24
196.075	76
199.0384	24
