Mass spectrum: 1-(o-Tolyl)-biguanide; LC-ESI-QTOF; MS2; 30 V
Name: 1-(o-Tolyl)-biguanide
Class: Industrial_process
Formula: C9H13N5
Exact mass: 191.1171
SMILES: Cc1ccccc1N=C(N)N=C(N)N
InChI: InChI=1S/C9H13N5/c1-6-4-2-3-5-7(6)13-9(12)14-8(10)11/h2-5H,1H3,(H6,10,11,12,13,14)
Instrument: TripleTOF 5600 SCIEX
Instrument type: LC-ESI-QTOF
Ms type: MS2
Ion mode: POSITIVE
Collision energy: 30
Fragmentation mode: CID
Ionization: ESI
Column name: Zorbax Eclipse Plus C18 2.1 mm x 150 mm, 3.5 um, Agilent
Retention time: 4.675 min
Precursor m/z: 192.1244
Precursor type: [M+H]+
m/z	relative intensity
43.0384	202
60.0614	394
65.0423	12
77.0405	11
79.0562	23
85.0524	52
89.0396	45
91.0557	287
93.0581	54
104.0495	34
106.065	808
108.0806	253
116.0491	685
117.0566	31
118.0521	32
131.06	52
132.0673	97
133.0755	999
141.0436	28
150.1021	363
158.0708	185
175.0975	186
192.1239	104
