Mass spectrum: Acetaminophen; LC-ESI-QTOF; MS2; 50 V
Name: Acetaminophen
Class: Pharmaceutical
Formula: C8H9NO2
Exact mass: 151.0633
SMILES: CC(=O)NC1=CC=C(C=C1)O
InChI: InChI=1S/C8H9NO2/c1-6(10)9-7-2-4-8(11)5-3-7/h2-5,11H,1H3,(H,9,10)
Instrument: TripleTOF 5600 SCIEX
Instrument type: LC-ESI-QTOF
Ms type: MS2
Ion mode: POSITIVE
Collision energy: 50
Fragmentation mode: CID
Ionization: ESI
Column name: Zorbax Eclipse Plus C18 2.1 mm x 150 mm, 3.5 um, Agilent
Retention time: 5.022 min
Precursor m/z: 152.0706
Precursor type: [M+H]+
m/z	relative intensity
43.0268	352
55.06	18
65.0428	999
66.0503	33
67.0455	54
80.0519	88
81.0598	27
82.0669	27
92.05	54
93.0354	75
93.058	72
109.0518	109
110.0589	36
