Mass spectrum: 1,2,3-trimethoxybenzene; LC-ESI-QTOF; MS2; 10 V
Name: 1,2,3-trimethoxybenzene
Class: Food_additive
Formula: C9H12O3
Exact mass: 168.0786
SMILES: COC1=C(C(=CC=C1)OC)OC
InChI: InChI=1S/C9H12O3/c1-10-7-5-4-6-8(11-2)9(7)12-3/h4-6H,1-3H3
Instrument: TripleTOF 5600 SCIEX
Instrument type: LC-ESI-QTOF
Ms type: MS2
Ion mode: POSITIVE
Collision energy: 10
Fragmentation mode: CID
Ionization: ESI
Column name: Zorbax Eclipse Plus C18 2.1 mm x 150 mm, 3.5 um, Agilent
Retention time: 9.034 min
Precursor m/z: 169.0859
Precursor type: [M+H]+
m/z	relative intensity
138.0677	82
139.074	10
154.0629	169
169.0862	999
