Mass spectrum: Anagrelide; LC-ESI-QTOF; MS2; 50 V
Name: Anagrelide
Class: Pharmaceutical
Formula: C10H7Cl2N3O
Exact mass: 254.9966
SMILES: c1cc(c(c2c1NC3=NC(=O)CN3C2)Cl)Cl
InChI: InChI=1S/C10H7Cl2N3O/c11-6-1-2-7-5(9(6)12)3-15-4-8(16)14-10(15)13-7/h1-2H,3-4H2,(H,13,14,16)
Instrument: TripleTOF 5600 SCIEX
Instrument type: LC-ESI-QTOF
Ms type: MS2
Ion mode: POSITIVE
Collision energy: 50
Fragmentation mode: CID
Ionization: ESI
Column name: Zorbax Eclipse Plus C18 2.1 mm x 150 mm, 3.5 um, Agilent
Retention time: 7.666 min
Precursor m/z: 256.0039
Precursor type: [M+H]+
m/z	relative intensity
100.0183	32
102.0349	10
108.984	16
129.0431	16
135.994	115
137.0014	69
138.0113	26
144.9601	105
151.0177	76
163.0046	31
164.0061	95
171.9713	371
172.9667	28
198.9824	999
228.0091	9
