Mass spectrum: Benzotriazole; LC-ESI-QTOF; MS2; 80 V
Name: Benzotriazole
Class: Industrial_process; Industrial_process; Industrial_process; Antimicrobial; Personal_care_product
Formula: C6H5N3
Exact mass: 119.0483
SMILES: C1=CC2=NNN=C2C=C1
InChI: InChI=1S/C6H5N3/c1-2-4-6-5(3-1)7-9-8-6/h1-4H,(H,7,8,9)
Instrument: TripleTOF 6600 SCIEX
Instrument type: LC-ESI-QTOF
Ms type: MS2
Ion mode: POSITIVE
Collision energy: 80
Fragmentation mode: CID
Ionization: ESI
Column name: Zorbax Eclipse Plus C18 2.1 mm x 150 mm, 3.5 um, Agilent
Retention time: 5.876 min
Precursor m/z: 120.0556
Precursor type: [M+H]+
m/z	relative intensity
35.9992	196
37.0074	999
38.0027	59
38.0153	778
39.023	915
40.0178	47
43.0294	47
49.0071	107
50.0153	338
51.0107	65
51.0224	77
52.0177	160
61.0071	142
62.0147	291
63.0227	196
74.0146	35
75.0097	35
