Mass spectrum: Fluroxypyr; LC-ESI-QTOF; MS2; 80 V
Name: Fluroxypyr
Class: Herbicide
Formula: C7H5Cl2FN2O3
Exact mass: 253.9661
SMILES: C(C(=O)O)OC1=NC(=C(C(=C1Cl)N)Cl)F
InChI: InChI=1S/C7H5Cl2FN2O3/c8-3-5(11)4(9)7(12-6(3)10)15-1-2(13)14/h1H2,(H2,11,12)(H,13,14)
Instrument: TripleTOF 6600 SCIEX
Instrument type: LC-ESI-QTOF
Ms type: MS2
Ion mode: POSITIVE
Collision energy: 80
Fragmentation mode: CID
Ionization: ESI
Column name: Zorbax Eclipse Plus C18 2.1 mm x 150 mm, 3.5 um, Agilent
Retention time: 8.859 min
Precursor m/z: 254.9734
Precursor type: [M+H]+
m/z	relative intensity
46.9676	18
48.9835	61
52.0182	21
56.0059	25
57.012	25
60.9838	21
61.9791	28
62.9625	32
64.018	75
65.966	18
66.9736	306
69.0011	21
70.0088	82
70.9673	28
71.9756	100
72.983	50
73.9781	50
74.9893	28
77.0128	97
80.9996	21
82.0079	97
82.9437	133
83.0155	57
83.9773	18
84.0232	54
85.9786	119
86.9867	18
89.9656	144
90.9736	999
91.0279	32
91.97	46
91.9806	18
93.984	32
96.97	39
97.9779	61
98.9864	108
100.9347	39
101.9652	18
103.968	21
105.937	39
105.9844	54
106.9436	252
109.0183	32
110.0261	32
111.0353	122
112.9892	79
115.9686	79
116.9769	79
117.9845	75
118.9914	61
120.9533	21
121.953	25
122.9507	18
124.9344	815
125.9965	43
131.939	61
132.997	14
133.9541	54
143.9866	100
146.0028	43
151.9441	79
