Mass spectrum: Econazole; LC-ESI-QTOF; MS2; 110 V
Name: Econazole
Class: Pharmaceutical; Fungicide
Formula: C18H15Cl3N2O
Exact mass: 380.025
SMILES: Clc1ccc(COC(Cn2ccnc2)c3ccc(Cl)cc3Cl)cc1
InChI: InChI=1S/C18H15Cl3N2O/c19-14-3-1-13(2-4-14)11-24-18(10-23-8-7-22-12-23)16-6-5-15(20)9-17(16)21/h1-9,12,18H,10-11H2
Instrument: TripleTOF 5600 SCIEX
Instrument type: LC-ESI-QTOF
Ms type: MS2
Ion mode: POSITIVE
Collision energy: 110
Fragmentation mode: CID
Ionization: ESI
Column name: Zorbax Eclipse Plus C18 2.1 mm x 150 mm, 3.5 um, Agilent
Retention time: 10.056 min
Precursor m/z: 381.0323
Precursor type: [M+H]+
m/z	relative intensity
64.0359	10
65.0432	41
69.0483	28
72.9877	186
75.003	36
75.0261	11
81.0475	41
89.0416	999
90.0485	335
96.9854	10
99.0012	592
102.0463	13
125.0161	776
