Mass spectrum: Nifedipine; LC-ESI-QTOF; MS2; 60 V
Name: Nifedipine
Class: Pharmaceutical
Formula: C17H18N2O6
Exact mass: 346.1165
SMILES: CC1=C(C(C(=C(N1)C)C(=O)OC)C2=CC=CC=C2[N+](=O)[O-])C(=O)OC
InChI: InChI=1S/C17H18N2O6/c1-9-13(16(20)24-3)15(14(10(2)18-9)17(21)25-4)11-7-5-6-8-12(11)19(22)23/h5-8,15,18H,1-4H3
Instrument: TripleTOF 5600 SCIEX
Instrument type: LC-ESI-QTOF
Ms type: MS2
Ion mode: POSITIVE
Collision energy: 60
Fragmentation mode: CID
Ionization: ESI
Column name: Zorbax Eclipse Plus C18 2.1 mm x 150 mm, 3.5 um, Agilent
Retention time: 10.896 min
Precursor m/z: 347.1238
Precursor type: [M+H]+
m/z	relative intensity
77.0442	19
89.0431	22
101.0424	13
114.0467	13
115.0567	226
116.0526	46
117.0589	20
122.0261	16
125.0406	18
126.0478	18
127.0558	143
128.0593	130
129.0688	65
130.0669	27
139.0553	57
140.0509	154
141.0672	105
142.0665	84
143.0734	49
144.0464	41
149.0458	12
151.0548	57
152.052	157
153.0596	128
154.0284	11
154.0657	214
155.0679	68
156.0785	28
157.073	13
165.0573	10
166.0657	289
167.0725	604
168.0786	419
169.0762	106
170.06	72
170.0969	10
177.0567	12
178.065	40
179.0606	275
180.074	150
181.0759	209
182.0844	88
183.0916	109
184.0765	16
185.069	16
192.0675	157
193.076	870
194.0834	486
195.0911	999
196.0991	92
197.0737	31
198.0913	54
208.0741	79
209.0719	54
210.0899	75
211.0864	77
213.0634	21
221.0703	166
222.0776	13
223.0864	416
224.0728	54
225.0789	20
226.0857	176
236.068	22
238.0722	13
239.0806	153
252.0644	20
253.0955	180
254.1033	71
270.074	14
284.0896	10
