Mass spectrum: Sulfasalazine; LC-ESI-QTOF; MS2; 110 V
Name: Sulfasalazine
Class: Pharmaceutical
Formula: C18H14N4O5S
Exact mass: 398.0685
SMILES: C1=CC=NC(=C1)NS(=O)(=O)C2=CC=C(C=C2)NN=C3C=CC(=O)C(=C3)C(=O)O
InChI: InChI=1S/C18H14N4O5S/c23-16-9-6-13(11-15(16)18(24)25)21-20-12-4-7-14(8-5-12)28(26,27)22-17-3-1-2-10-19-17/h1-11,20H,(H,19,22)(H,24,25)
Instrument: TripleTOF 5600 SCIEX
Instrument type: LC-ESI-QTOF
Ms type: MS2
Ion mode: POSITIVE
Collision energy: 110
Fragmentation mode: CID
Ionization: ESI
Column name: Zorbax Eclipse Plus C18 2.1 mm x 150 mm, 3.5 um, Agilent
Retention time: 9.217 min
Precursor m/z: 399.0758
Precursor type: [M+H]+
m/z	relative intensity
41.036	22
50.0223	26
53.0475	37
55.0238	15
61.0153	18
62.0225	71
63.0295	207
67.0489	999
75.0277	30
76.0367	64
77.044	79
78.0394	71
80.0165	22
81.0387	169
87.0279	18
91.0218	380
93.0488	33
94.0572	207
95.0675	15
102.037	33
107.0167	22
113.04	37
114.0377	22
119.0163	33
126.0464	18
127.0513	22
129.0475	37
137.0267	26
139.054	33
140.0546	37
142.0535	18
155.0603	33
166.0524	22
167.062	30
168.0668	49
169.0748	18
180.0616	22
