Mass spectrum: Disperse orange 3; LC-ESI-QTOF; MS2; 150 V
Name: Disperse orange 3
Formula: C12H10N4O2
Exact mass: 242.0804
SMILES: C1=CC(=CC=C1N)N=NC2=CC=C(C=C2)[N+](=O)[O-]
InChI: InChI=1S/C12H10N4O2/c13-9-1-3-10(4-2-9)14-15-11-5-7-12(8-6-11)16(17)18/h1-8H,13H2
Instrument: TripleTOF 6600 SCIEX
Instrument type: LC-ESI-QTOF
Ms type: MS2
Ion mode: POSITIVE
Collision energy: 150
Fragmentation mode: CID
Ionization: ESI
Column name: Zorbax Eclipse Plus C18 2.1 mm x 150 mm, 3.5 um, Agilent
Retention time: 12.729 min
Precursor m/z: 243.0877
Precursor type: [M+H]+
m/z	relative intensity
35.9988	26
37.0065	156
38.0143	93
39.0222	147
49.0061	455
50.0143	999
51.0092	14
51.0219	114
52.0171	95
61.0069	68
62.0135	69
63.0215	37
65.0365	12
73.0056	351
74.0137	844
75.0206	34
78.0313	10
