Mass spectrum: Ethyl-N-(4-aminophenyl)carbamate; LC-ESI-QTOF; MS2; 90 V
Name: Ethyl-N-(4-aminophenyl)carbamate
Class: Industrial_process
Formula: C9H12N2O2
Exact mass: 180.0899
SMILES: CCOC(=O)Nc1ccc(cc1)N
InChI: InChI=1S/C9H12N2O2/c1-2-13-9(12)11-8-5-3-7(10)4-6-8/h3-6H,2,10H2,1H3,(H,11,12)
Instrument: TripleTOF 5600 SCIEX
Instrument type: LC-ESI-QTOF
Ms type: MS2
Ion mode: POSITIVE
Collision energy: 90
Fragmentation mode: CID
Ionization: ESI
Column name: Zorbax Eclipse Plus C18 2.1 mm x 150 mm, 3.5 um, Agilent
Retention time: 4.863 min
Precursor m/z: 181.0972
Precursor type: [M+H]+
m/z	relative intensity
52.0257	48
52.0356	106
53.0449	640
54.0394	174
64.0336	96
64.0481	106
65.0302	38
65.0421	902
66.0367	48
66.0497	358
67.0451	67
74.0182	67
75.0251	58
78.036	106
79.0439	48
80.0514	999
81.0587	38
90.0343	155
92.0505	155
93.0573	242
105.0448	126
107.059	116
108.0708	48
