Mass spectrum: Pantoprazole sulfide; LC-ESI-QTOF; MS2; 100 V
Name: Pantoprazole sulfide
Class: Pharmaceutical; Metabolite
Formula: C16H15F2N3O3S
Exact mass: 367.0802
SMILES: COC1=C(C(=NC=C1)CSC2=NC3=C(N2)C=CC(=C3)OC(F)F)OC
InChI: InChI=1S/C16H15F2N3O3S/c1-22-13-5-6-19-12(14(13)23-2)8-25-16-20-10-4-3-9(24-15(17)18)7-11(10)21-16/h3-7,15H,8H2,1-2H3,(H,20,21)
Instrument: TripleTOF 5600 SCIEX
Instrument type: LC-ESI-QTOF
Ms type: MS2
Ion mode: POSITIVE
Collision energy: 100
Fragmentation mode: CID
Ionization: ESI
Column name: Zorbax Eclipse Plus C18 2.1 mm x 150 mm, 3.5 um, Agilent
Retention time: 7.575 min
Precursor m/z: 368.0875
Precursor type: [M+H]+
m/z	relative intensity
42.0436	139
50.0383	17
51.0306	419
52.0358	41
53.0435	14
55.0241	11
65.0435	999
66.0138	17
67.0231	20
67.0444	41
68.0172	23
69.0371	26
69.9971	11
78.039	23
78.047	11
79.044	80
79.0548	20
80.0516	98
91.0419	17
92.051	517
92.0753	29
93.0583	26
94.0286	26
94.0659	23
94.0729	11
94.9953	11
95.0373	20
96.0035	65
96.0451	20
106.0658	11
107.0366	56
108.0458	50
109.0533	17
110.0056	65
110.0607	44
117.0446	38
118.0526	29
122.008	41
122.0596	35
123.0143	47
135.0563	68
136.039	154
138.0548	35
140.0167	14
150.053	11
151.0092	38
154.0323	26
168.0107	23
173.0571	11
