Mass spectrum: Estradiol; LC-ESI-QTOF; MS2; 40 V
Name: Estradiol
Class: Pharmaceutical
Formula: C18H24O2
Exact mass: 272.1776
SMILES: CC12CCC3C(C1CCC2O)CCC4=C3C=CC(=C4)O
InChI: InChI=1S/C18H24O2/c1-18-9-8-14-13-5-3-12(19)10-11(13)2-4-15(14)16(18)6-7-17(18)20/h3,5,10,14-17,19-20H,2,4,6-9H2,1H3
Instrument: TripleTOF 5600 SCIEX
Instrument type: LC-ESI-QTOF
Ms type: MS2
Ion mode: POSITIVE
Collision energy: 40
Fragmentation mode: CID
Ionization: ESI
Column name: Zorbax Eclipse Plus C18 2.1 mm x 150 mm, 3.5 um, Agilent
Retention time: 10.403 min
Precursor m/z: 273.1849
Precursor type: [M+H]+
m/z	relative intensity
55.0539	19
67.0542	78
69.0689	13
77.0385	185
79.0543	152
81.0702	78
91.0538	62
93.0699	140
95.0857	54
103.0522	18
105.0701	102
107.0492	999
107.0857	38
109.1007	57
115.0545	22
116.0616	10
117.0706	12
119.0846	29
121.0647	41
121.1	18
127.0539	17
129.0687	15
131.0488	25
131.084	33
133.0648	129
133.1029	11
135.1169	198
141.0702	35
144.0555	50
145.0638	71
147.0793	42
147.1168	38
149.1328	18
157.0653	47
158.0765	13
159.0809	185
161.0912	12
161.1323	16
171.0793	11
173.0961	36
185.0946	39
199.1092	15
255.174	21
