Mass spectrum: Metsulfuron-methyl; LC-ESI-QTOF; MS2; 60 V
Name: Metsulfuron-methyl
Class: Herbicide
Formula: C14H15N5O6S
Exact mass: 381.0743
SMILES: CC1=NC(=NC(=N1)OC)NC(=O)NS(=O)(=O)C2=CC=CC=C2C(=O)OC
InChI: InChI=1S/C14H15N5O6S/c1-8-15-12(18-14(16-8)25-3)17-13(21)19-26(22,23)10-7-5-4-6-9(10)11(20)24-2/h4-7H,1-3H3,(H2,15,16,17,18,19,21)
Instrument: TripleTOF 6600 SCIEX
Instrument type: LC-ESI-QTOF
Ms type: MS2
Ion mode: POSITIVE
Collision energy: 60
Fragmentation mode: CID
Ionization: ESI
Column name: Zorbax Eclipse Plus C18 2.1 mm x 150 mm, 3.5 um, Agilent
Retention time: 9.15008 min
Precursor m/z: 382.0816
Precursor type: [M+H]+
m/z	relative intensity
42.0333	134
43.0278	54
56.0496	377
57.0449	80
58.0288	188
65.0447	27
69.0086	377
77.0385	999
79.0541	54
83.0229	567
85.0396	54
90.0342	216
92.0237	134
92.047	54
102.0334	108
105.0272	27
105.038	27
120.018	54
120.0432	27
130.0373	54
135.043	702
141.0763	216
146.0249	54
167.0562	809
199.01	108
