Mass spectrum: Flufenacet; LC-ESI-QTOF; MS2; 130 V
Name: Flufenacet
Class: Herbicide; Fungicide
Formula: C14H13F4N3O2S
Exact mass: 363.0665
SMILES: CC(C)N(C1=CC=C(C=C1)F)C(=O)COC2=NN=C(S2)C(F)(F)F
InChI: InChI=1S/C14H13F4N3O2S/c1-8(2)21(10-5-3-9(15)4-6-10)11(22)7-23-13-20-19-12(24-13)14(16,17)18/h3-6,8H,7H2,1-2H3
Instrument: TripleTOF 6600 SCIEX
Instrument type: LC-ESI-QTOF
Ms type: MS2
Ion mode: POSITIVE
Collision energy: 130
Fragmentation mode: CID
Ionization: ESI
Column name: Zorbax Eclipse Plus C18 2.1 mm x 150 mm, 3.5 um, Agilent
Retention time: 13.345 min
Precursor m/z: 364.0738
Precursor type: [M+H]+
m/z	relative intensity
37.0073	11
38.0149	12
39.0231	55
41.0383	21
49.0072	46
50.0152	230
51.0232	592
52.0179	11
57.0136	346
59.0292	23
61.0072	24
62.0147	34
63.0229	90
69.0134	43
70.0211	56
71.0287	10
73.0072	34
74.0153	597
75.0232	999
76.0183	31
77.0389	575
78.0346	35
81.0134	73
83.029	330
84.0363	15
85.0321	13
89.0383	22
95.0293	371
96.0367	194
97.0448	58
102.0336	10
104.0499	20
105.0449	11
107.0288	118
108.0366	18
109.0448	92
111.0486	11
122.0398	46
123.0356	85
124.0562	18
135.0482	12
