Mass spectrum: Diphenylphosphinamide; LC-ESI-QTOF; MS2; 110 V
Name: Diphenylphosphinamide
Formula: C12H12NOP
Exact mass: 217.0657
SMILES: C1=CC=C(C=C1)P(=O)(C2=CC=CC=C2)N
InChI: InChI=1S/C12H12NOP/c13-15(14,11-7-3-1-4-8-11)12-9-5-2-6-10-12/h1-10H,(H2,13,14)
Instrument: TripleTOF 5600 SCIEX
Instrument type: LC-ESI-QTOF
Ms type: MS2
Ion mode: POSITIVE
Collision energy: 110
Fragmentation mode: CID
Ionization: ESI
Column name: Zorbax Eclipse Plus C18 2.1 mm x 150 mm, 3.5 um, Agilent
Retention time: 7.411 min
Precursor m/z: 218.0729
Precursor type: [M+H]+
m/z	relative intensity
45.9846	72
46.9688	91
49.0076	102
50.0157	710
51.0237	999
62.0149	15
63.0232	41
63.9949	22
67.9818	34
68.9892	53
74.0154	75
75.0232	18
76.0304	30
77.0387	159
80.9893	15
102.0463	26
107.0055	30
126.0478	22
150.0478	30
151.058	37
152.061	22
