Mass spectrum: Nitrazepam; LC-ESI-QTOF; MS2; 120 V
Name: Nitrazepam
Class: Pharmaceutical
Formula: C15H11N3O3
Exact mass: 281.08
SMILES: C1C(=O)NC2=C(C=C(C=C2)[N+](=O)[O-])C(=N1)C3=CC=CC=C3
InChI: InChI=1S/C15H11N3O3/c19-14-9-16-15(10-4-2-1-3-5-10)12-8-11(18(20)21)6-7-13(12)17-14/h1-8H,9H2,(H,17,19)
Instrument: TripleTOF 6600 SCIEX
Instrument type: LC-ESI-QTOF
Ms type: MS2
Ion mode: POSITIVE
Collision energy: 120
Fragmentation mode: CID
Ionization: ESI
Column name: Zorbax Eclipse Plus C18 2.1 mm x 150 mm, 3.5 um, Agilent
Retention time: 9.435 min
Precursor m/z: 282.0873
Precursor type: [M+H]+
m/z	relative intensity
37.0072	25
38.0135	15
39.0225	101
49.0057	25
50.0144	200
51.0221	395
52.0167	15
52.0304	18
60.0003	17
61.0064	79
62.014	107
63.0223	235
64.0179	12
65.0372	79
73.0054	33
74.0143	354
75.0218	286
76.0175	36
76.0292	170
77.038	472
78.0324	12
78.0456	64
83.9971	11
85.006	45
86.0138	109
87.0215	164
88.0178	25
88.0309	30
89.0376	210
90.0375	23
91.0537	14
97.0063	15
98.014	203
99.0212	145
100.029	58
101.0371	60
102.0321	14
102.0449	181
104.0479	22
109.0057	14
110.013	56
111.0238	60
112.0165	12
113.0373	216
114.0339	53
115.054	131
122.0133	41
123.0203	34
124.028	36
125.0374	164
126.045	459
127.0519	169
128.0469	11
128.0606	63
129.0436	20
130.0372	11
135.0214	12
137.038	116
138.0438	44
139.0528	189
140.0483	86
149.0374	118
150.045	999
151.0531	948
152.0599	599
153.0564	47
155.0559	11
161.0374	116
162.0452	137
163.0522	366
164.0485	131
165.07	15
166.0639	18
175.0411	37
176.0486	47
177.0556	211
178.0649	80
179.0624	44
188.0478	101
189.0542	14
190.0639	17
204.0511	14
205.0736	23
