Mass spectrum: Oseltamivir carboxylic acid; LC-ESI-QTOF; MS2; 40 V
Name: Oseltamivir carboxylic acid
Class: Pharmaceutical; Metabolite; Transformation_product
Formula: C14H24N2O4
Exact mass: 284.1736
SMILES: CCC(CC)O[C@@H]1C=C(C[C@H](N)[C@H]1NC(C)=O)C(O)=O
InChI: InChI=1S/C14H24N2O4/c1-4-10(5-2)20-12-7-9(14(18)19)6-11(15)13(12)16-8(3)17/h7,10-13H,4-6,15H2,1-3H3,(H,16,17)(H,18,19)/t11-,12+,13+/m0/s1
Instrument: TripleTOF 5600 SCIEX
Instrument type: LC-ESI-QTOF
Ms type: MS2
Ion mode: NEGATIVE
Collision energy: 40
Fragmentation mode: CID
Ionization: ESI
Column name: Zorbax Eclipse Plus C18 2.1 mm x 150 mm, 3.5 um, Agilent
Retention time: 5.65 min
Precursor m/z: 283.1663
Precursor type: [M-H]-
m/z	relative intensity
42.0017	95
58.0314	407
66.0354	129
85.0653	101
92.0276	88
92.0507	999
93.0344	88
107.0597	61
109.0759	67
110.0607	67
134.0608	258
136.0397	482
137.0248	115
149.0705	74
151.087	251
163.1124	163
178.0514	135
195.077	149
207.102	210
