Mass spectrum: 1,3-Bis(2-methylphenyl)urea; LC-ESI-QTOF; MS2; 120 V
Name: 1,3-Bis(2-methylphenyl)urea
Formula: C15H16N2O
Exact mass: 240.1263
SMILES: CC1=CC=CC=C1NC(=O)NC2=CC=CC=C2C
InChI: InChI=1S/C15H16N2O/c1-11-7-3-5-9-13(11)16-15(18)17-14-10-6-4-8-12(14)2/h3-10H,1-2H3,(H2,16,17,18)
Instrument: TripleTOF 6600 SCIEX
Instrument type: LC-ESI-QTOF
Ms type: MS2
Ion mode: POSITIVE
Collision energy: 120
Fragmentation mode: CID
Ionization: ESI
Column name: Zorbax Eclipse Plus C18 2.1 mm x 150 mm, 3.5 um, Agilent
Retention time: 11.062 min
Precursor m/z: 241.1336
Precursor type: [M+H]+
m/z	relative intensity
35.999	29
37.0071	173
38.0147	161
39.0229	999
40.0306	27
41.0259	21
41.0379	12
42.0336	23
49.0069	59
50.0146	352
51.0225	447
52.0177	65
53.0376	10
54.0331	74
61.0061	48
62.0141	112
63.0222	146
65.0381	939
66.0353	42
66.0455	322
67.04	25
74.0139	23
77.0374	116
78.0328	63
92.0485	137
93.0562	116
