Mass spectrum: Acetonyltriphenylphosphonium; LC-ESI-QTOF; MS2; 40 V
Name: Acetonyltriphenylphosphonium
Formula: [C21H20OP]+
Exact mass: 319.1246
SMILES: CC(=O)C[P+](C1=CC=CC=C1)(C2=CC=CC=C2)C3=CC=CC=C3
InChI: InChI=1S/C21H20OP/c1-18(22)17-23(19-11-5-2-6-12-19,20-13-7-3-8-14-20)21-15-9-4-10-16-21/h2-16H,17H2,1H3/q+1
Instrument: TripleTOF 5600 SCIEX
Instrument type: LC-ESI-QTOF
Ms type: MS2
Ion mode: POSITIVE
Collision energy: 40
Fragmentation mode: CID
Ionization: ESI
Column name: Zorbax Eclipse Plus C18 2.1 mm x 150 mm, 3.5 um, Agilent
Retention time: 7.28 min
Precursor m/z: 319.1246
Precursor type: [M]+
m/z	relative intensity
108.0107	97
183.0358	196
185.0512	136
201.046	559
261.0827	196
262.0904	328
275.0979	999
277.1138	320
279.0928	559
319.1241	733
