Mass spectrum: 1,2,3-trimethoxybenzene; LC-ESI-QTOF; MS2; 50 V
Name: 1,2,3-trimethoxybenzene
Class: Food_additive
Formula: C9H12O3
Exact mass: 168.0786
SMILES: COC1=C(C(=CC=C1)OC)OC
InChI: InChI=1S/C9H12O3/c1-10-7-5-4-6-8(11-2)9(7)12-3/h4-6H,1-3H3
Instrument: TripleTOF 5600 SCIEX
Instrument type: LC-ESI-QTOF
Ms type: MS2
Ion mode: POSITIVE
Collision energy: 50
Fragmentation mode: CID
Ionization: ESI
Column name: Zorbax Eclipse Plus C18 2.1 mm x 150 mm, 3.5 um, Agilent
Retention time: 9.034 min
Precursor m/z: 169.0859
Precursor type: [M+H]+
m/z	relative intensity
55.0269	310
65.0462	826
67.0603	172
68.0322	999
77.0432	620
78.0527	344
81.0375	206
83.0524	172
94.045	241
95.0516	757
96.0212	413
107.0159	172
111.0438	413
123.044	344
