Mass spectrum: Parathion; LC-ESI-QTOF; MS2; 40 V
Name: Parathion
Class: Insecticide
Formula: C10H14NO5PS
Exact mass: 291.033
SMILES: CCOP(=S)(OCC)Oc1ccc(cc1)[N+](=O)[O-]
InChI: InChI=1S/C10H14NO5PS/c1-3-14-17(18,15-4-2)16-10-7-5-9(6-8-10)11(12)13/h5-8H,3-4H2,1-2H3
Instrument: TripleTOF 5600 SCIEX
Instrument type: LC-ESI-QTOF
Ms type: MS2
Ion mode: POSITIVE
Collision energy: 40
Fragmentation mode: CID
Ionization: ESI
Column name: Zorbax Eclipse Plus C18 2.1 mm x 150 mm, 3.5 um, Agilent
Retention time: 14.107 min
Precursor m/z: 292.0403
Precursor type: [M+H]+
m/z	relative intensity
75.0266	39
93.0343	71
93.0595	32
94.0423	999
94.087	32
96.9508	541
97.0112	39
100.009	26
109.0088	58
110.0185	672
122.024	45
123.0309	783
125.0048	104
126.0125	52
139.0087	104
139.0308	26
140.0335	444
150.0299	26
153.9941	32
154.9714	58
155.9981	313
156.0109	182
170.9687	39
171.9736	424
184.9872	32
187.9704	45
189.9855	195
201.9879	39
217.9664	215
218.9732	91
235.978	228
