Mass spectrum: Kresoxim-methyl; LC-ESI-QTOF; MS2; 80 V
Name: Kresoxim-methyl
Class: Fungicide
Formula: C18H19NO4
Exact mass: 313.1314
SMILES: CC1=CC=CC=C1OCC2=CC=CC=C2C(=NOC)C(=O)OC
InChI: InChI=1S/C18H19NO4/c1-13-8-4-7-11-16(13)23-12-14-9-5-6-10-15(14)17(19-22-3)18(20)21-2/h4-11H,12H2,1-3H3
Instrument: TripleTOF 6600 SCIEX
Instrument type: LC-ESI-QTOF
Ms type: MS2
Ion mode: POSITIVE
Collision energy: 80
Fragmentation mode: CID
Ionization: ESI
Column name: Zorbax Eclipse Plus C18 2.1 mm x 150 mm, 3.5 um, Agilent
Retention time: 13.809 min
Precursor m/z: 314.1387
Precursor type: [M+H]+
m/z	relative intensity
39.0225	44
41.0371	14
51.0219	71
61.0059	17
62.0146	35
63.0222	142
65.0383	192
75.0226	20
77.0376	352
78.045	50
79.0526	20
88.0288	11
89.0377	797
90.0458	183
91.0528	272
101.0381	17
102.0326	11
102.0448	32
103.0526	97
104.0484	32
107.0468	14
113.0364	26
114.031	14
115.0528	139
116.0481	293
117.0559	112
118.0383	17
118.065	47
125.0392	44
126.0445	53
127.0538	94
128.0611	112
129.0531	23
130.0372	11
130.0637	168
131.0714	14
132.0433	23
139.054	157
140.049	100
141.0687	26
149.037	14
150.0443	186
151.0535	835
152.062	999
153.0676	154
154.0659	35
155.0641	17
162.0447	20
163.0536	157
164.061	148
165.0691	904
166.0672	106
167.0743	106
168.0771	11
169.0648	23
174.0449	20
175.0521	68
176.0605	415
177.0625	432
178.0754	990
179.0722	186
180.0565	26
180.0806	192
181.0622	100
188.0489	59
189.0654	88
190.065	213
191.073	151
192.0805	154
193.0871	115
194.072	26
194.0955	65
195.0773	20
201.0551	41
202.065	56
203.0748	85
204.079	50
206.0592	246
207.0704	23
220.0741	32
222.0962	14
235.0759	11
