Mass spectrum: Climbazole; LC-ESI-QTOF; MS2; 120 V
Name: Climbazole
Class: Pharmaceutical; Personal_care_product
Formula: C15H17ClN2O2
Exact mass: 292.0979
SMILES: CC(C)(C)C(=O)C(Oc1ccc(Cl)cc1)n2ccnc2
InChI: InChI=1S/C15H17ClN2O2/c1-15(2,3)13(19)14(18-9-8-17-10-18)20-12-6-4-11(16)5-7-12/h4-10,14H,1-3H3
Instrument: TripleTOF 5600 SCIEX
Instrument type: LC-ESI-QTOF
Ms type: MS2
Ion mode: POSITIVE
Collision energy: 120
Fragmentation mode: CID
Ionization: ESI
Column name: Zorbax Eclipse Plus C18 2.1 mm x 150 mm, 3.5 um, Agilent
Retention time: 8.761 min
Precursor m/z: 293.1051
Precursor type: [M+H]+
m/z	relative intensity
42.043	29
48.9887	14
55.0599	32
57.0742	193
62.0306	20
65.0414	47
67.0319	17
68.0386	55
69.0475	155
69.069	20
72.9866	349
73.0088	129
74.0181	999
74.0642	20
75.0262	755
75.067	35
76.0336	20
77.0398	58
81.0464	35
84.9852	141
89.0387	26
91.0542	38
98.9995	91
102.0483	17
110.9983	67
115.0531	11
128.0602	14
