Mass spectrum: Octocrylene; LC-ESI-QTOF; MS2; 30 V
Name: Octocrylene
Class: Industrial_process; Personal_care_product
Formula: C24H27NO2
Exact mass: 361.2042
SMILES: CCCCC(CC)COC(=O)C(=C(C1=CC=CC=C1)C2=CC=CC=C2)C#N
InChI: InChI=1S/C24H27NO2/c1-3-5-12-19(4-2)18-27-24(26)22(17-25)23(20-13-8-6-9-14-20)21-15-10-7-11-16-21/h6-11,13-16,19H,3-5,12,18H2,1-2H3
Instrument: TripleTOF 5600 SCIEX
Instrument type: LC-ESI-QTOF
Ms type: MS2
Ion mode: POSITIVE
Collision energy: 30
Fragmentation mode: CID
Ionization: ESI
Column name: Zorbax Eclipse Plus C18 2.1 mm x 150 mm, 3.5 um, Agilent
Retention time: 17.664 min
Precursor m/z: 362.2115
Precursor type: [M+H]+
m/z	relative intensity
71.0913	12
105.035	38
157.0303	13
182.096	12
204.08	65
232.075	999
250.086	238
