Mass spectrum: 4-Epioxytetracyline; LC-ESI-QTOF; MS2; 40 V
Name: 4-Epioxytetracyline
Class: Metabolite; Pharmaceutical
Formula: C22H24N2O9
Exact mass: 460.1482
SMILES: CC1(C2C(C3C(C(=O)C(=C(C3(C(=O)C2=C(C4=C1C=CC=C4O)O)O)O)C(=O)N)N(C)C)O)O
InChI: InChI=1S/C22H24N2O9/c1-21(32)7-5-4-6-8(25)9(7)15(26)10-12(21)17(28)13-14(24(2)3)16(27)11(20(23)31)19(30)22(13,33)18(10)29/h4-6,12-14,17,25-26,28,30,32-33H,1-3H3,(H2,23,31)/t12-,13-,14-,17+,21-,22+/m1/s1
Instrument: TripleTOF 5600 SCIEX
Instrument type: LC-ESI-QTOF
Ms type: MS2
Ion mode: POSITIVE
Collision energy: 40
Fragmentation mode: CID
Ionization: ESI
Column name: Zorbax Eclipse Plus C18 2.1 mm x 150 mm, 3.5 um, Agilent
Retention time: 5.276 min
Precursor m/z: 461.1555
Precursor type: [M+H]+
m/z	relative intensity
201.0544	499
213.0593	187
283.0643	312
335.052	343
337.069	374
337.0858	156
350.0414	218
365.0612	686
381.0631	374
408.1217	187
426.1118	999
426.1383	280
