Mass spectrum: Meptazinol; LC-ESI-QTOF; MS2; 110 V
Name: Meptazinol
Class: Pharmaceutical
Formula: C15H23NO
Exact mass: 233.178
SMILES: CCC1(CCCCN(C1)C)C2=CC(=CC=C2)O
InChI: InChI=1S/C15H23NO/c1-3-15(9-4-5-10-16(2)12-15)13-7-6-8-14(17)11-13/h6-8,11,17H,3-5,9-10,12H2,1-2H3
Instrument: TripleTOF 5600 SCIEX
Instrument type: LC-ESI-QTOF
Ms type: MS2
Ion mode: POSITIVE
Collision energy: 110
Fragmentation mode: CID
Ionization: ESI
Column name: Zorbax Eclipse Plus C18 2.1 mm x 150 mm, 3.5 um, Agilent
Retention time: 5.641 min
Precursor m/z: 234.1852
Precursor type: [M+H]+
m/z	relative intensity
37.0071	24
38.0147	17
39.0228	105
41.0385	30
42.0335	26
44.0496	141
49.0071	30
50.015	196
51.023	705
52.0302	11
53.0386	45
54.0342	15
55.018	54
56.0489	15
61.0068	13
62.0155	45
63.0228	105
65.0388	100
66.0453	17
68.0501	11
70.0651	34
74.0141	30
75.023	32
76.0304	13
77.0386	999
78.0459	39
79.0545	41
81.0335	18
89.0387	75
91.0529	70
102.0463	30
103.0533	58
107.0482	20
115.0537	149
126.0457	18
127.0537	30
128.0617	17
131.0501	17
