Mass spectrum: Fludioxonil; LC-ESI-QTOF; MS2; 140 V
Name: Fludioxonil
Class: Fungicide
Formula: C12H6F2N2O2
Exact mass: 248.0397
SMILES: c1cc(c2c(c1)OC(O2)(F)F)c3c[nH]cc3C#N
InChI: InChI=1S/C12H6F2N2O2/c13-12(14)17-10-3-1-2-8(11(10)18-12)9-6-16-5-7(9)4-15/h1-3,5-6,16H
Instrument: TripleTOF 6600 SCIEX
Instrument type: LC-ESI-QTOF
Ms type: MS2
Ion mode: NEGATIVE
Collision energy: 140
Fragmentation mode: CID
Ionization: ESI
Column name: Zorbax Eclipse Plus C18 2.1 mm x 150 mm, 3.5 um, Agilent
Retention time: 11.757 min
Precursor m/z: 247.0324
Precursor type: [M-H]-
m/z	relative intensity
48.0005	148
49.0081	255
50.0035	999
71.9996	106
73.0074	170
74.0021	255
