Mass spectrum: Epirubicin; LC-ESI-QTOF; MS2; 150 V
Name: Epirubicin
Class: Pharmaceutical
Formula: C27H29NO11
Exact mass: 543.1741
SMILES: CC1C(C(CC(O1)OC2CC(CC3=C(C4=C(C(=C23)O)C(=O)C5=C(C4=O)C=CC=C5OC)O)(C(=O)CO)O)N)O
InChI: InChI=1S/C27H29NO11/c1-10-22(31)13(28)6-17(38-10)39-15-8-27(36,16(30)9-29)7-12-19(15)26(35)21-20(24(12)33)23(32)11-4-3-5-14(37-2)18(11)25(21)34/h3-5,10,13,15,17,22,29,31,33,35-36H,6-9,28H2,1-2H3
Instrument: TripleTOF 5600 SCIEX
Instrument type: LC-ESI-QTOF
Ms type: MS2
Ion mode: POSITIVE
Collision energy: 150
Fragmentation mode: CID
Ionization: ESI
Column name: Zorbax Eclipse Plus C18 2.1 mm x 150 mm, 3.5 um, Agilent
Retention time: 7.492 min
Precursor m/z: 544.1813
Precursor type: [M+H]+
m/z	relative intensity
44.0575	69
60.0501	83
72.0477	83
77.0412	138
86.0619	152
89.0387	97
89.0506	69
102.0462	97
113.0383	97
114.0497	83
115.0518	69
118.0429	69
139.055	97
150.0457	180
151.0554	222
152.0634	208
163.0576	138
164.0628	97
165.0699	388
175.056	124
176.0627	999
177.0707	111
178.0759	83
187.053	416
188.0605	111
189.0698	416
193.0682	97
200.0615	249
201.0704	208
202.0779	263
204.0612	97
205.0669	263
216.0636	55
221.0571	97
233.055	69
