Mass spectrum: Cocaethylene; LC-ESI-QTOF; MS2; 50 V
Name: Cocaethylene
Class: Metabolite
Formula: C18H23NO4
Exact mass: 317.1627
SMILES: CCOC(=O)C1C2CCC(N2C)CC1OC(=O)C3=CC=CC=C3
InChI: InChI=1S/C18H23NO4/c1-3-22-18(21)16-14-10-9-13(19(14)2)11-15(16)23-17(20)12-7-5-4-6-8-12/h4-8,13-16H,3,9-11H2,1-2H3
Instrument: TripleTOF 6600 SCIEX
Instrument type: LC-ESI-QTOF
Ms type: MS2
Ion mode: POSITIVE
Collision energy: 50
Fragmentation mode: CID
Ionization: ESI
Column name: Zorbax Eclipse Plus C18 2.1 mm x 150 mm, 3.5 um, Agilent
Retention time: 7.013 min
Precursor m/z: 318.17
Precursor type: [M+H]+
m/z	relative intensity
42.0349	16
44.0505	17
51.0236	12
55.0547	15
57.0578	10
65.0394	35
67.0448	30
67.0548	123
68.0503	46
70.0656	22
77.0397	273
79.0545	23
80.0498	10
81.0707	23
82.0665	999
83.0504	43
83.0735	86
91.0549	308
93.0343	29
93.0699	39
94.0658	72
96.0813	34
105.0347	420
107.0735	18
108.0814	142
111.0446	56
117.0577	10
119.0496	149
122.0969	109
132.0802	13
135.0674	19
140.0712	23
150.0915	87
168.102	54
196.1331	112
