Mass spectrum: Metrafenone; LC-ESI-QTOF; MS2; 140 V
Name: Metrafenone
Class: Fungicide
Formula: C19H21BrO5
Exact mass: 408.0572
SMILES: CC1=CC(=C(C(=C1C(=O)C2=C(C=CC(=C2C)Br)OC)OC)OC)OC
InChI: InChI=1S/C19H21BrO5/c1-10-9-14(23-4)18(24-5)19(25-6)15(10)17(21)16-11(2)12(20)7-8-13(16)22-3/h7-9H,1-6H3
Instrument: TripleTOF 6600 SCIEX
Instrument type: LC-ESI-QTOF
Ms type: MS2
Ion mode: POSITIVE
Collision energy: 140
Fragmentation mode: CID
Ionization: ESI
Column name: Zorbax Eclipse Plus C18 2.1 mm x 150 mm, 3.5 um, Agilent
Retention time: 15.123 min
Precursor m/z: 409.0645
Precursor type: [M+H]+
m/z	relative intensity
37.0109	45
38.0186	49
39.0269	193
40.0349	11
41.0417	56
49.0122	38
50.0189	342
51.027	830
52.0344	186
53.0067	15
53.0426	40
55.0217	22
60.0022	18
61.0108	47
62.0191	90
63.0263	337
64.0343	65
65.0055	31
65.0428	301
66.0499	83
67.0205	54
67.058	15
68.9999	13
73.0103	15
74.0192	135
75.0266	159
76.0345	222
77.0054	15
77.0423	999
78.0155	11
78.0497	38
79.0214	11
79.0584	42
80.0287	72
89.0421	866
90.0507	101
91.0575	245
93.0006	128
94.0447	45
95.0517	13
102.0482	9
105.0372	85
106.0465	13
107.0497	22
108.0237	22
115.0582	31
116.9376	15
121.0294	15
122.0361	11
123.0482	11
126.049	18
128.9362	24
135.0446	11
139.0572	31
150.0482	31
151.0576	20
152.0611	27
154.9513	285
155.9613	15
163.0564	15
182.9494	123
