Mass spectrum: 1-Hexadecanoyl-sn-glycero-3-phosphocholine; LC-ESI-QTOF; MS2; 90 V
Name: 1-Hexadecanoyl-sn-glycero-3-phosphocholine
Class: Natural_product
Formula: C24H50NO7P
Exact mass: 495.3325
SMILES: CCCCCCCCCCCCCCCC(=O)OCC(COP(=O)([O-])OCC[N+](C)(C)C)O
InChI: InChI=1S/C24H50NO7P/c1-5-6-7-8-9-10-11-12-13-14-15-16-17-18-24(27)30-21-23(26)22-32-33(28,29)31-20-19-25(2,3)4/h23,26H,5-22H2,1-4H3
Instrument: TripleTOF 6600 SCIEX
Instrument type: LC-ESI-QTOF
Ms type: MS2
Ion mode: POSITIVE
Collision energy: 90
Fragmentation mode: CID
Ionization: ESI
Column name: Zorbax Eclipse Plus C18 2.1 mm x 150 mm, 3.5 um, Agilent
Retention time: 14.942 min
Precursor m/z: 496.3398
Precursor type: [M+H]+
m/z	relative intensity
56.0501	138
60.081	277
71.0731	610
80.9745	111
86.0961	999
98.9841	555
104.1071	471
124.9994	610
