Mass spectrum: Dimethyldioctylammonium; LC-ESI-QTOF; MS2; 120 V
Name: Dimethyldioctylammonium
Class: Antimicrobial
Formula: C18H40N
Exact mass: 270.3155
SMILES: CCCCCCCC[N+](C)(C)CCCCCCCC
InChI: InChI=1S/C18H40N/c1-5-7-9-11-13-15-17-19(3,4)18-16-14-12-10-8-6-2/h5-18H2,1-4H3/q+1
Instrument: TripleTOF 6600 SCIEX
Instrument type: LC-ESI-QTOF
Ms type: MS2
Ion mode: POSITIVE
Collision energy: 120
Fragmentation mode: CID
Ionization: ESI
Column name: Zorbax Eclipse Plus C18 2.1 mm x 150 mm, 3.5 um, Agilent
Retention time: 11.669 min
Precursor m/z: 270.3155
Precursor type: [M]+
m/z	relative intensity
30.0343	74
35.9995	56
37.0077	280
38.0029	102
38.0152	214
39.0232	999
41.0388	448
42.0342	756
43.0417	205
43.0533	56
44.05	65
46.0652	121
53.0135	65
56.0497	121
58.0646	578
