Mass spectrum: Meperidine; LC-ESI-QTOF; MS2; 120 V
Name: Meperidine
Class: Pharmaceutical
Formula: C15H21NO2
Exact mass: 247.1572
SMILES: CCOC(=O)C1(CCN(CC1)C)C2=CC=CC=C2
InChI: InChI=1S/C15H21NO2/c1-3-18-14(17)15(9-11-16(2)12-10-15)13-7-5-4-6-8-13/h4-8H,3,9-12H2,1-2H3
Instrument: TripleTOF 6600 SCIEX
Instrument type: LC-ESI-QTOF
Ms type: MS2
Ion mode: POSITIVE
Collision energy: 120
Fragmentation mode: CID
Ionization: ESI
Column name: Zorbax Eclipse Plus C18 2.1 mm x 150 mm, 3.5 um, Agilent
Retention time: 6.573 min
Precursor m/z: 248.1645
Precursor type: [M+H]+
m/z	relative intensity
30.0331	17
35.9992	23
37.0067	126
38.0031	13
38.0147	109
39.0227	569
40.0179	15
41.0259	59
41.0381	79
42.0334	765
43.0171	10
43.0404	31
44.0489	444
49.0068	42
50.0146	359
51.0226	999
52.0308	19
53.0382	27
54.0334	18
56.0484	11
59.998	17
61.0065	81
62.0142	162
63.0221	326
65.0379	537
67.0412	26
68.0486	11
70.0658	10
73.0063	23
74.0136	128
75.0223	85
76.03	46
77.0376	648
78.0445	56
80.0483	79
81.0572	10
82.0639	26
86.0131	27
87.0239	26
89.0372	289
91.0535	208
101.0375	14
102.0458	109
103.0529	21
113.0372	15
114.0456	18
115.0535	525
126.0449	44
127.0538	81
128.0607	107
139.054	13
