Mass spectrum: Pregabalin; LC-ESI-QTOF; MS2; 30 V
Name: Pregabalin
Class: Pharmaceutical
Formula: C8H17NO2
Exact mass: 159.1259
SMILES: CC(C)C[C@H](CN)CC(O)=O
InChI: InChI=1S/C8H17NO2/c1-6(2)3-7(5-9)4-8(10)11/h6-7H,3-5,9H2,1-2H3,(H,10,11)/t7-/m0/s1
Instrument: TripleTOF 5600 SCIEX
Instrument type: LC-ESI-QTOF
Ms type: MS2
Ion mode: POSITIVE
Collision energy: 30
Fragmentation mode: CID
Ionization: ESI
Column name: Zorbax Eclipse Plus C18 2.1 mm x 150 mm, 3.5 um, Agilent
Retention time: 5.167 min
Precursor m/z: 160.1332
Precursor type: [M+H]+
m/z	relative intensity
43.0255	29
55.0228	293
55.044	11
55.0601	999
57.0743	115
59.0527	54
67.0563	15
68.0521	148
69.0366	60
69.0729	205
79.056	97
81.0711	70
82.0667	103
83.0506	56
83.0875	504
91.0544	76
97.1019	304
105.0686	31
107.0856	95
124.1117	303
125.0955	97
142.1227	148
