Mass spectrum: N,N-bis(ethoxycarbonyl)-4-methyl-1,3-phenylenediamine; LC-ESI-QTOF; MS2; 50 V
Name: N,N-bis(ethoxycarbonyl)-4-methyl-1,3-phenylenediamine
Class: Pharmaceutical
Formula: C13H18N2O4
Exact mass: 266.1267
SMILES: CCOC(=O)NC1=CC(=C(C=C1)C)NC(=O)OCC
InChI: InChI=1S/C13H18N2O4/c1-4-18-12(16)14-10-7-6-9(3)11(8-10)15-13(17)19-5-2/h6-8H,4-5H2,1-3H3,(H,14,16)(H,15,17)
Instrument: TripleTOF 5600 SCIEX
Instrument type: LC-ESI-QTOF
Ms type: MS2
Ion mode: POSITIVE
Collision energy: 50
Fragmentation mode: CID
Ionization: ESI
Column name: Zorbax Eclipse Plus C18 2.1 mm x 150 mm, 3.5 um, Agilent
Retention time: 10.056 min
Precursor m/z: 267.1339
Precursor type: [M+H]+
m/z	relative intensity
65.0453	16
67.062	11
77.0441	427
78.0382	59
79.0593	230
80.0543	24
89.0429	14
91.0583	18
92.0528	214
93.0608	21
94.0681	246
104.0514	350
105.0442	27
106.0664	557
107.0508	30
107.0746	26
115.0553	12
117.0607	14
119.061	79
120.0456	268
121.0772	466
122.0612	142
132.0453	605
133.0289	13
133.0786	10
134.0478	132
134.0916	21
147.0558	999
148.0404	11
149.0501	10
149.0719	46
149.1083	12
150.0551	148
159.0926	10
160.0501	43
165.0671	10
175.0507	174
185.071	10
193.0615	10
