Mass spectrum: Prosulfuron; LC-ESI-QTOF; MS2; 70 V
Name: Prosulfuron
Class: Herbicide
Formula: C15H16F3N5O4S
Exact mass: 419.0875
SMILES: CC1=NC(=NC(=N1)OC)NC(=O)NS(=O)(=O)C2=CC=CC=C2CCC(F)(F)F
InChI: InChI=1S/C15H16F3N5O4S/c1-9-19-12(22-14(20-9)27-2)21-13(24)23-28(25,26)11-6-4-3-5-10(11)7-8-15(16,17)18/h3-6H,7-8H2,1-2H3,(H2,19,20,21,22,23,24)
Instrument: TripleTOF 6600 SCIEX
Instrument type: LC-ESI-QTOF
Ms type: MS2
Ion mode: POSITIVE
Collision energy: 70
Fragmentation mode: CID
Ionization: ESI
Column name: Zorbax Eclipse Plus C18 2.1 mm x 150 mm, 3.5 um, Agilent
Retention time: 11.847 min
Precursor m/z: 420.0948
Precursor type: [M+H]+
m/z	relative intensity
42.0315	191
43.027	255
56.0472	210
57.0425	522
58.0263	196
67.0271	13
68.0216	78
69.0055	108
78.0434	12
83.0223	254
84.0524	24
85.0368	193
89.0356	11
100.0477	229
109.0423	999
133.0422	41
141.0749	565
167.0541	142
173.0051	60
