Mass spectrum: Methiocarb; LC-ESI-QTOF; MS2; 70 V
Name: Methiocarb
Class: Acaricide; Insecticide
Formula: C11H15NO2S
Exact mass: 225.0823
SMILES: Cc1cc(cc(c1SC)C)OC(=O)NC
InChI: InChI=1S/C11H15NO2S/c1-7-5-9(14-11(13)12-3)6-8(2)10(7)15-4/h5-6H,1-4H3,(H,12,13)
Instrument: TripleTOF 6600 SCIEX
Instrument type: LC-ESI-QTOF
Ms type: MS2
Ion mode: POSITIVE
Collision energy: 70
Fragmentation mode: CID
Ionization: ESI
Column name: Zorbax Eclipse Plus C18 2.1 mm x 150 mm, 3.5 um, Agilent
Retention time: 11.34614 min
Precursor m/z: 226.0896
Precursor type: [M+H]+
m/z	relative intensity
39.0207	49
41.0363	18
44.9778	21
50.0121	22
51.0207	223
53.0362	30
55.0151	12
58.0263	10
65.036	100
67.0512	12
77.036	999
78.0434	87
79.0514	148
91.0515	301
93.0666	21
103.0513	50
105.0419	22
107.0462	394
111.0232	22
121.0621	129
135.0238	16
