Mass spectrum: Syringic acid; LC-ESI-QTOF; MS2; 10 V
Name: Syringic acid
Class: Food_additive
Formula: C9H10O5
Exact mass: 198.0528
SMILES: COC1=CC(=CC(=C1O)OC)C(=O)O
InChI: InChI=1S/C9H10O5/c1-13-6-3-5(9(11)12)4-7(14-2)8(6)10/h3-4,10H,1-2H3,(H,11,12)
Instrument: TripleTOF 5600 SCIEX
Instrument type: LC-ESI-QTOF
Ms type: MS2
Ion mode: POSITIVE
Collision energy: 10
Fragmentation mode: CID
Ionization: ESI
Column name: Zorbax Eclipse Plus C18 2.1 mm x 150 mm, 3.5 um, Agilent
Retention time: 5.696 min
Precursor m/z: 199.0601
Precursor type: [M+H]+
m/z	relative intensity
95.0508	31
123.0453	83
140.0466	169
155.0706	575
158.0026	95
167.0368	25
181.0525	31
199.0594	999
