Mass spectrum: Clothianidin; LC-ESI-QTOF; MS2; 20 V
Name: Clothianidin
Class: Insecticide
Formula: C6H8ClN5O2S
Exact mass: 249.0087
SMILES: CN=C(NCc1sc(Cl)nc1)N[N+]([O-])=O
InChI: InChI=1S/C6H8ClN5O2S/c1-8-6(11-12(13)14)10-3-4-2-9-5(7)15-4/h2H,3H2,1H3,(H2,8,10,11)
Instrument: TripleTOF 5600 SCIEX
Instrument type: LC-ESI-QTOF
Ms type: MS2
Ion mode: POSITIVE
Collision energy: 20
Fragmentation mode: CID
Ionization: ESI
Column name: Zorbax Eclipse Plus C18 2.1 mm x 150 mm, 3.5 um, Agilent
Retention time: 6.736 min
Precursor m/z: 250.016
Precursor type: [M+H]+
m/z	relative intensity
110.0699	46
111.0784	11
113.016	90
131.9668	695
132.0032	11
146.9778	16
147.9836	18
168.046	248
169.0542	999
172.9797	20
174.9724	36
204.022	35
206.0124	31
250.0149	65
