Mass spectrum: Ranitidine-S-oxide; LC-ESI-QTOF; MS2; 70 V
Name: Ranitidine-S-oxide
Class: Pharmaceutical; Transformation_product
Formula: C13H22N4O4S
Exact mass: 330.1362
SMILES: CNC(=C[N+](=O)[O-])NCCS(=O)Cc1ccc(o1)CN(C)C
InChI: InChI=1S/C13H22N4O4S/c1-14-13(9-17(18)19)15-6-7-22(20)10-12-5-4-11(21-12)8-16(2)3/h4-5,9,14-15H,6-8,10H2,1-3H3
Instrument: TripleTOF 5600 SCIEX
Instrument type: LC-ESI-QTOF
Ms type: MS2
Ion mode: POSITIVE
Collision energy: 70
Fragmentation mode: CID
Ionization: ESI
Column name: Zorbax Eclipse Plus C18 2.1 mm x 150 mm, 3.5 um, Agilent
Retention time: 2.941 min
Precursor m/z: 331.1435
Precursor type: [M+H]+
m/z	relative intensity
44.0571	41
56.0549	52
58.0691	312
65.0407	114
66.0493	114
67.0572	104
68.0524	41
81.0394	52
81.0582	83
81.0702	62
82.0673	260
93.0699	62
94.0417	999
94.0653	426
95.0506	72
95.0731	249
97.0775	218
108.0811	166
108.1027	52
110.0955	468
138.0921	72
