Mass spectrum: Norfloxacin; LC-ESI-QTOF; MS2; 50 V
Name: Norfloxacin
Class: Antimicrobial; Pharmaceutical
Formula: C16H18FN3O3
Exact mass: 319.1332
SMILES: CCN1C=C(C(=O)C2=CC(=C(C=C21)N3CCNCC3)F)C(=O)O
InChI: InChI=1S/C16H18FN3O3/c1-2-19-9-11(16(22)23)15(21)10-7-12(17)14(8-13(10)19)20-5-3-18-4-6-20/h7-9,18H,2-6H2,1H3,(H,22,23)
Instrument: TripleTOF 5600 SCIEX
Instrument type: LC-ESI-QTOF
Ms type: MS2
Ion mode: POSITIVE
Collision energy: 50
Fragmentation mode: CID
Ionization: ESI
Column name: Zorbax Eclipse Plus C18 2.1 mm x 150 mm, 3.5 um, Agilent
Retention time: 5.167 min
Precursor m/z: 320.1405
Precursor type: [M+H]+
m/z	relative intensity
116.051	13
130.0671	13
135.0492	24
136.053	34
148.057	34
155.0585	27
156.0655	24
161.0595	41
162.0336	20
162.07	20
163.0652	30
164.0509	24
171.092	27
175.0678	48
176.0744	181
183.0885	27
184.0655	20
184.0965	20
185.0717	37
185.1099	17
187.0681	24
188.0397	13
188.0735	27
189.0486	24
189.0797	212
190.0617	30
191.0619	61
197.0946	37
198.1022	24
203.0601	205
203.0968	37
204.0706	82
204.1028	284
205.0759	185
205.1118	13
207.0834	13
210.1083	17
211.1075	44
212.0827	17
217.0413	27
217.077	51
218.0531	17
218.0803	48
219.0912	54
224.0454	24
226.058	34
226.0964	78
226.1332	37
227.0787	13
228.1078	20
231.0544	999
231.1004	17
233.106	130
245.0716	54
246.1404	24
252.072	24
253.081	17
254.0883	240
254.1317	34
256.1466	13
259.0701	13
259.0883	20
274.0975	96
282.121	302
302.1253	641
