Mass spectrum: Tyrosine; LC-ESI-QTOF; MS2; 70 V
Name: Tyrosine
Class: Pharmaceutical; Natural_product
Formula: C9H11NO3
Exact mass: 181.0739
SMILES: NC(Cc1ccc(O)cc1)C(O)=O
InChI: InChI=1S/C9H11NO3/c10-8(9(12)13)5-6-1-3-7(11)4-2-6/h1-4,8,11H,5,10H2,(H,12,13)
Instrument: TripleTOF 5600 SCIEX
Instrument type: LC-ESI-QTOF
Ms type: MS2
Ion mode: POSITIVE
Collision energy: 70
Fragmentation mode: CID
Ionization: ESI
Column name: Zorbax Eclipse Plus C18 2.1 mm x 150 mm, 3.5 um, Agilent
Retention time: 2.614 min
Precursor m/z: 182.0812
Precursor type: [M+H]+
m/z	relative intensity
65.0418	525
77.0412	999
91.0554	578
