Mass spectrum: Olmesartan-d6; LC-ESI-QTOF; MS2; 110 V
Name: Olmesartan-d6
Class: Surrogate_standard
Formula: C24H20N6O3 2H6
Exact mass: 452.2443
SMILES: [2H]C([2H])([2H])C(C1=C(N(C(=N1)CCC)CC2=CC=C(C=C2)C3=CC=CC=C3C4=NNN=N4)C(=O)O)(C([2H])([2H])[2H])O
InChI: InChI=1S/C24H26N6O3/c1-4-7-19-25-21(24(2,3)33)20(23(31)32)30(19)14-15-10-12-16(13-11-15)17-8-5-6-9-18(17)22-26-28-29-27-22/h5-6,8-13,33H,4,7,14H2,1-3H3,(H,31,32)(H,26,27,28,29)/i2D3,3D3
Instrument: TripleTOF 5600 SCIEX
Instrument type: LC-ESI-QTOF
Ms type: MS2
Ion mode: POSITIVE
Collision energy: 110
Fragmentation mode: CID
Ionization: ESI
Column name: Zorbax Eclipse Plus C18 2.1 mm x 150 mm, 3.5 um, Agilent
Retention time: 7.306 min
Precursor m/z: 453.2527
Precursor type: [M+H]+
m/z	relative intensity
77.0414	51
80.0534	12
87.0247	13
89.0413	26
98.0179	11
99.0254	11
101.041	17
102.0415	26
113.04	60
114.0451	38
115.0552	83
116.0535	15
125.0393	30
126.0484	33
127.0552	144
128.0619	100
137.0405	37
138.0476	83
139.0556	112
140.0506	205
141.0578	34
149.042	11
150.0478	160
151.0552	565
152.0623	999
153.0689	233
154.0681	43
161.0399	17
162.0483	48
163.0551	495
164.0542	364
165.0679	248
166.0656	58
167.0728	25
168.0676	22
175.0512	20
176.062	334
177.0657	360
178.0722	518
179.0736	176
180.0806	94
188.0501	123
189.0568	137
190.0653	914
191.0701	184
192.0682	113
193.075	10
203.0597	15
204.0631	10
205.0763	479
206.0838	96
