Mass spectrum: Fluazifop; LC-ESI-QTOF; MS2; 50 V
Name: Fluazifop
Class: Herbicide; Transformation_product
Formula: C15H12F3NO4
Exact mass: 327.0718
SMILES: CC(C(=O)O)Oc1ccc(cc1)Oc2ccc(cn2)C(F)(F)F
InChI: InChI=1S/C15H12F3NO4/c1-9(14(20)21)22-11-3-5-12(6-4-11)23-13-7-2-10(8-19-13)15(16,17)18/h2-9H,1H3,(H,20,21)
Instrument: TripleTOF 6600 SCIEX
Instrument type: LC-ESI-QTOF
Ms type: MS2
Ion mode: NEGATIVE
Collision energy: 50
Fragmentation mode: CID
Ionization: ESI
Column name: Zorbax Eclipse Plus C18 2.1 mm x 150 mm, 3.5 um, Agilent
Retention time: 11.668 min
Precursor m/z: 326.0646
Precursor type: [M-H]-
m/z	relative intensity
41.0025	12
67.0183	15
68.9947	19
71.0119	51
79.0173	21
108.0205	999
126.0154	12
138.0338	44
142.0108	25
143.0291	17
144.0254	17
146.0203	19
150.034	98
152.0308	27
156.0437	9
158.0399	128
159.0259	11
160.0366	49
162.0164	288
163.0365	52
164.0307	76
166.0287	72
170.022	12
170.0396	78
172.0195	11
172.0371	24
178.0465	313
180.0261	15
184.037	108
186.0167	62
186.0349	136
187.0184	11
189.0381	28
190.0456	75
192.0247	48
194.0234	34
196.0372	49
197.0439	25
198.0528	249
199.0236	167
200.0316	34
206.0413	862
207.025	15
208.0367	18
210.0526	101
212.0314	175
214.0305	38
225.0388	48
226.0472	621
227.0318	11
234.0353	106
252.0266	17
253.0343	385
254.0422	315
