Mass spectrum: Dexamethasone; LC-ESI-QTOF; MS2; 120 V
Name: Dexamethasone
Class: Pharmaceutical
Formula: C22H29FO5
Exact mass: 392.1999
SMILES: C[C@@H]1C[C@H]2[C@@H]3CCC4=CC(=O)C=C[C@@]4([C@]3([C@H](C[C@@]2([C@]1(C(=O)CO)O)C)O)F)C
InChI: InChI=1S/C22H29FO5/c1-12-8-16-15-5-4-13-9-14(25)6-7-19(13,2)21(15,23)17(26)10-20(16,3)22(12,28)18(27)11-24/h6-7,9,12,15-17,24,26,28H,4-5,8,10-11H2,1-3H3/t12-,15+,16+,17+,19+,20+,21+,22+/m1/s1
Instrument: TripleTOF 5600 SCIEX
Instrument type: LC-ESI-QTOF
Ms type: MS2
Ion mode: POSITIVE
Collision energy: 120
Fragmentation mode: CID
Ionization: ESI
Column name: Zorbax Eclipse Plus C18 2.1 mm x 150 mm, 3.5 um, Agilent
Retention time: 9.089 min
Precursor m/z: 393.2072
Precursor type: [M+H]+
m/z	relative intensity
43.0301	72
51.0324	107
65.0457	237
67.0609	44
74.0177	18
75.0274	25
77.0445	980
78.0506	123
79.0602	148
81.0751	28
89.0433	63
91.0586	885
93.0739	41
101.0424	22
102.0494	110
103.0577	202
104.0652	34
105.073	94
107.0533	63
107.0906	15
109.0476	18
115.0568	999
116.0636	98
117.0735	63
119.0866	28
121.0676	189
126.0471	56
127.0574	243
128.064	670
129.0703	145
130.0815	22
131.0513	224
132.059	63
133.0464	25
139.0576	135
140.0643	28
141.071	249
142.0794	25
143.0906	12
144.0575	44
145.0647	41
146.0527	22
150.0468	34
151.0551	189
152.0631	559
153.0719	164
154.0754	22
155.052	31
155.0913	18
157.066	53
158.074	25
163.0553	85
164.0614	113
165.0705	654
166.0807	41
167.0817	12
168.0609	31
169.0655	15
176.063	154
177.0712	167
178.0783	505
179.0855	82
181.0648	101
187.0534	44
188.0623	53
189.0702	644
190.0779	82
191.0845	91
194.0702	44
200.0635	37
201.0699	66
202.0791	515
203.0854	110
204.0955	22
205.0668	66
207.0779	47
213.072	110
214.0757	18
214.0923	12
215.0863	186
216.0934	28
218.0738	47
219.0808	34
225.0703	22
226.0785	158
227.0832	50
228.0951	94
229.1058	31
231.0846	60
232.0813	25
239.0863	50
240.0902	12
