Mass spectrum: Trifloxystrobin; LC-ESI-QTOF; MS2; 50 V
Name: Trifloxystrobin
Class: Fungicide
Formula: C20H19F3N2O4
Exact mass: 408.1297
SMILES: CC(=NOCC1=CC=CC=C1C(=NOC)C(=O)OC)C2=CC(=CC=C2)C(F)(F)F
InChI: InChI=1S/C20H19F3N2O4/c1-13(14-8-6-9-16(11-14)20(21,22)23)24-29-12-15-7-4-5-10-17(15)18(25-28-3)19(26)27-2/h4-11H,12H2,1-3H3
Instrument: TripleTOF 5600 SCIEX
Instrument type: LC-ESI-QTOF
Ms type: MS2
Ion mode: POSITIVE
Collision energy: 50
Fragmentation mode: CID
Ionization: ESI
Column name: Zorbax Eclipse Plus C18 2.1 mm x 150 mm, 3.5 um, Agilent
Retention time: 15.037 min
Precursor m/z: 409.137
Precursor type: [M+H]+
m/z	relative intensity
77.0443	11
89.0428	68
90.0502	20
91.058	84
95.0321	27
103.056	16
105.0717	41
115.0512	17
116.0509	593
117.0589	128
118.0663	126
119.051	27
125.021	15
130.0665	111
131.0739	493
132.0813	187
143.0379	45
145.0266	885
146.0618	143
147.0688	29
148.0763	11
173.0328	197
186.0524	999
206.0818	40
