Mass spectrum: Doxycycline; LC-ESI-QTOF; MS2; 60 V
Name: Doxycycline
Class: Antimicrobial; Pharmaceutical
Formula: C22H24N2O8
Exact mass: 444.1533
SMILES: CC1C2C(C3C(C(=O)C(=C(C3(C(=O)C2=C(C4=C1C=CC=C4O)O)O)O)C(=O)N)N(C)C)O
InChI: InChI=1S/C22H24N2O8/c1-7-8-5-4-6-9(25)11(8)16(26)12-10(7)17(27)14-15(24(2)3)18(28)13(21(23)31)20(30)22(14,32)19(12)29/h4-7,10,14-15,17,25-27,30,32H,1-3H3,(H2,23,31)
Instrument: TripleTOF 5600 SCIEX
Instrument type: LC-ESI-QTOF
Ms type: MS2
Ion mode: POSITIVE
Collision energy: 60
Fragmentation mode: CID
Ionization: ESI
Column name: Zorbax Eclipse Plus C18 2.1 mm x 150 mm, 3.5 um, Agilent
Retention time: 6.499 min
Precursor m/z: 445.1605
Precursor type: [M+H]+
m/z	relative intensity
58.074	83
69.0052	41
70.0718	41
72.0528	33
84.0479	41
98.064	566
100.0804	58
117.0743	66
121.0288	41
126.0558	99
127.0553	116
131.0519	41
137.0235	58
145.0654	183
147.0836	99
152.069	66
154.049	158
155.0489	41
157.065	58
159.0764	74
163.0367	41
165.071	83
167.0881	74
168.0558	58
169.0666	33
171.0792	49
173.0614	166
174.0716	83
175.0767	208
178.0756	33
179.0865	49
180.0669	41
181.0633	41
183.0757	66
185.0595	49
185.0947	74
187.0756	233
193.0642	41
194.0749	33
195.0796	274
196.0482	83
197.0585	49
197.0987	74
198.0697	66
199.0774	99
201.0559	882
205.0629	66
207.0812	66
210.0687	74
211.0741	316
213.0502	41
213.0913	224
219.0265	41
219.0767	83
221.0605	83
222.0669	49
223.0749	208
224.0468	174
224.083	41
225.0908	224
226.0618	258
227.0678	166
229.0476	49
235.0749	133
237.0562	58
237.0747	33
237.0933	91
238.0643	133
239.0721	366
240.0817	49
241.0844	382
242.0593	91
247.0749	141
249.0519	49
250.0593	174
251.0661	166
252.041	965
253.0503	66
253.0824	208
254.0479	33
255.0646	33
257.0802	41
259.0787	58
262.06	74
263.0726	116
265.0837	149
266.0621	58
267.0642	999
269.0776	191
275.0774	91
277.0844	58
278.0549	249
279.0679	99
281.095	58
283.0468	33
285.0739	141
291.057	58
291.0733	58
293.0811	324
296.1335	41
303.0703	108
306.0536	266
319.059	66
321.0756	266
334.039	124
334.0564	108
339.0837	58
349.0712	41
367.0826	66
