Mass spectrum: Amoxicillin; LC-ESI-QTOF; MS2; 50 V
Name: Amoxicillin
Class: Pharmaceutical
Formula: C16H19N3O5S
Exact mass: 365.1045
SMILES: CC1(S[C@@H]2[C@@H](C(N2[C@H]1C(O)=O)=O)NC([C@@H](c3ccc(O)cc3)N)=O)C
InChI: InChI=1S/C16H19N3O5S/c1-16(2)11(15(23)24)19-13(22)10(14(19)25-16)18-12(21)9(17)7-3-5-8(20)6-4-7/h3-6,9-11,14,20H,17H2,1-2H3,(H,18,21)(H,23,24)/t9-,10-,11+,14-/m1/s1
Instrument: TripleTOF 5600 SCIEX
Instrument type: LC-ESI-QTOF
Ms type: MS2
Ion mode: POSITIVE
Collision energy: 50
Fragmentation mode: CID
Ionization: ESI
Column name: Zorbax Eclipse Plus C18 2.1 mm x 150 mm, 3.5 um, Agilent
Retention time: 4.706 min
Precursor m/z: 366.1118
Precursor type: [M+H]+
m/z	relative intensity
70.0691	76
86.0078	262
96.0467	42
106.0634	50
107.0485	143
114.0003	999
114.0366	177
116.0485	110
119.0514	42
122.0593	110
133.0302	50
134.0612	626
137.0051	101
137.0718	126
160.0414	84
162.0563	76
163.0251	67
165.0663	67
178.0303	67
180.0478	50
