Mass spectrum: 4-Acetamidophenyl D-glucopyranosiduronic acid; LC-ESI-QTOF; MS2; 130 V
Name: 4-Acetamidophenyl D-glucopyranosiduronic acid
Class: Metabolite; Pharmaceutical
Formula: C14H17NO8
Exact mass: 327.0954
SMILES: O=C(Nc2ccc(OC1O[C@H](C(=O)O)[C@@H](O)[C@H](O)[C@H]1O)cc2)C
InChI: InChI=1S/C14H17NO8/c1-6(16)15-7-2-4-8(5-3-7)22-14-11(19)9(17)10(18)12(23-14)13(20)21/h2-5,9-12,14,17-19H,1H3,(H,15,16)(H,20,21)/t9-,10-,11+,12-,14?/m0/s1
Instrument: TripleTOF 5600 SCIEX
Instrument type: LC-ESI-QTOF
Ms type: MS2
Ion mode: NEGATIVE
Collision energy: 130
Fragmentation mode: CID
Ionization: ESI
Column name: Zorbax Eclipse Plus C18 2.1 mm x 150 mm, 3.5 um, Agilent
Retention time: 4.58 min
Precursor m/z: 326.0881
Precursor type: [M-H]-
m/z	relative intensity
41.0228	142
41.0311	142
44.9997	142
59.0166	285
71.0155	142
73.0001	142
78.0384	142
87.0109	142
90.0366	142
92.0291	142
92.0427	142
107.04	999
108.0445	142
118.0322	999
