Mass spectrum: Omeprazole 4-desmethylthioether; LC-ESI-QTOF; MS2; 60 V
Name: Omeprazole 4-desmethylthioether
Class: Metabolite; Pharmaceutical
Formula: C16H17N3O2S
Exact mass: 315.1041
SMILES: Cc1cnc(c(c1O)C)CSc2[nH]c3ccc(cc3n2)OC
InChI: InChI=1S/C16H17N3O2S/c1-9-7-17-14(10(2)15(9)20)8-22-16-18-12-5-4-11(21-3)6-13(12)19-16/h4-7H,8H2,1-3H3,(H,17,20)(H,18,19)
Instrument: TripleTOF 5600 SCIEX
Instrument type: LC-ESI-QTOF
Ms type: MS2
Ion mode: NEGATIVE
Collision energy: 60
Fragmentation mode: CID
Ionization: ESI
Column name: Zorbax Eclipse Plus C18 2.1 mm x 150 mm, 3.5 um, Agilent
Retention time: 6.17 min
Precursor m/z: 314.0969
Precursor type: [M-H]-
m/z	relative intensity
57.9775	101
119.0253	60
162.9971	273
164.005	999
