Mass spectrum: Anagrelide; LC-ESI-QTOF; MS2; 120 V
Name: Anagrelide
Class: Pharmaceutical
Formula: C10H7Cl2N3O
Exact mass: 254.9966
SMILES: c1cc(c(c2c1NC3=NC(=O)CN3C2)Cl)Cl
InChI: InChI=1S/C10H7Cl2N3O/c11-6-1-2-7-5(9(6)12)3-15-4-8(16)14-10(15)13-7/h1-2H,3-4H2,(H,13,14,16)
Instrument: TripleTOF 5600 SCIEX
Instrument type: LC-ESI-QTOF
Ms type: MS2
Ion mode: POSITIVE
Collision energy: 120
Fragmentation mode: CID
Ionization: ESI
Column name: Zorbax Eclipse Plus C18 2.1 mm x 150 mm, 3.5 um, Agilent
Retention time: 7.666 min
Precursor m/z: 256.0039
Precursor type: [M+H]+
m/z	relative intensity
51.0282	89
61.9836	89
72.0044	26
72.9862	47
73.0114	257
74.0183	999
74.0601	21
75.0248	441
76.0215	247
76.0522	42
84.9884	42
89.0412	36
99.0109	778
100.0171	410
102.0333	94
102.0479	21
108.9826	68
109.9892	21
122.9994	31
