Mass spectrum: Acridine-9-carboxylic acid; LC-ESI-QTOF; MS2; 140 V
Name: Acridine-9-carboxylic acid
Class: Pharmaceutical; Metabolite; Transformation_product; Transformation_product-Metabolite
Formula: C14H9NO2
Exact mass: 223.0633
SMILES: OC(=O)c1c2ccccc2nc3ccccc13
InChI: InChI=1S/C14H9NO2/c16-14(17)13-9-5-1-3-7-11(9)15-12-8-4-2-6-10(12)13/h1-8H,(H,16,17)
Instrument: TripleTOF 5600 SCIEX
Instrument type: LC-ESI-QTOF
Ms type: MS2
Ion mode: POSITIVE
Collision energy: 140
Fragmentation mode: CID
Ionization: ESI
Column name: Zorbax Eclipse Plus C18 2.1 mm x 150 mm, 3.5 um, Agilent
Retention time: 4.656 min
Precursor m/z: 224.0706
Precursor type: [M+H]+
m/z	relative intensity
60.0028	47
73.0102	169
74.0185	999
75.0124	37
75.0268	216
76.0319	65
77.04	56
84.003	37
85.0093	235
86.0164	358
87.0259	150
89.0397	113
97.0078	122
98.0158	593
99.0109	56
99.0235	75
100.0257	65
109.0065	131
110.0168	113
113.0388	56
122.0143	65
150.0475	75
