Mass spectrum: Foramsulfuron; LC-ESI-QTOF; MS2; 90 V
Name: Foramsulfuron
Class: Herbicide
Formula: C17H20N6O7S
Exact mass: 452.1114
SMILES: CN(C)C(=O)C1=C(C=C(C=C1)NC=O)S(=O)(=O)NC(=O)NC2=NC(=CC(=N2)OC)OC
InChI: InChI=1S/C17H20N6O7S/c1-23(2)15(25)11-6-5-10(18-9-24)7-12(11)31(27,28)22-17(26)21-16-19-13(29-3)8-14(20-16)30-4/h5-9H,1-4H3,(H,18,24)(H2,19,20,21,22,26)
Instrument: TripleTOF 6600 SCIEX
Instrument type: LC-ESI-QTOF
Ms type: MS2
Ion mode: POSITIVE
Collision energy: 90
Fragmentation mode: CID
Ionization: ESI
Column name: Zorbax Eclipse Plus C18 2.1 mm x 150 mm, 3.5 um, Agilent
Retention time: 8.823 min
Precursor m/z: 453.1187
Precursor type: [M+H]+
m/z	relative intensity
44.0594	18
45.0435	13
54.0448	12
55.0392	10
56.0229	35
57.0543	20
63.0331	24
65.0244	27
65.0486	158
68.0233	29
69.0067	57
69.0186	22
71.0701	62
77.0483	24
78.0434	25
79.0631	15
80.0592	66
81.0542	38
82.0383	70
83.0337	999
90.0435	49
91.0638	15
92.0586	141
93.0179	240
93.0413	14
94.026	16
94.0744	31
100.0484	47
105.0531	169
106.0365	17
106.0739	24
107.0683	27
109.0487	55
117.0526	39
120.0519	66
120.076	15
121.037	55
124.0576	12
135.0634	15
136.0469	17
138.0369	28
139.057	420
140.0508	28
161.0412	12
166.0297	17
182.06	46
