Mass spectrum: Diazepam; LC-ESI-QTOF; MS2; 130 V
Name: Diazepam
Class: Pharmaceutical
Formula: C16H13ClN2O
Exact mass: 284.0716
SMILES: CN1C(=O)CN=C(C2=C1C=CC(=C2)Cl)C3=CC=CC=C3
InChI: InChI=1S/C16H13ClN2O/c1-19-14-8-7-12(17)9-13(14)16(18-10-15(19)20)11-5-3-2-4-6-11/h2-9H,10H2,1H3
Instrument: TripleTOF 6600 SCIEX
Instrument type: LC-ESI-QTOF
Ms type: MS2
Ion mode: POSITIVE
Collision energy: 130
Fragmentation mode: CID
Ionization: ESI
Column name: Zorbax Eclipse Plus C18 2.1 mm x 150 mm, 3.5 um, Agilent
Retention time: 11.181 min
Precursor m/z: 285.0789
Precursor type: [M+H]+
m/z	relative intensity
35.9996	21
37.0068	105
38.0149	95
39.0225	346
46.9671	24
48.9829	34
49.0063	35
50.0147	312
51.0226	505
52.0182	13
52.0303	14
59.9984	69
60.9818	11
61.0067	230
61.9776	19
62.0144	415
63.0224	836
64.0179	23
64.0296	39
65.0377	207
72.9834	204
73.0064	177
74.0144	795
75.0219	515
76.0174	47
76.03	137
77.0376	298
78.033	14
78.0452	31
83.9755	14
83.9981	16
84.9825	43
85.0064	46
86.0137	127
87.0221	159
88.0181	34
88.0306	58
89.0376	999
90.0449	61
91.0529	98
96.9838	18
97.0065	22
98.0142	215
99.0101	541
100.0176	368
101.0367	48
102.0452	97
103.043	10
104.0477	11
108.9822	16
109.0074	33
110.0141	73
110.9991	24
111.0216	57
112.0157	13
113.0377	154
114.0335	25
114.0437	22
115.0523	177
116.0477	35
117.0561	29
122.0146	52
123.0216	62
124.0314	38
125.0378	118
126.0454	195
127.0409	40
127.0528	31
128.0488	28
128.0607	10
137.0373	82
138.0453	39
139.0538	202
140.0489	57
149.0377	112
150.0455	686
151.0535	408
152.0603	180
153.0565	29
161.0378	102
162.0447	199
163.0536	657
164.0612	152
165.0676	82
174.0449	43
175.0418	90
176.0494	121
177.0564	236
178.0646	84
188.0476	59
189.0535	19
190.0651	43
201.0594	13
202.053	10
203.0663	26
204.0547	16
