Mass spectrum: Clomazone; LC-ESI-QTOF; MS2; 80 V
Name: Clomazone
Class: Herbicide
Formula: C12H14ClNO2
Exact mass: 239.0713
SMILES: CC1(CON(C1=O)CC2=CC=CC=C2Cl)C
InChI: InChI=1S/C12H14ClNO2/c1-12(2)8-16-14(11(12)15)7-9-5-3-4-6-10(9)13/h3-6H,7-8H2,1-2H3
Instrument: TripleTOF 6600 SCIEX
Instrument type: LC-ESI-QTOF
Ms type: MS2
Ion mode: POSITIVE
Collision energy: 80
Fragmentation mode: CID
Ionization: ESI
Column name: Zorbax Eclipse Plus C18 2.1 mm x 150 mm, 3.5 um, Agilent
Retention time: 11.289 min
Precursor m/z: 240.0786
Precursor type: [M+H]+
m/z	relative intensity
37.0055	17
38.0135	19
39.0213	93
48.9818	31
59.9972	13
61.005	50
62.0131	110
63.0206	384
64.0287	29
65.0361	55
72.9816	336
74.9974	28
89.0362	999
90.044	262
96.9814	22
98.997	417
125.0117	147
