Mass spectrum: Procarbazine; LC-ESI-QTOF; MS2; 40 V
Name: Procarbazine
Class: Pharmaceutical
Formula: C12H19N3O
Exact mass: 221.1528
SMILES: CC(C)NC(=O)c1ccc(cc1)CNNC
InChI: InChI=1S/C12H19N3O/c1-9(2)15-12(16)11-6-4-10(5-7-11)8-14-13-3/h4-7,9,13-14H,8H2,1-3H3,(H,15,16)
Instrument: TripleTOF 5600 SCIEX
Instrument type: LC-ESI-QTOF
Ms type: MS2
Ion mode: POSITIVE
Collision energy: 40
Fragmentation mode: CID
Ionization: ESI
Column name: Zorbax Eclipse Plus C18 2.1 mm x 150 mm, 3.5 um, Agilent
Retention time: 4.911 min
Precursor m/z: 222.1601
Precursor type: [M+H]+
m/z	relative intensity
58.0686	21
65.0433	47
75.0255	68
77.0406	353
78.0472	47
79.0561	292
89.0391	73
90.0472	581
91.0553	680
92.0624	163
93.0708	55
103.0174	189
103.0309	30
104.0497	159
105.0575	318
105.0752	25
106.0654	999
107.049	21
109.1002	17
117.058	25
117.071	30
118.0411	848
119.0496	55
119.0831	25
120.0847	25
122.0664	38
131.0595	34
131.0829	30
132.0446	245
133.0517	17
134.0582	73
135.067	292
148.1122	77
149.0707	839
158.0954	30
159.0802	17
161.1122	21
176.1049	21
177.1162	77
189.1029	25
191.1174	116
