Mass spectrum: 11alpha-Hydroxyprogesterone; LC-ESI-QTOF; MS2; 140 V
Name: 11alpha-Hydroxyprogesterone
Class: Pharmaceutical; Metabolite
Formula: C21H30O3
Exact mass: 330.2195
SMILES: CC(=O)C1CC[C@H]2[C@@H]3CCC4=CC(=O)CC[C@]4(C)[C@H]3[C@H](O)C[C@]12C
InChI: InChI=1S/C21H30O3/c1-12(22)16-6-7-17-15-5-4-13-10-14(23)8-9-20(13,2)19(15)18(24)11-21(16,17)3/h10,15-19,24H,4-9,11H2,1-3H3/t15-,16?,17-,18+,19+,20-,21+/m0/s1
Instrument: TripleTOF 5600 SCIEX
Instrument type: LC-ESI-QTOF
Ms type: MS2
Ion mode: POSITIVE
Collision energy: 140
Fragmentation mode: CID
Ionization: ESI
Column name: Zorbax Eclipse Plus C18 2.1 mm x 150 mm, 3.5 um, Agilent
Retention time: 10.293 min
Precursor m/z: 331.2268
Precursor type: [M+H]+
m/z	relative intensity
43.027	485
43.0532	28
55.0588	45
65.0423	433
67.0599	57
74.0189	28
75.0256	28
77.042	999
77.065	57
78.0489	102
79.0574	159
89.0402	125
91.056	496
94.0406	28
102.0459	114
103.054	74
105.0667	28
107.051	39
115.0547	530
116.0615	28
117.0692	34
126.052	45
127.0543	194
128.0612	359
139.0533	39
141.0703	62
150.0493	22
151.0542	62
152.0624	119
153.0674	28
163.0519	39
164.0659	28
165.0678	79
176.0627	39
178.0783	28
189.0692	28
