Mass spectrum: Iotalamic acid; LC-ESI-QTOF; MS2; 70 V
Name: Iotalamic acid
Class: Pharmaceutical
Formula: C11H9I3N2O4
Exact mass: 613.7697
SMILES: CNC(c1c(I)c(C(O)=O)c(I)c(NC(C)=O)c1I)=O
InChI: InChI=1S/C11H9I3N2O4/c1-3(17)16-9-7(13)4(10(18)15-2)6(12)5(8(9)14)11(19)20/h1-2H3,(H,15,18)(H,16,17)(H,19,20)
Instrument: TripleTOF 5600 SCIEX
Instrument type: LC-ESI-QTOF
Ms type: MS2
Ion mode: POSITIVE
Collision energy: 70
Fragmentation mode: CID
Ionization: ESI
Column name: Zorbax Eclipse Plus C18 2.1 mm x 150 mm, 3.5 um, Agilent
Retention time: 4.565 min
Precursor m/z: 614.7769
Precursor type: [M+H]+
m/z	relative intensity
118.0541	22
119.0368	28
130.0271	28
131.038	28
132.0442	34
133.0525	68
135.0327	28
146.0234	34
146.0474	80
148.0631	28
158.0241	177
159.0532	45
174.0171	51
174.0327	22
176.0317	40
177.0419	999
187.0493	51
191.0525	28
203.9317	45
205.945	34
231.9266	40
232.9339	34
245.9376	51
256.9376	34
257.9398	132
259.9198	34
261.9338	51
272.9311	57
272.9521	63
273.9369	189
283.918	34
284.9288	126
285.9437	22
289.9303	63
300.947	109
301.9308	453
302.9407	91
318.9618	51
329.9301	57
355.8472	51
359.8384	63
360.966	63
381.8149	28
383.848	63
387.8321	51
399.8401	34
411.8332	34
415.8248	126
455.8285	91
468.8589	51
