Mass spectrum: N-ethyl-4-menthane-3-carboxamide; LC-ESI-QTOF; MS2; 70 V
Name: N-ethyl-4-menthane-3-carboxamide
Class: Food_additive; Personal_care_product
Formula: C13H25NO
Exact mass: 211.1936
SMILES: CCNC(=O)C1CC(CCC1C(C)C)C
InChI: InChI=1S/C13H25NO/c1-5-14-13(15)12-8-10(4)6-7-11(12)9(2)3/h9-12H,5-8H2,1-4H3,(H,14,15)
Instrument: TripleTOF 6600 SCIEX
Instrument type: LC-ESI-QTOF
Ms type: MS2
Ion mode: POSITIVE
Collision energy: 70
Fragmentation mode: CID
Ionization: ESI
Column name: Zorbax Eclipse Plus C18 2.1 mm x 150 mm, 3.5 um, Agilent
Retention time: 11.775 min
Precursor m/z: 212.2009
Precursor type: [M+H]+
m/z	relative intensity
35.9999	16
37.007	58
38.0022	33
38.0148	55
39.0228	410
41.0386	411
42.0333	27
43.018	30
43.0539	54
44.0131	999
44.0497	12
46.0286	67
46.0654	19
51.0227	36
52.0051	14
53.0127	11
53.0381	161
54.0338	46
55.0176	282
55.0541	454
56.0493	20
57.0703	14
58.0645	14
65.0378	74
66.0471	12
67.0418	14
67.0537	91
69.0331	23
69.0695	23
70.0653	16
72.044	29
77.038	122
79.0538	104
80.0487	28
81.0324	34
81.0695	51
82.0643	29
83.0482	19
91.0541	80
94.0651	20
98.0592	23
100.0744	11
105.0696	11
108.0793	10
