Mass spectrum: Flumioxazin; LC-ESI-QTOF; MS2; 70 V
Name: Flumioxazin
Class: Herbicide; Fungicide
Formula: C19H15FN2O4
Exact mass: 354.1016
SMILES: C#CCN1c2cc(c(cc2OCC1=O)F)N3C(=O)C4=C(C3=O)CCCC4
InChI: InChI=1S/C19H15FN2O4/c1-2-7-21-15-9-14(13(20)8-16(15)26-10-17(21)23)22-18(24)11-5-3-4-6-12(11)19(22)25/h1,8-9H,3-7,10H2
Instrument: TripleTOF 6600 SCIEX
Instrument type: LC-ESI-QTOF
Ms type: MS2
Ion mode: POSITIVE
Collision energy: 70
Fragmentation mode: CID
Ionization: ESI
Column name: Zorbax Eclipse Plus C18 2.1 mm x 150 mm, 3.5 um, Agilent
Retention time: 11.704 min
Precursor m/z: 355.1089
Precursor type: [M+H]+
m/z	relative intensity
43.0179	83
51.0223	166
52.0295	83
53.038	249
75.0213	166
77.0376	999
78.0323	166
78.0384	166
79.0532	749
80.0617	166
83.0319	166
95.0299	83
101.0381	499
107.0281	249
107.0502	333
108.024	83
116.0466	83
121.043	249
122.0396	166
124.0175	83
128.0471	249
129.0438	249
133.0461	166
134.0368	166
134.0582	166
135.0463	166
138.0364	166
139.0529	83
141.0539	166
146.0382	83
146.0611	83
147.0469	83
148.0544	832
149.0384	83
149.0653	249
150.0315	249
151.0294	166
152.0145	83
152.0496	83
153.067	249
154.0384	166
154.0636	416
163.0306	166
163.0696	83
164.0496	83
167.0689	83
168.0436	83
168.0715	249
171.0405	83
171.0625	83
173.0479	166
175.0401	83
176.0503	166
177.0426	249
179.0249	249
183.0536	333
185.0605	83
186.0642	249
187.0456	83
189.0447	83
191.0263	166
191.0596	166
195.0488	249
196.0729	83
198.0712	83
201.051	249
204.042	83
205.0406	83
207.0935	83
210.0537	249
211.0608	166
212.0815	333
215.0585	83
215.0749	83
216.0454	83
223.0615	166
226.0563	249
230.0578	83
231.0564	166
239.0721	166
240.074	166
243.0663	166
259.0505	333
287.0788	166
