Mass spectrum: Atenolol; LC-ESI-QTOF; MS2; 50 V
Name: Atenolol
Class: Pharmaceutical
Formula: C14H22N2O3
Exact mass: 266.163
SMILES: CC(C)NCC(O)COc1ccc(CC(N)=O)cc1
InChI: InChI=1S/C14H22N2O3/c1-10(2)16-8-12(17)9-19-13-5-3-11(4-6-13)7-14(15)18/h3-6,10,12,16-17H,7-9H2,1-2H3,(H2,15,18)
Instrument: TripleTOF 5600 SCIEX
Instrument type: LC-ESI-QTOF
Ms type: MS2
Ion mode: POSITIVE
Collision energy: 50
Fragmentation mode: CID
Ionization: ESI
Column name: Zorbax Eclipse Plus C18 2.1 mm x 150 mm, 3.5 um, Agilent
Retention time: 4.619 min
Precursor m/z: 267.1703
Precursor type: [M+H]+
m/z	relative intensity
56.0553	331
58.0701	29
65.0433	29
72.0841	73
74.0634	229
77.0414	194
77.0574	29
79.0563	102
84.0862	19
89.0396	243
91.0561	438
91.0833	19
93.0717	107
98.0948	24
103.0541	38
105.0692	151
106.0648	131
107.0485	375
115.0535	394
116.0497	87
117.0313	43
117.0684	272
119.0487	112
119.0806	24
121.0644	92
127.0537	63
131.0497	19
133.0642	448
134.0602	112
144.0555	48
145.0643	999
147.0436	53
