Mass spectrum: Opipramol; LC-ESI-QTOF; MS2; 150 V
Name: Opipramol
Class: Pharmaceutical
Formula: C23H29N3O
Exact mass: 363.2311
SMILES: OCCN1CCN(CCCN2c3ccccc3C=Cc4ccccc24)CC1
InChI: InChI=1S/C23H29N3O/c27-19-18-25-16-14-24(15-17-25)12-5-13-26-22-8-3-1-6-20(22)10-11-21-7-2-4-9-23(21)26/h1-4,6-11,27H,5,12-19H2
Instrument: TripleTOF 5600 SCIEX
Instrument type: LC-ESI-QTOF
Ms type: MS2
Ion mode: POSITIVE
Collision energy: 150
Fragmentation mode: CID
Ionization: ESI
Column name: Zorbax Eclipse Plus C18 2.1 mm x 150 mm, 3.5 um, Agilent
Retention time: 7.242 min
Precursor m/z: 364.2383
Precursor type: [M+H]+
m/z	relative intensity
44.0623	28
45.0429	56
56.0536	61
56.0664	23
68.0515	28
69.0466	32
70.0683	61
74.0167	98
75.0244	202
77.0398	193
82.0658	23
83.0615	75
89.0399	61
97.0741	42
97.0868	18
98.0148	37
99.0227	51
101.0377	89
102.0449	70
113.0371	42
115.0535	65
125.0372	70
126.0452	75
127.0529	75
128.0615	51
137.0386	23
139.0536	122
140.0471	37
149.037	70
150.045	593
151.0532	631
152.0612	296
162.0437	51
163.0533	164
164.0565	75
165.0701	37
174.0458	80
175.0529	169
176.0609	999
177.0648	249
178.0771	94
188.053	42
189.0639	51
190.0629	65
191.0757	23
201.0557	89
202.0636	155
203.0733	193
204.0793	108
215.0685	28
216.0814	32
