Mass spectrum: Fluroxypyr; LC-ESI-QTOF; MS2; 100 V
Name: Fluroxypyr
Class: Herbicide
Formula: C7H5Cl2FN2O3
Exact mass: 253.9661
SMILES: C(C(=O)O)OC1=NC(=C(C(=C1Cl)N)Cl)F
InChI: InChI=1S/C7H5Cl2FN2O3/c8-3-5(11)4(9)7(12-6(3)10)15-1-2(13)14/h1H2,(H2,11,12)(H,13,14)
Instrument: TripleTOF 6600 SCIEX
Instrument type: LC-ESI-QTOF
Ms type: MS2
Ion mode: POSITIVE
Collision energy: 100
Fragmentation mode: CID
Ionization: ESI
Column name: Zorbax Eclipse Plus C18 2.1 mm x 150 mm, 3.5 um, Agilent
Retention time: 8.859 min
Precursor m/z: 254.9734
Precursor type: [M+H]+
m/z	relative intensity
30.9978	74
46.9679	93
48.9839	84
51.0108	56
52.0186	56
53.0133	37
56.0055	112
57.0132	84
60.9839	56
61.9784	112
62.0013	56
62.9621	37
63.0105	37
64.0173	93
65.9653	46
66.9739	476
70.0087	308
70.9675	112
71.9752	270
72.9823	93
73.9796	74
74.9878	74
77.0129	261
81.0004	74
82.0085	186
82.9451	121
83.016	121
83.9756	37
84.0244	56
85.9781	308
89.966	606
90.9738	952
91.9687	93
96.9704	74
97.9779	46
98.9855	84
100.9347	93
101.9679	46
105.9365	74
105.9844	74
106.9444	205
115.9689	102
116.9767	74
121.9519	37
124.9347	999
131.9368	46
