Mass spectrum: Ethisterone; LC-ESI-QTOF; MS2; 70 V
Name: Ethisterone
Class: Pharmaceutical; Metabolite
Formula: C21H28O2
Exact mass: 312.2089
SMILES: C[C@]12CCC(=O)C=C1CC[C@@H]3[C@@H]2CC[C@@]4(C)[C@H]3CC[C@@]4(O)C#C
InChI: InChI=1S/C21H28O2/c1-4-21(23)12-9-18-16-6-5-14-13-15(22)7-10-19(14,2)17(16)8-11-20(18,21)3/h1,13,16-18,23H,5-12H2,2-3H3/t16-,17+,18+,19+,20+,21+/m1/s1
Instrument: TripleTOF 5600 SCIEX
Instrument type: LC-ESI-QTOF
Ms type: MS2
Ion mode: POSITIVE
Collision energy: 70
Fragmentation mode: CID
Ionization: ESI
Column name: Zorbax Eclipse Plus C18 2.1 mm x 150 mm, 3.5 um, Agilent
Retention time: 11.662 min
Precursor m/z: 313.2162
Precursor type: [M+H]+
m/z	relative intensity
43.0257	117
53.044	41
55.0218	67
55.0588	55
57.0376	11
65.0426	138
66.0517	23
67.0206	11
67.058	147
69.0372	23
69.0722	117
77.0412	568
77.0666	23
78.0513	20
79.0565	845
81.0355	26
81.0716	397
83.0513	67
91.0556	589
91.0802	29
93.0702	73
94.0426	61
95.0492	20
95.0854	64
97.0654	999
103.0543	53
104.0645	26
105.0697	200
107.0494	41
107.0853	20
108.0597	20
109.0651	816
115.0535	244
116.0619	50
117.0693	70
119.0848	53
121.0624	17
123.0791	88
127.0532	64
127.068	11
128.0616	297
129.0694	165
130.0767	29
131.087	26
133.1014	17
139.054	11
141.0692	188
142.0763	70
143.0839	50
152.0619	23
153.0691	61
154.0753	26
155.0847	44
156.0946	14
165.0707	61
166.0781	23
167.0859	38
178.0768	38
179.0849	17
190.0771	14
191.0827	29
