Mass spectrum: Chlorpyrifos; LC-ESI-QTOF; MS2; 130 V
Name: Chlorpyrifos
Class: Insecticide
Formula: C9H11Cl3NO3PS
Exact mass: 348.9263
SMILES: CCO[P](=S)(OCC)Oc1nc(Cl)c(Cl)cc1Cl
InChI: InChI=1S/C9H11Cl3NO3PS/c1-3-14-17(18,15-4-2)16-9-7(11)5-6(10)8(12)13-9/h5H,3-4H2,1-2H3
Instrument: TripleTOF 5600 SCIEX
Instrument type: LC-ESI-QTOF
Ms type: MS2
Ion mode: POSITIVE
Collision energy: 130
Fragmentation mode: CID
Ionization: ESI
Column name: Zorbax Eclipse Plus C18 2.1 mm x 150 mm, 3.5 um, Agilent
Retention time: 16.34 min
Precursor m/z: 349.9336
Precursor type: [M+H]+
m/z	relative intensity
61.9836	45
64.9823	342
70.9708	22
71.9786	173
74.0053	22
75.0128	50
78.9425	451
82.9477	36
83.9777	159
96.9521	510
106.9453	999
106.9842	27
108.9712	492
109.9791	59
117.9361	41
118.9434	54
143.9385	31
