Mass spectrum: 2,3,5-Trimethylpyrazine; LC-ESI-QTOF; MS2; 40 V
Name: 2,3,5-Trimethylpyrazine
Formula: C7H10N2
Exact mass: 122.0844
SMILES: N=1C=C(N=C(C1C)C)C
InChI: InChI=1S/C7H10N2/c1-5-4-8-6(2)7(3)9-5/h4H,1-3H3
Instrument: TripleTOF X500R SCIEX
Instrument type: LC-ESI-QTOF
Ms type: MS2
Ion mode: POSITIVE
Collision energy: 40
Fragmentation mode: CID
Ionization: ESI
Column name: Zorbax Eclipse Plus C18 2.1 mm x 150 mm, 3.5 um, Agilent
Retention time: 5.574 min
Precursor m/z: 123.0917
Precursor type: [M+H]+
m/z	relative intensity
37.008	30
38.0151	54
39.0233	410
41.0389	232
42.034	828
53.0384	116
54.034	92
55.0542	286
66.0332	61
67.041	61
80.0506	77
81.0551	46
82.0654	193
96.0808	38
107.0609	170
108.0688	92
121.0772	54
122.0836	61
123.0917	999
