Mass spectrum: 3,3-Diphenylacrylonitrile; LC-ESI-QTOF; MS2; 100 V
Name: 3,3-Diphenylacrylonitrile
Formula: C15H11N
Exact mass: 205.0891
SMILES: C1=CC=C(C=C1)C(=CC#N)C2=CC=CC=C2
InChI: InChI=1S/C15H11N/c16-12-11-15(13-7-3-1-4-8-13)14-9-5-2-6-10-14/h1-11H
Instrument: TripleTOF 6600 SCIEX
Instrument type: LC-ESI-QTOF
Ms type: MS2
Ion mode: POSITIVE
Collision energy: 100
Fragmentation mode: CID
Ionization: ESI
Column name: Zorbax Eclipse Plus C18 2.1 mm x 150 mm, 3.5 um, Agilent
Retention time: 13.746 min
Precursor m/z: 206.0964
Precursor type: [M+H]+
m/z	relative intensity
49.0059	27
50.0136	482
51.0219	999
63.0214	41
73.0063	48
74.0131	621
75.0214	230
76.0289	41
77.0379	146
98.0128	76
126.046	55
150.0457	300
174.0443	55
176.0614	27
