Mass spectrum: 3,5-bis(hexanoylamino)-2,4,6-triiodobenzoic acid; LC-ESI-QTOF; MS2; 90 V
Name: 3,5-bis(hexanoylamino)-2,4,6-triiodobenzoic acid
Class: Pharmaceutical; Transformation_product
Formula: C19H25I3N2O4
Exact mass: 725.8949
SMILES: CCCCCC(=O)Nc1c(I)c(NC(=O)CCCCC)c(I)c(C(O)=O)c1I
InChI: InChI=1S/C19H25I3N2O4/c1-3-5-7-9-11(25)23-17-14(20)13(19(27)28)15(21)18(16(17)22)24-12(26)10-8-6-4-2/h3-10H2,1-2H3,(H,23,25)(H,24,26)(H,27,28)
Instrument: TripleTOF 5600 SCIEX
Instrument type: LC-ESI-QTOF
Ms type: MS2
Ion mode: POSITIVE
Collision energy: 90
Fragmentation mode: CID
Ionization: ESI
Column name: Zorbax Eclipse Plus C18 2.1 mm x 150 mm, 3.5 um, Agilent
Retention time: 11.575 min
Precursor m/z: 726.9021
Precursor type: [M+H]+
m/z	relative intensity
78.0351	16
79.0592	10
91.0503	13
106.0668	13
107.0133	13
107.0374	16
108.0443	18
118.0521	24
119.0355	13
119.0718	10
120.0436	10
122.0555	13
123.0492	13
124.0416	16
130.0658	13
132.0451	10
132.0793	13
134.022	16
145.0383	10
145.0506	13
145.0779	21
146.0474	40
147.0304	18
147.0564	32
148.0411	56
148.0631	115
149.0681	16
159.0666	10
160.0395	26
161.0502	83
161.0701	433
162.0536	32
162.0781	24
163.0485	16
173.0332	13
173.1088	16
174.0156	10
174.0437	40
174.0823	24
175.0488	13
175.0865	34
176.1063	18
178.037	18
186.0425	50
186.0915	16
187.0141	16
187.0507	160
187.086	16
187.1294	13
188.0578	101
188.1063	29
189.0641	13
191.044	32
192.0523	109
199.0517	13
200.059	56
201.0291	26
201.0654	99
201.1033	18
202.1108	58
203.1163	16
203.9298	16
204.1015	921
205.0588	45
213.0279	24
213.0657	32
214.0357	56
214.0709	24
214.112	10
215.0431	16
215.0826	26
219.0417	18
227.0848	37
228.0556	32
229.0615	32
229.0884	16
229.1313	13
231.04	34
231.1124	32
231.9263	21
232.0489	77
241.0979	24
242.105	77
243.1132	16
243.9503	13
244.1199	147
245.0545	45
245.1264	24
246.0635	29
247.0684	26
248.1157	160
248.9506	18
249.1245	21
250.1067	37
256.121	72
257.0922	24
257.1305	80
259.1445	10
270.1007	58
270.1359	10
271.108	45
271.1429	26
271.9449	40
273.9637	16
275.1016	257
287.1043	18
288.1105	369
289.1187	219
299.1725	40
299.9393	58
301.1173	66
301.1927	115
303.134	353
317.1513	24
317.9503	123
327.1723	13
331.0326	21
345.1809	999
375.0195	198
