Mass spectrum: Mirtazapine; LC-ESI-QTOF; MS2; 90 V
Name: Mirtazapine
Class: Pharmaceutical
Formula: C17H19N3
Exact mass: 265.1579
SMILES: CN1CCN2C(C1)C3=CC=CC=C3CC4=C2N=CC=C4
InChI: InChI=1S/C17H19N3/c1-19-9-10-20-16(12-19)15-7-3-2-5-13(15)11-14-6-4-8-18-17(14)20/h2-8,16H,9-12H2,1H3
Instrument: TripleTOF 5600 SCIEX
Instrument type: LC-ESI-QTOF
Ms type: MS2
Ion mode: POSITIVE
Collision energy: 90
Fragmentation mode: CID
Ionization: ESI
Column name: Zorbax Eclipse Plus C18 2.1 mm x 150 mm, 3.5 um, Agilent
Retention time: 5.459 min
Precursor m/z: 266.1652
Precursor type: [M+H]+
m/z	relative intensity
42.0458	54
56.0582	27
58.0752	37
64.033	32
65.0455	349
66.0385	18
66.0466	13
67.0483	18
70.0704	24
72.0849	59
74.0189	24
75.0283	46
76.0348	21
77.0434	251
78.0386	127
79.0535	24
80.0548	37
88.0368	16
89.0418	265
90.0348	21
90.0474	73
91.0557	157
92.0513	135
93.06	13
98.0169	16
99.0259	18
101.0414	62
102.0466	89
103.0561	113
104.0489	24
105.0681	10
113.0389	62
114.0459	56
115.0552	522
116.0511	102
117.058	67
118.0529	27
119.0583	10
125.0404	75
126.0481	157
127.0546	230
128.0572	178
129.0593	32
130.0656	173
131.0627	54
137.041	21
138.0457	43
139.0548	801
140.0531	495
141.062	78
142.0651	13
143.0767	13
144.0814	27
149.0452	24
150.0467	324
151.0539	525
152.0626	573
153.0561	175
154.0658	43
155.0675	16
162.0425	10
163.0531	162
164.0539	203
165.0605	224
166.0651	999
167.0727	644
168.0722	192
176.0474	18
176.0602	37
177.0575	194
178.0651	181
179.0673	211
180.0782	157
181.0769	21
188.0516	35
189.0665	35
190.0652	178
191.0651	121
192.0681	879
193.0769	934
194.0841	441
195.0921	13
202.0628	13
203.0761	10
204.0794	13
205.0776	105
206.0806	32
216.0689	27
217.0744	40
218.0846	113
219.0936	16
