Mass spectrum: Pendimethalin; LC-ESI-QTOF; MS2; 150 V
Name: Pendimethalin
Class: Herbicide
Formula: C13H19N3O4
Exact mass: 281.1376
SMILES: CCC(CC)Nc1c(cc(c(c1[N+](=O)[O-])C)C)[N+](=O)[O-]
InChI: InChI=1S/C13H19N3O4/c1-5-10(6-2)14-12-11(15(17)18)7-8(3)9(4)13(12)16(19)20/h7,10,14H,5-6H2,1-4H3
Instrument: TripleTOF 6600 SCIEX
Instrument type: LC-ESI-QTOF
Ms type: MS2
Ion mode: POSITIVE
Collision energy: 150
Fragmentation mode: CID
Ionization: ESI
Column name: Zorbax Eclipse Plus C18 2.1 mm x 150 mm, 3.5 um, Agilent
Retention time: 16.198 min
Precursor m/z: 282.1448
Precursor type: [M+H]+
m/z	relative intensity
35.9996	80
37.0078	418
38.0032	128
38.0159	322
39.0235	982
41.039	145
49.0087	241
50.0155	999
51.0237	886
52.0192	241
53.014	80
61.0082	177
62.0153	290
63.0231	322
64.0192	80
65.0393	209
74.0158	273
75.012	128
75.0235	80
76.018	96
77.0402	128
78.0339	80
89.0388	128
91.0537	80
