Mass spectrum: Dodecylamine; LC-ESI-QTOF; MS2; 110 V
Name: Dodecylamine
Class: Industrial_process; Personal_care_product
Formula: C12H27N
Exact mass: 185.2143
InChI: InChI=1S/C12H27N/c1-2-3-4-5-6-7-8-9-10-11-12-13/h2-13H2,1H3
Instrument: TripleTOF 5600 SCIEX
Instrument type: LC-ESI-QTOF
Ms type: CID
Ion mode: POSITIVE
Collision energy: 110
Ionization: ESI
Column name: Zorbax Eclipse Plus C18 2.1 mm x 150 mm, 3.5 um, Agilent
Retention time: 9.472 min
Precursor m/z: 186.2216
Precursor type: [M+H]+
m/z	relative intensity
37.0068	233
38.0146	199
39.0231	999
41.0386	582
43.054	233
