Mass spectrum: Aldicarb; LC-ESI-QTOF; MS2; 150 V
Name: Aldicarb
Class: Insecticide; Transformation_product-Metabolite
Formula: C7H14N2O2S
Exact mass: 190.0776
SMILES: CC(C)(C=NOC(=O)NC)SC
InChI: InChI=1S/C7H14N2O2S/c1-7(2,12-4)5-9-11-6(10)8-3/h5H,1-4H3,(H,8,10)
Instrument: TripleTOF 6600 SCIEX
Instrument type: LC-ESI-QTOF
Ms type: MS2
Ion mode: POSITIVE
Collision energy: 150
Fragmentation mode: CID
Ionization: ESI
Column name: Zorbax Eclipse Plus C18 2.1 mm x 150 mm, 3.5 um, Agilent
Retention time: 8.404 min
Precursor m/z: 213.0668
Precursor type: [M+Na]+
m/z	relative intensity
36.0002	57
37.0077	142
38.0154	114
39.0236	214
44.9797	328
45.9755	71
46.9955	99
57.9874	385
58.9956	999
