Mass spectrum: Valsartanic acid; LC-ESI-QTOF; MS2; 40 V
Name: Valsartanic acid
Class: Pharmaceutical; Transformation_product; Transformation_product-Metabolite
Formula: C14H10N4O2
Exact mass: 266.0804
SMILES: O=C(O)C(C=C1)=CC=C1C2=CC=CC=C2C3=NN=NN3
InChI: InChI=1S/C14H10N4O2/c19-14(20)10-7-5-9(6-8-10)11-3-1-2-4-12(11)13-15-17-18-16-13/h1-8H,(H,19,20)(H,15,16,17,18)
Instrument: TripleTOF 5600 SCIEX
Instrument type: LC-ESI-QTOF
Ms type: MS2
Ion mode: POSITIVE
Collision energy: 40
Fragmentation mode: CID
Ionization: ESI
Column name: Zorbax Eclipse Plus C18 2.1 mm x 150 mm, 3.5 um, Agilent
Retention time: 8.027 min
Precursor m/z: 267.0877
Precursor type: [M+H]+
m/z	relative intensity
139.0541	23
150.0454	12
151.0546	497
152.0551	18
166.0648	62
176.0492	12
177.0572	122
178.0657	999
179.0608	13
180.0808	85
192.0683	58
193.0752	13
206.0615	773
