Mass spectrum: Praziquantel; LC-ESI-QTOF; MS2; 100 V
Name: Praziquantel
Class: Pharmaceutical
Formula: C19H24N2O2
Exact mass: 312.1838
SMILES: O=C1CN(CC2N1CCc3ccccc23)C(=O)C4CCCCC4
InChI: InChI=1S/C19H24N2O2/c22-18-13-20(19(23)15-7-2-1-3-8-15)12-17-16-9-5-4-6-14(16)10-11-21(17)18/h4-6,9,15,17H,1-3,7-8,10-13H2
Instrument: TripleTOF 5600 SCIEX
Instrument type: LC-ESI-QTOF
Ms type: MS2
Ion mode: POSITIVE
Collision energy: 100
Fragmentation mode: CID
Ionization: ESI
Column name: Zorbax Eclipse Plus C18 2.1 mm x 150 mm, 3.5 um, Agilent
Retention time: 10.768 min
Precursor m/z: 313.1911
Precursor type: [M+H]+
m/z	relative intensity
53.0443	41
55.0605	999
77.0402	247
78.0465	33
79.0559	66
83.0868	173
89.0403	90
90.0461	123
91.0559	247
102.0445	33
103.0541	222
105.0688	280
115.0528	511
116.0593	99
117.0562	569
127.0527	132
128.0603	305
130.0644	396
131.0715	49
132.0794	189
144.0798	90
