Mass spectrum: Propaquizafop; LC-ESI-QTOF; MS2; 90 V
Name: Propaquizafop
Class: Herbicide
Formula: C22H22ClN3O5
Exact mass: 443.1248
SMILES: CC(Oc1ccc(Oc2cnc3cc(Cl)ccc3n2)cc1)C(=O)OCCON=C(C)C
InChI: InChI=1S/C22H22ClN3O5/c1-14(2)26-29-11-10-28-22(27)15(3)30-17-5-7-18(8-6-17)31-21-13-24-20-12-16(23)4-9-19(20)25-21/h4-9,12-13,15H,10-11H2,1-3H3
Instrument: TripleTOF 6600 SCIEX
Instrument type: LC-ESI-QTOF
Ms type: MS2
Ion mode: POSITIVE
Collision energy: 90
Fragmentation mode: CID
Ionization: ESI
Column name: Zorbax Eclipse Plus C18 2.1 mm x 150 mm, 3.5 um, Agilent
Retention time: 15.307 min
Precursor m/z: 444.1321
Precursor type: [M+H]+
m/z	relative intensity
39.0235	43
41.039	43
42.0341	43
54.0342	34
55.0178	86
55.0415	111
56.0263	34
56.0498	594
63.024	60
65.0384	258
70.0653	835
75.0226	103
77.0385	206
89.0385	60
90.0467	34
91.0545	456
98.999	43
99.0111	43
99.0442	387
100.018	551
100.0519	103
100.0769	43
103.054	43
114.0459	43
115.0538	34
119.0488	68
123.995	94
126.0102	43
135.9949	378
137.0033	111
137.0371	43
138.0475	189
139.0527	43
140.0495	51
142.0527	51
149.017	43
152.0141	34
152.0485	34
153.0523	68
163.0063	861
164.0017	999
164.0495	465
165.0579	353
166.0524	43
166.0646	111
167.0714	34
173.0145	60
174.0105	94
177.0209	43
179.061	172
180.0699	155
181.074	34
190.0568	111
191.0608	370
192.0686	981
193.0765	111
194.0861	60
200.0244	77
202.0292	60
205.0747	51
206.0844	60
207.0925	120
215.0366	68
217.0762	34
218.0875	43
221.0711	60
226.0298	146
227.0364	163
228.0451	51
229.0531	68
239.0388	77
253.0539	60
255.034	137
257.0476	60
