Mass spectrum: Alpha-hydroxy-metoprolol; LC-ESI-QTOF; MS2; 40 V
Name: Alpha-hydroxy-metoprolol
Class: Pharmaceutical; Metabolite
Formula: C15H25NO4
Exact mass: 283.1784
SMILES: COCC(O)c1ccc(OCC(O)CNC(C)C)cc1
InChI: InChI=1S/C15H25NO4/c1-11(2)16-8-13(17)9-20-14-6-4-12(5-7-14)15(18)10-19-3/h4-7,11,13,15-18H,8-10H2,1-3H3
Instrument: TripleTOF 5600 SCIEX
Instrument type: LC-ESI-QTOF
Ms type: MS2
Ion mode: POSITIVE
Collision energy: 40
Fragmentation mode: CID
Ionization: ESI
Column name: Zorbax Eclipse Plus C18 2.1 mm x 150 mm, 3.5 um, Agilent
Retention time: 5.057 min
Precursor m/z: 284.1856
Precursor type: [M+H]+
m/z	relative intensity
43.0274	23
44.0603	10
45.0437	66
56.0564	470
58.0704	78
65.0448	22
70.0691	122
72.0849	414
74.0638	747
75.0466	82
77.0417	187
78.0486	18
79.0572	146
84.0846	29
88.0764	17
91.0562	514
93.0719	42
98.0977	370
100.1116	38
103.0545	279
105.0349	21
105.0705	427
106.0424	127
107.0485	126
115.055	81
116.0663	14
116.1072	575
117.0698	111
118.0399	61
119.0487	313
119.0834	30
120.0562	14
121.0638	93
127.0533	39
128.0635	86
129.0703	170
131.049	45
131.0823	17
132.0562	11
133.0649	399
134.0728	105
135.043	10
135.0807	46
144.0553	15
145.0641	101
146.07	18
147.0451	50
147.0797	91
148.0528	23
149.06	123
150.0913	17
151.0752	141
157.0642	87
159.0792	29
161.0951	35
162.0676	31
163.074	171
168.1011	23
174.0659	11
174.091	10
175.0753	115
177.0909	87
179.0819	10
181.0859	55
189.0902	122
192.1379	25
206.116	29
207.1007	226
210.1474	18
224.1261	125
242.1402	27
248.1647	33
266.1765	42
284.1862	999
