Mass spectrum: 1-Hydroxybenzotriazol; LC-ESI-QTOF; MS2; 120 V
Name: 1-Hydroxybenzotriazol
Class: Pharmaceutical; Industrial_process; Transformation_product
Formula: C6H5N3O
Exact mass: 135.0433
SMILES: c1ccc2c(c1)nnn2O
InChI: InChI=1S/C6H5N3O/c10-9-6-4-2-1-3-5(6)7-8-9/h1-4,10H
Instrument: TripleTOF 5600 SCIEX
Instrument type: LC-ESI-QTOF
Ms type: CID
Ion mode: POSITIVE
Collision energy: 120
Ionization: ESI
Column name: Zorbax Eclipse Plus C18 2.1 mm x 150 mm, 3.5 um, Agilent
Retention time: 5.24 min
Precursor m/z: 136.0505
Precursor type: [M+H]+
m/z	relative intensity
38.0115	51
49.0137	51
50.0198	144
51.0157	51
52.0241	154
60.0032	92
61.0124	999
62.0189	607
63.028	144
