Mass spectrum: 2-Hydroxycarbamazepine; LC-ESI-QTOF; MS2; 110 V
Name: 2-Hydroxycarbamazepine
Class: Pharmaceutical; Metabolite
Formula: C15H12N2O2
Exact mass: 252.0899
SMILES: NC(=O)N1c2ccccc2C=Cc3cc(O)ccc13
InChI: InChI=1S/C15H12N2O2/c16-15(19)17-13-4-2-1-3-10(13)5-6-11-9-12(18)7-8-14(11)17/h1-9,18H,(H2,16,19)
Instrument: TripleTOF 5600 SCIEX
Instrument type: LC-ESI-QTOF
Ms type: MS2
Ion mode: POSITIVE
Collision energy: 110
Fragmentation mode: CID
Ionization: ESI
Column name: Zorbax Eclipse Plus C18 2.1 mm x 150 mm, 3.5 um, Agilent
Retention time: 7.476 min
Precursor m/z: 253.0972
Precursor type: [M+H]+
m/z	relative intensity
52.0331	31
60.0104	19
63.0587	15
64.0366	19
65.0415	133
74.0182	224
74.0435	19
75.0257	397
75.055	19
76.0203	23
76.0336	70
77.041	633
77.0665	27
78.0481	82
85.0085	35
86.0174	90
87.0245	220
88.0195	27
88.0321	106
89.0403	766
90.034	15
90.0489	39
91.0556	23
98.0156	110
99.0239	149
100.0323	47
101.0387	216
102.0333	47
102.0461	173
104.0502	39
110.0144	39
111.0236	78
113.0385	495
114.0351	90
114.0459	39
115.0538	314
116.0498	51
117.0557	19
122.016	27
124.0293	19
125.0385	204
126.0463	436
127.0397	31
127.0532	294
128.05	165
129.0469	23
137.0386	149
138.0463	149
139.0541	818
140.0489	519
141.0606	19
149.0385	62
150.0463	621
151.0542	845
152.0615	999
153.0568	94
154.0653	47
161.0384	90
162.0459	188
163.0544	527
164.0501	283
164.0786	15
165.06	74
166.0657	78
175.0432	19
176.0496	62
177.0572	180
178.0657	393
179.0739	70
180.0804	39
187.0381	19
188.0494	125
189.0583	86
190.066	137
191.0723	31
206.0605	19
