Mass spectrum: Tetraconazole; LC-ESI-QTOF; MS2; 120 V
Name: Tetraconazole
Class: Fungicide
Formula: C13H11Cl2F4N3O
Exact mass: 371.0215
SMILES: C1=CC(=C(C=C1Cl)Cl)C(CN2C=NC=N2)COC(C(F)F)(F)F
InChI: InChI=1S/C13H11Cl2F4N3O/c14-9-1-2-10(11(15)3-9)8(4-22-7-20-6-21-22)5-23-13(18,19)12(16)17/h1-3,6-8,12H,4-5H2
Instrument: TripleTOF 6600 SCIEX
Instrument type: LC-ESI-QTOF
Ms type: MS2
Ion mode: POSITIVE
Collision energy: 120
Fragmentation mode: CID
Ionization: ESI
Column name: Zorbax Eclipse Plus C18 2.1 mm x 150 mm, 3.5 um, Agilent
Retention time: 12.382 min
Precursor m/z: 372.0288
Precursor type: [M+H]+
m/z	relative intensity
39.0223	14
43.0286	67
46.9675	13
48.9834	14
51.0035	76
61.0067	25
62.0146	91
63.0226	240
65.0383	13
70.0395	133
72.9835	357
82.9438	27
86.0142	16
87.0222	24
88.0298	62
89.0384	999
96.9827	102
98.9989	116
107.0285	13
114.0445	16
115.0533	144
122.9988	170
124.0071	40
132.9592	43
158.9755	18
