Mass spectrum: Flutriafol; LC-ESI-QTOF; MS2; 90 V
Name: Flutriafol
Class: Fungicide
Formula: C16H13F2N3O
Exact mass: 301.1027
SMILES: C1=CC=C(C(=C1)C(CN2C=NC=N2)(C3=CC=C(C=C3)F)O)F
InChI: InChI=1S/C16H13F2N3O/c17-13-7-5-12(6-8-13)16(22,9-21-11-19-10-20-21)14-3-1-2-4-15(14)18/h1-8,10-11,22H,9H2
Instrument: TripleTOF 6600 SCIEX
Instrument type: LC-ESI-QTOF
Ms type: MS2
Ion mode: POSITIVE
Collision energy: 90
Fragmentation mode: CID
Ionization: ESI
Column name: Zorbax Eclipse Plus C18 2.1 mm x 150 mm, 3.5 um, Agilent
Retention time: 10.047 min
Precursor m/z: 302.11
Precursor type: [M+H]+
m/z	relative intensity
42.0222	11
43.0295	243
57.0135	49
59.0291	18
63.023	32
69.0135	24
70.0401	859
73.0069	33
74.015	398
75.0229	999
83.0291	276
89.0384	24
95.029	669
99.0221	12
109.045	143
123.0334	192
149.0377	25
163.0543	18
164.061	12
165.0678	14
168.037	53
169.0426	17
174.0454	45
181.0439	10
183.0597	32
188.043	12
192.037	11
193.044	25
194.0537	63
212.0411	11
214.0589	11
