Mass spectrum: Triphenyl phosphate; LC-ESI-QTOF; MS2; 50 V
Name: Triphenyl phosphate
Class: Industrial_process
Formula: C18H15O4P
Exact mass: 326.0708
SMILES: C1=CC=C(C=C1)OP(=O)(OC2=CC=CC=C2)OC3=CC=CC=C3
InChI: InChI=1S/C18H15O4P/c19-23(20-16-10-4-1-5-11-16,21-17-12-6-2-7-13-17)22-18-14-8-3-9-15-18/h1-15H
Instrument: TripleTOF 5600 SCIEX
Instrument type: LC-ESI-QTOF
Ms type: MS2
Ion mode: POSITIVE
Collision energy: 50
Fragmentation mode: CID
Ionization: ESI
Column name: Zorbax Eclipse Plus C18 2.1 mm x 150 mm, 3.5 um, Agilent
Retention time: 14.07 min
Precursor m/z: 327.0781
Precursor type: [M+H]+
m/z	relative intensity
51.0229	64
65.0386	11
77.0385	628
95.0485	37
98.9825	12
127.053	21
138.9951	28
141.0728	14
151.054	175
152.062	999
153.0697	238
157.0047	15
168.0577	463
170.0727	14
175.0158	54
187.0305	67
202.0765	40
215.026	418
226.0772	49
227.0833	106
228.0921	186
233.0359	51
244.0903	20
251.047	159
291.0566	10
