Mass spectrum: Repaglinide; LC-ESI-QTOF; MS2; 50 V
Name: Repaglinide
Class: Pharmaceutical
Formula: C27H36N2O4
Exact mass: 452.2675
SMILES: CCOc1cc(CC(=O)N[C@@H](CC(C)C)c2ccccc2N3CCCCC3)ccc1C(O)=O
InChI: InChI=1S/C27H36N2O4/c1-4-33-25-17-20(12-13-22(25)27(31)32)18-26(30)28-23(16-19(2)3)21-10-6-7-11-24(21)29-14-8-5-9-15-29/h6-7,10-13,17,19,23H,4-5,8-9,14-16,18H2,1-3H3,(H,28,30)(H,31,32)/t23-/m0/s1
Instrument: TripleTOF 5600 SCIEX
Instrument type: LC-ESI-QTOF
Ms type: MS2
Ion mode: POSITIVE
Collision energy: 50
Fragmentation mode: CID
Ionization: ESI
Column name: Zorbax Eclipse Plus C18 2.1 mm x 150 mm, 3.5 um, Agilent
Retention time: 10.348 min
Precursor m/z: 453.2748
Precursor type: [M+H]+
m/z	relative intensity
86.0993	298
106.0653	26
118.0653	36
120.0805	10
130.0645	18
131.0726	13
132.0807	28
144.0809	17
146.0969	125
158.0963	17
159.1045	12
160.113	16
162.1284	247
172.1121	63
173.1198	16
174.1281	567
179.07	24
186.1282	13
189.0539	13
202.1592	26
230.1902	999
