Mass spectrum: Tramadol-N-oxide; LC-ESI-QTOF; MS2; 40 V
Name: Tramadol-N-oxide
Class: Pharmaceutical
Formula: C16H25NO3
Exact mass: 279.1834
SMILES: [O-][N+](C)(C)C[C@H]2CCCC[C@]2(O)c1cc(OC)ccc1
InChI: InChI=1S/C16H25NO3/c1-17(2,19)12-14-7-4-5-10-16(14,18)13-8-6-9-15(11-13)20-3/h6,8-9,11,14,18H,4-5,7,10,12H2,1-3H3/t14-,16+/m1/s1
Instrument: TripleTOF 5600 SCIEX
Instrument type: LC-ESI-QTOF
Ms type: MS2
Ion mode: POSITIVE
Collision energy: 40
Fragmentation mode: CID
Ionization: ESI
Column name: Zorbax Eclipse Plus C18 2.1 mm x 150 mm, 3.5 um, Agilent
Retention time: 6.334 min
Precursor m/z: 280.1907
Precursor type: [M+H]+
m/z	relative intensity
42.0432	10
55.0602	19
58.0718	509
62.0662	13
65.0427	15
67.0595	30
68.0537	10
69.0738	10
70.0681	17
71.0756	13
72.0845	10
74.0647	18
77.0418	273
78.05	10
79.0577	59
81.0718	21
82.0676	46
83.0883	16
84.083	48
91.0561	159
92.0271	111
93.0713	47
94.0437	16
94.0654	29
95.0741	33
105.0699	19
107.0498	406
108.0811	31
109.0641	50
110.0967	217
115.0545	39
116.0615	18
117.0699	14
121.0647	439
127.0546	28
128.062	29
129.0697	45
131.0496	16
132.0576	10
135.0442	999
135.0792	30
137.0587	12
141.0708	14
144.0563	113
145.0647	62
146.0728	17
147.0797	83
157.065	10
158.0723	69
159.0801	344
160.0883	55
171.0803	17
172.0866	24
173.0967	80
186.1034	12
191.1071	24
201.128	234
262.1805	342
280.1914	154
