Mass spectrum: Methacetin; LC-ESI-QTOF; MS2; 30 V
Name: Methacetin
Class: Pharmaceutical
Formula: C9H11NO2
Exact mass: 165.079
SMILES: COc1ccc(NC(C)=O)cc1
InChI: InChI=1S/C9H11NO2/c1-7(11)10-8-3-5-9(12-2)6-4-8/h3-6H,1-2H3,(H,10,11)
Instrument: TripleTOF 5600 SCIEX
Instrument type: LC-ESI-QTOF
Ms type: MS2
Ion mode: POSITIVE
Collision energy: 30
Fragmentation mode: CID
Ionization: ESI
Column name: Zorbax Eclipse Plus C18 2.1 mm x 150 mm, 3.5 um, Agilent
Retention time: 6.508 min
Precursor m/z: 166.0863
Precursor type: [M+H]+
m/z	relative intensity
43.0293	208
43.0548	11
65.044	183
66.0512	25
77.0422	228
79.0575	21
80.0526	116
81.0601	479
92.051	859
93.059	880
94.066	61
97.0658	26
107.0494	111
108.0452	57
109.0521	857
123.0676	84
124.0759	999
125.0617	35
148.0753	96
166.0857	267
