Mass spectrum: 4-Methoxycinnamaldehyde; LC-ESI-QTOF; MS2; 50 V
Name: 4-Methoxycinnamaldehyde
Formula: C10H10O2
Exact mass: 162.0681
SMILES: COC1=CC=C(C=C1)C=CC=O
InChI: InChI=1S/C10H10O2/c1-12-10-6-4-9(5-7-10)3-2-8-11/h2-8H,1H3
Instrument: TripleTOF 6600 SCIEX
Instrument type: LC-ESI-QTOF
Ms type: MS2
Ion mode: POSITIVE
Collision energy: 50
Fragmentation mode: CID
Ionization: ESI
Column name: Zorbax Eclipse Plus C18 2.1 mm x 150 mm, 3.5 um, Agilent
Retention time: 9.471 min
Precursor m/z: 163.0754
Precursor type: [M+H]+
m/z	relative intensity
39.0242	12
51.0237	57
55.0178	38
63.0232	20
65.0392	155
66.0438	22
76.0315	26
77.0392	354
78.0442	69
79.0537	24
89.0386	47
90.0484	22
91.055	999
92.0257	10
92.0581	182
94.041	14
95.052	12
102.0469	274
103.0533	96
105.0426	24
105.0691	10
115.0563	24
119.0507	47
120.0579	12
130.0472	10
131.0519	14
