Mass spectrum: (S)-N-methyl-pregabalin; LC-ESI-QTOF; MS2; 70 V
Name: (S)-N-methyl-pregabalin
Formula: C9H19NO2
Exact mass: 173.1416
SMILES: CC(C)CC(CC(=O)O)CNC
InChI: InChI=1S/C9H19NO2/c1-7(2)4-8(6-10-3)5-9(11)12/h7-8,10H,4-6H2,1-3H3,(H,11,12)
Instrument: TripleTOF 5600 SCIEX
Instrument type: LC-ESI-QTOF
Ms type: MS2
Ion mode: POSITIVE
Collision energy: 70
Fragmentation mode: CID
Ionization: ESI
Column name: Zorbax Eclipse Plus C18 2.1 mm x 150 mm, 3.5 um, Agilent
Retention time: 4.84 min
Precursor m/z: 174.1489
Precursor type: [M+H]+
m/z	relative intensity
36.0002	24
37.0076	133
38.0157	126
39.0233	781
41.0389	701
42.0341	66
43.0184	171
43.0547	178
44.05	178
44.998	17
45.0336	154
51.0237	35
53.0391	143
54.0345	31
55.0183	259
55.0419	14
55.0549	999
56.0494	49
57.0703	28
58.0287	66
59.0494	185
65.0394	56
67.0424	66
67.055	21
69.034	17
69.0692	17
70.0649	171
77.0388	66
79.0556	42
80.0488	49
82.0651	21
83.0868	24
91.054	28
94.0652	56
