Mass spectrum: Florfenicol; LC-ESI-QTOF; MS2; 90 V
Name: Florfenicol
Class: Pharmaceutical
Formula: C12H14Cl2FNO4S
Exact mass: 357.0005
SMILES: C[S](=O)(=O)c1ccc(cc1)[C@@H](O)[C@@H](CF)NC(=O)C(Cl)Cl
InChI: InChI=1S/C12H14Cl2FNO4S/c1-21(19,20)8-4-2-7(3-5-8)10(17)9(6-15)16-12(18)11(13)14/h2-5,9-11,17H,6H2,1H3,(H,16,18)/t9-,10-/m1/s1
Instrument: TripleTOF 5600 SCIEX
Instrument type: LC-ESI-QTOF
Ms type: CID
Ion mode: POSITIVE
Collision energy: 90
Ionization: ESI
Column name: Zorbax Eclipse Plus C18 2.1 mm x 150 mm, 3.5 um, Agilent
Retention time: 7.507 min
Precursor m/z: 358.0077
Precursor type: [M+H]+
m/z	relative intensity
77.0414	381
78.0492	61
82.9455	350
89.0382	51
91.0559	51
102.0481	72
103.0544	999
115.0542	453
126.0478	51
127.0534	133
128.0623	298
130.0648	720
131.0487	185
133.0426	92
140.0478	41
142.0629	61
