Mass spectrum: Diethylamino hydroxybenzoyl hexyl benzoate; LC-ESI-QTOF; MS2; 130 V
Name: Diethylamino hydroxybenzoyl hexyl benzoate
Formula: C24H31NO4
Exact mass: 397.2253
SMILES: CCCCCCOC(=O)C1=CC=CC=C1C(=O)C2=C(C=C(C=C2)N(CC)CC)O
InChI: InChI=1S/C24H31NO4/c1-4-7-8-11-16-29-24(28)20-13-10-9-12-19(20)23(27)21-15-14-18(17-22(21)26)25(5-2)6-3/h9-10,12-15,17,26H,4-8,11,16H2,1-3H3
Instrument: TripleTOF 6600 SCIEX
Instrument type: LC-ESI-QTOF
Ms type: MS2
Ion mode: POSITIVE
Collision energy: 130
Fragmentation mode: CID
Ionization: ESI
Column name: Zorbax Eclipse Plus C18 2.1 mm x 150 mm, 3.5 um, Agilent
Retention time: 17.769 min
Precursor m/z: 398.2326
Precursor type: [M+H]+
m/z	relative intensity
37.0072	14
38.0152	12
39.0232	134
41.0384	32
43.0542	10
51.0229	39
53.0384	27
62.0145	10
63.0229	51
65.0384	208
68.0129	13
74.0146	14
75.0222	31
76.0302	24
77.0382	178
78.0463	12
80.0491	99
86.0139	10
87.0225	30
88.0303	17
89.0382	142
91.0531	19
99.0222	19
101.0381	29
102.0455	54
105.0331	10
113.038	120
114.0452	27
115.0535	231
123.0214	11
125.0373	26
126.0452	104
127.0534	151
128.0608	142
137.0379	55
138.0454	111
139.0539	999
140.0534	76
141.0698	27
149.0367	15
150.0455	100
151.0528	102
152.0606	140
153.0581	27
154.0637	48
155.0543	20
163.054	19
164.0538	33
165.0687	37
166.0407	12
166.0641	44
167.0494	16
167.0711	23
168.0564	84
176.0599	15
177.0567	20
184.0512	12
194.0579	10
195.0646	13
