Mass spectrum: Flusilazole; LC-ESI-QTOF; MS2; 80 V
Name: Flusilazole
Class: Fungicide
Formula: C16H15F2N3Si
Exact mass: 315.1003
SMILES: C[Si](CN1C=NC=N1)(C2=CC=C(C=C2)F)C3=CC=C(C=C3)F
InChI: InChI=1S/C16H15F2N3Si/c1-22(12-21-11-19-10-20-21,15-6-2-13(17)3-7-15)16-8-4-14(18)5-9-16/h2-11H,12H2,1H3
Instrument: TripleTOF 6600 SCIEX
Instrument type: LC-ESI-QTOF
Ms type: MS2
Ion mode: POSITIVE
Collision energy: 80
Fragmentation mode: CID
Ionization: ESI
Column name: Zorbax Eclipse Plus C18 2.1 mm x 150 mm, 3.5 um, Agilent
Retention time: 12.729 min
Precursor m/z: 316.1076
Precursor type: [M+H]+
m/z	relative intensity
39.0223	42
42.9998	10
46.9743	496
50.0142	20
51.0226	122
57.0131	35
59.0283	13
61.0065	14
62.0145	17
63.0058	24
63.022	67
65.0379	234
72.989	22
74.014	28
75.0217	64
76.0287	12
77.0376	493
78.0455	11
78.9995	11
79.0537	36
80.9955	104
83.0282	433
87.0209	13
89.0373	162
90.9794	12
91.0532	158
95.0277	18
99.0047	27
99.0209	19
101.0374	29
102.0446	42
103.0527	61
105.014	18
105.0691	11
107.0271	14
109.0438	718
113.0365	35
115.0529	332
120.036	10
123.0047	249
125.0206	43
125.0363	34
126.0446	73
127.0527	43
128.0602	28
129.0417	10
133.0434	155
137.0375	14
138.0457	15
139.0527	308
143.0102	10
144.0353	15
146.0507	45
147.0039	16
149.0197	36
149.037	17
150.0449	291
151.0524	306
152.0607	368
157.0435	78
159.0606	28
162.0457	48
163.0532	731
164.0608	609
165.0687	999
167.0136	22
168.0349	10
169.044	51
170.0513	226
173.0201	12
176.0618	57
177.0687	30
178.0759	58
179.06	16
181.0435	81
182.052	106
183.0596	654
196.0671	32
201.0514	61
217.0273	24
219.0412	14
