Mass spectrum: Cetirizine; LC-ESI-QTOF; MS2; 140 V
Name: Cetirizine
Class: Pharmaceutical
Formula: C21H25ClN2O3
Exact mass: 388.1554
SMILES: C1CN(CCN1CCOCC(=O)O)C(C2=CC=CC=C2)C3=CC=C(C=C3)Cl
InChI: InChI=1S/C21H25ClN2O3/c22-19-8-6-18(7-9-19)21(17-4-2-1-3-5-17)24-12-10-23(11-13-24)14-15-27-16-20(25)26/h1-9,21H,10-16H2,(H,25,26)
Instrument: TripleTOF 5600 SCIEX
Instrument type: LC-ESI-QTOF
Ms type: MS2
Ion mode: POSITIVE
Collision energy: 140
Fragmentation mode: CID
Ionization: ESI
Column name: Zorbax Eclipse Plus C18 2.1 mm x 150 mm, 3.5 um, Agilent
Retention time: 8.94 min
Precursor m/z: 389.1626
Precursor type: [M+H]+
m/z	relative intensity
65.0452	11
72.9872	13
87.0247	16
89.0412	58
91.0569	14
99.0002	11
113.0383	29
114.0475	19
115.0552	239
126.0477	18
138.047	12
139.055	232
162.0474	18
163.0554	409
164.0632	450
165.0712	999
