Mass spectrum: Ciprofloxacin; LC-ESI-QTOF; MS2; 40 V
Name: Ciprofloxacin
Class: Pharmaceutical
Formula: C17H18FN3O3
Exact mass: 331.1332
SMILES: C1CC1N2C=C(C(=O)C3=CC(=C(C=C32)N4CCNCC4)F)C(=O)O
InChI: InChI=1S/C17H18FN3O3/c18-13-7-11-14(8-15(13)20-5-3-19-4-6-20)21(10-1-2-10)9-12(16(11)22)17(23)24/h7-10,19H,1-6H2,(H,23,24)
Instrument: TripleTOF 6600 SCIEX
Instrument type: LC-ESI-QTOF
Ms type: MS2
Ion mode: POSITIVE
Collision energy: 40
Fragmentation mode: CID
Ionization: ESI
Column name: Zorbax Eclipse Plus C18 2.1 mm x 150 mm, 3.5 um, Agilent
Retention time: 5.497 min
Precursor m/z: 332.1405
Precursor type: [M+H]+
m/z	relative intensity
135.0472	18
176.0737	23
189.0472	55
191.0616	36
203.0625	133
204.0701	115
205.0782	124
217.0809	41
219.0924	23
225.1002	23
227.1043	36
231.0578	865
231.0918	96
245.1097	382
268.1443	55
272.0814	27
272.1189	23
288.1507	64
294.1238	110
314.1307	999
332.1476	23
