Mass spectrum: Trioctylphosphine oxide; LC-ESI-QTOF; MS2; 50 V
Name: Trioctylphosphine oxide
Class: Industrial_process
Formula: C24H51OP
Exact mass: 386.3678
SMILES: CCCCCCCCP(=O)(CCCCCCCC)CCCCCCCC
InChI: InChI=1S/C24H51OP/c1-4-7-10-13-16-19-22-26(25,23-20-17-14-11-8-5-2)24-21-18-15-12-9-6-3/h4-24H2,1-3H3
Instrument: TripleTOF 5600 SCIEX
Instrument type: LC-ESI-QTOF
Ms type: MS2
Ion mode: POSITIVE
Collision energy: 50
Fragmentation mode: CID
Ionization: ESI
Column name: Zorbax Eclipse Plus C18 2.1 mm x 150 mm, 3.5 um, Agilent
Retention time: 22.9 min
Precursor m/z: 387.375
Precursor type: [M+H]+
m/z	relative intensity
78.0288	63
91.035	10
92.043	50
105.0501	10
106.057	13
119.0651	12
133.0795	16
147.095	17
161.1096	16
175.1255	15
189.1409	43
203.156	35
217.1721	33
231.1873	80
245.2027	72
259.218	22
273.2336	47
275.2496	95
287.2485	19
289.2625	10
301.2649	154
303.2804	60
317.2953	112
331.3109	61
345.3261	21
386.1515	20
387.3736	999
