Mass spectrum: Baclofen; LC-ESI-QTOF; MS2; 130 V
Name: Baclofen
Class: Pharmaceutical
Formula: C10H12ClNO2
Exact mass: 213.0557
SMILES: NCC(CC(O)=O)c1ccc(Cl)cc1
InChI: InChI=1S/C10H12ClNO2/c11-9-3-1-7(2-4-9)8(6-12)5-10(13)14/h1-4,8H,5-6,12H2,(H,13,14)
Instrument: TripleTOF 5600 SCIEX
Instrument type: LC-ESI-QTOF
Ms type: MS2
Ion mode: POSITIVE
Collision energy: 130
Fragmentation mode: CID
Ionization: ESI
Column name: Zorbax Eclipse Plus C18 2.1 mm x 150 mm, 3.5 um, Agilent
Retention time: 5.336 min
Precursor m/z: 214.0629
Precursor type: [M+H]+
m/z	relative intensity
51.0288	968
60.0037	107
65.0425	230
72.9859	230
73.0093	245
74.0173	999
75.0253	307
85.0076	92
86.0162	199
87.0241	76
89.0393	691
115.0539	230
