Mass spectrum: Medroxyprogesterone; LC-ESI-QTOF; MS2; 70 V
Name: Medroxyprogesterone
Class: Pharmaceutical
Formula: C22H32O3
Exact mass: 344.2351
SMILES: CC1CC2C(CCC3(C2CCC3(C(=O)C)O)C)C4(C1=CC(=O)CC4)C
InChI: InChI=1S/C22H32O3/c1-13-11-16-17(20(3)8-5-15(24)12-19(13)20)6-9-21(4)18(16)7-10-22(21,25)14(2)23/h12-13,16-18,25H,5-11H2,1-4H3
Instrument: TripleTOF 6600 SCIEX
Instrument type: LC-ESI-QTOF
Ms type: MS2
Ion mode: POSITIVE
Collision energy: 70
Fragmentation mode: CID
Ionization: ESI
Column name: Zorbax Eclipse Plus C18 2.1 mm x 150 mm, 3.5 um, Agilent
Retention time: 12.524 min
Precursor m/z: 345.2424
Precursor type: [M+H]+
m/z	relative intensity
39.0231	67
41.0386	122
43.018	333
43.0543	13
45.0333	16
50.015	16
51.023	41
53.0386	48
55.0177	118
55.0541	243
57.0336	39
59.0489	16
65.038	67
67.0544	570
69.0336	30
69.0695	92
77.0387	516
78.0461	11
79.0541	447
80.0614	20
81.0331	64
81.0695	139
82.0416	34
83.0488	141
91.054	535
92.0614	11
93.0698	338
94.0428	16
95.0494	118
95.0853	333
97.0646	806
103.0541	81
104.0621	18
105.0434	20
105.0698	470
107.0487	78
107.0849	71
108.0568	129
109.0646	60
109.1027	23
111.0812	11
115.0544	90
116.0616	41
117.07	115
119.0855	183
121.0651	55
121.1021	20
123.0804	999
127.0545	20
128.062	143
129.0697	136
130.0779	50
131.0854	118
133.0647	13
133.1007	69
135.0818	16
137.0956	83
141.0697	127
142.0771	104
143.0849	95
144.0938	41
145.1007	67
147.0797	18
147.117	30
152.0617	18
153.0692	34
154.0777	41
155.0586	16
155.0852	64
156.0934	39
157.1017	39
159.0819	20
159.1187	27
161.0954	13
161.1317	11
165.0696	48
166.0774	32
167.0854	53
168.0931	39
169.1008	64
171.1191	37
173.0953	13
178.077	20
179.0849	44
180.0939	11
181.1009	46
182.1079	30
183.1169	27
185.1314	11
191.0855	11
192.0966	13
193.1006	16
195.1184	30
197.1321	23
199.1134	25
199.1451	9
213.1275	18
214.135	13
