Mass spectrum: Voriconazole-N-oxide; LC-ESI-QTOF; MS2; 50 V
Name: Voriconazole-N-oxide
Class: Metabolite; Pharmaceutical
Formula: C16H14F3N5O2
Exact mass: 365.11
SMILES: CC(C1=NC=[N+](C=C1F)[O-])C(CN2C=NC=N2)(C3=C(C=C(C=C3)F)F)O
InChI: InChI=1S/C16H14F3N5O2/c1-10(15-14(19)5-24(26)9-21-15)16(25,6-23-8-20-7-22-23)12-3-2-11(17)4-13(12)18/h2-5,7-10,25H,6H2,1H3
Instrument: TripleTOF 5600 SCIEX
Instrument type: LC-ESI-QTOF
Ms type: MS2
Ion mode: POSITIVE
Collision energy: 50
Fragmentation mode: CID
Ionization: ESI
Column name: Zorbax Eclipse Plus C18 2.1 mm x 150 mm, 3.5 um, Agilent
Retention time: 7.739 min
Precursor m/z: 366.1172
Precursor type: [M+H]+
m/z	relative intensity
55.0356	48
68.0524	20
78.0354	18
82.0414	312
95.0601	94
96.0678	13
98.0394	33
101.0178	15
105.0461	11
107.0285	15
123.0552	25
125.0501	434
126.0581	654
127.0346	999
143.0597	52
154.0457	43
155.0298	141
169.0552	13
197.0495	16
224.0623	258
261.0612	21
262.0742	15
