Mass spectrum: Ramipril; LC-ESI-QTOF; MS2; 150 V
Name: Ramipril
Class: Pharmaceutical
Formula: C23H32N2O5
Exact mass: 416.2311
SMILES: CCOC(=O)C(CCC1=CC=CC=C1)NC(C)C(=O)N2C3CCCC3CC2C(=O)O
InChI: InChI=1S/C23H32N2O5/c1-3-30-23(29)18(13-12-16-8-5-4-6-9-16)24-15(2)21(26)25-19-11-7-10-17(19)14-20(25)22(27)28/h4-6,8-9,15,17-20,24H,3,7,10-14H2,1-2H3,(H,27,28)
Instrument: TripleTOF 5600 SCIEX
Instrument type: LC-ESI-QTOF
Ms type: MS2
Ion mode: POSITIVE
Collision energy: 150
Fragmentation mode: CID
Ionization: ESI
Column name: Zorbax Eclipse Plus C18 2.1 mm x 150 mm, 3.5 um, Agilent
Retention time: 7.849 min
Precursor m/z: 417.2384
Precursor type: [M+H]+
m/z	relative intensity
39.0226	59
41.0387	14
44.0493	11
45.0341	14
51.023	13
56.0488	16
63.0231	27
65.0387	474
67.0531	23
77.038	27
89.0385	26
91.0543	999
110.0987	13
115.0545	216
117.0687	21
