Mass spectrum: Clopidogrel carboxylic acid; LC-ESI-QTOF; MS2; 130 V
Name: Clopidogrel carboxylic acid
Class: Pharmaceutical
Formula: C15H14ClNO2S
Exact mass: 307.0434
SMILES: C1CN(CC2=C1SC=C2)C(C3=CC=CC=C3Cl)C(=O)O
InChI: InChI=1S/C15H14ClNO2S/c16-12-4-2-1-3-11(12)14(15(18)19)17-7-5-13-10(9-17)6-8-20-13/h1-4,6,8,14H,5,7,9H2,(H,18,19)
Instrument: TripleTOF 6600 SCIEX
Instrument type: LC-ESI-QTOF
Ms type: MS2
Ion mode: POSITIVE
Collision energy: 130
Fragmentation mode: CID
Ionization: ESI
Column name: Zorbax Eclipse Plus C18 2.1 mm x 150 mm, 3.5 um, Agilent
Retention time: 6.621 min
Precursor m/z: 308.0507
Precursor type: [M+H]+
m/z	relative intensity
39.0238	28
44.9797	13
48.9844	12
49.008	90
50.0159	465
51.024	999
52.0314	36
61.0074	25
62.0166	52
63.0235	121
64.0312	11
65.0397	16
68.9801	11
72.9843	72
74.0158	33
75.0236	27
77.0394	312
78.0468	54
89.0392	203
90.0467	33
98.9999	31
105.0432	10
