Mass spectrum: 3,3-Diphenylacrylonitrile; LC-ESI-QTOF; MS2; 140 V
Name: 3,3-Diphenylacrylonitrile
Formula: C15H11N
Exact mass: 205.0891
SMILES: C1=CC=C(C=C1)C(=CC#N)C2=CC=CC=C2
InChI: InChI=1S/C15H11N/c16-12-11-15(13-7-3-1-4-8-13)14-9-5-2-6-10-14/h1-11H
Instrument: TripleTOF 6600 SCIEX
Instrument type: LC-ESI-QTOF
Ms type: MS2
Ion mode: POSITIVE
Collision energy: 140
Fragmentation mode: CID
Ionization: ESI
Column name: Zorbax Eclipse Plus C18 2.1 mm x 150 mm, 3.5 um, Agilent
Retention time: 13.746 min
Precursor m/z: 206.0964
Precursor type: [M+H]+
m/z	relative intensity
37.0056	50
39.0219	25
49.0061	177
50.0138	999
51.0223	404
61.0059	139
62.0139	139
63.0225	44
73.0063	214
74.0136	512
75.0204	44
85.0064	107
86.0136	75
97.0073	50
98.0123	151
109.0071	37
110.0092	31
