Mass spectrum: Benzotriazole; LC-ESI-QTOF; MS2; 40 V
Name: Benzotriazole
Class: Industrial_process; Industrial_process; Industrial_process; Antimicrobial; Personal_care_product
Formula: C6H5N3
Exact mass: 119.0483
SMILES: C1=CC2=NNN=C2C=C1
InChI: InChI=1S/C6H5N3/c1-2-4-6-5(3-1)7-9-8-6/h1-4H,(H,7,8,9)
Instrument: TripleTOF 6600 SCIEX
Instrument type: LC-ESI-QTOF
Ms type: MS2
Ion mode: POSITIVE
Collision energy: 40
Fragmentation mode: CID
Ionization: ESI
Column name: Zorbax Eclipse Plus C18 2.1 mm x 150 mm, 3.5 um, Agilent
Retention time: 5.876 min
Precursor m/z: 120.0556
Precursor type: [M+H]+
m/z	relative intensity
35.9995	25
37.0072	92
38.015	94
39.0231	680
40.0183	10
42.0338	12
43.0292	19
50.0153	28
51.0231	48
52.018	19
62.014	10
63.0229	25
64.0292	14
65.0385	999
66.0336	39
91.0403	14
92.0492	108
120.0549	218
