Mass spectrum: Hydroxy-DEET; LC-ESI-QTOF; MS2; 110 V
Name: Hydroxy-DEET
Class: Metabolite
Formula: C12H17NO2
Exact mass: 207.1259
SMILES: CCN(CC)C(=O)C1=CC(=CC=C1)CO
InChI: InChI=1S/C12H17NO2/c1-3-13(4-2)12(15)11-7-5-6-10(8-11)9-14/h5-8,14H,3-4,9H2,1-2H3
Instrument: TripleTOF 5600 SCIEX
Instrument type: LC-ESI-QTOF
Ms type: MS2
Ion mode: POSITIVE
Collision energy: 110
Fragmentation mode: CID
Ionization: ESI
Column name: Zorbax Eclipse Plus C18 2.1 mm x 150 mm, 3.5 um, Agilent
Retention time: 6.973 min
Precursor m/z: 208.1332
Precursor type: [M+H]+
m/z	relative intensity
44.0253	134
49.0178	32
50.0255	262
60.0081	35
61.0146	210
62.0231	625
63.0311	999
65.0451	57
74.021	23
75.0277	15
76.0374	13
77.0436	161
86.0182	13
89.043	160
91.0581	13
