Mass spectrum: Flecainide; LC-ESI-QTOF; MS2; 140 V
Name: Flecainide
Class: Pharmaceutical
Formula: C17H20F6N2O3
Exact mass: 414.1378
SMILES: FC(F)(F)COc1ccc(OCC(F)(F)F)c(c1)C(=O)NCC2CCCCN2
InChI: InChI=1S/C17H20F6N2O3/c18-16(19,20)9-27-12-4-5-14(28-10-17(21,22)23)13(7-12)15(26)25-8-11-3-1-2-6-24-11/h4-5,7,11,24H,1-3,6,8-10H2,(H,25,26)
Instrument: TripleTOF 5600 SCIEX
Instrument type: LC-ESI-QTOF
Ms type: MS2
Ion mode: POSITIVE
Collision energy: 140
Fragmentation mode: CID
Ionization: ESI
Column name: Zorbax Eclipse Plus C18 2.1 mm x 150 mm, 3.5 um, Agilent
Retention time: 7.983 min
Precursor m/z: 415.1451
Precursor type: [M+H]+
m/z	relative intensity
44.0634	28
51.03	999
53.0082	245
53.043	20
55.0589	71
56.0543	122
57.0195	40
63.0083	22
64.035	57
65.0421	42
66.0491	14
67.0559	12
68.0522	20
70.0245	38
70.0688	28
71.0321	26
74.0182	28
75.0088	24
75.025	69
77.0409	192
79.0209	829
79.0551	98
79.0737	10
80.0518	20
81.0162	45
81.0329	14
81.0721	55
82.0229	18
82.0671	22
83.0118	120
83.0305	59
84.0827	124
88.013	65
92.0263	18
95.0304	32
98.0963	32
99.024	112
101.0193	53
107.012	92
114.0276	65
