Mass spectrum: Thioridazine; LC-ESI-QTOF; MS2; 80 V
Name: Thioridazine
Class: Pharmaceutical
Formula: C21H26N2S2
Exact mass: 370.1537
SMILES: CN1CCCCC1CCN2C3=CC=CC=C3SC4=C2C=C(C=C4)SC
InChI: InChI=1S/C21H26N2S2/c1-22-13-6-5-7-16(22)12-14-23-18-8-3-4-9-20(18)25-21-11-10-17(24-2)15-19(21)23/h3-4,8-11,15-16H,5-7,12-14H2,1-2H3
Instrument: TripleTOF 5600 SCIEX
Instrument type: LC-ESI-QTOF
Ms type: MS2
Ion mode: POSITIVE
Collision energy: 80
Fragmentation mode: CID
Ionization: ESI
Column name: Zorbax Eclipse Plus C18 2.1 mm x 150 mm, 3.5 um, Agilent
Retention time: 9.472 min
Precursor m/z: 371.161
Precursor type: [M+H]+
m/z	relative intensity
42.0441	67
44.0575	19
55.0608	58
58.0714	120
67.0582	13
68.0533	48
70.0704	492
82.0674	20
83.0749	20
84.0827	45
96.0814	33
98.099	999
126.1282	107
139.0537	30
151.0558	17
152.0602	15
153.0569	24
154.0645	21
166.0652	66
167.0733	393
171.0264	10
177.0578	26
178.0649	108
179.0729	138
180.0816	13
183.0271	13
184.033	10
186.0371	32
197.0294	11
198.0372	41
199.0453	75
204.0801	17
209.0296	32
210.0372	120
211.0452	249
223.0452	11
226.0686	35
230.0093	14
242.0082	23
