Mass spectrum: Desmethylranitidine; LC-ESI-QTOF; MS2; 90 V
Name: Desmethylranitidine
Class: Pharmaceutical; Transformation_product; Transformation_product-Metabolite
Formula: C12H20N4O3S
Exact mass: 300.1256
SMILES: CNCC1=CC=C(O1)CSCCNC(=C[N+](=O)[O-])NC
InChI: InChI=1S/C12H20N4O3S/c1-13-7-10-3-4-11(19-10)9-20-6-5-15-12(14-2)8-16(17)18/h3-4,8,13-15H,5-7,9H2,1-2H3
Instrument: TripleTOF 5600 SCIEX
Instrument type: LC-ESI-QTOF
Ms type: MS2
Ion mode: NEGATIVE
Collision energy: 90
Fragmentation mode: CID
Ionization: ESI
Column name: Zorbax Eclipse Plus C18 2.1 mm x 150 mm, 3.5 um, Agilent
Retention time: 4.769 min
Precursor m/z: 299.1183
Precursor type: [M-H]-
m/z	relative intensity
41.9974	49
42.0025	99
45.9936	999
46.0052	99
46.0104	49
55.0285	199
56.9848	149
60.0085	849
60.0235	149
69.0093	149
70.9972	99
85.0039	149
107.0418	99
110.9877	249
111.9964	149
116.0454	149
