Mass spectrum: Nitrazepam; LC-ESI-QTOF; MS2; 40 V
Name: Nitrazepam
Class: Pharmaceutical
Formula: C15H11N3O3
Exact mass: 281.08
SMILES: C1C(=O)NC2=C(C=C(C=C2)[N+](=O)[O-])C(=N1)C3=CC=CC=C3
InChI: InChI=1S/C15H11N3O3/c19-14-9-16-15(10-4-2-1-3-5-10)12-8-11(18(20)21)6-7-13(12)17-14/h1-8H,9H2,(H,17,19)
Instrument: TripleTOF 6600 SCIEX
Instrument type: LC-ESI-QTOF
Ms type: MS2
Ion mode: POSITIVE
Collision energy: 40
Fragmentation mode: CID
Ionization: ESI
Column name: Zorbax Eclipse Plus C18 2.1 mm x 150 mm, 3.5 um, Agilent
Retention time: 9.435 min
Precursor m/z: 282.0873
Precursor type: [M+H]+
m/z	relative intensity
91.0528	18
103.0396	11
104.0479	19
105.0555	12
130.051	40
152.0609	16
153.0682	10
158.046	11
164.0613	10
165.0686	14
167.0731	10
168.0755	13
176.0441	15
179.0712	31
180.0798	432
190.064	57
191.072	27
192.0798	25
193.0834	18
194.0924	25
195.0894	14
196.0751	20
206.0823	35
207.091	471
208.0981	117
223.0851	20
235.086	92
236.0939	999
251.0794	15
282.086	43
