Mass spectrum: Flurtamone; LC-ESI-QTOF; MS2; 30 V
Name: Flurtamone
Class: Herbicide
Formula: C18H14F3NO2
Exact mass: 333.0977
SMILES: CNC1=C(C(=O)C(O1)C2=CC=CC=C2)C3=CC(=CC=C3)C(F)(F)F
InChI: InChI=1S/C18H14F3NO2/c1-22-17-14(12-8-5-9-13(10-12)18(19,20)21)15(23)16(24-17)11-6-3-2-4-7-11/h2-10,16,22H,1H3
Instrument: TripleTOF 6600 SCIEX
Instrument type: LC-ESI-QTOF
Ms type: MS2
Ion mode: POSITIVE
Collision energy: 30
Fragmentation mode: CID
Ionization: ESI
Column name: Zorbax Eclipse Plus C18 2.1 mm x 150 mm, 3.5 um, Agilent
Retention time: 11.864 min
Precursor m/z: 334.105
Precursor type: [M+H]+
m/z	relative intensity
58.0288	22
103.0543	16
105.034	138
120.0811	40
131.0494	16
171.0423	20
178.0788	38
199.0375	13
209.0769	10
225.0172	42
227.0682	42
229.0831	10
247.077	999
257.0793	72
275.07	217
277.0853	42
286.1052	17
288.1014	22
303.0652	226
306.1125	187
334.1079	345
