Mass spectrum: Betamethasone; LC-ESI-QTOF; MS2; 20 V
Name: Betamethasone
Class: Pharmaceutical
Formula: C22H29FO5
Exact mass: 392.1999
SMILES: C[C@H]1C[C@H]2[C@@H]3CCC4=CC(=O)C=C[C@@]4([C@]3([C@H](C[C@@]2([C@]1(C(=O)CO)O)C)O)F)C
InChI: InChI=1S/C22H29FO5/c1-12-8-16-15-5-4-13-9-14(25)6-7-19(13,2)21(15,23)17(26)10-20(16,3)22(12,28)18(27)11-24/h6-7,9,12,15-17,24,26,28H,4-5,8,10-11H2,1-3H3/t12-,15-,16-,17-,19-,20-,21-,22-/m0/s1
Instrument: TripleTOF 5600 SCIEX
Instrument type: LC-ESI-QTOF
Ms type: MS2
Ion mode: POSITIVE
Collision energy: 20
Fragmentation mode: CID
Ionization: ESI
Column name: Zorbax Eclipse Plus C18 2.1 mm x 150 mm, 3.5 um, Agilent
Retention time: 9.016 min
Precursor m/z: 393.2072
Precursor type: [M+H]+
m/z	relative intensity
107.0883	14
115.0756	12
121.0652	11
123.0805	14
135.0811	29
137.0954	17
147.081	95
149.0953	26
153.0916	49
159.0809	22
161.0961	30
167.1076	18
171.081	66
173.0974	53
177.0918	36
185.0954	46
187.0753	25
187.1111	15
195.1007	27
197.0962	26
199.1126	33
203.105	13
209.0959	10
211.1114	43
213.1274	17
215.1075	64
221.0951	11
223.1128	35
225.1275	31
227.1433	11
235.1118	32
237.1275	111
239.1066	13
239.1427	49
241.123	10
249.124	21
251.1418	15
253.1236	29
253.1564	33
255.1374	22
261.1282	16
263.1434	55
265.1588	16
267.1389	45
267.1771	11
269.1902	10
275.1433	41
277.1594	116
278.168	35
279.1743	371
281.1939	13
289.1583	48
291.1739	170
293.154	22
295.134	18
295.17	93
297.1839	64
301.1586	80
307.169	92
309.1849	158
311.1649	167
319.1691	267
325.18	77
327.196	57
337.1802	444
355.1911	999
357.1884	13
373.2013	664
393.207	117
