Mass spectrum: 1-Hydroxybenzotriazol; LC-ESI-QTOF; MS2; 50 V
Name: 1-Hydroxybenzotriazol
Class: Pharmaceutical; Industrial_process; Transformation_product
Formula: C6H5N3O
Exact mass: 135.0433
SMILES: c1ccc2c(c1)nnn2O
InChI: InChI=1S/C6H5N3O/c10-9-6-4-2-1-3-5(6)7-8-9/h1-4,10H
Instrument: TripleTOF 5600 SCIEX
Instrument type: LC-ESI-QTOF
Ms type: MS2
Ion mode: POSITIVE
Collision energy: 50
Fragmentation mode: CID
Ionization: ESI
Column name: Zorbax Eclipse Plus C18 2.1 mm x 150 mm, 3.5 um, Agilent
Retention time: 5.24 min
Precursor m/z: 136.0505
Precursor type: [M+H]+
m/z	relative intensity
41.0344	27
51.0172	12
51.0284	19
52.025	216
60.0042	10
61.0117	62
62.0203	136
63.0283	999
64.0355	384
65.0305	189
76.0217	62
77.0413	50
78.0488	21
90.0367	24
91.0436	189
119.0505	16
