Mass spectrum: N-[2-[(2-Bromo-4,6-dinitrophenyl)azo]-5-(diethylamino)phenyl]acetamide; LC-ESI-QTOF; MS2; 80 V
Name: N-[2-[(2-Bromo-4,6-dinitrophenyl)azo]-5-(diethylamino)phenyl]acetamide
Formula: C18H19BrN6O5
Exact mass: 478.06
SMILES: CCN(CC)C1=CC(=C(C=C1)N=NC2=C(C=C(C=C2Br)[N+](=O)[O-])[N+](=O)[O-])NC(=O)C
InChI: InChI=1S/C18H19BrN6O5/c1-4-23(5-2)12-6-7-15(16(9-12)20-11(3)26)21-22-18-14(19)8-13(24(27)28)10-17(18)25(29)30/h6-10H,4-5H2,1-3H3,(H,20,26)
Instrument: TripleTOF X500R SCIEX
Instrument type: LC-ESI-QTOF
Ms type: MS2
Ion mode: POSITIVE
Collision energy: 80
Fragmentation mode: CID
Ionization: ESI
Column name: Zorbax Eclipse Plus C18 2.1 mm x 150 mm, 3.5 um, Agilent
Retention time: 16.579 min
Precursor m/z: 479.0673
Precursor type: [M+H]+
m/z	relative intensity
43.0178	76
80.0498	92
92.0512	47
93.0577	256
94.0658	102
95.0601	26
104.0504	38
105.0457	80
106.0529	26
106.0657	49
107.0375	59
107.0604	261
108.0453	133
108.068	33
108.081	76
109.0765	83
117.056	80
118.066	54
119.0607	102
120.0592	221
121.0765	999
122.0615	38
122.0967	42
123.0911	33
128.9344	26
131.0602	54
132.0439	23
132.0785	38
133.0646	244
134.072	487
135.0606	11
135.0919	107
136.0765	107
145.076	64
146.071	80
147.0562	118
147.0802	145
148.0638	366
148.0883	218
149.0727	16
149.1076	235
150.0915	19
161.0706	97
161.1013	26
162.0777	76
162.1027	192
163.0868	575
163.1219	107
167.071	38
175.0756	42
176.09	16
176.1179	16
177.1024	173
179.0623	30
191.1186	589
193.0759	92
194.0734	126
195.086	21
221.0853	68
222.0678	16
222.091	9
222.11	35
237.1156	45
244.9829	23
250.0981	11
250.1305	42
257.9836	23
265.1452	116
271.9863	16
272.992	66
273.9943	11
284.9913	33
300.0006	35
300.9922	45
313.0252	11
315.027	16
328.044	54
329.0503	14
344.0628	23
345.9952	11
