Mass spectrum: N,N`-diphenyl-p-phenylenediamine; LC-ESI-QTOF; MS2; 80 V
Name: N,N`-diphenyl-p-phenylenediamine
Class: Industrial_process
Formula: C18H16N2
Exact mass: 260.1313
SMILES: N(c1ccccc1)c2ccc(Nc3ccccc3)cc2
InChI: InChI=1S/C18H16N2/c1-3-7-15(8-4-1)19-17-11-13-18(14-12-17)20-16-9-5-2-6-10-16/h1-14,19-20H
Instrument: TripleTOF 5600 SCIEX
Instrument type: LC-ESI-QTOF
Ms type: MS2
Ion mode: POSITIVE
Collision energy: 80
Fragmentation mode: CID
Ionization: ESI
Column name: Zorbax Eclipse Plus C18 2.1 mm x 150 mm, 3.5 um, Agilent
Retention time: 14.544 min
Precursor m/z: 261.1386
Precursor type: [M+H]+
m/z	relative intensity
52.0354	12
64.035	13
65.0436	65
66.051	64
75.026	10
77.0423	202
78.045	74
79.0476	26
80.054	999
81.0618	25
89.0413	32
90.0411	74
91.0438	63
91.0562	11
92.0511	24
93.0595	57
101.0395	20
102.0457	26
103.054	24
104.0538	14
105.0455	30
106.0646	12
107.0622	716
113.0403	18
114.0462	13
115.0552	116
116.0561	52
117.058	64
118.0538	63
127.0555	93
128.0618	314
129.0671	211
130.0664	80
131.0687	18
139.0546	216
140.0535	218
141.0539	71
142.0648	22
143.0736	30
154.0651	102
155.0691	92
156.0811	69
157.0828	10
165.0555	18
166.066	269
167.0731	357
168.0749	118
169.076	15
181.0765	97
182.0828	157
183.0915	64
184.098	24
