Mass spectrum: Mitomycin A; LC-ESI-QTOF; MS2; 100 V
Name: Mitomycin A
Class: Pharmaceutical
Formula: C16H19N3O6
Exact mass: 349.1274
SMILES: COC1=C(C)C(=O)C2=C([C@H](COC(N)=O)[C@]3(OC)[C@@H]4N[C@@H]4CN23)C1=O
InChI: InChI=1S/C16H19N3O6/c1-6-11(20)10-9(12(21)13(6)23-2)7(5-25-15(17)22)16(24-3)14-8(18-14)4-19(10)16/h7-8,14,18H,4-5H2,1-3H3,(H2,17,22)/t7-,8+,14+,16-/m0/s1
Instrument: TripleTOF 5600 SCIEX
Instrument type: LC-ESI-QTOF
Ms type: MS2
Ion mode: POSITIVE
Collision energy: 100
Fragmentation mode: CID
Ionization: ESI
Column name: Zorbax Eclipse Plus C18 2.1 mm x 150 mm, 3.5 um, Agilent
Retention time: 7.046 min
Precursor m/z: 350.1347
Precursor type: [M+H]+
m/z	relative intensity
51.0281	45
65.0424	155
67.0472	36
75.0244	119
76.0309	91
77.0414	843
78.0358	192
78.0479	201
79.0437	73
79.0562	64
80.0508	54
81.052	45
89.0399	531
90.046	109
91.0544	485
92.0513	137
92.0646	36
93.0596	54
101.0379	155
102.045	265
103.0409	82
103.0536	430
104.0109	45
104.0494	623
105.0455	91
105.0566	73
105.071	64
106.0626	45
113.0372	64
114.0331	54
114.0443	100
115.0533	870
116.0482	394
117.0429	100
117.0558	522
117.0857	36
118.064	320
119.0569	36
119.071	45
120.0446	64
126.0434	45
127.0532	155
128.0496	485
129.0553	311
130.0644	696
131.0604	394
132.0435	73
132.0655	73
133.0759	36
140.0487	201
141.0573	311
142.0509	219
142.0633	238
143.0602	137
143.0736	45
144.0423	36
144.0795	73
145.0415	45
145.0763	54
146.0598	64
147.0644	45
152.0486	36
153.0587	45
154.0644	155
155.0596	999
156.0677	641
157.0744	714
158.0604	45
159.0545	73
160.0738	36
166.0532	82
167.0581	54
168.0672	339
169.0762	494
170.083	82
181.0761	137
183.0539	45
184.062	64
185.0713	91
197.0709	155
198.0803	73
211.0516	45
213.0682	54
227.0855	45
