Mass spectrum: Simvastatin; LC-ESI-QTOF; MS2; 120 V
Name: Simvastatin
Class: Pharmaceutical
Formula: C25H38O5
Exact mass: 418.2719
SMILES: CCC(C)(C)C(=O)O[C@H]1C[C@@H](C)C=C2C=C[C@H](C)[C@H](CC[C@@H]3C[C@@H](O)CC(=O)O3)[C@@H]12
InChI: InChI=1S/C25H38O5/c1-6-25(4,5)24(28)30-21-12-15(2)11-17-8-7-16(3)20(23(17)21)10-9-19-13-18(26)14-22(27)29-19/h7-8,11,15-16,18-21,23,26H,6,9-10,12-14H2,1-5H3/t15-,16-,18+,19+,20-,21-,23-/m0/s1
Instrument: TripleTOF 5600 SCIEX
Instrument type: LC-ESI-QTOF
Ms type: MS2
Ion mode: POSITIVE
Collision energy: 120
Fragmentation mode: CID
Ionization: ESI
Column name: Zorbax Eclipse Plus C18 2.1 mm x 150 mm, 3.5 um, Agilent
Retention time: 15.438 min
Precursor m/z: 419.2792
Precursor type: [M+H]+
m/z	relative intensity
65.0423	76
77.0415	268
79.0561	182
91.0549	365
103.0542	38
105.0695	182
115.0537	576
116.0632	76
117.0698	86
127.0547	240
128.0623	999
128.0858	57
129.0692	374
130.0753	48
131.0854	67
141.0687	518
142.0775	57
143.0851	144
152.0603	182
153.0698	230
154.0777	86
155.0851	57
165.0686	163
166.0774	48
167.0869	57
178.079	76
189.0685	38
203.0847	38
