Mass spectrum: Omeprazole; LC-ESI-QTOF; MS2; 30 V
Name: Omeprazole
Class: Pharmaceutical
Formula: C17H19N3O3S
Exact mass: 345.1147
SMILES: COc1ccc2nc([nH]c2c1)[S](=O)Cc3ncc(C)c(OC)c3C
InChI: InChI=1S/C17H19N3O3S/c1-10-8-18-15(11(2)16(10)23-4)9-24(21)17-19-13-6-5-12(22-3)7-14(13)20-17/h5-8H,9H2,1-4H3,(H,19,20)
Instrument: TripleTOF 5600 SCIEX
Instrument type: LC-ESI-QTOF
Ms type: MS2
Ion mode: POSITIVE
Collision energy: 30
Fragmentation mode: CID
Ionization: ESI
Column name: Zorbax Eclipse Plus C18 2.1 mm x 150 mm, 3.5 um, Agilent
Retention time: 6.462 min
Precursor m/z: 346.122
Precursor type: [M+H]+
m/z	relative intensity
121.0891	34
122.0971	15
136.076	340
149.0713	164
150.0917	110
151.099	641
166.0868	16
168.1021	179
179.0281	108
180.0478	357
181.0559	47
198.0583	999
328.1117	18
