Mass spectrum: Acridine; LC-ESI-QTOF; MS2; 100 V
Name: Acridine
Class: Industrial_process
Formula: C13H9N
Exact mass: 179.0735
SMILES: c1ccc2nc3ccccc3cc2c1
InChI: InChI=1S/C13H9N/c1-3-7-12-10(5-1)9-11-6-2-4-8-13(11)14-12/h1-9H
Instrument: TripleTOF 5600 SCIEX
Instrument type: LC-ESI-QTOF
Ms type: MS2
Ion mode: POSITIVE
Collision energy: 100
Fragmentation mode: CID
Ionization: ESI
Column name: Zorbax Eclipse Plus C18 2.1 mm x 150 mm, 3.5 um, Agilent
Retention time: 5.776 min
Precursor m/z: 180.0808
Precursor type: [M+H]+
m/z	relative intensity
65.0432	11
73.0101	85
74.0195	999
75.0267	679
76.021	29
76.0337	150
77.0423	282
78.0498	29
85.0092	77
86.017	209
87.0252	154
88.0202	14
88.0315	21
89.0406	96
97.0091	35
98.017	440
99.0103	19
99.024	196
100.0313	77
101.0403	53
102.0352	12
102.0472	63
109.0085	32
110.0154	63
111.0239	42
112.0185	11
113.0394	46
122.0155	65
123.0233	36
124.032	36
125.0398	63
126.047	129
127.0447	26
128.0521	11
129.0454	12
137.0388	14
149.0397	74
150.0474	383
151.0508	116
152.0509	28
152.0636	15
175.0429	23
176.0513	29
177.059	32
178.0645	11
