Mass spectrum: Fexofenadine; LC-ESI-QTOF; MS2; 35 V
Name: Fexofenadine
Class: Pharmaceutical
Formula: C32H39NO4
Exact mass: 501.2879
SMILES: CC(C)(C1=CC=C(C=C1)C(CCCN2CCC(CC2)C(C3=CC=CC=C3)(C4=CC=CC=C4)O)O)C(=O)O
InChI: InChI=1S/C32H39NO4/c1-31(2,30(35)36)25-17-15-24(16-18-25)29(34)14-9-21-33-22-19-28(20-23-33)32(37,26-10-5-3-6-11-26)27-12-7-4-8-13-27/h3-8,10-13,15-18,28-29,34,37H,9,14,19-23H2,1-2H3,(H,35,36)
Instrument: TripleTOF 5600 SCIEX
Instrument type: LC-ESI-QTOF
Ms type: MS2
Ion mode: POSITIVE
Collision energy: 35
Fragmentation mode: CID
Ionization: ESI
Column name: Zorbax Eclipse Plus C18 2.1 mm x 150 mm, 3.5 um, Agilent
Retention time: 8.7 min
Precursor m/z: 502.2952
Precursor type: [M+H]+
m/z	relative intensity
59.0487	0
82.0652	0
87.0448	0
91.056	0
96.0836	0
98.0982	0
105.0712	0
111.1038	0
117.0689	0
128.0594	0
129.0737	0
131.0884	2
132.0844	0
141.0611	0
142.0762	0
143.0815	2
144.0903	0
145.0937	0
147.0788	0
152.066	0
153.0641	0
154.0701	0
155.0842	0
156.0921	0
157.0939	0
158.0942	0
159.1119	0
165.0691	0
166.075	0
167.084	1
168.0912	0
169.1014	1
170.0901	0
170.2813	0
171.0375	0
171.1161	128
172.1206	4
173.1279	1
174.1284	0
177.0918	1
178.0735	0
179.0881	0
181.0955	0
183.1141	0
185.1235	0
187.113	0
188.1169	0
189.0666	0
189.1286	4
190.1327	0
191.0719	3
192.0707	0
193.0982	0
200.1442	0
202.079	0
202.1592	0
203.0847	0
205.1036	1
206.106	0
215.0778	0
216.0932	0
217.1221	3
218.1034	0
219.1148	1
220.1118	0
229.1184	0
230.155	0
231.1139	1
233.1181	17
234.1177	0
246.1496	4
250.1579	11
252.1772	1
253.163	0
258.1508	0
260.1657	4
261.1669	0
262.1579	28
264.1761	0
272.1587	2
276.1602	2
278.175	0
280.172	3
281.1732	0
288.174	1
289.183	0
294.1834	0
298.1808	5
299.1876	0
300.1896	0
301.1998	0
374.209	0
421.2689	0
466.2577	999
467.2727	96
484.275	500
485.2763	41
502.2952	252
