Mass spectrum: 3-Desmethyl-trimethoprim; LC-ESI-QTOF; MS2; 150 V
Name: 3-Desmethyl-trimethoprim
Class: Pharmaceutical; Transformation_product; Transformation_product-Metabolite
Formula: C13H16N4O3
Exact mass: 276.1222
SMILES: OC1=CC(CC2=CN=C(N=C2N)N)=CC(OC)=C1OC
InChI: InChI=1S/C13H16N4O3/c1-19-10-5-7(4-9(18)11(10)20-2)3-8-6-16-13(15)17-12(8)14/h4-6,18H,3H2,1-2H3,(H4,14,15,16,17)
Instrument: TripleTOF 5600 SCIEX
Instrument type: LC-ESI-QTOF
Ms type: MS2
Ion mode: POSITIVE
Collision energy: 150
Fragmentation mode: CID
Ionization: ESI
Column name: Zorbax Eclipse Plus C18 2.1 mm x 150 mm, 3.5 um, Agilent
Retention time: 5.021 min
Precursor m/z: 277.1295
Precursor type: [M+H]+
m/z	relative intensity
41.037	161
43.0413	837
52.0284	864
53.0109	108
53.0317	108
54.0443	432
65.0445	323
66.0401	108
67.034	188
67.0479	134
73.0125	161
74.0196	999
75.0172	351
75.0288	432
76.0225	567
76.0376	134
77.0436	594
78.0394	269
79.033	134
88.0242	161
89.0429	404
90.0387	134
98.0178	134
99.0156	108
105.048	161
114.034	134
