Mass spectrum: Trifloxystrobin acid; LC-ESI-QTOF; MS2; 120 V
Name: Trifloxystrobin acid
Class: Metabolite; Fungicide; Transformation_product
Formula: C19H17F3N2O4
Exact mass: 394.114
SMILES: FC(F)(F)c1cccc(c1)C(\C)=N\OCc2ccccc2C(=N\O)\C(=O)OC
InChI: InChI=1S/C19H17F3N2O4/c1-12(13-7-5-8-15(10-13)19(20,21)22)24-28-11-14-6-3-4-9-16(14)17(23-26)18(25)27-2/h3-10,26H,11H2,1-2H3/b23-17-,24-12+
Instrument: TripleTOF 5600 SCIEX
Instrument type: LC-ESI-QTOF
Ms type: MS2
Ion mode: POSITIVE
Collision energy: 120
Fragmentation mode: CID
Ionization: ESI
Column name: Zorbax Eclipse Plus C18 2.1 mm x 150 mm, 3.5 um, Agilent
Retention time: 13.286 min
Precursor m/z: 395.1213
Precursor type: [M+H]+
m/z	relative intensity
51.0137	25
57.0237	16
65.0464	30
69.0028	80
73.0142	19
74.0214	229
75.0289	697
77.0433	35
81.0187	25
88.0236	17
89.0432	999
90.0505	191
91.0553	13
95.0329	712
99.0065	83
104.0516	27
105.0169	15
109.0479	12
114.0342	12
116.0509	278
117.0594	85
119.0109	68
123.0367	32
125.0214	267
145.0268	465
172.0388	17
