Mass spectrum: 5,6-Dimethyl-1H-benzotriazol; LC-ESI-QTOF; MS2; 40 V
Name: 5,6-Dimethyl-1H-benzotriazol
Class: Industrial_process; Antimicrobial
Formula: C8H9N3
Exact mass: 147.0796
SMILES: Cc1cc2n[nH]nc2cc1C
InChI: InChI=1S/C8H9N3/c1-5-3-7-8(4-6(5)2)10-11-9-7/h3-4H,1-2H3,(H,9,10,11)
Instrument: TripleTOF 5600 SCIEX
Instrument type: LC-ESI-QTOF
Ms type: MS2
Ion mode: POSITIVE
Collision energy: 40
Fragmentation mode: CID
Ionization: ESI
Column name: Zorbax Eclipse Plus C18 2.1 mm x 150 mm, 3.5 um, Agilent
Retention time: 8.012 min
Precursor m/z: 148.0869
Precursor type: [M+H]+
m/z	relative intensity
42.0429	12
53.0448	33
54.0386	11
65.043	162
66.0498	25
67.0581	10
77.0425	999
78.0391	34
78.0478	69
79.0564	26
80.0524	101
91.0567	506
92.0508	34
93.0704	233
94.0669	26
102.0477	18
103.055	88
104.0506	284
105.0576	70
117.057	26
118.0653	98
119.0729	38
120.0805	67
148.0872	244
