Mass spectrum: Fenhexamid; LC-ESI-QTOF; MS2; 40 V
Name: Fenhexamid
Class: Fungicide
Formula: C14H17Cl2NO2
Exact mass: 301.0636
SMILES: CC1(CCCCC1)C(=O)Nc2ccc(c(c2Cl)Cl)O
InChI: InChI=1S/C14H17Cl2NO2/c1-14(7-3-2-4-8-14)13(19)17-9-5-6-10(18)12(16)11(9)15/h5-6,18H,2-4,7-8H2,1H3,(H,17,19)
Instrument: TripleTOF 6600 SCIEX
Instrument type: LC-ESI-QTOF
Ms type: MS2
Ion mode: NEGATIVE
Collision energy: 40
Fragmentation mode: CID
Ionization: ESI
Column name: Zorbax Eclipse Plus C18 2.1 mm x 150 mm, 3.5 um, Agilent
Retention time: 12.5 min
Precursor m/z: 300.0563
Precursor type: [M-H]-
m/z	relative intensity
34.97	111
138.9847	42
155.9859	23
157.0544	12
166.9771	42
167.9852	58
174.9594	29
180.996	52
184.0437	12
184.0754	14
185.0468	18
185.0857	98
192.9934	32
194.0013	38
195.0115	62
200.1054	16
207.0112	23
208.0188	38
212.0764	42
213.0802	69
220.019	100
221.0246	222
228.1033	20
234.0304	16
248.0479	284
249.0554	664
264.0794	999
300.0566	12
