Mass spectrum: Chloridazon; LC-ESI-QTOF; MS2; 30 V
Name: Chloridazon
Class: Herbicide
Formula: C10H8ClN3O
Exact mass: 221.0356
SMILES: C1=CC=C(C=C1)N2C(=O)C(=C(C=N2)N)Cl
InChI: InChI=1S/C10H8ClN3O/c11-9-8(12)6-13-14(10(9)15)7-4-2-1-3-5-7/h1-6H,12H2
Instrument: TripleTOF 6600 SCIEX
Instrument type: LC-ESI-QTOF
Ms type: MS2
Ion mode: POSITIVE
Collision energy: 30
Fragmentation mode: CID
Ionization: ESI
Column name: Zorbax Eclipse Plus C18 2.1 mm x 150 mm, 3.5 um, Agilent
Retention time: 6.924 min
Precursor m/z: 222.0429
Precursor type: [M+H]+
m/z	relative intensity
55.0287	12
65.0387	47
77.0389	118
83.0243	15
87.9947	12
92.0498	200
93.057	11
94.0652	61
100.99	18
104.0497	303
128.9853	72
130.0656	13
146.0114	65
159.0555	13
186.0666	26
193.029	50
205.0167	14
222.0437	999
