Mass spectrum: 2-(5-Chloro-2-methoxyphenyl)-1H-benzimidazole; LC-ESI-QTOF; MS2; 130 V
Name: 2-(5-Chloro-2-methoxyphenyl)-1H-benzimidazole
Class: Pharmaceutical
Formula: C14H11ClN2O
Exact mass: 258.056
SMILES: COc1ccc(cc1c2[nH]c3ccccc3n2)Cl
InChI: InChI=1S/C14H11ClN2O/c1-18-13-7-6-9(15)8-10(13)14-16-11-4-2-3-5-12(11)17-14/h2-8H,1H3,(H,16,17)
Instrument: TripleTOF 5600 SCIEX
Instrument type: LC-ESI-QTOF
Ms type: MS2
Ion mode: POSITIVE
Collision energy: 130
Fragmentation mode: CID
Ionization: ESI
Column name: Zorbax Eclipse Plus C18 2.1 mm x 150 mm, 3.5 um, Agilent
Retention time: 7.374 min
Precursor m/z: 259.0633
Precursor type: [M+H]+
m/z	relative intensity
52.0254	191
60.0056	50
61.0226	40
64.0356	181
65.0308	70
65.043	504
66.0392	50
72.9898	60
73.0106	100
74.0185	999
75.0128	90
75.0262	898
76.0202	211
76.0325	222
77.0413	494
78.0481	50
86.0153	70
87.0253	90
88.0282	70
89.0399	70
90.0351	70
91.0423	60
91.0544	40
98.017	151
99.0107	60
99.0227	191
100.0192	50
100.0298	40
101.0391	121
102.0397	242
103.0423	60
113.0392	40
114.0349	70
125.0398	100
126.0461	161
127.0428	90
127.054	90
128.0513	80
151.0449	111
152.0507	100
179.0592	80
