Mass spectrum: Salbutamol; LC-ESI-QTOF; MS2; 40 V
Name: Salbutamol
Class: Pharmaceutical
Formula: C13H21NO3
Exact mass: 239.1521
SMILES: CC(C)(NCC(c1cc(CO)c(O)cc1)O)C
InChI: InChI=1S/C13H21NO3/c1-13(2,3)14-7-12(17)9-4-5-11(16)10(6-9)8-15/h4-6,12,14-17H,7-8H2,1-3H3
Instrument: TripleTOF 5600 SCIEX
Instrument type: LC-ESI-QTOF
Ms type: MS2
Ion mode: POSITIVE
Collision energy: 40
Fragmentation mode: CID
Ionization: ESI
Column name: Zorbax Eclipse Plus C18 2.1 mm x 150 mm, 3.5 um, Agilent
Retention time: 4.69 min
Precursor m/z: 240.1594
Precursor type: [M+H]+
m/z	relative intensity
55.0232	23
57.0754	72
77.0413	103
79.0569	92
80.052	50
81.0355	23
91.0561	187
93.0712	120
94.0652	14
103.0549	135
106.0656	41
107.0489	12
117.0573	23
118.0651	85
119.0498	28
120.0813	220
121.0653	541
130.0657	375
131.0498	80
131.0713	19
133.0528	395
135.0673	15
136.0745	16
146.06	16
147.0687	17
148.0763	999
