Mass spectrum: (Benzotriazol-1-yloxy)-tris(dimethylamino)phosphonium; LC-ESI-QTOF; MS2; 40 V
Name: (Benzotriazol-1-yloxy)-tris(dimethylamino)phosphonium
Class: Industrial_process
Formula: C12H22N6OP
Exact mass: 297.1587
InChI: InChI=1S/C12H22N6OP/c1-15(2)20(16(3)4,17(5)6)19-18-12-10-8-7-9-11(12)13-14-18/h7-10H,1-6H3/q+1
Instrument: TripleTOF 5600 SCIEX
Instrument type: LC-ESI-QTOF
Ms type: CID
Ion mode: POSITIVE
Collision energy: 40
Ionization: ESI
Column name: Zorbax Eclipse Plus C18 2.1 mm x 150 mm, 3.5 um, Agilent
Retention time: 5.969 min
Precursor m/z: 297.1587
Precursor type: [M]+
m/z	relative intensity
76.0316	146
90.0346	365
92.0266	73
119.0718	219
135.067	999
136.0737	97
138.0102	645
182.0569	48
