Mass spectrum: Itraconazole; LC-ESI-QTOF; MS2; 60 V
Name: Itraconazole
Class: Pharmaceutical
Formula: C35H38Cl2N8O4
Exact mass: 704.2393
SMILES: CCC(C)N1C(=O)N(C=N1)C2=CC=C(C=C2)N3CCN(CC3)C4=CC=C(C=C4)OCC5COC(O5)(CN6C=NC=N6)C7=C(C=C(C=C7)Cl)Cl
InChI: InChI=1S/C35H38Cl2N8O4/c1-3-25(2)45-34(46)44(24-40-45)29-7-5-27(6-8-29)41-14-16-42(17-15-41)28-9-11-30(12-10-28)47-19-31-20-48-35(49-31,21-43-23-38-22-39-43)32-13-4-26(36)18-33(32)37/h4-13,18,22-25,31H,3,14-17,19-21H2,1-2H3
Instrument: TripleTOF 5600 SCIEX
Instrument type: LC-ESI-QTOF
Ms type: MS2
Ion mode: POSITIVE
Collision energy: 60
Fragmentation mode: CID
Ionization: ESI
Column name: Zorbax Eclipse Plus C18 2.1 mm x 150 mm, 3.5 um, Agilent
Retention time: 13.565 min
Precursor m/z: 705.2466
Precursor type: [M+H]+
m/z	relative intensity
119.0727	35
121.0595	35
129.068	35
130.0636	35
132.0778	71
133.048	35
135.0674	35
144.0796	107
146.0907	71
146.1017	35
148.0718	107
158.9772	107
162.0898	35
172.0759	71
174.0818	35
174.0907	428
186.9699	35
192.1113	35
200.1019	107
203.0797	35
203.0931	107
215.0962	35
243.1171	107
256.0043	392
271.1525	35
271.1637	71
279.0791	71
299.1808	142
321.1705	71
322.168	178
322.182	35
335.1506	178
335.1703	71
336.1445	107
348.1548	71
348.1777	214
348.2039	71
376.173	178
376.1943	142
378.1884	35
392.2091	999
393.2108	35
393.2268	35
394.1876	214
394.2131	107
394.2367	71
404.2349	178
404.2514	71
432.2507	214
450.2406	214
