Mass spectrum: Thiamine Disulfide; LC-ESI-QTOF; MS2; 150 V
Name: Thiamine Disulfide
Class: Pharmaceutical
Formula: C24H34N8O4S2
Exact mass: 562.2144
SMILES: CC1=NC=C(C(=N1)N)CN(C=O)C(=C(CCO)SSC(=C(C)N(CC2=CN=C(N=C2N)C)C=O)CCO)C
InChI: InChI=1S/C24H34N8O4S2/c1-15(31(13-35)11-19-9-27-17(3)29-23(19)25)21(5-7-33)37-38-22(6-8-34)16(2)32(14-36)12-20-10-28-18(4)30-24(20)26/h9-10,13-14,33-34H,5-8,11-12H2,1-4H3,(H2,25,27,29)(H2,26,28,30)
Instrument: TripleTOF 6600 SCIEX
Instrument type: LC-ESI-QTOF
Ms type: MS2
Ion mode: POSITIVE
Collision energy: 150
Fragmentation mode: CID
Ionization: ESI
Column name: Zorbax Eclipse Plus C18 2.1 mm x 150 mm, 3.5 um, Agilent
Retention time: 4.48 min
Precursor m/z: 563.2217
Precursor type: [M+H]+
m/z	relative intensity
39.0217	83
42.033	529
43.0171	32
44.9782	18
51.022	18
52.017	78
53.0359	18
54.0327	999
55.0408	882
56.0483	27
58.9936	46
65.0373	74
66.0328	269
67.0399	41
68.0484	23
69.0439	399
70.9938	55
77.0374	60
78.033	55
79.0274	23
79.0404	37
80.0484	130
81.0434	515
82.0514	297
83.0586	32
83.988	18
85.0097	55
87.0248	27
89.0366	32
90.034	27
91.0526	46
92.0483	37
93.0436	134
93.056	32
94.0524	46
94.0651	27
95.0588	97
96.0561	37
97.0101	23
97.0751	32
99.0267	32
102.0316	23
103.028	27
104.0478	55
105.0433	78
106.063	51
107.0588	111
108.0546	74
109.0618	55
110.0704	204
112.0202	204
113.0281	404
114.0367	41
117.0448	55
117.0552	37
118.0531	32
118.064	27
119.0587	65
120.0565	27
121.0773	23
122.0701	51
123.0781	134
124.0858	32
126.0355	111
131.061	97
132.0661	55
133.0751	23
134.0684	65
135.0654	23
143.0591	37
144.0461	37
146.0697	55
147.0777	51
148.0861	46
155.0611	23
158.0722	41
160.0864	46
161.0805	65
166.0434	23
170.0719	23
172.0844	23
187.0992	32
189.1103	27
