Mass spectrum: Amisulbrom; LC-ESI-QTOF; MS2; 140 V
Name: Amisulbrom
Class: Fungicide
Formula: C13H13BrFN5O4S2
Exact mass: 464.9576
SMILES: CC1=C(C2=C(N1S(=O)(=O)C3=NN(C=N3)S(=O)(=O)N(C)C)C=C(C=C2)F)Br
InChI: InChI=1S/C13H13BrFN5O4S2/c1-8-12(14)10-5-4-9(15)6-11(10)20(8)25(21,22)13-16-7-19(17-13)26(23,24)18(2)3/h4-7H,1-3H3
Instrument: TripleTOF 6600 SCIEX
Instrument type: LC-ESI-QTOF
Ms type: MS2
Ion mode: POSITIVE
Collision energy: 140
Fragmentation mode: CID
Ionization: ESI
Column name: Zorbax Eclipse Plus C18 2.1 mm x 150 mm, 3.5 um, Agilent
Retention time: 14.781 min
Precursor m/z: 465.9649
Precursor type: [M+H]+
m/z	relative intensity
42.0336	66
51.0222	39
70.0225	33
74.0146	317
75.0218	853
77.037	66
83.0262	26
87.0233	26
93.0114	26
94.02	165
95.0275	165
96.0353	145
98.0149	92
99.0213	264
100.0173	224
100.031	59
101.0365	430
107.0287	105
119.0267	66
120.0352	999
121.033	86
123.0302	39
126.0329	145
127.0443	26
128.0455	79
129.0445	86
132.0253	33
133.0413	99
146.039	191
147.0457	271
148.0559	92
154.0378	52
