Mass spectrum: Metachrome Yellow free acid; LC-ESI-QTOF; MS2; 100 V
Name: Metachrome Yellow free acid
Formula: C13H9N3O5
Exact mass: 287.0542
SMILES: C1=CC(=CC(=C1)[N+](=O)[O-])N=NC2=CC(=C(C=C2)O)C(=O)O
InChI: InChI=1S/C13H9N3O5/c17-12-5-4-9(7-11(12)13(18)19)15-14-8-2-1-3-10(6-8)16(20)21/h1-7,17H,(H,18,19)
Instrument: TripleTOF 6600 SCIEX
Instrument type: LC-ESI-QTOF
Ms type: MS2
Ion mode: POSITIVE
Collision energy: 100
Fragmentation mode: CID
Ionization: ESI
Column name: Zorbax Eclipse Plus C18 2.1 mm x 150 mm, 3.5 um, Agilent
Retention time: 11.919 min
Precursor m/z: 288.0615
Precursor type: [M+H]+
m/z	relative intensity
37.0071	36
38.0143	79
39.0222	76
49.007	24
50.014	275
51.0224	137
52.0177	128
53.0012	64
59.9983	21
61.0064	98
62.0139	269
63.0218	999
64.0176	15
64.0302	98
65.0386	12
73.0057	33
74.0139	429
75.0217	732
76.0294	119
77.0357	27
78.0329	61
80.011	52
86.0135	27
87.0211	49
88.0289	58
89.0368	88
90.0317	15
91.0421	15
98.0147	12
113.0362	193
114.0316	91
137.0395	15
139.0503	67
140.0492	101
142.0448	12
165.0456	12
166.0515	49
