Mass spectrum: Ranitidine-N-oxide; LC-ESI-QTOF; MS2; 60 V
Name: Ranitidine-N-oxide
Class: Pharmaceutical; Transformation_product; Transformation_product-Metabolite
Formula: C13H22N4O4S
Exact mass: 330.1362
SMILES: CNC(/NCCSCc1oc(C[N+](C)(C)[O-])cc1)=C\[N+]([O-])=O
InChI: InChI=1S/C13H22N4O4S/c1-14-13(8-16(18)19)15-6-7-22-10-12-5-4-11(21-12)9-17(2,3)20/h4-5,8,14-15H,6-7,9-10H2,1-3H3/b13-8+
Instrument: TripleTOF 5600 SCIEX
Instrument type: LC-ESI-QTOF
Ms type: MS2
Ion mode: POSITIVE
Collision energy: 60
Fragmentation mode: CID
Ionization: ESI
Column name: Zorbax Eclipse Plus C18 2.1 mm x 150 mm, 3.5 um, Agilent
Retention time: 4.879 min
Precursor m/z: 331.1435
Precursor type: [M+H]+
m/z	relative intensity
43.0269	12
53.0451	29
55.0462	34
56.0539	85
57.05	22
60.0093	12
67.0557	12
68.0533	49
70.067	14
71.0633	27
71.0753	9
72.0698	14
77.0424	49
78.048	14
79.0557	39
80.0521	34
81.0361	819
83.0629	88
84.0695	39
85.0783	12
88.022	29
91.0552	31
93.058	17
94.0424	39
94.066	51
95.0537	58
96.0708	9
97.0113	39
97.0773	638
98.0848	149
101.0305	22
102.0381	999
104.0504	56
105.0583	14
106.0648	36
107.0495	336
108.0552	12
108.0794	14
109.0756	34
110.0595	34
114.0359	9
115.0339	36
117.0499	56
117.0676	9
118.0655	68
119.0599	27
120.0686	19
120.0807	36
121.0759	159
122.0583	24
122.0843	14
123.026	19
123.068	14
123.094	14
124.077	31
125.0061	544
126.0145	19
129.0496	54
130.056	267
131.0624	36
132.0456	176
132.0795	12
133.0523	164
133.0745	41
134.0598	36
134.084	19
135.0279	22
135.092	171
136.0773	17
137.0051	19
137.1065	27
139.0324	27
140.0516	19
145.0772	9
146.0598	27
147.0546	9
147.0658	17
147.0914	34
148.0759	213
149.0704	51
150.0363	31
151.0209	27
162.0816	9
163.0857	73
165.102	46
167.0647	36
176.0496	22
177.1027	83
178.0325	68
181.0813	12
191.1197	14
192.0486	46
223.0917	12
