Mass spectrum: 17alpha-Ethinylestradiol-3-methylether; LC-ESI-QTOF; MS2; 140 V
Name: 17alpha-Ethinylestradiol-3-methylether
Class: Pharmaceutical
Formula: C21H26O2
Exact mass: 310.1933
SMILES: COc1ccc2[C@H]3CC[C@@]4(C)[C@@H](CC[C@@]4(O)C#C)[C@@H]3CCc2c1
InChI: InChI=1S/C21H26O2/c1-4-21(22)12-10-19-18-7-5-14-13-15(23-3)6-8-16(14)17(18)9-11-20(19,21)2/h1,6,8,13,17-19,22H,5,7,9-12H2,2-3H3/t17-,18-,19+,20+,21+/m1/s1
Instrument: TripleTOF 5600 SCIEX
Instrument type: LC-ESI-QTOF
Ms type: MS2
Ion mode: POSITIVE
Collision energy: 140
Fragmentation mode: CID
Ionization: ESI
Column name: Zorbax Eclipse Plus C18 2.1 mm x 150 mm, 3.5 um, Agilent
Retention time: 14.544 min
Precursor m/z: 311.2006
Precursor type: [M+H]+
m/z	relative intensity
51.0289	437
65.0422	437
77.0393	999
78.0493	936
91.0546	437
103.0553	249
115.054	437
128.0601	249
