Mass spectrum: 2-Propinyl-triphenylphosphonium; LC-ESI-QTOF; MS2; 90 V
Name: 2-Propinyl-triphenylphosphonium
Formula: [C21H18P]+
Exact mass: 301.1141
SMILES: C#CC[P+](C1=CC=CC=C1)(C2=CC=CC=C2)C3=CC=CC=C3
InChI: InChI=1S/C21H18P/c1-2-18-22(19-12-6-3-7-13-19,20-14-8-4-9-15-20)21-16-10-5-11-17-21/h1,3-17H,18H2/q+1
Instrument: TripleTOF 6600 SCIEX
Instrument type: LC-ESI-QTOF
Ms type: MS2
Ion mode: POSITIVE
Collision energy: 90
Fragmentation mode: CID
Ionization: ESI
Column name: Zorbax Eclipse Plus C18 2.1 mm x 150 mm, 3.5 um, Agilent
Retention time: 7.928 min
Precursor m/z: 301.1141
Precursor type: [M]+
m/z	relative intensity
51.0213	101
65.0358	70
68.9859	74
77.0357	469
89.0346	72
91.0503	57
102.0422	100
103.0502	124
107.0011	902
115.0507	611
121.0162	133
133.0163	71
139.0508	248
144.0087	216
145.0167	195
151.0508	111
152.0593	999
157.0169	405
163.0508	138
164.0588	204
165.0671	702
176.0591	174
178.0748	134
181.0176	138
183.0331	793
189.0668	379
205.0167	51
207.0331	413
220.0404	109
