Mass spectrum: Methyl 4-hydroxybenzoate; LC-ESI-QTOF; MS2; 40 V
Name: Methyl 4-hydroxybenzoate
Formula: C8H8O3
Exact mass: 152.0473
SMILES: COC(=O)C1=CC=C(C=C1)O
InChI: InChI=1S/C8H8O3/c1-11-8(10)6-2-4-7(9)5-3-6/h2-5,9H,1H3
Instrument: TripleTOF 5600 SCIEX
Instrument type: LC-ESI-QTOF
Ms type: MS2
Ion mode: POSITIVE
Collision energy: 40
Fragmentation mode: CID
Ionization: ESI
Column name: Zorbax Eclipse Plus C18 2.1 mm x 150 mm, 3.5 um, Agilent
Retention time: 7.587 min
Precursor m/z: 153.0546
Precursor type: [M+H]+
m/z	relative intensity
36.0002	31
37.0066	31
39.0223	31
59.0109	31
65.0388	780
66.0452	93
77.04	31
81.0671	31
93.0345	530
94.0409	187
107.0472	93
121.0268	999
