Mass spectrum: Noramidopyrine; LC-ESI-QTOF; MS2; 120 V
Name: Noramidopyrine
Class: Pharmaceutical; Transformation_product-Metabolite
Formula: C12H15N3O
Exact mass: 217.1215
SMILES: CC1=C(C(=O)N(N1C)C2=CC=CC=C2)NC
InChI: InChI=1S/C12H15N3O/c1-9-11(13-2)12(16)15(14(9)3)10-7-5-4-6-8-10/h4-8,13H,1-3H3
Instrument: TripleTOF 6600 SCIEX
Instrument type: LC-ESI-QTOF
Ms type: MS2
Ion mode: POSITIVE
Collision energy: 120
Fragmentation mode: CID
Ionization: ESI
Column name: Zorbax Eclipse Plus C18 2.1 mm x 150 mm, 3.5 um, Agilent
Retention time: 4.819 min
Precursor m/z: 218.1288
Precursor type: [M+H]+
m/z	relative intensity
37.0072	111
38.015	95
39.0231	231
40.0183	95
41.0259	551
42.0337	783
44.0494	39
49.0078	247
50.015	999
51.023	887
52.0183	55
53.0138	63
54.0334	71
56.0495	943
62.0158	47
63.0231	79
65.0388	39
74.0157	111
77.0377	87
83.0612	47
89.0386	31
