Mass spectrum: Tiapride; LC-ESI-QTOF; MS2; 100 V
Name: Tiapride
Class: Pharmaceutical
Formula: C15H24N2O4S
Exact mass: 328.1457
SMILES: CCN(CC)CCNC(=O)C1=C(C=CC(=C1)S(=O)(=O)C)OC
InChI: InChI=1S/C15H24N2O4S/c1-5-17(6-2)10-9-16-15(18)13-11-12(22(4,19)20)7-8-14(13)21-3/h7-8,11H,5-6,9-10H2,1-4H3,(H,16,18)
Instrument: TripleTOF 5600 SCIEX
Instrument type: LC-ESI-QTOF
Ms type: MS2
Ion mode: POSITIVE
Collision energy: 100
Fragmentation mode: CID
Ionization: ESI
Column name: Zorbax Eclipse Plus C18 2.1 mm x 150 mm, 3.5 um, Agilent
Retention time: 4.856 min
Precursor m/z: 329.153
Precursor type: [M+H]+
m/z	relative intensity
44.0614	64
45.042	19
55.0256	12
58.0762	10
64.037	21
65.0451	134
66.0517	25
72.0855	30
74.02	47
75.0271	62
76.0367	999
77.0438	720
78.0511	672
79.0221	185
79.0459	56
79.0581	64
80.0532	15
81.0366	15
84.0074	12
86.0995	21
89.0425	28
90.0368	168
91.0211	391
91.0448	23
91.0572	34
92.0293	32
92.0506	10
93.0367	17
94.0446	19
94.9965	17
97.0141	19
100.1157	17
103.0446	99
104.0296	28
104.0512	434
105.0351	190
105.0588	64
106.0328	69
106.0666	49
107.0148	95
109.0132	21
110.0202	10
110.9902	17
116.0503	15
117.0586	23
118.0301	41
119.0142	198
120.0244	12
122.9904	10
132.0448	62
133.0289	25
133.0547	71
134.0377	222
134.0598	41
135.0115	17
154.9789	15
162.0552	30
178.0512	10
