Mass spectrum: Oxipurinol; LC-ESI-QTOF; MS2; 40 V
Name: Oxipurinol
Class: Metabolite; Pharmaceutical; Transformation_product
Formula: C5H4N4O2
Exact mass: 152.0334
SMILES: O=C1NC(=O)C2=CNNC2=N1
InChI: InChI=1S/C5H4N4O2/c10-4-2-1-6-9-3(2)7-5(11)8-4/h1H,(H3,6,7,8,9,10,11)
Instrument: TripleTOF 5600 SCIEX
Instrument type: LC-ESI-QTOF
Ms type: MS2
Ion mode: NEGATIVE
Collision energy: 40
Fragmentation mode: CID
Ionization: ESI
Column name: Zorbax Eclipse Plus C18 2.1 mm x 150 mm, 3.5 um, Agilent
Retention time: 2.85 min
Precursor m/z: 151.0261
Precursor type: [M-H]-
m/z	relative intensity
42.0014	999
42.016	85
45.0003	199
45.0071	114
52.0222	85
60.989	171
63.0034	85
65.9993	199
106.9923	142
108.0188	114
151.0267	256
