Mass spectrum: Rifaximin; LC-ESI-QTOF; MS2; 120 V
Name: Rifaximin
Class: Pharmaceutical
Formula: C43H51N3O11
Exact mass: 785.3524
SMILES: CC1C=CC=C(C(=O)NC2=C(C3=C(C4=C(C(=C3O)C)OC(C4=O)(OC=CC(C(C(C(C(C(C1O)C)O)C)OC(=O)C)C)OC)C)C5=C2N6C=CC(=CC6=N5)C)O)C
InChI: InChI=1S/C43H51N3O11/c1-19-14-16-46-28(18-19)44-32-29-30-37(50)25(7)40-31(29)41(52)43(9,57-40)55-17-15-27(54-10)22(4)39(56-26(8)47)24(6)36(49)23(5)35(48)20(2)12-11-13-21(3)42(53)45-33(34(32)46)38(30)51/h11-18,20,22-24,27,35-36,39,48-51H,1-10H3,(H,45,53)
Instrument: TripleTOF 6600 SCIEX
Instrument type: LC-ESI-QTOF
Ms type: MS2
Ion mode: POSITIVE
Collision energy: 120
Fragmentation mode: CID
Ionization: ESI
Column name: Zorbax Eclipse Plus C18 2.1 mm x 150 mm, 3.5 um, Agilent
Retention time: 11.765 min
Precursor m/z: 786.3597
Precursor type: [M+H]+
m/z	relative intensity
39.0223	62
41.0379	114
43.0171	268
43.0533	28
53.0376	22
55.0533	199
57.0319	39
65.0378	114
67.0531	479
69.0321	97
69.0688	119
77.0373	405
79.0532	405
80.0616	28
81.0688	222
83.0481	57
85.0641	39
91.0531	999
92.0481	68
93.0687	359
95.0482	302
95.0718	28
95.0842	713
97.0636	108
103.053	119
105.0687	627
107.0482	97
107.0845	456
108.0557	97
109.0635	371
109.1005	74
111.0783	79
115.0529	171
116.0605	51
117.0682	154
119.0585	22
119.0842	348
120.0899	34
121.0637	119
121.1002	74
123.0788	296
127.0522	45
128.0604	125
129.0688	125
130.076	165
131.0843	97
133.0634	79
133.074	28
133.1002	142
135.079	205
135.115	39
141.0689	97
142.077	102
143.0849	131
144.0922	57
145.0636	62
145.0999	154
146.0708	45
147.0797	68
147.1165	45
148.0875	79
149.0938	45
151.0728	34
152.0605	28
154.0766	28
155.0844	68
156.0924	51
157.0983	97
158.1072	34
159.0793	62
159.1158	45
160.0869	62
161.0965	45
163.1112	256
165.0689	62
167.0847	34
170.1079	39
171.0791	28
172.0865	22
173.0942	51
179.0855	34
182.0662	28
183.0799	22
186.1025	28
193.098	62
194.0804	22
197.096	22
205.0722	22
207.088	51
209.1014	34
216.0893	34
218.0827	39
219.0903	159
220.0988	119
221.1042	62
222.1006	28
231.0918	34
232.0989	51
233.1055	91
234.102	114
235.0831	62
235.1156	68
236.0946	79
243.0886	51
244.0981	57
245.1046	68
246.1041	39
247.0864	125
248.0937	245
249.1021	176
250.1008	62
251.1158	45
256.1	28
257.1052	57
259.0842	62
260.0896	39
260.1177	34
261.1022	154
262.098	137
263.1091	165
264.0887	85
264.1123	57
265.0976	57
266.0934	51
270.0969	57
271.0877	57
272.0901	51
273.0632	28
273.1028	119
274.0975	91
275.0818	51
275.101	28
276.0897	142
276.1083	45
277.0969	274
278.0991	62
278.1275	51
279.106	62
285.1	39
286.095	22
287.0789	34
287.1068	28
288.1094	91
289.0974	199
290.0913	222
291.077	34
291.1046	325
292.1079	245
293.1132	45
294.0922	22
300.0904	22
301.0969	222
302.094	142
303.0745	57
303.1054	108
304.084	22
304.11	97
305.0913	97
305.1186	22
306.0976	28
306.1238	205
307.1058	45
308.1067	28
315.1048	51
316.1085	205
317.0909	353
318.0934	171
319.1067	234
320.1025	102
326.0964	62
329.0919	131
329.1147	62
330.0985	85
330.1298	28
331.103	74
332.1005	382
333.0863	79
333.1135	34
334.1177	199
335.1036	34
335.1402	22
337.1208	28
338.1346	28
340.0982	39
343.1245	28
344.1028	234
345.0887	279
346.0949	331
347.1018	319
348.1065	97
350.1236	28
356.0976	62
358.1081	68
359.1029	97
360.0989	428
361.1045	262
362.1136	627
363.123	62
366.1234	51
368.14	51
369.1257	22
370.0932	28
370.1202	39
371.1032	34
371.1117	45
372.0982	85
374.12	34
376.1426	45
377.148	45
380.1422	39
381.1474	45
382.1198	28
382.1545	34
385.1091	79
385.1473	28
386.1141	34
390.1238	57
394.1556	28
396.1356	34
396.1682	39
398.1132	159
398.1508	62
399.1267	34
400.1312	62
401.1255	28
408.1365	62
409.1058	22
410.1141	22
412.1276	51
413.128	39
418.1209	34
418.1549	28
419.1238	22
420.1357	74
420.1698	28
422.1551	57
424.1276	74
424.1712	28
426.1452	45
427.1454	28
432.1353	85
434.1165	28
434.1509	28
435.1203	108
436.1304	142
436.164	51
437.1366	45
438.1451	137
438.1826	34
439.1588	22
446.1492	74
448.1285	62
448.1655	62
450.1433	188
450.1879	28
451.1489	39
452.159	119
462.1436	79
464.1598	34
466.1789	97
478.1657	34
