Mass spectrum: O-tolidine; LC-ESI-QTOF; MS2; 90 V
Name: O-tolidine
Formula: C14H16N2
Exact mass: 212.1313
SMILES: CC1=C(C=CC(=C1)C2=CC(=C(C=C2)N)C)N
InChI: InChI=1S/C14H16N2/c1-9-7-11(3-5-13(9)15)12-4-6-14(16)10(2)8-12/h3-8H,15-16H2,1-2H3
Instrument: TripleTOF 6600 SCIEX
Instrument type: LC-ESI-QTOF
Ms type: MS2
Ion mode: POSITIVE
Collision energy: 90
Fragmentation mode: CID
Ionization: ESI
Column name: Zorbax Eclipse Plus C18 2.1 mm x 150 mm, 3.5 um, Agilent
Retention time: 5.073 min
Precursor m/z: 213.1386
Precursor type: [M+H]+
m/z	relative intensity
51.0245	45
63.0246	30
74.0162	53
75.0229	61
77.0386	373
87.0228	45
89.0386	83
91.057	30
99.0253	30
102.0477	91
106.0657	38
113.0384	76
115.054	99
116.0564	38
125.0376	30
126.0474	213
127.0582	152
128.0629	83
129.0464	38
139.0588	122
140.0519	38
150.0443	343
151.0547	617
152.0632	999
153.0677	61
161.0397	38
162.049	122
163.0558	175
164.0626	53
165.0697	38
167.0729	45
176.0658	76
177.0607	38
178.0682	45
179.0593	38
180.0858	30
