Mass spectrum: Desmethylranitidine; LC-ESI-QTOF; MS2; 40 V
Name: Desmethylranitidine
Class: Pharmaceutical; Transformation_product
Formula: C12H20N4O3S
Exact mass: 300.1256
SMILES: CNCC1=CC=C(O1)CSCCNC(=C[N+](=O)[O-])NC
InChI: InChI=1S/C12H20N4O3S/c1-13-7-10-3-4-11(19-10)9-20-6-5-15-12(14-2)8-16(17)18/h3-4,8,13-15H,5-7,9H2,1-2H3
Instrument: TripleTOF 5600 SCIEX
Instrument type: LC-ESI-QTOF
Ms type: MS2
Ion mode: POSITIVE
Collision energy: 40
Fragmentation mode: CID
Ionization: ESI
Column name: Zorbax Eclipse Plus C18 2.1 mm x 150 mm, 3.5 um, Agilent
Retention time: 4.769 min
Precursor m/z: 301.1329
Precursor type: [M+H]+
m/z	relative intensity
53.0473	15
55.0453	17
56.055	28
67.056	10
68.0509	26
71.07	13
77.042	26
78.046	13
79.0553	19
80.0533	19
81.0365	441
81.0674	10
83.0508	13
83.0626	34
83.0758	13
84.069	56
88.0255	47
91.0553	19
93.0607	17
94.0434	15
94.0658	37
95.051	56
96.0827	76
97.0128	30
97.0769	330
98.0844	385
101.0291	30
102.0377	996
104.0498	26
106.0653	21
107.0494	178
108.0558	13
108.0783	10
109.0726	21
110.0615	47
113.0722	10
114.0821	15
115.0335	37
117.0517	50
118.0315	28
118.0665	23
119.0527	15
120.0669	15
121.0756	95
122.0623	17
123.0247	13
124.0352	10
124.0753	154
125.0056	999
126.0162	10
129.0502	63
130.0559	953
131.062	30
132.0437	71
133.0497	104
133.079	21
134.0603	26
135.0262	23
135.0921	141
144.0765	43
145.0421	21
145.0777	13
146.0566	17
147.0664	26
147.093	17
148.0756	193
148.0987	19
149.0706	56
150.0359	21
151.0227	32
152.0256	10
152.0515	13
153.036	43
154.0576	17
159.0461	17
163.0865	78
164.0934	58
165.1026	148
167.0649	54
170.064	58
176.0483	622
176.0939	13
177.1008	180
178.0328	56
181.0795	97
191.1179	204
192.0477	84
193.0536	30
195.0924	10
209.075	13
223.0913	34
224.0974	84
270.0889	26
