Mass spectrum: Etoricoxib; LC-ESI-QTOF; MS2; 60 V
Name: Etoricoxib
Class: Pharmaceutical
Formula: C18H15ClN2O2S
Exact mass: 358.0543
SMILES: CC1=NC=C(C=C1)C2=NC=C(C=C2C3=CC=C(C=C3)S(=O)(=O)C)Cl
InChI: InChI=1S/C18H15ClN2O2S/c1-12-3-4-14(10-20-12)18-17(9-15(19)11-21-18)13-5-7-16(8-6-13)24(2,22)23/h3-11H,1-2H3
Instrument: TripleTOF 5600 SCIEX
Instrument type: LC-ESI-QTOF
Ms type: MS2
Ion mode: POSITIVE
Collision energy: 60
Fragmentation mode: CID
Ionization: ESI
Column name: Zorbax Eclipse Plus C18 2.1 mm x 150 mm, 3.5 um, Agilent
Retention time: 6.991 min
Precursor m/z: 359.0616
Precursor type: [M+H]+
m/z	relative intensity
189.069	12
202.0644	19
203.0717	37
215.072	10
216.0796	65
217.0878	63
218.0903	15
227.0618	23
228.0662	26
229.0573	101
237.0317	15
238.0406	142
242.0828	39
243.0908	198
244.0985	341
250.0393	16
251.0479	51
252.0551	112
253.0549	32
262.0385	17
263.0366	105
264.0468	53
265.052	43
277.0513	44
278.0592	146
279.0667	999
280.0744	325
295.0605	10
