Mass spectrum: 2-(Morpholinodithio)benzothiazole; LC-ESI-QTOF; MS2; 10 V
Name: 2-(Morpholinodithio)benzothiazole
Class: Industrial_process
Formula: C11H12N2OS3
Exact mass: 284.0112
SMILES: C1COCCN1SSC2=NC3=CC=CC=C3S2
InChI: InChI=1S/C11H12N2OS3/c1-2-4-10-9(3-1)12-11(15-10)16-17-13-5-7-14-8-6-13/h1-4H,5-8H2
Instrument: TripleTOF 5600 SCIEX
Instrument type: LC-ESI-QTOF
Ms type: MS2
Ion mode: POSITIVE
Collision energy: 10
Fragmentation mode: CID
Ionization: ESI
Column name: Zorbax Eclipse Plus C18 2.1 mm x 150 mm, 3.5 um, Agilent
Retention time: 13.833 min
Precursor m/z: 285.0185
Precursor type: [M+H]+
m/z	relative intensity
86.0638	13
118.0328	47
199.9646	68
285.0177	999
