Mass spectrum: Mitomycin C; LC-ESI-QTOF; MS2; 80 V
Name: Mitomycin C
Class: Pharmaceutical
Formula: C15H18N4O5
Exact mass: 334.1277
SMILES: CO[C@@]12[C@H](COC(N)=O)C3=C(N1C[C@@H]4N[C@H]24)C(=O)C(=C(N)C3=O)C
InChI: InChI=1S/C15H18N4O5/c1-5-9(16)12(21)8-6(4-24-14(17)22)15(23-2)13-7(18-13)3-19(15)10(8)11(5)20/h6-7,13,18H,3-4,16H2,1-2H3,(H2,17,22)/t6-,7+,13+,15-/m1/s1
Instrument: TripleTOF 5600 SCIEX
Instrument type: LC-ESI-QTOF
Ms type: MS2
Ion mode: POSITIVE
Collision energy: 80
Fragmentation mode: CID
Ionization: ESI
Column name: Zorbax Eclipse Plus C18 2.1 mm x 150 mm, 3.5 um, Agilent
Retention time: 5.588 min
Precursor m/z: 335.135
Precursor type: [M+H]+
m/z	relative intensity
65.0471	61
77.0382	357
78.034	141
80.0493	49
89.0402	141
91.0542	74
92.0491	67
93.0573	80
102.0395	61
104.0476	487
105.0557	61
106.062	80
115.0504	302
116.0451	209
117.0523	129
118.0533	234
119.057	98
127.0452	67
128.0458	129
129.0481	104
130.0583	277
131.055	999
132.0402	74
132.0613	308
133.047	55
133.07	86
134.0541	67
140.041	86
141.0486	123
142.0565	92
143.056	197
145.0691	123
146.0512	61
154.0503	55
155.0504	246
156.058	209
157.0667	283
158.0617	67
159.0466	92
167.0492	67
168.0562	265
169.0464	49
169.0648	296
170.0651	148
171.0432	80
172.0498	61
173.0581	74
182.0569	55
184.0711	55
185.0554	129
197.0535	129
198.054	74
199.0562	117
212.0764	92
213.0604	92
