Mass spectrum: Coumaphos; LC-ESI-QTOF; MS2; 90 V
Name: Coumaphos
Class: Insecticide
Formula: C14H16ClO5PS
Exact mass: 362.0145
SMILES: CCOP(=S)(OCC)OC1=CC2=C(C=C1)C(=C(C(=O)O2)Cl)C
InChI: InChI=1S/C14H16ClO5PS/c1-4-17-21(22,18-5-2)20-10-6-7-11-9(3)13(15)14(16)19-12(11)8-10/h6-8H,4-5H2,1-3H3
Instrument: TripleTOF 6600 SCIEX
Instrument type: LC-ESI-QTOF
Ms type: MS2
Ion mode: POSITIVE
Collision energy: 90
Fragmentation mode: CID
Ionization: ESI
Column name: Zorbax Eclipse Plus C18 2.1 mm x 150 mm, 3.5 um, Agilent
Retention time: 14.049 min
Precursor m/z: 363.0218
Precursor type: [M+H]+
m/z	relative intensity
39.0222	27
43.0173	22
44.9785	48
46.9676	88
49.0059	12
50.0146	43
51.0222	109
55.0173	15
62.0143	17
62.9622	30
63.0221	48
64.0296	15
64.9778	192
65.0379	220
68.9785	91
68.9964	45
70.9943	22
72.9825	17
74.0143	25
75.0223	126
76.0304	60
77.0378	600
78.0458	40
78.9391	212
79.0528	17
80.9726	63
84.9736	12
87.0202	10
88.0308	25
89.0377	207
90.0453	116
91.0535	999
92.0617	12
92.9781	12
94.0409	20
94.9947	12
96.9498	474
97.0109	17
98.9987	35
101.0375	126
102.0457	598
103.0536	517
104.0609	35
105.0319	35
105.0419	15
107.0026	12
107.0471	20
108.0017	43
109.0095	20
110.9972	20
113.0377	48
114.045	91
114.9595	12
115.0534	595
118.0404	65
119.0485	283
120.0018	15
120.056	76
121.0094	129
122.0182	17
123.024	20
125.0144	76
126.0214	27
129.0317	15
129.0434	63
130.0409	50
131.0484	864
132.056	55
133.01	32
134.0176	273
135.0254	296
136.0078	40
136.0328	22
137.0137	78
138.0225	27
141.0086	20
145.0109	86
146.0181	20
146.0359	15
147.026	98
147.0428	585
148.0081	15
148.0504	86
149.0145	149
150.0207	15
152.0016	10
153.0095	22
154.019	15
155.0245	15
159.0457	126
161.0016	10
162.0118	40
163.0205	469
164.0293	78
165.0097	230
166.0175	43
168.9863	12
171.0019	15
175.0414	12
178.9704	22
179.9765	10
180.9853	15
181.0045	40
182.0116	180
191.015	35
193.0047	35
194.0116	32
196.9814	25
207.974	10
211.0127	12
225.9847	38
226.9921	17
