Mass spectrum: Triadimenol; LC-ESI-QTOF; MS2; 130 V
Name: Triadimenol
Class: Fungicide
Formula: C14H18ClN3O2
Exact mass: 295.1088
SMILES: CC(C)(C)C(C(N1C=NC=N1)OC2=CC=C(C=C2)Cl)O
InChI: InChI=1S/C14H18ClN3O2/c1-14(2,3)12(19)13(18-9-16-8-17-18)20-11-6-4-10(15)5-7-11/h4-9,12-13,19H,1-3H3
Instrument: TripleTOF 6600 SCIEX
Instrument type: LC-ESI-QTOF
Ms type: MS2
Ion mode: POSITIVE
Collision energy: 130
Fragmentation mode: CID
Ionization: ESI
Column name: Zorbax Eclipse Plus C18 2.1 mm x 150 mm, 3.5 um, Agilent
Retention time: 11.487 min
Precursor m/z: 296.116
Precursor type: [M+H]+
m/z	relative intensity
37.0071	47
38.0152	62
39.0234	320
41.0387	76
42.0212	71
43.0296	999
49.0093	19
50.0156	86
51.0234	71
70.0402	740
72.9821	23
73.0073	76
74.0145	449
75.0228	172
77.0395	19
84.9832	57
