Mass spectrum: Sildenafil; LC-ESI-QTOF; MS2; 100 V
Name: Sildenafil
Class: Pharmaceutical
Formula: C22H30N6O4S
Exact mass: 474.2049
SMILES: CCCC1=NN(C2=C1NC(=NC2=O)C3=C(C=CC(=C3)S(=O)(=O)N4CCN(CC4)C)OCC)C
InChI: InChI=1S/C22H30N6O4S/c1-5-7-17-19-20(27(4)25-17)22(29)24-21(23-19)16-14-15(8-9-18(16)32-6-2)33(30,31)28-12-10-26(3)11-13-28/h8-9,14H,5-7,10-13H2,1-4H3,(H,23,24,29)
Instrument: TripleTOF 5600 SCIEX
Instrument type: LC-ESI-QTOF
Ms type: MS2
Ion mode: NEGATIVE
Collision energy: 100
Fragmentation mode: CID
Ionization: ESI
Column name: Zorbax Eclipse Plus C18 2.1 mm x 150 mm, 3.5 um, Agilent
Retention time: 7.283 min
Precursor m/z: 473.1976
Precursor type: [M-H]-
m/z	relative intensity
89.0268	57
90.0342	347
117.025	188
118.03	781
132.0346	57
143.0269	144
155.0404	57
157.0378	57
169.0407	57
170.0375	86
171.0304	144
181.0411	115
183.0446	101
186.0553	144
195.0316	144
196.0411	72
196.0728	115
199.0417	57
209.0481	767
210.0561	130
211.0638	115
211.0862	43
215.0943	463
222.0615	57
223.0629	130
224.0749	86
237.0432	622
238.0502	999
238.0895	246
239.0577	217
239.0961	57
251.0613	101
252.06	57
253.0748	144
253.1103	246
266.0803	159
267.0905	115
281.1048	217
282.1143	188
