Mass spectrum: Sulfamerazine; LC-ESI-QTOF; MS2; 40 V
Name: Sulfamerazine
Class: Antimicrobial; Pharmaceutical
Formula: C11H12N4O2S
Exact mass: 264.0681
SMILES: CC1=NC(=NC=C1)NS(=O)(=O)C2=CC=C(C=C2)N
InChI: InChI=1S/C11H12N4O2S/c1-8-6-7-13-11(14-8)15-18(16,17)10-4-2-9(12)3-5-10/h2-7H,12H2,1H3,(H,13,14,15)
Instrument: TripleTOF 5600 SCIEX
Instrument type: LC-ESI-QTOF
Ms type: MS2
Ion mode: POSITIVE
Collision energy: 40
Fragmentation mode: CID
Ionization: ESI
Column name: Zorbax Eclipse Plus C18 2.1 mm x 150 mm, 3.5 um, Agilent
Retention time: 5.769 min
Precursor m/z: 265.0754
Precursor type: [M+H]+
m/z	relative intensity
65.0459	333
66.04	28
67.0349	20
68.0563	22
80.0536	156
81.0492	63
92.0528	999
93.0488	113
94.0676	29
108.0465	995
110.0729	676
156.0118	392
172.0177	291
182.0706	35
199.0974	137
265.0745	106
