Mass spectrum: Albendazole; LC-ESI-QTOF; MS2; 50 V
Name: Albendazole
Class: Pharmaceutical
Formula: C12H15N3O2S
Exact mass: 265.0885
SMILES: CCCSc1ccc2nc(NC(=O)OC)[nH]c2c1
InChI: InChI=1S/C12H15N3O2S/c1-3-6-18-8-4-5-9-10(7-8)14-11(13-9)15-12(16)17-2/h4-5,7H,3,6H2,1-2H3,(H2,13,14,15,16)
Instrument: TripleTOF 5600 SCIEX
Instrument type: LC-ESI-QTOF
Ms type: MS2
Ion mode: POSITIVE
Collision energy: 50
Fragmentation mode: CID
Ionization: ESI
Column name: Zorbax Eclipse Plus C18 2.1 mm x 150 mm, 3.5 um, Agilent
Retention time: 8.546 min
Precursor m/z: 266.0958
Precursor type: [M+H]+
m/z	relative intensity
104.0383	23
119.0485	45
120.9987	18
122.0066	15
130.0402	10
131.0488	74
136.0099	76
147.0435	33
158.0357	12
159.044	655
160.0514	15
163.0211	197
164.0283	47
190.0079	19
191.0158	999
192.0239	300
234.0709	88
