Mass spectrum: 7-Methylxanthine; LC-ESI-QTOF; MS2; 30 V
Name: 7-Methylxanthine
Class: Pharmaceutical
Formula: C6H6N4O2
Exact mass: 166.0491
SMILES: CN1C=NC2=C1C(=O)NC(=O)N2
InChI: InChI=1S/C6H6N4O2/c1-10-2-7-4-3(10)5(11)9-6(12)8-4/h2H,1H3,(H2,8,9,11,12)
Instrument: TripleTOF 5600 SCIEX
Instrument type: LC-ESI-QTOF
Ms type: MS2
Ion mode: POSITIVE
Collision energy: 30
Fragmentation mode: CID
Ionization: ESI
Column name: Zorbax Eclipse Plus C18 2.1 mm x 150 mm, 3.5 um, Agilent
Retention time: 4.437 min
Precursor m/z: 167.0564
Precursor type: [M+H]+
m/z	relative intensity
55.0344	37
67.0323	41
69.0485	91
95.0252	25
96.0569	91
124.0508	999
149.0464	37
150.0295	204
167.0568	196
