Mass spectrum: 2-Phenylbenzimidazole-5-sulfonic acid; LC-ESI-QTOF; MS2; 120 V
Name: 2-Phenylbenzimidazole-5-sulfonic acid
Class: Personal_care_product
Formula: C13H10N2O3S
Exact mass: 274.0412
SMILES: C1=CC=C(C=C1)C2=NC3=C(N2)C=C(C=C3)S(=O)(=O)O
InChI: InChI=1S/C13H10N2O3S/c16-19(17,18)10-6-7-11-12(8-10)15-13(14-11)9-4-2-1-3-5-9/h1-8H,(H,14,15)(H,16,17,18)
Instrument: TripleTOF 5600 SCIEX
Instrument type: LC-ESI-QTOF
Ms type: MS2
Ion mode: POSITIVE
Collision energy: 120
Fragmentation mode: CID
Ionization: ESI
Column name: Zorbax Eclipse Plus C18 2.1 mm x 150 mm, 3.5 um, Agilent
Retention time: 5.039 min
Precursor m/z: 275.0485
Precursor type: [M+H]+
m/z	relative intensity
51.0324	364
52.0265	111
60.005	63
64.0376	222
65.043	142
75.0278	95
77.0449	792
86.017	63
87.0302	190
88.0201	79
89.0424	999
90.0487	126
104.0527	95
113.0408	348
115.0548	142
137.0417	190
138.0479	158
139.0564	523
140.0507	333
164.0494	317
165.0488	126
192.0687	63
