Mass spectrum: Diprogulic acid; LC-ESI-QTOF; MS2; 20 V
Name: Diprogulic acid
Class: Pesticide
Formula: C12H18O7
Exact mass: 274.1053
SMILES: CC1(C)OCC2C(C3C(OC(C)(C)O3)(C(O)=O)O2)O1
InChI: InChI=1S/C12H18O7/c1-10(2)15-5-6-7(17-10)8-12(16-6,9(13)14)19-11(3,4)18-8/h6-8H,5H2,1-4H3,(H,13,14)
Instrument: TripleTOF 6600 SCIEX
Instrument type: LC-ESI-QTOF
Ms type: MS2
Ion mode: POSITIVE
Collision energy: 20
Fragmentation mode: CID
Ionization: ESI
Column name: Zorbax Eclipse Plus C18 2.1 mm x 150 mm, 3.5 um, Agilent
Retention time: 7.352 min
Precursor m/z: 275.1125
Precursor type: [M+H]+
m/z	relative intensity
41.0385	15
57.0332	42
59.0491	991
69.0335	160
71.0132	17
73.0285	25
85.0277	115
87.007	47
95.0125	75
97.0279	313
103.0389	70
113.0233	115
115.0022	65
115.0387	47
127.0382	40
129.0178	52
131.033	80
135.0439	10
141.0177	308
143.0692	12
145.0501	60
159.0285	999
171.0645	97
217.07	559
275.1111	17
