Mass spectrum: C-desmethyl-metoprolol; LC-ESI-QTOF; MS2; 40 V
Name: C-desmethyl-metoprolol
Formula: C14H23NO3
Exact mass: 253.1678
SMILES: CCNCC(COC1=CC=C(C=C1)CCOC)O
InChI: InChI=1S/C14H23NO3/c1-3-15-10-13(16)11-18-14-6-4-12(5-7-14)8-9-17-2/h4-7,13,15-16H,3,8-11H2,1-2H3
Instrument: TripleTOF 5600 SCIEX
Instrument type: LC-ESI-QTOF
Ms type: MS2
Ion mode: POSITIVE
Collision energy: 40
Fragmentation mode: CID
Ionization: ESI
Column name: Zorbax Eclipse Plus C18 2.1 mm x 150 mm, 3.5 um, Agilent
Retention time: 5.422 min
Precursor m/z: 254.1751
Precursor type: [M+H]+
m/z	relative intensity
41.039	13
42.0343	32
43.0188	21
44.0501	41
45.0341	19
51.0237	17
55.0193	23
56.0504	117
57.0698	30
58.0658	999
65.0385	19
67.0541	37
70.0655	41
72.0804	28
77.0393	353
79.0546	213
84.0813	721
86.0972	54
91.0549	253
92.0614	10
93.0699	19
102.0469	23
102.0922	691
103.055	444
104.0635	21
105.0348	13
105.0703	316
107.0498	15
115.0548	113
116.0626	61
117.0718	32
119.0495	21
120.0577	17
121.0642	91
128.0627	19
129.0717	39
131.0507	28
131.0859	85
133.0656	503
135.0803	82
141.0708	65
144.0589	111
147.0794	13
149.0937	13
159.0809	250
161.0962	39
163.0875	54
165.0916	54
177.0923	43
191.107	135
204.1391	58
254.1761	383
