Mass spectrum: N-[2-[(2-Bromo-4,6-dinitrophenyl)azo]-5-(diethylamino)phenyl]acetamide; LC-ESI-QTOF; MS2; 100 V
Name: N-[2-[(2-Bromo-4,6-dinitrophenyl)azo]-5-(diethylamino)phenyl]acetamide
Formula: C18H19BrN6O5
Exact mass: 478.06
SMILES: CCN(CC)C1=CC(=C(C=C1)N=NC2=C(C=C(C=C2Br)[N+](=O)[O-])[N+](=O)[O-])NC(=O)C
InChI: InChI=1S/C18H19BrN6O5/c1-4-23(5-2)12-6-7-15(16(9-12)20-11(3)26)21-22-18-14(19)8-13(24(27)28)10-17(18)25(29)30/h6-10H,4-5H2,1-3H3,(H,20,26)
Instrument: TripleTOF 6600 SCIEX
Instrument type: LC-ESI-QTOF
Ms type: MS2
Ion mode: POSITIVE
Collision energy: 100
Fragmentation mode: CID
Ionization: ESI
Column name: Zorbax Eclipse Plus C18 2.1 mm x 150 mm, 3.5 um, Agilent
Retention time: 16.579 min
Precursor m/z: 479.0673
Precursor type: [M+H]+
m/z	relative intensity
42.0328	21
43.017	115
52.0316	35
53.0384	17
65.037	63
66.0338	17
66.0448	24
67.0413	21
68.0486	21
69.0445	24
77.037	133
78.0325	80
79.0295	24
79.0394	126
80.0481	606
81.0571	45
89.0362	24
90.0317	35
91.0411	28
91.0535	45
92.0475	217
93.0559	841
94.0637	280
95.0603	31
104.0489	77
105.044	182
106.0525	59
106.0629	108
107.0342	161
107.0591	304
108.0426	98
108.0685	45
108.0793	52
109.0735	73
116.0469	28
117.0445	108
117.0558	63
118.0527	42
118.0653	24
119.0592	231
120.0526	70
120.0666	161
121.054	28
121.0749	999
122.0604	35
122.095	17
123.0924	24
128.0504	24
129.0462	24
131.0585	49
132.0439	17
133.0605	375
133.0744	59
134.0695	445
135.0541	14
135.0897	84
136.0743	28
139.0506	129
140.0476	108
145.0578	14
145.0759	31
146.0696	185
147.0556	238
147.0801	115
148.0593	266
148.082	66
148.0999	31
149.0739	14
149.1072	73
152.0461	42
153.0432	31
153.0598	28
154.0642	24
160.0878	17
161.0683	119
162.0749	17
162.1007	42
163.085	171
164.0484	52
165.0557	91
166.0615	178
167.058	17
167.0707	24
168.0657	17
175.0762	35
177.0488	17
177.1032	24
178.0514	31
179.0586	77
180.0547	21
181.0669	24
191.0611	49
191.1167	66
192.0529	21
192.0665	56
193.071	119
194.0704	147
205.0701	21
206.0701	112
207.0925	17
218.074	28
220.0891	14
221.0792	182
222.0631	28
222.0943	14
235.0989	17
243.9738	17
244.9744	21
245.9805	17
256.9717	24
260.967	21
265.1452	35
271.991	28
283.9873	80
300.9845	17
