Mass spectrum: Trifloxystrobin acid; LC-ESI-QTOF; MS2; 110 V
Name: Trifloxystrobin acid
Class: Metabolite; Fungicide; Transformation_product
Formula: C19H17F3N2O4
Exact mass: 394.114
SMILES: FC(F)(F)c1cccc(c1)C(\C)=N\OCc2ccccc2C(=N\O)\C(=O)OC
InChI: InChI=1S/C19H17F3N2O4/c1-12(13-7-5-8-15(10-13)19(20,21)22)24-28-11-14-6-3-4-9-16(14)17(23-26)18(25)27-2/h3-10,26H,11H2,1-2H3/b23-17-,24-12+
Instrument: TripleTOF 5600 SCIEX
Instrument type: LC-ESI-QTOF
Ms type: MS2
Ion mode: POSITIVE
Collision energy: 110
Fragmentation mode: CID
Ionization: ESI
Column name: Zorbax Eclipse Plus C18 2.1 mm x 150 mm, 3.5 um, Agilent
Retention time: 13.286 min
Precursor m/z: 395.1213
Precursor type: [M+H]+
m/z	relative intensity
51.0148	17
57.0235	16
64.0373	9
65.0447	16
69.0016	60
73.0126	10
74.0213	150
75.0291	592
77.0455	32
81.0187	26
89.0429	999
90.0502	250
91.0583	15
95.0329	821
99.0066	65
104.0504	26
109.0459	12
114.0308	13
116.0516	379
117.0594	130
119.0104	60
123.0372	34
125.0208	317
145.0273	927
172.0376	21
