Mass spectrum: Metobromuron; LC-ESI-QTOF; MS2; 140 V
Name: Metobromuron
Class: Herbicide
Formula: C9H11BrN2O2
Exact mass: 258.0004
SMILES: CN(C(=O)NC1=CC=C(C=C1)Br)OC
InChI: InChI=1S/C9H11BrN2O2/c1-12(14-2)9(13)11-8-5-3-7(10)4-6-8/h3-6H,1-2H3,(H,11,13)
Instrument: TripleTOF 6600 SCIEX
Instrument type: LC-ESI-QTOF
Ms type: MS2
Ion mode: POSITIVE
Collision energy: 140
Fragmentation mode: CID
Ionization: ESI
Column name: Zorbax Eclipse Plus C18 2.1 mm x 150 mm, 3.5 um, Agilent
Retention time: 10.623 min
Precursor m/z: 259.0077
Precursor type: [M+H]+
m/z	relative intensity
37.0051	420
38.013	420
39.0208	552
50.013	236
52.0158	157
61.0045	368
62.0118	920
63.0201	999
74.0111	210
116.93	131
