Mass spectrum: O-Desmethyl amisulpride; LC-ESI-QTOF; MS2; 130 V
Name: O-Desmethyl amisulpride
Class: Pharmaceutical; Transformation_product
Formula: C16H25N3O4S
Exact mass: 355.1566
SMILES: CCN1CCCC1CNC(=O)c2cc(c(cc2O)N)S(=O)(=O)CC
InChI: InChI=1S/C16H25N3O4S/c1-3-19-7-5-6-11(19)10-18-16(21)12-8-15(24(22,23)4-2)13(17)9-14(12)20/h8-9,11,20H,3-7,10,17H2,1-2H3,(H,18,21)
Instrument: TripleTOF 5600 SCIEX
Instrument type: LC-ESI-QTOF
Ms type: MS2
Ion mode: POSITIVE
Collision energy: 130
Fragmentation mode: CID
Ionization: ESI
Column name: Zorbax Eclipse Plus C18 2.1 mm x 150 mm, 3.5 um, Agilent
Retention time: 5.619 min
Precursor m/z: 356.1639
Precursor type: [M+H]+
m/z	relative intensity
40.0265	27
42.0417	174
44.021	223
51.0285	286
52.0364	999
53.0082	90
53.0285	27
53.0438	55
54.0423	111
55.059	132
56.055	621
56.9844	83
56.9948	27
57.992	48
58.0693	181
58.9997	55
59.0071	34
65.0303	153
65.0428	69
66.0136	104
66.0357	41
67.0215	76
67.0457	97
67.0559	97
68.0166	831
68.0544	62
68.9838	209
69.0611	34
69.99	41
70.0684	286
70.9981	90
76.0198	118
77.027	34
78.0366	384
79.0208	62
79.0445	160
80.0519	174
80.9828	34
81.9891	34
82.0682	195
84.0828	719
84.9757	202
88.0196	181
89.0276	663
91.0209	34
93.0221	41
94.0297	621
94.0492	27
98.097	118
98.9883	27
99.9848	139
107.0361	286
107.9899	83
108.0209	97
110.0968	34
112.1125	139
