Mass spectrum: Dimethenamid-OA; LC-ESI-QTOF; MS2; 50 V
Name: Dimethenamid-OA
Class: Transformation_product; Herbicide; Transformation_product-Metabolite
Formula: C12H17NO4S
Exact mass: 271.0878
SMILES: Cc1csc(c1N(C(C)COC)C(=O)C(=O)O)C
InChI: InChI=1S/C12H17NO4S/c1-7-6-18-9(3)10(7)13(8(2)5-17-4)11(14)12(15)16/h6,8H,5H2,1-4H3,(H,15,16)
Instrument: TripleTOF 6600 SCIEX
Instrument type: LC-ESI-QTOF
Ms type: MS2
Ion mode: POSITIVE
Collision energy: 50
Fragmentation mode: CID
Ionization: ESI
Column name: Zorbax Eclipse Plus C18 2.1 mm x 150 mm, 3.5 um, Agilent
Retention time: 8.208 min
Precursor m/z: 272.0951
Precursor type: [M+H]+
m/z	relative intensity
41.0392	99
45.0341	158
58.9949	91
59.0488	41
59.9904	33
65.0386	108
67.0541	141
70.9942	41
73.0645	116
77.0388	191
78.0452	49
79.0547	99
80.05	49
82.065	66
91.0541	58
92.0493	83
93.0565	141
93.0702	33
94.0656	258
95.0731	91
97.0103	91
99.0267	108
104.0482	58
105.0567	216
109.0104	49
111.0261	649
112.0347	83
113.0423	99
117.0642	49
118.0648	66
120.0439	49
120.0803	133
121.0494	58
123.0145	66
124.0225	58
125.0433	58
126.0373	999
132.0799	83
133.091	41
134.096	99
135.1051	41
136.0233	83
138.0029	49
138.0366	374
139.0108	49
150.0377	66
151.0453	49
152.0154	133
152.0528	141
154.031	108
168.0838	33
