Mass spectrum: Tetrahydroharman-3-carboxylic acid; LC-ESI-QTOF; MS2; 140 V
Name: Tetrahydroharman-3-carboxylic acid
Formula: C13H14N2O2
Exact mass: 230.1055
SMILES: CC1C2=C(CC(N1)C(=O)O)C3=CC=CC=C3N2
InChI: InChI=1S/C13H14N2O2/c1-7-12-9(6-11(14-7)13(16)17)8-4-2-3-5-10(8)15-12/h2-5,7,11,14-15H,6H2,1H3,(H,16,17)
Instrument: TripleTOF 6600 SCIEX
Instrument type: LC-ESI-QTOF
Ms type: MS2
Ion mode: POSITIVE
Collision energy: 140
Fragmentation mode: CID
Ionization: ESI
Column name: Zorbax Eclipse Plus C18 2.1 mm x 150 mm, 3.5 um, Agilent
Retention time: 5.62 min
Precursor m/z: 231.1128
Precursor type: [M+H]+
m/z	relative intensity
37.0068	140
38.0151	147
39.0227	408
49.0065	84
50.0152	999
51.0227	787
59.9969	70
61.0062	393
62.014	555
63.0222	928
65.0376	35
73.0053	98
74.0142	928
75.0221	365
76.0173	28
76.0304	63
77.0376	274
85.0056	84
86.0139	154
87.0213	84
88.0283	42
89.0368	365
98.0134	56
102.0456	35
113.037	63
115.0531	49
126.0433	28
139.0513	35
