Mass spectrum: Icaridin acid; LC-ESI-QTOF; MS2; 130 V
Name: Icaridin acid
Formula: C12H21NO4
Exact mass: 243.1471
SMILES: CCC(C)OC(=O)N1CCCCC1CC(O)=O
InChI: InChI=1S/C12H21NO4/c1-3-9(2)17-12(16)13-7-5-4-6-10(13)8-11(14)15/h9-10H,3-8H2,1-2H3,(H,14,15)
Instrument: TripleTOF 6600 SCIEX
Instrument type: LC-ESI-QTOF
Ms type: MS2
Ion mode: POSITIVE
Collision energy: 130
Fragmentation mode: CID
Ionization: ESI
Column name: Zorbax Eclipse Plus C18 2.1 mm x 150 mm, 3.5 um, Agilent
Retention time: 9.741 min
Precursor m/z: 244.1543
Precursor type: [M+H]+
m/z	relative intensity
30.032	156
35.9975	65
37.0051	327
38.0007	95
38.0128	277
39.0208	999
41.0237	25
41.0364	216
42.0323	136
43.0163	35
43.0387	35
44.9949	45
51.02	30
52.0027	20
53.0116	30
54.0315	60
55.051	20
56.0471	176
65.0367	25
68.0463	75
69.0542	25
84.0775	20
