Mass spectrum: 1-Cyclohexyl-3-(2-methylphenyl)urea; LC-ESI-QTOF; MS2; 80 V
Name: 1-Cyclohexyl-3-(2-methylphenyl)urea
Formula: C14H20N2O
Exact mass: 232.1576
SMILES: O=C(NC1CCCCC1)Nc2ccccc2C
InChI: InChI=1S/C14H20N2O/c1-11-7-5-6-10-13(11)16-14(17)15-12-8-3-2-4-9-12/h5-7,10,12H,2-4,8-9H2,1H3,(H2,15,16,17)
Instrument: TripleTOF 6600 SCIEX
Instrument type: LC-ESI-QTOF
Ms type: MS2
Ion mode: POSITIVE
Collision energy: 80
Fragmentation mode: CID
Ionization: ESI
Column name: Zorbax Eclipse Plus C18 2.1 mm x 150 mm, 3.5 um, Agilent
Retention time: 11.026 min
Precursor m/z: 233.1649
Precursor type: [M+H]+
m/z	relative intensity
37.0064	14
38.0144	12
39.0224	144
41.0377	35
50.0138	10
51.0218	20
53.0375	12
54.0325	11
55.0533	108
63.0214	12
65.0376	423
66.0454	347
67.04	14
77.0374	29
78.0323	18
91.0527	149
92.048	123
93.0563	999
106.0637	21
