Mass spectrum: Formononetin; LC-ESI-QTOF; MS2; 110 V
Name: Formononetin
Class: Metabolite; Metabolite; Pharmaceutical
Formula: C16H12O4
Exact mass: 268.0736
SMILES: COc1ccc(cc1)C2=COc3cc(O)ccc3C2=O
InChI: InChI=1S/C16H12O4/c1-19-12-5-2-10(3-6-12)14-9-20-15-8-11(17)4-7-13(15)16(14)18/h2-9,17H,1H3
Instrument: TripleTOF 5600 SCIEX
Instrument type: LC-ESI-QTOF
Ms type: MS2
Ion mode: POSITIVE
Collision energy: 110
Fragmentation mode: CID
Ionization: ESI
Column name: Zorbax Eclipse Plus C18 2.1 mm x 150 mm, 3.5 um, Agilent
Retention time: 10.093 min
Precursor m/z: 269.0808
Precursor type: [M+H]+
m/z	relative intensity
53.0441	9
60.005	11
64.0345	64
65.0431	102
69.0005	49
74.0182	109
75.0255	104
76.0348	34
77.0411	233
78.0507	23
81.0351	24
86.0158	18
87.025	26
88.0335	19
89.0414	999
90.0498	44
91.0552	38
92.0263	19
98.0151	28
99.0247	26
101.0384	23
102.0473	82
113.0385	51
114.0479	31
115.0548	788
118.0402	11
125.0387	24
126.0468	114
127.0545	66
128.0622	41
138.047	16
139.0542	394
140.0632	21
141.0701	24
149.0369	13
150.0465	165
151.0541	142
152.0624	132
163.0513	9
168.0564	26
