Mass spectrum: Desmethylranitidine; LC-ESI-QTOF; MS2; 60 V
Name: Desmethylranitidine
Class: Pharmaceutical; Transformation_product; Transformation_product-Metabolite
Formula: C12H20N4O3S
Exact mass: 300.1256
SMILES: CNCC1=CC=C(O1)CSCCNC(=C[N+](=O)[O-])NC
InChI: InChI=1S/C12H20N4O3S/c1-13-7-10-3-4-11(19-10)9-20-6-5-15-12(14-2)8-16(17)18/h3-4,8,13-15H,5-7,9H2,1-2H3
Instrument: TripleTOF 5600 SCIEX
Instrument type: LC-ESI-QTOF
Ms type: MS2
Ion mode: POSITIVE
Collision energy: 60
Fragmentation mode: CID
Ionization: ESI
Column name: Zorbax Eclipse Plus C18 2.1 mm x 150 mm, 3.5 um, Agilent
Retention time: 4.769 min
Precursor m/z: 301.1329
Precursor type: [M+H]+
m/z	relative intensity
42.0455	25
53.0465	53
55.0453	31
56.0554	61
67.0617	17
68.0527	47
69.0618	13
71.0655	23
77.0418	115
78.048	19
79.0555	53
80.0528	49
81.0364	785
82.0534	29
83.0634	99
84.0693	25
85.042	13
88.0234	21
91.0564	37
93.0597	27
94.0458	19
94.0663	81
95.0526	45
96.0678	11
96.0814	63
97.0111	51
97.0773	443
98.0843	85
102.0379	999
104.0501	73
105.0601	17
106.0658	51
107.0497	241
108.0586	19
108.0802	19
109.075	29
110.062	23
115.0296	23
117.0495	43
118.0649	83
119.0585	17
120.0696	19
120.0816	27
121.0763	113
122.06	15
123.0259	29
124.0743	15
125.0058	393
126.0119	11
129.0482	45
130.0566	155
131.0641	37
132.0439	165
132.0807	15
133.011	11
133.0522	107
133.0749	37
134.0604	23
134.083	11
135.0332	17
135.0918	111
136.0765	9
137.0058	11
139.0345	17
146.061	25
147.0597	13
147.0897	29
148.076	125
149.07	27
150.0374	43
151.0202	13
152.0527	11
159.0462	19
160.0801	9
163.0862	41
167.0635	19
177.1027	37
178.0311	29
192.0523	17
