Mass spectrum: Chloroxuron; LC-ESI-QTOF; MS2; 80 V
Name: Chloroxuron
Class: Herbicide
Formula: C15H15ClN2O2
Exact mass: 290.0822
SMILES: CN(C)C(=O)Nc1ccc(Oc2ccc(Cl)cc2)cc1
InChI: InChI=1S/C15H15ClN2O2/c1-18(2)15(19)17-12-5-9-14(10-6-12)20-13-7-3-11(16)4-8-13/h3-10H,1-2H3,(H,17,19)
Instrument: TripleTOF 5600 SCIEX
Instrument type: LC-ESI-QTOF
Ms type: MS2
Ion mode: POSITIVE
Collision energy: 80
Fragmentation mode: CID
Ionization: ESI
Column name: Zorbax Eclipse Plus C18 2.1 mm x 150 mm, 3.5 um, Agilent
Retention time: 12.103 min
Precursor m/z: 291.0895
Precursor type: [M+H]+
m/z	relative intensity
42.0415	16
44.0577	26
56.0174	57
72.0485	999
72.0802	10
74.0178	54
75.0259	199
77.0403	22
84.9863	15
99.0012	14
110.9994	126
118.0648	16
126.0464	9
127.0535	51
128.0612	122
139.0544	51
149.0156	12
154.0632	25
