Mass spectrum: Chlorpyrifos; LC-ESI-QTOF; MS2; 20 V
Name: Chlorpyrifos
Class: Insecticide
Formula: C9H11Cl3NO3PS
Exact mass: 348.9263
SMILES: CCO[P](=S)(OCC)Oc1nc(Cl)c(Cl)cc1Cl
InChI: InChI=1S/C9H11Cl3NO3PS/c1-3-14-17(18,15-4-2)16-9-7(11)5-6(10)8(12)13-9/h5H,3-4H2,1-2H3
Instrument: TripleTOF 5600 SCIEX
Instrument type: LC-ESI-QTOF
Ms type: MS2
Ion mode: POSITIVE
Collision energy: 20
Fragmentation mode: CID
Ionization: ESI
Column name: Zorbax Eclipse Plus C18 2.1 mm x 150 mm, 3.5 um, Agilent
Retention time: 16.34 min
Precursor m/z: 349.9336
Precursor type: [M+H]+
m/z	relative intensity
96.9517	98
124.9822	271
153.0136	347
197.9279	999
213.9045	26
275.8609	29
293.8715	409
321.9026	532
349.9334	527
