Mass spectrum: Oxibendazole; LC-ESI-QTOF; MS2; 120 V
Name: Oxibendazole
Class: Pharmaceutical
Formula: C12H15N3O3
Exact mass: 249.1113
SMILES: CCCOC1=CC2=C(C=C1)N=C(N2)NC(=O)OC
InChI: InChI=1S/C12H15N3O3/c1-3-6-18-8-4-5-9-10(7-8)14-11(13-9)15-12(16)17-2/h4-5,7H,3,6H2,1-2H3,(H2,13,14,15,16)
Instrument: TripleTOF 5600 SCIEX
Instrument type: LC-ESI-QTOF
Ms type: MS2
Ion mode: POSITIVE
Collision energy: 120
Fragmentation mode: CID
Ionization: ESI
Column name: Zorbax Eclipse Plus C18 2.1 mm x 150 mm, 3.5 um, Agilent
Retention time: 6.663 min
Precursor m/z: 250.1186
Precursor type: [M+H]+
m/z	relative intensity
37.0069	115
38.0143	192
39.0229	268
40.0184	134
41.0264	134
43.0293	96
49.0064	96
50.0154	518
51.0229	518
52.0183	614
52.0309	249
53.0016	76
53.0385	384
62.0164	115
63.0223	96
64.0182	307
65.0133	115
65.026	326
66.0221	153
66.0344	365
67.0432	192
68.0134	230
69.0086	249
70.0289	96
75.0102	384
76.0183	999
77.0257	115
78.0332	268
80.0154	76
80.0493	134
81.0341	268
92.0373	326
93.0076	96
105.0435	76
