Mass spectrum: 2-p-Tolyl-1H-benzoimidazole; LC-ESI-QTOF; MS2; 130 V
Name: 2-p-Tolyl-1H-benzoimidazole
Class: Pharmaceutical
Formula: C14H12N2
Exact mass: 208.1
SMILES: CC1=CC=C(C=C1)C2=NC3=CC=CC=C3N2
InChI: InChI=1S/C14H12N2/c1-10-6-8-11(9-7-10)14-15-12-4-2-3-5-13(12)16-14/h2-9H,1H3,(H,15,16)
Instrument: TripleTOF 5600 SCIEX
Instrument type: LC-ESI-QTOF
Ms type: MS2
Ion mode: POSITIVE
Collision energy: 130
Fragmentation mode: CID
Ionization: ESI
Column name: Zorbax Eclipse Plus C18 2.1 mm x 150 mm, 3.5 um, Agilent
Retention time: 6.061 min
Precursor m/z: 209.1073
Precursor type: [M+H]+
m/z	relative intensity
52.0276	318
64.0376	95
65.0312	53
65.0456	999
73.0141	106
74.0204	573
75.0263	233
76.0265	148
77.0433	170
85.0102	74
86.0184	170
87.0248	106
88.0227	42
89.0416	191
91.0574	42
98.0178	116
99.0225	53
111.0257	42
113.0389	95
114.0378	42
139.0525	42
150.0461	127
151.0539	74
