Mass spectrum: Diphenhydramine; LC-ESI-QTOF; MS2; 110 V
Name: Diphenhydramine
Class: Pharmaceutical
Formula: C17H21NO
Exact mass: 255.1623
SMILES: CN(C)CCOC(c1ccccc1)c2ccccc2
InChI: InChI=1S/C17H21NO/c1-18(2)13-14-19-17(15-9-5-3-6-10-15)16-11-7-4-8-12-16/h3-12,17H,13-14H2,1-2H3
Instrument: TripleTOF 5600 SCIEX
Instrument type: LC-ESI-QTOF
Ms type: MS2
Ion mode: POSITIVE
Collision energy: 110
Fragmentation mode: CID
Ionization: ESI
Column name: Zorbax Eclipse Plus C18 2.1 mm x 150 mm, 3.5 um, Agilent
Retention time: 7.721 min
Precursor m/z: 256.1696
Precursor type: [M+H]+
m/z	relative intensity
52.0365	20
65.0431	138
74.0183	121
75.0264	75
76.0341	137
77.0413	148
78.0495	97
85.0081	16
86.017	56
87.0252	93
88.0318	10
89.0404	357
91.056	54
98.0167	63
99.0235	47
100.0305	26
101.0377	13
102.0467	283
110.0161	12
111.0226	16
113.0385	95
114.046	16
115.0544	783
125.0379	44
126.0464	323
127.0539	80
128.0625	117
137.0378	40
138.0456	41
139.054	501
149.0382	27
150.0461	399
151.0546	413
152.0618	233
161.0401	19
162.0464	89
163.0542	999
164.0617	615
165.0696	806
