Mass spectrum: Oxcarbazepine; LC-ESI-QTOF; MS2; 100 V
Name: Oxcarbazepine
Class: Pharmaceutical
Formula: C15H12N2O2
Exact mass: 252.0899
SMILES: NC(=O)N1c2ccccc2CC(=O)c3ccccc13
InChI: InChI=1S/C15H12N2O2/c16-15(19)17-12-7-3-1-5-10(12)9-14(18)11-6-2-4-8-13(11)17/h1-8H,9H2,(H2,16,19)
Instrument: TripleTOF 5600 SCIEX
Instrument type: LC-ESI-QTOF
Ms type: MS2
Ion mode: POSITIVE
Collision energy: 100
Fragmentation mode: CID
Ionization: ESI
Column name: Zorbax Eclipse Plus C18 2.1 mm x 150 mm, 3.5 um, Agilent
Retention time: 8.323 min
Precursor m/z: 253.0972
Precursor type: [M+H]+
m/z	relative intensity
51.0289	160
63.0488	11
65.0416	19
74.0169	83
75.0255	284
75.0582	9
76.0197	11
76.0325	49
77.0411	425
78.0484	33
86.016	17
87.0233	41
88.0316	21
89.0396	193
90.0487	23
91.0553	13
98.016	25
99.0233	41
100.0322	17
101.0389	243
102.0338	39
102.0459	81
111.0226	11
113.0382	108
114.0462	41
115.0539	116
116.0484	19
117.0575	13
124.0327	11
125.0378	96
126.0451	217
127.0539	223
128.0496	174
129.0463	23
137.0379	29
138.046	33
139.0536	346
140.0491	239
141.0576	15
149.0385	33
150.046	344
151.054	700
152.0613	999
153.0571	152
154.063	27
162.0456	33
163.0535	170
164.0534	87
165.0665	39
166.0636	85
167.071	17
176.0494	31
177.0572	170
178.0648	694
179.072	352
180.0802	168
188.051	13
189.0556	15
190.0631	43
191.0733	41
