Mass spectrum: Pantothenic acid; LC-ESI-QTOF; MS2; 20 V
Name: Pantothenic acid
Formula: C9H17NO5
Exact mass: 219.1107
SMILES: CC(C)(CO)C(C(=O)NCCC(=O)O)O
InChI: InChI=1S/C9H17NO5/c1-9(2,5-11)7(14)8(15)10-4-3-6(12)13/h7,11,14H,3-5H2,1-2H3,(H,10,15)(H,12,13)
Instrument: TripleTOF 6600 SCIEX
Instrument type: LC-ESI-QTOF
Ms type: MS2
Ion mode: POSITIVE
Collision energy: 20
Fragmentation mode: CID
Ionization: ESI
Column name: Zorbax Eclipse Plus C18 2.1 mm x 150 mm, 3.5 um, Agilent
Retention time: 4.792 min
Precursor m/z: 220.118
Precursor type: [M+H]+
m/z	relative intensity
43.0175	20
59.0497	12
67.0531	11
69.0695	26
70.0278	12
72.044	130
73.0274	12
85.0642	74
87.0799	27
90.0545	999
95.0484	35
98.0232	160
100.038	24
103.075	124
113.0588	36
116.0341	159
124.0753	147
142.0852	101
156.1014	15
160.0955	44
174.1115	55
184.0962	478
202.1069	723
220.1178	552
