Mass spectrum: Terbutylazine-2-hydroxy; LC-ESI-QTOF; MS2; 40 V
Name: Terbutylazine-2-hydroxy
Class: Herbicide; Transformation_product
Formula: C9H17N5O
Exact mass: 211.1433
InChI: InChI=1S/C9H17N5O/c1-5-10-6-11-7(13-8(15)12-6)14-9(2,3)4/h5H2,1-4H3,(H3,10,11,12,13,14,15)
Instrument: TripleTOF 5600 SCIEX
Instrument type: LC-ESI-QTOF
Ms type: CID
Ion mode: POSITIVE
Collision energy: 40
Ionization: ESI
Column name: Zorbax Eclipse Plus C18 2.1 mm x 150 mm, 3.5 um, Agilent
Retention time: 5.981 min
Precursor m/z: 212.1506
Precursor type: [M+H]+
m/z	relative intensity
43.0377	38
57.0755	73
68.028	35
69.0134	783
71.064	113
85.053	41
86.0379	999
96.0562	29
97.0415	533
113.082	26
114.0668	613
128.0567	70
138.078	11
156.0887	573
