Mass spectrum: Sertaconazole; LC-ESI-QTOF; MS2; 100 V
Name: Sertaconazole
Class: Fungicide; Pharmaceutical; Antimicrobial
Formula: C20H15Cl3N2OS
Exact mass: 435.9971
SMILES: C1=CC2=C(C(=C1)Cl)SC=C2COC(CN3C=CN=C3)C4=C(C=C(C=C4)Cl)Cl
InChI: InChI=1S/C20H15Cl3N2OS/c21-14-4-5-16(18(23)8-14)19(9-25-7-6-24-12-25)26-10-13-11-27-20-15(13)2-1-3-17(20)22/h1-8,11-12,19H,9-10H2
Instrument: TripleTOF 5600 SCIEX
Instrument type: LC-ESI-QTOF
Ms type: MS2
Ion mode: POSITIVE
Collision energy: 100
Fragmentation mode: CID
Ionization: ESI
Column name: Zorbax Eclipse Plus C18 2.1 mm x 150 mm, 3.5 um, Agilent
Retention time: 10.403 min
Precursor m/z: 437.0043
Precursor type: [M+H]+
m/z	relative intensity
68.983	136
69.0482	55
74.0176	15
75.0255	70
76.0343	15
78.9419	13
81.0477	45
82.0553	13
89.041	15
92.9827	22
99.0233	13
101.0388	218
102.0473	694
111.0003	20
114.0476	22
118.9941	15
120.0018	20
122.9986	15
129.0443	17
136.0072	32
137.0147	118
145.0109	999
145.0581	10
146.0182	574
149.0149	256
154.971	75
158.977	28
179.9806	10
180.9872	954
232.0337	14
233.0379	11
234.0504	25
236.0387	13
268.011	15
