Mass spectrum: Fludioxonil; LC-ESI-QTOF; MS2; 100 V
Name: Fludioxonil
Class: Fungicide
Formula: C12H6F2N2O2
Exact mass: 248.0397
SMILES: c1cc(c2c(c1)OC(O2)(F)F)c3c[nH]cc3C#N
InChI: InChI=1S/C12H6F2N2O2/c13-12(14)17-10-3-1-2-8(11(10)18-12)9-6-16-5-7(9)4-15/h1-3,5-6,16H
Instrument: TripleTOF 6600 SCIEX
Instrument type: LC-ESI-QTOF
Ms type: MS2
Ion mode: NEGATIVE
Collision energy: 100
Fragmentation mode: CID
Ionization: ESI
Column name: Zorbax Eclipse Plus C18 2.1 mm x 150 mm, 3.5 um, Agilent
Retention time: 11.757 min
Precursor m/z: 247.0324
Precursor type: [M-H]-
m/z	relative intensity
49.0078	204
50.0032	999
64.0053	102
65.0138	102
71.9992	89
73.0071	204
74.0025	307
89.0134	89
98.0031	76
115.029	51
139.0289	76
