Mass spectrum: Norethynodrel; LC-ESI-QTOF; MS2; 80 V
Name: Norethynodrel
Class: Pharmaceutical
Formula: C20H26O2
Exact mass: 298.1933
SMILES: C[C@]12CC[C@H]3[C@@H](CCC4=C3CCC(=O)C4)[C@@H]1CC[C@@]2(O)C#C
InChI: InChI=1S/C20H26O2/c1-3-20(22)11-9-18-17-6-4-13-12-14(21)5-7-15(13)16(17)8-10-19(18,20)2/h1,16-18,22H,4-12H2,2H3/t16-,17-,18+,19+,20+/m1/s1
Instrument: TripleTOF 5600 SCIEX
Instrument type: LC-ESI-QTOF
Ms type: MS2
Ion mode: POSITIVE
Collision energy: 80
Fragmentation mode: CID
Ionization: ESI
Column name: Zorbax Eclipse Plus C18 2.1 mm x 150 mm, 3.5 um, Agilent
Retention time: 11.133 min
Precursor m/z: 299.2006
Precursor type: [M+H]+
m/z	relative intensity
43.0324	16
53.044	65
55.0229	34
55.0596	100
65.0432	293
66.0503	16
67.0583	136
77.0422	999
78.0499	34
79.0569	591
81.0373	13
81.0717	186
83.0511	179
89.0402	38
91.0559	963
93.0703	61
94.0419	27
102.0469	36
103.0538	117
104.0608	24
105.0692	167
107.048	92
107.088	17
109.0643	158
115.0543	622
116.0611	88
117.0701	103
119.0841	28
121.0648	10
126.0463	13
127.0537	152
128.0622	553
129.0691	177
130.0774	23
131.0477	16
131.0846	27
133.0649	16
139.0578	10
141.0689	264
142.0763	36
143.0845	16
151.0537	14
152.0625	88
153.0692	115
154.0765	14
155.0836	40
164.0591	10
165.0684	144
166.0774	14
167.0831	23
177.0657	14
178.0759	66
179.0876	27
189.0693	25
190.079	17
191.0827	20
202.0778	17
203.0821	13
