Mass spectrum: Quinmerac; LC-ESI-QTOF; MS2; 100 V
Name: Quinmerac
Class: Herbicide
Formula: C11H8ClNO2
Exact mass: 221.0244
SMILES: Cc1cc2ccc(c(c2nc1)C(=O)O)Cl
InChI: InChI=1S/C11H8ClNO2/c1-6-4-7-2-3-8(12)9(11(14)15)10(7)13-5-6/h2-5H,1H3,(H,14,15)
Instrument: TripleTOF 6600 SCIEX
Instrument type: LC-ESI-QTOF
Ms type: MS2
Ion mode: POSITIVE
Collision energy: 100
Fragmentation mode: CID
Ionization: ESI
Column name: Zorbax Eclipse Plus C18 2.1 mm x 150 mm, 3.5 um, Agilent
Retention time: 7.013 min
Precursor m/z: 222.0316
Precursor type: [M+H]+
m/z	relative intensity
37.0071	59
38.0155	46
39.0231	118
46.9678	38
48.9836	55
49.0072	29
50.0152	97
51.0234	63
59.9996	55
61.0072	414
62.0154	855
63.0231	927
64.0186	110
64.0301	55
65.0383	80
72.9842	198
73.0073	71
74.0152	351
75.0115	21
75.0231	101
76.0189	25
76.0311	21
77.0387	16
83.9991	29
85.007	139
86.0154	431
87.0114	46
87.0224	571
88.0191	186
88.0305	533
89.038	110
90.0335	38
96.9837	76
98.015	88
98.9998	38
99.0099	67
99.0214	33
100.0181	33
110.0112	21
111.0117	25
112.0182	33
113.0387	999
114.0341	177
114.0459	97
115.0546	46
122.9995	42
138.0344	16
140.0491	228
