Mass spectrum: Di-tert-butylphosphineoxide; LC-ESI-QTOF; MS2; 30 V
Name: Di-tert-butylphosphineoxide
Class: Industrial_process
Formula: C8H19OP
Exact mass: 162.1174
SMILES: CC(C)(P(C(C)(C)C)=O)C
InChI: InChI=1S/C8H19OP/c1-7(2,3)10(9)8(4,5)6/h10H,1-6H3
Instrument: TripleTOF 5600 SCIEX
Instrument type: LC-ESI-QTOF
Ms type: MS2
Ion mode: POSITIVE
Collision energy: 30
Fragmentation mode: CID
Ionization: ESI
Column name: Zorbax Eclipse Plus C18 2.1 mm x 150 mm, 3.5 um, Agilent
Retention time: 7.101 min
Precursor m/z: 163.1246
Precursor type: [M+H]+
m/z	relative intensity
51.0057	77
57.0761	999
107.0623	231
163.1237	18
