Mass spectrum: Lomefloxacin; LC-ESI-QTOF; MS2; 80 V
Name: Lomefloxacin
Class: Pharmaceutical; Antimicrobial
Formula: C17H19F2N3O3
Exact mass: 351.1394
SMILES: CCn1cc(c(=O)c2c1c(c(c(c2)F)N3CCNC(C3)C)F)C(=O)O
InChI: InChI=1S/C17H19F2N3O3/c1-3-21-8-11(17(24)25)16(23)10-6-12(18)15(13(19)14(10)21)22-5-4-20-9(2)7-22/h6,8-9,20H,3-5,7H2,1-2H3,(H,24,25)
Instrument: TripleTOF 5600 SCIEX
Instrument type: LC-ESI-QTOF
Ms type: MS2
Ion mode: POSITIVE
Collision energy: 80
Fragmentation mode: CID
Ionization: ESI
Column name: Zorbax Eclipse Plus C18 2.1 mm x 150 mm, 3.5 um, Agilent
Retention time: 5.44 min
Precursor m/z: 352.1467
Precursor type: [M+H]+
m/z	relative intensity
107.0307	108
112.0123	72
120.0429	90
125.0189	163
126.0305	145
127.0398	163
128.0516	72
132.0244	108
134.0403	181
139.0229	417
140.0326	163
146.0386	254
147.048	326
148.0332	108
148.0569	236
150.0145	108
151.0239	217
152.0302	363
153.0391	254
154.0374	72
155.0601	145
158.0439	72
160.0544	163
161.0566	163
165.0351	199
166.0429	999
167.0417	108
168.075	90
169.0318	108
172.0554	72
173.0525	308
174.0594	435
175.0693	72
176.0508	254
178.0331	181
179.0416	272
179.0567	72
180.0253	127
180.0463	90
180.0615	108
181.031	199
186.0584	163
187.0666	199
192.0237	127
192.0526	90
193.0265	163
193.0584	217
194.0634	363
195.0496	617
196.042	108
202.0527	127
203.0604	236
205.0206	217
206.0275	199
208.0593	108
209.0571	108
215.0638	90
221.0529	108
233.0122	90
249.0502	127
