Mass spectrum: 2-(Ethylthio)benzothiazole; LC-ESI-QTOF; MS2; 40 V
Name: 2-(Ethylthio)benzothiazole
Class: Pharmaceutical
Formula: C9H9NS2
Exact mass: 195.0176
SMILES: CCSc1sc2ccccc2n1
InChI: InChI=1S/C9H9NS2/c1-2-11-9-10-7-5-3-4-6-8(7)12-9/h3-6H,2H2,1H3
Instrument: TripleTOF 5600 SCIEX
Instrument type: LC-ESI-QTOF
Ms type: MS2
Ion mode: POSITIVE
Collision energy: 40
Fragmentation mode: CID
Ionization: ESI
Column name: Zorbax Eclipse Plus C18 2.1 mm x 150 mm, 3.5 um, Agilent
Retention time: 13.742 min
Precursor m/z: 196.0249
Precursor type: [M+H]+
m/z	relative intensity
65.0426	124
66.0511	15
68.9811	15
77.0418	86
80.0518	49
90.0399	15
91.0441	15
92.0516	130
96.0049	15
108.003	43
109.0111	192
110.0184	55
123.0146	31
124.0219	238
134.0068	21
135.0143	558
136.021	223
140.9835	21
166.9874	99
167.9938	999
196.0228	124
