Mass spectrum: Pindolol; LC-ESI-QTOF; MS2; 120 V
Name: Pindolol
Class: Pharmaceutical
Formula: C14H20N2O2
Exact mass: 248.1525
SMILES: CC(C)NCC(COC1=CC=CC2=C1C=CN2)O
InChI: InChI=1S/C14H20N2O2/c1-10(2)16-8-11(17)9-18-14-5-3-4-13-12(14)6-7-15-13/h3-7,10-11,15-17H,8-9H2,1-2H3
Instrument: TripleTOF 5600 SCIEX
Instrument type: LC-ESI-QTOF
Ms type: MS2
Ion mode: POSITIVE
Collision energy: 120
Fragmentation mode: CID
Ionization: ESI
Column name: Zorbax Eclipse Plus C18 2.1 mm x 150 mm, 3.5 um, Agilent
Retention time: 5.148 min
Precursor m/z: 249.1598
Precursor type: [M+H]+
m/z	relative intensity
42.0438	30
56.0588	82
58.0744	112
65.0458	307
74.0225	112
75.0279	112
76.0329	45
77.0442	563
78.041	202
79.0483	60
89.0429	999
90.0513	142
91.0573	97
102.0485	37
104.0534	172
113.0376	30
115.0571	127
117.0612	82
