Mass spectrum: Monolinuron; LC-ESI-QTOF; MS2; 120 V
Name: Monolinuron
Class: Herbicide
Formula: C9H11ClN2O2
Exact mass: 214.0509
InChI: InChI=1S/C9H11ClN2O2/c1-12(14-2)9(13)11-8-5-3-7(10)4-6-8/h3-6H,1-2H3,(H,11,13)
Instrument: TripleTOF 5600 SCIEX
Instrument type: LC-ESI-QTOF
Ms type: CID
Ion mode: POSITIVE
Collision energy: 120
Ionization: ESI
Column name: Zorbax Eclipse Plus C18 2.1 mm x 150 mm, 3.5 um, Agilent
Retention time: 10.275 min
Precursor m/z: 215.0582
Precursor type: [M+H]+
m/z	relative intensity
39.022	312
72.9825	999
