Mass spectrum: Atenolol acid; LC-ESI-QTOF; MS2; 80 V
Name: Atenolol acid
Class: Pharmaceutical
Formula: C14H21NO4
Exact mass: 267.1471
SMILES: CC(C)NCC(COC1=CC=C(C=C1)CC(=O)O)O
InChI: InChI=1S/C14H21NO4/c1-10(2)15-8-12(16)9-19-13-5-3-11(4-6-13)7-14(17)18/h3-6,10,12,15-16H,7-9H2,1-2H3,(H,17,18)
Instrument: TripleTOF 5600 SCIEX
Instrument type: LC-ESI-QTOF
Ms type: MS2
Ion mode: POSITIVE
Collision energy: 80
Fragmentation mode: CID
Ionization: ESI
Column name: Zorbax Eclipse Plus C18 2.1 mm x 150 mm, 3.5 um, Agilent
Retention time: 4.893 min
Precursor m/z: 268.1543
Precursor type: [M+H]+
m/z	relative intensity
39.023	37
41.0387	59
43.054	31
50.0148	18
51.0233	71
55.0179	18
56.0488	130
58.0651	31
62.0146	15
63.0227	87
65.0384	177
67.0541	15
74.06	28
77.0385	999
78.0466	12
79.0539	230
89.0387	186
91.0542	432
94.0384	18
95.0485	18
103.0544	15
107.0486	87
115.0548	367
116.059	28
117.07	15
127.0556	15
131.0472	18
144.0567	34
145.0654	21
