Mass spectrum: Tetraheptylammonium; LC-ESI-QTOF; MS2; 140 V
Name: Tetraheptylammonium
Class: Industrial_process
Formula: [C28H60N]+
Exact mass: 410.472
SMILES: CCCCCCC[N+](CCCCCCC)(CCCCCCC)CCCCCCC
InChI: InChI=1S/C28H60N/c1-5-9-13-17-21-25-29(26-22-18-14-10-6-2,27-23-19-15-11-7-3)28-24-20-16-12-8-4/h5-28H2,1-4H3/q+1
Instrument: TripleTOF 5600 SCIEX
Instrument type: LC-ESI-QTOF
Ms type: MS2
Ion mode: POSITIVE
Collision energy: 140
Fragmentation mode: CID
Ionization: ESI
Column name: Zorbax Eclipse Plus C18 2.1 mm x 150 mm, 3.5 um, Agilent
Retention time: 14.727 min
Precursor m/z: 410.472
Precursor type: [M]+
m/z	relative intensity
44.0543	147
57.0758	131
58.0684	999
