Mass spectrum: Climbazole; LC-ESI-QTOF; MS2; 90 V
Name: Climbazole
Class: Pharmaceutical; Personal_care_product
Formula: C15H17ClN2O2
Exact mass: 292.0979
SMILES: CC(C)(C)C(=O)C(Oc1ccc(Cl)cc1)n2ccnc2
InChI: InChI=1S/C15H17ClN2O2/c1-15(2,3)13(19)14(18-9-8-17-10-18)20-12-6-4-11(16)5-7-12/h4-10,14H,1-3H3
Instrument: TripleTOF 5600 SCIEX
Instrument type: LC-ESI-QTOF
Ms type: MS2
Ion mode: POSITIVE
Collision energy: 90
Fragmentation mode: CID
Ionization: ESI
Column name: Zorbax Eclipse Plus C18 2.1 mm x 150 mm, 3.5 um, Agilent
Retention time: 8.761 min
Precursor m/z: 293.1051
Precursor type: [M+H]+
m/z	relative intensity
48.9889	12
51.028	59
55.06	100
57.0747	282
65.0425	71
66.0532	17
67.0561	12
68.0395	29
69.048	130
69.0727	36
72.9871	533
73.0256	12
74.018	433
74.0896	9
75.0261	999
75.0741	12
76.033	27
77.0409	123
78.0491	19
81.0458	66
82.053	14
84.9859	98
91.0535	59
94.0411	46
94.0593	9
99	529
99.0256	9
99.0417	14
102.0454	14
109.0393	17
110.999	425
115.0558	12
125.015	14
128.0026	14
128.061	17
139.004	36
