Mass spectrum: Atenolol acid; LC-ESI-QTOF; MS2; 110 V
Name: Atenolol acid
Class: Pharmaceutical
Formula: C14H21NO4
Exact mass: 267.1471
SMILES: CC(C)NCC(COC1=CC=C(C=C1)CC(=O)O)O
InChI: InChI=1S/C14H21NO4/c1-10(2)15-8-12(16)9-19-13-5-3-11(4-6-13)7-14(17)18/h3-6,10,12,15-16H,7-9H2,1-2H3,(H,17,18)
Instrument: TripleTOF 5600 SCIEX
Instrument type: LC-ESI-QTOF
Ms type: MS2
Ion mode: POSITIVE
Collision energy: 110
Fragmentation mode: CID
Ionization: ESI
Column name: Zorbax Eclipse Plus C18 2.1 mm x 150 mm, 3.5 um, Agilent
Retention time: 4.893 min
Precursor m/z: 268.1543
Precursor type: [M+H]+
m/z	relative intensity
38.014	23
39.0224	165
41.038	112
43.0541	47
44.0495	29
49.0075	29
50.0147	135
51.0225	466
53.0387	47
56.0499	112
58.0644	53
62.0148	65
63.0226	354
65.0384	195
77.0385	999
78.045	29
79.0544	35
89.0387	212
91.0544	171
102.0452	23
107.0491	29
115.0539	171
