Mass spectrum: Drometrizole; LC-ESI-QTOF; MS2; 40 V
Name: Drometrizole
Class: Industrial_process
Formula: C13H11N3O
Exact mass: 225.0902
SMILES: CC1=CC(=C(C=C1)O)N2N=C3C=CC=CC3=N2
InChI: InChI=1S/C13H11N3O/c1-9-6-7-13(17)12(8-9)16-14-10-4-2-3-5-11(10)15-16/h2-8,17H,1H3
Instrument: TripleTOF 5600 SCIEX
Instrument type: LC-ESI-QTOF
Ms type: MS2
Ion mode: POSITIVE
Collision energy: 40
Fragmentation mode: CID
Ionization: ESI
Column name: Zorbax Eclipse Plus C18 2.1 mm x 150 mm, 3.5 um, Agilent
Retention time: 15.201 min
Precursor m/z: 226.0975
Precursor type: [M+H]+
m/z	relative intensity
65.046	156
77.0447	999
79.0596	671
80.0584	12
92.054	103
93.0641	12
94.0692	25
105.0471	103
106.0555	83
107.0515	650
115.0577	17
120.057	827
127.0549	70
128.0628	93
129.0584	17
130.0687	17
140.0565	10
141.0726	15
143.0776	22
151.0544	25
152.0629	73
153.0705	27
154.0663	388
155.0731	105
156.0663	12
164.0471	22
165.0585	25
167.0741	45
168.082	42
170.0977	15
171.0781	12
178.0688	25
179.0705	27
180.0808	103
181.0751	189
182.0606	27
182.0854	90
183.0687	302
196.0792	15
197.0808	35
198.1018	25
226.0983	401
