Mass spectrum: Benzyltriphenylphosphonium; LC-ESI-QTOF; MS2; 150 V
Name: Benzyltriphenylphosphonium
Class: Industrial_process
Formula: [C25H22P]+
Exact mass: 353.1454
SMILES: C1=CC=C(C=C1)C[P+](C2=CC=CC=C2)(C3=CC=CC=C3)C4=CC=CC=C4
InChI: InChI=1S/C25H22P/c1-5-13-22(14-6-1)21-26(23-15-7-2-8-16-23,24-17-9-3-10-18-24)25-19-11-4-12-20-25/h1-20H,21H2/q+1
Instrument: TripleTOF 5600 SCIEX
Instrument type: LC-ESI-QTOF
Ms type: MS2
Ion mode: POSITIVE
Collision energy: 150
Fragmentation mode: CID
Ionization: ESI
Column name: Zorbax Eclipse Plus C18 2.1 mm x 150 mm, 3.5 um, Agilent
Retention time: 8.706 min
Precursor m/z: 353.1454
Precursor type: [M]+
m/z	relative intensity
39.0232	301
51.0226	76
56.9889	89
62.0146	68
63.0225	240
65.038	824
79.9801	174
80.9876	333
89.0367	282
91.0529	605
102.0452	150
107.0032	999
113.0367	118
115.0528	325
126.0456	303
131.0043	116
133.0193	60
139.0534	280
150.046	298
151.0546	573
152.0614	708
155.0045	63
156.0127	118
157.0197	438
180.0136	81
181.0197	491
183.0372	50
