Mass spectrum: Dimethomorph; LC-ESI-QTOF; MS2; 100 V
Name: Dimethomorph
Class: Fungicide
Formula: C21H22ClNO4
Exact mass: 387.1237
SMILES: COC1=C(C=C(C=C1)/C(=C/C(=O)N2CCOCC2)/C3=CC=C(C=C3)Cl)OC
InChI: InChI=1S/C21H22ClNO4/c1-25-19-8-5-16(13-20(19)26-2)18(15-3-6-17(22)7-4-15)14-21(24)23-9-11-27-12-10-23/h3-8,13-14H,9-12H2,1-2H3/b18-14+
Instrument: TripleTOF 5600 SCIEX
Instrument type: LC-ESI-QTOF
Ms type: MS2
Ion mode: POSITIVE
Collision energy: 100
Fragmentation mode: CID
Ionization: ESI
Column name: Zorbax Eclipse Plus C18 2.1 mm x 150 mm, 3.5 um, Agilent
Retention time: 11.552 min
Precursor m/z: 388.131
Precursor type: [M+H]+
m/z	relative intensity
42.0425	31
51.0289	12
65.0432	28
66.0507	47
70.0328	30
74.0182	21
75.0257	87
77.0412	134
79.0572	19
89.0404	54
90.0489	17
92.0273	29
94.0418	31
98.9993	24
102.0473	19
107.0125	37
110.9996	178
115.0536	42
121.0285	72
122.0368	26
125.015	48
126.0458	39
128.0616	16
138.9988	30
139.0539	47
141.0692	12
149.0156	35
150.0466	50
151.0544	225
152.0626	999
160.007	13
162.0472	14
162.9948	10
163.0547	400
164.0624	447
165.0701	635
166.0768	51
173.0166	24
175.055	12
176.0618	274
177.0693	59
178.0782	136
180.0564	30
186.0232	27
187.0316	12
192.0548	20
194.0724	44
198.0243	12
199.0308	361
205.0662	10
212.0394	26
215.0252	15
227.0254	25
