Mass spectrum: Acridine; LC-ESI-QTOF; MS2; 130 V
Name: Acridine
Class: Industrial_process
Formula: C13H9N
Exact mass: 179.0735
SMILES: c1ccc2nc3ccccc3cc2c1
InChI: InChI=1S/C13H9N/c1-3-7-12-10(5-1)9-11-6-2-4-8-13(11)14-12/h1-9H
Instrument: TripleTOF 5600 SCIEX
Instrument type: LC-ESI-QTOF
Ms type: MS2
Ion mode: POSITIVE
Collision energy: 130
Fragmentation mode: CID
Ionization: ESI
Column name: Zorbax Eclipse Plus C18 2.1 mm x 150 mm, 3.5 um, Agilent
Retention time: 5.776 min
Precursor m/z: 180.0808
Precursor type: [M+H]+
m/z	relative intensity
52.0234	11
60.0039	27
73.0105	255
74.019	999
74.0526	13
75.0149	41
75.0261	154
76.0205	14
76.032	17
77.0427	14
84.0017	36
85.0098	219
85.0398	9
86.0173	179
87.0257	32
97.0087	119
98.0167	315
99.0116	38
99.0231	31
107.9986	13
109.0073	76
110.0151	62
120.0001	12
121.007	16
122.0152	43
123.0124	12
