Mass spectrum: Norcocaine; LC-ESI-QTOF; MS2; 40 V
Name: Norcocaine
Class: Metabolite; Pharmaceutical
Formula: C16H19NO4
Exact mass: 289.1314
SMILES: COC(=O)C1C2CCC(N2)CC1OC(=O)C3=CC=CC=C3
InChI: InChI=1S/C16H19NO4/c1-20-16(19)14-12-8-7-11(17-12)9-13(14)21-15(18)10-5-3-2-4-6-10/h2-6,11-14,17H,7-9H2,1H3
Instrument: TripleTOF 6600 SCIEX
Instrument type: LC-ESI-QTOF
Ms type: MS2
Ion mode: POSITIVE
Collision energy: 40
Fragmentation mode: CID
Ionization: ESI
Column name: Zorbax Eclipse Plus C18 2.1 mm x 150 mm, 3.5 um, Agilent
Retention time: 6.51 min
Precursor m/z: 290.139
Precursor type: [M+H]+
m/z	relative intensity
41.0387	6
51.0231	7
55.0543	7
59.0132	12
65.0383	25
67.0538	13
68.0499	439
69.0337	9
77.0386	218
79.0533	26
80.0492	73
81.0698	67
82.0648	14
91.0543	259
93.0335	41
93.057	27
93.0685	7
94.0647	46
97.0642	17
105.0334	380
106.0641	9
107.0489	11
108.0807	379
110.0284	6
118.0416	10
118.0632	58
119.0487	74
125.0592	10
136.0757	999
168.1017	194
