Mass spectrum: 6PPD-quinone; LC-ESI-QTOF; MS2; 100 V
Name: 6PPD-quinone
Class: Industrial_process
Formula: C18H22N2O2
Exact mass: 298.1681
SMILES: CC(C)CC(C)NC1=CC(=O)C(=CC1=O)NC2=CC=CC=C2
InChI: InChI=1S/C18H22N2O2/c1-12(2)9-13(3)19-15-10-18(22)16(11-17(15)21)20-14-7-5-4-6-8-14/h4-8,10-13,19-20H,9H2,1-3H3
Instrument: TripleTOF 6600 SCIEX
Instrument type: LC-ESI-QTOF
Ms type: MS2
Ion mode: POSITIVE
Collision energy: 100
Fragmentation mode: CID
Ionization: ESI
Column name: Zorbax Eclipse Plus C18 2.1 mm x 150 mm, 3.5 um, Agilent
Retention time: 13.951 min
Precursor m/z: 299.1754
Precursor type: [M+H]+
m/z	relative intensity
39.0233	230
41.0386	153
50.0156	153
51.0231	563
65.0385	230
68.0133	128
75.0224	128
77.0384	999
82.0531	179
89.0388	307
91.0531	307
93.0572	179
101.0366	153
103.0582	102
115.0545	409
116.0496	102
117.0574	179
128.0486	230
130.0636	153
143.0715	102
