Mass spectrum: Acesulfame; LC-ESI-QTOF; MS2; 100 V
Name: Acesulfame
Class: Food_additive
Formula: C4H5NO4S
Exact mass: 162.9939
SMILES: CC1=CC(=O)NS(=O)(=O)O1
InChI: InChI=1S/C4H5NO4S/c1-3-2-4(6)5-10(7,8)9-3/h2H,1H3,(H,5,6)
Instrument: TripleTOF 5600 SCIEX
Instrument type: LC-ESI-QTOF
Ms type: MS2
Ion mode: NEGATIVE
Collision energy: 100
Fragmentation mode: CID
Ionization: ESI
Column name: Zorbax Eclipse Plus C18 2.1 mm x 150 mm, 3.5 um, Agilent
Retention time: 4.125 min
Precursor m/z: 161.9867
Precursor type: [M-H]-
m/z	relative intensity
42.0018	347
42.0107	43
47.9694	999
47.9841	86
61.9705	260
61.9778	43
63.9626	955
63.9846	43
77.9656	521
