Mass spectrum: Clarithromycin; LC-ESI-QTOF; MS2; 60 V
Name: Clarithromycin
Class: Pharmaceutical; Transformation_product-Metabolite
Formula: C38H69NO13
Exact mass: 747.4769
SMILES: CC[C@H]1OC(=O)[C@H](C)[C@@H](O[C@H]2C[C@@](C)(OC)[C@@H](O)[C@H](C)O2)[C@H](C)[C@@H](O[C@@H]3O[C@H](C)C[C@@H]([C@H]3O)N(C)C)[C@@](C)(C[C@@H](C)C(=O)[C@H](C)[C@@H](O)[C@]1(C)O)OC
InChI: InChI=1S/C38H69NO13/c1-15-26-38(10,45)31(42)21(4)28(40)19(2)17-37(9,47-14)33(52-35-29(41)25(39(11)12)16-20(3)48-35)22(5)30(23(6)34(44)50-26)51-27-18-36(8,46-13)32(43)24(7)49-27/h19-27,29-33,35,41-43,45H,15-18H2,1-14H3/t19-,20-,21+,22+,23-,24+,25+,26-,27+,29-,30+,31-,32+,33-,35+,36-,37-,38-/m1/s1
Instrument: TripleTOF 5600 SCIEX
Instrument type: LC-ESI-QTOF
Ms type: MS2
Ion mode: POSITIVE
Collision energy: 60
Fragmentation mode: CID
Ionization: ESI
Column name: Zorbax Eclipse Plus C18 2.1 mm x 150 mm, 3.5 um, Agilent
Retention time: 8.861 min
Precursor m/z: 748.4842
Precursor type: [M+H]+
m/z	relative intensity
55.0594	12
72.0834	41
83.0514	417
87.0456	46
88.0772	27
98.0971	184
100.0748	27
113.0595	86
114.0904	22
115.0756	52
116.0704	273
116.1064	154
127.0744	40
158.1175	999
