Mass spectrum: Chlormethiazole; LC-ESI-QTOF; MS2; 50 V
Name: Chlormethiazole
Class: Pharmaceutical
Formula: C6H8ClNS
Exact mass: 161.0066
SMILES: CC1=C(SC=N1)CCCl
InChI: InChI=1S/C6H8ClNS/c1-5-6(2-3-7)9-4-8-5/h4H,2-3H2,1H3
Instrument: TripleTOF 6600 SCIEX
Instrument type: LC-ESI-QTOF
Ms type: MS2
Ion mode: POSITIVE
Collision energy: 50
Fragmentation mode: CID
Ionization: ESI
Column name: Zorbax Eclipse Plus C18 2.1 mm x 150 mm, 3.5 um, Agilent
Retention time: 7.946 min
Precursor m/z: 162.0139
Precursor type: [M+H]+
m/z	relative intensity
39.0228	59
41.0385	19
42.0336	109
44.9792	107
51.0233	11
53.0384	61
54.0336	30
55.0416	38
55.0541	38
58.9946	61
65.0382	132
66.0459	13
68.0492	32
69.0571	21
70.9946	414
72.002	88
78.0337	30
80.0487	162
84.0029	24
85.0101	220
86.0178	59
94.9942	13
97.0102	21
98.0056	38
99.0261	44
112.021	999
113.0286	500
126.0362	107
