Mass spectrum: Fluxapyroxad; LC-ESI-QTOF; MS2; 60 V
Name: Fluxapyroxad
Class: Fungicide
Formula: C18H12F5N3O
Exact mass: 381.0901
SMILES: Cn1cc(c(n1)C(F)F)C(=O)Nc2ccccc2c3cc(c(c(c3)F)F)F
InChI: InChI=1S/C18H12F5N3O/c1-26-8-11(16(25-26)17(22)23)18(27)24-14-5-3-2-4-10(14)9-6-12(19)15(21)13(20)7-9/h2-8,17H,1H3,(H,24,27)
Instrument: TripleTOF 6600 SCIEX
Instrument type: LC-ESI-QTOF
Ms type: MS2
Ion mode: POSITIVE
Collision energy: 60
Fragmentation mode: CID
Ionization: ESI
Column name: Zorbax Eclipse Plus C18 2.1 mm x 150 mm, 3.5 um, Agilent
Retention time: 12.239 min
Precursor m/z: 382.0973
Precursor type: [M+H]+
m/z	relative intensity
42.0334	27
82.0273	11
109.039	83
111.0337	10
134.0348	19
139.0291	55
145.0247	26
157.0434	20
159.0357	310
167.0278	21
182.0397	13
186.0267	21
187.0351	232
188.043	92
194.0396	10
197.0584	11
201.0479	11
205.0258	115
206.0338	999
207.0409	152
212.0302	177
213.0375	39
214.0463	23
215.0409	26
218.0335	39
219.0411	77
220.0376	10
221.0621	14
225.0497	68
226.0461	212
227.0501	19
231.0284	133
232.0369	498
233.033	11
233.0506	41
234.0526	643
237.0425	10
238.0532	24
239.0524	20
240.0369	55
240.0617	74
241.0554	11
243.0412	140
244.0427	64
245.0502	55
246.0519	123
247.0628	49
250.0477	30
251.0527	26
252.0606	96
253.0576	54
254.0636	17
256.0355	21
257.0438	16
258.0527	83
259.0513	46
260.0322	33
260.0672	27
264.0599	17
265.0624	27
266.0603	11
266.0767	30
267.0722	57
268.0553	13
269.055	16
270.0521	229
271.0611	691
272.0559	61
273.0633	68
274.0743	13
277.0606	14
278.0642	13
279.0607	142
280.0677	21
281.0505	17
282.0453	20
283.0479	35
284.0681	55
285.0654	92
286.0716	38
287.0754	11
292.0663	13
293.0755	20
294.0838	36
295.0623	20
296.0538	14
297.0627	19
298.0597	30
299.0628	21
299.0773	46
301.0575	26
312.0727	27
314.0898	62
315.0747	14
322.0817	46
324.0763	11
325.0813	17
326.0535	10
327.0597	13
340.0692	16
341.0761	26
342.0849	121
