Mass spectrum: Tolnaftate; LC-ESI-QTOF; MS2; 90 V
Name: Tolnaftate
Class: Fungicide; Pharmaceutical
Formula: C19H17NOS
Exact mass: 307.1031
SMILES: CC1=CC(=CC=C1)N(C)C(=S)OC2=CC3=CC=CC=C3C=C2
InChI: InChI=1S/C19H17NOS/c1-14-6-5-9-17(12-14)20(2)19(22)21-18-11-10-15-7-3-4-8-16(15)13-18/h3-13H,1-2H3
Instrument: TripleTOF 5600 SCIEX
Instrument type: LC-ESI-QTOF
Ms type: MS2
Ion mode: POSITIVE
Collision energy: 90
Fragmentation mode: CID
Ionization: ESI
Column name: Zorbax Eclipse Plus C18 2.1 mm x 150 mm, 3.5 um, Agilent
Retention time: 15.53 min
Precursor m/z: 308.1104
Precursor type: [M+H]+
m/z	relative intensity
39.0224	40
41.039	14
44.9791	31
51.0228	20
65.0384	741
77.0387	188
78.0452	17
79.0552	78
89.0375	17
91.0541	999
92.0613	34
93.0686	17
97.0082	14
104.0503	46
108.0013	23
115.0545	43
117.0557	20
120.0801	46
121.0063	17
123.026	34
127.0542	31
132.0439	17
136.0191	26
148.0232	37
149.0297	46
