Mass spectrum: Mesotrione; LC-ESI-QTOF; MS2; 50 V
Name: Mesotrione
Class: Herbicide
Formula: C14H13NO7S
Exact mass: 339.0413
SMILES: CS(=O)(=O)C1=CC(=C(C=C1)C(=O)C2C(=O)CCCC2=O)[N+](=O)[O-]
InChI: InChI=1S/C14H13NO7S/c1-23(21,22)8-5-6-9(10(7-8)15(19)20)14(18)13-11(16)3-2-4-12(13)17/h5-7,13H,2-4H2,1H3
Instrument: TripleTOF 6600 SCIEX
Instrument type: LC-ESI-QTOF
Ms type: MS2
Ion mode: POSITIVE
Collision energy: 50
Fragmentation mode: CID
Ionization: ESI
Column name: Zorbax Eclipse Plus C18 2.1 mm x 150 mm, 3.5 um, Agilent
Retention time: 9.26 min
Precursor m/z: 340.0486
Precursor type: [M+H]+
m/z	relative intensity
39.0231	29
50.0152	32
51.0227	26
53.0019	64
55.0177	66
62.9895	122
65.0384	20
66.0336	43
68.0119	11
68.9964	46
75.0101	17
75.0219	14
76.018	550
77.0257	381
78.0337	49
78.984	104
79.017	66
80.013	23
80.0233	14
84.057	23
91.0173	32
92.0242	17
94.028	11
95.012	23
103.0176	29
104.0129	999
105.0216	14
107.0123	93
108.0197	23
111.043	23
119.012	37
120.02	14
154.9789	122
166.0126	69
170.0014	14
182.0031	34
196.0522	17
197.9976	26
214.0618	75
227.9961	166
275.0365	34
276.0447	14
