Mass spectrum: Disperse Orange 61; LC-ESI-QTOF; MS2; 70 V
Name: Disperse Orange 61
Formula: C17H15Br2N5O2
Exact mass: 478.9592
SMILES: CCN(CCC#N)C1=CC=C(C=C1)N=NC2=C(C=C(C=C2Br)[N+](=O)[O-])Br
InChI: InChI=1S/C17H15Br2N5O2/c1-2-23(9-3-8-20)13-6-4-12(5-7-13)21-22-17-15(18)10-14(24(25)26)11-16(17)19/h4-7,10-11H,2-3,9H2,1H3
Instrument: TripleTOF X500R SCIEX
Instrument type: LC-ESI-QTOF
Ms type: MS2
Ion mode: POSITIVE
Collision energy: 70
Fragmentation mode: CID
Ionization: ESI
Column name: Zorbax Eclipse Plus C18 2.1 mm x 150 mm, 3.5 um, Agilent
Retention time: 15.39 min
Precursor m/z: 479.9665
Precursor type: [M+H]+
m/z	relative intensity
65.0389	86
77.039	54
91.0547	162
92.0505	228
93.0705	65
103.0556	130
104.0499	412
105.0574	727
106.0653	141
117.0577	152
118.066	217
119.0607	271
120.0809	184
127.9258	97
131.0609	130
132.06	108
132.0811	97
133.089	999
134.096	173
140.9349	76
145.0765	162
147.0919	238
150.0468	65
151.0548	65
151.9247	43
152.0616	97
152.9335	228
153.9298	76
172.0873	76
178.0664	282
179.068	293
194.8437	76
206.0959	65
230.845	553
231.8525	466
247.8485	173
256.9804	54
257.9859	456
277.8478	195
284.9906	173
286.0241	304
287.0028	65
305.8572	97
315.0383	86
333.0023	76
364.9202	76
392.9464	119
