Mass spectrum: 3,5-Diacetamidobenzoic acid; LC-ESI-QTOF; MS2; 30 V
Name: 3,5-Diacetamidobenzoic acid
Class: Pharmaceutical
Formula: C11H12N2O4
Exact mass: 236.0797
SMILES: CC(=O)NC1=CC(=CC(=C1)C(=O)O)NC(=O)C
InChI: InChI=1S/C11H12N2O4/c1-6(14)12-9-3-8(11(16)17)4-10(5-9)13-7(2)15/h3-5H,1-2H3,(H,12,14)(H,13,15)(H,16,17)
Instrument: TripleTOF 5600 SCIEX
Instrument type: LC-ESI-QTOF
Ms type: MS2
Ion mode: POSITIVE
Collision energy: 30
Fragmentation mode: CID
Ionization: ESI
Column name: Zorbax Eclipse Plus C18 2.1 mm x 150 mm, 3.5 um, Agilent
Retention time: 5.221 min
Precursor m/z: 237.087
Precursor type: [M+H]+
m/z	relative intensity
43.03	19
80.0547	32
92.0544	85
107.0619	348
108.0454	101
109.032	32
109.077	354
110.0624	32
132.0461	13
135.0555	227
136.0379	131
148.0649	38
149.0713	598
150.054	208
153.0654	776
154.0494	41
177.0652	999
178.0486	90
191.0815	784
195.0761	98
219.0759	938
237.0886	10
