Mass spectrum: Pyridoxine; LC-ESI-QTOF; MS2; 30 V
Name: Pyridoxine
Formula: C8H11NO3
Exact mass: 169.0739
SMILES: OC1=C(C)N=CC(CO)=C1CO
InChI: InChI=1S/C8H11NO3/c1-5-8(12)7(4-11)6(3-10)2-9-5/h2,10-12H,3-4H2,1H3
Instrument: TripleTOF 5600 SCIEX
Instrument type: LC-ESI-QTOF
Ms type: MS2
Ion mode: NEGATIVE
Collision energy: 30
Fragmentation mode: CID
Ionization: ESI
Column name: Zorbax Eclipse Plus C18 2.1 mm x 150 mm, 3.5 um, Agilent
Retention time: 2.11 min
Precursor m/z: 168.0666
Precursor type: [M-H]-
m/z	relative intensity
92.0497	131
107.0372	268
108.045	725
120.046	65
121.0531	461
122.0607	999
135.0309	76
138.0558	304
150.0559	263
166.0507	106
