Mass spectrum: Pendimethalin; LC-ESI-QTOF; MS2; 60 V
Name: Pendimethalin
Class: Herbicide
Formula: C13H19N3O4
Exact mass: 281.1376
SMILES: CCC(CC)Nc1c(cc(c(c1[N+](=O)[O-])C)C)[N+](=O)[O-]
InChI: InChI=1S/C13H19N3O4/c1-5-10(6-2)14-12-11(15(17)18)7-8(3)9(4)13(12)16(19)20/h7,10,14H,5-6H2,1-4H3
Instrument: TripleTOF 6600 SCIEX
Instrument type: LC-ESI-QTOF
Ms type: MS2
Ion mode: POSITIVE
Collision energy: 60
Fragmentation mode: CID
Ionization: ESI
Column name: Zorbax Eclipse Plus C18 2.1 mm x 150 mm, 3.5 um, Agilent
Retention time: 16.198 min
Precursor m/z: 282.1448
Precursor type: [M+H]+
m/z	relative intensity
37.0084	17
38.0159	21
39.0234	187
41.0268	21
41.0391	305
42.0351	26
43.0184	56
43.0548	379
44.0137	21
49.008	17
50.0152	78
51.0236	226
52.0188	69
52.0323	47
53.0272	43
53.0389	200
54.0346	30
55.0549	30
63.0233	200
64.0186	39
64.0312	174
65.0267	69
65.0392	999
66.0222	17
66.0342	165
66.0473	174
67.0304	21
67.0421	74
67.0545	56
68.0137	21
68.0491	30
75.0234	43
76.0191	82
76.0311	135
77.0265	65
77.0391	497
78.0346	453
79.0286	26
79.043	52
79.054	82
80.0498	205
81.0344	43
81.0569	26
89.0389	191
90.0339	152
90.0463	117
91.043	187
91.0542	257
92.0375	43
92.0498	588
93.0089	21
93.0444	69
93.0574	183
94.0304	21
94.0666	74
95.0501	47
96.0589	21
102.0349	104
103.0314	61
103.0421	257
104.0502	292
105.0454	549
106.029	39
106.054	47
106.0652	74
107.0609	17
108.0459	17
109.0408	30
116.0497	104
117.0468	109
117.0572	74
118.053	122
118.0653	143
119.0609	767
120.0199	61
120.0443	69
120.0687	135
121.0401	34
121.0542	21
122.0501	34
129.0455	196
130.0402	117
130.0515	34
131.0603	91
132.056	30
133.0395	39
135.0598	17
147.0569	148
148.0632	218
176.0455	30
178.0604	43
