Mass spectrum: 16alpha-hydroxyestrone; LC-ESI-QTOF; MS2; 100 V
Name: 16alpha-hydroxyestrone
Class: Pharmaceutical; Metabolite
Formula: C18H22O3
Exact mass: 286.1569
SMILES: C[C@]12CC[C@@H]3[C@H](CCc4cc(O)ccc34)[C@H]1C[C@@H](O)C2=O
InChI: InChI=1S/C18H22O3/c1-18-7-6-13-12-5-3-11(19)8-10(12)2-4-14(13)15(18)9-16(20)17(18)21/h3,5,8,13-16,19-20H,2,4,6-7,9H2,1H3/t13-,14-,15+,16+,18-/m0/s1
Instrument: TripleTOF 5600 SCIEX
Instrument type: LC-ESI-QTOF
Ms type: MS2
Ion mode: POSITIVE
Collision energy: 100
Fragmentation mode: CID
Ionization: ESI
Column name: Zorbax Eclipse Plus C18 2.1 mm x 150 mm, 3.5 um, Agilent
Retention time: 8.67 min
Precursor m/z: 287.1642
Precursor type: [M+H]+
m/z	relative intensity
43.0267	30
53.0444	10
55.0239	17
65.0437	115
66.0501	12
67.0578	16
75.0264	20
77.0429	652
78.0491	31
79.0577	119
89.041	139
91.0568	180
94.0425	25
101.0385	21
102.0472	76
103.0553	174
105.0704	66
107.0497	89
114.0459	13
115.0552	999
116.0626	110
118.0412	13
126.0471	58
127.0549	216
128.0628	413
129.0692	36
131.0491	104
133.0644	10
139.0546	75
141.0701	58
144.0572	82
150.046	36
151.0545	118
152.0628	319
153.0698	50
157.0647	41
163.0548	39
164.062	54
165.0705	198
176.0624	61
177.0703	20
178.0781	48
181.0649	45
189.0704	41
202.0774	22
