Mass spectrum: 19-Nortestosterone; LC-ESI-QTOF; MS2; 40 V
Name: 19-Nortestosterone
Class: Pharmaceutical
Formula: C18H26O2
Exact mass: 274.1933
SMILES: C[C@]12CC[C@H]3[C@@H](CCC4=CC(=O)CC[C@H]34)[C@@H]1CC[C@@H]2O
InChI: InChI=1S/C18H26O2/c1-18-9-8-14-13-5-3-12(19)10-11(13)2-4-15(14)16(18)6-7-17(18)20/h10,13-17,20H,2-9H2,1H3/t13-,14+,15+,16-,17-,18-/m0/s1
Instrument: TripleTOF 5600 SCIEX
Instrument type: LC-ESI-QTOF
Ms type: MS2
Ion mode: POSITIVE
Collision energy: 40
Fragmentation mode: CID
Ionization: ESI
Column name: Zorbax Eclipse Plus C18 2.1 mm x 150 mm, 3.5 um, Agilent
Retention time: 10.421 min
Precursor m/z: 275.2006
Precursor type: [M+H]+
m/z	relative intensity
55.0593	34
65.0441	11
67.0592	88
69.0748	18
77.0416	102
79.0575	275
81.0729	287
83.052	339
91.056	275
93.0721	292
95.0869	146
97.0659	31
105.0711	271
107.0496	100
107.0858	158
109.066	999
109.0988	42
111.0793	13
115.0537	17
117.0698	122
119.0859	188
121.0679	22
121.1013	77
123.0807	42
128.0628	33
129.07	99
130.0787	23
131.0858	147
133.0642	25
133.1014	114
135.0802	70
135.1175	81
141.0696	36
142.0781	25
143.0852	132
144.0959	14
145.1015	234
147.0796	33
147.1171	124
149.0963	61
149.1305	29
155.0865	48
156.0935	14
157.1012	101
159.0805	12
159.117	68
161.0967	83
161.132	46
163.1111	69
167.0861	9
169.1021	44
171.1162	50
173.1332	30
175.1115	41
175.1473	11
183.1159	69
185.1318	79
187.1099	13
187.1471	92
188.1177	15
197.131	58
199.1488	92
201.1277	47
203.1423	19
211.1476	24
213.1636	23
213.177	9
231.1725	24
239.18	53
257.1917	44
275.2004	17
