Mass spectrum: 2-Hydroxycarbamazepine; LC-ESI-QTOF; MS2; 80 V
Name: 2-Hydroxycarbamazepine
Class: Pharmaceutical; Metabolite
Formula: C15H12N2O2
Exact mass: 252.0899
SMILES: NC(=O)N1c2ccccc2C=Cc3cc(O)ccc13
InChI: InChI=1S/C15H12N2O2/c16-15(19)17-13-4-2-1-3-10(13)5-6-11-9-12(18)7-8-14(11)17/h1-9,18H,(H2,16,19)
Instrument: TripleTOF 5600 SCIEX
Instrument type: LC-ESI-QTOF
Ms type: MS2
Ion mode: NEGATIVE
Collision energy: 80
Fragmentation mode: CID
Ionization: ESI
Column name: Zorbax Eclipse Plus C18 2.1 mm x 150 mm, 3.5 um, Agilent
Retention time: 7.476 min
Precursor m/z: 251.0826
Precursor type: [M-H]-
m/z	relative intensity
41.0066	363
41.0117	90
41.0421	90
42.0025	544
42.0089	181
42.0246	90
65.9999	90
90.0335	90
115.0408	90
116.0487	181
118.0287	90
118.0345	181
140.05	181
164.0504	363
165.0659	726
166.0655	999
166.0741	90
167.0697	181
179.0777	181
207.0784	90
