Mass spectrum: Methyl 4-hydroxybenzoate; LC-ESI-QTOF; MS2; 110 V
Name: Methyl 4-hydroxybenzoate
Formula: C8H8O3
Exact mass: 152.0473
SMILES: COC(=O)C1=CC=C(C=C1)O
InChI: InChI=1S/C8H8O3/c1-11-8(10)6-2-4-7(9)5-3-6/h2-5,9H,1H3
Instrument: TripleTOF 5600 SCIEX
Instrument type: LC-ESI-QTOF
Ms type: CID
Ion mode: POSITIVE
Collision energy: 110
Ionization: ESI
Column name: Zorbax Eclipse Plus C18 2.1 mm x 150 mm, 3.5 um, Agilent
Retention time: 7.587 min
Precursor m/z: 153.0546
Precursor type: [M+H]+
m/z	relative intensity
35.9978	199
37.0069	799
38.0029	0
38.0167	599
39.0229	999
51.0217	199
53.001	0
53.0061	0
59.9994	0
74.0151	799
