Mass spectrum: Procarbazine; LC-ESI-QTOF; MS2; 30 V
Name: Procarbazine
Class: Pharmaceutical
Formula: C12H19N3O
Exact mass: 221.1528
SMILES: CC(C)NC(=O)c1ccc(cc1)CNNC
InChI: InChI=1S/C12H19N3O/c1-9(2)15-12(16)11-6-4-10(5-7-11)8-14-13-3/h4-7,9,13-14H,8H2,1-3H3,(H,15,16)
Instrument: TripleTOF 5600 SCIEX
Instrument type: LC-ESI-QTOF
Ms type: MS2
Ion mode: POSITIVE
Collision energy: 30
Fragmentation mode: CID
Ionization: ESI
Column name: Zorbax Eclipse Plus C18 2.1 mm x 150 mm, 3.5 um, Agilent
Retention time: 4.911 min
Precursor m/z: 222.1601
Precursor type: [M+H]+
m/z	relative intensity
58.0692	19
77.0419	41
79.0575	70
89.0414	9
90.0474	72
90.0746	12
91.0557	303
92.063	38
93.0721	41
103.0194	24
104.0496	33
105.0343	14
105.0605	89
106.0654	453
109.1045	12
117.0651	14
118.0411	460
119.0483	53
119.0796	14
120.0867	16
122.0642	12
122.0984	14
131.0827	16
132.0438	186
133.0505	16
134.0593	89
135.0677	281
136.0754	31
143.0728	19
148.1122	162
149.071	999
158.0968	41
159.0825	19
161.082	16
161.1064	29
176.1058	181
176.1522	19
177.1144	501
178.1231	16
189.1033	60
191.1178	843
