Mass spectrum: Carbofuran; LC-ESI-QTOF; MS2; 50 V
Name: Carbofuran
Class: Insecticide; Transformation_product
Formula: C12H15NO3
Exact mass: 221.1052
SMILES: CNC(=O)Oc1cccc2CC(C)(C)Oc12
InChI: InChI=1S/C12H15NO3/c1-12(2)7-8-5-4-6-9(10(8)16-12)15-11(14)13-3/h4-6H,7H2,1-3H3,(H,13,14)
Instrument: TripleTOF 5600 SCIEX
Instrument type: LC-ESI-QTOF
Ms type: MS2
Ion mode: POSITIVE
Collision energy: 50
Fragmentation mode: CID
Ionization: ESI
Column name: Zorbax Eclipse Plus C18 2.1 mm x 150 mm, 3.5 um, Agilent
Retention time: 9.746 min
Precursor m/z: 222.1125
Precursor type: [M+H]+
m/z	relative intensity
55.0234	13
55.0602	69
58.0337	30
65.0428	59
67.0582	95
77.0418	314
79.0558	16
91.056	233
95.0502	114
103.0548	21
104.0619	10
105.0334	87
107.0493	18
117.0691	14
119.0482	22
119.0852	14
123.0444	999
131.0483	13
137.0594	23
