Mass spectrum: Terfenadine; LC-ESI-QTOF; MS2; 60 V
Name: Terfenadine
Class: Pharmaceutical
Formula: C32H41NO2
Exact mass: 471.3137
SMILES: CC(C)(C)C1=CC=C(C=C1)C(CCCN2CCC(CC2)C(C3=CC=CC=C3)(C4=CC=CC=C4)O)O
InChI: InChI=1S/C32H41NO2/c1-31(2,3)26-18-16-25(17-19-26)30(34)15-10-22-33-23-20-29(21-24-33)32(35,27-11-6-4-7-12-27)28-13-8-5-9-14-28/h4-9,11-14,16-19,29-30,34-35H,10,15,20-24H2,1-3H3
Instrument: TripleTOF 6600 SCIEX
Instrument type: LC-ESI-QTOF
Ms type: MS2
Ion mode: POSITIVE
Collision energy: 60
Fragmentation mode: CID
Ionization: ESI
Column name: Zorbax Eclipse Plus C18 2.1 mm x 150 mm, 3.5 um, Agilent
Retention time: 10.223 min
Precursor m/z: 472.321
Precursor type: [M+H]+
m/z	relative intensity
39.0218	29
41.0368	101
56.0479	21
57.0684	999
65.0365	21
68.0474	50
69.055	29
70.063	29
77.037	16
79.0528	21
80.0476	46
81.0673	21
82.0635	151
83.0703	54
84.0788	16
91.052	383
94.0627	37
96.0789	101
98.094	59
105.0304	21
105.067	105
108.0786	16
110.0944	25
111.1015	29
115.0518	80
116.0597	16
117.0669	130
119.0829	54
120.0775	29
122.0937	37
124.1091	113
128.059	80
129.0672	358
130.0747	16
131.0832	282
132.0779	21
132.0899	63
141.0679	33
143.0827	71
145.0978	29
146.1049	29
147.1142	248
153.0662	25
155.0827	46
161.0928	185
165.0649	21
167.0825	84
170.094	59
171.1012	21
171.1124	29
178.0752	33
184.1091	21
191.0826	33
203.0821	46
203.1409	101
204.0897	75
205.0986	67
215.0819	37
216.0909	37
217.0962	33
218.1048	63
219.1132	46
230.1862	37
231.1152	21
262.1569	168
268.2032	164
270.2189	50
288.1732	109
420.2691	42
436.2966	248
454.3271	25
