Mass spectrum: Ametryn; LC-ESI-QTOF; MS2; 140 V
Name: Ametryn
Class: Herbicide
Formula: C9H17N5S
Exact mass: 227.1205
SMILES: CCNc1nc(NC(C)C)nc(SC)n1
InChI: InChI=1S/C9H17N5S/c1-5-10-7-12-8(11-6(2)3)14-9(13-7)15-4/h6H,5H2,1-4H3,(H2,10,11,12,13,14)
Instrument: TripleTOF 5600 SCIEX
Instrument type: LC-ESI-QTOF
Ms type: MS2
Ion mode: POSITIVE
Collision energy: 140
Fragmentation mode: CID
Ionization: ESI
Column name: Zorbax Eclipse Plus C18 2.1 mm x 150 mm, 3.5 um, Agilent
Retention time: 8.651 min
Precursor m/z: 228.1277
Precursor type: [M+H]+
m/z	relative intensity
41.0215	126
43.0374	999
53.0178	40
55.0348	18
57.979	154
57.9918	40
58.9869	123
59.9945	139
68.028	930
68.0557	37
74.0077	37
74.0234	12
84.9868	157
