Mass spectrum: Acetochlor; LC-ESI-QTOF; MS2; 20 V
Name: Acetochlor
Class: Herbicide
Formula: C14H20ClNO2
Exact mass: 269.1183
SMILES: CCC1=CC=CC(=C1N(COCC)C(=O)CCl)C
InChI: InChI=1S/C14H20ClNO2/c1-4-12-8-6-7-11(3)14(12)16(10-18-5-2)13(17)9-15/h6-8H,4-5,9-10H2,1-3H3
Instrument: TripleTOF 6600 SCIEX
Instrument type: LC-ESI-QTOF
Ms type: MS2
Ion mode: POSITIVE
Collision energy: 20
Fragmentation mode: CID
Ionization: ESI
Column name: Zorbax Eclipse Plus C18 2.1 mm x 150 mm, 3.5 um, Agilent
Retention time: 13.251 min
Precursor m/z: 270.1255
Precursor type: [M+H]+
m/z	relative intensity
45.0326	47
59.0483	103
90.0084	36
131.0825	19
132.08	11
133.0865	19
145.0982	16
146.0937	16
147.102	15
148.1106	399
149.0944	23
158.0921	13
160.1097	10
162.1255	325
163.1112	58
206.0702	35
208.0855	57
210.0663	23
220.085	68
224.082	797
238.0972	999
270.1225	67
