Mass spectrum: N-acetyl-sitagliptin; LC-ESI-QTOF; MS2; 30 V
Name: N-acetyl-sitagliptin
Class: Metabolite; Pharmaceutical
Formula: C18H17F6N5O2
Exact mass: 449.1286
SMILES: CC(=O)NC(CC1=CC(=C(C=C1F)F)F)CC(=O)N2CCN3C(=NN=C3C(F)(F)F)C2
InChI: InChI=1S/C18H17F6N5O2/c1-9(30)25-11(4-10-5-13(20)14(21)7-12(10)19)6-16(31)28-2-3-29-15(8-28)26-27-17(29)18(22,23)24/h5,7,11H,2-4,6,8H2,1H3,(H,25,30)
Instrument: TripleTOF 5600 SCIEX
Instrument type: LC-ESI-QTOF
Ms type: MS2
Ion mode: POSITIVE
Collision energy: 30
Fragmentation mode: CID
Ionization: ESI
Column name: Zorbax Eclipse Plus C18 2.1 mm x 150 mm, 3.5 um, Agilent
Retention time: 8.852 min
Precursor m/z: 450.1359
Precursor type: [M+H]+
m/z	relative intensity
174.0525	367
193.0697	273
199.0367	211
216.0634	893
235.0799	41
258.0737	999
391.0994	54
408.1274	77
450.1364	144
