Mass spectrum: Tetraoctylphosphonium; LC-ESI-QTOF; MS2; 90 V
Name: Tetraoctylphosphonium
Formula: [C32H68P]+
Exact mass: 483.5053
SMILES: CCCCCCCC[P+](CCCCCCCC)(CCCCCCCC)CCCCCCCC
InChI: InChI=1S/C32H68P/c1-5-9-13-17-21-25-29-33(30-26-22-18-14-10-6-2,31-27-23-19-15-11-7-3)32-28-24-20-16-12-8-4/h5-32H2,1-4H3/q+1
Instrument: TripleTOF 5600 SCIEX
Instrument type: LC-ESI-QTOF
Ms type: MS2
Ion mode: POSITIVE
Collision energy: 90
Fragmentation mode: CID
Ionization: ESI
Column name: Zorbax Eclipse Plus C18 2.1 mm x 150 mm, 3.5 um, Agilent
Retention time: 16.405 min
Precursor m/z: 483.5053
Precursor type: [M]+
m/z	relative intensity
41.0389	67
43.0545	64
45.997	72
55.0541	92
57.0696	58
59.0043	84
61.0199	215
62.0278	407
69.0691	112
75.0349	320
76.0427	928
88.0414	68
89.0494	271
90.0574	368
101.0496	58
102.0582	71
103.0655	271
115.0652	98
116.0742	58
117.0812	284
129.0825	95
131.097	371
143.0975	103
145.1131	404
157.1134	92
159.1292	306
171.1296	81
173.1455	404
185.1454	81
187.1607	598
199.1611	78
201.1769	392
213.1778	93
215.1934	598
227.1911	88
229.2082	875
241.2074	74
243.2242	630
255.2212	93
257.2391	444
269.2382	65
271.2552	295
285.2706	746
299.2853	402
313.3007	414
327.317	999
341.3327	673
355.3494	191
369.3602	155
371.3819	71
383.3802	110
397.3954	416
483.51	57
