Mass spectrum: Phencyclidine; LC-ESI-QTOF; MS2; 80 V
Name: Phencyclidine
Class: Pharmaceutical
Formula: C17H25N
Exact mass: 243.1987
SMILES: C1CCC(CC1)(C2=CC=CC=C2)N3CCCCC3
InChI: InChI=1S/C17H25N/c1-4-10-16(11-5-1)17(12-6-2-7-13-17)18-14-8-3-9-15-18/h1,4-5,10-11H,2-3,6-9,12-15H2
Instrument: TripleTOF 6600 SCIEX
Instrument type: LC-ESI-QTOF
Ms type: MS2
Ion mode: POSITIVE
Collision energy: 80
Fragmentation mode: CID
Ionization: ESI
Column name: Zorbax Eclipse Plus C18 2.1 mm x 150 mm, 3.5 um, Agilent
Retention time: 7.311 min
Precursor m/z: 244.206
Precursor type: [M+H]+
m/z	relative intensity
37.0061	17
38.0138	14
39.0219	135
41.0376	58
51.0216	17
62.0135	12
63.0216	38
65.0374	580
77.0369	20
79.0531	13
86.0947	38
91.0531	999
115.0527	68
