Mass spectrum: 3,3`-Dichlorobenzidine; LC-ESI-QTOF; MS2; 130 V
Name: 3,3`-Dichlorobenzidine
Formula: C12H10Cl2N2
Exact mass: 252.0221
SMILES: C1=CC(=C(C=C1C2=CC(=C(C=C2)N)Cl)Cl)N
InChI: InChI=1S/C12H10Cl2N2/c13-9-5-7(1-3-11(9)15)8-2-4-12(16)10(14)6-8/h1-6H,15-16H2
Instrument: TripleTOF 6600 SCIEX
Instrument type: LC-ESI-QTOF
Ms type: MS2
Ion mode: POSITIVE
Collision energy: 130
Fragmentation mode: CID
Ionization: ESI
Column name: Zorbax Eclipse Plus C18 2.1 mm x 150 mm, 3.5 um, Agilent
Retention time: 11.426 min
Precursor m/z: 253.0294
Precursor type: [M+H]+
m/z	relative intensity
37.0081	48
38.0155	32
39.0238	97
49.0066	27
50.0156	297
51.023	604
52.0188	48
60.0002	59
61.0073	302
62.0158	459
63.0235	442
64.018	27
65.038	37
72.9842	32
73.0075	91
74.0156	999
75.0101	32
75.0231	793
76.0296	124
77.0391	642
84.0008	37
85.008	334
86.0147	604
87.0236	334
88.0173	27
88.0296	64
89.0385	124
97.0077	59
98.0152	448
99.0239	97
100.018	27
101.0408	43
102.036	27
102.0465	64
109.0076	48
110.0136	118
111.022	70
112.0242	32
113.0394	59
114.0425	27
122.016	43
123.0216	27
125.0373	43
126.0466	307
127.0538	32
137.0388	59
138.0431	32
139.0556	27
140.0546	27
152.0538	32
