Mass spectrum: 4-(Dimethylamino)benzaldehyde; LC-ESI-QTOF; MS2; 20 V
Name: 4-(Dimethylamino)benzaldehyde
Class: Pharmaceutical
Formula: C9H11NO
Exact mass: 149.0841
SMILES: CN(C)C1=CC=C(C=C1)C=O
InChI: InChI=1S/C9H11NO/c1-10(2)9-5-3-8(7-11)4-6-9/h3-7H,1-2H3
Instrument: TripleTOF 5600 SCIEX
Instrument type: LC-ESI-QTOF
Ms type: MS2
Ion mode: POSITIVE
Collision energy: 20
Fragmentation mode: CID
Ionization: ESI
Column name: Zorbax Eclipse Plus C18 2.1 mm x 150 mm, 3.5 um, Agilent
Retention time: 8.87 min
Precursor m/z: 150.0913
Precursor type: [M+H]+
m/z	relative intensity
77.0389	13
79.0548	14
106.0652	47
107.0732	255
120.0809	254
121.0885	97
122.0966	446
134.0604	120
135.0683	284
150.0915	999
