Mass spectrum: 5-(3,4,5-Trimethoxybenzoyl)-2,4-pyrimidinediamine; LC-ESI-QTOF; MS2; 60 V
Name: 5-(3,4,5-Trimethoxybenzoyl)-2,4-pyrimidinediamine
Class: Pharmaceutical; Transformation_product
Formula: C14H16N4O4
Exact mass: 304.1172
SMILES: COc1cc(cc(c1OC)OC)C(=O)c2cnc(nc2N)N
InChI: InChI=1S/C14H16N4O4/c1-20-9-4-7(5-10(21-2)12(9)22-3)11(19)8-6-17-14(16)18-13(8)15/h4-6H,1-3H3,(H4,15,16,17,18)
Instrument: TripleTOF 5600 SCIEX
Instrument type: LC-ESI-QTOF
Ms type: MS2
Ion mode: POSITIVE
Collision energy: 60
Fragmentation mode: CID
Ionization: ESI
Column name: Zorbax Eclipse Plus C18 2.1 mm x 150 mm, 3.5 um, Agilent
Retention time: 5.86 min
Precursor m/z: 305.1244
Precursor type: [M+H]+
m/z	relative intensity
43.0401	13
52.0257	9
65.02	11
65.0449	22
67.0269	30
68.018	503
68.047	11
69.0003	11
69.0478	13
70.0327	77
77.0411	78
78.05	19
79.0561	11
80.0531	30
81.0358	53
83.0503	33
90.0344	24
92.0277	26
93.0344	20
94.0423	24
95.0252	999
96.0606	16
102.0454	12
104.0486	28
105.0371	81
106.0393	30
106.0509	23
107.0119	12
107.0596	165
108.0214	11
109.0283	23
109.0499	50
110.0587	229
111.0647	50
114.0323	13
116.0486	28
117.0565	19
118.0275	23
118.0637	17
119.0599	13
120.0188	64
120.0467	11
121.0303	39
122.0325	17
123.0428	13
124.0499	11
128.0503	31
129.0428	13
130.0406	19
130.0624	11
131.0594	77
132.0482	56
133.028	42
134.0488	23
135.057	61
136.0173	26
137.0455	551
141.0421	15
142.0523	11
143.0303	12
143.0599	45
144.0499	30
144.067	16
145.0394	12
145.0737	28
146.0236	70
146.0623	45
147.0654	89
148.0403	23
148.0728	88
149.0214	52
149.0802	19
150.0557	11
151.0393	61
152.0475	34
153.0475	16
155.0607	34
156.0477	55
156.0689	11
157.0425	26
157.0727	15
158.0483	37
159.0536	55
160.0444	46
160.0727	26
161.024	20
161.0817	41
163.0513	346
165.0175	38
168.0557	37
169.0389	9
169.0617	11
170.0306	11
170.0709	26
171.0561	136
172.0428	13
172.0675	78
173.0511	15
173.0769	126
174.0595	31
174.0814	12
175.0452	11
175.0609	68
176.0696	167
177.0748	67
179.0354	24
183.0554	41
184.0505	85
185.0824	136
186.0542	19
187.0604	105
187.0973	108
188.0443	79
188.0633	12
189.0172	12
189.0756	123
190.0841	17
191.0931	19
195.0635	11
196.0511	19
197.085	13
198.068	41
198.0886	12
199.0586	45
199.0976	30
200.069	268
201.0771	561
202.0575	12
202.0791	11
203.0517	49
204.0629	28
205.0688	20
212.0492	22
213.0765	144
214.0123	15
214.0837	38
215.0533	33
215.0928	364
216.03	15
216.0648	15
217.072	216
218.0782	24
219.0917	11
225.0746	31
226.0618	12
227.0584	13
227.083	12
228.039	15
228.0638	27
229.0725	239
231.0439	24
232.0599	12
241.0749	22
242.085	26
243.0877	114
244.1005	11
245.0668	136
246.0737	163
247.084	33
253.0741	20
254.0742	16
257.0676	26
259.0823	59
269.0694	15
271.0816	53
273.0602	11
275.0787	46
289.0964	44
