Mass spectrum: Clonazepam; LC-ESI-QTOF; MS2; 140 V
Name: Clonazepam
Class: Pharmaceutical
Formula: C15H10ClN3O3
Exact mass: 315.0411
SMILES: C1C(=O)NC2=C(C=C(C=C2)[N+](=O)[O-])C(=N1)C3=CC=CC=C3Cl
InChI: InChI=1S/C15H10ClN3O3/c16-12-4-2-1-3-10(12)15-11-7-9(19(21)22)5-6-13(11)18-14(20)8-17-15/h1-7H,8H2,(H,18,20)
Instrument: TripleTOF 6600 SCIEX
Instrument type: LC-ESI-QTOF
Ms type: MS2
Ion mode: POSITIVE
Collision energy: 140
Fragmentation mode: CID
Ionization: ESI
Column name: Zorbax Eclipse Plus C18 2.1 mm x 150 mm, 3.5 um, Agilent
Retention time: 9.867 min
Precursor m/z: 316.0484
Precursor type: [M+H]+
m/z	relative intensity
37.0075	16
38.0153	10
39.0227	42
49.0063	22
50.0149	193
51.0228	259
52.0161	16
52.0312	18
60.0006	15
61.0069	88
62.0149	103
63.023	178
65.0387	20
72.9834	23
73.007	50
74.0148	467
75.0099	22
75.0224	368
76.017	25
76.0301	152
77.038	241
78.0336	11
78.0464	35
83.9987	15
85.007	81
86.0146	152
87.0228	154
88.0181	27
88.0303	25
89.0382	122
97.0081	33
98.0148	380
99.0225	299
100.0297	78
101.039	52
102.0307	13
102.0464	108
109.0071	32
110.0148	101
111.023	107
112.0174	15
113.0373	83
114.0343	25
115.0549	35
121.0074	20
122.0157	107
123.0228	113
124.0163	10
124.0307	59
125.0384	129
126.0453	237
127.0543	71
128.0582	13
129.0436	11
134.0123	13
135.021	23
137.038	69
138.0407	37
139.0543	71
140.0476	30
148.0283	16
149.0386	212
150.0467	999
151.0532	390
152.0607	100
153.0576	15
161.0373	95
162.0467	79
163.0558	139
164.0487	54
175.0428	110
176.0473	67
177.0562	149
178.0678	13
186.0349	10
187.0426	11
188.0503	45
