Mass spectrum: Difenoconazole; LC-ESI-QTOF; MS2; 80 V
Name: Difenoconazole
Class: Fungicide
Formula: C19H17Cl2N3O3
Exact mass: 405.0647
SMILES: CC1COC(Cn2cncn2)(O1)c3ccc(Oc4ccc(Cl)cc4)cc3Cl
InChI: InChI=1S/C19H17Cl2N3O3/c1-13-9-25-19(27-13,10-24-12-22-11-23-24)17-7-6-16(8-18(17)21)26-15-4-2-14(20)3-5-15/h2-8,11-13H,9-10H2,1H3
Instrument: TripleTOF 6600 SCIEX
Instrument type: LC-ESI-QTOF
Ms type: MS2
Ion mode: POSITIVE
Collision energy: 80
Fragmentation mode: CID
Ionization: ESI
Column name: Zorbax Eclipse Plus C18 2.1 mm x 150 mm, 3.5 um, Agilent
Retention time: 13.755 min
Precursor m/z: 406.072
Precursor type: [M+H]+
m/z	relative intensity
39.0229	13
41.0387	13
50.0157	12
51.0233	20
74.015	104
75.023	611
77.0382	65
84.9828	37
89.0389	23
98.9987	13
110.9995	999
113.0143	10
115.0539	12
126.0454	14
127.0553	18
128.0613	32
129.0688	28
139.0055	280
139.0534	89
141.01	437
149.0143	46
150.0457	17
151.0536	109
152.0617	879
153.0695	601
154.9897	35
155.0603	13
162.0222	35
167.0493	28
173.0153	88
174.0237	18
179.058	14
180.0553	10
181.0646	250
182.9759	48
187.0299	50
188.0389	548
202.0175	162
208.9923	69
215.0255	117
223.0081	55
251.001	46
264.981	51
