Mass spectrum: 16alpha-hydroxyestrone; LC-ESI-QTOF; MS2; 10 V
Name: 16alpha-hydroxyestrone
Class: Pharmaceutical; Metabolite
Formula: C18H22O3
Exact mass: 286.1569
SMILES: C[C@]12CC[C@@H]3[C@H](CCc4cc(O)ccc34)[C@H]1C[C@@H](O)C2=O
InChI: InChI=1S/C18H22O3/c1-18-7-6-13-12-5-3-11(19)8-10(12)2-4-14(13)15(18)9-16(20)17(18)21/h3,5,8,13-16,19-20H,2,4,6-7,9H2,1H3/t13-,14-,15+,16+,18-/m0/s1
Instrument: TripleTOF 5600 SCIEX
Instrument type: LC-ESI-QTOF
Ms type: MS2
Ion mode: POSITIVE
Collision energy: 10
Fragmentation mode: CID
Ionization: ESI
Column name: Zorbax Eclipse Plus C18 2.1 mm x 150 mm, 3.5 um, Agilent
Retention time: 8.67 min
Precursor m/z: 287.1642
Precursor type: [M+H]+
m/z	relative intensity
133.065	46
157.0653	22
159.0805	39
173.0962	11
195.0803	12
197.0969	165
199.1127	388
201.1274	10
211.1128	10
213.128	68
225.1283	79
227.1438	22
241.1593	30
251.1432	662
269.1538	630
287.1649	999
