Mass spectrum: 2,2,6,6-Tetramethylpiperidin-1-oxyl; LC-ESI-QTOF; MS2; 40 V
Name: 2,2,6,6-Tetramethylpiperidin-1-oxyl
Formula: C9H18NO
Exact mass: 156.1388
SMILES: CC1(CCCC(N1[O])(C)C)C
InChI: InChI=1S/C9H18NO/c1-8(2)6-5-7-9(3,4)10(8)11/h5-7H2,1-4H3
Instrument: TripleTOF 5600 SCIEX
Instrument type: LC-ESI-QTOF
Ms type: MS2
Ion mode: POSITIVE
Collision energy: 40
Fragmentation mode: CID
Ionization: ESI
Column name: Zorbax Eclipse Plus C18 2.1 mm x 150 mm, 3.5 um, Agilent
Retention time: 10.403 min
Precursor m/z: 157.1461
Precursor type: [M+H]+
m/z	relative intensity
39.0241	222
41.0378	444
55.0559	333
56.0474	111
57.0708	222
67.0538	222
69.0701	776
74.0576	222
80.0575	222
81.0661	222
84.0772	111
86.0611	222
96.0794	222
109.099	222
110.0986	222
142.1211	999
