Mass spectrum: Acridine; LC-ESI-QTOF; MS2; 80 V
Name: Acridine
Class: Industrial_process
Formula: C13H9N
Exact mass: 179.0735
SMILES: c1ccc2nc3ccccc3cc2c1
InChI: InChI=1S/C13H9N/c1-3-7-12-10(5-1)9-11-6-2-4-8-13(11)14-12/h1-9H
Instrument: TripleTOF 5600 SCIEX
Instrument type: LC-ESI-QTOF
Ms type: MS2
Ion mode: POSITIVE
Collision energy: 80
Fragmentation mode: CID
Ionization: ESI
Column name: Zorbax Eclipse Plus C18 2.1 mm x 150 mm, 3.5 um, Agilent
Retention time: 5.776 min
Precursor m/z: 180.0808
Precursor type: [M+H]+
m/z	relative intensity
64.0336	10
65.0431	18
73.0096	10
74.0184	339
75.0267	615
75.0561	18
76.034	168
77.0421	610
78.0495	66
85.0121	11
86.0173	54
87.0249	120
88.0208	25
88.033	33
89.0404	165
90.0477	15
98.0163	150
99.0241	185
100.018	12
100.0316	70
101.0395	205
102.0468	208
103.0427	13
110.0159	14
111.0222	14
113.0391	105
114.0335	47
115.0548	26
122.0158	17
123.0221	21
124.0295	32
125.0391	201
126.0471	552
127.0531	175
128.0506	107
129.0453	12
129.0585	16
137.0395	36
139.0537	20
140.05	61
149.0385	102
150.0473	999
151.0547	875
152.0605	475
153.0584	72
164.0497	25
175.0419	31
176.0498	91
177.0578	292
178.0653	277
179.0729	24
