Mass spectrum: Warfarin; LC-ESI-QTOF; MS2; 80 V
Name: Warfarin
Class: Pesticide; Biocide; Rodenticide
Formula: C19H16O4
Exact mass: 308.1049
SMILES: CC(=O)CC(C1=CC=CC=C1)C2=C(C3=CC=CC=C3OC2=O)O
InChI: InChI=1S/C19H16O4/c1-12(20)11-15(13-7-3-2-4-8-13)17-18(21)14-9-5-6-10-16(14)23-19(17)22/h2-10,15,21H,11H2,1H3
Instrument: TripleTOF 6600 SCIEX
Instrument type: LC-ESI-QTOF
Ms type: MS2
Ion mode: POSITIVE
Collision energy: 80
Fragmentation mode: CID
Ionization: ESI
Column name: Zorbax Eclipse Plus C18 2.1 mm x 150 mm, 3.5 um, Agilent
Retention time: 11.631 min
Precursor m/z: 309.1122
Precursor type: [M+H]+
m/z	relative intensity
37.0074	22
38.0148	18
39.0231	172
43.0183	235
50.0142	26
51.0227	166
53.0021	19
63.023	18
65.0387	999
68.9966	94
74.0138	13
75.0221	65
76.0305	10
77.0385	827
79.0535	23
89.0378	62
91.0541	93
93.0331	279
95.0491	21
101.0381	43
102.0452	81
103.0537	194
105.0436	21
115.0537	69
121.0286	662
126.0451	11
127.0529	57
128.0623	151
129.0319	58
129.0699	22
131.0461	13
139.0542	18
141.0692	14
150.0445	39
151.0541	122
152.0616	335
153.0687	42
154.0782	23
155.0819	15
164.0624	37
165.0684	255
166.0797	13
167.0838	13
173.022	13
175.0568	11
176.061	242
177.0687	71
178.0762	159
205.0645	54
