Mass spectrum: 2-Methylquinoline; LC-ESI-QTOF; MS2; 50 V
Name: 2-Methylquinoline
Formula: C10H9N
Exact mass: 143.0735
SMILES: CC1=NC2=CC=CC=C2C=C1
InChI: InChI=1S/C10H9N/c1-8-6-7-9-4-2-3-5-10(9)11-8/h2-7H,1H3
Instrument: TripleTOF X500R SCIEX
Instrument type: LC-ESI-QTOF
Ms type: MS2
Ion mode: POSITIVE
Collision energy: 50
Fragmentation mode: CID
Ionization: ESI
Column name: Zorbax Eclipse Plus C18 2.1 mm x 150 mm, 3.5 um, Agilent
Retention time: 4.69 min
Precursor m/z: 144.0808
Precursor type: [M+H]+
m/z	relative intensity
50.0154	27
51.0232	341
65.0393	11
75.0232	62
76.0305	22
77.0391	999
78.0466	20
89.0396	41
90.0476	15
91.056	46
101.0393	167
102.0466	262
103.0545	157
115.0541	265
116.0487	12
116.063	33
117.0579	47
126.0483	9
127.0537	18
128.0499	313
129.0574	51
141.0582	13
142.0665	72
143.0732	234
144.0818	92
