Mass spectrum: Tepraloxydim; LC-ESI-QTOF; MS2; 80 V
Name: Tepraloxydim
Class: Herbicide
Formula: C17H24ClNO4
Exact mass: 341.1394
SMILES: CCC(=NOCC=CCl)C1=C(CC(CC1=O)C2CCOCC2)O
InChI: InChI=1S/C17H24ClNO4/c1-2-14(19-23-7-3-6-18)17-15(20)10-13(11-16(17)21)12-4-8-22-9-5-12/h3,6,12-13,20H,2,4-5,7-11H2,1H3
Instrument: TripleTOF 6600 SCIEX
Instrument type: LC-ESI-QTOF
Ms type: MS2
Ion mode: POSITIVE
Collision energy: 80
Fragmentation mode: CID
Ionization: ESI
Column name: Zorbax Eclipse Plus C18 2.1 mm x 150 mm, 3.5 um, Agilent
Retention time: 12.248 min
Precursor m/z: 342.1467
Precursor type: [M+H]+
m/z	relative intensity
37.0064	40
38.0144	22
39.0222	177
41.0253	28
41.0376	155
42.0331	143
43.0169	143
44.0121	51
48.9832	241
50.014	57
51.0223	166
53.0016	34
53.0376	132
54.0328	80
55.0169	51
55.0532	160
56.0485	212
65.0372	310
66.0326	63
66.0455	45
67.0154	34
67.0404	177
67.0528	189
68.012	51
68.0484	223
69.0327	74
70.0274	28
70.064	51
72.0429	28
74.9982	177
77.0375	999
78.0319	28
78.0456	68
79.0156	28
79.0526	298
80.0485	177
81.0323	91
81.0559	63
81.069	120
82.0639	160
83.0474	57
83.0731	22
89.0371	34
91.0528	803
92.0481	91
93.0318	40
93.0565	155
93.0681	172
94.0419	28
94.0636	166
95.0473	97
96.0429	378
97.0506	40
98.0588	545
102.045	45
103.0528	384
104.0482	34
105.0437	51
105.0691	132
106.0641	97
107.0485	86
108.079	137
110.0591	103
110.0954	63
111.0437	22
111.0661	45
115.0529	223
116.0482	28
116.061	51
117.0566	68
117.0682	63
118.0639	68
119.0478	34
120.0455	34
120.0793	63
121.0639	200
122.059	57
124.0372	51
124.0738	28
127.0528	40
128.0607	166
129.0686	74
130.0636	57
131.0467	40
131.0708	40
132.0802	51
134.0958	22
136.0749	34
138.0899	28
141.0674	51
142.0713	28
143.0714	51
144.0804	57
146.0581	51
147.0428	40
149.0573	45
152.0601	40
153.0723	22
155.0701	22
156.08	22
157.0862	28
160.0751	57
162.0539	40
164.0729	28
