Mass spectrum: p-Phenetidine; LC-ESI-QTOF; MS2; 40 V
Name: p-Phenetidine
Formula: C8H11NO
Exact mass: 137.0841
SMILES: CCOC1=CC=C(C=C1)N
InChI: InChI=1S/C8H11NO/c1-2-10-8-5-3-7(9)4-6-8/h3-6H,2,9H2,1H3
Instrument: TripleTOF 6600 SCIEX
Instrument type: LC-ESI-QTOF
Ms type: MS2
Ion mode: POSITIVE
Collision energy: 40
Fragmentation mode: CID
Ionization: ESI
Column name: Zorbax Eclipse Plus C18 2.1 mm x 150 mm, 3.5 um, Agilent
Retention time: 4.84 min
Precursor m/z: 138.0914
Precursor type: [M+H]+
m/z	relative intensity
37.0084	17
38.0162	16
39.024	202
63.0237	21
64.0312	15
65.0395	999
66.0473	22
67.042	53
77.039	36
80.05	394
81.0578	122
82.0658	44
92.0505	138
93.0349	210
93.0578	156
108.0445	147
109.0532	230
110.0606	93
121.0418	14
