Mass spectrum: Cortisone; LC-ESI-QTOF; MS2; 120 V
Name: Cortisone
Class: Pharmaceutical
Formula: C21H28O5
Exact mass: 360.1937
SMILES: C[C@]12CCC(=O)C=C1CC[C@H]3[C@@H]4CC[C@](O)(C(=O)CO)[C@@]4(C)CC(=O)[C@H]23
InChI: InChI=1S/C21H28O5/c1-19-7-5-13(23)9-12(19)3-4-14-15-6-8-21(26,17(25)11-22)20(15,2)10-16(24)18(14)19/h9,14-15,18,22,26H,3-8,10-11H2,1-2H3/t14-,15-,18+,19-,20-,21-/m0/s1
Instrument: TripleTOF 5600 SCIEX
Instrument type: LC-ESI-QTOF
Ms type: MS2
Ion mode: POSITIVE
Collision energy: 120
Fragmentation mode: CID
Ionization: ESI
Column name: Zorbax Eclipse Plus C18 2.1 mm x 150 mm, 3.5 um, Agilent
Retention time: 8.396 min
Precursor m/z: 361.201
Precursor type: [M+H]+
m/z	relative intensity
53.0449	20
65.0439	291
67.0594	41
77.0435	999
78.0511	72
79.0583	208
81.0757	31
83.0519	46
89.0409	41
91.0582	764
93.0724	46
97.068	52
102.0499	46
103.0564	140
104.0637	41
105.0715	150
107.0507	62
115.0565	749
116.0634	57
117.0741	78
121.066	31
126.0474	31
127.0561	202
128.065	603
129.0718	124
131.0508	41
133.0702	57
139.0548	26
141.071	140
143.0838	20
144.0639	31
147.0831	72
151.0579	62
152.0654	244
153.0732	88
155.0906	26
163.0596	31
164.0691	36
165.072	280
167.0882	31
176.066	36
177.0717	26
178.0809	130
179.0869	26
189.0745	83
202.0828	41
