Mass spectrum: Nadolol; LC-ESI-QTOF; MS2; 100 V
Name: Nadolol
Class: Pharmaceutical
Formula: C17H27NO4
Exact mass: 309.194
SMILES: CC(C)(C)NCC(COC1=CC=CC2=C1CC(C(C2)O)O)O
InChI: InChI=1S/C17H27NO4/c1-17(2,3)18-9-12(19)10-22-16-6-4-5-11-7-14(20)15(21)8-13(11)16/h4-6,12,14-15,18-21H,7-10H2,1-3H3
Instrument: TripleTOF 5600 SCIEX
Instrument type: LC-ESI-QTOF
Ms type: MS2
Ion mode: POSITIVE
Collision energy: 100
Fragmentation mode: CID
Ionization: ESI
Column name: Zorbax Eclipse Plus C18 2.1 mm x 150 mm, 3.5 um, Agilent
Retention time: 5.13 min
Precursor m/z: 310.2013
Precursor type: [M+H]+
m/z	relative intensity
51.029	34
56.055	141
57.0757	102
58.0739	21
63.0293	38
65.0418	205
74.0623	30
75.0254	25
77.042	484
78.0471	81
79.0574	51
89.0407	120
91.0571	540
101.0379	21
102.0466	77
103.0553	205
104.0639	30
105.0724	17
107.0497	21
115.0552	999
115.0802	21
116.0626	64
117.0715	25
126.047	60
127.0536	244
127.0734	25
128.0629	578
129.0715	34
131.0493	171
132.0614	21
139.0551	64
141.0733	38
144.059	38
151.0565	47
152.0617	128
153.0697	64
