Mass spectrum: Fipronil; LC-ESI-QTOF; MS2; 110 V
Name: Fipronil
Class: Insecticide
Formula: C12H4Cl2F6N4OS
Exact mass: 435.9387
SMILES: C1=C(C=C(C(=C1Cl)N2C(=C(C(=N2)C#N)S(=O)C(F)(F)F)N)Cl)C(F)(F)F
InChI: InChI=1S/C12H4Cl2F6N4OS/c13-5-1-4(11(15,16)17)2-6(14)8(5)24-10(22)9(7(3-21)23-24)26(25)12(18,19)20/h1-2H,22H2
Instrument: TripleTOF 6600 SCIEX
Instrument type: LC-ESI-QTOF
Ms type: MS2
Ion mode: POSITIVE
Collision energy: 110
Fragmentation mode: CID
Ionization: ESI
Column name: Zorbax Eclipse Plus C18 2.1 mm x 150 mm, 3.5 um, Agilent
Retention time: 13.577 min
Precursor m/z: 436.946
Precursor type: [M+H]+
m/z	relative intensity
66.0189	227
68.9924	227
81.0124	227
88.0161	317
131.0066	227
143.0083	499
157.0101	999
158.0172	227
165.9751	590
169.0099	499
203.9781	999
