Mass spectrum: Trazodone; LC-ESI-QTOF; MS2; 150 V
Name: Trazodone
Class: Pharmaceutical
Formula: C19H22ClN5O
Exact mass: 371.1513
SMILES: C1CN(CCN1CCCN2C(=O)N3C=CC=CC3=N2)C4=CC(=CC=C4)Cl
InChI: InChI=1S/C19H22ClN5O/c20-16-5-3-6-17(15-16)23-13-11-22(12-14-23)8-4-10-25-19(26)24-9-2-1-7-18(24)21-25/h1-3,5-7,9,15H,4,8,10-14H2
Instrument: TripleTOF 6600 SCIEX
Instrument type: LC-ESI-QTOF
Ms type: MS2
Ion mode: POSITIVE
Collision energy: 150
Fragmentation mode: CID
Ionization: ESI
Column name: Zorbax Eclipse Plus C18 2.1 mm x 150 mm, 3.5 um, Agilent
Retention time: 7.095 min
Precursor m/z: 372.1586
Precursor type: [M+H]+
m/z	relative intensity
35.9989	22
37.0063	135
38.0136	181
39.0217	246
40.0169	15
41.0245	62
41.0374	11
42.0326	47
49.0062	48
50.0139	415
51.0216	999
52.0173	86
52.03	63
63.021	21
64.0171	127
65.0248	148
65.0366	39
66.02	41
66.032	42
67.0402	37
73.0055	31
74.0134	220
75.0213	255
76.0283	11
77.037	84
78.032	673
79.04	77
84.9818	41
89.0369	56
90.0442	18
91.0522	81
92.0352	60
93.0435	20
104.0488	10
110.9974	95
117.055	27
118.0631	28
119.0585	26
130.0643	13
131.0573	11
138.0077	14
139.0045	20
