Mass spectrum: Nicosulfuron; LC-ESI-QTOF; MS2; 150 V
Name: Nicosulfuron
Class: Herbicide
Formula: C15H18N6O6S
Exact mass: 410.1009
SMILES: CN(C)C(=O)C1=C(N=CC=C1)S(=O)(=O)NC(=O)NC2=NC(=CC(=N2)OC)OC
InChI: InChI=1S/C15H18N6O6S/c1-21(2)13(22)9-6-5-7-16-12(9)28(24,25)20-15(23)19-14-17-10(26-3)8-11(18-14)27-4/h5-8H,1-4H3,(H2,17,18,19,20,23)
Instrument: TripleTOF 6600 SCIEX
Instrument type: LC-ESI-QTOF
Ms type: MS2
Ion mode: POSITIVE
Collision energy: 150
Fragmentation mode: CID
Ionization: ESI
Column name: Zorbax Eclipse Plus C18 2.1 mm x 150 mm, 3.5 um, Agilent
Retention time: 8.499 min
Precursor m/z: 411.1081
Precursor type: [M+H]+
m/z	relative intensity
37.0046	23
38.0004	36
39.0211	43
40.0162	56
41.0003	18
41.0236	33
42.0313	18
43.0273	54
49.0053	51
50.0127	346
51.0207	999
52.0164	36
53.0001	12
53.0102	12
54.0326	15
55.0267	23
56.0105	51
57.0434	20
64.0154	59
65.0108	155
65.0341	12
66.0198	18
67.0029	51
67.0276	18
68.0104	80
68.9945	59
69.0052	155
70.0277	12
76.0146	10
78.0315	297
83.021	150
91.0259	23
93.0056	116
