Mass spectrum: Pyridoxine; LC-ESI-QTOF; MS2; 90 V
Name: Pyridoxine
Formula: C8H11NO3
Exact mass: 169.0739
SMILES: OC1=C(C)N=CC(CO)=C1CO
InChI: InChI=1S/C8H11NO3/c1-5-8(12)7(4-11)6(3-10)2-9-5/h2,10-12H,3-4H2,1H3
Instrument: TripleTOF 5600 SCIEX
Instrument type: LC-ESI-QTOF
Ms type: MS2
Ion mode: POSITIVE
Collision energy: 90
Fragmentation mode: CID
Ionization: ESI
Column name: Zorbax Eclipse Plus C18 2.1 mm x 150 mm, 3.5 um, Agilent
Retention time: 2.11 min
Precursor m/z: 170.0812
Precursor type: [M+H]+
m/z	relative intensity
37.0069	171
38.0148	156
39.023	483
42.0338	234
50.0151	530
51.0232	999
53.0385	405
54.0336	78
63.0236	78
65.0378	140
67.0416	78
77.0382	359
78.0332	187
80.0493	686
94.0656	93
