Mass spectrum: Donepezil; LC-ESI-QTOF; MS2; 40 V
Name: Donepezil
Class: Pharmaceutical
Formula: C24H29NO3
Exact mass: 379.2147
SMILES: COc1cc2CC(CC3CCN(CC3)Cc4ccccc4)C(=O)c2cc1OC
InChI: InChI=1S/C24H29NO3/c1-27-22-14-19-13-20(24(26)21(19)15-23(22)28-2)12-17-8-10-25(11-9-17)16-18-6-4-3-5-7-18/h3-7,14-15,17,20H,8-13,16H2,1-2H3
Instrument: TripleTOF 5600 SCIEX
Instrument type: LC-ESI-QTOF
Ms type: MS2
Ion mode: POSITIVE
Collision energy: 40
Fragmentation mode: CID
Ionization: ESI
Column name: Zorbax Eclipse Plus C18 2.1 mm x 150 mm, 3.5 um, Agilent
Retention time: 7.429 min
Precursor m/z: 380.222
Precursor type: [M+H]+
m/z	relative intensity
65.0436	28
82.0679	15
91.0573	999
96.0821	24
105.071	21
120.0812	21
151.0762	101
172.1128	65
177.0908	11
186.1277	16
189.0923	49
201.0905	19
203.1067	16
205.0864	29
209.0979	10
212.1189	17
215.107	10
217.1232	14
227.1079	14
228.1151	23
229.122	15
231.1383	13
233.1196	12
241.1227	38
243.1387	293
245.1172	14
255.139	20
259.1327	21
270.1497	56
271.134	17
273.1495	77
288.1603	141
