Mass spectrum: Linezolid; LC-ESI-QTOF; MS2; 20 V
Name: Linezolid
Class: Pharmaceutical
Formula: C16H20FN3O4
Exact mass: 337.1438
SMILES: CC(=O)NCC1CN(C(=O)O1)C2=CC(=C(C=C2)N3CCOCC3)F
InChI: InChI=1S/C16H20FN3O4/c1-11(21)18-9-13-10-20(16(22)24-13)12-2-3-15(14(17)8-12)19-4-6-23-7-5-19/h2-3,8,13H,4-7,9-10H2,1H3,(H,18,21)
Instrument: TripleTOF 5600 SCIEX
Instrument type: LC-ESI-QTOF
Ms type: MS2
Ion mode: POSITIVE
Collision energy: 20
Fragmentation mode: CID
Ionization: ESI
Column name: Zorbax Eclipse Plus C18 2.1 mm x 150 mm, 3.5 um, Agilent
Retention time: 6.936 min
Precursor m/z: 338.1511
Precursor type: [M+H]+
m/z	relative intensity
195.0939	33
235.1254	63
241.0977	19
294.1618	34
296.1414	247
338.1517	999
