Mass spectrum: Bisoprolol; LC-ESI-QTOF; MS2; 30 V
Name: Bisoprolol
Class: Pharmaceutical
Formula: C18H31NO4
Exact mass: 325.2253
SMILES: CC(C)NCC(COC1=CC=C(C=C1)COCCOC(C)C)O
InChI: InChI=1S/C18H31NO4/c1-14(2)19-11-17(20)13-23-18-7-5-16(6-8-18)12-21-9-10-22-15(3)4/h5-8,14-15,17,19-20H,9-13H2,1-4H3
Instrument: TripleTOF 6600 SCIEX
Instrument type: LC-ESI-QTOF
Ms type: MS2
Ion mode: POSITIVE
Collision energy: 30
Fragmentation mode: CID
Ionization: ESI
Column name: Zorbax Eclipse Plus C18 2.1 mm x 150 mm, 3.5 um, Agilent
Retention time: 7.01 min
Precursor m/z: 326.2326
Precursor type: [M+H]+
m/z	relative intensity
45.0329	17
56.0489	56
72.08	111
74.0593	343
75.0428	20
91.0528	27
98.0953	117
107.0481	55
116.1059	999
119.0475	26
121.0631	14
133.0632	46
145.063	35
147.0788	70
162.0896	54
163.0737	20
204.1368	49
222.1475	15
326.2316	356
