Mass spectrum: Inabenfide; LC-ESI-QTOF; MS2; 50 V
Name: Inabenfide
Formula: C19H15ClN2O2
Exact mass: 338.0822
SMILES: C1=CC=C(C=C1)C(C2=C(C=CC(=C2)Cl)NC(=O)C3=CC=NC=C3)O
InChI: InChI=1S/C19H15ClN2O2/c20-15-6-7-17(22-19(24)14-8-10-21-11-9-14)16(12-15)18(23)13-4-2-1-3-5-13/h1-12,18,23H,(H,22,24)
Instrument: TripleTOF 6600 SCIEX
Instrument type: LC-ESI-QTOF
Ms type: MS2
Ion mode: POSITIVE
Collision energy: 50
Fragmentation mode: CID
Ionization: ESI
Column name: Zorbax Eclipse Plus C18 2.1 mm x 150 mm, 3.5 um, Agilent
Retention time: 10.231 min
Precursor m/z: 339.0895
Precursor type: [M+H]+
m/z	relative intensity
50.0145	12
51.0223	13
52.0295	35
53.0379	25
78.0329	17
79.0408	627
80.0487	999
105.0323	11
105.0439	15
108.0426	21
152.0611	12
153.0615	12
154.0647	31
155.0717	11
165.0689	49
166.0041	38
166.065	17
167.072	50
168.0801	44
169.0879	173
178.065	24
179.0718	56
180.0681	28
181.0745	60
188.025	25
191.0716	11
199.0311	17
200.0248	25
201.0332	18
202.0398	11
203.0713	10
206.0593	39
207.0676	147
208.0624	27
214.0415	243
215.0367	196
215.0847	10
216.0441	57
217.087	20
219.0663	23
226.0414	17
229.0882	11
230.0953	36
231.1042	19
238.0409	16
240.0797	23
241.0881	62
242.0349	45
242.0944	33
243.032	33
243.1037	104
244.0393	304
244.1102	13
250.0405	18
251.0488	35
253.0639	16
255.09	19
256.099	42
257.1072	167
258.0916	13
258.1148	98
264.0566	42
265.0615	11
266.0729	54
267.0899	26
268.0995	29
269.0837	17
275.0478	10
276.0551	37
277.0643	30
278.07	91
279.0798	60
284.0925	16
285.1021	76
286.1101	78
291.068	113
292.0751	100
293.0847	57
294.0653	11
303.0674	17
305.0561	18
320.0711	29
321.0778	160
