Mass spectrum: 3,5-Dichloro-2-hydroxybenzophenone; LC-ESI-QTOF; MS2; 30 V
Name: 3,5-Dichloro-2-hydroxybenzophenone
Formula: C13H8Cl2O2
Exact mass: 265.9901
SMILES: c1ccc(cc1)C(=O)c2cc(cc(c2O)Cl)Cl
InChI: InChI=1S/C13H8Cl2O2/c14-9-6-10(13(17)11(15)7-9)12(16)8-4-2-1-3-5-8/h1-7,17H
Instrument: TripleTOF 5600 SCIEX
Instrument type: LC-ESI-QTOF
Ms type: MS2
Ion mode: NEGATIVE
Collision energy: 30
Fragmentation mode: CID
Ionization: ESI
Column name: Zorbax Eclipse Plus C18 2.1 mm x 150 mm, 3.5 um, Agilent
Retention time: 15.407 min
Precursor m/z: 264.9829
Precursor type: [M-H]-
m/z	relative intensity
121.0305	103
236.9872	76
264.9847	999
265.9876	112
