Mass spectrum: Venlafaxine; LC-ESI-QTOF; MS2; 40 V
Name: Venlafaxine
Class: Pharmaceutical
Formula: C17H27NO2
Exact mass: 277.2042
SMILES: CN(C)CC(c1ccc(cc1)OC)C2(CCCCC2)O
InChI: InChI=1S/C17H27NO2/c1-18(2)13-16(17(19)11-5-4-6-12-17)14-7-9-15(20-3)10-8-14/h7-10,16,19H,4-6,11-13H2,1-3H3
Instrument: TripleTOF 5600 SCIEX
Instrument type: LC-ESI-QTOF
Ms type: MS2
Ion mode: POSITIVE
Collision energy: 40
Fragmentation mode: CID
Ionization: ESI
Column name: Zorbax Eclipse Plus C18 2.1 mm x 150 mm, 3.5 um, Agilent
Retention time: 6.626 min
Precursor m/z: 278.2115
Precursor type: [M+H]+
m/z	relative intensity
42.0423	10
58.0712	999
77.0411	37
78.0485	10
79.0565	32
81.0714	22
91.0556	148
93.0711	14
107.0472	12
107.0855	12
115.0528	23
117.0708	14
121.0647	569
129.0681	10
131.0487	12
132.057	26
135.0794	23
141.0676	10
144.0557	15
147.0796	214
158.0724	33
159.0796	66
162.092	14
163.0967	11
173.0954	84
215.1437	88
260.2015	61
278.2137	17
