Mass spectrum: Diazepam; LC-ESI-QTOF; MS2; 30 V
Name: Diazepam
Class: Pharmaceutical
Formula: C16H13ClN2O
Exact mass: 284.0716
SMILES: CN1C(=O)CN=C(C2=C1C=CC(=C2)Cl)C3=CC=CC=C3
InChI: InChI=1S/C16H13ClN2O/c1-19-14-8-7-12(17)9-13(14)16(18-10-15(19)20)11-5-3-2-4-6-11/h2-9H,10H2,1H3
Instrument: TripleTOF 6600 SCIEX
Instrument type: LC-ESI-QTOF
Ms type: MS2
Ion mode: POSITIVE
Collision energy: 30
Fragmentation mode: CID
Ionization: ESI
Column name: Zorbax Eclipse Plus C18 2.1 mm x 150 mm, 3.5 um, Agilent
Retention time: 11.181 min
Precursor m/z: 285.0789
Precursor type: [M+H]+
m/z	relative intensity
91.0534	13
105.0326	17
154.041	146
167.0118	12
172.0622	14
179.036	15
180.0204	15
182.0357	38
193.0882	108
221.1062	15
222.115	135
227.0496	11
228.0574	125
241.0531	23
255.0679	17
257.0843	219
285.0796	999
