Mass spectrum: Butocarboxim; LC-ESI-QTOF; MS2; 70 V
Name: Butocarboxim
Class: Insecticide; Acaricide
Formula: C7H14N2O2S
Exact mass: 190.0776
SMILES: CC(C(=NOC(=O)NC)C)SC
InChI: InChI=1S/C7H14N2O2S/c1-5(6(2)12-4)9-11-7(10)8-3/h6H,1-4H3,(H,8,10)
Instrument: TripleTOF 6600 SCIEX
Instrument type: LC-ESI-QTOF
Ms type: MS2
Ion mode: POSITIVE
Collision energy: 70
Fragmentation mode: CID
Ionization: ESI
Column name: Zorbax Eclipse Plus C18 2.1 mm x 150 mm, 3.5 um, Agilent
Retention time: 7.75 min
Precursor m/z: 213.0668
Precursor type: [M+Na]+
m/z	relative intensity
39.0231	205
41.0388	236
42.0339	61
43.972	51
44.9792	999
46.9949	813
57.9873	123
58.9949	947
60.0026	690
75.0258	339
100.0204	72
