Mass spectrum: Difenoconazole; LC-ESI-QTOF; MS2; 70 V
Name: Difenoconazole
Class: Fungicide
Formula: C19H17Cl2N3O3
Exact mass: 405.0647
SMILES: CC1COC(Cn2cncn2)(O1)c3ccc(Oc4ccc(Cl)cc4)cc3Cl
InChI: InChI=1S/C19H17Cl2N3O3/c1-13-9-25-19(27-13,10-24-12-22-11-23-24)17-7-6-16(8-18(17)21)26-15-4-2-14(20)3-5-15/h2-8,11-13H,9-10H2,1H3
Instrument: TripleTOF 6600 SCIEX
Instrument type: LC-ESI-QTOF
Ms type: MS2
Ion mode: POSITIVE
Collision energy: 70
Fragmentation mode: CID
Ionization: ESI
Column name: Zorbax Eclipse Plus C18 2.1 mm x 150 mm, 3.5 um, Agilent
Retention time: 13.755 min
Precursor m/z: 406.072
Precursor type: [M+H]+
m/z	relative intensity
39.0229	11
41.0384	14
70.0391	13
74.0145	31
75.023	202
77.0383	23
84.9839	9
110.9995	786
115.0537	12
128.0621	18
129.0691	40
139.0053	255
139.0541	23
141.0095	408
149.0147	21
151.0535	52
152.0615	597
153.0694	539
154.9881	19
162.0228	22
167.049	10
173.0139	40
174.0222	23
179.0582	13
181.0644	292
182.9759	32
187.0303	128
188.0386	999
202.017	144
208.9914	67
215.0263	155
216.0331	34
223.0067	242
251.002	358
264.9818	166
