Mass spectrum: Iohexol; LC-ESI-QTOF; MS2; 40 V
Name: Iohexol
Class: Pharmaceutical
Formula: C19H26I3N3O9
Exact mass: 820.8803
SMILES: CC(=O)N(CC(O)CO)c1c(I)c(C(=O)NCC(O)CO)c(I)c(C(=O)NCC(O)CO)c1I
InChI: InChI=1S/C19H26I3N3O9/c1-8(29)25(4-11(32)7-28)17-15(21)12(18(33)23-2-9(30)5-26)14(20)13(16(17)22)19(34)24-3-10(31)6-27/h9-11,26-28,30-32H,2-7H2,1H3,(H,23,33)(H,24,34)
Instrument: TripleTOF 5600 SCIEX
Instrument type: LC-ESI-QTOF
Ms type: MS2
Ion mode: POSITIVE
Collision energy: 40
Fragmentation mode: CID
Ionization: ESI
Column name: Zorbax Eclipse Plus C18 2.1 mm x 150 mm, 3.5 um, Agilent
Retention time: 4.533 min
Precursor m/z: 821.8876
Precursor type: [M+H]+
m/z	relative intensity
321.1101	13
374.9847	41
399.1654	17
431.0122	12
435.0073	30
448.0243	15
449.022	43
451.829	22
466.0475	72
490.0517	10
500.8794	20
501.8881	21
526.07	38
528.8777	58
542.893	56
557.9108	20
560.9039	61
575.9249	45
591.945	53
602.9108	225
626.7768	34
639.764	75
640.7915	14
652.7903	27
652.9718	65
656.7893	157
670.8056	17
712.8196	20
717.8376	17
730.8261	55
803.8805	999
821.8858	13
