Mass spectrum: Propiconazole; LC-ESI-QTOF; MS2; 110 V
Name: Propiconazole
Class: Fungicide
Formula: C15H17Cl2N3O2
Exact mass: 341.0698
SMILES: CCCC1COC(Cn2cncn2)(O1)c3ccc(Cl)cc3Cl
InChI: InChI=1S/C15H17Cl2N3O2/c1-2-3-12-7-21-15(22-12,8-20-10-18-9-19-20)13-5-4-11(16)6-14(13)17/h4-6,9-10,12H,2-3,7-8H2,1H3
Instrument: TripleTOF 5600 SCIEX
Instrument type: LC-ESI-QTOF
Ms type: MS2
Ion mode: POSITIVE
Collision energy: 110
Fragmentation mode: CID
Ionization: ESI
Column name: Zorbax Eclipse Plus C18 2.1 mm x 150 mm, 3.5 um, Agilent
Retention time: 13.45 min
Precursor m/z: 342.0771
Precursor type: [M+H]+
m/z	relative intensity
48.9909	9
69.0718	21
70.0429	33
72.9879	373
74.0184	223
75.0253	29
82.9464	33
87.0238	20
88.0318	69
89.0412	999
89.0725	16
96.9845	145
99	247
106.9443	11
108.9841	315
109.9913	13
122.9994	465
124.0062	168
132.9598	122
144.9599	88
158.9756	195
172.9642	25
