Mass spectrum: Foramsulfuron; LC-ESI-QTOF; MS2; 130 V
Name: Foramsulfuron
Class: Herbicide
Formula: C17H20N6O7S
Exact mass: 452.1114
SMILES: CN(C)C(=O)C1=C(C=C(C=C1)NC=O)S(=O)(=O)NC(=O)NC2=NC(=CC(=N2)OC)OC
InChI: InChI=1S/C17H20N6O7S/c1-23(2)15(25)11-6-5-10(18-9-24)7-12(11)31(27,28)22-17(26)21-16-19-13(29-3)8-14(20-16)30-4/h5-9H,1-4H3,(H,18,24)(H2,19,20,21,22,26)
Instrument: TripleTOF 6600 SCIEX
Instrument type: LC-ESI-QTOF
Ms type: MS2
Ion mode: POSITIVE
Collision energy: 130
Fragmentation mode: CID
Ionization: ESI
Column name: Zorbax Eclipse Plus C18 2.1 mm x 150 mm, 3.5 um, Agilent
Retention time: 8.823 min
Precursor m/z: 453.1187
Precursor type: [M+H]+
m/z	relative intensity
38.0132	26
40.0286	34
41.0123	16
41.0362	34
42.0199	13
42.0306	16
42.0444	21
43.0386	37
44.0599	34
45.0434	10
50.0251	16
52.0291	29
53.0122	32
54.0453	24
55.0397	48
56.023	163
57.0553	42
61.017	10
62.0254	29
63.0333	123
64.0285	37
64.0413	16
65.0238	222
65.0361	24
65.0487	527
66.0318	24
66.0441	29
67.016	66
67.0504	13
68.0231	96
69.0075	128
69.0186	283
70.0386	40
71.07	34
77.0488	96
78.0444	190
79.0522	18
79.0639	18
80.059	99
81.0537	26
82.0391	88
83.0338	999
90.0439	88
91.0515	21
92.0592	107
93.0176	605
93.0409	10
93.067	18
94.0256	34
94.0748	61
95.0332	21
98.0406	10
100.0499	16
105.0533	262
106.0373	29
106.0732	24
109.0482	29
110.0438	26
112.059	18
120.051	13
121.0458	10
138.0374	32
139.0563	32
140.0534	16
