Mass spectrum: Triamterene; LC-ESI-QTOF; MS2; 130 V
Name: Triamterene
Class: Pharmaceutical
Formula: C12H11N7
Exact mass: 253.1076
SMILES: C1=CC=C(C=C1)C2=NC3=C(N=C2N)N=C(N=C3N)N
InChI: InChI=1S/C12H11N7/c13-9-7(6-4-2-1-3-5-6)16-8-10(14)18-12(15)19-11(8)17-9/h1-5H,(H6,13,14,15,17,18,19)
Instrument: TripleTOF 5600 SCIEX
Instrument type: LC-ESI-QTOF
Ms type: MS2
Ion mode: POSITIVE
Collision energy: 130
Fragmentation mode: CID
Ionization: ESI
Column name: Zorbax Eclipse Plus C18 2.1 mm x 150 mm, 3.5 um, Agilent
Retention time: 5.203 min
Precursor m/z: 254.1149
Precursor type: [M+H]+
m/z	relative intensity
38.0186	24
43.0377	36
43.0444	109
53.0239	213
65.021	188
66.0318	30
68.0315	67
74.0201	85
75.0141	48
75.0261	54
76.0205	42
76.0342	103
77.0445	999
86.0193	42
87.028	54
88.0238	121
88.0365	36
89.0422	487
90.0121	24
92.0269	30
98.0159	24
99.0131	48
104.0499	79
114.0345	127
115.0435	24
