Mass spectrum: Sulpiride; LC-ESI-QTOF; MS2; 140 V
Name: Sulpiride
Class: Pharmaceutical
Formula: C15H23N3O4S
Exact mass: 341.1409
SMILES: CCN1CCCC1CNC(=O)c2cc(ccc2OC)[S](N)(=O)=O
InChI: InChI=1S/C15H23N3O4S/c1-3-18-8-4-5-11(18)10-17-15(19)13-9-12(23(16,20)21)6-7-14(13)22-2/h6-7,9,11H,3-5,8,10H2,1-2H3,(H,17,19)(H2,16,20,21)
Instrument: TripleTOF 5600 SCIEX
Instrument type: LC-ESI-QTOF
Ms type: MS2
Ion mode: POSITIVE
Collision energy: 140
Fragmentation mode: CID
Ionization: ESI
Column name: Zorbax Eclipse Plus C18 2.1 mm x 150 mm, 3.5 um, Agilent
Retention time: 4.958 min
Precursor m/z: 342.1482
Precursor type: [M+H]+
m/z	relative intensity
51.0294	359
52.0368	279
55.0608	119
56.0568	299
58.0735	159
68.0513	99
70.0675	199
74.0185	859
75.0268	999
76.0319	319
79.0197	139
84.0825	159
91.0214	159
98.0961	179
