Mass spectrum: 6-Acetylcodeine; LC-ESI-QTOF; MS2; 100 V
Name: 6-Acetylcodeine
Class: Pharmaceutical; Transformation_product
Formula: C20H23NO4
Exact mass: 341.1627
SMILES: CC(=O)OC1C=CC2C3CC4=C5C2(C1OC5=C(C=C4)OC)CCN3C
InChI: InChI=1S/C20H23NO4/c1-11(22)24-16-7-5-13-14-10-12-4-6-15(23-3)18-17(12)20(13,19(16)25-18)8-9-21(14)2/h4-7,13-14,16,19H,8-10H2,1-3H3
Instrument: TripleTOF 5600 SCIEX
Instrument type: LC-ESI-QTOF
Ms type: MS2
Ion mode: POSITIVE
Collision energy: 100
Fragmentation mode: CID
Ionization: ESI
Column name: Zorbax Eclipse Plus C18 2.1 mm x 150 mm, 3.5 um, Agilent
Retention time: 6.207 min
Precursor m/z: 342.17
Precursor type: [M+H]+
m/z	relative intensity
43.0264	93
58.0695	13
65.0422	13
77.0416	91
78.049	19
89.0402	39
91.0563	35
101.0395	11
102.0474	46
103.0548	26
113.0391	10
114.0471	19
115.0548	388
116.061	21
118.0406	19
125.0398	10
126.0462	68
127.0546	211
128.0627	245
129.0697	27
131.0494	26
139.055	203
140.062	32
141.0699	94
144.0569	11
150.0468	67
151.055	275
152.0628	999
153.0697	224
154.0758	24
155.0494	66
157.0643	11
163.0541	119
164.0617	196
165.0705	473
166.0746	14
168.0572	43
169.0644	21
171.045	10
176.0619	93
177.0679	39
178.0774	86
179.0846	11
180.0566	12
181.0658	108
183.0453	26
187.0547	11
188.0631	14
189.0703	134
190.0769	15
193.0654	13
197.0593	11
200.0627	16
202.0763	13
204.0806	21
205.0657	22
218.0951	10
