Mass spectrum: 2,2,4-Trimethyl-1,2-dihydroquinoline; LC-ESI-QTOF; MS2; 70 V
Name: 2,2,4-Trimethyl-1,2-dihydroquinoline
Class: Industrial_process
Formula: C12H15N
Exact mass: 173.1204
SMILES: CC1=CC(NC2=CC=CC=C12)(C)C
InChI: InChI=1S/C12H15N/c1-9-8-12(2,3)13-11-7-5-4-6-10(9)11/h4-8,13H,1-3H3
Instrument: TripleTOF 6600 SCIEX
Instrument type: LC-ESI-QTOF
Ms type: MS2
Ion mode: POSITIVE
Collision energy: 70
Fragmentation mode: CID
Ionization: ESI
Column name: Zorbax Eclipse Plus C18 2.1 mm x 150 mm, 3.5 um, Agilent
Retention time: 12.497 min
Precursor m/z: 174.1277
Precursor type: [M+H]+
m/z	relative intensity
37.0067	55
38.0143	42
39.0225	426
41.038	66
50.0143	88
51.0224	508
53.0375	15
62.0142	24
63.022	142
64.0294	17
65.0379	644
66.0447	19
67.0405	10
74.0138	23
75.0214	75
76.0293	13
77.0378	999
78.0335	12
78.0447	18
79.0529	22
80.0482	10
89.0376	584
90.0453	182
91.0532	472
93.0559	22
101.037	35
102.0449	56
103.053	151
104.048	11
105.0429	12
106.0642	19
115.0532	650
116.0485	29
116.0603	60
117.056	167
118.0629	10
126.0448	61
127.053	115
128.0487	46
128.0593	38
129.0437	13
129.0558	15
130.0637	157
141.067	11
142.0641	45
143.0717	155
144.0787	29
155.0594	17
156.0786	16
157.0868	16
158.0956	12
