Mass spectrum: Carbamazepine; LC-ESI-QTOF; MS2; 90 V
Name: Carbamazepine
Class: Pharmaceutical
Formula: C15H12N2O
Exact mass: 236.095
SMILES: NC(=O)N1c2ccccc2C=Cc3ccccc13
InChI: InChI=1S/C15H12N2O/c16-15(18)17-13-7-3-1-5-11(13)9-10-12-6-2-4-8-14(12)17/h1-10H,(H2,16,18)
Instrument: TripleTOF 5600 SCIEX
Instrument type: LC-ESI-QTOF
Ms type: MS2
Ion mode: POSITIVE
Collision energy: 90
Fragmentation mode: CID
Ionization: ESI
Column name: Zorbax Eclipse Plus C18 2.1 mm x 150 mm, 3.5 um, Agilent
Retention time: 8.87 min
Precursor m/z: 237.1022
Precursor type: [M+H]+
m/z	relative intensity
44.0286	12
64.0337	14
65.0429	79
74.0188	59
75.0264	89
76.0344	53
77.0412	121
78.0489	25
85.0075	10
86.018	27
87.0238	59
88.0316	12
89.0406	502
90.0469	68
91.0541	27
98.0148	42
99.0243	49
100.0302	29
101.0389	79
102.0464	100
111.021	12
113.039	162
114.0307	10
114.0411	19
115.0545	331
116.0483	32
117.057	34
124.0282	21
125.0378	79
126.0456	218
127.0401	27
127.0547	49
128.0515	132
129.0442	10
129.0607	10
137.0368	53
138.046	62
139.0543	646
140.0503	350
149.0416	57
150.0466	451
151.0544	485
152.059	273
153.057	62
154.062	17
161.0359	19
162.0463	109
163.0546	999
163.0905	10
164.0603	646
165.0694	598
166.0649	250
167.0724	83
174.0502	17
175.0418	10
175.0578	10
176.0572	77
177.0581	207
178.0652	186
179.0707	19
188.0483	109
189.0564	256
190.0653	951
191.0726	827
192.0825	124
193.0857	10
