Mass spectrum: Hostavin VSU P; LC-ESI-QTOF; MS2; 30 V
Name: Hostavin VSU P
Formula: C18H20N2O3
Exact mass: 312.1474
SMILES: CCC1=CC=CC=C1NC(=O)C(=O)NC2=CC=CC=C2OCC
InChI: InChI=1S/C18H20N2O3/c1-3-13-9-5-6-10-14(13)19-17(21)18(22)20-15-11-7-8-12-16(15)23-4-2/h5-12H,3-4H2,1-2H3,(H,19,21)(H,20,22)
Instrument: TripleTOF 5600 SCIEX
Instrument type: LC-ESI-QTOF
Ms type: MS2
Ion mode: POSITIVE
Collision energy: 30
Fragmentation mode: CID
Ionization: ESI
Column name: Zorbax Eclipse Plus C18 2.1 mm x 150 mm, 3.5 um, Agilent
Retention time: 15.402 min
Precursor m/z: 313.1547
Precursor type: [M+H]+
m/z	relative intensity
91.0543	57
92.0494	26
94.0651	36
108.0437	31
109.0516	150
110.0593	338
118.0662	31
120.0441	197
120.0797	171
121.0642	46
122.096	369
130.0645	385
132.0817	78
136.0389	999
138.0909	686
148.0755	426
149.0242	31
313.16	72
