Mass spectrum: 2`-Deoxyinosine; LC-ESI-QTOF; MS2; 50 V
Name: 2`-Deoxyinosine
Class: Natural_product
Formula: C10H12N4O4
Exact mass: 252.0859
SMILES: C1C(C(OC1N2C=NC3=C2NC=NC3=O)CO)O
InChI: InChI=1S/C10H12N4O4/c15-2-6-5(16)1-7(18-6)14-4-13-8-9(14)11-3-12-10(8)17/h3-7,15-16H,1-2H2,(H,11,12,17)
Instrument: TripleTOF 5600 SCIEX
Instrument type: LC-ESI-QTOF
Ms type: MS2
Ion mode: POSITIVE
Collision energy: 50
Fragmentation mode: CID
Ionization: ESI
Column name: Zorbax Eclipse Plus C18 2.1 mm x 150 mm, 3.5 um, Agilent
Retention time: 4.181 min
Precursor m/z: 253.0931
Precursor type: [M+H]+
m/z	relative intensity
55.0353	14
55.047	21
69.0373	21
71.0553	29
73.034	43
82.0466	29
94.0441	65
99.0484	29
110.0388	196
117.0568	36
119.0373	269
120.0153	14
137.0479	999
