Mass spectrum: Fluazifop; LC-ESI-QTOF; MS2; 140 V
Name: Fluazifop
Class: Herbicide; Transformation_product
Formula: C15H12F3NO4
Exact mass: 327.0718
SMILES: CC(C(=O)O)Oc1ccc(cc1)Oc2ccc(cn2)C(F)(F)F
InChI: InChI=1S/C15H12F3NO4/c1-9(14(20)21)22-11-3-5-12(6-4-11)23-13-7-2-10(8-19-13)15(16,17)18/h2-9H,1H3,(H,20,21)
Instrument: TripleTOF 6600 SCIEX
Instrument type: LC-ESI-QTOF
Ms type: MS2
Ion mode: POSITIVE
Collision energy: 140
Fragmentation mode: CID
Ionization: ESI
Column name: Zorbax Eclipse Plus C18 2.1 mm x 150 mm, 3.5 um, Agilent
Retention time: 11.668 min
Precursor m/z: 328.0791
Precursor type: [M+H]+
m/z	relative intensity
30.9987	22
35.9995	44
37.0078	241
38.0158	196
39.0236	505
49.0076	190
49.9969	33
50.0156	746
51.0061	129
51.0232	718
52.0186	112
53.0032	44
53.0398	33
56.0061	39
57.0136	95
60.0002	50
61.0076	246
62.0155	465
63.0232	864
64.0185	28
64.0312	44
65.0389	134
68.9949	533
69.0143	39
70.0215	129
73.0074	72
74.0155	364
75.0047	999
75.0231	112
76.0183	291
77.0255	22
77.0391	207
78.0343	112
78.9974	28
79.0419	28
80.0056	39
81.0133	95
81.0334	39
85.0071	50
86.0155	123
87.0231	140
88.0182	44
88.0307	56
89.0398	56
92.9943	39
98.0139	72
99.004	269
99.9975	39
100.0126	50
101.0193	50
101.0387	44
102.0462	67
105.0129	39
107.0282	39
113.0382	117
117.0138	22
119.0109	61
122.0153	67
123.0108	33
125.0186	50
126.0159	50
131.0297	50
133.0457	28
140.0495	28
