Mass spectrum: N,N-dimethylbenzylamine; LC-ESI-QTOF; MS2; 110 V
Name: N,N-dimethylbenzylamine
Class: Industrial_process
Formula: C9H13N
Exact mass: 135.1048
InChI: InChI=1S/C9H13N/c1-10(2)8-9-6-4-3-5-7-9/h3-7H,8H2,1-2H3
Instrument: TripleTOF 5600 SCIEX
Instrument type: LC-ESI-QTOF
Ms type: CID
Ion mode: POSITIVE
Collision energy: 110
Ionization: ESI
Column name: Zorbax Eclipse Plus C18 2.1 mm x 150 mm, 3.5 um, Agilent
Retention time: 4.419 min
Precursor m/z: 136.1121
Precursor type: [M+H]+
m/z	relative intensity
35.9998	275
37.0072	999
38.015	688
39.0224	757
51.0224	275
59.9993	344
74.0143	241
