Mass spectrum: Hydrocortisone; LC-ESI-QTOF; MS2; 80 V
Name: Hydrocortisone
Class: Pharmaceutical
Formula: C21H30O5
Exact mass: 362.2093
SMILES: C[C@]12CCC(=O)C=C1CC[C@H]3[C@@H]4CC[C@](O)(C(=O)CO)[C@@]4(C)C[C@H](O)[C@H]23
InChI: InChI=1S/C21H30O5/c1-19-7-5-13(23)9-12(19)3-4-14-15-6-8-21(26,17(25)11-22)20(15,2)10-16(24)18(14)19/h9,14-16,18,22,24,26H,3-8,10-11H2,1-2H3/t14-,15-,16-,18+,19-,20-,21-/m0/s1
Instrument: TripleTOF 5600 SCIEX
Instrument type: LC-ESI-QTOF
Ms type: MS2
Ion mode: POSITIVE
Collision energy: 80
Fragmentation mode: CID
Ionization: ESI
Column name: Zorbax Eclipse Plus C18 2.1 mm x 150 mm, 3.5 um, Agilent
Retention time: 8.323 min
Precursor m/z: 363.2166
Precursor type: [M+H]+
m/z	relative intensity
43.0254	59
43.0499	20
55.0264	29
55.0589	59
65.0424	89
67.0583	101
69.0359	14
69.0741	17
71.0527	14
77.0418	679
78.0499	32
79.0562	363
81.036	23
81.0715	119
83.0514	65
91.0563	999
91.0893	41
93.0714	131
95.0495	26
95.0873	47
97.0655	155
102.0465	17
103.0548	155
104.0612	35
105.0699	533
105.0973	14
107.0483	71
107.0871	26
109.066	92
109.1064	14
115.0542	492
116.0617	95
117.0695	229
119.054	17
119.0829	178
121.0646	301
123.0806	62
126.0478	14
127.0539	161
127.0751	11
128.0617	635
128.0895	20
129.0692	441
130.078	77
131.0486	23
131.0849	152
132.055	17
133.064	35
133.1004	20
141.0696	414
142.0777	143
143.0854	119
144.0563	23
144.0914	29
145.0657	41
145.0986	50
147.0807	53
147.1166	26
148.087	56
151.0568	20
152.0618	143
153.0697	235
154.0777	95
155.0852	158
156.0932	38
157.0673	26
157.1002	53
158.071	14
159.0804	26
159.1181	14
163.1136	20
165.0692	292
166.0766	83
167.0851	149
168.0919	41
169.0622	17
169.1006	68
170.1065	11
171.0824	23
171.1149	17
173.1319	14
174.1038	14
178.0758	143
179.0855	140
180.0926	20
181.0652	32
181.1003	38
182.0709	11
182.1073	14
183.0872	23
183.1163	26
189.0672	29
190.0757	23
191.0843	71
192.0937	47
193.1015	56
195.1152	11
197.0961	17
202.0808	26
203.0856	44
205.1036	26
207.1156	11
209.1282	11
217.0985	14
