Mass spectrum: Methylecgonidine; LC-ESI-QTOF; MS2; 90 V
Name: Methylecgonidine
Class: Metabolite
Formula: C10H15NO2
Exact mass: 181.1103
SMILES: CN1C2CCC1C(=CC2)C(=O)OC
InChI: InChI=1S/C10H15NO2/c1-11-7-3-5-8(10(12)13-2)9(11)6-4-7/h5,7,9H,3-4,6H2,1-2H3
Instrument: TripleTOF 6600 SCIEX
Instrument type: LC-ESI-QTOF
Ms type: MS2
Ion mode: POSITIVE
Collision energy: 90
Fragmentation mode: CID
Ionization: ESI
Column name: Zorbax Eclipse Plus C18 2.1 mm x 150 mm, 3.5 um, Agilent
Retention time: 4.43 min
Precursor m/z: 182.1176
Precursor type: [M+H]+
m/z	relative intensity
37.007	204
38.0154	179
39.0231	999
41.0385	102
42.0336	76
50.015	192
51.0226	397
53.0385	89
62.015	76
63.0229	204
65.0383	243
66.0465	64
77.0379	140
80.0496	64
89.0383	192
91.0529	51
