Mass spectrum: Formononetin; LC-ESI-QTOF; MS2; 60 V
Name: Formononetin
Class: Metabolite; Metabolite; Pharmaceutical
Formula: C16H12O4
Exact mass: 268.0736
SMILES: COc1ccc(cc1)C2=COc3cc(O)ccc3C2=O
InChI: InChI=1S/C16H12O4/c1-19-12-5-2-10(3-6-12)14-9-20-15-8-11(17)4-7-13(15)16(14)18/h2-9,17H,1H3
Instrument: TripleTOF 5600 SCIEX
Instrument type: LC-ESI-QTOF
Ms type: MS2
Ion mode: POSITIVE
Collision energy: 60
Fragmentation mode: CID
Ionization: ESI
Column name: Zorbax Eclipse Plus C18 2.1 mm x 150 mm, 3.5 um, Agilent
Retention time: 10.093 min
Precursor m/z: 269.0808
Precursor type: [M+H]+
m/z	relative intensity
69.0017	33
77.0427	88
79.0575	21
80.0295	29
81.0363	54
89.0413	217
90.049	215
91.0567	22
92.0292	20
102.0489	10
103.0552	31
105.0349	17
107.0487	14
108.0223	48
115.0554	201
116.0618	12
118.0422	156
127.0548	57
128.0633	123
129.0698	51
131.0506	14
136.0188	10
137.0237	91
139.0548	29
141.0712	432
142.079	11
144.0574	34
151.0551	84
152.0631	299
153.0708	162
155.0502	52
156.0573	38
157.0641	28
165.0718	21
168.0584	88
169.0661	417
170.0736	66
171.0441	17
172.0515	10
179.0498	31
180.0575	18
181.0658	229
182.0703	10
183.0446	16
184.0525	10
195.082	10
196.0521	67
197.0611	999
198.0683	36
200.0477	47
208.0522	12
209.0612	30
211.0399	22
224.0466	14
225.0559	334
226.0634	27
237.0557	89
253.0504	162
