Mass spectrum: Metoprolol; LC-ESI-QTOF; MS2; 100 V
Name: Metoprolol
Class: Pharmaceutical
Formula: C15H25NO3
Exact mass: 267.1834
SMILES: CC(C)NCC(COC1=CC=C(C=C1)CCOC)O
InChI: InChI=1S/C15H25NO3/c1-12(2)16-10-14(17)11-19-15-6-4-13(5-7-15)8-9-18-3/h4-7,12,14,16-17H,8-11H2,1-3H3
Instrument: TripleTOF 6600 SCIEX
Instrument type: LC-ESI-QTOF
Ms type: MS2
Ion mode: POSITIVE
Collision energy: 100
Fragmentation mode: CID
Ionization: ESI
Column name: Zorbax Eclipse Plus C18 2.1 mm x 150 mm, 3.5 um, Agilent
Retention time: 6.14 min
Precursor m/z: 268.1907
Precursor type: [M+H]+
m/z	relative intensity
30.0336	104
37.0068	46
38.0024	23
38.0148	37
39.0227	255
41.0381	148
42.0337	16
43.0539	30
44.0489	16
45.0322	31
50.0144	115
51.0226	636
53.037	18
56.0483	41
58.0646	20
62.0143	20
63.0227	49
65.0378	201
66.0459	10
74.0138	23
75.0229	25
76.0301	16
77.0379	999
78.0453	29
79.055	31
89.0375	83
91.0528	266
102.0453	61
103.053	60
105.0428	19
115.0535	164
127.0515	10
128.0601	25
