Mass spectrum: Cyproconazole; LC-ESI-QTOF; MS2; 120 V
Name: Cyproconazole
Class: Fungicide
Formula: C15H18ClN3O
Exact mass: 291.1138
SMILES: CC(C1CC1)C(CN2C=NC=N2)(C3=CC=C(C=C3)Cl)O
InChI: InChI=1S/C15H18ClN3O/c1-11(12-2-3-12)15(20,8-19-10-17-9-18-19)13-4-6-14(16)7-5-13/h4-7,9-12,20H,2-3,8H2,1H3
Instrument: TripleTOF 6600 SCIEX
Instrument type: LC-ESI-QTOF
Ms type: MS2
Ion mode: POSITIVE
Collision energy: 120
Fragmentation mode: CID
Ionization: ESI
Column name: Zorbax Eclipse Plus C18 2.1 mm x 150 mm, 3.5 um, Agilent
Retention time: 11.30515 min
Precursor m/z: 292.1211
Precursor type: [M+H]+
m/z	relative intensity
35.9965	11
37.0038	62
38.0118	68
39.0196	227
41.035	22
42.0172	39
43.0254	669
46.964	63
48.9794	138
49.0026	17
50.0105	106
51.0182	104
59.994	14
61.0019	139
62.0094	354
63.0173	830
64.0248	74
65.0327	54
70.0335	941
72.9773	588
73.0012	12
74.0084	348
74.9935	25
75.0162	272
76.0233	15
77.0314	30
84.9759	55
89.0304	999
90.0382	130
96.9748	20
98.9901	209
102.0371	15
115.0431	33
125.0036	33
128.0511	12
