Mass spectrum: Ranitidine-N-oxide; LC-ESI-QTOF; MS2; 70 V
Name: Ranitidine-N-oxide
Class: Pharmaceutical; Transformation_product; Transformation_product-Metabolite
Formula: C13H22N4O4S
Exact mass: 330.1362
SMILES: CNC(/NCCSCc1oc(C[N+](C)(C)[O-])cc1)=C\[N+]([O-])=O
InChI: InChI=1S/C13H22N4O4S/c1-14-13(8-16(18)19)15-6-7-22-10-12-5-4-11(21-12)9-17(2,3)20/h4-5,8,14-15H,6-7,9-10H2,1-3H3/b13-8+
Instrument: TripleTOF 5600 SCIEX
Instrument type: LC-ESI-QTOF
Ms type: MS2
Ion mode: POSITIVE
Collision energy: 70
Fragmentation mode: CID
Ionization: ESI
Column name: Zorbax Eclipse Plus C18 2.1 mm x 150 mm, 3.5 um, Agilent
Retention time: 4.879 min
Precursor m/z: 331.1435
Precursor type: [M+H]+
m/z	relative intensity
42.0438	37
43.0259	15
53.0437	107
54.0364	12
55.0462	37
56.0535	120
57.0509	30
57.0602	12
59.0012	18
60.0076	21
65.042	15
66.0494	15
67.0562	12
68.0529	64
70.0685	18
71.0656	30
72.0701	12
74.0093	15
77.0406	148
78.0483	52
79.0554	80
80.0509	52
81.0357	999
81.0672	15
82.0537	30
83.0616	77
84.0706	40
85.0784	12
88.0221	30
91.0554	67
92.05	15
93.0583	40
93.0692	18
94.0417	24
94.0519	12
94.0648	95
95.0489	37
95.0699	24
96.0685	40
97.0118	61
97.0765	721
97.1012	12
98.084	74
101.0181	18
101.031	30
102.0375	999
104.0496	114
105.0558	27
106.0397	15
106.0652	74
107.0495	456
108.0462	15
108.0562	12
108.0802	27
109.0762	27
110.0595	18
115.0329	27
117.0486	55
118.0322	12
118.0652	92
119.0588	49
120.044	12
120.0676	21
120.0781	46
121.0745	135
122.0598	27
122.0816	15
123.0242	30
124.0771	15
125.0049	342
126.0136	18
129.0473	55
130.055	175
131.0734	21
132.0436	225
133.0091	15
133.0507	169
133.0755	40
134.06	43
134.0808	15
135.0247	21
135.0902	111
135.1103	15
136.0766	12
137.0063	15
137.1083	18
139.0327	24
146.0595	27
147.0907	30
148.0744	111
148.0948	12
149.0711	33
150.0358	58
151.0194	24
151.0386	18
162.0766	15
163.0856	49
165.1038	15
167.0615	27
177.1006	33
178.0311	33
192.0467	21
