Mass spectrum: 4-Nitrobenzyltriphenylphosphonium; LC-ESI-QTOF; MS2; 110 V
Name: 4-Nitrobenzyltriphenylphosphonium
Formula: [C25H21NO2P]+
Exact mass: 398.1304
SMILES: C1=CC=C(C=C1)[P+](CC2=CC=C(C=C2)[N+](=O)[O-])(C3=CC=CC=C3)C4=CC=CC=C4
InChI: InChI=1S/C25H21NO2P/c27-26(28)22-18-16-21(17-19-22)20-29(23-10-4-1-5-11-23,24-12-6-2-7-13-24)25-14-8-3-9-15-25/h1-19H,20H2/q+1
Instrument: TripleTOF 5600 SCIEX
Instrument type: LC-ESI-QTOF
Ms type: MS2
Ion mode: POSITIVE
Collision energy: 110
Fragmentation mode: CID
Ionization: ESI
Column name: Zorbax Eclipse Plus C18 2.1 mm x 150 mm, 3.5 um, Agilent
Retention time: 8.524 min
Precursor m/z: 398.1304
Precursor type: [M]+
m/z	relative intensity
89.0368	104
107.0031	488
115.0529	132
139.0536	112
151.0541	52
152.0621	631
157.0202	290
165.069	57
181.0207	64
183.036	999
