Mass spectrum: Estrone 3-methyl ether; LC-ESI-QTOF; MS2; 50 V
Name: Estrone 3-methyl ether
Class: Pharmaceutical
Formula: C19H24O2
Exact mass: 284.1776
SMILES: C[C@]12CC[C@@H]3c4ccc(cc4CC[C@H]3[C@@H]1CCC2=O)OC
InChI: InChI=1S/C19H24O2/c1-19-10-9-15-14-6-4-13(21-2)11-12(14)3-5-16(15)17(19)7-8-18(19)20/h4,6,11,15-17H,3,5,7-10H2,1-2H3/t15-,16-,17+,19+/m1/s1
Instrument: TripleTOF 5600 SCIEX
Instrument type: LC-ESI-QTOF
Ms type: MS2
Ion mode: POSITIVE
Collision energy: 50
Fragmentation mode: CID
Ionization: ESI
Column name: Zorbax Eclipse Plus C18 2.1 mm x 150 mm, 3.5 um, Agilent
Retention time: 10.549 min
Precursor m/z: 285.1849
Precursor type: [M+H]+
m/z	relative intensity
55.0585	24
65.0442	29
67.0576	58
77.0421	68
79.0564	112
81.0734	102
91.0559	760
93.0712	82
95.0857	48
103.0572	53
104.0625	34
105.07	73
107.0494	112
107.0858	34
115.0547	467
116.064	73
117.07	194
119.0849	121
121.0642	185
127.0544	73
128.0619	487
129.0689	126
130.0426	34
130.0771	92
131.049	102
132.0568	126
135.0807	77
141.0699	204
142.0774	68
143.0495	63
143.0864	43
144.0587	190
145.0648	204
146.0716	63
147.08	994
152.0608	48
153.0691	131
154.0778	63
155.0849	48
156.0562	116
157.0653	38
158.0715	711
158.1091	19
159.0799	263
161.0964	53
165.0696	238
166.0746	34
167.0862	77
168.0928	38
169.0633	63
169.1006	38
170.0732	82
171.0805	999
171.1217	19
172.0893	38
173.0956	477
178.0761	73
179.0848	170
180.0972	34
181.0614	97
181.0999	48
182.0711	58
183.0808	112
184.0888	97
185.0968	146
186.1065	43
187.1128	19
193.1022	38
194.0705	29
195.0812	102
195.1172	24
196.0879	136
197.0956	219
198.1019	48
199.1107	92
209.0932	63
210.1024	63
211.1104	141
212.1177	112
223.1129	58
225.1262	48
226.1322	29
239.1408	24
241.1589	19
