Mass spectrum: Ecgonine ethyl ester; LC-ESI-QTOF; MS2; 40 V
Name: Ecgonine ethyl ester
Formula: C11H19NO3
Exact mass: 213.1365
SMILES: CCOC(=O)C1C2CCC(N2C)CC1O
InChI: InChI=1S/C11H19NO3/c1-3-15-11(14)10-8-5-4-7(12(8)2)6-9(10)13/h7-10,13H,3-6H2,1-2H3
Instrument: TripleTOF 6600 SCIEX
Instrument type: LC-ESI-QTOF
Ms type: MS2
Ion mode: POSITIVE
Collision energy: 40
Fragmentation mode: CID
Ionization: ESI
Column name: Zorbax Eclipse Plus C18 2.1 mm x 150 mm, 3.5 um, Agilent
Retention time: 2.108 min
Precursor m/z: 214.1438
Precursor type: [M+H]+
m/z	relative intensity
39.0236	10
41.0394	18
42.035	25
44.0501	29
55.0552	18
56.0513	14
65.039	25
67.0434	29
67.0549	91
68.0504	58
69.0337	25
70.0659	14
77.0387	29
81.0707	10
82.0661	999
83.0499	36
83.0736	102
84.0815	40
91.0549	117
93.0342	10
93.0711	32
94.0657	65
96.0814	58
100.0767	62
107.0719	14
108.0804	58
111.045	36
119.0489	73
122.0958	58
124.112	29
132.0811	10
135.0682	14
140.0709	40
150.0918	32
168.1013	117
186.1132	10
196.1335	153
214.1466	18
