Mass spectrum: 3-Chloro-5-(trifluoromethyl)pyridin-2-ol; LC-ESI-QTOF; MS2; 40 V
Name: 3-Chloro-5-(trifluoromethyl)pyridin-2-ol
Class: Herbicide
Formula: C6H3ClF3NO
Exact mass: 196.9855
SMILES: C1=C(C(=O)NC=C1C(F)(F)F)Cl
InChI: InChI=1S/C6H3ClF3NO/c7-4-1-3(6(8,9)10)2-11-5(4)12/h1-2H,(H,11,12)
Instrument: TripleTOF 5600 SCIEX
Instrument type: LC-ESI-QTOF
Ms type: MS2
Ion mode: POSITIVE
Collision energy: 40
Fragmentation mode: CID
Ionization: ESI
Column name: Zorbax Eclipse Plus C18 2.1 mm x 150 mm, 3.5 um, Agilent
Retention time: 7.86 min
Precursor m/z: 197.9928
Precursor type: [M+H]+
m/z	relative intensity
57.019	17
64.0228	12
66.9788	27
68.9993	97
69.0428	12
75.0106	93
84.9682	94
90.9776	27
100.0009	51
107.0105	14
107.0215	14
108.9678	213
109.9814	245
114.015	26
115.0001	12
125.0084	14
129.9857	29
132.9664	34
134.0234	12
144.0045	24
149.9924	13
152.9714	58
159.9764	643
162.0172	17
177.9861	13
179.4255	13
179.9825	999
197.993	546
198.1864	16
