Mass spectrum: Benzyltriphenylphosphonium; LC-ESI-QTOF; MS2; 120 V
Name: Benzyltriphenylphosphonium
Formula: C25H22P
Exact mass: 353.1454
InChI: InChI=1S/C25H22P/c1-5-13-22(14-6-1)21-26(23-15-7-2-8-16-23,24-17-9-3-10-18-24)25-19-11-4-12-20-25/h1-20H,21H2/q+1
Instrument: TripleTOF 5600 SCIEX
Instrument type: LC-ESI-QTOF
Ms type: CID
Ion mode: POSITIVE
Collision energy: 120
Ionization: ESI
Column name: Zorbax Eclipse Plus C18 2.1 mm x 150 mm, 3.5 um, Agilent
Retention time: 8.706 min
Precursor m/z: 353.1454
Precursor type: [M]+
m/z	relative intensity
39.0231	114
63.0222	73
65.0381	587
80.987	88
89.0367	75
91.0522	592
107.0026	644
115.0525	302
126.045	79
133.0183	81
139.0532	256
151.0533	190
152.0611	999
157.0195	496
181.0198	202
183.036	364
