Mass spectrum: Desmethylranitidine; LC-ESI-QTOF; MS2; 80 V
Name: Desmethylranitidine
Class: Pharmaceutical; Transformation_product; Transformation_product-Metabolite
Formula: C12H20N4O3S
Exact mass: 300.1256
SMILES: CNCC1=CC=C(O1)CSCCNC(=C[N+](=O)[O-])NC
InChI: InChI=1S/C12H20N4O3S/c1-13-7-10-3-4-11(19-10)9-20-6-5-15-12(14-2)8-16(17)18/h3-4,8,13-15H,5-7,9H2,1-2H3
Instrument: TripleTOF 5600 SCIEX
Instrument type: LC-ESI-QTOF
Ms type: MS2
Ion mode: POSITIVE
Collision energy: 80
Fragmentation mode: CID
Ionization: ESI
Column name: Zorbax Eclipse Plus C18 2.1 mm x 150 mm, 3.5 um, Agilent
Retention time: 4.769 min
Precursor m/z: 301.1329
Precursor type: [M+H]+
m/z	relative intensity
42.0434	64
44.0575	25
51.0282	25
53.0464	207
54.0404	28
55.0462	53
56.057	139
57.0571	28
59.0011	39
60.0079	17
65.0431	39
66.0494	17
67.0575	35
68.0548	93
69.0483	14
70.9971	21
77.0412	383
78.0371	39
78.0494	25
79.057	107
80.0163	14
80.0516	179
81.0365	999
81.0764	17
82.0567	60
83.0618	60
85.0426	28
88.0237	39
90.0496	21
91.0555	103
92.0506	32
93.0598	89
94.0424	25
94.0666	118
95.0534	42
96.0684	85
96.085	21
97.0145	100
97.0241	28
97.0765	490
98.0834	25
101.0235	14
102.0373	751
103.0536	17
104.0504	186
105.0559	28
106.0642	50
106.0762	25
107.0483	254
109.0097	14
109.0745	21
110.0663	17
115.0335	42
116.05	21
117.0555	60
118.0655	75
119.0614	25
120.0683	21
120.083	14
121.0766	53
123.0269	35
125.0064	139
129.05	64
130.058	35
131.0606	28
132.0437	153
133.0513	100
133.0709	28
134.0598	14
135.0899	39
146.0588	21
147.0582	14
147.0722	21
148.0732	25
150.0417	17
