Mass spectrum: Pendimethalin; LC-ESI-QTOF; MS2; 90 V
Name: Pendimethalin
Class: Herbicide
Formula: C13H19N3O4
Exact mass: 281.1376
SMILES: CCC(CC)Nc1c(cc(c(c1[N+](=O)[O-])C)C)[N+](=O)[O-]
InChI: InChI=1S/C13H19N3O4/c1-5-10(6-2)14-12-11(15(17)18)7-8(3)9(4)13(12)16(19)20/h7,10,14H,5-6H2,1-4H3
Instrument: TripleTOF 6600 SCIEX
Instrument type: LC-ESI-QTOF
Ms type: MS2
Ion mode: POSITIVE
Collision energy: 90
Fragmentation mode: CID
Ionization: ESI
Column name: Zorbax Eclipse Plus C18 2.1 mm x 150 mm, 3.5 um, Agilent
Retention time: 16.198 min
Precursor m/z: 282.1448
Precursor type: [M+H]+
m/z	relative intensity
37.008	92
38.0033	49
38.0159	107
39.0235	592
40.0184	49
41.0391	463
42.0343	49
43.019	42
43.0547	214
44.0142	35
50.0158	278
51.0234	642
52.0192	214
52.0311	71
53.0147	57
53.0391	164
54.0344	85
62.0162	64
63.0231	421
64.0185	114
64.0317	114
65.0264	49
65.0391	999
66.0346	156
66.0463	128
67.0427	35
67.0547	28
74.0161	42
75.0235	156
76.0185	185
76.031	171
77.0389	635
78.0342	299
78.045	57
79.0556	35
80.0501	135
89.0387	442
90.0334	92
91.0423	49
91.0547	235
92.0374	35
92.0496	292
93.0587	71
102.0346	121
103.0271	42
103.042	78
104.0498	149
105.0458	156
106.0643	42
116.0487	42
117.0573	78
118.0531	49
118.0651	128
119.0613	164
129.046	35
130.0402	71
