Mass spectrum: Triclocarban; LC-ESI-QTOF; MS2; 140 V
Name: Triclocarban
Class: Antimicrobial; Personal_care_product
Formula: C13H9Cl3N2O
Exact mass: 313.978
SMILES: Clc1ccc(NC(=O)Nc2ccc(Cl)c(Cl)c2)cc1
InChI: InChI=1S/C13H9Cl3N2O/c14-8-1-3-9(4-2-8)17-13(19)18-10-5-6-11(15)12(16)7-10/h1-7H,(H2,17,18,19)
Instrument: TripleTOF 5600 SCIEX
Instrument type: LC-ESI-QTOF
Ms type: MS2
Ion mode: POSITIVE
Collision energy: 140
Fragmentation mode: CID
Ionization: ESI
Column name: Zorbax Eclipse Plus C18 2.1 mm x 150 mm, 3.5 um, Agilent
Retention time: 14.574 min
Precursor m/z: 314.9853
Precursor type: [M+H]+
m/z	relative intensity
51.0273	79
65.0419	999
66.0497	399
72.9865	719
73.0074	79
74.0173	859
75.0257	239
82.9454	99
91.0417	79
92.051	159
93.0579	279
99.0012	199
127.0177	119
