Mass spectrum: Diaveridine; LC-ESI-QTOF; MS2; 60 V
Name: Diaveridine
Class: Pharmaceutical
Formula: C13H16N4O2
Exact mass: 260.1273
SMILES: COC1=C(C=C(C=C1)CC2=CN=C(N=C2N)N)OC
InChI: InChI=1S/C13H16N4O2/c1-18-10-4-3-8(6-11(10)19-2)5-9-7-16-13(15)17-12(9)14/h3-4,6-7H,5H2,1-2H3,(H4,14,15,16,17)
Instrument: TripleTOF 5600 SCIEX
Instrument type: LC-ESI-QTOF
Ms type: MS2
Ion mode: POSITIVE
Collision energy: 60
Fragmentation mode: CID
Ionization: ESI
Column name: Zorbax Eclipse Plus C18 2.1 mm x 150 mm, 3.5 um, Agilent
Retention time: 4.966 min
Precursor m/z: 261.1346
Precursor type: [M+H]+
m/z	relative intensity
41.0378	11
43.0406	52
52.0281	20
54.0434	161
65.0449	12
68.0423	91
69.052	11
77.043	141
79.0335	50
79.0584	65
81.05	999
82.0577	14
83.0527	62
89.0432	28
90.0498	14
91.0588	31
94.043	11
95.0528	25
96.0586	25
101.0424	17
102.0506	20
103.0571	135
104.0545	18
105.036	27
106.0435	158
106.0677	17
107.052	367
108.0591	22
109.0535	61
110.0614	232
111.0693	54
115.0553	22
116.0523	65
117.0601	18
118.0657	60
119.0583	12
123.0686	980
124.0762	57
128.0514	160
129.0515	20
130.0663	164
131.0517	261
132.0467	27
132.0609	18
133.03	41
133.0541	10
133.0688	17
133.0809	17
134.0617	21
135.0446	117
135.0684	12
140.0514	95
141.0456	18
142.0616	21
143.0608	50
144.0476	50
145.077	144
146.0621	52
146.0811	12
147.0686	25
148.0397	24
148.0748	51
150.0572	12
151.0752	38
153.0427	27
155.0617	91
156.0456	145
156.0692	11
157.0289	11
157.0552	11
157.0682	12
157.0832	11
158.0612	178
159.0488	38
159.0664	24
160.0739	31
161.0838	61
168.0562	24
170.072	137
171.0652	84
172.0802	138
173.0751	135
174.0583	15
174.0858	24
175.0982	57
176.0722	28
181.0595	14
182.072	65
183.0558	64
184.0403	24
184.0727	15
185.0808	74
186.061	32
186.0884	34
187.0979	325
197.0784	20
198.0678	81
199.0697	28
199.0926	42
200.078	92
201.0698	28
201.1102	11
203.093	71
213.0739	21
214.0877	34
215.092	142
217.1077	51
226.0593	15
229.1087	11
243.0863	162
245.1046	381
