Mass spectrum: Carebastine; LC-ESI-QTOF; MS2; 140 V
Name: Carebastine
Class: Pharmaceutical
Formula: C32H37NO4
Exact mass: 499.2723
SMILES: CC(C)(C1=CC=C(C=C1)C(=O)CCCN2CCC(CC2)OC(C3=CC=CC=C3)C4=CC=CC=C4)C(=O)O
InChI: InChI=1S/C32H37NO4/c1-32(2,31(35)36)27-17-15-24(16-18-27)29(34)14-9-21-33-22-19-28(20-23-33)37-30(25-10-5-3-6-11-25)26-12-7-4-8-13-26/h3-8,10-13,15-18,28,30H,9,14,19-23H2,1-2H3,(H,35,36)
Instrument: TripleTOF 6600 SCIEX
Instrument type: LC-ESI-QTOF
Ms type: MS2
Ion mode: POSITIVE
Collision energy: 140
Fragmentation mode: CID
Ionization: ESI
Column name: Zorbax Eclipse Plus C18 2.1 mm x 150 mm, 3.5 um, Agilent
Retention time: 10.045 min
Precursor m/z: 500.2796
Precursor type: [M+H]+
m/z	relative intensity
39.0228	16
51.0226	10
63.0226	17
65.0382	76
77.0382	132
78.0457	31
79.0537	15
89.0379	60
90.0458	64
91.054	392
102.0458	55
103.0538	141
115.0541	554
116.0616	24
117.0696	247
118.0773	130
126.0459	43
127.053	19
128.0615	106
131.0484	38
139.0539	65
141.0696	39
150.046	43
151.0538	154
152.062	553
163.0538	74
164.0619	154
165.0701	999
166.0778	20
