Mass spectrum: (1,2-Diphenylpropyl)-trimethyl-ammonium; LC-ESI-QTOF; MS2; 100 V
Name: (1,2-Diphenylpropyl)-trimethyl-ammonium
Formula: [C18H24N]+
Exact mass: 254.1903
SMILES: CC(c1ccccc1)C(c2ccccc2)[N+](C)(C)C
InChI: InChI=1S/C18H24N/c1-15(16-11-7-5-8-12-16)18(19(2,3)4)17-13-9-6-10-14-17/h5-15,18H,1-4H3/q+1
Instrument: TripleTOF 5600 SCIEX
Instrument type: LC-ESI-QTOF
Ms type: MS2
Ion mode: POSITIVE
Collision energy: 100
Fragmentation mode: CID
Ionization: ESI
Column name: Zorbax Eclipse Plus C18 2.1 mm x 150 mm, 3.5 um, Agilent
Retention time: 7.228 min
Precursor m/z: 254.1903
Precursor type: [M]+
m/z	relative intensity
51.0272	64
65.0421	985
77.0403	67
89.0382	226
91.0543	999
115.0529	563
151.0535	74
152.0612	77
165.0688	50
176.0619	77
178.0769	57
