Mass spectrum: Proquinazid; LC-ESI-QTOF; MS2; 130 V
Name: Proquinazid
Class: Fungicide
Formula: C14H17IN2O2
Exact mass: 372.0335
SMILES: CCCN1C(=O)C2=C(C=CC(=C2)I)N=C1OCCC
InChI: InChI=1S/C14H17IN2O2/c1-3-7-17-13(18)11-9-10(15)5-6-12(11)16-14(17)19-8-4-2/h5-6,9H,3-4,7-8H2,1-2H3
Instrument: TripleTOF 6600 SCIEX
Instrument type: LC-ESI-QTOF
Ms type: MS2
Ion mode: POSITIVE
Collision energy: 130
Fragmentation mode: CID
Ionization: ESI
Column name: Zorbax Eclipse Plus C18 2.1 mm x 150 mm, 3.5 um, Agilent
Retention time: 17.121 min
Precursor m/z: 373.0408
Precursor type: [M+H]+
m/z	relative intensity
36.0035	10
37.0111	44
38.019	73
39.0268	69
41.0422	34
50.0193	10
52.0217	23
60.0028	88
61.0108	393
62.0189	999
63.0153	62
63.0245	138
64.0234	16
64.0339	45
65.0292	44
66.0138	46
74.019	12
75.0136	32
76.0212	10
86.0063	12
87.0133	47
88.0215	325
89.0293	322
90.0366	25
91.0448	26
92.0286	35
116.0391	34
117.0238	97
140.9205	43
145.017	13
164.9205	76
188.919	21
215.9296	140
