Mass spectrum: Sulfamethazine; LC-ESI-QTOF; MS2; 80 V
Name: Sulfamethazine
Class: Antimicrobial; Pharmaceutical
Formula: C12H14N4O2S
Exact mass: 278.0837
SMILES: CC1=CC(=NC(=N1)NS(=O)(=O)C2=CC=C(C=C2)N)C
InChI: InChI=1S/C12H14N4O2S/c1-8-7-9(2)15-12(14-8)16-19(17,18)11-5-3-10(13)4-6-11/h3-7H,13H2,1-2H3,(H,14,15,16)
Instrument: TripleTOF 5600 SCIEX
Instrument type: LC-ESI-QTOF
Ms type: MS2
Ion mode: POSITIVE
Collision energy: 80
Fragmentation mode: CID
Ionization: ESI
Column name: Zorbax Eclipse Plus C18 2.1 mm x 150 mm, 3.5 um, Agilent
Retention time: 6.115 min
Precursor m/z: 279.091
Precursor type: [M+H]+
m/z	relative intensity
42.0468	29
54.0416	14
65.0469	999
66.0421	161
67.0371	288
68.0576	33
77.0466	14
78.041	29
80.0559	658
82.071	88
83.0659	16
92.0547	362
93.0617	55
95.0645	163
96.0725	55
105.0478	16
107.0648	207
108.0481	292
124.0901	198
154.0683	12
197.0898	11
