Mass spectrum: Ketoconazole; LC-ESI-QTOF; MS2; 80 V
Name: Ketoconazole
Class: Fungicide; Pharmaceutical
Formula: C26H28Cl2N4O4
Exact mass: 530.1488
SMILES: CC(=O)N1CCN(CC1)C2=CC=C(C=C2)OCC3COC(O3)(CN4C=CN=C4)C5=C(C=C(C=C5)Cl)Cl
InChI: InChI=1S/C26H28Cl2N4O4/c1-19(33)31-10-12-32(13-11-31)21-3-5-22(6-4-21)34-15-23-16-35-26(36-23,17-30-9-8-29-18-30)24-7-2-20(27)14-25(24)28/h2-9,14,18,23H,10-13,15-17H2,1H3
Instrument: TripleTOF 5600 SCIEX
Instrument type: LC-ESI-QTOF
Ms type: MS2
Ion mode: POSITIVE
Collision energy: 80
Fragmentation mode: CID
Ionization: ESI
Column name: Zorbax Eclipse Plus C18 2.1 mm x 150 mm, 3.5 um, Agilent
Retention time: 7.94 min
Precursor m/z: 531.156
Precursor type: [M+H]+
m/z	relative intensity
43.0288	15
54.0431	35
55.0518	15
56.0589	31
68.0434	25
69.052	76
70.0707	127
71.0668	60
77.0439	47
79.0599	51
80.0549	15
81.0494	989
82.057	999
83.0646	31
86.0649	57
91.0588	44
93.0366	38
94.0458	19
95.0634	22
103.0565	51
105.0714	44
106.0668	38
107.051	118
108.0426	22
109.041	35
111.0045	12
112.0775	322
115.0569	70
116.0621	12
117.0585	57
117.0704	44
118.066	92
119.0729	25
119.0861	15
120.0457	462
120.0825	108
121.0406	15
121.0561	22
121.0772	19
122.0617	284
123.0005	92
125.017	41
127.0512	296
128.0631	35
129.0717	57
130.0663	146
131.048	63
131.0712	63
132.059	44
132.0808	63
133.0528	28
134.0599	284
135.0682	169
136.0138	35
136.0767	242
137.0136	22
139.0322	15
143.0735	41
144.0823	105
144.9599	41
145.0889	38
145.9695	22
146.0593	98
146.0962	178
147.069	31
148.076	312
149.0146	95
150.0232	153
151.0314	22
154.0682	19
156.08	51
157.0633	19
157.0928	15
157.9698	223
158.0623	12
158.0956	57
158.9761	647
159.0695	57
160.076	67
161.0781	15
162.0901	38
163.0294	47
163.083	28
167.0264	41
167.0814	261
169.9683	465
170.0647	15
170.9784	60
172.0763	54
172.1082	15
172.9557	389
173.0821	12
174.0925	242
174.9665	15
174.9763	19
176.0974	35
177.0816	22
177.103	175
178.0855	15
179.0288	15
184.9926	86
185.9635	328
186.973	54
189.1329	19
190.0822	19
192.1013	67
200.1019	12
202.9618	19
203.0357	143
204.0201	12
204.0497	15
205.0308	51
212.0012	19
217.1278	15
219.1114	22
220.1307	15
233.0391	25
236.9924	15
239.0101	41
239.0257	15
243.9985	22
247.0631	35
249.0052	19
252.9923	54
253.0132	12
254.002	12
255.0084	296
267.0078	248
281.0215	57
311.0326	28
378.0722	57
