Mass spectrum: Sunitinib; LC-ESI-QTOF; MS2; 110 V
Name: Sunitinib
Class: Pharmaceutical
Formula: C22H27FN4O2
Exact mass: 398.2118
SMILES: CCN(CC)CCNC(=O)C1=C(NC(=C1C)C=C2C3=C(C=CC(=C3)F)NC2=O)C
InChI: InChI=1S/C22H27FN4O2/c1-5-27(6-2)10-9-24-22(29)20-13(3)19(25-14(20)4)12-17-16-11-15(23)7-8-18(16)26-21(17)28/h7-8,11-12,25H,5-6,9-10H2,1-4H3,(H,24,29)(H,26,28)
Instrument: TripleTOF 5600 SCIEX
Instrument type: LC-ESI-QTOF
Ms type: MS2
Ion mode: POSITIVE
Collision energy: 110
Fragmentation mode: CID
Ionization: ESI
Column name: Zorbax Eclipse Plus C18 2.1 mm x 150 mm, 3.5 um, Agilent
Retention time: 6.516 min
Precursor m/z: 399.2191
Precursor type: [M+H]+
m/z	relative intensity
51.0307	13
65.0425	55
66.0416	11
74.0171	41
75.026	142
77.0426	36
78.0378	15
80.052	26
81.0172	13
83.0333	30
89.0416	41
90.0479	13
91.0558	17
92.0495	19
94.0704	15
95.0314	114
96.0396	13
98.0156	41
99.0243	125
100.0183	34
100.1132	13
101.0391	64
102.0342	15
102.0465	11
104.0508	34
106.0669	11
107.029	154
108.0384	53
109.0451	61
114.0335	15
115.0549	22
116.0491	19
117.0599	32
118.0652	9
119.0295	55
119.0614	11
120.0361	45
121.0433	17
122.0176	13
122.0402	80
123.0226	51
124.0179	89
125.0387	89
126.0343	169
127.0549	22
128.0495	30
129.0431	15
131.0285	41
132.0372	38
132.0728	11
133.0448	379
134.0405	137
135.0478	110
136.0587	13
137.0368	19
138.046	95
139.0543	110
140.0498	80
140.072	9
143.0292	17
144.0296	120
145.0455	95
146.0406	371
146.0759	11
147.0233	11
147.0466	74
148.0561	160
149.0392	137
150.0401	139
151.0304	47
151.0536	118
151.082	11
152.0609	104
153.0561	22
153.0716	17
154.0401	55
154.065	15
155.033	13
156.0362	26
157.0452	579
158.0419	444
159.0474	19
159.0613	70
160.0557	45
161.0492	11
161.07	11
162.0344	17
162.0458	41
162.0797	11
163.0547	244
164.0496	226
165.0614	131
166.0651	51
167.0302	45
167.0757	13
168.0376	162
169.0449	369
170.0526	356
171.038	419
172.0312	26
172.0555	142
173.04	80
174.036	62
175.0458	62
176.0503	87
177.0568	64
178.0654	49
179.0375	20
179.0723	24
180.0357	15
180.0815	32
181.0453	295
182.0527	383
182.0947	11
183.0611	488
183.1027	15
184.056	873
184.1064	11
185.0638	999
186.0704	97
187.0674	26
188.0502	95
189.057	118
190.0659	198
191.0639	91
192.0374	47
192.0699	51
193.0452	118
193.0728	11
194.0451	106
195.0488	402
196.0568	173
196.074	22
197.058	163
198.0717	226
199.0438	59
199.0781	43
200.0485	104
200.0809	28
201.0544	38
202.0582	13
203.0599	15
204.0561	11
205.0773	53
206.0401	15
206.0846	15
207.0491	53
208.0564	789
208.0976	15
209.0643	913
209.1073	15
210.0621	358
211.0684	310
212.0492	17
212.0736	34
212.0872	20
213.0576	20
213.0786	15
215.0602	24
216.0697	24
217.0731	17
218.0474	9
218.0842	30
219.0485	175
220.0553	62
221.0544	93
222.0626	47
223.0669	87
224.076	114
225.0832	81
226.0654	13
226.0945	9
233.0697	11
234.0619	64
235.0674	129
236.0748	114
237.0839	135
238.0772	70
239.0621	81
249.0761	11
252.07	15
253.0793	30
