Mass spectrum: Caffeine; LC-ESI-QTOF; MS2; 40 V
Name: Caffeine
Class: Food_additive; Natural_product; Personal_care_product
Formula: C8H10N4O2
Exact mass: 194.0804
SMILES: Cn1cnc2N(C)C(=O)N(C)C(=O)c12
InChI: InChI=1S/C8H10N4O2/c1-10-4-9-6-5(10)7(13)12(3)8(14)11(6)2/h4H,1-3H3
Instrument: TripleTOF 5600 SCIEX
Instrument type: LC-ESI-QTOF
Ms type: MS2
Ion mode: POSITIVE
Collision energy: 40
Fragmentation mode: CID
Ionization: ESI
Column name: Zorbax Eclipse Plus C18 2.1 mm x 150 mm, 3.5 um, Agilent
Retention time: 5.509 min
Precursor m/z: 195.0877
Precursor type: [M+H]+
m/z	relative intensity
42.0444	246
53.018	14
54.0288	14
54.0389	16
56.0574	47
68.0414	28
69.049	98
81.0478	47
82.0548	25
83.0628	249
97.0406	22
108.057	44
109.0405	98
110.0718	465
111.0583	39
123.043	381
135.0649	25
136.0712	11
138.0663	999
180.0679	14
195.0886	404
