Mass spectrum: Metconazole; LC-ESI-QTOF; MS2; 140 V
Name: Metconazole
Class: Fungicide
Formula: C17H22ClN3O
Exact mass: 319.1451
SMILES: CC1(CCC(C1(CN2C=NC=N2)O)CC3=CC=C(C=C3)Cl)C
InChI: InChI=1S/C17H22ClN3O/c1-16(2)8-7-14(9-13-3-5-15(18)6-4-13)17(16,22)10-21-12-19-11-20-21/h3-6,11-12,14,22H,7-10H2,1-2H3
Instrument: TripleTOF 6600 SCIEX
Instrument type: LC-ESI-QTOF
Ms type: MS2
Ion mode: POSITIVE
Collision energy: 140
Fragmentation mode: CID
Ionization: ESI
Column name: Zorbax Eclipse Plus C18 2.1 mm x 150 mm, 3.5 um, Agilent
Retention time: 13.024 min
Precursor m/z: 320.1524
Precursor type: [M+H]+
m/z	relative intensity
35.9997	10
37.0072	44
38.0147	40
39.0231	146
41.0388	16
42.0212	86
43.0293	985
46.9678	36
48.9839	74
49.0072	16
50.0149	70
51.0227	87
59.9992	14
61.0071	105
62.015	274
63.0229	584
64.0305	43
65.0385	47
70.0399	999
72.9838	343
74.015	49
74.9987	16
75.0224	47
77.0381	51
78.0456	13
87.0224	10
89.0384	499
90.0457	51
91.0557	12
96.9838	10
98.9986	98
102.0457	26
115.0534	126
125.0145	13
126.0464	13
127.0536	22
128.0615	25
