Mass spectrum: Daidzein; LC-ESI-QTOF; MS2; 100 V
Name: Daidzein
Class: Pharmaceutical; Natural_product
Formula: C15H10O4
Exact mass: 254.0579
SMILES: Oc1ccc(cc1)C2=COc3cc(O)ccc3C2=O
InChI: InChI=1S/C15H10O4/c16-10-3-1-9(2-4-10)13-8-19-14-7-11(17)5-6-12(14)15(13)18/h1-8,16-17H
Instrument: TripleTOF 5600 SCIEX
Instrument type: LC-ESI-QTOF
Ms type: MS2
Ion mode: POSITIVE
Collision energy: 100
Fragmentation mode: CID
Ionization: ESI
Column name: Zorbax Eclipse Plus C18 2.1 mm x 150 mm, 3.5 um, Agilent
Retention time: 7.744 min
Precursor m/z: 255.0652
Precursor type: [M+H]+
m/z	relative intensity
35.9991	37
37.0074	101
38.0154	82
39.023	581
41.0389	44
49.0072	31
50.0155	101
51.0229	347
52.031	50
53.0019	25
53.0378	107
61.0073	56
62.0153	170
63.0231	354
64.0323	31
65.0389	999
68.9978	177
73.0077	31
74.0151	202
75.0228	278
76.0307	101
77.0387	689
78.0471	158
81.034	120
87.0236	50
88.0321	31
89.0389	290
91.054	164
98.0144	31
99.0228	37
101.0382	50
102.0475	208
105.0328	44
110.0172	25
113.0386	31
115.0547	455
125.0388	56
126.0467	309
127.0545	139
128.0623	113
139.0542	139
141.0698	50
150.0457	233
151.0544	328
152.0613	531
163.0526	56
168.0572	31
