Mass spectrum: 2,4,6-Triiodophenol; LC-ESI-QTOF; MS2; 10 V
Name: 2,4,6-Triiodophenol
Class: Pharmaceutical; Transformation_product
Formula: C6H3I3O
Exact mass: 471.7318
SMILES: Oc1c(I)cc(I)cc1I
InChI: InChI=1S/C6H3I3O/c7-3-1-4(8)6(10)5(9)2-3/h1-2,10H
Instrument: TripleTOF 5600 SCIEX
Instrument type: LC-ESI-QTOF
Ms type: MS2
Ion mode: NEGATIVE
Collision energy: 10
Fragmentation mode: CID
Ionization: ESI
Column name: Zorbax Eclipse Plus C18 2.1 mm x 150 mm, 3.5 um, Agilent
Retention time: 14.599 min
Precursor m/z: 470.7245
Precursor type: [M-H]-
m/z	relative intensity
470.7272	999
