Mass spectrum: N,N`-diphenyl-p-phenylenediamine; LC-ESI-QTOF; MS2; 40 V
Name: N,N`-diphenyl-p-phenylenediamine
Class: Industrial_process
Formula: C18H16N2
Exact mass: 260.1313
SMILES: N(c1ccccc1)c2ccc(Nc3ccccc3)cc2
InChI: InChI=1S/C18H16N2/c1-3-7-15(8-4-1)19-17-11-13-18(14-12-17)20-16-9-5-2-6-10-16/h1-14,19-20H
Instrument: TripleTOF 5600 SCIEX
Instrument type: LC-ESI-QTOF
Ms type: MS2
Ion mode: POSITIVE
Collision energy: 40
Fragmentation mode: CID
Ionization: ESI
Column name: Zorbax Eclipse Plus C18 2.1 mm x 150 mm, 3.5 um, Agilent
Retention time: 14.544 min
Precursor m/z: 261.1386
Precursor type: [M+H]+
m/z	relative intensity
80.0509	10
107.0608	59
118.0525	12
129.0689	13
130.0685	10
156.08	18
157.0854	17
166.0649	24
167.072	47
168.0784	85
169.0872	79
182.0808	21
183.0917	243
184.0988	999
260.1252	15
261.1333	142
