Mass spectrum: Triisopropanolamine; LC-ESI-QTOF; MS2; 70 V
Name: Triisopropanolamine
Formula: C9H21NO3
Exact mass: 191.1521
SMILES: CC(CN(CC(C)O)CC(C)O)O
InChI: InChI=1S/C9H21NO3/c1-7(11)4-10(5-8(2)12)6-9(3)13/h7-9,11-13H,4-6H2,1-3H3
Instrument: TripleTOF 6600 SCIEX
Instrument type: LC-ESI-QTOF
Ms type: MS2
Ion mode: POSITIVE
Collision energy: 70
Fragmentation mode: CID
Ionization: ESI
Column name: Zorbax Eclipse Plus C18 2.1 mm x 150 mm, 3.5 um, Agilent
Retention time: 2.182 min
Precursor m/z: 192.1594
Precursor type: [M+H]+
m/z	relative intensity
31.0184	276
35.9996	12
37.0078	127
38.0033	14
38.0158	107
39.0236	999
41.0394	630
42.034	234
43.0186	161
43.0421	39
43.0542	37
53.0381	12
54.0342	57
56.0498	29
58.0653	17
59.0493	42
67.0401	9
68.0493	122
70.0652	37
77.0372	17
79.0537	9
80.0492	34
82.065	29
