Mass spectrum: 5-Chlorobenzotriazole; LC-ESI-QTOF; MS2; 130 V
Name: 5-Chlorobenzotriazole
Class: Industrial_process
Formula: C6H4ClN3
Exact mass: 153.0094
SMILES: Clc1ccc2n[nH]nc2c1
InChI: InChI=1S/C6H4ClN3/c7-4-1-2-5-6(3-4)9-10-8-5/h1-3H,(H,8,9,10)
Instrument: TripleTOF 5600 SCIEX
Instrument type: LC-ESI-QTOF
Ms type: MS2
Ion mode: POSITIVE
Collision energy: 130
Fragmentation mode: CID
Ionization: ESI
Column name: Zorbax Eclipse Plus C18 2.1 mm x 150 mm, 3.5 um, Agilent
Retention time: 7.635 min
Precursor m/z: 154.0167
Precursor type: [M+H]+
m/z	relative intensity
51.0171	198
52.0246	314
60.005	999
61.9827	26
71.9779	29
72.9863	78
73.0091	67
74.0167	78
75.0131	186
