Mass spectrum: Dacarbazine; LC-ESI-QTOF; MS2; 70 V
Name: Dacarbazine
Class: Pharmaceutical
Formula: C6H10N6O
Exact mass: 182.0916
SMILES: CN(C)NN=C1C(=NC=N1)C(=O)N
InChI: InChI=1S/C6H10N6O/c1-12(2)11-10-6-4(5(7)13)8-3-9-6/h3,11H,1-2H3,(H2,7,13)
Instrument: TripleTOF 5600 SCIEX
Instrument type: LC-ESI-QTOF
Ms type: MS2
Ion mode: POSITIVE
Collision energy: 70
Fragmentation mode: CID
Ionization: ESI
Column name: Zorbax Eclipse Plus C18 2.1 mm x 150 mm, 3.5 um, Agilent
Retention time: 4.473 min
Precursor m/z: 183.0989
Precursor type: [M+H]+
m/z	relative intensity
38.0134	116
53.0191	514
53.0412	48
55.0341	67
65.0179	999
65.0458	77
67.0086	290
67.0205	58
67.0319	203
68.0193	145
68.0399	184
68.0535	38
79.0312	77
80.0385	48
95.0302	58
