Mass spectrum: Benzophenone-2; LC-ESI-QTOF; MS2; 20 V
Name: Benzophenone-2
Class: Personal_care_product
Formula: C13H10O5
Exact mass: 246.0528
SMILES: Oc1ccc(c(O)c1)C(=O)c2ccc(O)cc2O
InChI: InChI=1S/C13H10O5/c14-7-1-3-9(11(16)5-7)13(18)10-4-2-8(15)6-12(10)17/h1-6,14-17H
Instrument: TripleTOF 5600 SCIEX
Instrument type: LC-ESI-QTOF
Ms type: MS2
Ion mode: NEGATIVE
Collision energy: 20
Fragmentation mode: CID
Ionization: ESI
Column name: Zorbax Eclipse Plus C18 2.1 mm x 150 mm, 3.5 um, Agilent
Retention time: 8.373 min
Precursor m/z: 245.0455
Precursor type: [M-H]-
m/z	relative intensity
109.0276	401
135.0063	824
136.01	51
245.043	999
246.0471	104
