Mass spectrum: Ifosfamide; LC-ESI-QTOF; MS2; 50 V
Name: Ifosfamide
Class: Pharmaceutical
Formula: C7H15Cl2N2O2P
Exact mass: 260.0248
SMILES: ClCCN[P]1(=O)OCCCN1CCCl
InChI: InChI=1S/C7H15Cl2N2O2P/c8-2-4-10-14(12)11(6-3-9)5-1-7-13-14/h1-7H2,(H,10,12)
Instrument: TripleTOF 5600 SCIEX
Instrument type: LC-ESI-QTOF
Ms type: MS2
Ion mode: POSITIVE
Collision energy: 50
Fragmentation mode: CID
Ionization: ESI
Column name: Zorbax Eclipse Plus C18 2.1 mm x 150 mm, 3.5 um, Agilent
Retention time: 7.429 min
Precursor m/z: 261.0321
Precursor type: [M+H]+
m/z	relative intensity
44.0594	13
56.0551	193
63.0045	974
63.0422	13
63.9975	16
78.0133	232
78.0388	24
79.9912	24
82.0671	19
87.9958	11
92.0274	999
97.9563	11
98.9394	38
106.0057	33
108.9599	11
115.9688	19
118.0044	52
118.041	19
120.0574	55
123.9715	30
125.9493	110
127.9652	30
128.024	16
128.0336	11
141.9824	13
153.981	243
