Mass spectrum: Prochloraz; LC-ESI-QTOF; MS2; 30 V
Name: Prochloraz
Class: Fungicide
Formula: C15H16Cl3N3O2
Exact mass: 375.0308
SMILES: CCCN(CCOc1c(cc(cc1Cl)Cl)Cl)C(=O)n2ccnc2
InChI: InChI=1S/C15H16Cl3N3O2/c1-2-4-20(15(22)21-5-3-19-10-21)6-7-23-14-12(17)8-11(16)9-13(14)18/h3,5,8-10H,2,4,6-7H2,1H3
Instrument: TripleTOF 6600 SCIEX
Instrument type: LC-ESI-QTOF
Ms type: MS2
Ion mode: POSITIVE
Collision energy: 30
Fragmentation mode: CID
Ionization: ESI
Column name: Zorbax Eclipse Plus C18 2.1 mm x 150 mm, 3.5 um, Agilent
Retention time: 11.258 min
Precursor m/z: 376.0381
Precursor type: [M+H]+
m/z	relative intensity
41.0385	33
42.0339	21
43.0543	104
56.0493	40
57.0575	12
70.0288	712
70.0533	63
70.0647	130
85.0882	261
98.0604	14
106.0408	15
113.0831	19
166.0049	20
167.0132	17
173.9867	29
174.9705	59
194.9163	104
194.9514	12
196.9309	16
201.9811	151
208.0517	15
209.0593	38
222.947	198
237.9583	85
244.0281	173
245.0354	68
265.9528	459
280.0053	184
308.0003	999
