Mass spectrum: Loratadine; LC-ESI-QTOF; MS2; 60 V
Name: Loratadine
Class: Pharmaceutical
Formula: C22H23ClN2O2
Exact mass: 382.1448
SMILES: CCOC(=O)N1CCC(=C2C3=C(CCC4=C2N=CC=C4)C=C(C=C3)Cl)CC1
InChI: InChI=1S/C22H23ClN2O2/c1-2-27-22(26)25-12-9-15(10-13-25)20-19-8-7-18(23)14-17(19)6-5-16-4-3-11-24-21(16)20/h3-4,7-8,11,14H,2,5-6,9-10,12-13H2,1H3
Instrument: TripleTOF 6600 SCIEX
Instrument type: LC-ESI-QTOF
Ms type: MS2
Ion mode: POSITIVE
Collision energy: 60
Fragmentation mode: CID
Ionization: ESI
Column name: Zorbax Eclipse Plus C18 2.1 mm x 150 mm, 3.5 um, Agilent
Retention time: 9.41 min
Precursor m/z: 383.1521
Precursor type: [M+H]+
m/z	relative intensity
82.0647	21
192.079	13
193.0889	39
204.0799	12
214.0416	159
216.0801	34
217.0879	58
218.0959	59
219.1029	17
226.0401	24
228.0569	77
228.0797	20
229.0644	31
229.088	25
230.096	109
231.1039	245
232.1112	116
233.1186	17
238.0412	24
241.0884	11
242.0956	48
243.1038	308
244.1115	254
245.1192	199
246.1275	117
247.1345	20
251.0487	84
252.0567	414
253.0652	128
254.0724	18
256.1111	63
257.1197	39
258.1274	672
259.1353	325
264.057	56
265.0652	69
266.0728	999
267.0806	620
277.0644	46
278.0726	192
279.0809	248
280.0885	579
281.0964	126
282.1039	74
283.0619	10
292.0883	106
294.1043	54
337.1086	11
