Mass spectrum: 17alpha-Hydroxyprogesterone; LC-ESI-QTOF; MS2; 40 V
Name: 17alpha-Hydroxyprogesterone
Class: Pharmaceutical
Formula: C21H30O3
Exact mass: 330.2195
SMILES: CC(=O)[C@@]1(O)CC[C@H]2[C@@H]3CCC4=CC(=O)CC[C@]4(C)[C@H]3CC[C@]12C
InChI: InChI=1S/C21H30O3/c1-13(22)21(24)11-8-18-16-5-4-14-12-15(23)6-9-19(14,2)17(16)7-10-20(18,21)3/h12,16-18,24H,4-11H2,1-3H3/t16-,17+,18+,19+,20+,21+/m1/s1
Instrument: TripleTOF 5600 SCIEX
Instrument type: LC-ESI-QTOF
Ms type: MS2
Ion mode: POSITIVE
Collision energy: 40
Fragmentation mode: CID
Ionization: ESI
Column name: Zorbax Eclipse Plus C18 2.1 mm x 150 mm, 3.5 um, Agilent
Retention time: 11.808 min
Precursor m/z: 331.2268
Precursor type: [M+H]+
m/z	relative intensity
43.0256	44
43.0375	15
67.0576	33
69.0728	23
77.0408	35
79.0572	128
81.0726	112
83.0516	52
91.0558	62
93.0715	61
95.087	59
97.0666	991
105.0697	88
107.0496	10
107.0855	53
109.0659	999
111.0804	15
117.069	28
119.0849	79
121.0646	33
121.1019	36
123.0805	164
128.0619	12
129.0695	29
131.085	57
133.1008	62
135.0809	19
135.1171	15
137.0955	37
141.072	13
142.0771	16
143.0856	49
145.101	114
147.0817	22
147.1159	65
149.096	29
149.1316	11
155.0853	26
156.0927	14
157.1012	65
159.1164	81
161.0959	20
161.1325	29
163.1122	87
169.1011	42
171.1166	68
173.0966	10
173.1322	57
175.1119	19
175.1473	46
177.1277	47
181.1014	14
183.1174	41
185.1326	39
187.1124	14
187.1482	36
189.1278	30
195.1165	15
197.1329	49
199.1486	53
201.1276	14
201.1638	10
203.1439	19
205.1597	28
209.1303	19
211.1482	44
213.164	38
215.1447	19
217.1609	23
223.1478	12
225.1654	19
227.1793	12
229.1596	19
231.1758	14
235.1509	13
237.1645	37
239.1414	14
241.1608	15
243.1743	11
251.1797	16
252.1878	15
253.196	112
255.174	43
259.1702	14
267.2103	11
269.1911	25
270.1978	20
271.2059	114
277.1951	28
285.2209	10
289.2182	17
295.2072	103
313.2186	164
331.2298	300
