Mass spectrum: N-desmethylterbinafine; LC-ESI-QTOF; MS2; 140 V
Name: N-desmethylterbinafine
Class: Pharmaceutical; Metabolite
Formula: C20H23N
Exact mass: 277.183
SMILES: CC(C)(C)C#C/C=C/CNCc1cccc2ccccc12
InChI: InChI=1S/C20H23N/c1-20(2,3)14-7-4-8-15-21-16-18-12-9-11-17-10-5-6-13-19(17)18/h4-6,8-13,21H,15-16H2,1-3H3/b8-4+
Instrument: TripleTOF 5600 SCIEX
Instrument type: LC-ESI-QTOF
Ms type: MS2
Ion mode: POSITIVE
Collision energy: 140
Fragmentation mode: CID
Ionization: ESI
Column name: Zorbax Eclipse Plus C18 2.1 mm x 150 mm, 3.5 um, Agilent
Retention time: 9.089 min
Precursor m/z: 278.1903
Precursor type: [M+H]+
m/z	relative intensity
52.0356	12
60.0032	21
65.0428	685
73.0111	18
74.0182	225
75.0256	112
76.0338	87
77.0415	219
78.049	28
79.0572	25
85.0098	34
86.0163	115
87.0244	144
88.0328	43
89.0405	999
89.0807	25
91.0558	165
98.0172	40
102.0466	56
113.0384	97
114.0471	56
115.0541	901
126.0457	25
137.0392	25
138.046	21
139.0532	169
