Mass spectrum: Dichlorprop; LC-ESI-QTOF; MS2; 80 V
Name: Dichlorprop
Class: Herbicide
Formula: C9H8Cl2O3
Exact mass: 233.985
SMILES: CC(C(=O)O)OC1=C(C=C(C=C1)Cl)Cl
InChI: InChI=1S/C9H8Cl2O3/c1-5(9(12)13)14-8-3-2-6(10)4-7(8)11/h2-5H,1H3,(H,12,13)
Instrument: TripleTOF 6600 SCIEX
Instrument type: LC-ESI-QTOF
Ms type: MS2
Ion mode: NEGATIVE
Collision energy: 80
Fragmentation mode: CID
Ionization: ESI
Column name: Zorbax Eclipse Plus C18 2.1 mm x 150 mm, 3.5 um, Agilent
Retention time: 11.098 min
Precursor m/z: 232.9778
Precursor type: [M-H]-
m/z	relative intensity
34.9693	999
61.0065	158
