Mass spectrum: Ethisterone; LC-ESI-QTOF; MS2; 30 V
Name: Ethisterone
Class: Pharmaceutical; Metabolite
Formula: C21H28O2
Exact mass: 312.2089
SMILES: C[C@]12CCC(=O)C=C1CC[C@@H]3[C@@H]2CC[C@@]4(C)[C@H]3CC[C@@]4(O)C#C
InChI: InChI=1S/C21H28O2/c1-4-21(23)12-9-18-16-6-5-14-13-15(22)7-10-19(14,2)17(16)8-11-20(18,21)3/h1,13,16-18,23H,5-12H2,2-3H3/t16-,17+,18+,19+,20+,21+/m1/s1
Instrument: TripleTOF 5600 SCIEX
Instrument type: LC-ESI-QTOF
Ms type: MS2
Ion mode: POSITIVE
Collision energy: 30
Fragmentation mode: CID
Ionization: ESI
Column name: Zorbax Eclipse Plus C18 2.1 mm x 150 mm, 3.5 um, Agilent
Retention time: 11.662 min
Precursor m/z: 313.2162
Precursor type: [M+H]+
m/z	relative intensity
67.0588	12
69.0729	10
77.04	9
79.056	48
81.0716	49
83.0514	37
91.0557	29
93.0705	27
95.0864	34
97.0668	999
105.0691	39
107.0843	29
109.0657	989
117.0697	22
119.0848	60
121.064	19
121.1009	18
123.08	97
129.0694	21
131.0845	42
133.1005	41
135.0803	13
135.1161	12
143.0846	49
145.1007	75
147.1159	25
149.0955	13
155.0849	19
157.1002	61
159.1165	29
161.0952	9
161.1321	12
163.1105	12
169.1002	36
171.1165	74
173.1311	21
177.1301	16
181.1	20
183.1159	36
185.1307	56
187.1478	29
189.1284	11
193.1009	11
195.1171	16
197.1309	22
199.1473	48
207.1156	14
209.1312	18
211.1463	32
213.163	20
221.1322	19
225.1637	21
227.1469	14
227.1779	47
235.1477	22
237.1626	26
243.1731	10
245.1885	50
249.1632	16
