Mass spectrum: Ofloxacin; LC-ESI-QTOF; MS2; 50 V
Name: Ofloxacin
Class: Antimicrobial; Pharmaceutical
Formula: C18H20FN3O4
Exact mass: 361.1438
SMILES: CC1COC2=C3N1C=C(C(=O)C3=CC(=C2N4CCN(CC4)C)F)C(=O)O
InChI: InChI=1S/C18H20FN3O4/c1-10-9-26-17-14-11(16(23)12(18(24)25)8-22(10)14)7-13(19)15(17)21-5-3-20(2)4-6-21/h7-8,10H,3-6,9H2,1-2H3,(H,24,25)
Instrument: TripleTOF 5600 SCIEX
Instrument type: LC-ESI-QTOF
Ms type: MS2
Ion mode: POSITIVE
Collision energy: 50
Fragmentation mode: CID
Ionization: ESI
Column name: Zorbax Eclipse Plus C18 2.1 mm x 150 mm, 3.5 um, Agilent
Retention time: 5.185 min
Precursor m/z: 362.1511
Precursor type: [M+H]+
m/z	relative intensity
58.0735	31
70.0709	49
72.0853	60
82.0686	15
122.0397	30
130.0279	9
142.0621	11
146.0632	11
148.0534	11
150.0345	58
151.0436	12
157.0418	11
158.023	25
160.0493	27
163.0366	14
164.0425	12
165.0408	19
171.0552	47
174.0592	11
176.0491	14
178.0285	84
179.0379	192
180.0439	38
183.0587	11
183.0804	11
184.0736	17
185.0692	15
188.0518	44
189.0433	11
190.0528	11
191.0411	15
191.0594	19
192.0443	71
193.0399	100
194.0533	87
195.0544	28
196.0865	17
197.0957	14
199.0503	81
199.0732	30
200.0565	20
200.0722	11
201.0645	42
202.0617	34
203.0296	28
203.0594	50
204.0437	68
205.0406	257
205.0729	111
206.0472	28
207.0552	25
211.0856	15
212.0572	9
213.0623	23
216.0423	9
216.0676	15
217.0406	25
217.0758	11
218.0503	55
218.0753	14
219.0558	388
220.0638	68
221.0706	472
224.0842	25
225.0924	25
226.0601	25
226.0978	30
227.0669	39
228.0701	15
228.0871	12
230.068	22
231.017	25
231.0559	34
231.0869	27
232.0675	46
233.0715	98
234.0836	28
235.0833	14
236.0784	11
238.0982	12
239.099	12
240.077	23
240.1133	20
241.057	9
241.0944	54
243.0727	14
243.0878	12
244.0804	14
245.0321	15
245.07	76
246.0759	11
247.0628	11
247.0874	100
252.0653	11
253.1195	192
254.0869	36
255.0763	22
255.1031	34
258.0621	17
258.0972	11
259.0475	12
259.1015	14
261.1014	999
266.0958	19
267.0694	15
267.0929	12
268.0704	52
268.105	200
268.1405	63
270.1294	14
272.0387	17
272.116	12
273.0995	65
280.0695	12
281.0877	23
282.0791	22
286.0592	55
287.069	33
296.101	98
296.1354	77
300.0678	14
301.0827	278
316.1069	87
316.146	15
318.1535	33
324.1317	41
344.1375	279
