Mass spectrum: Benzoylecgonine; LC-ESI-QTOF; MS2; 40 V
Name: Benzoylecgonine
Class: Pharmaceutical; Metabolite; Transformation_product
Formula: C16H19NO4
Exact mass: 289.1314
SMILES: CN1C2CCC1[C@H]([C@H](C2)OC(=O)c3ccccc3)C(O)=O
InChI: InChI=1S/C16H19NO4/c1-17-11-7-8-12(17)14(15(18)19)13(9-11)21-16(20)10-5-3-2-4-6-10/h2-6,11-14H,7-9H2,1H3,(H,18,19)/t11?,12?,13-,14+/m0/s1
Instrument: TripleTOF 5600 SCIEX
Instrument type: LC-ESI-QTOF
Ms type: MS2
Ion mode: POSITIVE
Collision energy: 40
Fragmentation mode: CID
Ionization: ESI
Column name: Zorbax Eclipse Plus C18 2.1 mm x 150 mm, 3.5 um, Agilent
Retention time: 5.641 min
Precursor m/z: 290.1387
Precursor type: [M+H]+
m/z	relative intensity
67.0579	35
68.0529	31
70.0682	10
77.0418	304
79.0561	12
81.0718	16
82.0677	360
83.052	16
83.0747	110
84.0825	16
91.0558	211
93.0343	17
93.0706	91
94.0651	56
96.0811	44
100.0758	65
105.0345	999
107.0735	12
108.0802	55
109.0658	11
111.0462	11
117.0573	13
119.0485	224
122.0961	136
124.1109	82
132.0805	31
135.0666	37
137.0598	15
140.0698	22
150.0911	180
168.1011	947
272.1267	17
290.1361	22
