Mass spectrum: Fluquinconazole; LC-ESI-QTOF; MS2; 40 V
Name: Fluquinconazole
Class: Fungicide
Formula: C16H8Cl2FN5O
Exact mass: 375.009
InChI: InChI=1S/C16H8Cl2FN5O/c17-9-1-4-14(12(18)5-9)24-15(25)11-6-10(19)2-3-13(11)22-16(24)23-8-20-7-21-23/h1-8H
Instrument: TripleTOF 6600 SCIEX
Instrument type: LC-ESI-QTOF
Ms type: CID
Ion mode: POSITIVE
Collision energy: 40
Ionization: ESI
Column name: Zorbax Eclipse Plus C18 2.1 mm x 150 mm, 3.5 um, Agilent
Retention time: 12.549 min
Precursor m/z: 376.0163
Precursor type: [M+H]+
m/z	relative intensity
108.0238	38
123.9937	37
163.0298	92
244.0192	38
272.0155	245
278.989	66
287.0253	29
306.9847	999
313.0283	13
314.0388	22
331.9785	43
349.0063	311
