Mass spectrum: Acetylsulfamethoxazole; LC-ESI-QTOF; MS2; 40 V
Name: Acetylsulfamethoxazole
Class: Metabolite; Pharmaceutical
Formula: C12H13N3O4S
Exact mass: 295.0627
SMILES: CC1=CC(=NO1)NS(=O)(=O)C2=CC=C(C=C2)NC(=O)C
InChI: InChI=1S/C12H13N3O4S/c1-8-7-12(14-19-8)15-20(17,18)11-5-3-10(4-6-11)13-9(2)16/h3-7H,1-2H3,(H,13,16)(H,14,15)
Instrument: TripleTOF 5600 SCIEX
Instrument type: LC-ESI-QTOF
Ms type: MS2
Ion mode: POSITIVE
Collision energy: 40
Fragmentation mode: CID
Ionization: ESI
Column name: Zorbax Eclipse Plus C18 2.1 mm x 150 mm, 3.5 um, Agilent
Retention time: 7.411 min
Precursor m/z: 296.07
Precursor type: [M+H]+
m/z	relative intensity
43.0327	12
65.0459	499
77.0429	16
79.0575	14
80.0552	30
92.0525	200
93.0366	339
93.0595	163
94.0673	101
99.0577	69
106.0659	38
107.0614	50
108.0464	577
119.062	9
131.0603	22
132.0686	21
133.065	11
134.0608	999
135.0679	11
136.0766	64
140.0187	11
143.0573	12
146.0725	210
147.0787	137
148.0864	22
150.0534	25
156.0127	80
159.0564	12
160.088	300
161.0006	21
161.0704	16
162.0674	38
176.0258	51
188.082	35
190.0989	11
194.0385	35
198.0232	71
201.0665	38
