Mass spectrum: Carazolol; LC-ESI-QTOF; MS2; 20 V
Name: Carazolol
Class: Pharmaceutical
Formula: C18H22N2O2
Exact mass: 298.1681
SMILES: CC(C)NCC(O)COc1cccc2[nH]c3ccccc3c12
InChI: InChI=1S/C18H22N2O2/c1-12(2)19-10-13(21)11-22-17-9-5-8-16-18(17)14-6-3-4-7-15(14)20-16/h3-9,12-13,19-21H,10-11H2,1-2H3
Instrument: TripleTOF 5600 SCIEX
Instrument type: LC-ESI-QTOF
Ms type: MS2
Ion mode: POSITIVE
Collision energy: 20
Fragmentation mode: CID
Ionization: ESI
Column name: Zorbax Eclipse Plus C18 2.1 mm x 150 mm, 3.5 um, Agilent
Retention time: 6.882 min
Precursor m/z: 299.1754
Precursor type: [M+H]+
m/z	relative intensity
72.0835	15
74.0627	15
98.097	22
116.1079	328
184.0761	39
194.0966	14
196.0762	50
222.0925	190
257.129	22
299.1758	999
