Mass spectrum: Donepezil; LC-ESI-QTOF; MS2; 40 V
Name: Donepezil
Class: Pharmaceutical
Formula: C24H29NO3
Exact mass: 379.2147
SMILES: COc1cc2CC(CC3CCN(CC3)Cc4ccccc4)C(=O)c2cc1OC
InChI: InChI=1S/C24H29NO3/c1-27-22-14-19-13-20(24(26)21(19)15-23(22)28-2)12-17-8-10-25(11-9-17)16-18-6-4-3-5-7-18/h3-7,14-15,17,20H,8-13,16H2,1-2H3
Instrument: TripleTOF 5600 SCIEX
Instrument type: LC-ESI-QTOF
Ms type: MS2
Ion mode: POSITIVE
Collision energy: 40
Fragmentation mode: CID
Ionization: ESI
Column name: Zorbax Eclipse Plus C18 2.1 mm x 150 mm, 3.5 um, Agilent
Retention time: 7.429 min
Precursor m/z: 380.222
Precursor type: [M+H]+
m/z	relative intensity
65.0425	56
82.0666	19
91.0569	999
96.082	31
105.0699	22
120.0808	21
151.0756	111
172.1119	49
177.0914	12
186.1281	13
189.0913	51
197.096	10
201.0924	25
203.1059	14
205.086	36
205.1222	11
209.0968	12
212.1198	20
215.1058	14
217.1229	11
227.1047	12
228.1143	19
229.1228	14
231.1396	12
233.1182	11
241.1229	38
243.1383	257
245.155	12
255.1376	19
259.1329	21
270.1491	43
271.132	13
273.1485	86
288.1599	176
