Mass spectrum: Methyl-N-phenylcarbamate; LC-ESI-QTOF; MS2; 100 V
Name: Methyl-N-phenylcarbamate
Formula: C8H9NO2
Exact mass: 151.0633
SMILES: COC(=O)NC1=CC=CC=C1
InChI: InChI=1S/C8H9NO2/c1-11-8(10)9-7-5-3-2-4-6-7/h2-6H,1H3,(H,9,10)
Instrument: TripleTOF 5600 SCIEX
Instrument type: LC-ESI-QTOF
Ms type: MS2
Ion mode: POSITIVE
Collision energy: 100
Fragmentation mode: CID
Ionization: ESI
Column name: Zorbax Eclipse Plus C18 2.1 mm x 150 mm, 3.5 um, Agilent
Retention time: 8.469 min
Precursor m/z: 152.0706
Precursor type: [M+H]+
m/z	relative intensity
37.0057	142
39.0219	142
51.0231	999
52.0178	142
74.0156	142
77.0381	142
