Mass spectrum: N,N-Dimethyldecanamide; LC-ESI-QTOF; MS2; 60 V
Name: N,N-Dimethyldecanamide
Class: Industrial_process
Formula: C12H25NO
Exact mass: 199.1936
SMILES: CCCCCCCCCC(=O)N(C)C
InChI: InChI=1S/C12H25NO/c1-4-5-6-7-8-9-10-11-12(14)13(2)3/h4-11H2,1-3H3
Instrument: TripleTOF 6600 SCIEX
Instrument type: LC-ESI-QTOF
Ms type: MS2
Ion mode: POSITIVE
Collision energy: 60
Fragmentation mode: CID
Ionization: ESI
Column name: Zorbax Eclipse Plus C18 2.1 mm x 150 mm, 3.5 um, Agilent
Retention time: 13.577 min
Precursor m/z: 200.2009
Precursor type: [M+H]+
m/z	relative intensity
30.0334	25
37.0065	34
38.0023	20
38.0142	31
39.0226	395
41.0384	864
42.0328	20
43.0176	60
43.0384	20
43.0538	306
44.0493	999
45.0568	176
46.0648	541
53.0123	12
55.0172	154
55.0397	13
55.0529	26
56.0121	22
57.0322	29
57.0691	41
58.0276	46
58.0645	11
72.0437	505
72.0785	15
87.0665	16
100.0746	93
