Mass spectrum: Napropamide; LC-ESI-QTOF; MS2; 130 V
Name: Napropamide
Class: Herbicide
Formula: C17H21NO2
Exact mass: 271.1572
SMILES: CCN(CC)C(=O)C(C)Oc1cccc2c1cccc2
InChI: InChI=1S/C17H21NO2/c1-4-18(5-2)17(19)13(3)20-16-12-8-10-14-9-6-7-11-15(14)16/h6-13H,4-5H2,1-3H3
Instrument: TripleTOF 6600 SCIEX
Instrument type: LC-ESI-QTOF
Ms type: MS2
Ion mode: POSITIVE
Collision energy: 130
Fragmentation mode: CID
Ionization: ESI
Column name: Zorbax Eclipse Plus C18 2.1 mm x 150 mm, 3.5 um, Agilent
Retention time: 12.596 min
Precursor m/z: 272.1645
Precursor type: [M+H]+
m/z	relative intensity
30.0337	85
38.0034	212
38.0151	85
39.0235	318
42.0342	318
44.0131	658
44.0495	616
49.0078	191
50.015	786
51.023	999
52.0323	191
58.064	85
61.007	170
62.0151	510
63.0228	871
65.0381	467
73.0069	127
74.0152	956
75.0232	552
76.031	467
77.0383	595
78.0457	255
85.0077	106
86.0165	212
87.0231	148
89.038	616
98.0161	233
99.0234	85
101.0378	127
102.0472	467
115.0539	658
126.0457	297
127.0536	276
128.0626	191
150.0471	276
151.0528	127
152.062	85
