Mass spectrum: Metolachlor; LC-ESI-QTOF; MS2; 40 V
Name: Metolachlor
Class: Herbicide
Formula: C15H22ClNO2
Exact mass: 283.1339
SMILES: CCc1cccc(C)c1N(C(C)COC)C(=O)CCl
InChI: InChI=1S/C15H22ClNO2/c1-5-13-8-6-7-11(2)15(13)17(14(18)9-16)12(3)10-19-4/h6-8,12H,5,9-10H2,1-4H3
Instrument: TripleTOF 5600 SCIEX
Instrument type: LC-ESI-QTOF
Ms type: MS2
Ion mode: POSITIVE
Collision energy: 40
Fragmentation mode: CID
Ionization: ESI
Column name: Zorbax Eclipse Plus C18 2.1 mm x 150 mm, 3.5 um, Agilent
Retention time: 13.304 min
Precursor m/z: 284.1412
Precursor type: [M+H]+
m/z	relative intensity
45.0406	11
73.0674	29
76.9811	24
91.0551	42
108.0804	26
109.0646	12
115.0531	11
117.0692	35
118.0642	19
119.0799	63
120.0805	37
130.0644	18
131.0736	32
132.0803	49
133.0884	121
134.0962	276
143.0723	30
144.0799	41
145.0876	41
146.0959	113
147.1034	22
148.1113	33
158.0958	68
159.1036	40
160.1116	110
162.09	21
174.1271	12
176.1429	999
184.0516	83
194.0721	27
212.0827	37
252.1144	380
