Mass spectrum: Butylphosphonic acid; LC-ESI-QTOF; MS2; 80 V
Name: Butylphosphonic acid
Formula: C4H11O3P
Exact mass: 138.0446
SMILES: CCCCP(=O)(O)O
InChI: InChI=1S/C4H11O3P/c1-2-3-4-8(5,6)7/h2-4H2,1H3,(H2,5,6,7)
Instrument: TripleTOF 5600 SCIEX
Instrument type: LC-ESI-QTOF
Ms type: MS2
Ion mode: POSITIVE
Collision energy: 80
Fragmentation mode: CID
Ionization: ESI
Column name: Zorbax Eclipse Plus C18 2.1 mm x 150 mm, 3.5 um, Agilent
Retention time: 4.77 min
Precursor m/z: 139.0519
Precursor type: [M+H]+
m/z	relative intensity
36.0034	38
37.0075	76
38.015	115
39.0225	268
41.0388	115
43.9842	76
46.9678	999
47.9753	115
62.9625	345
64.9782	153
80.9715	76
