Mass spectrum: Thioxanthen-9-one; LC-ESI-QTOF; MS2; 80 V
Name: Thioxanthen-9-one
Formula: C13H8OS
Exact mass: 212.0296
SMILES: C1=CC=C2C(=C1)C(=O)C3=CC=CC=C3S2
InChI: InChI=1S/C13H8OS/c14-13-9-5-1-3-7-11(9)15-12-8-4-2-6-10(12)13/h1-8H
Instrument: TripleTOF 6600 SCIEX
Instrument type: LC-ESI-QTOF
Ms type: MS2
Ion mode: POSITIVE
Collision energy: 80
Fragmentation mode: CID
Ionization: ESI
Column name: Zorbax Eclipse Plus C18 2.1 mm x 150 mm, 3.5 um, Agilent
Retention time: 13.479 min
Precursor m/z: 213.0369
Precursor type: [M+H]+
m/z	relative intensity
50.0147	24
51.0229	32
62.0148	13
63.0233	47
65.0385	32
68.9792	117
74.0147	23
75.0229	15
76.0305	25
77.0385	39
81.9871	31
86.0147	15
87.0222	25
88.0304	28
89.0384	171
90.0462	21
92.9796	20
98.015	20
99.0223	13
102.0465	41
108.002	30
113.0379	105
114.0464	76
115.0542	190
125.0379	22
126.0465	96
134.0182	104
137.0391	27
138.0462	73
139.0541	999
140.0613	12
145.0104	10
150.0461	165
151.0541	258
152.0619	380
158.0186	46
179.0598	11
182.0181	27
183.0266	77
184.0345	65
