Mass spectrum: Dexpanthenol; LC-ESI-QTOF; MS2; 60 V
Name: Dexpanthenol
Formula: C9H19NO4
Exact mass: 205.1314
SMILES: CC(C)(CO)C(C(=O)NCCCO)O
InChI: InChI=1S/C9H19NO4/c1-9(2,6-12)7(13)8(14)10-4-3-5-11/h7,11-13H,3-6H2,1-2H3,(H,10,14)
Instrument: TripleTOF 6600 SCIEX
Instrument type: LC-ESI-QTOF
Ms type: MS2
Ion mode: POSITIVE
Collision energy: 60
Fragmentation mode: CID
Ionization: ESI
Column name: Zorbax Eclipse Plus C18 2.1 mm x 150 mm, 3.5 um, Agilent
Retention time: 4.791 min
Precursor m/z: 206.1387
Precursor type: [M+H]+
m/z	relative intensity
30.0332	179
31.0172	203
37.0066	47
38.0019	23
38.0143	77
39.0225	771
41.0383	993
42.0332	47
43.0178	699
43.0415	59
45.0333	71
46.0281	53
55.0543	83
56.0128	999
58.0643	239
59.0487	47
65.0384	167
67.0533	281
74.0246	23
76.0742	23
80.0482	71
94.0633	29
