Mass spectrum: Triisopropanolamine; LC-ESI-QTOF; MS2; 130 V
Name: Triisopropanolamine
Formula: C9H21NO3
Exact mass: 191.1521
SMILES: CC(CN(CC(C)O)CC(C)O)O
InChI: InChI=1S/C9H21NO3/c1-7(11)4-10(5-8(2)12)6-9(3)13/h7-9,11-13H,4-6H2,1-3H3
Instrument: TripleTOF 6600 SCIEX
Instrument type: LC-ESI-QTOF
Ms type: MS2
Ion mode: POSITIVE
Collision energy: 130
Fragmentation mode: CID
Ionization: ESI
Column name: Zorbax Eclipse Plus C18 2.1 mm x 150 mm, 3.5 um, Agilent
Retention time: 2.182 min
Precursor m/z: 192.1594
Precursor type: [M+H]+
m/z	relative intensity
31.0184	176
35.9995	58
37.0074	455
38.0034	36
38.0151	484
39.0233	999
41.0269	58
41.0393	51
42.0098	29
42.0343	220
43.0189	345
