Mass spectrum: Betamethasone; LC-ESI-QTOF; MS2; 60 V
Name: Betamethasone
Class: Pharmaceutical
Formula: C22H29FO5
Exact mass: 392.1999
SMILES: C[C@H]1C[C@H]2[C@@H]3CCC4=CC(=O)C=C[C@@]4([C@]3([C@H](C[C@@]2([C@]1(C(=O)CO)O)C)O)F)C
InChI: InChI=1S/C22H29FO5/c1-12-8-16-15-5-4-13-9-14(25)6-7-19(13,2)21(15,23)17(26)10-20(16,3)22(12,28)18(27)11-24/h6-7,9,12,15-17,24,26,28H,4-5,8,10-11H2,1-3H3/t12-,15-,16-,17-,19-,20-,21-,22-/m0/s1
Instrument: TripleTOF 5600 SCIEX
Instrument type: LC-ESI-QTOF
Ms type: MS2
Ion mode: POSITIVE
Collision energy: 60
Fragmentation mode: CID
Ionization: ESI
Column name: Zorbax Eclipse Plus C18 2.1 mm x 150 mm, 3.5 um, Agilent
Retention time: 9.016 min
Precursor m/z: 393.2072
Precursor type: [M+H]+
m/z	relative intensity
43.0291	86
65.0434	31
67.0611	150
69.0768	31
77.0432	237
79.0593	228
81.0731	86
83.0533	22
91.0574	816
93.0718	273
95.0523	59
95.0887	209
97.067	31
103.0562	109
104.0643	54
105.0714	478
107.0506	95
107.0872	260
109.0669	63
109.1032	118
111.0811	31
115.0547	319
116.0647	77
117.0694	282
119.0869	643
121.0658	903
121.1026	82
123.0828	100
125.0617	36
125.099	22
127.0567	118
128.0624	533
129.071	282
130.0787	86
131.0496	72
131.086	246
132.0583	237
133.0645	86
133.1022	118
135.0809	282
137.0569	22
137.097	31
141.0718	323
142.0778	191
143.086	383
144.059	155
144.0981	27
145.0653	328
145.1032	136
146.0742	136
147.0812	999
147.1177	22
149.0973	59
151.0755	36
152.0612	91
153.071	127
154.0786	77
155.0551	31
155.0867	264
156.0575	45
156.0936	68
157.0653	77
157.0983	95
158.0746	342
159.0809	533
159.1157	27
160.0889	36
161.0954	168
164.0648	27
165.0706	291
166.0768	104
167.0863	118
168.0592	50
168.0923	41
169.0645	132
169.1007	95
170.0738	104
170.1102	22
171.0807	729
171.1176	22
172.0897	72
173.0956	269
175.0761	22
175.1099	36
177.0822	22
178.0771	223
179.085	442
180.0928	123
181.0636	241
181.1001	109
182.0722	132
182.1042	18
183.0813	136
183.1226	22
184.0867	63
185.063	18
185.0955	209
187.0643	31
187.0784	31
187.1129	54
189.0701	159
190.0783	123
191.085	187
192.0918	168
193.1009	269
194.0755	95
194.1064	95
195.0788	323
195.1172	86
196.0883	305
197.0639	27
197.0963	291
198.0999	50
199.1144	54
202.0777	104
203.0872	177
204.0926	132
205.0698	22
205.105	191
206.0733	36
206.1078	118
207.0788	205
207.1177	114
208.0886	314
209.0965	396
209.1372	18
210.1048	118
211.1105	173
212.1184	36
213.1268	68
215.0864	214
215.1128	22
216.0941	118
217.1019	123
218.0785	50
218.1035	27
219.0817	187
219.1154	127
220.088	127
220.1229	31
221.0952	383
221.1319	50
222.1029	351
223.1099	223
224.1181	68
225.1218	22
225.1393	18
227.0857	45
228.0864	36
228.099	22
229.1007	150
230.1082	132
231.0796	104
231.1161	91
232.0881	145
232.1315	27
233.0969	269
233.1313	50
234.1023	196
235.1114	273
235.1475	59
236.1193	45
237.0867	18
237.1276	141
238.0948	27
238.1364	31
239.1301	27
241.0964	45
242.1057	36
243.1165	109
244.089	54
244.1255	54
245.0965	159
245.1346	45
246.1004	132
246.1498	22
247.1112	374
248.117	287
249.1264	182
250.1362	31
251.1302	31
252.154	31
253.1008	27
253.1208	18
255.076	18
256.087	22
256.1222	18
257.1003	41
258.1029	41
258.1462	27
259.1117	155
260.123	45
261.1295	182
262.0992	22
262.133	109
263.1416	264
264.1464	45
271.1151	91
272.1184	31
273.1272	77
274.0983	45
274.1348	45
275.1079	36
275.1463	36
276.1596	18
277.1245	22
277.1576	22
278.1687	22
279.1706	27
285.1377	31
286.1349	54
289.1214	41
304.1443	22
