Mass spectrum: Trimethoprim; LC-ESI-QTOF; MS2; 100 V
Name: Trimethoprim
Class: Pharmaceutical
Formula: C14H18N4O3
Exact mass: 290.1379
SMILES: COC1=CC(=CC(=C1OC)OC)CC2=CN=C(N=C2N)N
InChI: InChI=1S/C14H18N4O3/c1-19-10-5-8(6-11(20-2)12(10)21-3)4-9-7-17-14(16)18-13(9)15/h5-7H,4H2,1-3H3,(H4,15,16,17,18)
Instrument: TripleTOF 5600 SCIEX
Instrument type: LC-ESI-QTOF
Ms type: MS2
Ion mode: POSITIVE
Collision energy: 100
Fragmentation mode: CID
Ionization: ESI
Column name: Zorbax Eclipse Plus C18 2.1 mm x 150 mm, 3.5 um, Agilent
Retention time: 5.112 min
Precursor m/z: 291.1452
Precursor type: [M+H]+
m/z	relative intensity
39.0226	55
41.0256	111
43.0287	267
50.0155	70
51.0225	216
52.0178	176
53.0119	25
53.0259	20
53.0388	30
54.0336	459
55.0414	60
62.0145	40
63.023	232
64.0179	40
64.031	35
65.0385	327
66.0209	25
66.0335	35
66.0463	80
67.029	45
67.0406	30
67.054	40
68.0251	30
68.0371	191
68.9966	60
69.0442	55
74.015	55
75.0225	272
76.0182	70
76.0303	75
77.0384	999
78.0334	247
79.0279	131
79.0406	55
79.0538	80
80.0381	55
80.0502	126
81.0445	625
82.0407	20
82.0525	35
83.0478	131
88.0169	35
88.0306	25
89.0385	605
90.0342	464
91.0298	65
91.053	378
92.0494	252
93.0557	151
94.0464	90
94.0649	95
95.0556	45
96.0549	111
97.0648	30
99.025	20
100.029	25
101.0389	166
102.0344	433
103.0403	131
103.0547	166
104.0497	307
105.0316	40
105.0438	232
106.0383	45
106.06	85
107.0563	201
108.0551	85
109.0504	181
110.0586	75
111.0678	30
113.0379	105
114.033	257
115.0536	469
116.0505	322
117.0452	630
118.0407	600
119.0597	287
120.0428	40
120.0551	136
121.0289	25
123.0663	116
124.0731	55
126.0376	75
127.041	116
128.0488	206
129.0455	216
130.0388	186
130.0629	95
131.0602	206
132.0541	116
133.0277	35
133.0557	60
133.0733	30
134.0705	136
135.0668	413
140.0512	176
141.0455	85
141.0624	25
142.0519	141
143.0345	25
143.0592	95
144.0555	918
145.039	40
145.0734	50
146.0675	100
147.0666	186
148.0764	55
149.0839	60
153.046	60
154.0367	40
155.0635	95
156.0524	85
157.0612	40
158.071	50
159.0545	25
159.0679	25
160.0731	50
161.0818	544
162.0547	30
167.0477	20
168.0551	45
170.0693	65
171.0617	75
172.0405	20
172.0758	30
175.0589	30
182.0697	25
183.0635	20
184.078	45
185.0812	90
186.0658	30
189.0757	25
213.0771	25
