Mass spectrum: Metolachlor ESA; LC-ESI-QTOF; MS2; 110 V
Name: Metolachlor ESA
Class: Herbicide
Formula: C15H23NO5S
Exact mass: 329.1297
SMILES: CCC1=CC=CC(=C1N(C(C)COC)C(=O)CS(=O)(=O)O)C
InChI: InChI=1S/C15H23NO5S/c1-5-13-8-6-7-11(2)15(13)16(12(3)9-21-4)14(17)10-22(18,19)20/h6-8,12H,5,9-10H2,1-4H3,(H,18,19,20)
Instrument: TripleTOF 5600 SCIEX
Instrument type: LC-ESI-QTOF
Ms type: MS2
Ion mode: POSITIVE
Collision energy: 110
Fragmentation mode: CID
Ionization: ESI
Column name: Zorbax Eclipse Plus C18 2.1 mm x 150 mm, 3.5 um, Agilent
Retention time: 8.247 min
Precursor m/z: 330.137
Precursor type: [M+H]+
m/z	relative intensity
45.0412	118
65.0433	160
77.0414	457
78.051	67
79.0549	50
89.04	118
90.0469	126
91.0557	626
93.0579	42
93.0699	33
102.0468	59
103.0548	203
104.0505	42
104.0655	50
105.0718	50
106.0664	67
107.0744	42
115.0534	431
116.05	50
116.0613	93
117.0579	440
118.0668	169
120.0799	42
127.0578	59
128.049	67
128.0611	110
129.0691	42
130.065	922
131.0736	118
132.0807	67
142.066	152
143.0722	304
144.0806	999
145.085	50
157.0922	50
158.0956	67
