Mass spectrum: Benzamide; LC-ESI-QTOF; MS2; 10 V
Name: Benzamide
Class: Industrial_process; Pharmaceutical
Formula: C7H7NO
Exact mass: 121.0528
SMILES: NC(=O)c1ccccc1
InChI: InChI=1S/C7H7NO/c8-7(9)6-4-2-1-3-5-6/h1-5H,(H2,8,9)
Instrument: TripleTOF 5600 SCIEX
Instrument type: LC-ESI-QTOF
Ms type: MS2
Ion mode: POSITIVE
Collision energy: 10
Fragmentation mode: CID
Ionization: ESI
Column name: Zorbax Eclipse Plus C18 2.1 mm x 150 mm, 3.5 um, Agilent
Retention time: 5.641 min
Precursor m/z: 122.06
Precursor type: [M+H]+
m/z	relative intensity
77.0415	15
79.0566	65
105.0341	96
122.0612	999
