Mass spectrum: (Methoxycarbonylmethyl)triphenylphosphonium; LC-ESI-QTOF; MS2; 140 V
Name: (Methoxycarbonylmethyl)triphenylphosphonium
Class: Industrial_process
Formula: [C21H20O2P]+
Exact mass: 335.1195
SMILES: COC(=O)C[P+](c1ccccc1)(c2ccccc2)c3ccccc3
InChI: InChI=1S/C21H20O2P/c1-23-21(22)17-24(18-11-5-2-6-12-18,19-13-7-3-8-14-19)20-15-9-4-10-16-20/h2-16H,17H2,1H3/q+1
Instrument: TripleTOF 5600 SCIEX
Instrument type: LC-ESI-QTOF
Ms type: MS2
Ion mode: POSITIVE
Collision energy: 140
Fragmentation mode: CID
Ionization: ESI
Column name: Zorbax Eclipse Plus C18 2.1 mm x 150 mm, 3.5 um, Agilent
Retention time: 7.721 min
Precursor m/z: 335.1195
Precursor type: [M]+
m/z	relative intensity
56.9944	72
65.0427	91
74.0171	70
76.033	99
77.0414	144
78.0487	59
79.9832	223
80.9907	316
87.0237	93
89.0393	391
98.0152	57
102.0473	150
103.9803	54
107.0045	999
113.038	139
115.054	464
125.0381	51
126.0462	382
131.0039	154
133.0194	96
139.054	433
150.0461	396
151.0535	772
152.0616	994
155.0043	93
156.0125	136
157.02	578
163.0532	139
165.0707	88
179.0045	73
180.0132	89
181.0203	610
183.0353	81
224.0619	101
225.0711	54
226.0773	125
255.0329	81
