Mass spectrum: Carbofuran; LC-ESI-QTOF; MS2; 10 V
Name: Carbofuran
Class: Insecticide; Transformation_product; Acaricide
Formula: C12H15NO3
Exact mass: 221.1052
SMILES: CNC(=O)Oc1cccc2CC(C)(C)Oc12
InChI: InChI=1S/C12H15NO3/c1-12(2)7-8-5-4-6-9(10(8)16-12)15-11(14)13-3/h4-6H,7H2,1-3H3,(H,13,14)
Instrument: TripleTOF 5600 SCIEX
Instrument type: LC-ESI-QTOF
Ms type: MS2
Ion mode: POSITIVE
Collision energy: 10
Fragmentation mode: CID
Ionization: ESI
Column name: Zorbax Eclipse Plus C18 2.1 mm x 150 mm, 3.5 um, Agilent
Retention time: 9.746 min
Precursor m/z: 222.1125
Precursor type: [M+H]+
m/z	relative intensity
123.0443	47
165.0918	577
222.1124	999
