Mass spectrum: Didecyl-dimethylammonium; LC-ESI-QTOF; MS2; 60 V
Name: Didecyl-dimethylammonium
Class: Antimicrobial; Fungicide; Personal_care_product
Formula: [C22H48N]+
Exact mass: 326.3781
SMILES: CCCCCCCCCC[N+](C)(C)CCCCCCCCCC
InChI: InChI=1S/C22H48N/c1-5-7-9-11-13-15-17-19-21-23(3,4)22-20-18-16-14-12-10-8-6-2/h5-22H2,1-4H3/q+1
Instrument: TripleTOF 5600 SCIEX
Instrument type: LC-ESI-QTOF
Ms type: MS2
Ion mode: POSITIVE
Collision energy: 60
Fragmentation mode: CID
Ionization: ESI
Column name: Zorbax Eclipse Plus C18 2.1 mm x 150 mm, 3.5 um, Agilent
Retention time: 13.395 min
Precursor m/z: 326.3781
Precursor type: [M]+
m/z	relative intensity
55.0579	61
57.0754	673
58.0708	999
71.0892	61
184.2065	103
186.222	381
