Mass spectrum: Daidzein; LC-ESI-QTOF; MS2; 40 V
Name: Daidzein
Class: Pharmaceutical; Natural_product
Formula: C15H10O4
Exact mass: 254.0579
SMILES: Oc1ccc(cc1)C2=COc3cc(O)ccc3C2=O
InChI: InChI=1S/C15H10O4/c16-10-3-1-9(2-4-10)13-8-19-14-7-11(17)5-6-12(14)15(13)18/h1-8,16-17H
Instrument: TripleTOF 5600 SCIEX
Instrument type: LC-ESI-QTOF
Ms type: MS2
Ion mode: POSITIVE
Collision energy: 40
Fragmentation mode: CID
Ionization: ESI
Column name: Zorbax Eclipse Plus C18 2.1 mm x 150 mm, 3.5 um, Agilent
Retention time: 7.744 min
Precursor m/z: 255.0652
Precursor type: [M+H]+
m/z	relative intensity
53.0388	11
55.018	16
65.0387	127
68.997	27
77.0387	28
78.0463	13
81.0335	81
89.038	24
91.0542	350
93.033	14
103.0546	13
105.033	34
106.0411	23
109.0277	20
115.0536	40
118.0416	10
119.0483	67
121.0279	34
127.0536	30
128.0618	172
129.069	81
131.0489	54
131.086	10
133.0277	35
134.0341	28
137.0227	420
141.0693	34
143.0843	37
144.0563	10
145.0268	65
147.0435	14
149.0226	39
151.054	54
152.0614	327
153.0686	272
155.0493	19
156.0562	10
157.064	80
165.0688	20
168.0568	11
169.0639	34
170.0705	18
171.0796	79
175.0382	13
181.0642	457
182.0722	33
184.0505	71
185.0592	16
197.0592	85
198.0647	47
199.0749	526
209.0595	49
210.0677	16
211.0749	18
212.0454	12
226.0639	23
227.0697	262
237.0539	142
255.065	999
