Mass spectrum: (Methoxymethyl)diphenylphosphine oxide; LC-ESI-QTOF; MS2; 100 V
Name: (Methoxymethyl)diphenylphosphine oxide
Class: Industrial_process
Formula: C14H15O2P
Exact mass: 246.081
SMILES: COC[P](=O)(c1ccccc1)c2ccccc2
InChI: InChI=1S/C14H15O2P/c1-16-12-17(15,13-8-4-2-5-9-13)14-10-6-3-7-11-14/h2-11H,12H2,1H3
Instrument: TripleTOF 5600 SCIEX
Instrument type: LC-ESI-QTOF
Ms type: MS2
Ion mode: POSITIVE
Collision energy: 100
Fragmentation mode: CID
Ionization: ESI
Column name: Zorbax Eclipse Plus C18 2.1 mm x 150 mm, 3.5 um, Agilent
Retention time: 8.67 min
Precursor m/z: 247.0882
Precursor type: [M+H]+
m/z	relative intensity
45.0434	999
51.0309	237
56.9929	66
65.0423	361
74.0194	76
76.035	95
77.0413	256
78.0468	76
78.0542	47
79.9827	114
80.992	256
86.0163	57
87.0256	66
89.0407	323
91.0574	228
98.0157	47
100.0358	47
102.0485	152
103.9782	85
104.9869	57
107.0039	827
113.0398	114
115.0561	437
125.039	47
126.0463	399
128.064	47
131.005	114
133.0191	114
137.036	47
139.0537	304
144.0094	66
150.0455	399
151.0556	618
152.0616	903
154.9993	38
155.0099	66
156.01	104
156.0228	38
157.0197	504
179.008	76
180.0115	85
181.0199	589
183.0362	66
