Mass spectrum: Sulfadimethoxine; LC-ESI-QTOF; MS2; 50 V
Name: Sulfadimethoxine
Class: Pharmaceutical
Formula: C12H14N4O4S
Exact mass: 310.0736
SMILES: COC1=NC(=NC(=C1)NS(=O)(=O)C2=CC=C(C=C2)N)OC
InChI: InChI=1S/C12H14N4O4S/c1-19-11-7-10(14-12(15-11)20-2)16-21(17,18)9-5-3-8(13)4-6-9/h3-7H,13H2,1-2H3,(H,14,15,16)
Instrument: TripleTOF 5600 SCIEX
Instrument type: LC-ESI-QTOF
Ms type: MS2
Ion mode: NEGATIVE
Collision energy: 50
Fragmentation mode: CID
Ionization: ESI
Column name: Zorbax Eclipse Plus C18 2.1 mm x 150 mm, 3.5 um, Agilent
Retention time: 8.09 min
Precursor m/z: 309.0663
Precursor type: [M-H]-
m/z	relative intensity
41.9984	63
64.0064	105
65.014	246
65.9985	126
66.0094	999
92.0253	189
107.0125	147
107.038	77
122.0363	506
130.053	70
131.0415	56
131.0621	253
132.0577	56
139.0391	429
140.0184	56
144.0574	189
154.0637	225
171.0239	182
171.0453	168
172.051	84
174.0682	119
188.0503	49
199.0597	84
220.0188	91
229.0703	147
