Mass spectrum: Losartan carboxylic acid; LC-ESI-QTOF; MS2; 60 V
Name: Losartan carboxylic acid
Class: Pharmaceutical; Transformation_product-Metabolite
Formula: C22H21ClN6O2
Exact mass: 436.1415
SMILES: CCCCc1nc(Cl)c(n1Cc2ccc(cc2)c3ccccc3c4n[nH]nn4)C(O)=O
InChI: InChI=1S/C22H21ClN6O2/c1-2-3-8-18-24-20(23)19(22(30)31)29(18)13-14-9-11-15(12-10-14)16-6-4-5-7-17(16)21-25-27-28-26-21/h4-7,9-12H,2-3,8,13H2,1H3,(H,30,31)(H,25,26,27,28)
Instrument: TripleTOF 5600 SCIEX
Instrument type: LC-ESI-QTOF
Ms type: MS2
Ion mode: POSITIVE
Collision energy: 60
Fragmentation mode: CID
Ionization: ESI
Column name: Zorbax Eclipse Plus C18 2.1 mm x 150 mm, 3.5 um, Agilent
Retention time: 10.786 min
Precursor m/z: 437.1487
Precursor type: [M+H]+
m/z	relative intensity
77.0407	35
80.0507	15
115.0527	29
127.0529	16
129.0442	13
140.0482	84
141.0691	12
151.0533	66
152.0613	200
153.0691	491
154.0646	11
157.0518	11
163.054	138
164.061	40
165.0665	63
166.0635	38
167.0722	54
168.0676	20
176.0625	10
177.0684	31
178.0761	575
179.0724	160
180.0804	922
181.0749	18
185.047	91
189.0564	23
190.0649	999
191.0721	233
192.0676	399
205.0756	408
206.0831	551
207.0907	364
