Mass spectrum: Antipyrine; LC-ESI-QTOF; MS2; 70 V
Name: Antipyrine
Class: Pharmaceutical
Formula: C11H12N2O
Exact mass: 188.095
SMILES: CN1N(C(=O)C=C1C)c2ccccc2
InChI: InChI=1S/C11H12N2O/c1-9-8-11(14)13(12(9)2)10-6-4-3-5-7-10/h3-8H,1-2H3
Instrument: TripleTOF 5600 SCIEX
Instrument type: LC-ESI-QTOF
Ms type: MS2
Ion mode: POSITIVE
Collision energy: 70
Fragmentation mode: CID
Ionization: ESI
Column name: Zorbax Eclipse Plus C18 2.1 mm x 150 mm, 3.5 um, Agilent
Retention time: 6.261 min
Precursor m/z: 189.1022
Precursor type: [M+H]+
m/z	relative intensity
51.0289	397
54.0383	13
56.054	481
58.0699	33
65.0411	130
74.0159	13
75.024	13
76.0317	15
77.0411	999
78.0371	15
78.0482	53
79.0567	28
80.0507	19
81.046	15
82.0303	15
89.0393	86
90.0465	26
91.0546	95
92.0499	19
95.0602	17
101.0388	15
102.0459	48
103.0533	44
104.0485	115
105.0421	15
106.0655	26
115.0527	104
117.0555	33
118.0653	24
119.0724	11
128.0496	33
129.0479	15
130.0638	86
131.0579	84
131.0826	13
132.0692	11
