Mass spectrum: Zoxamide; LC-ESI-QTOF; MS2; 90 V
Name: Zoxamide
Class: Fungicide
Formula: C14H16Cl3NO2
Exact mass: 335.0247
SMILES: CCC(C)(C(=O)CCl)NC(=O)C1=CC(=C(C(=C1)Cl)C)Cl
InChI: InChI=1S/C14H16Cl3NO2/c1-4-14(3,12(19)7-15)18-13(20)9-5-10(16)8(2)11(17)6-9/h5-6H,4,7H2,1-3H3,(H,18,20)
Instrument: TripleTOF 6600 SCIEX
Instrument type: LC-ESI-QTOF
Ms type: MS2
Ion mode: POSITIVE
Collision energy: 90
Fragmentation mode: CID
Ionization: ESI
Column name: Zorbax Eclipse Plus C18 2.1 mm x 150 mm, 3.5 um, Agilent
Retention time: 14.13 min
Precursor m/z: 336.032
Precursor type: [M+H]+
m/z	relative intensity
39.0226	13
44.0133	18
46.9683	13
48.9834	31
61.0059	18
62.0148	52
63.0227	142
72.9833	317
74.9983	10
77.037	13
82.9441	29
87.0227	13
88.0299	63
89.0382	999
96.9831	134
98.9993	259
106.9437	15
122.9987	679
124.0064	185
132.9594	166
158.9756	179
