Mass spectrum: N-desmethyl-diphenhydramine; LC-ESI-QTOF; MS2; 70 V
Name: N-desmethyl-diphenhydramine
Class: Pharmaceutical; Metabolite
Formula: C16H19NO
Exact mass: 241.1467
InChI: InChI=1S/C16H19NO/c1-17-12-13-18-16(14-8-4-2-5-9-14)15-10-6-3-7-11-15/h2-11,16-17H,12-13H2,1H3
Instrument: TripleTOF 5600 SCIEX
Instrument type: LC-ESI-QTOF
Ms type: CID
Ion mode: POSITIVE
Collision energy: 70
Ionization: ESI
Column name: Zorbax Eclipse Plus C18 2.1 mm x 150 mm, 3.5 um, Agilent
Retention time: 7.557 min
Precursor m/z: 242.1539
Precursor type: [M+H]+
m/z	relative intensity
89.0399	13
102.047	17
115.0543	131
126.0467	25
127.0545	14
128.0619	105
139.0543	45
141.0698	44
150.0465	28
151.054	112
152.0618	572
163.0547	39
164.0621	110
165.0692	999
166.0775	46
