Mass spectrum: Torasemide; LC-ESI-QTOF; MS2; 80 V
Name: Torasemide
Class: Pharmaceutical
Formula: C16H20N4O3S
Exact mass: 348.1256
SMILES: CC(C)NC(=O)N[S](=O)(=O)c1cnccc1Nc2cccc(C)c2
InChI: InChI=1S/C16H20N4O3S/c1-11(2)18-16(21)20-24(22,23)15-10-17-8-7-14(15)19-13-6-4-5-12(3)9-13/h4-11H,1-3H3,(H,17,19)(H2,18,20,21)
Instrument: TripleTOF 5600 SCIEX
Instrument type: LC-ESI-QTOF
Ms type: MS2
Ion mode: NEGATIVE
Collision energy: 80
Fragmentation mode: CID
Ionization: ESI
Column name: Zorbax Eclipse Plus C18 2.1 mm x 150 mm, 3.5 um, Agilent
Retention time: 7.633 min
Precursor m/z: 347.1183
Precursor type: [M-H]-
m/z	relative intensity
48.9767	55
61.9715	54
63.963	73
77.9657	615
78.9732	111
91.0307	163
92.0383	78
93.046	251
108.0333	120
166.0555	73
179.063	85
180.0698	305
181.0777	999
182.0789	52
183.0944	67
195.0819	90
