Mass spectrum: 2,6-Dimethylquinoline; LC-ESI-QTOF; MS2; 50 V
Name: 2,6-Dimethylquinoline
Formula: C11H11N
Exact mass: 157.0891
SMILES: CC1=CC2=C(C=C1)N=C(C=C2)C
InChI: InChI=1S/C11H11N/c1-8-3-6-11-10(7-8)5-4-9(2)12-11/h3-7H,1-2H3
Instrument: TripleTOF 6600 SCIEX
Instrument type: LC-ESI-QTOF
Ms type: MS2
Ion mode: POSITIVE
Collision energy: 50
Fragmentation mode: CID
Ionization: ESI
Column name: Zorbax Eclipse Plus C18 2.1 mm x 150 mm, 3.5 um, Agilent
Retention time: 5.162 min
Precursor m/z: 158.0964
Precursor type: [M+H]+
m/z	relative intensity
39.0225	39
63.022	13
65.0381	174
75.022	11
77.0375	18
89.0377	101
91.0538	561
101.0374	17
102.0453	39
115.0538	999
116.0577	126
117.0559	27
127.0524	10
128.0488	50
128.0589	33
129.0682	20
130.0632	23
131.0719	13
140.0489	38
141.0565	48
142.0644	189
143.072	117
154.063	17
155.0709	14
156.08	253
157.0879	139
158.0952	47
