Mass spectrum: 4-Hydroxydiphenylamine; LC-ESI-QTOF; MS2; 140 V
Name: 4-Hydroxydiphenylamine
Class: Pesticide; Industrial_process
Formula: C12H11NO
Exact mass: 185.0841
SMILES: C1=CC=C(C=C1)NC2=CC=C(C=C2)O
InChI: InChI=1S/C12H11NO/c14-12-8-6-11(7-9-12)13-10-4-2-1-3-5-10/h1-9,13-14H
Instrument: TripleTOF 6600 SCIEX
Instrument type: LC-ESI-QTOF
Ms type: MS2
Ion mode: POSITIVE
Collision energy: 140
Fragmentation mode: CID
Ionization: ESI
Column name: Zorbax Eclipse Plus C18 2.1 mm x 150 mm, 3.5 um, Agilent
Retention time: 10.034 min
Precursor m/z: 186.0914
Precursor type: [M+H]+
m/z	relative intensity
35.9987	229
37.0068	895
38.002	91
38.0143	597
39.0221	769
40.0179	91
41.0262	57
44.0121	68
49.0066	298
50.0142	999
51.0222	287
52.0177	195
53.0007	80
53.0376	91
54.0332	68
61.0065	218
62.0139	275
63.0221	126
73.0066	45
74.0137	149
