Mass spectrum: 2-(2-Hydroxyphenyl)-1H-benzimidazole; LC-ESI-QTOF; MS2; 40 V
Name: 2-(2-Hydroxyphenyl)-1H-benzimidazole
Class: Industrial_process; Pharmaceutical
Formula: C13H10N2O
Exact mass: 210.0793
SMILES: C1=CC=C2C(=C1)NC(=C3C=CC=CC3=O)N2
InChI: InChI=1S/C13H10N2O/c16-12-8-4-1-5-9(12)13-14-10-6-2-3-7-11(10)15-13/h1-8,14-15H
Instrument: TripleTOF 5600 SCIEX
Instrument type: LC-ESI-QTOF
Ms type: MS2
Ion mode: POSITIVE
Collision energy: 40
Fragmentation mode: CID
Ionization: ESI
Column name: Zorbax Eclipse Plus C18 2.1 mm x 150 mm, 3.5 um, Agilent
Retention time: 6.225 min
Precursor m/z: 211.0866
Precursor type: [M+H]+
m/z	relative intensity
77.044	27
80.055	13
90.0393	10
91.0453	12
92.0532	476
93.061	12
102.0351	12
104.0525	21
117.0605	24
118.0544	87
119.0617	15
120.0464	15
128.0568	16
129.0599	35
131.0619	75
132.0686	11
139.0557	26
140.0504	28
143.0619	27
154.0668	26
155.0613	37
156.0692	140
157.077	18
164.0512	14
165.0566	14
166.066	57
167.0697	37
168.0688	296
169.0765	45
181.0763	312
182.0843	632
183.0917	999
191.0601	13
192.0683	104
193.0745	23
210.0791	19
211.0856	844
