Mass spectrum: Inabenfide; LC-ESI-QTOF; MS2; 90 V
Name: Inabenfide
Formula: C19H15ClN2O2
Exact mass: 338.0822
SMILES: C1=CC=C(C=C1)C(C2=C(C=CC(=C2)Cl)NC(=O)C3=CC=NC=C3)O
InChI: InChI=1S/C19H15ClN2O2/c20-15-6-7-17(22-19(24)14-8-10-21-11-9-14)16(12-15)18(23)13-4-2-1-3-5-13/h1-12,18,23H,(H,22,24)
Instrument: TripleTOF 6600 SCIEX
Instrument type: LC-ESI-QTOF
Ms type: MS2
Ion mode: POSITIVE
Collision energy: 90
Fragmentation mode: CID
Ionization: ESI
Column name: Zorbax Eclipse Plus C18 2.1 mm x 150 mm, 3.5 um, Agilent
Retention time: 10.231 min
Precursor m/z: 339.0895
Precursor type: [M+H]+
m/z	relative intensity
49.0068	35
50.0142	166
51.0222	184
52.0177	35
52.03	460
53.0375	107
75.0229	23
77.0376	50
78.0328	89
79.0407	999
80.0486	561
89.0373	17
91.0535	29
99.0234	14
101.0381	14
104.0481	23
105.0438	50
108.0429	20
115.0534	71
125.0369	44
126.0456	50
127.0403	20
127.0528	104
128.0499	29
128.0617	26
137.0365	14
138.0443	11
139.0533	98
140.0481	23
140.06	26
141.0682	53
149.0391	23
150.0453	92
151.0536	359
152.0607	279
153.0567	157
154.0638	92
155.059	35
162.0099	74
163.0535	95
164.0608	121
165.0687	383
166.0637	92
167.0719	270
168.0797	83
169.0884	20
175.0538	20
176.0561	68
177.0563	202
178.0643	279
179.0669	309
180.0534	11
180.0672	41
181.0743	59
186.0091	17
187.0539	23
188.0253	44
188.0475	11
189.0688	62
190.0638	62
199.0311	20
200.0227	17
200.0614	26
201.0565	11
201.0692	35
202.0753	110
203.072	59
204.079	38
206.059	163
212.061	11
213.0334	11
213.0704	95
214.0404	20
214.0653	89
215.0364	127
215.0846	130
216.0795	56
217.0886	41
226.0669	14
227.0719	83
228.0805	118
229.0883	59
230.0967	53
238.0644	32
239.0733	26
240.0791	133
241.0879	178
242.0952	92
243.1023	50
251.051	17
253.0749	32
254.0824	29
255.0913	208
256.0984	56
257.1068	26
264.0612	20
267.0882	11
276.0552	23
289.0513	53
291.0675	29
