Mass spectrum: Dimoxystrobin; LC-ESI-QTOF; MS2; 120 V
Name: Dimoxystrobin
Class: Fungicide
Formula: C19H22N2O3
Exact mass: 326.163
SMILES: CC1=CC(=C(C=C1)C)OCC2=CC=CC=C2C(=NOC)C(=O)NC
InChI: InChI=1S/C19H22N2O3/c1-13-9-10-14(2)17(11-13)24-12-15-7-5-6-8-16(15)18(21-23-4)19(22)20-3/h5-11H,12H2,1-4H3,(H,20,22)
Instrument: TripleTOF 6600 SCIEX
Instrument type: LC-ESI-QTOF
Ms type: MS2
Ion mode: POSITIVE
Collision energy: 120
Fragmentation mode: CID
Ionization: ESI
Column name: Zorbax Eclipse Plus C18 2.1 mm x 150 mm, 3.5 um, Agilent
Retention time: 13.184 min
Precursor m/z: 327.1703
Precursor type: [M+H]+
m/z	relative intensity
37.0082	45
38.0159	32
39.0239	177
41.0393	14
50.0158	35
51.0236	57
58.0296	264
60.0002	12
61.0081	115
62.0159	282
63.0238	999
64.019	158
64.0309	14
65.0393	63
74.0161	21
75.0232	30
76.0188	10
77.0394	60
88.0183	30
89.0392	803
90.0342	53
90.0459	56
91.0558	20
114.0339	10
115.0542	18
116.0516	48
117.0577	14
139.0549	21
150.0465	17
151.0544	40
152.0618	39
163.0544	22
164.0622	20
165.0707	32
176.0621	21
178.0775	17
189.0707	13
190.0655	12
