Mass spectrum: Tetrahydroharman-3-carboxylic acid; LC-ESI-QTOF; MS2; 20 V
Name: Tetrahydroharman-3-carboxylic acid
Formula: C13H14N2O2
Exact mass: 230.1055
SMILES: CC1C2=C(CC(N1)C(=O)O)C3=CC=CC=C3N2
InChI: InChI=1S/C13H14N2O2/c1-7-12-9(6-11(14-7)13(16)17)8-4-2-3-5-10(8)15-12/h2-5,7,11,14-15H,6H2,1H3,(H,16,17)
Instrument: TripleTOF 6600 SCIEX
Instrument type: LC-ESI-QTOF
Ms type: MS2
Ion mode: POSITIVE
Collision energy: 20
Fragmentation mode: CID
Ionization: ESI
Column name: Zorbax Eclipse Plus C18 2.1 mm x 150 mm, 3.5 um, Agilent
Retention time: 5.62 min
Precursor m/z: 231.1128
Precursor type: [M+H]+
m/z	relative intensity
74.0229	22
102.0545	10
130.0643	95
143.0721	17
144.0795	41
146.0591	54
154.0644	45
157.0872	19
158.096	999
168.0802	144
170.0955	17
188.0699	310
196.0735	17
214.0861	409
231.1132	154
