Mass spectrum: 1,5-Naphthalenediamine; LC-ESI-QTOF; MS2; 60 V
Name: 1,5-Naphthalenediamine
Formula: C10H10N2
Exact mass: 158.0844
SMILES: C1=CC2=C(C=CC=C2N)C(=C1)N
InChI: InChI=1S/C10H10N2/c11-9-5-1-3-7-8(9)4-2-6-10(7)12/h1-6H,11-12H2
Instrument: TripleTOF X500R SCIEX
Instrument type: LC-ESI-QTOF
Ms type: MS2
Ion mode: POSITIVE
Collision energy: 60
Fragmentation mode: CID
Ionization: ESI
Column name: Zorbax Eclipse Plus C18 2.1 mm x 150 mm, 3.5 um, Agilent
Retention time: 2.752 min
Precursor m/z: 159.0917
Precursor type: [M+H]+
m/z	relative intensity
39.0226	44
41.0377	44
51.0244	44
65.0388	111
75.0224	44
88.0302	66
89.0385	310
93.0699	44
102.0455	44
103.0381	44
103.0555	133
113.04	155
114.0456	222
115.0547	999
116.0502	22
116.0676	44
117.0577	22
126.0527	22
130.0504	44
130.0649	355
140.0497	133
141.0556	66
142.0624	44
157.077	66
