Mass spectrum: Fluquinconazole; LC-ESI-QTOF; MS2; 100 V
Name: Fluquinconazole
Class: Fungicide
Formula: C16H8Cl2FN5O
Exact mass: 375.009
SMILES: C1=CC2=C(C=C1F)C(=O)N(C(=N2)N3C=NC=N3)C4=C(C=C(C=C4)Cl)Cl
InChI: InChI=1S/C16H8Cl2FN5O/c17-9-1-4-14(12(18)5-9)24-15(25)11-6-10(19)2-3-13(11)22-16(24)23-8-20-7-21-23/h1-8H
Instrument: TripleTOF 6600 SCIEX
Instrument type: LC-ESI-QTOF
Ms type: MS2
Ion mode: POSITIVE
Collision energy: 100
Fragmentation mode: CID
Ionization: ESI
Column name: Zorbax Eclipse Plus C18 2.1 mm x 150 mm, 3.5 um, Agilent
Retention time: 12.549 min
Precursor m/z: 376.0163
Precursor type: [M+H]+
m/z	relative intensity
30.9969	21
33.0134	18
48.9831	29
57.0127	285
58.0088	10
61.006	13
63.0224	9
64.0169	46
72.9834	109
74.0146	91
75.0222	18
81.0125	204
82.0077	481
88.0174	30
94.0204	20
96.983	36
97.978	22
99.0096	15
100.0161	98
108.0235	999
108.9833	119
123.9946	155
128.9894	13
132.9587	15
135.994	24
155.0273	24
158.0389	17
162.0321	13
164.0003	18
170.9622	16
180.0233	18
181.031	31
182.0388	144
183.0368	30
189.0437	21
207.0345	23
209.0495	55
