Mass spectrum: Abacavir; LC-ESI-QTOF; MS2; 30 V
Name: Abacavir
Class: Pharmaceutical
Formula: C14H18N6O
Exact mass: 286.1542
SMILES: Nc1nc(NC2CC2)c3ncn([C@@H]4C[C@H](CO)C=C4)c3n1
InChI: InChI=1S/C14H18N6O/c15-14-18-12(17-9-2-3-9)11-13(19-14)20(7-16-11)10-4-1-8(5-10)6-21/h1,4,7-10,21H,2-3,5-6H2,(H3,15,17,18,19)/t8-,10+/m1/s1
Instrument: TripleTOF 5600 SCIEX
Instrument type: LC-ESI-QTOF
Ms type: MS2
Ion mode: POSITIVE
Collision energy: 30
Fragmentation mode: CID
Ionization: ESI
Column name: Zorbax Eclipse Plus C18 2.1 mm x 150 mm, 3.5 um, Agilent
Retention time: 5.094 min
Precursor m/z: 287.1615
Precursor type: [M+H]+
m/z	relative intensity
77.0417	22
79.0577	135
109.051	18
134.0459	24
149.0816	17
150.065	181
163.0728	14
164.0928	27
174.0773	108
191.1036	999
287.1608	196
