Mass spectrum: Acridine; LC-ESI-QTOF; MS2; 70 V
Name: Acridine
Class: Industrial_process
Formula: C13H9N
Exact mass: 179.0735
SMILES: c1ccc2nc3ccccc3cc2c1
InChI: InChI=1S/C13H9N/c1-3-7-12-10(5-1)9-11-6-2-4-8-13(11)14-12/h1-9H
Instrument: TripleTOF 5600 SCIEX
Instrument type: LC-ESI-QTOF
Ms type: MS2
Ion mode: POSITIVE
Collision energy: 70
Fragmentation mode: CID
Ionization: ESI
Column name: Zorbax Eclipse Plus C18 2.1 mm x 150 mm, 3.5 um, Agilent
Retention time: 5.776 min
Precursor m/z: 180.0808
Precursor type: [M+H]+
m/z	relative intensity
74.0183	80
75.0263	282
76.0203	10
76.0334	50
77.0419	423
78.0493	36
86.0165	12
87.0244	35
88.0318	16
89.04	92
90.0482	15
98.0161	27
99.0235	61
100.0314	20
101.0396	217
102.0467	136
113.0389	75
114.0337	11
114.0457	23
115.0541	33
125.0385	125
126.047	353
127.0536	211
128.0502	133
129.0475	37
137.0384	20
139.0547	20
140.0494	78
149.0389	47
150.0469	514
151.0548	999
152.0618	766
153.0584	127
154.0644	12
164.0497	27
175.0413	10
176.0498	47
177.0577	284
178.0659	550
179.0731	103
180.0814	16
