Mass spectrum: 2-Aminobenzimidazole; LC-ESI-QTOF; MS2; 120 V
Name: 2-Aminobenzimidazole
Class: Transformation_product; Fungicide
Formula: C7H7N3
Exact mass: 133.064
SMILES: C1=CC=C2C(=C1)NC(=N2)N
InChI: InChI=1S/C7H7N3/c8-7-9-5-3-1-2-4-6(5)10-7/h1-4H,(H3,8,9,10)
Instrument: TripleTOF 6600 SCIEX
Instrument type: LC-ESI-QTOF
Ms type: CID
Ion mode: POSITIVE
Collision energy: 120
Ionization: ESI
Column name: Zorbax Eclipse Plus C18 2.1 mm x 150 mm, 3.5 um, Agilent
Retention time: 4.787 min
Precursor m/z: 134.0713
Precursor type: [M+H]+
m/z	relative intensity
35.9993	271
37.0072	999
38.0022	76
38.015	533
39.0224	257
40.0181	27
42.0211	72
43.0288	212
49.0071	149
50.0147	226
51.01	58
51.0241	36
52.0178	94
53.0138	18
59.9984	54
61.0069	280
62.0148	180
63.0232	58
75.0108	22
