Mass spectrum: Fingolimod; LC-ESI-QTOF; MS2; 100 V
Name: Fingolimod
Class: Pharmaceutical
Formula: C19H33NO2
Exact mass: 307.2511
SMILES: CCCCCCCCC1=CC=C(C=C1)CCC(CO)(CO)N
InChI: InChI=1S/C19H33NO2/c1-2-3-4-5-6-7-8-17-9-11-18(12-10-17)13-14-19(20,15-21)16-22/h9-12,21-22H,2-8,13-16,20H2,1H3
Instrument: TripleTOF 6600 SCIEX
Instrument type: LC-ESI-QTOF
Ms type: MS2
Ion mode: POSITIVE
Collision energy: 100
Fragmentation mode: CID
Ionization: ESI
Column name: Zorbax Eclipse Plus C18 2.1 mm x 150 mm, 3.5 um, Agilent
Retention time: 10.17 min
Precursor m/z: 308.2584
Precursor type: [M+H]+
m/z	relative intensity
37.0061	65
38.0019	43
38.0151	76
39.0221	401
41.0378	304
43.0538	97
50.0141	97
51.0222	304
63.0227	119
65.0374	727
77.0373	879
78.0455	173
79.0533	206
89.0364	76
91.0527	999
102.0443	173
103.0529	238
105.0682	108
115.0523	781
116.0583	65
117.0682	86
126.0451	65
127.0521	282
128.06	760
129.0693	97
141.0677	347
152.0588	43
153.0673	54
