Mass spectrum: Acetochlor; LC-ESI-QTOF; MS2; 30 V
Name: Acetochlor
Class: Herbicide
Formula: C14H20ClNO2
Exact mass: 269.1183
SMILES: CCC1=CC=CC(=C1N(COCC)C(=O)CCl)C
InChI: InChI=1S/C14H20ClNO2/c1-4-12-8-6-7-11(3)14(12)16(10-18-5-2)13(17)9-15/h6-8H,4-5,9-10H2,1-3H3
Instrument: TripleTOF 6600 SCIEX
Instrument type: LC-ESI-QTOF
Ms type: MS2
Ion mode: POSITIVE
Collision energy: 30
Fragmentation mode: CID
Ionization: ESI
Column name: Zorbax Eclipse Plus C18 2.1 mm x 150 mm, 3.5 um, Agilent
Retention time: 13.251 min
Precursor m/z: 270.1255
Precursor type: [M+H]+
m/z	relative intensity
31.017	63
41.0372	34
45.0326	195
59.0482	174
76.9759	21
90.0088	155
91.0525	21
105.0685	16
117.0557	18
117.0691	12
118.0636	18
119.071	12
120.0784	19
130.064	10
131.0715	10
131.082	50
132.0792	63
133.0866	208
134.0951	47
143.0734	14
144.0788	34
145.1002	29
146.0931	79
147.1027	252
148.1105	999
149.0949	119
156.0763	12
158.0958	25
160.1092	39
161.1174	43
162.1254	834
163.1112	270
170.0945	36
171.1024	18
172.1109	25
173.081	29
173.1166	10
174.0926	18
178.0393	12
184.1076	39
185.1171	19
192.0573	23
206.0696	116
208.0877	29
210.0653	16
220.087	108
224.0805	190
238.0967	279
