Mass spectrum: Nitrazepam; LC-ESI-QTOF; MS2; 80 V
Name: Nitrazepam
Class: Pharmaceutical
Formula: C15H11N3O3
Exact mass: 281.08
SMILES: C1C(=O)NC2=C(C=C(C=C2)[N+](=O)[O-])C(=N1)C3=CC=CC=C3
InChI: InChI=1S/C15H11N3O3/c19-14-9-16-15(10-4-2-1-3-5-10)12-8-11(18(20)21)6-7-13(12)17-14/h1-8H,9H2,(H,17,19)
Instrument: TripleTOF 6600 SCIEX
Instrument type: LC-ESI-QTOF
Ms type: MS2
Ion mode: POSITIVE
Collision energy: 80
Fragmentation mode: CID
Ionization: ESI
Column name: Zorbax Eclipse Plus C18 2.1 mm x 150 mm, 3.5 um, Agilent
Retention time: 9.435 min
Precursor m/z: 282.0873
Precursor type: [M+H]+
m/z	relative intensity
51.0221	45
63.022	12
65.0377	30
75.0217	19
76.0295	52
77.038	253
78.0332	21
78.0451	18
89.0375	44
90.0454	10
91.0531	41
102.0331	57
103.0406	47
104.0485	122
113.0381	18
115.0526	62
116.0483	18
117.0559	15
125.0381	21
126.0455	42
127.0525	134
128.0598	69
129.0433	86
130.0405	16
139.0535	99
140.0488	121
141.0671	13
150.0462	75
151.0532	396
152.0607	999
153.0679	255
154.0645	58
155.0591	21
162.0451	18
163.0533	274
164.0591	170
165.0681	179
166.0644	61
167.0727	67
168.0754	11
176.0493	13
177.0561	84
178.0635	235
179.0707	203
180.0796	280
188.0483	27
189.0551	42
190.0643	352
191.0704	83
192.0688	63
193.0773	16
205.0762	391
206.0837	93
207.0921	41
