Mass spectrum: 3,7-Dimethylxanthine; LC-ESI-QTOF; MS2; 40 V
Name: 3,7-Dimethylxanthine
Class: Pharmaceutical; Natural_product
Formula: C7H8N4O2
Exact mass: 180.0647
SMILES: Cn1cnc2N(C)C(=O)NC(=O)c12
InChI: InChI=1S/C7H8N4O2/c1-10-3-8-5-4(10)6(12)9-7(13)11(5)2/h3H,1-2H3,(H,9,12,13)
Instrument: TripleTOF 5600 SCIEX
Instrument type: LC-ESI-QTOF
Ms type: MS2
Ion mode: NEGATIVE
Collision energy: 40
Fragmentation mode: CID
Ionization: ESI
Column name: Zorbax Eclipse Plus C18 2.1 mm x 150 mm, 3.5 um, Agilent
Retention time: 5.242 min
Precursor m/z: 179.0574
Precursor type: [M-H]-
m/z	relative intensity
45.0003	999
45.0216	78
47.0111	265
65.9991	312
67.0298	93
79.017	499
90.997	983
92.0245	93
94.0401	374
107.0128	452
109.0258	78
122.036	686
134.9862	78
135.0063	515
135.0303	437
136.0384	62
164.0338	608
