Mass spectrum: Deethylatrazine; LC-ESI-QTOF; MS2; 90 V
Name: Deethylatrazine
Class: Transformation_product; Herbicide; Metabolite; Transformation_product-Metabolite
Formula: C6H10ClN5
Exact mass: 187.0625
SMILES: CC(C)NC1=NC(=NC(=N1)N)Cl
InChI: InChI=1S/C6H10ClN5/c1-3(2)9-6-11-4(7)10-5(8)12-6/h3H,1-2H3,(H3,8,9,10,11,12)
Instrument: TripleTOF 6600 SCIEX
Instrument type: LC-ESI-QTOF
Ms type: MS2
Ion mode: POSITIVE
Collision energy: 90
Fragmentation mode: CID
Ionization: ESI
Column name: Zorbax Eclipse Plus C18 2.1 mm x 150 mm, 3.5 um, Agilent
Retention time: 6.911 min
Precursor m/z: 188.0698
Precursor type: [M+H]+
m/z	relative intensity
37.0069	29
38.0025	19
38.0151	19
39.0227	123
41.0135	86
41.0383	59
42.0214	63
43.0293	999
53.0129	39
61.9792	932
68.0242	382
