Mass spectrum: Thiabendazole; LC-ESI-QTOF; MS2; 110 V
Name: Thiabendazole
Class: Fungicide; Pharmaceutical
Formula: C10H7N3S
Exact mass: 201.0361
SMILES: [nH]1c2ccccc2nc1c3cscn3
InChI: InChI=1S/C10H7N3S/c1-2-4-8-7(3-1)12-10(13-8)9-5-14-6-11-9/h1-6H,(H,12,13)
Instrument: TripleTOF 5600 SCIEX
Instrument type: LC-ESI-QTOF
Ms type: MS2
Ion mode: POSITIVE
Collision energy: 110
Fragmentation mode: CID
Ionization: ESI
Column name: Zorbax Eclipse Plus C18 2.1 mm x 150 mm, 3.5 um, Agilent
Retention time: 5.203 min
Precursor m/z: 202.0433
Precursor type: [M+H]+
m/z	relative intensity
51.0285	999
52.0261	244
56.985	224
62.0383	122
63.0469	122
64.0354	285
65.0311	122
65.0428	999
68.9828	203
74.0178	305
74.0265	122
75.0254	285
76.0206	142
77.0402	203
91.0418	142
