Mass spectrum: Oxcarbazepine; LC-ESI-QTOF; MS2; 60 V
Name: Oxcarbazepine
Class: Pharmaceutical
Formula: C15H12N2O2
Exact mass: 252.0899
SMILES: NC(=O)N1c2ccccc2CC(=O)c3ccccc13
InChI: InChI=1S/C15H12N2O2/c16-15(19)17-12-7-3-1-5-10(12)9-14(18)11-6-2-4-8-13(11)17/h1-8H,9H2,(H2,16,19)
Instrument: TripleTOF 5600 SCIEX
Instrument type: LC-ESI-QTOF
Ms type: MS2
Ion mode: POSITIVE
Collision energy: 60
Fragmentation mode: CID
Ionization: ESI
Column name: Zorbax Eclipse Plus C18 2.1 mm x 150 mm, 3.5 um, Agilent
Retention time: 8.323 min
Precursor m/z: 253.0972
Precursor type: [M+H]+
m/z	relative intensity
77.0419	35
101.0395	23
104.0499	11
127.055	21
128.0498	101
139.0549	21
140.0553	19
151.0552	64
152.0628	230
153.0698	33
154.0656	29
164.0621	16
165.0708	71
166.0659	53
167.0738	220
177.0584	12
178.0662	185
179.0742	236
180.0819	999
191.0722	14
192.0805	15
193.0893	10
