Mass spectrum: Dexamethasone; LC-ESI-QTOF; MS2; 30 V
Name: Dexamethasone
Class: Pharmaceutical
Formula: C22H29FO5
Exact mass: 392.1999
SMILES: C[C@@H]1C[C@H]2[C@@H]3CCC4=CC(=O)C=C[C@@]4([C@]3([C@H](C[C@@]2([C@]1(C(=O)CO)O)C)O)F)C
InChI: InChI=1S/C22H29FO5/c1-12-8-16-15-5-4-13-9-14(25)6-7-19(13,2)21(15,23)17(26)10-20(16,3)22(12,28)18(27)11-24/h6-7,9,12,15-17,24,26,28H,4-5,8,10-11H2,1-3H3/t12-,15+,16+,17+,19+,20+,21+,22+/m1/s1
Instrument: TripleTOF 5600 SCIEX
Instrument type: LC-ESI-QTOF
Ms type: MS2
Ion mode: POSITIVE
Collision energy: 30
Fragmentation mode: CID
Ionization: ESI
Column name: Zorbax Eclipse Plus C18 2.1 mm x 150 mm, 3.5 um, Agilent
Retention time: 9.089 min
Precursor m/z: 393.2072
Precursor type: [M+H]+
m/z	relative intensity
81.0763	11
91.058	17
93.0732	28
95.0549	15
95.0891	58
97.0679	21
105.0727	31
107.0884	106
109.0697	19
109.1041	28
111.083	20
113.0619	11
115.0782	24
119.0874	90
121.0673	109
121.103	48
123.0831	49
125.0618	43
125.0969	19
131.0877	59
133.0667	45
133.1035	33
135.0819	146
137.0977	50
139.0759	12
143.0889	38
145.0672	32
145.1028	34
147.082	583
149.0977	122
151.0772	27
151.1124	16
153.0925	86
155.0825	16
157.1032	25
158.071	10
159.0816	143
159.1176	11
161.0631	11
161.0968	138
163.0772	24
163.113	16
165.0935	34
167.1066	33
169.0648	23
171.0815	322
171.1126	25
173.0974	234
175.078	13
175.1127	16
177.0916	97
179.0838	16
181.1003	12
183.0803	46
185.0963	188
187.0749	105
187.112	78
189.0909	42
193.0983	26
195.0847	26
195.1084	27
195.1216	10
196.0908	13
197.0958	109
197.1331	12
199.075	12
199.1109	72
201.0902	15
201.1296	16
203.1058	25
204.0896	14
205.1006	13
207.1191	16
208.0899	25
209.0953	86
209.1318	48
210.1067	22
211.0787	14
211.1118	201
212.1174	13
213.0925	30
213.1273	134
215.1056	58
219.116	46
221.0973	96
221.1367	28
222.1023	63
223.1122	232
224.1176	35
225.0917	16
225.1268	170
227.109	25
227.1434	101
229.1218	12
231.1155	19
233.0939	15
233.1305	13
234.1026	14
235.1113	221
236.1221	16
237.1274	999
238.1343	17
239.1425	335
241.1226	130
241.1543	14
243.1064	16
245.0949	15
245.1314	15
246.1037	15
247.1108	17
247.1483	16
248.117	45
249.1279	155
249.1622	16
250.1364	14
251.1062	25
251.1433	90
252.1531	20
253.1216	176
253.1564	84
255.1374	105
257.1345	25
258.1359	13
259.1097	26
259.1407	21
260.1207	34
261.1288	96
261.1611	16
262.1375	59
263.1076	15
263.1434	268
264.15	26
265.1094	10
265.1261	12
265.1559	72
267.1364	177
269.156	12
271.1081	11
272.1174	33
273.1275	26
273.1634	26
274.1338	35
275.1418	164
276.1501	80
277.1189	19
277.1579	384
278.1667	145
279.1313	14
279.1739	562
281.1526	49
281.187	51
283.1508	15
286.1355	77
289.1592	161
290.1281	12
291.1371	10
291.1735	431
293.1533	39
295.1372	23
295.1661	132
296.1745	23
297.1474	12
297.1848	83
301.1592	240
304.1434	22
306.1635	19
307.1704	219
309.1839	209
311.165	38
319.1698	406
325.1782	80
327.1942	30
337.1798	353
355.1908	459
373.2011	15
