Mass spectrum: Gemfibrozil; LC-ESI-QTOF; MS2; 70 V
Name: Gemfibrozil
Class: Pharmaceutical
Formula: C15H22O3
Exact mass: 250.1569
SMILES: CC1=CC(=C(C=C1)C)OCCCC(C)(C)C(=O)O
InChI: InChI=1S/C15H22O3/c1-11-6-7-12(2)13(10-11)18-9-5-8-15(3,4)14(16)17/h6-7,10H,5,8-9H2,1-4H3,(H,16,17)
Instrument: TripleTOF 6600 SCIEX
Instrument type: LC-ESI-QTOF
Ms type: MS2
Ion mode: POSITIVE
Collision energy: 70
Fragmentation mode: CID
Ionization: ESI
Column name: Zorbax Eclipse Plus C18 2.1 mm x 150 mm, 3.5 um, Agilent
Retention time: 13.701 min
Precursor m/z: 251.1642
Precursor type: [M+H]+
m/z	relative intensity
39.0213	310
41.036	172
45.031	172
55.0521	999
59.046	310
77.0353	310
79.0516	206
107.0456	447
