Mass spectrum: Aripiprazole; LC-ESI-QTOF; MS2; 150 V
Name: Aripiprazole
Class: Pharmaceutical
Formula: C23H27Cl2N3O2
Exact mass: 447.148
SMILES: Clc1cccc(N2CCN(CCCCOc3ccc4CCC(=O)Nc4c3)CC2)c1Cl
InChI: InChI=1S/C23H27Cl2N3O2/c24-19-4-3-5-21(23(19)25)28-13-11-27(12-14-28)10-1-2-15-30-18-8-6-17-7-9-22(29)26-20(17)16-18/h3-6,8,16H,1-2,7,9-15H2,(H,26,29)
Instrument: TripleTOF 5600 SCIEX
Instrument type: LC-ESI-QTOF
Ms type: MS2
Ion mode: POSITIVE
Collision energy: 150
Fragmentation mode: CID
Ionization: ESI
Column name: Zorbax Eclipse Plus C18 2.1 mm x 150 mm, 3.5 um, Agilent
Retention time: 8.305 min
Precursor m/z: 448.1553
Precursor type: [M+H]+
m/z	relative intensity
42.046	53
51.0271	98
56.056	80
65.0423	347
72.9887	35
74.0183	410
75.0256	196
77.0417	454
77.0545	44
78.0353	35
89.0401	615
90.0471	463
91.0553	508
98.9986	44
99.0041	35
101.0393	35
102.0457	62
103.0534	44
104.0503	80
108.9832	472
110.9987	151
116.0507	115
117.0564	999
118.0658	71
125.0146	44
128.0479	62
130.0657	44
144.9601	249
151.0203	62
152.025	80
164.0276	35
171.9716	124
172.9754	44
