Mass spectrum: Hostavin VSU P; LC-ESI-QTOF; MS2; 50 V
Name: Hostavin VSU P
Formula: C18H20N2O3
Exact mass: 312.1474
SMILES: CCC1=CC=CC=C1NC(=O)C(=O)NC2=CC=CC=C2OCC
InChI: InChI=1S/C18H20N2O3/c1-3-13-9-5-6-10-14(13)19-17(21)18(22)20-15-11-7-8-12-16(15)23-4-2/h5-12H,3-4H2,1-2H3,(H,19,21)(H,20,22)
Instrument: TripleTOF 5600 SCIEX
Instrument type: LC-ESI-QTOF
Ms type: CID
Ion mode: POSITIVE
Collision energy: 50
Ionization: ESI
Column name: Zorbax Eclipse Plus C18 2.1 mm x 150 mm, 3.5 um, Agilent
Retention time: 15.402 min
Precursor m/z: 313.1547
Precursor type: [M+H]+
m/z	relative intensity
65.0377	76
77.0384	104
79.0538	62
80.0494	173
91.0528	76
92.0482	138
93.0325	111
93.0589	62
94.0641	90
103.0542	152
105.068	117
106.0637	55
108.0438	152
109.0515	353
110.0593	215
117.0556	34
118.0663	62
120.0445	117
120.0805	388
122.0964	187
130.0649	610
132.0796	48
136.0389	999
138.0906	111
148.074	97
