Mass spectrum: Oseltamivir; LC-ESI-QTOF; MS2; 40 V
Name: Oseltamivir
Class: Pharmaceutical
Formula: C16H28N2O4
Exact mass: 312.2049
SMILES: CCC(CC)O[C@@H]1C=C(C[C@@H]([C@H]1/N=C(\C)/O)N)C(=O)OCC
InChI: InChI=1S/C16H28N2O4/c1-5-12(6-2)22-14-9-11(16(20)21-7-3)8-13(17)15(14)18-10(4)19/h9,12-15H,5-8,17H2,1-4H3,(H,18,19)/t13-,14+,15+/m0/s1
Instrument: TripleTOF 5600 SCIEX
Instrument type: LC-ESI-QTOF
Ms type: MS2
Ion mode: POSITIVE
Collision energy: 40
Fragmentation mode: CID
Ionization: ESI
Column name: Zorbax Eclipse Plus C18 2.1 mm x 150 mm, 3.5 um, Agilent
Retention time: 6.973 min
Precursor m/z: 313.2122
Precursor type: [M+H]+
m/z	relative intensity
65.0431	77
67.0578	54
68.0533	16
77.041	69
80.0519	38
82.0672	30
83.051	17
92.0513	203
93.0358	127
93.0573	83
94.0668	487
95.0493	25
108.0438	13
109.0759	134
110.0599	44
111.0429	43
112.0388	11
119.0603	37
120.0448	999
121.0276	18
122.0953	27
123.0789	13
133.0764	19
134.0597	21
136.075	103
137.0709	314
138.0548	257
138.089	30
139.0382	19
139.074	20
140.0708	17
151.0862	14
161.071	21
162.0545	85
166.0862	870
167.069	18
179.0813	45
180.064	33
183.1126	21
207.1146	12
208.0959	108
225.1239	38
226.1072	43
