Mass spectrum: Erythromycin; LC-ESI-QTOF; MS2; 40 V
Name: Erythromycin
Class: Pharmaceutical; Antimicrobial
Formula: C37H67NO13
Exact mass: 733.4612
SMILES: CC[C@H]1OC(=O)[C@H](C)[C@@H](O[C@H]2C[C@@](C)(OC)[C@@H](O)[C@H](C)O2)[C@H](C)[C@@H](O[C@@H]3O[C@H](C)C[C@@H]([C@H]3O)N(C)C)[C@](C)(O)C[C@@H](C)C(=O)[C@H](C)[C@@H](O)[C@]1(C)O
InChI: InChI=1S/C37H67NO13/c1-14-25-37(10,45)30(41)20(4)27(39)18(2)16-35(8,44)32(51-34-28(40)24(38(11)12)15-19(3)47-34)21(5)29(22(6)33(43)49-25)50-26-17-36(9,46-13)31(42)23(7)48-26/h18-26,28-32,34,40-42,44-45H,14-17H2,1-13H3/t18-,19-,20+,21+,22-,23+,24+,25-,26+,28-,29+,30-,31+,32-,34+,35-,36-,37-/m1/s1
Instrument: TripleTOF 5600 SCIEX
Instrument type: LC-ESI-QTOF
Ms type: MS2
Ion mode: POSITIVE
Collision energy: 40
Fragmentation mode: CID
Ionization: ESI
Column name: Zorbax Eclipse Plus C18 2.1 mm x 150 mm, 3.5 um, Agilent
Retention time: 7.852 min
Precursor m/z: 734.4685
Precursor type: [M+H]+
m/z	relative intensity
83.0516	74
98.0971	27
113.0588	19
115.0739	66
116.0697	47
116.106	98
127.0756	70
158.1173	999
233.1525	27
408.2761	31
522.3417	117
540.3467	35
540.3639	27
558.3655	141
576.3741	586
698.4642	19
734.4572	19
734.4866	23
