Mass spectrum: Loratadine; LC-ESI-QTOF; MS2; 40 V
Name: Loratadine
Class: Pharmaceutical
Formula: C22H23ClN2O2
Exact mass: 382.1448
SMILES: CCOC(=O)N1CCC(=C2C3=C(CCC4=C2N=CC=C4)C=C(C=C3)Cl)CC1
InChI: InChI=1S/C22H23ClN2O2/c1-2-27-22(26)25-12-9-15(10-13-25)20-19-8-7-18(23)14-17(19)6-5-16-4-3-11-24-21(16)20/h3-4,7-8,11,14H,2,5-6,9-10,12-13H2,1H3
Instrument: TripleTOF 6600 SCIEX
Instrument type: LC-ESI-QTOF
Ms type: MS2
Ion mode: POSITIVE
Collision energy: 40
Fragmentation mode: CID
Ionization: ESI
Column name: Zorbax Eclipse Plus C18 2.1 mm x 150 mm, 3.5 um, Agilent
Retention time: 9.41 min
Precursor m/z: 383.1521
Precursor type: [M+H]+
m/z	relative intensity
214.0412	37
228.0565	51
229.0642	40
230.0962	16
231.1047	35
232.1122	20
243.1026	45
244.1106	38
245.1187	25
246.1275	37
247.1346	15
248.0929	18
252.0562	56
253.065	64
257.1199	18
258.1273	208
259.135	400
265.0637	13
266.0726	241
267.0804	665
268.0869	15
270.0543	22
278.0721	34
279.0803	136
280.0883	215
281.0961	305
282.1038	132
283.0623	20
292.0883	69
294.1039	258
302.1395	36
311.1312	9
322.086	52
337.1099	999
339.1615	46
383.1517	291
