Mass spectrum: Mefloquine; LC-ESI-QTOF; MS2; 40 V
Name: Mefloquine
Class: Pharmaceutical
Formula: C17H16F6N2O
Exact mass: 378.1167
SMILES: C1CCNC(C1)C(C2=CC(=NC3=C2C=CC=C3C(F)(F)F)C(F)(F)F)O
InChI: InChI=1S/C17H16F6N2O/c18-16(19,20)11-5-3-4-9-10(15(26)12-6-1-2-7-24-12)8-13(17(21,22)23)25-14(9)11/h3-5,8,12,15,24,26H,1-2,6-7H2
Instrument: TripleTOF 5600 SCIEX
Instrument type: LC-ESI-QTOF
Ms type: MS2
Ion mode: POSITIVE
Collision energy: 40
Fragmentation mode: CID
Ionization: ESI
Column name: Zorbax Eclipse Plus C18 2.1 mm x 150 mm, 3.5 um, Agilent
Retention time: 8.432 min
Precursor m/z: 379.124
Precursor type: [M+H]+
m/z	relative intensity
82.0698	19
83.0777	23
84.0845	46
246.041	17
264.027	26
266.0573	17
271.1053	70
272.0509	22
273.0636	21
278.041	44
279.0545	31
280.0626	10
281.0875	17
284.0502	24
285.0471	11
290.1025	13
291.111	90
292.0198	38
293.0702	42
296.0509	33
298.0653	37
299.0626	35
301.0957	91
302.042	36
304.0679	14
305.0521	12
312.0785	12
313.0767	112
314.0974	12
316.0565	20
319.0706	11
320.0946	15
321.1018	257
324.0798	19
333.0833	220
339.0935	61
340.0974	12
341.1085	141
359.9676	12
361.1138	999
379.1251	132
