Mass spectrum: 3,3`-Dimethoxybenzidine; LC-ESI-QTOF; MS2; 90 V
Name: 3,3`-Dimethoxybenzidine
Formula: C14H16N2O2
Exact mass: 244.1212
SMILES: COC1=C(C=CC(=C1)C2=CC(=C(C=C2)N)OC)N
InChI: InChI=1S/C14H16N2O2/c1-17-13-7-9(3-5-11(13)15)10-4-6-12(16)14(8-10)18-2/h3-8H,15-16H2,1-2H3
Instrument: TripleTOF 6600 SCIEX
Instrument type: LC-ESI-QTOF
Ms type: MS2
Ion mode: POSITIVE
Collision energy: 90
Fragmentation mode: CID
Ionization: ESI
Column name: Zorbax Eclipse Plus C18 2.1 mm x 150 mm, 3.5 um, Agilent
Retention time: 5.188 min
Precursor m/z: 245.1285
Precursor type: [M+H]+
m/z	relative intensity
39.0222	15
51.0232	50
62.0144	19
63.0224	93
65.0376	89
74.015	58
75.0225	81
76.0292	31
77.038	283
78.0339	23
78.0426	27
80.0485	108
81.054	23
87.0221	19
88.0307	27
89.0376	447
90.0452	81
91.0534	101
92.053	19
93.0572	19
99.0215	15
101.0401	46
102.033	27
102.0453	73
103.0538	116
104.0515	101
105.0515	31
109.0531	27
113.0396	73
114.0463	132
115.0536	999
116.0495	132
116.0619	27
117.0566	151
118.0629	42
125.0377	42
126.0447	81
127.0423	19
127.0547	85
128.0483	38
129.0508	34
130.0646	248
131.0666	198
139.0537	19
140.0486	171
141.0557	155
142.0595	73
143.0721	27
152.0503	27
153.0583	38
154.0614	42
155.0592	34
156.067	19
157.0763	54
158.0808	69
159.0866	27
168.0674	27
169.0741	15
