Mass spectrum: Remdesivir; LC-ESI-QTOF; MS2; 70 V
Name: Remdesivir
Class: Pharmaceutical
Formula: C27H35N6O8P
Exact mass: 602.2254
SMILES: CCC(CC)COC(=O)C(C)NP(=O)(OCC1C(C(C(O1)(C#N)C2=CC=C3N2N=CN=C3N)O)O)OC4=CC=CC=C4
InChI: InChI=1S/C27H35N6O8P/c1-4-18(5-2)13-38-26(36)17(3)32-42(37,41-19-9-7-6-8-10-19)39-14-21-23(34)24(35)27(15-28,40-21)22-12-11-20-25(29)30-16-31-33(20)22/h6-12,16-18,21,23-24,34-35H,4-5,13-14H2,1-3H3,(H,32,37)(H2,29,30,31)
Instrument: TripleTOF 6600 SCIEX
Instrument type: LC-ESI-QTOF
Ms type: MS2
Ion mode: NEGATIVE
Collision energy: 70
Fragmentation mode: CID
Ionization: ESI
Column name: Zorbax Eclipse Plus C18 2.1 mm x 150 mm, 3.5 um, Agilent
Retention time: 9.974 min
Precursor m/z: 601.2181
Precursor type: [M-H]-
m/z	relative intensity
62.9619	45
76.978	269
78.9574	688
91.0285	48
93.0331	89
99.0803	13
103.9893	627
116.0244	10
119.0239	91
122.0004	127
131.9844	135
133.051	10
133.964	12
145.0504	14
148.9867	12
149.9945	26
161.0463	323
170.0464	18
190.0619	39
198.0323	66
206.0953	999
234.0897	201
