Mass spectrum: Acridone; LC-ESI-QTOF; MS2; 70 V
Name: Acridone
Class: Metabolite; Pharmaceutical; Transformation_product
Formula: C13H9NO
Exact mass: 195.0684
SMILES: O=C1c2ccccc2Nc3ccccc13
InChI: InChI=1S/C13H9NO/c15-13-9-5-1-3-7-11(9)14-12-8-4-2-6-10(12)13/h1-8H,(H,14,15)
Instrument: TripleTOF 5600 SCIEX
Instrument type: LC-ESI-QTOF
Ms type: MS2
Ion mode: POSITIVE
Collision energy: 70
Fragmentation mode: CID
Ionization: ESI
Column name: Zorbax Eclipse Plus C18 2.1 mm x 150 mm, 3.5 um, Agilent
Retention time: 8.5 min
Precursor m/z: 196.0757
Precursor type: [M+H]+
m/z	relative intensity
51.0288	22
65.0431	21
74.0186	10
75.026	23
77.0418	59
87.026	12
88.0321	15
89.0407	109
90.0489	14
91.0552	20
99.0244	10
101.0394	32
102.0465	15
113.0391	99
114.0468	59
115.055	191
116.0501	45
117.0574	18
126.0461	18
127.0473	21
128.0497	33
138.0465	24
139.0551	999
140.0508	581
141.0598	16
150.0466	19
164.0503	32
165.0584	27
166.0662	793
167.0736	306
