Mass spectrum: Bosentan; LC-ESI-QTOF; MS2; 110 V
Name: Bosentan
Class: Pharmaceutical
Formula: C27H29N5O6S
Exact mass: 551.1839
SMILES: CC(C)(C)C1=CC=C(C=C1)S(=O)(=O)NC2=C(C(=NC(=N2)C3=NC=CC=N3)OCCO)OC4=CC=CC=C4OC
InChI: InChI=1S/C27H29N5O6S/c1-27(2,3)18-10-12-19(13-11-18)39(34,35)32-23-22(38-21-9-6-5-8-20(21)36-4)26(37-17-16-33)31-25(30-23)24-28-14-7-15-29-24/h5-15,33H,16-17H2,1-4H3,(H,30,31,32)
Instrument: TripleTOF 5600 SCIEX
Instrument type: LC-ESI-QTOF
Ms type: MS2
Ion mode: NEGATIVE
Collision energy: 110
Fragmentation mode: CID
Ionization: ESI
Column name: Zorbax Eclipse Plus C18 2.1 mm x 150 mm, 3.5 um, Agilent
Retention time: 12.118 min
Precursor m/z: 550.1766
Precursor type: [M-H]-
m/z	relative intensity
41.9982	185
63.962	999
65.0153	69
66.0093	278
89.0278	92
90.035	116
108.0197	92
116.0393	116
117.0707	46
118.0303	278
119.0365	162
132.0341	278
133.0672	69
133.1038	209
134.0256	255
144.0325	162
149.0999	69
157.0795	255
158.0371	209
171.0278	46
220.0703	69
221.0424	69
248.0589	92
278.0725	162
302.0991	69
