Mass spectrum: Omethoate; LC-ESI-QTOF; MS2; 40 V
Name: Omethoate
Class: Insecticide; Transformation_product
Formula: C5H12NO4PS
Exact mass: 213.0225
SMILES: CNC(=O)CSP(=O)(OC)OC
InChI: InChI=1S/C5H12NO4PS/c1-6-5(7)4-12-11(8,9-2)10-3/h4H2,1-3H3,(H,6,7)
Instrument: TripleTOF 6600 SCIEX
Instrument type: LC-ESI-QTOF
Ms type: MS2
Ion mode: POSITIVE
Collision energy: 40
Fragmentation mode: CID
Ionization: ESI
Column name: Zorbax Eclipse Plus C18 2.1 mm x 150 mm, 3.5 um, Agilent
Retention time: 4.837 min
Precursor m/z: 214.0298
Precursor type: [M+H]+
m/z	relative intensity
42.0329	19
44.0484	45
44.9785	35
46.9668	15
46.9939	49
61.0089	22
72.0428	17
76.0201	31
78.9932	256
104.0151	24
109.0033	999
124.9806	881
127.0138	40
154.9905	31
