Mass spectrum: Albendazole; LC-ESI-QTOF; MS2; 130 V
Name: Albendazole
Class: Pharmaceutical
Formula: C12H15N3O2S
Exact mass: 265.0885
SMILES: CCCSc1ccc2nc(NC(=O)OC)[nH]c2c1
InChI: InChI=1S/C12H15N3O2S/c1-3-6-18-8-4-5-9-10(7-8)14-11(13-9)15-12(16)17-2/h4-5,7H,3,6H2,1-2H3,(H2,13,14,15,16)
Instrument: TripleTOF 5600 SCIEX
Instrument type: LC-ESI-QTOF
Ms type: MS2
Ion mode: POSITIVE
Collision energy: 130
Fragmentation mode: CID
Ionization: ESI
Column name: Zorbax Eclipse Plus C18 2.1 mm x 150 mm, 3.5 um, Agilent
Retention time: 8.546 min
Precursor m/z: 266.0958
Precursor type: [M+H]+
m/z	relative intensity
41.035	33
51.0154	16
51.029	208
52.025	120
52.0364	94
53.0184	9
53.0314	21
54.0043	14
54.0397	21
56.9846	42
57.9923	35
59.9946	11
62.0077	11
63.0133	14
65.0302	227
66.026	56
66.0376	61
67.046	30
67.9751	47
68.9838	707
69.012	61
69.9783	26
69.9907	75
70.9995	26
75.0138	274
75.0451	18
76.0219	999
76.0545	16
77.0164	26
77.0293	426
78.0368	151
79.0305	11
79.0441	44
80.0525	21
80.9824	89
81.9762	11
81.9899	338
82.9843	113
83.9934	63
84.9887	9
88.0208	18
90.035	18
91.03	11
91.0436	30
91.9741	16
92.0386	168
92.9808	333
93.0456	21
93.9751	54
93.9876	52
94.9972	184
95.9904	23
96.0036	23
103.0294	113
104.0371	56
105.0452	73
107.9907	21
108.9982	47
110.0072	35
117.9736	11
119.0489	11
119.9907	73
120.998	9
122.0067	28
130.0403	21
135.0021	14
