Mass spectrum: 4,6-Dinitro-O-cresol; LC-ESI-QTOF; MS2; 40 V
Name: 4,6-Dinitro-O-cresol
Class: Herbicide; Insecticide
Formula: C7H6N2O5
Exact mass: 198.0277
SMILES: CC1=CC(=CC(=C1O)[N+](=O)[O-])[N+](=O)[O-]
InChI: InChI=1S/C7H6N2O5/c1-4-2-5(8(11)12)3-6(7(4)10)9(13)14/h2-3,10H,1H3
Instrument: TripleTOF 6600 SCIEX
Instrument type: LC-ESI-QTOF
Ms type: MS2
Ion mode: NEGATIVE
Collision energy: 40
Fragmentation mode: CID
Ionization: ESI
Column name: Zorbax Eclipse Plus C18 2.1 mm x 150 mm, 3.5 um, Agilent
Retention time: 10.837 min
Precursor m/z: 197.0204
Precursor type: [M-H]-
m/z	relative intensity
41.0031	32
41.9988	64
45.9935	999
65.0393	58
67.019	32
93.0339	45
109.0293	451
121.0295	38
122.0247	522
123.0323	309
134.0249	38
137.0239	232
138.0187	77
150.0199	161
151.0269	96
167.0213	51
180.0175	309
197.0205	141
