Mass spectrum: Clozapine; LC-ESI-QTOF; MS2; 80 V
Name: Clozapine
Class: Pharmaceutical
Formula: C18H19ClN4
Exact mass: 326.1298
SMILES: CN1CCN(CC1)C2=NC3=C(C=CC(=C3)Cl)NC4=CC=CC=C42
InChI: InChI=1S/C18H19ClN4/c1-22-8-10-23(11-9-22)18-14-4-2-3-5-15(14)20-16-7-6-13(19)12-17(16)21-18/h2-7,12,20H,8-11H2,1H3
Instrument: TripleTOF 6600 SCIEX
Instrument type: LC-ESI-QTOF
Ms type: MS2
Ion mode: POSITIVE
Collision energy: 80
Fragmentation mode: CID
Ionization: ESI
Column name: Zorbax Eclipse Plus C18 2.1 mm x 150 mm, 3.5 um, Agilent
Retention time: 6.951 min
Precursor m/z: 327.1371
Precursor type: [M+H]+
m/z	relative intensity
42.0339	25
63.022	11
72.983	13
90.033	20
98.9986	14
114.0438	10
123.9935	30
137.0377	40
138.0449	185
139.0501	30
140.0491	37
163.0421	14
164.0488	692
165.0555	366
166.064	46
178.0643	19
179.0658	28
190.0574	30
191.0598	483
192.0678	999
193.0743	17
200.024	17
205.0755	32
206.0809	15
207.0897	11
213.0332	16
215.0347	10
216.0667	12
217.0761	24
218.0832	39
220.0846	14
226.0293	87
234.1012	10
239.0361	10
240.0399	16
253.0512	11
