Mass spectrum: Bisphenol-A bis(diphenyl phosphate); LC-ESI-QTOF; MS2; 80 V
Name: Bisphenol-A bis(diphenyl phosphate)
Class: Industrial_process
Formula: C39H34O8P2
Exact mass: 692.1729
SMILES: CC(C)(C1=CC=C(C=C1)OP(=O)(OC2=CC=CC=C2)OC3=CC=CC=C3)C4=CC=C(C=C4)OP(=O)(OC5=CC=CC=C5)OC6=CC=CC=C6
InChI: InChI=1S/C39H34O8P2/c1-39(2,31-23-27-37(28-24-31)46-48(40,42-33-15-7-3-8-16-33)43-34-17-9-4-10-18-34)32-25-29-38(30-26-32)47-49(41,44-35-19-11-5-12-20-35)45-36-21-13-6-14-22-36/h3-30H,1-2H3
Instrument: TripleTOF 6600 SCIEX
Instrument type: LC-ESI-QTOF
Ms type: MS2
Ion mode: POSITIVE
Collision energy: 80
Fragmentation mode: CID
Ionization: ESI
Column name: Zorbax Eclipse Plus C18 2.1 mm x 150 mm, 3.5 um, Agilent
Retention time: 17.714 min
Precursor m/z: 693.1802
Precursor type: [M+H]+
m/z	relative intensity
77.038	103
91.0534	160
95.0479	17
105.0689	23
107.0479	35
115.0537	471
116.0608	32
117.0689	59
133.0632	59
141.0688	17
151.0535	32
152.0614	207
153.0693	189
154.0751	11
155.0852	59
165.0692	127
166.0769	17
168.0564	145
169.0624	14
171.0801	20
175.0154	26
176.0612	32
177.0694	32
178.0777	999
179.0252	142
180.0323	65
181.0658	23
183.0799	106
183.1157	83
187.0315	11
190.0774	14
191.0856	71
192.0913	26
193.1001	50
208.0876	26
211.1118	44
215.0257	610
226.0765	11
227.0678	20
228.0934	53
229.1	62
233.0359	183
239.0851	71
241.099	20
245.0384	59
251.0468	243
252.094	41
253.1005	68
254.1082	44
255.0577	225
263.0467	32
273.0678	127
291.0773	136
327.078	195
339.0779	133
367.1093	595
