Mass spectrum: 4-Hydroxytrimethoprim; LC-ESI-QTOF; MS2; 90 V
Name: 4-Hydroxytrimethoprim
Class: Pharmaceutical; Transformation_product
Formula: C14H18N4O4
Exact mass: 306.1328
SMILES: COc1cc(cc(c1OC)OC)Cc2c(nc(nc2O)N)N
InChI: InChI=1S/C14H18N4O4/c1-20-9-5-7(6-10(21-2)11(9)22-3)4-8-12(15)17-14(16)18-13(8)19/h5-6H,4H2,1-3H3,(H5,15,16,17,18,19)
Instrument: TripleTOF 5600 SCIEX
Instrument type: LC-ESI-QTOF
Ms type: MS2
Ion mode: NEGATIVE
Collision energy: 90
Fragmentation mode: CID
Ionization: ESI
Column name: Zorbax Eclipse Plus C18 2.1 mm x 150 mm, 3.5 um, Agilent
Retention time: 5.43 min
Precursor m/z: 305.1255
Precursor type: [M-H]-
m/z	relative intensity
41.0178	932
41.0271	199
41.039	66
42.0035	466
42.0201	133
45.0015	133
52.0199	66
65.0051	66
65.0143	133
66.0005	199
66.0126	399
76.0202	66
78.0301	66
88.0195	133
89.0185	66
89.0288	199
91.0349	66
92.0265	133
100.0195	66
102.0343	66
103.0288	266
105.0216	133
106.0097	66
106.0307	66
108.0234	66
115.0289	333
116.027	199
116.0466	133
117.0282	199
117.04	133
118.0328	999
119.0118	199
119.0209	66
119.033	399
121.028	66
129.0231	133
131.0269	266
132.0297	133
132.0553	466
133.0417	199
134.0237	199
134.0329	133
140.0285	133
143.0265	666
144.0083	66
144.0334	199
144.0489	66
144.0608	66
145.0279	199
145.0377	133
146.0233	466
146.041	66
147.0076	199
147.0308	66
157.0135	66
157.0275	133
158.0232	333
159.0233	266
160.0431	199
161.0462	199
162.0189	532
170.0375	266
171.0383	133
172.0295	266
173.0316	66
174.0177	133
174.0261	133
175.0308	133
186.026	133
187.018	266
188.0237	133
189.0282	133
191.0411	66
191.0469	133
199.0366	66
216.0214	199
217.0258	133
217.0352	66
