Mass spectrum: Ethyl-2-cyano-3.3-diphenylacrylate; LC-ESI-QTOF; MS2; 110 V
Name: Ethyl-2-cyano-3.3-diphenylacrylate
Class: Industrial_process; Personal_care_product
Formula: C18H15NO2
Exact mass: 277.1103
SMILES: CCOC(=O)C(=C(C1=CC=CC=C1)C2=CC=CC=C2)C#N
InChI: InChI=1S/C18H15NO2/c1-2-21-18(20)16(13-19)17(14-9-5-3-6-10-14)15-11-7-4-8-12-15/h3-12H,2H2,1H3
Instrument: TripleTOF 5600 SCIEX
Instrument type: LC-ESI-QTOF
Ms type: MS2
Ion mode: POSITIVE
Collision energy: 110
Fragmentation mode: CID
Ionization: ESI
Column name: Zorbax Eclipse Plus C18 2.1 mm x 150 mm, 3.5 um, Agilent
Retention time: 13.596 min
Precursor m/z: 278.1176
Precursor type: [M+H]+
m/z	relative intensity
74.0202	158
75.0271	171
76.0357	63
77.0439	521
78.0525	23
86.0204	13
87.027	30
89.042	30
97.0079	13
98.0181	148
99.0245	97
100.0288	47
101.04	43
102.0486	100
104.0548	16
110.0167	16
111.0234	26
113.0374	20
115.0539	26
122.0153	57
123.0233	50
124.0308	43
125.039	94
126.0466	174
127.0557	37
128.0631	47
134.0179	13
137.0398	20
139.0551	33
148.0287	23
149.0402	292
150.0472	999
151.0542	316
152.0635	94
162.0497	16
163.055	33
173.0351	23
174.0469	393
175.0505	336
176.0604	407
177.0574	43
187.0473	13
199.0404	26
200.0522	37
201.0582	218
202.0692	16
