Mass spectrum: Mefenpyr-diethyl; LC-ESI-QTOF; MS2; 130 V
Name: Mefenpyr-diethyl
Class: Herbicide
Formula: C16H18Cl2N2O4
Exact mass: 372.0644
SMILES: CCOC(=O)C1=NN(C(C1)(C)C(=O)OCC)C2=C(C=C(C=C2)Cl)Cl
InChI: InChI=1S/C16H18Cl2N2O4/c1-4-23-14(21)12-9-16(3,15(22)24-5-2)20(19-12)13-7-6-10(17)8-11(13)18/h6-8H,4-5,9H2,1-3H3
Instrument: TripleTOF 5600 SCIEX
Instrument type: LC-ESI-QTOF
Ms type: MS2
Ion mode: POSITIVE
Collision energy: 130
Fragmentation mode: CID
Ionization: ESI
Column name: Zorbax Eclipse Plus C18 2.1 mm x 150 mm, 3.5 um, Agilent
Retention time: 14.581 min
Precursor m/z: 373.0716
Precursor type: [M+H]+
m/z	relative intensity
48.9938	17
71.9824	10
72.9901	366
73.0122	66
74.0215	999
75.0291	158
76.029	13
77.0435	29
82.9497	329
83.9818	19
84.9888	25
87.0253	13
88.023	19
89.0417	34
90.0362	45
96.9867	74
97.9943	15
99.0051	25
99.0259	25
100.0225	42
101.0415	38
102.0394	15
106.9468	86
108.9861	584
109.9936	30
114.0351	29
123.0006	17
123.9959	14
125.0046	34
126.0362	37
127.0434	30
128.0504	38
129.0548	19
130.0668	13
132.9622	293
144.9626	53
153.0467	27
154.041	11
164.027	22
189.0215	10
