Mass spectrum: N-[6-[formyl-(2,2,6,6-tetramethylpiperidin-4-yl)amino]hexyl]-N-(2,2,6,6-tetramethylpiperidin-4-yl)formamide; LC-ESI-QTOF; MS2; 50 V
Name: N-[6-[formyl-(2,2,6,6-tetramethylpiperidin-4-yl)amino]hexyl]-N-(2,2,6,6-tetramethylpiperidin-4-yl)formamide
Class: Industrial_process
Formula: C26H50N4O2
Exact mass: 450.3934
SMILES: CC1(CC(CC(N1)(C)C)N(CCCCCCN(C=O)C2CC(NC(C2)(C)C)(C)C)C=O)C
InChI: InChI=1S/C26H50N4O2/c1-23(2)15-21(16-24(3,4)27-23)29(19-31)13-11-9-10-12-14-30(20-32)22-17-25(5,6)28-26(7,8)18-22/h19-22,27-28H,9-18H2,1-8H3
Instrument: TripleTOF 5600 SCIEX
Instrument type: LC-ESI-QTOF
Ms type: MS2
Ion mode: POSITIVE
Collision energy: 50
Fragmentation mode: CID
Ionization: ESI
Column name: Zorbax Eclipse Plus C18 2.1 mm x 150 mm, 3.5 um, Agilent
Retention time: 4.674 min
Precursor m/z: 451.4007
Precursor type: [M+H]+
m/z	relative intensity
58.0655	499
81.0703	87
84.0818	18
98.0968	27
123.1172	485
126.0894	18
126.1291	23
140.143	397
166.1591	111
171.1504	37
173.1295	27
183.1804	27
209.2028	106
211.1814	383
249.2381	129
284.2702	46
310.2861	180
312.2652	282
322.3259	23
332.3104	64
333.2907	111
338.2783	55
350.317	999
378.3108	32
423.4177	50
434.3685	27
451.4039	245
