Mass spectrum: Isocaffeine; LC-ESI-QTOF; MS2; 40 V
Name: Isocaffeine
Class: Natural_product
Formula: C8H10N4O2
Exact mass: 194.0804
SMILES: CN1C=NC2=C1N(C(=O)N(C2=O)C)C
InChI: InChI=1S/C8H10N4O2/c1-10-4-9-5-6(10)11(2)8(14)12(3)7(5)13/h4H,1-3H3
Instrument: TripleTOF 5600 SCIEX
Instrument type: LC-ESI-QTOF
Ms type: MS2
Ion mode: POSITIVE
Collision energy: 40
Fragmentation mode: CID
Ionization: ESI
Column name: Zorbax Eclipse Plus C18 2.1 mm x 150 mm, 3.5 um, Agilent
Retention time: 4.729 min
Precursor m/z: 195.0877
Precursor type: [M+H]+
m/z	relative intensity
42.0332	279
69.0441	365
83.0584	26
95.0473	26
97.0393	214
108.0553	32
109.0416	32
110.0714	118
111.0552	91
123.0422	467
136.051	37
138.0661	999
153.0356	26
195.0881	520
