Mass spectrum: Indigo; LC-ESI-QTOF; MS2; 30 V
Name: Indigo
Formula: C16H10N2O2
Exact mass: 262.0742
SMILES: C1=CC=C2C(=C1)C(=C(N2)C3=NC4=CC=CC=C4C3=O)O
InChI: InChI=1S/C16H10N2O2/c19-15-9-5-1-3-7-11(9)17-13(15)14-16(20)10-6-2-4-8-12(10)18-14/h1-8,17,19H
Instrument: TripleTOF X500R SCIEX
Instrument type: LC-ESI-QTOF
Ms type: MS2
Ion mode: POSITIVE
Collision energy: 30
Fragmentation mode: CID
Ionization: ESI
Column name: Zorbax Eclipse Plus C18 2.1 mm x 150 mm, 3.5 um, Agilent
Retention time: 11.892 min
Precursor m/z: 263.0815
Precursor type: [M+H]+
m/z	relative intensity
132.0453	49
180.0815	11
190.0661	21
206.0849	38
207.0902	21
208.076	36
217.0773	43
218.084	10
219.0927	184
234.0789	60
235.0871	285
245.0725	13
262.0745	100
263.0824	999
