Mass spectrum: Dasatinib; LC-ESI-QTOF; MS2; 80 V
Name: Dasatinib
Class: Pharmaceutical
Formula: C22H26ClN7O2S
Exact mass: 487.1557
SMILES: Cc1nc(Nc2sc(cn2)C(=O)Nc3c(C)cccc3Cl)cc(n1)N4CCN(CCO)CC4
InChI: InChI=1S/C22H26ClN7O2S/c1-14-4-3-5-16(23)20(14)28-21(32)17-13-24-22(33-17)27-18-12-19(26-15(2)25-18)30-8-6-29(7-9-30)10-11-31/h3-5,12-13,31H,6-11H2,1-2H3,(H,28,32)(H,24,25,26,27)
Instrument: TripleTOF 5600 SCIEX
Instrument type: LC-ESI-QTOF
Ms type: MS2
Ion mode: POSITIVE
Collision energy: 80
Fragmentation mode: CID
Ionization: ESI
Column name: Zorbax Eclipse Plus C18 2.1 mm x 150 mm, 3.5 um, Agilent
Retention time: 7.247 min
Precursor m/z: 488.163
Precursor type: [M+H]+
m/z	relative intensity
70.0684	79
84.999	119
93.0459	199
118.0393	239
119.0582	79
120.0655	99
123.0052	119
125.0156	219
134.0701	179
135.0789	119
140.0249	79
150.0109	239
152.0319	219
161.0829	999
173.0789	219
174.091	99
175.094	139
175.9897	99
176.0287	139
176.0488	99
176.0914	339
178.0443	139
187.0981	399
191.0365	119
193.054	499
202.1107	259
205.0486	179
206.0527	119
216.0347	139
217.0484	79
218.0535	179
219.0684	119
220.0662	99
232.0642	659
258.0775	119
260.0969	119
343.0456	119
