Mass spectrum: Clozapine; LC-ESI-QTOF; MS2; 110 V
Name: Clozapine
Class: Pharmaceutical
Formula: C18H19ClN4
Exact mass: 326.1298
SMILES: CN1CCN(CC1)C2=NC3=C(C=CC(=C3)Cl)NC4=CC=CC=C42
InChI: InChI=1S/C18H19ClN4/c1-22-8-10-23(11-9-22)18-14-4-2-3-5-15(14)20-16-7-6-13(19)12-17(16)21-18/h2-7,12,20H,8-11H2,1H3
Instrument: TripleTOF 6600 SCIEX
Instrument type: LC-ESI-QTOF
Ms type: MS2
Ion mode: POSITIVE
Collision energy: 110
Fragmentation mode: CID
Ionization: ESI
Column name: Zorbax Eclipse Plus C18 2.1 mm x 150 mm, 3.5 um, Agilent
Retention time: 6.951 min
Precursor m/z: 327.1371
Precursor type: [M+H]+
m/z	relative intensity
39.0227	10
42.0336	20
62.0147	18
63.0226	33
64.0176	15
72.9828	27
74.0153	13
75.0216	15
77.0384	13
86.0142	20
87.0221	40
88.0179	15
88.0304	42
89.0373	40
111.0217	13
112.0227	21
113.0376	47
114.0333	75
115.0535	17
137.0374	235
138.0429	242
139.0511	75
140.0488	95
141.0447	14
151.0516	20
152.0523	15
162.0325	16
163.0424	33
164.0489	999
165.0464	195
166.0639	19
177.0579	18
178.0633	18
179.0616	11
189.0443	21
190.0563	30
191.0596	158
192.0674	46
205.0744	13
216.0649	15
217.0715	12
