Mass spectrum: Dimoxystrobin; LC-ESI-QTOF; MS2; 100 V
Name: Dimoxystrobin
Class: Fungicide
Formula: C19H22N2O3
Exact mass: 326.163
SMILES: CC1=CC(=C(C=C1)C)OCC2=CC=CC=C2C(=NOC)C(=O)NC
InChI: InChI=1S/C19H22N2O3/c1-13-9-10-14(2)17(11-13)24-12-15-7-5-6-8-16(15)18(21-23-4)19(22)20-3/h5-11H,12H2,1-4H3,(H,20,22)
Instrument: TripleTOF 6600 SCIEX
Instrument type: LC-ESI-QTOF
Ms type: MS2
Ion mode: POSITIVE
Collision energy: 100
Fragmentation mode: CID
Ionization: ESI
Column name: Zorbax Eclipse Plus C18 2.1 mm x 150 mm, 3.5 um, Agilent
Retention time: 13.184 min
Precursor m/z: 327.1703
Precursor type: [M+H]+
m/z	relative intensity
37.0082	13
39.0239	73
51.0242	17
58.0298	359
61.0079	28
62.0158	73
63.024	514
64.0192	62
65.0395	54
66.0342	10
77.0395	41
88.0187	17
89.0395	999
90.0358	91
90.0459	63
91.0549	19
116.0501	107
117.0578	21
128.0504	11
151.0547	15
152.0623	33
165.0715	31
176.0638	18
177.0698	10
178.0786	19
189.0706	9
