Mass spectrum: Lamotrigine; LC-ESI-QTOF; MS2; 50 V
Name: Lamotrigine
Class: Pharmaceutical
Formula: C9H7Cl2N5
Exact mass: 255.0079
SMILES: Nc1nnc(c(N)n1)c2cccc(Cl)c2Cl
InChI: InChI=1S/C9H7Cl2N5/c10-5-3-1-2-4(6(5)11)7-8(12)14-9(13)16-15-7/h1-3H,(H4,12,13,14,16)
Instrument: TripleTOF 5600 SCIEX
Instrument type: LC-ESI-QTOF
Ms type: MS2
Ion mode: POSITIVE
Collision energy: 50
Fragmentation mode: CID
Ionization: ESI
Column name: Zorbax Eclipse Plus C18 2.1 mm x 150 mm, 3.5 um, Agilent
Retention time: 6.024 min
Precursor m/z: 256.0151
Precursor type: [M+H]+
m/z	relative intensity
42.0295	13
43.0383	583
44.0446	77
44.0571	20
58.0449	238
68.0283	56
72.9889	13
74.0184	60
88.0313	13
89.0421	67
90.0352	16
96.9867	20
100.0192	56
102.0336	23
104.0501	26
108.9845	355
110.9995	53
114.0329	30
115.0302	100
116.036	16
116.0484	60
121.9962	20
122.9998	311
123.9951	274
125.0035	43
129.0459	30
131.0612	211
132.9604	248
135.9963	120
137.0023	16
138.0104	167
139.02	60
144.9613	999
146.9754	16
147.9956	60
149.004	50
150.0118	53
151.0184	486
152.0143	506
156.9616	895
157.9551	26
158.977	620
159.9719	301
163.006	23
164.002	107
165.0232	191
166.0297	398
170.964	261
171.972	348
172.9673	284
173.9882	60
176.0132	40
178.0163	77
179.0275	53
182.9597	16
183.9722	368
184.9791	80
186.9825	335
194.0364	20
194.9642	181
196.9692	30
210.9833	569
211.9787	150
220.0391	56
229.0031	33
256.0148	174
