Mass spectrum: Flecainide; LC-ESI-QTOF; MS2; 130 V
Name: Flecainide
Class: Pharmaceutical
Formula: C17H20F6N2O3
Exact mass: 414.1378
SMILES: FC(F)(F)COc1ccc(OCC(F)(F)F)c(c1)C(=O)NCC2CCCCN2
InChI: InChI=1S/C17H20F6N2O3/c18-16(19,20)9-27-12-4-5-14(28-10-17(21,22)23)13(7-12)15(26)25-8-11-3-1-2-6-24-11/h4-5,7,11,24H,1-3,6,8-10H2,(H,25,26)
Instrument: TripleTOF 5600 SCIEX
Instrument type: LC-ESI-QTOF
Ms type: MS2
Ion mode: POSITIVE
Collision energy: 130
Fragmentation mode: CID
Ionization: ESI
Column name: Zorbax Eclipse Plus C18 2.1 mm x 150 mm, 3.5 um, Agilent
Retention time: 7.983 min
Precursor m/z: 415.1451
Precursor type: [M+H]+
m/z	relative intensity
42.0416	13
44.0572	74
51.0302	697
53.0087	127
53.0434	39
55.0599	47
56.0552	104
57.0177	29
63.0103	16
64.0348	44
65.042	27
66.0489	14
67.0568	13
68.0535	19
70.024	26
70.0682	19
71.0328	26
74.0176	24
75.0057	13
75.0255	40
77.0412	162
79.0207	999
79.0564	128
80.0509	13
81.0145	32
81.0718	55
82.0221	16
82.0664	29
83.012	135
83.0293	76
84.0827	86
88.0139	48
92.0279	27
95.0296	40
98.0963	24
99.0249	145
101.0195	63
107.0127	159
110.0195	11
114.0275	101
127.0185	16
127.0357	13
135.0074	13
