Mass spectrum: Clonidine; LC-ESI-QTOF; MS2; 60 V
Name: Clonidine
Class: Pharmaceutical
Formula: C9H9Cl2N3
Exact mass: 229.0174
SMILES: C1CN=C(N1)NC2=C(C=CC=C2Cl)Cl
InChI: InChI=1S/C9H9Cl2N3/c10-6-2-1-3-7(11)8(6)14-9-12-4-5-13-9/h1-3H,4-5H2,(H2,12,13,14)
Instrument: TripleTOF 6600 SCIEX
Instrument type: LC-ESI-QTOF
Ms type: MS2
Ion mode: POSITIVE
Collision energy: 60
Fragmentation mode: CID
Ionization: ESI
Column name: Zorbax Eclipse Plus C18 2.1 mm x 150 mm, 3.5 um, Agilent
Retention time: 5.408 min
Precursor m/z: 230.0246
Precursor type: [M+H]+
m/z	relative intensity
42.0214	35
42.0334	166
44.0488	718
48.9835	70
63.0218	87
72.9831	227
74.0142	324
75.0224	61
77.0384	52
82.9437	61
88.0161	35
90.0333	184
91.0406	61
96.9837	122
97.9797	52
98.9982	245
100.0171	201
102.0329	52
104.048	61
105.0445	61
108.9834	885
109.9899	52
110.9981	78
115.0377	35
117.0435	35
117.0551	52
118.0508	96
123.9934	999
125.0011	350
130.038	52
131.0587	166
132.0672	61
132.9599	955
133.0625	52
135.993	105
138.0102	113
139.0056	70
144.96	341
151.0178	78
152.0121	210
153.02	61
158.0697	131
159.0798	61
159.9702	438
160.9781	140
164.0	105
165.0193	78
171.9716	87
172.9659	192
184.9654	52
185.9721	70
186.9802	70
194.0469	78
