Mass spectrum: Climbazole; LC-ESI-QTOF; MS2; 70 V
Name: Climbazole
Class: Pharmaceutical; Personal_care_product
Formula: C15H17ClN2O2
Exact mass: 292.0979
SMILES: CC(C)(C)C(=O)C(Oc1ccc(Cl)cc1)n2ccnc2
InChI: InChI=1S/C15H17ClN2O2/c1-15(2,3)13(19)14(18-9-8-17-10-18)20-12-6-4-11(16)5-7-12/h4-10,14H,1-3H3
Instrument: TripleTOF 5600 SCIEX
Instrument type: LC-ESI-QTOF
Ms type: MS2
Ion mode: POSITIVE
Collision energy: 70
Fragmentation mode: CID
Ionization: ESI
Column name: Zorbax Eclipse Plus C18 2.1 mm x 150 mm, 3.5 um, Agilent
Retention time: 8.761 min
Precursor m/z: 293.1051
Precursor type: [M+H]+
m/z	relative intensity
51.0285	20
55.0598	198
57.0749	319
65.0413	74
67.0592	10
69.0476	44
69.072	64
70.0809	52
72.9868	321
74.0175	132
75.0263	576
77.0409	201
78.0491	18
81.0465	132
82.0542	26
84.9861	28
91.0555	132
93.0347	30
94.0411	112
94.0665	12
99.0009	999
101.0376	14
102.0496	20
109.04	56
110.9998	830
111.0305	12
113.015	58
119.0477	10
120.055	12
125.014	26
126.9946	96
127.0538	10
128.005	10
128.061	10
129.0091	34
139.0062	68
141.009	60
175.0796	14
