Mass spectrum: Penconazol; LC-ESI-QTOF; MS2; 120 V
Name: Penconazol
Class: Fungicide
Formula: C13H15Cl2N3
Exact mass: 283.0643
SMILES: CCCC(CN1C=NC=N1)C2=C(C=C(C=C2)Cl)Cl
InChI: InChI=1S/C13H15Cl2N3/c1-2-3-10(7-18-9-16-8-17-18)12-5-4-11(14)6-13(12)15/h4-6,8-10H,2-3,7H2,1H3
Instrument: TripleTOF 6600 SCIEX
Instrument type: LC-ESI-QTOF
Ms type: MS2
Ion mode: POSITIVE
Collision energy: 120
Fragmentation mode: CID
Ionization: ESI
Column name: Zorbax Eclipse Plus C18 2.1 mm x 150 mm, 3.5 um, Agilent
Retention time: 12.845 min
Precursor m/z: 284.0716
Precursor type: [M+H]+
m/z	relative intensity
37.0075	42
38.0151	43
39.0231	101
42.021	34
43.0294	275
46.9684	109
48.9841	106
49.007	20
50.0152	130
51.0227	88
52.0311	10
59.9997	31
61.0073	242
62.0153	636
63.0233	928
70.04	247
71.9757	24
72.9842	904
73.0034	12
74.0151	295
75.0229	224
76.0307	68
77.038	44
82.9447	108
83.9755	11
84.9839	11
85.007	24
86.0148	64
87.0229	80
88.0305	85
89.0388	999
96.9839	173
98.0147	21
98.999	72
102.046	58
106.9445	31
115.0547	13
122.9996	57
132.9607	22
