Mass spectrum: Ranitidine-S-oxide; LC-ESI-QTOF; MS2; 60 V
Name: Ranitidine-S-oxide
Class: Pharmaceutical; Transformation_product; Transformation_product-Metabolite
Formula: C13H22N4O4S
Exact mass: 330.1362
SMILES: CNC(=C[N+](=O)[O-])NCCS(=O)Cc1ccc(o1)CN(C)C
InChI: InChI=1S/C13H22N4O4S/c1-14-13(9-17(18)19)15-6-7-22(20)10-12-5-4-11(21-12)8-16(2)3/h4-5,9,14-15H,6-8,10H2,1-3H3
Instrument: TripleTOF 5600 SCIEX
Instrument type: LC-ESI-QTOF
Ms type: MS2
Ion mode: POSITIVE
Collision energy: 60
Fragmentation mode: CID
Ionization: ESI
Column name: Zorbax Eclipse Plus C18 2.1 mm x 150 mm, 3.5 um, Agilent
Retention time: 2.941 min
Precursor m/z: 331.1435
Precursor type: [M+H]+
m/z	relative intensity
42.0415	56
58.0698	325
66.0498	123
67.0575	112
68.0523	101
79.0576	56
80.0552	67
81.0639	112
82.0669	224
93.0722	78
94.0427	999
94.0648	269
94.0846	56
95.0507	112
95.0753	392
97.0767	213
98.0858	89
102.0397	56
108.0812	280
110.0966	942
138.0925	123
