Mass spectrum: Fluroxypyr; LC-ESI-QTOF; MS2; 70 V
Name: Fluroxypyr
Class: Herbicide
Formula: C7H5Cl2FN2O3
Exact mass: 253.9661
SMILES: C(C(=O)O)OC1=NC(=C(C(=C1Cl)N)Cl)F
InChI: InChI=1S/C7H5Cl2FN2O3/c8-3-5(11)4(9)7(12-6(3)10)15-1-2(13)14/h1H2,(H2,11,12)(H,13,14)
Instrument: TripleTOF 6600 SCIEX
Instrument type: LC-ESI-QTOF
Ms type: MS2
Ion mode: POSITIVE
Collision energy: 70
Fragmentation mode: CID
Ionization: ESI
Column name: Zorbax Eclipse Plus C18 2.1 mm x 150 mm, 3.5 um, Agilent
Retention time: 8.859 min
Precursor m/z: 254.9734
Precursor type: [M+H]+
m/z	relative intensity
46.9686	19
48.984	67
56.0056	31
57.014	27
61.9796	23
62.9626	47
64.017	51
66.9741	329
69.0018	19
70.0078	71
70.9683	23
71.9749	63
72.9826	63
73.9787	67
74.9865	31
77.0121	55
82.008	99
82.9442	138
83.0155	55
84.0234	63
85.9785	87
89.9656	63
90.9737	999
91.0289	31
91.9688	55
93.9852	47
96.9709	31
97.9785	91
98.9872	122
99.9939	19
100.9339	71
103.9695	27
105.9357	19
105.9837	47
106.9444	336
109.019	35
109.9772	19
110.0268	67
111.0337	194
112.9887	95
115.9682	79
116.9758	122
117.9841	194
118.9934	87
120.9523	23
121.9547	47
122.948	19
124.9351	777
124.9881	27
125.9958	126
131.9393	75
132.9981	19
133.9562	178
142.9775	31
143.9869	249
144.9957	43
146.0041	130
151.9471	225
160.9663	27
178.9589	27
