Mass spectrum: Loratadine; LC-ESI-QTOF; MS2; 100 V
Name: Loratadine
Class: Pharmaceutical
Formula: C22H23ClN2O2
Exact mass: 382.1448
SMILES: CCOC(=O)N1CCC(=C2C3=C(CCC4=C2N=CC=C4)C=C(C=C3)Cl)CC1
InChI: InChI=1S/C22H23ClN2O2/c1-2-27-22(26)25-12-9-15(10-13-25)20-19-8-7-18(23)14-17(19)6-5-16-4-3-11-24-21(16)20/h3-4,7-8,11,14H,2,5-6,9-10,12-13H2,1H3
Instrument: TripleTOF 6600 SCIEX
Instrument type: LC-ESI-QTOF
Ms type: MS2
Ion mode: POSITIVE
Collision energy: 100
Fragmentation mode: CID
Ionization: ESI
Column name: Zorbax Eclipse Plus C18 2.1 mm x 150 mm, 3.5 um, Agilent
Retention time: 9.41 min
Precursor m/z: 383.1521
Precursor type: [M+H]+
m/z	relative intensity
89.0379	14
115.0539	16
117.0567	27
128.0614	11
130.0646	19
151.0544	35
152.0607	55
154.0639	16
163.0526	17
164.06	32
165.0694	82
166.0643	29
167.0715	24
175.0558	11
176.0609	40
177.0616	29
178.0642	59
179.072	152
180.08	12
187.0531	12
188.0609	17
189.0685	194
190.064	79
191.0719	144
192.0801	131
193.0873	77
199.0279	14
200.0607	29
201.0679	40
202.0769	265
203.0722	145
204.0798	140
205.0871	25
213.032	25
213.068	29
214.0417	38
214.0636	72
215.0739	150
216.0799	945
217.0878	490
218.0953	98
219.1021	9
223.0307	17
226.0408	25
226.0756	19
227.0492	22
227.0713	61
228.0567	29
228.0799	652
229.0874	552
230.0953	999
231.1029	157
232.1109	25
238.04	45
239.0773	11
240.0546	11
240.0796	150
241.0877	890
242.0955	926
243.1037	590
244.1112	422
245.1188	40
250.0409	147
251.0491	395
252.0556	89
254.0962	127
255.1031	29
256.1107	226
257.118	27
258.126	51
262.0392	24
263.0487	35
264.0567	280
265.0638	98
266.0716	93
275.0485	22
276.0571	29
277.0656	27
278.0735	45
280.0878	34
288.0564	12
290.0727	14
