Mass spectrum: 1,3-Dicyclohexylurea; LC-ESI-QTOF; MS2; 120 V
Name: 1,3-Dicyclohexylurea
Formula: C13H24N2O
Exact mass: 224.1889
SMILES: C1CCC(CC1)NC(=O)NC2CCCCC2
InChI: InChI=1S/C13H24N2O/c16-13(14-11-7-3-1-4-8-11)15-12-9-5-2-6-10-12/h11-12H,1-10H2,(H2,14,15,16)
Instrument: TripleTOF 6600 SCIEX
Instrument type: LC-ESI-QTOF
Ms type: CID
Ion mode: POSITIVE
Collision energy: 120
Ionization: ESI
Column name: Zorbax Eclipse Plus C18 2.1 mm x 150 mm, 3.5 um, Agilent
Retention time: 10.759 min
Precursor m/z: 225.1962
Precursor type: [M+H]+
m/z	relative intensity
35.999	40
37.0069	295
38.004	36
38.0143	247
39.0227	999
41.038	85
43.0285	30
44.0127	610
51.0221	11
52.0046	11
53.0376	38
55.0536	38
