Mass spectrum: Sulfamerazine; LC-ESI-QTOF; MS2; 90 V
Name: Sulfamerazine
Class: Antimicrobial; Pharmaceutical
Formula: C11H12N4O2S
Exact mass: 264.0681
SMILES: CC1=NC(=NC=C1)NS(=O)(=O)C2=CC=C(C=C2)N
InChI: InChI=1S/C11H12N4O2S/c1-8-6-7-13-11(14-8)15-18(16,17)10-4-2-9(12)3-5-10/h2-7H,12H2,1H3,(H,13,14,15)
Instrument: TripleTOF 5600 SCIEX
Instrument type: LC-ESI-QTOF
Ms type: MS2
Ion mode: POSITIVE
Collision energy: 90
Fragmentation mode: CID
Ionization: ESI
Column name: Zorbax Eclipse Plus C18 2.1 mm x 150 mm, 3.5 um, Agilent
Retention time: 5.769 min
Precursor m/z: 265.0754
Precursor type: [M+H]+
m/z	relative intensity
53.0207	15
54.0445	18
65.0464	999
66.0404	234
67.0382	31
68.0562	53
69.0511	15
80.0544	476
81.0493	13
82.0552	23
91.0427	13
92.0528	181
93.0481	197
108.0456	125
110.0728	106
