Mass spectrum: N-[4-(1H-benzimidazol-2-yl)phenyl]-N,N-dimethylamine; LC-ESI-QTOF; MS2; 140 V
Name: N-[4-(1H-benzimidazol-2-yl)phenyl]-N,N-dimethylamine
Class: Pharmaceutical
Formula: C15H15N3
Exact mass: 237.1266
SMILES: CN(C)C1=CC=C(C=C1)C2=NC3=CC=CC=C3N2
InChI: InChI=1S/C15H15N3/c1-18(2)12-9-7-11(8-10-12)15-16-13-5-3-4-6-14(13)17-15/h3-10H,1-2H3,(H,16,17)
Instrument: TripleTOF 5600 SCIEX
Instrument type: LC-ESI-QTOF
Ms type: MS2
Ion mode: POSITIVE
Collision energy: 140
Fragmentation mode: CID
Ionization: ESI
Column name: Zorbax Eclipse Plus C18 2.1 mm x 150 mm, 3.5 um, Agilent
Retention time: 6.517 min
Precursor m/z: 238.1339
Precursor type: [M+H]+
m/z	relative intensity
52.0271	262
64.0345	355
65.0456	999
73.0144	87
74.0206	586
75.0281	462
76.0229	268
77.0432	249
85.0084	62
86.0192	187
87.0266	274
88.0214	56
88.0325	81
89.0423	636
90.0355	62
91.0448	124
92.0512	49
98.0173	93
99.0129	31
99.0217	31
100.0207	24
101.0407	31
102.0355	106
109.015	24
110.0173	49
111.0213	81
112.023	74
113.0387	312
114.0358	99
115.0442	31
115.0562	37
127.0373	43
130.0391	31
137.0395	224
138.0407	212
139.054	231
140.0514	168
143.0627	24
163.0469	31
164.0496	524
165.0485	106
166.0645	31
167.0579	24
191.0576	62
192.0695	31
