Mass spectrum: 4`-Aminoacetanilide; LC-ESI-QTOF; MS2; 40 V
Name: 4`-Aminoacetanilide
Formula: C8H10N2O
Exact mass: 150.0793
SMILES: CC(=O)NC1=CC=C(C=C1)N
InChI: InChI=1S/C8H10N2O/c1-6(11)10-8-4-2-7(9)3-5-8/h2-5H,9H2,1H3,(H,10,11)
Instrument: TripleTOF X500R SCIEX
Instrument type: LC-ESI-QTOF
Ms type: MS2
Ion mode: POSITIVE
Collision energy: 40
Fragmentation mode: CID
Ionization: ESI
Column name: Zorbax Eclipse Plus C18 2.1 mm x 150 mm, 3.5 um, Agilent
Retention time: 2.212 min
Precursor m/z: 151.0866
Precursor type: [M+H]+
m/z	relative intensity
39.0232	118
43.0177	321
65.0387	566
66.0472	25
67.0413	22
80.0493	51
81.0568	18
82.0658	40
92.0495	999
93.0572	318
106.0646	25
107.0606	66
108.0686	569
109.0758	643
110.0573	29
133.0763	29
151.0865	25
