Mass spectrum: Basic Red 1; LC-ESI-QTOF; MS2; 70 V
Name: Basic Red 1
Formula: C28H30N2O3
Exact mass: 442.2256
SMILES: CCNC1=CC2=C(C=C1C)C(=C3C=C(C(=NCC)C=C3O2)C)C4=CC=CC=C4C(=O)OCC
InChI: InChI=1S/C28H30N2O3/c1-6-29-23-15-25-21(13-17(23)4)27(19-11-9-10-12-20(19)28(31)32-8-3)22-14-18(5)24(30-7-2)16-26(22)33-25/h9-16,29H,6-8H2,1-5H3
Instrument: TripleTOF X500R SCIEX
Instrument type: LC-ESI-QTOF
Ms type: MS2
Ion mode: POSITIVE
Collision energy: 70
Fragmentation mode: CID
Ionization: ESI
Column name: Zorbax Eclipse Plus C18 2.1 mm x 150 mm, 3.5 um, Agilent
Retention time: 11.107 min
Precursor m/z: 443.2329
Precursor type: [M+H]+
m/z	relative intensity
254.0969	16
255.0837	18
267.1041	13
268.0911	12
268.1126	14
269.1019	50
270.096	48
271.103	38
272.11	9
279.15	30
281.0918	18
282.1005	32
283.1025	105
284.1085	172
285.1157	145
286.123	33
295.104	20
296.1081	98
297.1138	229
298.1189	248
299.1178	53
300.14	56
309.1123	16
310.1218	28
311.1199	216
312.1272	768
313.1346	517
314.1552	60
317.1191	23
324.1362	14
325.1384	131
326.1499	251
327.1503	177
328.1121	11
329.1263	30
330.1138	17
336.1262	18
339.1498	27
340.1587	60
341.1218	17
341.1658	999
341.2267	13
342.1125	44
342.1739	46
343.1217	24
344.1292	80
355.1815	26
356.1301	18
357.1254	437
358.1408	37
359.1501	36
370.139	22
371.1442	181
372.1608	105
385.1558	67
386.1633	301
387.1731	49
399.1715	163
400.1795	28
415.2031	240
