Mass spectrum: Diflufenican; LC-ESI-QTOF; MS2; 20 V
Name: Diflufenican
Class: Herbicide
Formula: C19H11F5N2O2
Exact mass: 394.0741
InChI: InChI=1S/C19H11F5N2O2/c20-12-6-7-16(15(21)10-12)26-17(27)14-5-2-8-25-18(14)28-13-4-1-3-11(9-13)19(22,23)24/h1-10H,(H,26,27)
Instrument: TripleTOF 6600 SCIEX
Instrument type: LC-ESI-QTOF
Ms type: CID
Ion mode: NEGATIVE
Collision energy: 20
Ionization: ESI
Column name: Zorbax Eclipse Plus C18 2.1 mm x 150 mm, 3.5 um, Agilent
Retention time: 14.853 min
Precursor m/z: 393.0668
Precursor type: [M-H]-
m/z	relative intensity
161.0218	70
185.0527	48
238.0477	18
252.0422	99
272.0497	999
296.0325	14
309.0645	166
325.0593	33
329.0693	987
345.064	14
353.0531	277
373.0593	492
393.0656	666
