Mass spectrum: Fenbendazole; LC-ESI-QTOF; MS2; 60 V
Name: Fenbendazole
Class: Pharmaceutical
Formula: C15H13N3O2S
Exact mass: 299.0728
SMILES: COC(=O)Nc1[nH]c2cc(Sc3ccccc3)ccc2n1
InChI: InChI=1S/C15H13N3O2S/c1-20-15(19)18-14-16-12-8-7-11(9-13(12)17-14)21-10-5-3-2-4-6-10/h2-9H,1H3,(H2,16,17,18,19)
Instrument: TripleTOF 5600 SCIEX
Instrument type: LC-ESI-QTOF
Ms type: MS2
Ion mode: POSITIVE
Collision energy: 60
Fragmentation mode: CID
Ionization: ESI
Column name: Zorbax Eclipse Plus C18 2.1 mm x 150 mm, 3.5 um, Agilent
Retention time: 9.947 min
Precursor m/z: 300.0801
Precursor type: [M+H]+
m/z	relative intensity
65.0423	13
77.0289	66
103.0418	52
104.0378	248
109.0108	73
116.0368	11
119.049	12
122.006	81
130.0395	16
131.048	638
136.0086	12
154.0645	11
159.0428	999
163.0192	20
164.0264	13
171.0258	45
190.0065	68
191.0144	72
198.037	22
199.0443	15
225.0474	35
239.0512	13
240.0591	11
268.0538	26
