Mass spectrum: Testosterone; LC-ESI-QTOF; MS2; 90 V
Name: Testosterone
Class: Pharmaceutical
Formula: C19H28O2
Exact mass: 288.2089
SMILES: C[C@]12CC[C@H]3[C@@H](CCC4=CC(=O)CC[C@]34C)[C@@H]1CC[C@@H]2O
InChI: InChI=1S/C19H28O2/c1-18-9-7-13(20)11-12(18)3-4-14-15-5-6-17(21)19(15,2)10-8-16(14)18/h11,14-17,21H,3-10H2,1-2H3/t14-,15-,16-,17-,18-,19-/m0/s1
Instrument: TripleTOF 5600 SCIEX
Instrument type: LC-ESI-QTOF
Ms type: MS2
Ion mode: POSITIVE
Collision energy: 90
Fragmentation mode: CID
Ionization: ESI
Column name: Zorbax Eclipse Plus C18 2.1 mm x 150 mm, 3.5 um, Agilent
Retention time: 10.968 min
Precursor m/z: 289.2162
Precursor type: [M+H]+
m/z	relative intensity
43.0275	110
43.0413	51
55.0247	58
55.0367	17
65.0449	193
66.0515	38
67.0601	134
69.038	20
69.077	38
77.0441	999
78.0515	38
79.0589	636
81.0389	27
81.0573	13
81.0743	210
82.0455	20
83.0531	41
91.0582	411
91.0972	13
93.0719	13
94.0458	34
95.0887	27
97.0683	383
103.0574	41
105.0728	69
107.0511	48
109.0668	214
115.0565	120
116.0675	17
117.0724	24
127.0575	34
128.0649	100
129.0721	55
141.0738	51
152.0655	31
153.0734	27
155.0897	13
165.0762	34
