Mass spectrum: Trimethoprim; LC-ESI-QTOF; MS2; 40 V
Name: Trimethoprim
Class: Pharmaceutical
Formula: C14H18N4O3
Exact mass: 290.1379
SMILES: COC1=CC(=CC(=C1OC)OC)CC2=CN=C(N=C2N)N
InChI: InChI=1S/C14H18N4O3/c1-19-10-5-8(6-11(20-2)12(10)21-3)4-9-7-17-14(16)18-13(9)15/h5-7H,4H2,1-3H3,(H4,15,16,17,18)
Instrument: TripleTOF 5600 SCIEX
Instrument type: LC-ESI-QTOF
Ms type: MS2
Ion mode: POSITIVE
Collision energy: 40
Fragmentation mode: CID
Ionization: ESI
Column name: Zorbax Eclipse Plus C18 2.1 mm x 150 mm, 3.5 um, Agilent
Retention time: 5.112 min
Precursor m/z: 291.1452
Precursor type: [M+H]+
m/z	relative intensity
68.0375	27
81.0452	167
83.0478	21
91.0544	12
106.0399	12
109.0505	18
110.0595	340
111.0671	74
115.054	16
120.0553	19
123.0426	11
123.0672	825
124.075	47
131.0603	14
135.0665	24
137.0591	48
142.0649	16
143.0632	10
144.0552	10
145.0754	18
146.0706	38
147.0573	22
148.0527	10
148.0754	19
149.0245	10
149.0744	59
151.0406	47
156.0444	14
157.077	17
158.0631	11
159.0913	18
161.0834	82
162.0912	40
163.0942	9
165.0574	11
170.0691	40
171.0625	10
173.0786	25
174.0657	98
175.0625	19
175.0992	29
176.0654	12
181.0875	57
184.0881	31
185.0851	32
186.0573	22
186.092	20
187.098	163
189.0749	25
190.0863	38
191.0937	48
197.0823	12
198.0662	19
199.0993	40
200.0809	18
200.1059	31
201.0809	26
201.1151	224
202.049	10
202.1233	70
203.0948	33
205.1069	10
211.1008	12
212.0854	13
213.0811	26
213.1116	13
214.0843	22
215.0936	73
216.1011	32
217.0636	23
217.1145	28
219.0785	13
227.0949	14
228.1008	14
229.1095	416
230.1178	872
231.0884	126
232.0962	194
233.1045	283
242.0841	10
243.0879	16
244.0721	23
245.1048	241
246.1117	97
247.12	146
255.0893	17
257.1049	524
258.1133	134
259.085	97
259.1209	26
260.134	16
261.1	999
275.116	716
276.1216	80
291.1471	873
