Mass spectrum: 2-Methylquinoline; LC-ESI-QTOF; MS2; 40 V
Name: 2-Methylquinoline
Formula: C10H9N
Exact mass: 143.0735
SMILES: CC1=NC2=CC=CC=C2C=C1
InChI: InChI=1S/C10H9N/c1-8-6-7-9-4-2-3-5-10(9)11-8/h2-7H,1H3
Instrument: TripleTOF X500R SCIEX
Instrument type: LC-ESI-QTOF
Ms type: MS2
Ion mode: POSITIVE
Collision energy: 40
Fragmentation mode: CID
Ionization: ESI
Column name: Zorbax Eclipse Plus C18 2.1 mm x 150 mm, 3.5 um, Agilent
Retention time: 4.69 min
Precursor m/z: 144.0808
Precursor type: [M+H]+
m/z	relative intensity
51.0231	101
77.0388	498
78.0463	11
90.0457	11
91.0543	41
101.0389	108
102.0463	129
103.0544	292
115.0546	167
116.0493	16
116.062	31
117.0678	81
127.0549	76
128.0499	532
129.0588	71
142.0663	85
143.0732	402
144.0812	999
