Mass spectrum: o-Aminoazotoluene; LC-ESI-QTOF; MS2; 60 V
Name: o-Aminoazotoluene
Formula: C14H15N3
Exact mass: 225.1266
SMILES: CC1=CC=CC=C1N=NC2=CC(=C(C=C2)N)C
InChI: InChI=1S/C14H15N3/c1-10-5-3-4-6-14(10)17-16-12-7-8-13(15)11(2)9-12/h3-9H,15H2,1-2H3
Instrument: TripleTOF X500R SCIEX
Instrument type: LC-ESI-QTOF
Ms type: MS2
Ion mode: POSITIVE
Collision energy: 60
Fragmentation mode: CID
Ionization: ESI
Column name: Zorbax Eclipse Plus C18 2.1 mm x 150 mm, 3.5 um, Agilent
Retention time: 13.733 min
Precursor m/z: 226.1339
Precursor type: [M+H]+
m/z	relative intensity
38.0153	14
39.0228	185
41.0386	45
50.0151	10
51.0228	79
53.0386	12
62.0148	11
63.0227	93
64.0308	54
65.0383	646
66.0464	15
67.054	24
77.0386	360
78.034	35
79.0541	89
80.05	34
89.0383	999
90.0464	190
91.0542	448
92.0494	33
93.0573	68
94.0652	192
102.0341	12
104.049	43
105.0457	49
106.065	586
107.0731	226
115.0544	14
118.0525	20
119.0608	39
120.0724	12
121.0757	115
139.0544	31
140.053	20
163.0546	12
164.0637	15
165.0691	43
166.0659	33
167.0723	46
178.0696	9
180.0794	21
181.0768	9
191.0687	15
192.0675	24
193.0772	17
