Mass spectrum: Nilotinib; LC-ESI-QTOF; MS2; 120 V
Name: Nilotinib
Class: Pharmaceutical
Formula: C28H22F3N7O
Exact mass: 529.1838
SMILES: Cc1cn(cn1)c2cc(NC(=O)c3ccc(C)c(Nc4nccc(n4)c5cccnc5)c3)cc(c2)C(F)(F)F
InChI: InChI=1S/C28H22F3N7O/c1-17-5-6-19(10-25(17)37-27-33-9-7-24(36-27)20-4-3-8-32-14-20)26(39)35-22-11-21(28(29,30)31)12-23(13-22)38-15-18(2)34-16-38/h3-16H,1-2H3,(H,35,39)(H,33,36,37)
Instrument: TripleTOF 5600 SCIEX
Instrument type: LC-ESI-QTOF
Ms type: MS2
Ion mode: POSITIVE
Collision energy: 120
Fragmentation mode: CID
Ionization: ESI
Column name: Zorbax Eclipse Plus C18 2.1 mm x 150 mm, 3.5 um, Agilent
Retention time: 8.404 min
Precursor m/z: 530.1911
Precursor type: [M+H]+
m/z	relative intensity
77.0414	103
78.0367	41
78.0503	12
89.0407	48
90.0411	16
91.0564	35
102.0354	45
103.0414	19
104.0492	116
105.0439	16
114.0357	12
115.0412	35
116.0357	16
116.0495	41
117.0574	25
126.0281	12
128.0485	25
129.0444	83
130.0417	32
131.0602	96
140.0423	16
141.0425	16
142.0532	35
143.0601	16
145.0241	19
145.0741	12
151.0361	29
153.0383	22
153.051	16
155.0618	45
156.0557	90
164.049	19
166.0479	16
170.0694	16
179.0602	25
182.0748	19
190.0578	29
191.0606	32
192.066	38
193.0628	64
194.067	51
195.0706	16
204.0617	19
205.0773	35
206.0764	29
207.0944	16
208.09	22
213.0626	19
216.0706	25
217.061	32
217.0723	22
218.0731	106
219.0804	80
220.0829	48
229.0706	12
230.0705	22
231.0769	58
232.0894	80
233.0912	38
243.0677	45
243.0814	29
244.0756	605
244.1235	16
245.0829	270
246.0905	77
256.0775	25
257.0814	244
258.0888	180
259.0985	999
260.1044	25
