Mass spectrum: Desmetryn; LC-ESI-QTOF; MS2; 120 V
Name: Desmetryn
Class: Herbicide
Formula: C8H15N5S
Exact mass: 213.1048
SMILES: CC(C)NC1=NC(=NC(=N1)NC)SC
InChI: InChI=1S/C8H15N5S/c1-5(2)10-7-11-6(9-3)12-8(13-7)14-4/h5H,1-4H3,(H2,9,10,11,12,13)
Instrument: TripleTOF 6600 SCIEX
Instrument type: LC-ESI-QTOF
Ms type: MS2
Ion mode: POSITIVE
Collision energy: 120
Fragmentation mode: CID
Ionization: ESI
Column name: Zorbax Eclipse Plus C18 2.1 mm x 150 mm, 3.5 um, Agilent
Retention time: 7.281 min
Precursor m/z: 214.1121
Precursor type: [M+H]+
m/z	relative intensity
37.0061	55
38.014	55
39.0214	127
41.0123	116
41.0375	33
42.02	199
42.032	55
43.0281	999
43.9697	22
44.978	255
45.973	27
46.9937	111
53.0117	88
55.0273	138
57.0432	222
57.9727	122
58.9808	149
59.9886	188
68.0226	344
82.037	27
84.9829	61
