Mass spectrum: Diazinon; LC-ESI-QTOF; MS2; 120 V
Name: Diazinon
Class: Insecticide
Formula: C12H21N2O3PS
Exact mass: 304.1011
SMILES: CCO[P](=S)(OCC)Oc1cc(C)nc(n1)C(C)C
InChI: InChI=1S/C12H21N2O3PS/c1-6-15-18(19,16-7-2)17-11-8-10(5)13-12(14-11)9(3)4/h8-9H,6-7H2,1-5H3
Instrument: TripleTOF 5600 SCIEX
Instrument type: LC-ESI-QTOF
Ms type: MS2
Ion mode: POSITIVE
Collision energy: 120
Fragmentation mode: CID
Ionization: ESI
Column name: Zorbax Eclipse Plus C18 2.1 mm x 150 mm, 3.5 um, Agilent
Retention time: 14.526 min
Precursor m/z: 305.1083
Precursor type: [M+H]+
m/z	relative intensity
42.0432	268
54.0397	54
57.9917	33
59.0001	55
59.9953	54
60.0068	22
62.951	11
62.9679	286
64.9843	936
65.0179	12
66.0383	12
67.0456	62
71.0001	9
78.9439	999
80.0514	13
80.9768	267
82.9973	78
84.0469	28
90.9972	12
94.0651	14
96.9524	994
100.0223	29
