Mass spectrum: Fenbendazole; LC-ESI-QTOF; MS2; 140 V
Name: Fenbendazole
Class: Pharmaceutical
Formula: C15H13N3O2S
Exact mass: 299.0728
SMILES: COC(=O)Nc1[nH]c2cc(Sc3ccccc3)ccc2n1
InChI: InChI=1S/C15H13N3O2S/c1-20-15(19)18-14-16-12-8-7-11(9-13(12)17-14)21-10-5-3-2-4-6-10/h2-9H,1H3,(H2,16,17,18,19)
Instrument: TripleTOF 5600 SCIEX
Instrument type: LC-ESI-QTOF
Ms type: MS2
Ion mode: POSITIVE
Collision energy: 140
Fragmentation mode: CID
Ionization: ESI
Column name: Zorbax Eclipse Plus C18 2.1 mm x 150 mm, 3.5 um, Agilent
Retention time: 9.947 min
Precursor m/z: 300.0801
Precursor type: [M+H]+
m/z	relative intensity
51.0175	15
51.0285	285
52.0294	188
53.0212	15
53.0314	31
60.0026	18
65.0291	39
65.0419	49
66.038	31
67.9748	31
68.9826	298
69.0108	94
69.9897	26
74.0185	39
75.0139	261
75.0346	18
76.021	999
77.0287	546
78.0363	149
79.0457	15
80.9827	20
81.9885	94
82.9849	20
83.9921	13
86.0166	20
87.0251	31
88.0262	44
89.0406	86
90.0363	23
91.0434	10
92.038	44
92.9797	96
92.9969	10
93.9752	13
93.9861	13
94.9953	67
98.0159	15
99.0238	26
101.0397	47
102.0468	54
103.0295	60
104.0362	41
105.0446	28
108.0053	10
109.0003	13
110.0096	13
113.0394	60
114.0332	18
114.045	23
115.0538	49
119.9901	15
122.0057	10
125.0384	26
126.0453	96
127.0532	78
128.0603	20
130.0393	15
137.0395	31
138.0467	18
139.0538	54
140.0485	33
145.0098	18
152.0482	13
153.0576	15
158.0198	18
164.0501	18
169.0106	36
171.0279	23
196.0204	20
