Mass spectrum: Caprolactam; LC-ESI-QTOF; MS2; 70 V
Name: Caprolactam
Class: Food_additive; Industrial_process
Formula: C6H11NO
Exact mass: 113.0841
SMILES: C1CCC(=O)NCC1
InChI: InChI=1S/C6H11NO/c8-6-4-2-1-3-5-7-6/h1-5H2,(H,7,8)
Instrument: TripleTOF 6600 SCIEX
Instrument type: LC-ESI-QTOF
Ms type: MS2
Ion mode: POSITIVE
Collision energy: 70
Fragmentation mode: CID
Ionization: ESI
Column name: Zorbax Eclipse Plus C18 2.1 mm x 150 mm, 3.5 um, Agilent
Retention time: 5.197 min
Precursor m/z: 114.0914
Precursor type: [M+H]+
m/z	relative intensity
30.0343	11
36.0	24
37.0078	109
38.0033	29
38.0158	101
39.0239	290
41.0263	14
41.0392	25
42.0105	11
42.0347	27
43.0065	14
43.0185	18
44.014	999
50.0159	18
51.0235	20
53.0141	12
