Mass spectrum: 2-Methyl-4`-(methylthio)-2-morpholinopropiophenone; LC-ESI-QTOF; MS2; 140 V
Name: 2-Methyl-4`-(methylthio)-2-morpholinopropiophenone
Class: Industrial_process
Formula: C15H21NO2S
Exact mass: 279.1293
SMILES: CC(C)(C(=O)C1=CC=C(C=C1)SC)N2CCOCC2
InChI: InChI=1S/C15H21NO2S/c1-15(2,16-8-10-18-11-9-16)14(17)12-4-6-13(19-3)7-5-12/h4-7H,8-11H2,1-3H3
Instrument: TripleTOF 6600 SCIEX
Instrument type: LC-ESI-QTOF
Ms type: MS2
Ion mode: POSITIVE
Collision energy: 140
Fragmentation mode: CID
Ionization: ESI
Column name: Zorbax Eclipse Plus C18 2.1 mm x 150 mm, 3.5 um, Agilent
Retention time: 7.548 min
Precursor m/z: 280.1366
Precursor type: [M+H]+
m/z	relative intensity
37.0075	113
38.0152	89
39.0232	445
41.0261	29
41.0387	49
42.0338	89
44.9791	89
49.007	118
50.0152	573
51.0231	999
52.0305	64
56.0491	29
61.0072	89
62.0146	187
63.0229	395
65.0385	682
66.0458	19
67.9718	29
68.9789	351
73.0081	19
74.0156	153
75.0225	108
76.0292	49
77.0381	637
78.0462	98
81.9869	44
89.0375	281
91.0537	400
92.9792	34
102.0455	79
103.0544	24
105.044	29
115.0531	361
121.0101	182
134.0167	34
