Mass spectrum: 3-Hydroxycarbamazepine; LC-ESI-QTOF; MS2; 70 V
Name: 3-Hydroxycarbamazepine
Class: Pharmaceutical
Formula: C15H12N2O2
Exact mass: 252.0899
SMILES: NC(=O)N1c2ccccc2C=Cc3ccc(O)cc13
InChI: InChI=1S/C15H12N2O2/c16-15(19)17-13-4-2-1-3-10(13)5-6-11-7-8-12(18)9-14(11)17/h1-9,18H,(H2,16,19)
Instrument: TripleTOF 5600 SCIEX
Instrument type: LC-ESI-QTOF
Ms type: MS2
Ion mode: POSITIVE
Collision energy: 70
Fragmentation mode: CID
Ionization: ESI
Column name: Zorbax Eclipse Plus C18 2.1 mm x 150 mm, 3.5 um, Agilent
Retention time: 7.917 min
Precursor m/z: 253.0972
Precursor type: [M+H]+
m/z	relative intensity
65.0432	17
77.0409	85
78.0489	16
89.0403	136
90.0479	50
91.0549	20
101.0392	33
102.0475	13
104.049	16
105.0344	12
113.0394	23
114.0455	20
115.0544	238
116.0491	30
117.0572	60
125.0371	10
126.0459	27
127.054	142
128.0505	112
129.0637	16
138.0459	16
139.0542	434
140.0528	297
141.0573	19
150.0456	47
151.054	205
152.0625	736
153.0687	178
154.0647	134
155.0709	17
162.0484	13
163.0542	129
164.0615	123
165.0698	233
166.0653	758
167.0731	835
176.0495	11
177.0574	42
178.0649	296
179.0727	179
180.081	999
181.0678	64
181.0873	117
182.0608	26
182.0957	11
183.0682	32
188.0498	15
189.0574	31
190.0648	202
191.0734	165
192.0809	53
193.0893	10
194.0619	12
195.0672	25
206.0581	50
207.0683	88
208.0748	110
209.0835	64
