Mass spectrum: Piracetam; LC-ESI-QTOF; MS2; 10 V
Name: Piracetam
Class: Pharmaceutical
Formula: C6H10N2O2
Exact mass: 142.0742
SMILES: NC(=O)CN1CCCC1=O
InChI: InChI=1S/C6H10N2O2/c7-5(9)4-8-3-1-2-6(8)10/h1-4H2,(H2,7,9)
Instrument: TripleTOF 5600 SCIEX
Instrument type: LC-ESI-QTOF
Ms type: MS2
Ion mode: POSITIVE
Collision energy: 10
Fragmentation mode: CID
Ionization: ESI
Column name: Zorbax Eclipse Plus C18 2.1 mm x 150 mm, 3.5 um, Agilent
Retention time: 2.615 min
Precursor m/z: 143.0815
Precursor type: [M+H]+
m/z	relative intensity
60.9927	34
70.0685	21
98.0605	314
102.0132	960
126.0548	999
