Mass spectrum: Tolnaftate; LC-ESI-QTOF; MS2; 60 V
Name: Tolnaftate
Class: Fungicide; Pharmaceutical
Formula: C19H17NOS
Exact mass: 307.1031
SMILES: CC1=CC(=CC=C1)N(C)C(=S)OC2=CC3=CC=CC=C3C=C2
InChI: InChI=1S/C19H17NOS/c1-14-6-5-9-17(12-14)20(2)19(22)21-18-11-10-15-7-3-4-8-16(15)13-18/h3-13H,1-2H3
Instrument: TripleTOF 5600 SCIEX
Instrument type: LC-ESI-QTOF
Ms type: MS2
Ion mode: POSITIVE
Collision energy: 60
Fragmentation mode: CID
Ionization: ESI
Column name: Zorbax Eclipse Plus C18 2.1 mm x 150 mm, 3.5 um, Agilent
Retention time: 15.53 min
Precursor m/z: 308.1104
Precursor type: [M+H]+
m/z	relative intensity
44.9789	24
65.0386	173
77.0384	81
79.0542	67
91.0541	999
92.0613	48
93.0695	54
103.0545	10
104.0501	18
105.0568	13
106.077	12
107.0504	16
115.0534	16
117.0576	19
118.0645	19
120.0807	384
123.0256	209
127.0529	13
132.0439	10
133.0539	18
136.0224	16
148.0208	18
148.0759	39
149.0291	227
164.0529	159
