Mass spectrum: 3-Hydroxycarbamazepine; LC-ESI-QTOF; MS2; 90 V
Name: 3-Hydroxycarbamazepine
Class: Pharmaceutical; Transformation_product-Metabolite
Formula: C15H12N2O2
Exact mass: 252.0899
SMILES: NC(=O)N1c2ccccc2C=Cc3ccc(O)cc13
InChI: InChI=1S/C15H12N2O2/c16-15(19)17-13-4-2-1-3-10(13)5-6-11-7-8-12(18)9-14(11)17/h1-9,18H,(H2,16,19)
Instrument: TripleTOF 5600 SCIEX
Instrument type: LC-ESI-QTOF
Ms type: MS2
Ion mode: POSITIVE
Collision energy: 90
Fragmentation mode: CID
Ionization: ESI
Column name: Zorbax Eclipse Plus C18 2.1 mm x 150 mm, 3.5 um, Agilent
Retention time: 7.917 min
Precursor m/z: 253.0972
Precursor type: [M+H]+
m/z	relative intensity
64.0368	12
65.0424	46
74.0185	23
75.0249	60
76.0332	18
77.041	266
78.0481	19
86.0153	18
87.0234	27
88.0311	27
89.0398	360
90.0461	72
91.0545	26
98.0149	11
99.0229	15
101.0386	107
102.046	71
103.0526	16
104.0485	16
113.0377	157
114.0447	97
115.0537	297
116.0489	43
117.0557	26
125.0371	41
126.0457	145
127.0535	244
128.0493	157
129.0466	19
130.0639	13
137.0379	39
138.0453	41
139.0536	786
140.049	505
141.0557	22
149.0389	20
150.0463	194
151.0535	451
152.0613	999
153.0625	142
154.0644	103
161.0354	11
162.0454	40
163.0531	269
164.0539	180
165.0679	104
166.0636	399
167.0715	115
175.044	12
176.0499	16
177.0562	72
178.064	402
179.0718	184
180.0797	289
181.0631	19
188.0479	47
189.0559	62
190.0639	127
191.0712	79
206.0573	25
207.0671	29
208.0743	13
