Mass spectrum: 2-Morpholin-4-yl-benzothiazole; LC-ESI-QTOF; MS2; 50 V
Name: 2-Morpholin-4-yl-benzothiazole
Class: Industrial_process
Formula: C11H12N2OS
Exact mass: 220.067
SMILES: c1ccc2c(c1)nc(s2)N3CCOCC3
InChI: InChI=1S/C11H12N2OS/c1-2-4-10-9(3-1)12-11(15-10)13-5-7-14-8-6-13/h1-4H,5-8H2
Instrument: TripleTOF 5600 SCIEX
Instrument type: LC-ESI-QTOF
Ms type: MS2
Ion mode: POSITIVE
Collision energy: 50
Fragmentation mode: CID
Ionization: ESI
Column name: Zorbax Eclipse Plus C18 2.1 mm x 150 mm, 3.5 um, Agilent
Retention time: 9.363 min
Precursor m/z: 221.0743
Precursor type: [M+H]+
m/z	relative intensity
45.0424	14
55.0589	10
65.043	144
67.0588	11
68.9827	21
74.0085	10
77.0405	58
79.0574	14
80.0514	64
89.0398	10
90.0341	12
91.0548	38
92.0498	25
96.0024	18
104.0486	11
105.0452	16
105.0685	13
106.0645	24
108.002	52
109.0112	999
116.0488	25
117.057	188
123.0133	30
124.0206	98
134.0048	60
135.0126	91
136.0212	395
144.0671	16
148.0204	24
149.0276	71
150.0357	385
151.0317	60
162.0368	16
163.0313	31
175.0319	101
177.047	154
189.0475	23
221.0735	12
