Mass spectrum: 3,5-bis(hexanoylamino)-2,4,6-triiodobenzoic acid; LC-ESI-QTOF; MS2; 50 V
Name: 3,5-bis(hexanoylamino)-2,4,6-triiodobenzoic acid
Class: Pharmaceutical; Transformation_product
Formula: C19H25I3N2O4
Exact mass: 725.8949
SMILES: CCCCCC(=O)Nc1c(I)c(NC(=O)CCCCC)c(I)c(C(O)=O)c1I
InChI: InChI=1S/C19H25I3N2O4/c1-3-5-7-9-11(25)23-17-14(20)13(19(27)28)15(21)18(16(17)22)24-12(26)10-8-6-4-2/h3-10H2,1-2H3,(H,23,25)(H,24,26)(H,27,28)
Instrument: TripleTOF 5600 SCIEX
Instrument type: LC-ESI-QTOF
Ms type: MS2
Ion mode: POSITIVE
Collision energy: 50
Fragmentation mode: CID
Ionization: ESI
Column name: Zorbax Eclipse Plus C18 2.1 mm x 150 mm, 3.5 um, Agilent
Retention time: 11.575 min
Precursor m/z: 726.9021
Precursor type: [M+H]+
m/z	relative intensity
204.1018	11
248.1157	10
303.1335	11
345.1816	999
375.0202	56
473.0947	801
