Mass spectrum: Ciprofloxacin; LC-ESI-QTOF; MS2; 40 V
Name: Ciprofloxacin
Class: Pharmaceutical
Formula: C17H18FN3O3
Exact mass: 331.1332
SMILES: C1CC1N2C=C(C(=O)C3=CC(=C(C=C32)N4CCNCC4)F)C(=O)O
InChI: InChI=1S/C17H18FN3O3/c18-13-7-11-14(8-15(13)20-5-3-19-4-6-20)21(10-1-2-10)9-12(16(11)22)17(23)24/h7-10,19H,1-6H2,(H,23,24)
Instrument: TripleTOF 6600 SCIEX
Instrument type: LC-ESI-QTOF
Ms type: MS2
Ion mode: POSITIVE
Collision energy: 40
Fragmentation mode: CID
Ionization: ESI
Column name: Zorbax Eclipse Plus C18 2.1 mm x 150 mm, 3.5 um, Agilent
Retention time: 5.497 min
Precursor m/z: 332.1405
Precursor type: [M+H]+
m/z	relative intensity
154.0688	18
162.0362	18
175.0695	51
176.0733	28
185.0748	18
187.0667	28
189.046	75
191.0613	32
201.0791	18
202.0509	18
203.0618	155
204.071	122
205.0802	113
217.0764	32
218.0856	23
227.1039	28
231.0578	999
231.0936	42
245.1097	343
268.1466	56
288.1516	103
294.1248	65
314.1314	796
332.1431	47
