Mass spectrum: Benzyl-dimethyl-dodecylammonium; LC-ESI-QTOF; MS2; 120 V
Name: Benzyl-dimethyl-dodecylammonium
Class: Herbicide; Industrial_process
Formula: [C21H38N]+
Exact mass: 304.2999
SMILES: CCCCCCCCCCCC[N+](C)(C)Cc1ccccc1
InChI: InChI=1S/C21H38N/c1-4-5-6-7-8-9-10-11-12-16-19-22(2,3)20-21-17-14-13-15-18-21/h13-15,17-18H,4-12,16,19-20H2,1-3H3/q+1
Instrument: TripleTOF 5600 SCIEX
Instrument type: LC-ESI-QTOF
Ms type: MS2
Ion mode: POSITIVE
Collision energy: 120
Fragmentation mode: CID
Ionization: ESI
Column name: Zorbax Eclipse Plus C18 2.1 mm x 150 mm, 3.5 um, Agilent
Retention time: 11.589 min
Precursor m/z: 304.2999
Precursor type: [M]+
m/z	relative intensity
58.0693	122
65.0428	738
91.0553	999
