Mass spectrum: 2H,2H,3H,3H-Perfluorodecanoic acid; LC-ESI-QTOF; MS2; 60 V
Name: 2H,2H,3H,3H-Perfluorodecanoic acid
Formula: C10H5F15O2
Exact mass: 442.005
SMILES: C(CC(C(C(C(C(C(C(F)(F)F)(F)F)(F)F)(F)F)(F)F)(F)F)(F)F)C(=O)O
InChI: InChI=1S/C10H5F15O2/c11-4(12,2-1-3(26)27)5(13,14)6(15,16)7(17,18)8(19,20)9(21,22)10(23,24)25/h1-2H2,(H,26,27)
Instrument: TripleTOF 6600 SCIEX
Instrument type: LC-ESI-QTOF
Ms type: MS2
Ion mode: NEGATIVE
Collision energy: 60
Fragmentation mode: CID
Ionization: ESI
Column name: Zorbax Eclipse Plus C18 2.1 mm x 150 mm, 3.5 um, Agilent
Retention time: 14.147 min
Precursor m/z: 440.9977
Precursor type: [M-H]-
m/z	relative intensity
39.0032	84
62.9858	56
92.9926	117
97.9944	89
116.9933	44
147.9921	185
154.9922	44
166.9896	84
178.9917	28
192.9828	44
197.9879	230
216.9854	168
242.9831	117
247.9838	89
266.9822	999
316.9792	544
332.9663	22
