Mass spectrum: Remdesivir; LC-ESI-QTOF; MS2; 90 V
Name: Remdesivir
Class: Pharmaceutical
Formula: C27H35N6O8P
Exact mass: 602.2254
SMILES: CCC(CC)COC(=O)C(C)NP(=O)(OCC1C(C(C(O1)(C#N)C2=CC=C3N2N=CN=C3N)O)O)OC4=CC=CC=C4
InChI: InChI=1S/C27H35N6O8P/c1-4-18(5-2)13-38-26(36)17(3)32-42(37,41-19-9-7-6-8-10-19)39-14-21-23(34)24(35)27(15-28,40-21)22-12-11-20-25(29)30-16-31-33(20)22/h6-12,16-18,21,23-24,34-35H,4-5,13-14H2,1-3H3,(H,32,37)(H2,29,30,31)
Instrument: TripleTOF 6600 SCIEX
Instrument type: LC-ESI-QTOF
Ms type: MS2
Ion mode: POSITIVE
Collision energy: 90
Fragmentation mode: CID
Ionization: ESI
Column name: Zorbax Eclipse Plus C18 2.1 mm x 150 mm, 3.5 um, Agilent
Retention time: 9.974 min
Precursor m/z: 603.2327
Precursor type: [M+H]+
m/z	relative intensity
39.0229	21
41.0386	11
43.0543	37
44.0496	306
67.0176	53
77.0383	210
78.0337	24
78.9937	20
79.989	40
87.994	14
91.0535	18
93.0442	10
93.0689	22
95.0486	214
103.0281	18
103.0535	129
104.036	10
104.0488	11
105.0441	141
106.0046	172
118.0642	20
119.0236	24
119.0599	46
120.0551	26
120.0799	76
121.0642	288
124.015	29
129.0447	15
130.0395	75
131.0483	39
132.0554	16
133.0391	10
135.0659	76
137.0145	33
141.0094	24
146.0709	48
147.0661	619
156.0203	35
156.0553	14
157.0044	11
158.0344	15
159.0661	39
161.0453	76
164.0259	39
165.0096	582
172.0612	48
173.0673	10
173.0815	67
174.0766	38
175.0143	38
175.0612	73
182.0362	305
183.0204	254
199.0152	25
200.0471	999
201.0764	24
202.0721	59
229.0714	31
