Mass spectrum: Aspartame; LC-ESI-QTOF; MS2; 60 V
Name: Aspartame
Class: Food_additive
Formula: C14H18N2O5
Exact mass: 294.1216
SMILES: COC(=O)C(Cc1ccccc1)NC(=O)C(N)CC(O)=O
InChI: InChI=1S/C14H18N2O5/c1-21-14(20)11(7-9-5-3-2-4-6-9)16-13(19)10(15)8-12(17)18/h2-6,10-11H,7-8,15H2,1H3,(H,16,19)(H,17,18)
Instrument: TripleTOF 5600 SCIEX
Instrument type: LC-ESI-QTOF
Ms type: MS2
Ion mode: POSITIVE
Collision energy: 60
Fragmentation mode: CID
Ionization: ESI
Column name: Zorbax Eclipse Plus C18 2.1 mm x 150 mm, 3.5 um, Agilent
Retention time: 5.761 min
Precursor m/z: 295.1288
Precursor type: [M+H]+
m/z	relative intensity
43.0258	33
65.0432	13
70.0325	84
77.0416	149
88.0407	58
91.0563	293
93.0711	86
102.0474	10
103.0553	555
117.0697	11
118.066	16
119.0721	11
120.0814	999
121.0645	79
127.0534	25
128.0552	33
130.065	81
144.0804	25
154.0646	32
