Mass spectrum: 5-Methyl-1H-benzotriazole; LC-ESI-QTOF; MS2; 30 V
Name: 5-Methyl-1H-benzotriazole
Class: Industrial_process
Formula: C7H7N3
Exact mass: 133.064
SMILES: Cc1ccc2n[nH]nc2c1
InChI: InChI=1S/C7H7N3/c1-5-2-3-6-7(4-5)9-10-8-6/h2-4H,1H3,(H,8,9,10)
Instrument: TripleTOF 5600 SCIEX
Instrument type: LC-ESI-QTOF
Ms type: MS2
Ion mode: POSITIVE
Collision energy: 30
Fragmentation mode: CID
Ionization: ESI
Column name: Zorbax Eclipse Plus C18 2.1 mm x 150 mm, 3.5 um, Agilent
Retention time: 7.021 min
Precursor m/z: 134.0713
Precursor type: [M+H]+
m/z	relative intensity
51.029	36
66.0493	16
67.0449	22
77.0418	999
78.0354	28
79.057	464
80.0509	27
89.0403	25
91.0425	43
104.0489	12
106.0647	128
134.0709	452
