Mass spectrum: Penconazol; LC-ESI-QTOF; MS2; 100 V
Name: Penconazol
Class: Fungicide
Formula: C13H15Cl2N3
Exact mass: 283.0643
SMILES: CCCC(CN1C=NC=N1)C2=C(C=C(C=C2)Cl)Cl
InChI: InChI=1S/C13H15Cl2N3/c1-2-3-10(7-18-9-16-8-17-18)12-5-4-11(14)6-13(12)15/h4-6,8-10H,2-3,7H2,1H3
Instrument: TripleTOF 6600 SCIEX
Instrument type: LC-ESI-QTOF
Ms type: MS2
Ion mode: POSITIVE
Collision energy: 100
Fragmentation mode: CID
Ionization: ESI
Column name: Zorbax Eclipse Plus C18 2.1 mm x 150 mm, 3.5 um, Agilent
Retention time: 12.845 min
Precursor m/z: 284.0716
Precursor type: [M+H]+
m/z	relative intensity
39.0231	27
42.0215	10
43.0296	160
46.9684	26
48.9841	33
50.0154	28
51.0231	29
61.0076	48
62.0154	167
63.0234	338
70.0403	307
72.9843	499
74.0153	70
75.0229	134
76.031	40
77.0386	21
82.9451	45
86.0152	16
87.0226	28
88.031	73
89.0391	999
96.9842	145
98.9997	126
101.0385	13
102.0463	75
106.9453	17
122.9997	162
124.0076	31
132.9609	54
158.977	20
