Mass spectrum: N-desmethyl-venlafaxine; LC-ESI-QTOF; MS2; 70 V
Name: N-desmethyl-venlafaxine
Class: Pharmaceutical; Metabolite
Formula: C16H25NO2
Exact mass: 263.1885
SMILES: CNCC(c1ccc(cc1)OC)C2(CCCCC2)O
InChI: InChI=1S/C16H25NO2/c1-17-12-15(16(18)10-4-3-5-11-16)13-6-8-14(19-2)9-7-13/h6-9,15,17-18H,3-5,10-12H2,1-2H3
Instrument: TripleTOF 5600 SCIEX
Instrument type: LC-ESI-QTOF
Ms type: MS2
Ion mode: POSITIVE
Collision energy: 70
Fragmentation mode: CID
Ionization: ESI
Column name: Zorbax Eclipse Plus C18 2.1 mm x 150 mm, 3.5 um, Agilent
Retention time: 6.444 min
Precursor m/z: 264.1958
Precursor type: [M+H]+
m/z	relative intensity
44.0579	980
53.0432	14
55.0573	18
65.0418	205
77.0406	580
77.0671	25
78.0481	536
79.0562	209
81.0711	73
89.0408	25
90.0491	18
91.0552	999
91.0946	25
93.0684	14
102.0472	36
103.054	150
104.0607	91
105.0693	25
106.0405	66
106.0656	22
107.0478	66
108.0555	18
115.0536	528
116.0605	62
117.0676	55
119.0483	14
121.0641	855
127.0542	66
128.0608	139
129.0691	66
130.0777	22
131.0506	121
132.056	66
133.0536	25
134.0579	36
141.0697	44
144.0566	29
145.0647	22
147.0795	33
148.0751	25
157.0636	29
158.0727	40
