Mass spectrum: Ritalinic acid; LC-ESI-QTOF; MS2; 60 V
Name: Ritalinic acid
Class: Pharmaceutical; Metabolite; Transformation_product-Metabolite
Formula: C13H17NO2
Exact mass: 219.1259
SMILES: OC(=O)C(C1CCCCN1)c2ccccc2
InChI: InChI=1S/C13H17NO2/c15-13(16)12(10-6-2-1-3-7-10)11-8-4-5-9-14-11/h1-3,6-7,11-12,14H,4-5,8-9H2,(H,15,16)
Instrument: TripleTOF 5600 SCIEX
Instrument type: LC-ESI-QTOF
Ms type: MS2
Ion mode: POSITIVE
Collision energy: 60
Fragmentation mode: CID
Ionization: ESI
Column name: Zorbax Eclipse Plus C18 2.1 mm x 150 mm, 3.5 um, Agilent
Retention time: 4.91 min
Precursor m/z: 220.1332
Precursor type: [M+H]+
m/z	relative intensity
55.0548	69
56.0496	377
65.0397	29
67.0557	40
77.0379	46
82.0679	46
84.0812	999
91.0541	145
115.0549	81
128.0632	69
129.0682	29
