Mass spectrum: Iopromide; LC-ESI-QTOF; MS2; 140 V
Name: Iopromide
Class: Pharmaceutical
Formula: C18H24I3N3O8
Exact mass: 790.8698
SMILES: COCC(=O)Nc1c(I)c(C(=O)NCC(O)CO)c(I)c(c1I)C(=O)N(C)CC(O)CO
InChI: InChI=1S/C18H24I3N3O8/c1-24(4-9(28)6-26)18(31)12-13(19)11(17(30)22-3-8(27)5-25)14(20)16(15(12)21)23-10(29)7-32-2/h8-9,25-28H,3-7H2,1-2H3,(H,22,30)(H,23,29)
Instrument: TripleTOF 5600 SCIEX
Instrument type: LC-ESI-QTOF
Ms type: MS2
Ion mode: POSITIVE
Collision energy: 140
Fragmentation mode: CID
Ionization: ESI
Column name: Zorbax Eclipse Plus C18 2.1 mm x 150 mm, 3.5 um, Agilent
Retention time: 4.895 min
Precursor m/z: 791.877
Precursor type: [M+H]+
m/z	relative intensity
77.0034	136
86.0056	105
88.0179	121
89.0275	605
100.0183	166
101.026	408
101.9976	105
102.0349	60
103.0408	121
104.048	75
113.9972	166
116.0115	272
116.0367	75
117.0201	999
128.0133	136
129.02	90
130.0261	75
131.0601	60
141.99	136
143.0581	60
144.0088	151
145.0152	242
152.9195	166
154.8947	121
173.0101	75
177.9142	242
186.9024	75
188.9213	105
200.9109	181
203.9286	105
212.907	151
215.9287	181
226.9218	211
227.9308	363
228.9286	151
241.9085	105
243.9262	302
254.9121	60
255.9261	121
271.9187	408
285.9312	75
299.9127	499
339.8102	75
