Mass spectrum: Methyl-N-phenylcarbamate; LC-ESI-QTOF; MS2; 40 V
Name: Methyl-N-phenylcarbamate
Formula: C8H9NO2
Exact mass: 151.0633
SMILES: COC(=O)NC1=CC=CC=C1
InChI: InChI=1S/C8H9NO2/c1-11-8(10)9-7-5-3-2-4-6-7/h2-6H,1H3,(H,9,10)
Instrument: TripleTOF 5600 SCIEX
Instrument type: LC-ESI-QTOF
Ms type: MS2
Ion mode: POSITIVE
Collision energy: 40
Fragmentation mode: CID
Ionization: ESI
Column name: Zorbax Eclipse Plus C18 2.1 mm x 150 mm, 3.5 um, Agilent
Retention time: 8.469 min
Precursor m/z: 152.0706
Precursor type: [M+H]+
m/z	relative intensity
39.0226	12
51.0232	166
59.0125	38
65.0392	217
66.0461	115
77.0385	999
78.0322	12
91.0545	38
92.0497	422
93.057	217
106.0634	25
106.0697	12
120.0457	140
