Mass spectrum: Pyroxsulam; LC-ESI-QTOF; MS2; 120 V
Name: Pyroxsulam
Class: Herbicide
Formula: C14H13F3N6O5S
Exact mass: 434.062
SMILES: COC1=CC(=NC2=NC(=NN12)NS(=O)(=O)C3=C(C=CN=C3OC)C(F)(F)F)OC
InChI: InChI=1S/C14H13F3N6O5S/c1-26-8-6-9(27-2)23-13(19-8)20-12(21-23)22-29(24,25)10-7(14(15,16)17)4-5-18-11(10)28-3/h4-6H,1-3H3,(H,21,22)
Instrument: TripleTOF 6600 SCIEX
Instrument type: LC-ESI-QTOF
Ms type: MS2
Ion mode: NEGATIVE
Collision energy: 120
Fragmentation mode: CID
Ionization: ESI
Column name: Zorbax Eclipse Plus C18 2.1 mm x 150 mm, 3.5 um, Agilent
Retention time: 9.651 min
Precursor m/z: 433.0547
Precursor type: [M-H]-
m/z	relative intensity
40.006	83
41.0145	29
41.9975	53
50.0022	53
61.007	41
64.0052	77
65.0139	167
65.9981	496
66.0077	999
68.9936	167
74.0038	29
76.0193	35
86.0032	35
88.0173	65
89.0072	89
90.0093	53
93.0094	29
106.0097	35
107.0116	59
108.0266	41
109.024	29
111.9993	35
114.0108	47
116.0213	41
159.0087	35
162.0161	41
172.023	29
211.0267	23
227.0202	35
