Mass spectrum: 11alpha-Hydroxyprogesterone; LC-ESI-QTOF; MS2; 70 V
Name: 11alpha-Hydroxyprogesterone
Class: Pharmaceutical; Metabolite
Formula: C21H30O3
Exact mass: 330.2195
SMILES: CC(=O)C1CC[C@H]2[C@@H]3CCC4=CC(=O)CC[C@]4(C)[C@H]3[C@H](O)C[C@]12C
InChI: InChI=1S/C21H30O3/c1-12(22)16-6-7-17-15-5-4-13-10-14(23)8-9-20(13,2)19(15)18(24)11-21(16,17)3/h10,15-19,24H,4-9,11H2,1-3H3/t15-,16?,17-,18+,19+,20-,21+/m0/s1
Instrument: TripleTOF 5600 SCIEX
Instrument type: LC-ESI-QTOF
Ms type: MS2
Ion mode: POSITIVE
Collision energy: 70
Fragmentation mode: CID
Ionization: ESI
Column name: Zorbax Eclipse Plus C18 2.1 mm x 150 mm, 3.5 um, Agilent
Retention time: 10.293 min
Precursor m/z: 331.2268
Precursor type: [M+H]+
m/z	relative intensity
43.0263	422
51.0288	32
55.0233	45
65.0414	138
67.0581	241
69.0365	16
69.0736	19
71.0526	45
77.0417	563
77.0732	25
78.0499	25
79.0568	406
81.0355	19
81.0712	177
83.0496	148
85.0705	19
89.044	16
91.056	999
93.0709	212
94.0422	29
95.0519	22
95.0864	138
97.0649	244
103.0552	125
104.061	25
105.0699	644
105.107	16
107.0485	77
107.0845	54
108.0559	16
109.0641	103
115.0533	225
116.0621	93
117.0689	193
119.0856	151
121.0638	386
121.1026	22
123.0791	193
127.0545	77
128.0615	248
129.0692	277
130.0765	80
131.048	19
131.0852	186
132.0575	22
133.0636	32
133.101	64
135.1156	19
141.069	244
142.0761	141
143.0842	132
144.0551	16
144.094	32
145.0666	25
145.1004	74
146.0751	16
147.08	48
147.1151	35
148.0878	58
148.1027	12
149.0962	12
152.0628	41
153.0692	93
154.0767	61
155.0848	103
156.0922	51
157.0621	12
157.0998	45
158.1059	16
159.0775	19
159.1147	25
161.1013	12
163.1101	32
165.0687	74
166.0749	22
167.0841	77
168.0959	25
169.0998	48
170.1084	19
171.1182	29
173.0957	25
173.1287	16
174.1042	12
178.0761	32
179.0822	51
181.1001	41
182.1074	35
183.1124	16
185.1296	25
191.09	12
192.0887	25
193.1028	16
195.1173	35
198.1017	16
207.1148	32
208.1225	12
213.1243	19
