Mass spectrum: Dehydroaripiprazole; LC-ESI-QTOF; MS2; 130 V
Name: Dehydroaripiprazole
Class: Metabolite; Pharmaceutical; Transformation_product-Metabolite
Formula: C23H25Cl2N3O2
Exact mass: 445.1324
SMILES: C1CN(CCN1CCCCOC2=CC3=C(C=C2)C=CC(=O)N3)C4=C(C(=CC=C4)Cl)Cl
InChI: InChI=1S/C23H25Cl2N3O2/c24-19-4-3-5-21(23(19)25)28-13-11-27(12-14-28)10-1-2-15-30-18-8-6-17-7-9-22(29)26-20(17)16-18/h3-9,16H,1-2,10-15H2,(H,26,29)
Instrument: TripleTOF 5600 SCIEX
Instrument type: LC-ESI-QTOF
Ms type: MS2
Ion mode: POSITIVE
Collision energy: 130
Fragmentation mode: CID
Ionization: ESI
Column name: Zorbax Eclipse Plus C18 2.1 mm x 150 mm, 3.5 um, Agilent
Retention time: 7.84 min
Precursor m/z: 446.1397
Precursor type: [M+H]+
m/z	relative intensity
39.0234	61
42.0342	133
55.0542	113
56.0493	267
63.0224	154
74.0148	216
75.0223	144
77.0377	113
84.081	144
89.0377	999
90.0458	185
91.0542	236
98.0957	51
101.0375	92
102.0343	61
108.9847	473
110.9986	133
116.0477	247
117.0569	772
118.0626	154
122.9976	82
125.016	61
128.0458	92
130.0618	51
144.0453	41
144.959	329
151.017	61
152.0271	154
164.0279	82
171.9729	185
172.9709	154
