Mass spectrum: 2-Amino-n-isopropylbenzamide; LC-ESI-QTOF; MS2; 70 V
Name: 2-Amino-n-isopropylbenzamide
Formula: C10H14N2O
Exact mass: 178.1106
SMILES: CC(C)NC(=O)C1=CC=CC=C1N
InChI: InChI=1S/C10H14N2O/c1-7(2)12-10(13)8-5-3-4-6-9(8)11/h3-7H,11H2,1-2H3,(H,12,13)
Instrument: TripleTOF X500R SCIEX
Instrument type: LC-ESI-QTOF
Ms type: MS2
Ion mode: POSITIVE
Collision energy: 70
Fragmentation mode: CID
Ionization: ESI
Column name: Zorbax Eclipse Plus C18 2.1 mm x 150 mm, 3.5 um, Agilent
Retention time: 6.85 min
Precursor m/z: 179.1179
Precursor type: [M+H]+
m/z	relative intensity
37.007	105
38.0147	78
39.0229	999
40.0186	12
41.0387	22
51.0224	17
52.0186	14
63.0236	17
65.0386	820
66.0336	48
92.0496	56
