Mass spectrum: Sudan I; LC-ESI-QTOF; MS2; 120 V
Name: Sudan I
Formula: C16H12N2O
Exact mass: 248.095
SMILES: C1=CC=C(C=C1)N=NC2=C(C=CC3=CC=CC=C32)O
InChI: InChI=1S/C16H12N2O/c19-15-11-10-12-6-4-5-9-14(12)16(15)18-17-13-7-2-1-3-8-13/h1-11,19H
Instrument: TripleTOF 6600 SCIEX
Instrument type: LC-ESI-QTOF
Ms type: MS2
Ion mode: POSITIVE
Collision energy: 120
Fragmentation mode: CID
Ionization: ESI
Column name: Zorbax Eclipse Plus C18 2.1 mm x 150 mm, 3.5 um, Agilent
Retention time: 15.674 min
Precursor m/z: 249.1023
Precursor type: [M+H]+
m/z	relative intensity
35.9989	13
37.0075	71
38.015	83
39.0231	390
40.0311	17
41.0261	22
42.0344	22
49.0066	35
50.0153	311
51.023	474
52.018	64
54.0341	50
62.0151	12
63.0226	26
65.0384	417
66.0332	34
66.0464	172
67.042	11
73.0075	91
74.0149	999
75.0095	53
75.0227	446
76.0177	76
76.0323	13
77.0379	69
78.0355	38
86.0135	12
92.0484	94
93.0587	47
98.0145	47
99.0088	12
150.0475	14
