Mass spectrum: Sotalol; LC-ESI-QTOF; MS2; 70 V
Name: Sotalol
Class: Pharmaceutical
Formula: C12H20N2O3S
Exact mass: 272.1195
SMILES: CC(C)NCC(C1=CC=C(C=C1)NS(=O)(=O)C)O
InChI: InChI=1S/C12H20N2O3S/c1-9(2)13-8-12(15)10-4-6-11(7-5-10)14-18(3,16)17/h4-7,9,12-15H,8H2,1-3H3
Instrument: TripleTOF 5600 SCIEX
Instrument type: LC-ESI-QTOF
Ms type: MS2
Ion mode: POSITIVE
Collision energy: 70
Fragmentation mode: CID
Ionization: ESI
Column name: Zorbax Eclipse Plus C18 2.1 mm x 150 mm, 3.5 um, Agilent
Retention time: 4.583 min
Precursor m/z: 273.1267
Precursor type: [M+H]+
m/z	relative intensity
65.0444	33
66.0556	14
67.0461	31
77.0438	307
78.0375	31
79.0591	356
80.0543	152
81.0615	41
89.042	157
90.049	46
91.058	82
92.052	60
93.0609	58
104.0499	36
105.0515	12
105.0608	9
106.0667	999
107.0737	223
116.0502	269
117.0577	232
118.0606	133
119.0608	80
131.0616	50
132.0684	213
133.077	475
