Mass spectrum: Diaveridine; LC-ESI-QTOF; MS2; 90 V
Name: Diaveridine
Class: Pharmaceutical
Formula: C13H16N4O2
Exact mass: 260.1273
SMILES: COC1=C(C=C(C=C1)CC2=CN=C(N=C2N)N)OC
InChI: InChI=1S/C13H16N4O2/c1-18-10-4-3-8(6-11(10)19-2)5-9-7-16-13(15)17-12(9)14/h3-4,6-7H,5H2,1-2H3,(H4,14,15,16,17)
Instrument: TripleTOF 5600 SCIEX
Instrument type: LC-ESI-QTOF
Ms type: MS2
Ion mode: POSITIVE
Collision energy: 90
Fragmentation mode: CID
Ionization: ESI
Column name: Zorbax Eclipse Plus C18 2.1 mm x 150 mm, 3.5 um, Agilent
Retention time: 4.966 min
Precursor m/z: 261.1346
Precursor type: [M+H]+
m/z	relative intensity
41.037	110
42.0488	15
43.0439	152
52.0276	194
53.0246	34
54.0429	484
55.0261	19
55.0485	34
66.0311	15
67.0343	34
68.0284	19
68.0424	99
69.0487	19
69.0557	19
74.0216	15
75.0275	133
77.044	999
78.0459	72
79.0333	156
79.0582	133
80.049	38
81.0494	709
82.0564	22
83.0518	72
88.0323	26
89.0419	461
90.0395	68
90.0542	22
91.0577	198
92.0542	22
94.0483	30
95.0527	19
96.0579	53
101.0412	240
102.0369	61
102.0494	83
103.0331	19
103.0564	278
104.0531	133
105.0363	194
106.042	110
107.0509	247
109.053	99
110.0609	49
113.0423	61
114.0362	95
115.0522	95
116.0505	221
117.0563	141
118.0441	34
118.0646	118
119.0556	22
120.0543	34
123.0674	80
124.076	26
126.0358	41
127.0396	41
127.0501	22
128.0496	274
129.048	76
129.0633	26
130.0428	22
130.0637	114
131.0513	160
133.0305	87
133.0495	15
133.0638	22
134.0684	22
135.0475	22
135.0686	15
140.0481	110
141.0451	34
142.0545	53
143.0612	72
144.0551	87
145.0771	34
146.0623	61
147.066	45
153.0451	53
154.0383	22
154.0499	22
155.0561	61
156.0461	41
156.061	15
157.0592	19
158.0734	30
159.0698	41
160.0747	15
161.0835	26
168.056	22
170.0712	45
171.058	30
172.0748	34
173.0819	41
185.0801	57
213.0768	22
