Mass spectrum: Reactive Orange; LC-ESI-QTOF; MS2; 140 V
Name: Reactive Orange
Formula: C20H19N3O11S3
Exact mass: 573.0182
SMILES: CC(=O)NC1=CC2=C(C(=C(C=C2C=C1)S(=O)(=O)O)N=NC3=CC=C(C=C3)S(=O)(=O)CCOS(=O)(=O)O)O
InChI: InChI=1S/C20H19N3O11S3/c1-12(24)21-15-3-2-13-10-18(36(28,29)30)19(20(25)17(13)11-15)23-22-14-4-6-16(7-5-14)35(26,27)9-8-34-37(31,32)33/h2-7,10-11,25H,8-9H2,1H3,(H,21,24)(H,28,29,30)(H,31,32,33)
Instrument: TripleTOF 6600 SCIEX
Instrument type: LC-ESI-QTOF
Ms type: MS2
Ion mode: POSITIVE
Collision energy: 140
Fragmentation mode: CID
Ionization: ESI
Column name: Zorbax Eclipse Plus C18 2.1 mm x 150 mm, 3.5 um, Agilent
Retention time: 5.751 min
Precursor m/z: 574.0255
Precursor type: [M+H]+
m/z	relative intensity
39.0238	25
43.0181	50
44.9785	48
45.9858	13
46.9942	18
51.0228	33
53.0381	235
61.0062	19
62.014	50
63.0219	66
64.0303	24
64.9693	13
65.0381	136
66.0448	12
68.0116	51
75.0225	36
76.0172	12
76.0305	34
77.0374	222
78.0326	36
80.0492	215
81.0328	999
87.0227	19
88.0172	15
88.0293	215
89.0373	261
90.0457	22
91.04	48
92.0478	45
93.0564	36
102.0341	51
102.0447	16
103.0411	69
103.0543	18
104.048	234
108.0434	156
114.0324	542
115.0407	738
116.0476	167
117.0579	51
126.0329	10
128.0486	59
129.0439	255
130.0368	16
130.0626	25
131.0609	88
140.0509	13
141.0418	66
142.0511	857
143.0597	25
150.0445	38
151.0535	129
152.0629	42
163.0548	13
164.0481	15
169.0433	12
170.0467	33
176.0579	56
177.0584	63
178.0639	57
179.0598	24
187.0524	12
188.0509	39
189.0579	28
190.0626	34
192.0693	16
193.0738	10
203.0624	42
204.0777	25
205.0742	222
206.0856	22
215.0596	42
216.0662	39
217.0737	16
220.0834	10
230.0733	53
231.0775	44
232.0877	47
233.0686	12
243.0621	10
244.0818	10
