Mass spectrum: Alachlor; LC-ESI-QTOF; MS2; 40 V
Name: Alachlor
Class: Herbicide
Formula: C14H20ClNO2
Exact mass: 269.1183
SMILES: CCC1=C(C(=CC=C1)CC)N(COC)C(=O)CCl
InChI: InChI=1S/C14H20ClNO2/c1-4-11-7-6-8-12(5-2)14(11)16(10-18-3)13(17)9-15/h6-8H,4-5,9-10H2,1-3H3
Instrument: TripleTOF 6600 SCIEX
Instrument type: LC-ESI-QTOF
Ms type: MS2
Ion mode: POSITIVE
Collision energy: 40
Fragmentation mode: CID
Ionization: ESI
Column name: Zorbax Eclipse Plus C18 2.1 mm x 150 mm, 3.5 um, Agilent
Retention time: 13.233 min
Precursor m/z: 270.1255
Precursor type: [M+H]+
m/z	relative intensity
31.0168	157
41.0387	54
45.0328	393
48.984	44
59.0485	113
76.9783	49
90.0093	216
91.0525	83
105.0672	78
106.0636	34
115.0556	24
116.0619	29
117.057	83
117.0675	54
118.0637	103
119.0725	68
119.0838	24
120.081	34
129.0676	29
130.0627	59
130.0731	24
131.0756	103
132.0788	649
133.0872	999
134.0947	59
142.0648	24
143.0722	34
144.0786	93
145.0851	29
145.0956	39
146.0956	265
147.1025	856
148.1098	885
149.0934	103
156.0809	49
157.0896	29
158.0967	73
160.076	29
160.1097	29
161.1186	44
162.1254	959
163.1105	191
170.0963	29
171.1024	59
172.1139	29
173.0843	29
184.1111	34
185.1202	19
192.0566	44
206.0722	73
220.0882	24
224.0797	44
238.0979	83
