Mass spectrum: 2-Aminobenzimidazole; LC-ESI-QTOF; MS2; 70 V
Name: 2-Aminobenzimidazole
Class: Transformation_product; Fungicide; Transformation_product-Metabolite
Formula: C7H7N3
Exact mass: 133.064
SMILES: C1=CC=C2C(=C1)NC(=N2)N
InChI: InChI=1S/C7H7N3/c8-7-9-5-3-1-2-4-6(5)10-7/h1-4H,(H3,8,9,10)
Instrument: TripleTOF 6600 SCIEX
Instrument type: LC-ESI-QTOF
Ms type: MS2
Ion mode: POSITIVE
Collision energy: 70
Fragmentation mode: CID
Ionization: ESI
Column name: Zorbax Eclipse Plus C18 2.1 mm x 150 mm, 3.5 um, Agilent
Retention time: 4.787 min
Precursor m/z: 134.0713
Precursor type: [M+H]+
m/z	relative intensity
35.9992	56
37.0072	250
38.0027	14
38.015	217
39.023	999
40.0182	14
43.0289	56
50.015	38
51.0228	49
52.0179	34
52.0304	14
53.0383	55
54.0337	17
61.0074	13
62.0141	48
63.0231	76
64.0183	30
64.0305	10
65.0382	267
66.0467	30
78.0335	18
80.0498	34
92.0489	18
93.0574	14
