Mass spectrum: 4-Acetamidoantipyrine; LC-ESI-QTOF; MS2; 70 V
Name: 4-Acetamidoantipyrine
Class: Pharmaceutical; Metabolite; Transformation_product; Transformation_product-Metabolite
Formula: C13H15N3O2
Exact mass: 245.1164
SMILES: CN1N(C(=O)C(=C1C)NC(C)=O)c2ccccc2
InChI: InChI=1S/C13H15N3O2/c1-9-12(14-10(2)17)13(18)16(15(9)3)11-7-5-4-6-8-11/h4-8H,1-3H3,(H,14,17)
Instrument: TripleTOF 5600 SCIEX
Instrument type: LC-ESI-QTOF
Ms type: MS2
Ion mode: POSITIVE
Collision energy: 70
Fragmentation mode: CID
Ionization: ESI
Column name: Zorbax Eclipse Plus C18 2.1 mm x 150 mm, 3.5 um, Agilent
Retention time: 5.586 min
Precursor m/z: 246.1237
Precursor type: [M+H]+
m/z	relative intensity
42.0433	63
43.027	108
53.0183	13
54.0395	14
56.0565	620
65.0438	20
77.0425	838
81.0472	61
83.0639	999
91.0562	24
92.0514	15
93.0587	11
94.067	67
101.0411	11
104.0505	102
115.0543	12
116.0485	10
117.0578	26
119.0597	10
128.0506	16
130.0651	22
143.0605	24
