Mass spectrum: Salbutamol; LC-ESI-QTOF; MS2; 60 V
Name: Salbutamol
Class: Pharmaceutical
Formula: C13H21NO3
Exact mass: 239.1521
SMILES: CC(C)(NCC(c1cc(CO)c(O)cc1)O)C
InChI: InChI=1S/C13H21NO3/c1-13(2,3)14-7-12(17)9-4-5-11(16)10(6-9)8-15/h4-6,12,14-17H,7-8H2,1-3H3
Instrument: TripleTOF 5600 SCIEX
Instrument type: LC-ESI-QTOF
Ms type: MS2
Ion mode: POSITIVE
Collision energy: 60
Fragmentation mode: CID
Ionization: ESI
Column name: Zorbax Eclipse Plus C18 2.1 mm x 150 mm, 3.5 um, Agilent
Retention time: 4.69 min
Precursor m/z: 240.1594
Precursor type: [M+H]+
m/z	relative intensity
51.0283	51
53.0438	18
55.0235	74
57.075	101
65.0429	116
68.0532	13
77.0424	999
78.0362	10
78.0496	45
79.0429	10
79.0572	239
80.0523	161
81.0363	25
81.0593	15
90.0479	19
91.0564	974
92.0519	42
92.0636	15
93.0713	192
94.0663	33
102.0477	19
103.0551	393
104.0498	75
105.0331	12
105.0578	104
106.0417	13
106.0656	30
107.0491	87
108.0556	10
116.0504	15
117.0574	113
118.0645	107
119.0481	16
119.0721	28
120.057	18
120.0803	81
121.0646	267
128.0499	13
130.0657	246
131.0479	25
131.0721	13
132.0434	10
133.0523	281
134.059	19
135.0676	28
146.0595	43
147.0697	16
148.0758	31
