Mass spectrum: 4-Hydroxytrimethoprim; LC-ESI-QTOF; MS2; 110 V
Name: 4-Hydroxytrimethoprim
Class: Pharmaceutical; Transformation_product
Formula: C14H18N4O4
Exact mass: 306.1328
SMILES: COc1cc(cc(c1OC)OC)Cc2c(nc(nc2O)N)N
InChI: InChI=1S/C14H18N4O4/c1-20-9-5-7(6-10(21-2)11(9)22-3)4-8-12(15)17-14(16)18-13(8)19/h5-6H,4H2,1-3H3,(H5,15,16,17,18,19)
Instrument: TripleTOF 5600 SCIEX
Instrument type: LC-ESI-QTOF
Ms type: MS2
Ion mode: POSITIVE
Collision energy: 110
Fragmentation mode: CID
Ionization: ESI
Column name: Zorbax Eclipse Plus C18 2.1 mm x 150 mm, 3.5 um, Agilent
Retention time: 5.43 min
Precursor m/z: 307.1401
Precursor type: [M+H]+
m/z	relative intensity
43.0373	999
44.0196	88
51.0276	205
54.039	411
55.023	293
55.0398	102
60.0588	88
64.0347	102
65.0416	396
68.0276	102
68.0362	58
69.0113	205
69.0482	205
75.0262	73
77.0416	572
78.0482	161
79.0567	88
80.0146	352
89.0401	675
91.0554	161
93.0341	73
94.0435	102
97.0403	205
105.0366	73
121.0291	58
122.0372	73
