Mass spectrum: Dexamethasone; LC-ESI-QTOF; MS2; 40 V
Name: Dexamethasone
Class: Pharmaceutical
Formula: C22H29FO5
Exact mass: 392.1999
SMILES: C[C@@H]1C[C@H]2[C@@H]3CCC4=CC(=O)C=C[C@@]4([C@]3([C@H](C[C@@]2([C@]1(C(=O)CO)O)C)O)F)C
InChI: InChI=1S/C22H29FO5/c1-12-8-16-15-5-4-13-9-14(25)6-7-19(13,2)21(15,23)17(26)10-20(16,3)22(12,28)18(27)11-24/h6-7,9,12,15-17,24,26,28H,4-5,8,10-11H2,1-3H3/t12-,15+,16+,17+,19+,20+,21+,22+/m1/s1
Instrument: TripleTOF 5600 SCIEX
Instrument type: LC-ESI-QTOF
Ms type: MS2
Ion mode: POSITIVE
Collision energy: 40
Fragmentation mode: CID
Ionization: ESI
Column name: Zorbax Eclipse Plus C18 2.1 mm x 150 mm, 3.5 um, Agilent
Retention time: 9.089 min
Precursor m/z: 393.2072
Precursor type: [M+H]+
m/z	relative intensity
43.0311	27
67.0613	20
69.0402	19
69.0745	22
71.0552	12
77.0447	25
79.0603	41
81.0757	32
83.0549	16
85.0699	14
91.0587	91
93.074	83
95.054	37
95.0888	114
97.0683	37
99.0487	20
103.0568	11
105.0725	148
107.0541	24
107.0884	225
109.0679	46
109.1036	69
111.0822	27
115.0563	24
117.071	33
119.0479	16
119.088	189
121.0673	324
121.1033	86
123.0828	70
125.0627	54
125.097	25
127.0568	11
128.0638	43
129.0704	20
131.0526	14
131.0869	168
132.0597	19
133.0671	85
133.1018	59
135.0824	241
137.0588	12
137.0973	70
139.0767	17
141.0709	48
142.0796	24
143.0869	111
144.0571	12
145.0662	114
145.1038	74
146.0737	22
147.0818	999
149.0973	115
151.0765	33
153.0745	12
153.0914	49
154.0783	11
155.0855	51
157.0692	22
157.103	49
158.0728	38
159.0816	318
159.1217	11
160.0882	12
161.061	12
161.0971	244
163.0762	38
163.1169	19
165.0867	24
167.0881	54
168.0559	11
169.0665	35
169.1012	45
170.0746	16
171.0813	558
171.1163	20
172.0884	22
173.0964	342
175.076	11
175.1096	22
177.0905	65
178.0783	17
179.0858	67
180.0923	22
181.0627	16
181.1037	40
182.0731	14
183.0795	93
183.1144	20
184.0911	17
185.0621	20
185.0958	281
187.0764	102
187.113	102
189.0725	22
189.094	24
190.077	16
191.0876	33
192.0951	22
193.1011	77
194.1103	40
195.0802	65
195.115	51
196.0899	61
197.0954	228
197.129	33
198.1038	30
199.0787	12
199.111	86
201.0912	22
201.1283	11
202.0744	12
203.085	22
203.1042	11
204.0934	86
205.0991	59
206.0797	12
206.108	32
207.0843	24
207.1145	69
208.0884	98
209.0945	222
209.1303	104
210.1055	104
211.0744	12
211.1112	255
212.1209	64
213.0877	14
213.1026	12
213.1269	156
215.0882	24
215.106	57
216.0975	12
217.1022	35
218.1054	17
219.0821	20
219.1169	149
220.0874	33
220.1276	19
221.0934	193
221.131	53
222.1033	382
223.1116	373
224.1198	106
225.0928	20
225.1267	180
226.1018	24
226.1367	12
227.106	14
227.1423	107
229.1014	25
230.1104	35
231.0811	11
231.1172	46
232.0894	11
232.1	11
232.1268	11
233.0971	56
233.132	22
234.1029	75
235.111	350
235.149	30
236.1188	48
236.1592	16
237.1261	749
238.1001	25
238.1339	19
239.1067	37
239.1425	289
240.114	19
241.121	91
242.1095	12
243.1153	22
244.1239	30
245.0968	48
245.1324	30
246.1022	46
246.144	12
247.1105	98
247.1483	12
248.1184	123
249.1257	215
249.1609	27
250.1354	43
250.171	11
251.1078	22
251.1424	162
252.1518	48
253.1217	114
253.1538	75
255.1378	56
256.1255	16
257.1287	38
258.1399	30
259.1113	72
259.1465	32
260.1177	83
261.0924	16
261.1257	162
261.1604	43
262.1353	180
263.107	12
263.1421	350
264.1504	72
265.1226	20
265.1602	43
266.1661	17
267.1354	53
267.1738	14
271.1129	40
271.1401	17
272.1198	41
273.1277	38
273.1666	20
274.1357	61
275.108	16
275.1443	99
276.1504	146
277.1215	35
277.1605	212
278.166	172
279.1408	22
279.1726	318
281.153	35
286.1337	119
289.1595	101
290.1278	17
291.1428	12
291.1747	154
293.1496	20
295.17	33
296.1765	20
297.1892	22
301.1594	88
304.1458	20
306.1608	20
307.1715	80
309.183	35
319.1656	111
325.1781	27
337.178	57
355.1897	27
