Mass spectrum: Sethoxydim; LC-ESI-QTOF; MS2; 40 V
Name: Sethoxydim
Class: Herbicide
Formula: C17H29NO3S
Exact mass: 327.1868
SMILES: CCCC(=C1C(=O)CC(CC1=O)CC(C)SCC)NOCC
InChI: InChI=1S/C17H29NO3S/c1-5-8-14(18-21-6-2)17-15(19)10-13(11-16(17)20)9-12(4)22-7-3/h12-13,18H,5-11H2,1-4H3
Instrument: TripleTOF 5600 SCIEX
Instrument type: LC-ESI-QTOF
Ms type: MS2
Ion mode: POSITIVE
Collision energy: 40
Fragmentation mode: CID
Ionization: ESI
Column name: Zorbax Eclipse Plus C18 2.1 mm x 150 mm, 3.5 um, Agilent
Retention time: 16.132 min
Precursor m/z: 328.1941
Precursor type: [M+H]+
m/z	relative intensity
67.0566	87
89.0433	87
95.0512	87
105.0683	105
107.0482	175
109.0626	87
110.0591	192
112.0748	175
115.0536	105
117.0677	70
122.0954	140
133.0639	122
134.056	122
136.0754	157
150.0894	385
161.0588	210
163.0733	175
176.1043	70
178.0853	999
178.1203	157
180.101	876
180.1314	105
192.1353	105
254.1159	70
