Mass spectrum: Bisphenol-A bis(diphenyl phosphate); LC-ESI-QTOF; MS2; 100 V
Name: Bisphenol-A bis(diphenyl phosphate)
Class: Industrial_process
Formula: C39H34O8P2
Exact mass: 692.1729
SMILES: CC(C)(C1=CC=C(C=C1)OP(=O)(OC2=CC=CC=C2)OC3=CC=CC=C3)C4=CC=C(C=C4)OP(=O)(OC5=CC=CC=C5)OC6=CC=CC=C6
InChI: InChI=1S/C39H34O8P2/c1-39(2,31-23-27-37(28-24-31)46-48(40,42-33-15-7-3-8-16-33)43-34-17-9-4-10-18-34)32-25-29-38(30-26-32)47-49(41,44-35-19-11-5-12-20-35)45-36-21-13-6-14-22-36/h3-30H,1-2H3
Instrument: TripleTOF 6600 SCIEX
Instrument type: LC-ESI-QTOF
Ms type: MS2
Ion mode: POSITIVE
Collision energy: 100
Fragmentation mode: CID
Ionization: ESI
Column name: Zorbax Eclipse Plus C18 2.1 mm x 150 mm, 3.5 um, Agilent
Retention time: 17.714 min
Precursor m/z: 693.1802
Precursor type: [M+H]+
m/z	relative intensity
51.0235	24
65.0381	30
77.038	298
89.0375	24
91.0538	271
95.0478	20
105.0688	51
107.0482	41
115.0535	775
116.0609	78
117.0687	58
133.063	37
138.9927	20
141.0688	30
151.0535	58
152.0617	501
153.0695	171
155.0848	82
164.0616	13
165.069	181
166.0772	17
168.0566	432
170.0718	30
171.0788	17
175.0138	27
176.061	54
177.069	65
178.0775	999
179.0239	58
180.0317	41
181.0992	27
183.0796	44
183.1153	20
187.0297	68
189.0705	34
190.0793	13
191.0853	54
192.0937	27
193.0638	30
202.0766	20
208.0882	54
215.0254	672
226.0756	20
227.0828	34
228.0929	89
229.1003	34
233.0349	75
237.045	20
239.0844	82
241.1007	20
245.0371	24
251.0477	106
252.0922	54
253.1027	51
254.1091	20
255.0571	113
273.0664	30
291.079	30
327.0785	34
367.1101	27
