Mass spectrum: Flecainide; LC-ESI-QTOF; MS2; 80 V
Name: Flecainide
Class: Pharmaceutical
Formula: C17H20F6N2O3
Exact mass: 414.1378
SMILES: FC(F)(F)COc1ccc(OCC(F)(F)F)c(c1)C(=O)NCC2CCCCN2
InChI: InChI=1S/C17H20F6N2O3/c18-16(19,20)9-27-12-4-5-14(28-10-17(21,22)23)13(7-12)15(26)25-8-11-3-1-2-6-24-11/h4-5,7,11,24H,1-3,6,8-10H2,(H,25,26)
Instrument: TripleTOF 5600 SCIEX
Instrument type: LC-ESI-QTOF
Ms type: MS2
Ion mode: POSITIVE
Collision energy: 80
Fragmentation mode: CID
Ionization: ESI
Column name: Zorbax Eclipse Plus C18 2.1 mm x 150 mm, 3.5 um, Agilent
Retention time: 7.983 min
Precursor m/z: 415.1451
Precursor type: [M+H]+
m/z	relative intensity
44.0576	74
51.0287	36
53.0445	31
55.0593	39
56.0539	46
64.0338	17
65.042	13
69.0725	20
70.0681	21
77.0408	69
79.0206	447
79.056	107
80.0507	10
81.0718	171
82.0668	87
83.0126	203
83.0292	57
84.082	106
92.0258	68
95.0309	10
96.0801	21
97.0885	23
98.0967	168
99.0239	150
101.0196	47
105.0324	10
107.013	999
111.0234	26
114.0269	112
127.019	346
129.013	29
133.0242	14
135.0075	884
142.022	43
143.03	15
145.0256	15
163.0348	11
170.0158	21
171.0246	45
175.0363	14
181.0261	130
187.0359	22
189.0148	11
189.0509	10
190.0224	145
203.03	28
204.1019	12
209.022	740
218.018	274
219.0254	85
225.0325	242
231.0253	25
232.0955	102
237.0156	72
253.027	62
281.0226	22
301.029	44
