Mass spectrum: 10,11-Dihydro-10,11-epoxycarbamazepine; LC-ESI-QTOF; MS2; 150 V
Name: 10,11-Dihydro-10,11-epoxycarbamazepine
Class: Metabolite
Formula: C15H12N2O2
Exact mass: 252.0899
SMILES: C1=CC=C2C(=C1)C3C(O3)C4=CC=CC=C4N2C(=O)N
InChI: InChI=1S/C15H12N2O2/c16-15(18)17-11-7-3-1-5-9(11)13-14(19-13)10-6-2-4-8-12(10)17/h1-8,13-14H,(H2,16,18)
Instrument: TripleTOF 5600 SCIEX
Instrument type: LC-ESI-QTOF
Ms type: MS2
Ion mode: POSITIVE
Collision energy: 150
Fragmentation mode: CID
Ionization: ESI
Column name: Zorbax Eclipse Plus C18 2.1 mm x 150 mm, 3.5 um, Agilent
Retention time: 7.593 min
Precursor m/z: 253.0972
Precursor type: [M+H]+
m/z	relative intensity
37.0072	20
39.0229	44
44.013	47
49.0076	62
50.0154	330
51.0229	416
52.0304	26
59.9993	36
61.0075	167
62.0153	254
63.0229	367
64.0175	18
65.0383	26
73.0075	123
74.0153	999
75.0229	548
76.0177	44
76.0308	136
77.039	267
78.0456	36
83.9991	31
85.007	78
86.0152	280
87.0233	220
88.0185	26
88.0308	18
89.0383	136
97.0067	62
98.0151	516
99.0226	249
100.0298	91
101.0391	52
102.0341	26
102.0462	86
109.009	49
110.0152	149
111.0105	15
111.0215	47
112.0206	18
113.0382	65
114.0394	13
115.0545	20
122.0155	62
123.0095	15
123.0226	44
124.0323	23
125.0381	99
126.0467	175
127.0448	44
128.0483	15
137.0387	47
138.0374	15
139.0569	23
140.0503	28
149.0384	78
150.0464	485
151.0541	178
152.0576	89
161.0395	18
162.0462	28
163.0548	28
164.0451	15
175.0411	41
176.0496	49
177.0569	60
178.0672	36
188.05	13
