Mass spectrum: Diprogulic acid; LC-ESI-QTOF; MS2; 50 V
Name: Diprogulic acid
Formula: C12H18O7
Exact mass: 274.1053
SMILES: CC1(C)OCC2C(C3C(OC(C)(C)O3)(C(O)=O)O2)O1
InChI: InChI=1S/C12H18O7/c1-10(2)15-5-6-7(17-10)8-12(16-6,9(13)14)19-11(3,4)18-8/h6-8H,5H2,1-4H3,(H,13,14)
Instrument: TripleTOF 6600 SCIEX
Instrument type: LC-ESI-QTOF
Ms type: MS2
Ion mode: POSITIVE
Collision energy: 50
Fragmentation mode: CID
Ionization: ESI
Column name: Zorbax Eclipse Plus C18 2.1 mm x 150 mm, 3.5 um, Agilent
Retention time: 7.352 min
Precursor m/z: 275.1125
Precursor type: [M+H]+
m/z	relative intensity
31.0177	23
39.0229	60
41.0387	98
43.0178	88
45.0343	32
55.0176	51
57.033	88
59.0125	28
59.0491	999
68.997	112
69.0332	177
71.0123	112
73.0278	28
85.0273	46
87.0078	70
95.0125	284
97.0275	42
111.0075	37
115.0029	70
