Mass spectrum: Etoricoxib; LC-ESI-QTOF; MS2; 100 V
Name: Etoricoxib
Class: Pharmaceutical
Formula: C18H15ClN2O2S
Exact mass: 358.0543
SMILES: CC1=NC=C(C=C1)C2=NC=C(C=C2C3=CC=C(C=C3)S(=O)(=O)C)Cl
InChI: InChI=1S/C18H15ClN2O2S/c1-12-3-4-14(10-20-12)18-17(9-15(19)11-21-18)13-5-7-16(8-6-13)24(2,22)23/h3-11H,1-2H3
Instrument: TripleTOF 5600 SCIEX
Instrument type: LC-ESI-QTOF
Ms type: MS2
Ion mode: POSITIVE
Collision energy: 100
Fragmentation mode: CID
Ionization: ESI
Column name: Zorbax Eclipse Plus C18 2.1 mm x 150 mm, 3.5 um, Agilent
Retention time: 6.991 min
Precursor m/z: 359.0616
Precursor type: [M+H]+
m/z	relative intensity
75.0278	10
99.0237	13
115.0543	14
125.0383	26
126.0473	41
127.0492	13
139.0542	51
140.0501	67
141.0585	16
142.0643	10
149.0384	81
150.0464	131
151.0518	161
152.0597	158
153.0563	79
162.0464	15
163.0536	144
164.0551	110
165.0603	50
166.0652	147
167.0727	85
168.0677	18
173.0389	26
174.046	166
175.0534	446
176.0595	519
177.0568	263
178.057	71
179.0623	25
185.0213	11
186.0179	17
187.0193	22
187.0528	105
188.0249	15
188.0596	215
189.0688	536
190.0651	262
191.0702	98
192.0677	52
193.075	81
194.0846	28
199.0438	80
200.0499	324
201.0563	845
202.0644	690
203.0718	464
204.0555	10
204.077	66
205.0762	24
210.0207	10
211.0178	11
212.021	10
212.0482	16
213.0204	91
213.0563	32
214.0646	679
215.072	427
216.0795	999
217.0862	234
218.0861	47
223.026	16
224.0254	35
225.0329	44
225.0535	35
226.0553	138
227.0614	322
228.0673	328
229.0736	363
236.0256	98
237.0333	111
238.0413	127
239.0398	52
240.0676	91
241.0756	347
242.0837	802
243.0921	477
244.0984	42
249.0356	39
250.042	321
251.0459	162
252.0464	79
253.0514	19
262.0379	27
263.0368	378
264.0399	16
275.0394	36
276.0452	195
277.0517	270
278.0598	49
