Mass spectrum: Azathioprine; LC-ESI-QTOF; MS2; 60 V
Name: Azathioprine
Class: Pharmaceutical
Formula: C9H7N7O2S
Exact mass: 277.0382
SMILES: Cn1cnc(c1Sc2ncnc3nc[nH]c23)[N+]([O-])=O
InChI: InChI=1S/C9H7N7O2S/c1-15-4-14-7(16(17)18)9(15)19-8-5-6(11-2-10-5)12-3-13-8/h2-4H,1H3,(H,10,11,12,13)
Instrument: TripleTOF 5600 SCIEX
Instrument type: LC-ESI-QTOF
Ms type: MS2
Ion mode: POSITIVE
Collision energy: 60
Fragmentation mode: CID
Ionization: ESI
Column name: Zorbax Eclipse Plus C18 2.1 mm x 150 mm, 3.5 um, Agilent
Retention time: 5.367 min
Precursor m/z: 278.0455
Precursor type: [M+H]+
m/z	relative intensity
57.9781	296
66.025	111
67.0322	481
69.0123	148
69.0478	148
74.0075	536
81.0466	92
84.9872	240
86.0069	148
92.025	277
93.032	425
94.0423	166
106.0395	166
113.0154	185
118.0394	259
119.0343	999
120.0421	684
121.0496	166
125.0032	185
134.0542	92
135.9975	148
145.0502	166
146.0441	129
152.0149	277
160.062	92
164.0144	388
165.0201	92
165.0338	111
172.0625	296
176.0131	222
177.0211	296
199.0726	92
204.0338	462
