Mass spectrum: (1-(4-Methoxybenzoyl)-undecyl)-trimethyl-ammonium; LC-ESI-QTOF; MS2; 90 V
Name: (1-(4-Methoxybenzoyl)-undecyl)-trimethyl-ammonium
Formula: [C22H38NO2]+
Exact mass: 348.2897
SMILES: CCCCCCCCCCC(C(=O)c1ccc(cc1)OC)[N+](C)(C)C
InChI: InChI=1S/C22H38NO2/c1-6-7-8-9-10-11-12-13-14-21(23(2,3)4)22(24)19-15-17-20(25-5)18-16-19/h15-18,21H,6-14H2,1-5H3/q+1
Instrument: TripleTOF 5600 SCIEX
Instrument type: LC-ESI-QTOF
Ms type: MS2
Ion mode: POSITIVE
Collision energy: 90
Fragmentation mode: CID
Ionization: ESI
Column name: Zorbax Eclipse Plus C18 2.1 mm x 150 mm, 3.5 um, Agilent
Retention time: 11.279 min
Precursor m/z: 348.2897
Precursor type: [M]+
m/z	relative intensity
60.0853	60
64.0349	92
77.0421	999
92.0268	599
107.0492	123
121.0643	60
135.044	211
