Mass spectrum: Metrafenone; LC-ESI-QTOF; MS2; 40 V
Name: Metrafenone
Class: Fungicide
Formula: C19H21BrO5
Exact mass: 408.0572
SMILES: CC1=CC(=C(C(=C1C(=O)C2=C(C=CC(=C2C)Br)OC)OC)OC)OC
InChI: InChI=1S/C19H21BrO5/c1-10-9-14(23-4)18(24-5)19(25-6)15(10)17(21)16-11(2)12(20)7-8-13(16)22-3/h7-9H,1-6H3
Instrument: TripleTOF 6600 SCIEX
Instrument type: LC-ESI-QTOF
Ms type: MS2
Ion mode: POSITIVE
Collision energy: 40
Fragmentation mode: CID
Ionization: ESI
Column name: Zorbax Eclipse Plus C18 2.1 mm x 150 mm, 3.5 um, Agilent
Retention time: 15.123 min
Precursor m/z: 409.0645
Precursor type: [M+H]+
m/z	relative intensity
89.0413	12
90.0492	27
91.0573	32
92.0645	18
105.0359	15
120.0596	34
136.0535	23
137.0626	17
148.0537	41
151.0416	19
165.0563	92
166.0641	202
168.9658	134
176.0478	32
179.0346	12
182.9437	13
183.9531	75
193.0507	10
194.0583	95
196.971	25
209.0818	890
211.9466	54
226.9708	999
