Mass spectrum: Trihexyltetradecylphosphonium; LC-ESI-QTOF; MS2; 140 V
Name: Trihexyltetradecylphosphonium
Formula: [C32H68P]+
Exact mass: 483.5053
SMILES: CCCCCCCCCCCCCC[P+](CCCCCC)(CCCCCC)CCCCCC
InChI: InChI=1S/C32H68P/c1-5-9-13-17-18-19-20-21-22-23-24-28-32-33(29-25-14-10-6-2,30-26-15-11-7-3)31-27-16-12-8-4/h5-32H2,1-4H3/q+1
Instrument: TripleTOF 5600 SCIEX
Instrument type: LC-ESI-QTOF
Ms type: MS2
Ion mode: POSITIVE
Collision energy: 140
Fragmentation mode: CID
Ionization: ESI
Column name: Zorbax Eclipse Plus C18 2.1 mm x 150 mm, 3.5 um, Agilent
Retention time: 17.125 min
Precursor m/z: 483.5053
Precursor type: [M]+
m/z	relative intensity
39.0238	154
41.0392	271
43.0551	137
43.9813	175
44.9896	271
45.9974	438
47.0055	146
48.0131	188
55.0542	196
56.9893	430
59.005	514
61.0206	999
62.0282	819
71.0036	71
73.02	234
74.0284	108
75.0354	618
76.0436	840
85.0197	58
87.034	75
88.0426	108
89.0503	246
90.0584	154
101.0512	163
103.0653	150
115.0663	217
117.0818	121
129.084	100
131.0977	121
143.0975	75
145.1126	50
159.1297	75
