Mass spectrum: 2-(Thiocyanomethylthio)benzothiazole; LC-ESI-QTOF; MS2; 90 V
Name: 2-(Thiocyanomethylthio)benzothiazole
Class: Antimicrobial; Fungicide
Formula: C9H6N2S3
Exact mass: 237.9693
SMILES: C1=CC=C2C(=C1)N=C(S2)SCSC#N
InChI: InChI=1S/C9H6N2S3/c10-5-12-6-13-9-11-7-3-1-2-4-8(7)14-9/h1-4H,6H2
Instrument: TripleTOF 6600 SCIEX
Instrument type: LC-ESI-QTOF
Ms type: MS2
Ion mode: POSITIVE
Collision energy: 90
Fragmentation mode: CID
Ionization: ESI
Column name: Zorbax Eclipse Plus C18 2.1 mm x 150 mm, 3.5 um, Agilent
Retention time: 12.417 min
Precursor m/z: 238.9766
Precursor type: [M+H]+
m/z	relative intensity
35.9992	12
37.0076	60
38.0152	43
39.0233	315
43.9714	69
44.9795	717
45.9745	31
45.9862	21
49.0076	60
50.0152	315
51.0232	705
52.0185	19
52.0307	33
57.9871	57
61.0072	26
62.0151	77
63.0228	322
63.943	52
64.0179	57
64.031	40
65.0388	999
67.9716	43
68.9795	917
69.9747	9
69.9874	91
70.9945	24
71.9902	38
74.0146	40
75.0228	38
76.018	16
76.0299	57
77.0385	411
78.0343	14
78.0461	40
80.9798	19
81.9872	146
82.9945	16
84.0018	12
89.0387	72
90.0342	43
91.041	14
92.9793	101
94.9952	120
96.0031	122
101.9477	16
102.0341	16
105.0447	9
106.9949	21
108.0026	255
109.0106	310
121.0108	108
122.0058	28
123.0129	24
135.0135	33
136.0211	31
