Mass spectrum: Amoxicillin; LC-ESI-QTOF; MS2; 40 V
Name: Amoxicillin
Class: Pharmaceutical
Formula: C16H19N3O5S
Exact mass: 365.1045
InChI: InChI=1S/C16H19N3O5S/c1-16(2)11(15(23)24)19-13(22)10(14(19)25-16)18-12(21)9(17)7-3-5-8(20)6-4-7/h3-6,9-11,14,20H,17H2,1-2H3,(H,18,21)(H,23,24)/t9-,10-,11+,14-/m1/s1
Instrument: TripleTOF 5600 SCIEX
Instrument type: LC-ESI-QTOF
Ms type: CID
Ion mode: NEGATIVE
Collision energy: 40
Ionization: ESI
Column name: Zorbax Eclipse Plus C18 2.1 mm x 150 mm, 3.5 um, Agilent
Retention time: 4.706 min
Precursor m/z: 364.0973
Precursor type: [M-H]-
m/z	relative intensity
71.9914	71
74.0095	71
83.0225	142
93.0334	999
93.0482	71
129.0118	784
129.0345	71
132.021	285
133.0239	71
133.0348	214
146.0652	142
172.0408	142
172.0568	142
189.0634	71
206.0268	856
223.0566	428
