Mass spectrum: Perfluoropentane-1-sulfonic acid; LC-ESI-QTOF; MS2; 80 V
Name: Perfluoropentane-1-sulfonic acid
Class: Industrial_process
Formula: C5HF11O3S
Exact mass: 349.9471
SMILES: C(C(C(F)(F)F)(F)F)(C(C(F)(F)S(=O)(=O)O)(F)F)(F)F
InChI: InChI=1S/C5HF11O3S/c6-1(7,2(8,9)4(12,13)14)3(10,11)5(15,16)20(17,18)19/h(H,17,18,19)
Instrument: TripleTOF 6600 SCIEX
Instrument type: LC-ESI-QTOF
Ms type: MS2
Ion mode: NEGATIVE
Collision energy: 80
Fragmentation mode: CID
Ionization: ESI
Column name: Zorbax Eclipse Plus C18 2.1 mm x 150 mm, 3.5 um, Agilent
Retention time: 11.383 min
Precursor m/z: 348.9398
Precursor type: [M-H]-
m/z	relative intensity
79.955	999
98.9535	241
