Mass spectrum: Nifedipine; LC-ESI-QTOF; MS2; 20 V
Name: Nifedipine
Class: Pharmaceutical
Formula: C17H18N2O6
Exact mass: 346.1165
SMILES: CC1=C(C(C(=C(N1)C)C(=O)OC)C2=CC=CC=C2[N+](=O)[O-])C(=O)OC
InChI: InChI=1S/C17H18N2O6/c1-9-13(16(20)24-3)15(14(10(2)18-9)17(21)25-4)11-7-5-6-8-12(11)19(22)23/h5-8,15,18H,1-4H3
Instrument: TripleTOF 5600 SCIEX
Instrument type: LC-ESI-QTOF
Ms type: MS2
Ion mode: POSITIVE
Collision energy: 20
Fragmentation mode: CID
Ionization: ESI
Column name: Zorbax Eclipse Plus C18 2.1 mm x 150 mm, 3.5 um, Agilent
Retention time: 10.896 min
Precursor m/z: 347.1238
Precursor type: [M+H]+
m/z	relative intensity
122.0256	20
154.0645	45
168.0817	30
170.0611	21
178.0656	16
180.0673	15
181.0767	11
182.0851	38
183.0923	32
194.0839	29
195.0917	254
196.0994	41
197.1072	68
198.055	11
209.0712	97
210.0868	12
211.0867	257
212.0945	100
214.0495	69
218.0803	10
221.0719	11
222.0702	60
223.086	23
226.0845	56
227.0809	16
239.0811	586
241.0968	299
246.0758	139
253.0969	307
254.1042	934
255.0754	68
256.0827	44
270.0796	48
271.1071	597
284.0921	14
315.0965	999
329.1124	20
347.1228	20
