Mass spectrum: Flavanone; LC-ESI-QTOF; MS2; 120 V
Name: Flavanone
Class: Personal_care_product
Formula: C15H12O2
Exact mass: 224.0837
SMILES: C1C(OC2=CC=CC=C2C1=O)C3=CC=CC=C3
InChI: InChI=1S/C15H12O2/c16-13-10-15(11-6-2-1-3-7-11)17-14-9-5-4-8-12(13)14/h1-9,15H,10H2
Instrument: TripleTOF 5600 SCIEX
Instrument type: LC-ESI-QTOF
Ms type: MS2
Ion mode: POSITIVE
Collision energy: 120
Fragmentation mode: CID
Ionization: ESI
Column name: Zorbax Eclipse Plus C18 2.1 mm x 150 mm, 3.5 um, Agilent
Retention time: 12.61 min
Precursor m/z: 225.091
Precursor type: [M+H]+
m/z	relative intensity
37.0075	148
38.0156	175
39.0231	391
49.007	108
50.0147	364
51.0229	999
53.0019	94
61.0072	67
62.0147	121
63.0228	108
65.0385	148
74.0148	337
75.0225	188
76.0304	67
77.0385	458
91.0541	67
98.0144	80
102.0448	80
126.0482	67
150.0487	80
151.0568	80
