Mass spectrum: Hexamidine; LC-ESI-QTOF; MS2; 30 V
Name: Hexamidine
Class: Pharmaceutical
Formula: C20H26N4O2
Exact mass: 354.2056
SMILES: C1=CC(=CC=C1C(=N)N)OCCCCCCOC2=CC=C(C=C2)C(=N)N
InChI: InChI=1S/C20H26N4O2/c21-19(22)15-5-9-17(10-6-15)25-13-3-1-2-4-14-26-18-11-7-16(8-12-18)20(23)24/h5-12H,1-4,13-14H2,(H3,21,22)(H3,23,24)
Instrument: TripleTOF 5600 SCIEX
Instrument type: LC-ESI-QTOF
Ms type: MS2
Ion mode: POSITIVE
Collision energy: 30
Fragmentation mode: CID
Ionization: ESI
Column name: Zorbax Eclipse Plus C18 2.1 mm x 150 mm, 3.5 um, Agilent
Retention time: 5.915 min
Precursor m/z: 355.2129
Precursor type: [M+H]+
m/z	relative intensity
120.0443	90
137.0711	73
321.1656	28
338.1853	999
338.221	28
355.2131	237
