Mass spectrum: Carbamazepine; LC-ESI-QTOF; MS2; 140 V
Name: Carbamazepine
Class: Pharmaceutical
Formula: C15H12N2O
Exact mass: 236.095
SMILES: NC(=O)N1c2ccccc2C=Cc3ccccc13
InChI: InChI=1S/C15H12N2O/c16-15(18)17-13-7-3-1-5-11(13)9-10-12-6-2-4-8-14(12)17/h1-10H,(H2,16,18)
Instrument: TripleTOF 5600 SCIEX
Instrument type: LC-ESI-QTOF
Ms type: MS2
Ion mode: POSITIVE
Collision energy: 140
Fragmentation mode: CID
Ionization: ESI
Column name: Zorbax Eclipse Plus C18 2.1 mm x 150 mm, 3.5 um, Agilent
Retention time: 8.87 min
Precursor m/z: 237.1022
Precursor type: [M+H]+
m/z	relative intensity
60.0057	89
64.036	27
65.0429	89
73.0097	213
74.0192	999
75.0254	372
76.0355	130
77.0417	75
84.002	103
85.0089	330
86.017	668
87.0246	475
88.0194	41
88.032	55
89.0409	537
97.0087	110
98.0159	682
99.0216	179
101.0368	34
102.0451	48
107.9994	41
109.0086	144
110.0152	282
111.0215	199
112.0226	55
113.0379	158
114.046	27
115.053	75
121.0046	48
122.0141	151
123.0222	62
126.0511	34
134.0164	48
137.0386	172
138.0349	55
138.0505	68
139.0541	103
140.0457	34
150.0433	124
161.0374	289
162.0472	268
163.0535	316
164.0502	62
187.0496	27
188.0487	165
189.0597	96
190.07	48
