Mass spectrum: Sulfasalazine; LC-ESI-QTOF; MS2; 90 V
Name: Sulfasalazine
Class: Pharmaceutical
Formula: C18H14N4O5S
Exact mass: 398.0685
SMILES: C1=CC=NC(=C1)NS(=O)(=O)C2=CC=C(C=C2)NN=C3C=CC(=O)C(=C3)C(=O)O
InChI: InChI=1S/C18H14N4O5S/c23-16-9-6-13(11-15(16)18(24)25)21-20-12-4-7-14(8-5-12)28(26,27)22-17-3-1-2-10-19-17/h1-11,20H,(H,19,22)(H,24,25)
Instrument: TripleTOF 5600 SCIEX
Instrument type: LC-ESI-QTOF
Ms type: MS2
Ion mode: POSITIVE
Collision energy: 90
Fragmentation mode: CID
Ionization: ESI
Column name: Zorbax Eclipse Plus C18 2.1 mm x 150 mm, 3.5 um, Agilent
Retention time: 9.217 min
Precursor m/z: 399.0758
Precursor type: [M+H]+
m/z	relative intensity
41.0362	21
50.0257	32
51.031	14
53.0468	39
55.0256	25
61.0162	18
62.0252	50
63.0304	217
66.0404	14
67.049	999
76.0366	79
77.0437	87
78.0402	61
80.0176	25
81.0392	214
89.046	36
91.0223	864
93.0509	32
94.0563	410
101.0445	29
102.0386	25
107.0143	25
109.0308	25
113.043	43
114.0403	39
119.0159	297
127.0564	36
128.0526	29
129.0488	43
130.0343	18
137.0248	98
138.0487	21
139.057	108
140.0524	58
141.0548	21
142.0544	18
149.0426	18
155.0616	65
156.0682	32
165.0281	14
166.0547	43
167.061	39
168.0703	116
169.0771	47
180.0591	47
185.0355	25
229.0745	25
