Mass spectrum: Tepraloxydim; LC-ESI-QTOF; MS2; 70 V
Name: Tepraloxydim
Class: Herbicide
Formula: C17H24ClNO4
Exact mass: 341.1394
SMILES: CCC(=NOCC=CCl)C1=C(CC(CC1=O)C2CCOCC2)O
InChI: InChI=1S/C17H24ClNO4/c1-2-14(19-23-7-3-6-18)17-15(20)10-13(11-16(17)21)12-4-8-22-9-5-12/h3,6,12-13,20H,2,4-5,7-11H2,1H3
Instrument: TripleTOF 6600 SCIEX
Instrument type: LC-ESI-QTOF
Ms type: MS2
Ion mode: POSITIVE
Collision energy: 70
Fragmentation mode: CID
Ionization: ESI
Column name: Zorbax Eclipse Plus C18 2.1 mm x 150 mm, 3.5 um, Agilent
Retention time: 12.248 min
Precursor m/z: 342.1467
Precursor type: [M+H]+
m/z	relative intensity
37.007	23
38.0146	23
39.0222	142
41.0376	142
42.033	130
43.017	136
44.0124	41
44.0487	29
48.9834	172
50.0141	29
51.022	101
53.0378	136
54.0324	77
55.0165	95
55.0532	190
56.0487	220
57.0321	29
65.0373	237
66.046	41
67.0175	35
67.0407	112
67.0531	279
68.0122	35
68.0487	309
68.9958	23
69.032	118
69.0688	35
70.0274	23
70.065	83
72.0437	53
74.9985	267
77.0375	921
78.0321	29
78.0457	35
79.0174	41
79.0531	445
80.0486	154
81.0323	124
81.0558	71
81.0682	166
82.0642	184
83.0479	107
84.0425	29
84.0785	23
89.0378	29
91.053	999
92.0475	83
93.0323	47
93.0562	178
93.0683	267
94.0405	41
94.0641	279
95.0481	95
95.0717	29
95.0842	23
96.0432	463
96.0799	53
97.0513	41
98.0588	981
102.0459	29
103.053	457
105.044	65
105.0682	190
106.0632	101
107.0481	95
107.0712	35
107.0825	29
108.0447	41
108.0791	249
109.0271	23
109.0499	23
109.0637	65
109.0878	23
110.059	202
110.0952	118
111.0431	59
111.0668	118
114.0903	35
115.0529	196
116.0606	65
117.0566	71
117.0687	118
118.0638	95
119.0471	65
119.0719	41
119.0843	65
120.0779	71
121.0635	440
122.0585	107
124.0376	136
124.0751	89
126.0487	29
127.0527	65
128.0618	202
129.0687	89
130.064	77
130.0761	23
131.0477	65
131.0704	29
131.0834	29
132.079	65
134.0586	23
134.0974	41
136.037	47
136.075	112
138.0906	107
141.0682	77
143.0832	29
144.0792	83
145.0626	41
146.0599	71
147.0425	89
147.0659	29
148.0746	77
149.058	118
153.0681	29
156.0772	35
157.0863	29
158.0965	29
160.0739	35
161.0609	35
162.0528	41
164.0706	41
166.0855	59
176.0689	23
