Mass spectrum: Tadalafil; LC-ESI-QTOF; MS2; 80 V
Name: Tadalafil
Class: Pharmaceutical
Formula: C22H19N3O4
Exact mass: 389.1376
SMILES: CN1CC(=O)N2C(C1=O)CC3=C(C2C4=CC5=C(C=C4)OCO5)NC6=CC=CC=C36
InChI: InChI=1S/C22H19N3O4/c1-24-10-19(26)25-16(22(24)27)9-14-13-4-2-3-5-15(13)23-20(14)21(25)12-6-7-17-18(8-12)29-11-28-17/h2-8,16,21,23H,9-11H2,1H3
Instrument: TripleTOF 5600 SCIEX
Instrument type: LC-ESI-QTOF
Ms type: MS2
Ion mode: POSITIVE
Collision energy: 80
Fragmentation mode: CID
Ionization: ESI
Column name: Zorbax Eclipse Plus C18 2.1 mm x 150 mm, 3.5 um, Agilent
Retention time: 9.801 min
Precursor m/z: 390.1448
Precursor type: [M+H]+
m/z	relative intensity
77.0386	70
79.0545	19
105.0325	13
115.0541	116
128.0499	20
130.0648	38
135.0437	70
140.0471	13
142.064	34
151.0531	12
163.0526	12
164.0574	12
165.0681	17
166.0634	10
167.0639	25
168.0699	46
169.076	235
176.0634	36
177.0702	31
178.0675	15
189.0709	48
190.0625	17
191.072	88
192.0812	41
193.0897	20
202.0651	13
203.0734	110
204.081	999
205.0878	119
206.0932	12
206.1058	12
214.0637	19
215.0744	45
216.0816	36
217.0865	32
232.0742	62
233.0844	15
261.0793	17
262.079	10
