Mass spectrum: Caprolactam; LC-ESI-QTOF; MS2; 130 V
Name: Caprolactam
Class: Food_additive; Industrial_process
Formula: C6H11NO
Exact mass: 113.0841
SMILES: C1CCC(=O)NCC1
InChI: InChI=1S/C6H11NO/c8-6-4-2-1-3-5-7-6/h1-5H2,(H,7,8)
Instrument: TripleTOF 6600 SCIEX
Instrument type: LC-ESI-QTOF
Ms type: MS2
Ion mode: POSITIVE
Collision energy: 130
Fragmentation mode: CID
Ionization: ESI
Column name: Zorbax Eclipse Plus C18 2.1 mm x 150 mm, 3.5 um, Agilent
Retention time: 5.197 min
Precursor m/z: 114.0914
Precursor type: [M+H]+
m/z	relative intensity
36.0001	486
37.0078	999
38.0033	333
38.0157	486
39.0235	230
43.0056	179
44.0144	742
