Mass spectrum: Progesterone; LC-ESI-QTOF; MS2; 70 V
Name: Progesterone
Class: Pharmaceutical
Formula: C21H30O2
Exact mass: 314.2246
SMILES: CC(=O)[C@H]1CC[C@H]2[C@@H]3CCC4=CC(=O)CC[C@]4(C)[C@H]3CC[C@]12C
InChI: InChI=1S/C21H30O2/c1-13(22)17-6-7-18-16-5-4-14-12-15(23)8-10-20(14,2)19(16)9-11-21(17,18)3/h12,16-19H,4-11H2,1-3H3/t16-,17+,18-,19-,20-,21+/m0/s1
Instrument: TripleTOF 5600 SCIEX
Instrument type: LC-ESI-QTOF
Ms type: MS2
Ion mode: POSITIVE
Collision energy: 70
Fragmentation mode: CID
Ionization: ESI
Column name: Zorbax Eclipse Plus C18 2.1 mm x 150 mm, 3.5 um, Agilent
Retention time: 13.796 min
Precursor m/z: 315.2319
Precursor type: [M+H]+
m/z	relative intensity
43.0267	223
51.0281	18
55.0241	63
55.0593	86
57.0378	11
65.0416	66
66.0508	18
67.0579	207
69.0375	18
69.073	93
71.0522	20
77.0417	517
79.0575	978
81.0359	22
81.0727	501
82.0449	15
83.0512	70
91.056	490
93.0705	123
94.0417	45
95.0497	20
95.0867	107
97.0663	999
103.0536	57
105.0709	214
107.0479	34
107.0867	34
108.0582	22
109.0654	967
109.1083	20
115.0548	79
116.0628	20
117.0686	66
119.0859	72
121.066	25
123.0805	114
127.053	29
128.0624	77
129.0692	77
130.0761	25
131.0856	41
133.0993	18
141.0706	47
142.0776	47
143.0846	43
144.0917	9
145.1004	15
147.1167	11
152.0636	13
153.0718	25
155.0851	27
157.0991	11
165.0695	20
167.0859	25
169.1025	13
178.0802	13
183.1156	15
