Mass spectrum: Acridine-9-carboxylic acid; LC-ESI-QTOF; MS2; 40 V
Name: Acridine-9-carboxylic acid
Class: Pharmaceutical; Metabolite; Transformation_product
Formula: C14H9NO2
Exact mass: 223.0633
SMILES: OC(=O)c1c2ccccc2nc3ccccc13
InChI: InChI=1S/C14H9NO2/c16-14(17)13-9-5-1-3-7-11(9)15-12-8-4-2-6-10(12)13/h1-8H,(H,16,17)
Instrument: TripleTOF 5600 SCIEX
Instrument type: LC-ESI-QTOF
Ms type: MS2
Ion mode: POSITIVE
Collision energy: 40
Fragmentation mode: CID
Ionization: ESI
Column name: Zorbax Eclipse Plus C18 2.1 mm x 150 mm, 3.5 um, Agilent
Retention time: 4.656 min
Precursor m/z: 224.0706
Precursor type: [M+H]+
m/z	relative intensity
151.0542	35
152.0619	70
166.0656	17
167.0736	297
168.0809	59
177.0574	14
178.0657	99
179.073	116
180.0812	395
195.0681	86
196.0763	999
224.0708	158
