Mass spectrum: Thioxanthen-9-one; LC-ESI-QTOF; MS2; 120 V
Name: Thioxanthen-9-one
Formula: C13H8OS
Exact mass: 212.0296
SMILES: C1=CC=C2C(=C1)C(=O)C3=CC=CC=C3S2
InChI: InChI=1S/C13H8OS/c14-13-9-5-1-3-7-11(9)15-12-8-4-2-6-10(12)13/h1-8H
Instrument: TripleTOF 6600 SCIEX
Instrument type: LC-ESI-QTOF
Ms type: MS2
Ion mode: POSITIVE
Collision energy: 120
Fragmentation mode: CID
Ionization: ESI
Column name: Zorbax Eclipse Plus C18 2.1 mm x 150 mm, 3.5 um, Agilent
Retention time: 13.479 min
Precursor m/z: 213.0369
Precursor type: [M+H]+
m/z	relative intensity
36.0001	24
37.0073	133
38.0151	58
39.023	208
44.9789	141
49.007	99
50.0152	624
51.0227	349
57.9868	24
59.9988	74
61.0068	370
62.0153	607
63.023	815
65.0386	99
67.9714	158
68.9792	999
73.0072	154
74.015	736
75.0233	195
76.0303	74
77.0381	70
78.0479	20
80.9786	41
81.9867	79
84.0005	70
85.0071	278
86.015	657
87.023	524
88.0311	108
89.0389	582
91.9709	33
92.979	224
97.0061	74
98.0152	732
99.0232	116
100.0294	29
102.0466	37
108.002	20
109.0069	79
110.0154	174
111.0235	54
112.0321	16
113.0375	245
114.0446	20
115.0541	33
116.9785	37
121.0081	16
122.0152	49
126.0437	45
133.0091	16
137.0385	174
138.0474	87
139.0537	224
149.0402	29
150.0462	233
151.054	20
