Mass spectrum: Ethyl-2-cyano-3.3-diphenylacrylate; LC-ESI-QTOF; MS2; 40 V
Name: Ethyl-2-cyano-3.3-diphenylacrylate
Class: Industrial_process; Personal_care_product
Formula: C18H15NO2
Exact mass: 277.1103
SMILES: CCOC(=O)C(=C(C1=CC=CC=C1)C2=CC=CC=C2)C#N
InChI: InChI=1S/C18H15NO2/c1-2-21-18(20)16(13-19)17(14-9-5-3-6-10-14)15-11-7-4-8-12-15/h3-12H,2H2,1H3
Instrument: TripleTOF 5600 SCIEX
Instrument type: LC-ESI-QTOF
Ms type: MS2
Ion mode: POSITIVE
Collision energy: 40
Fragmentation mode: CID
Ionization: ESI
Column name: Zorbax Eclipse Plus C18 2.1 mm x 150 mm, 3.5 um, Agilent
Retention time: 13.596 min
Precursor m/z: 278.1176
Precursor type: [M+H]+
m/z	relative intensity
77.0432	145
101.039	14
104.0515	57
105.0353	386
128.0492	22
129.0332	36
147.0451	22
151.0543	109
152.0632	19
154.0329	16
157.0293	30
165.069	14
175.0527	17
176.0622	431
177.0696	497
178.0781	142
179.0849	19
182.0942	17
201.0589	24
202.0652	78
203.0735	578
204.0808	854
205.078	22
206.0986	30
232.0748	999
250.085	24
