Mass spectrum: Entacapone; LC-ESI-QTOF; MS2; 40 V
Name: Entacapone
Class: Pharmaceutical
Formula: C14H15N3O5
Exact mass: 305.1012
SMILES: CCN(CC)C(=O)C(=CC1=CC(=C(C(=C1)O)O)[N+](=O)[O-])C#N
InChI: InChI=1S/C14H15N3O5/c1-3-16(4-2)14(20)10(8-15)5-9-6-11(17(21)22)13(19)12(18)7-9/h5-7,18-19H,3-4H2,1-2H3
Instrument: TripleTOF 5600 SCIEX
Instrument type: LC-ESI-QTOF
Ms type: MS2
Ion mode: POSITIVE
Collision energy: 40
Fragmentation mode: CID
Ionization: ESI
Column name: Zorbax Eclipse Plus C18 2.1 mm x 150 mm, 3.5 um, Agilent
Retention time: 9.381 min
Precursor m/z: 306.1084
Precursor type: [M+H]+
m/z	relative intensity
43.0406	22
44.0228	26
68.02	49
71.0656	71
72.0506	161
72.086	85
74.1031	103
75.0152	26
76.0229	179
78.0366	22
80.0185	49
88.0212	215
90.0372	40
91.0559	17
96.0465	31
99.0926	165
100.0773	107
101.0272	223
103.0301	362
104.0144	259
104.0429	35
105.0448	26
106.031	22
114.0224	58
115.0293	223
116.0141	80
116.0389	44
116.0494	22
117.0248	17
117.0458	17
118.0512	17
119.0594	26
122.0378	35
124.0779	53
129.0212	452
130.0358	22
131.0252	694
132.0078	58
132.0448	22
133.0157	22
133.0413	40
134.0269	35
142.0162	138
143.0224	98
144.0308	40
144.0545	35
145.0174	22
145.0425	31
157.0155	273
158.0244	44
158.0366	26
158.0708	31
159.0193	999
161.0335	22
161.043	35
161.1061	17
163.0511	35
168.0303	103
170.0114	878
171.0175	215
172.0514	67
172.0859	35
173.0406	22
173.0695	22
177.1023	26
185.0101	394
186.0138	22
186.0274	17
186.0667	31
186.1047	67
187.0146	456
187.0747	89
193.1091	40
200.0801	40
204.0869	17
207.04	35
208.023	17
215.0085	85
215.1033	85
217.1007	17
233.0201	125
239.101	85
272.0975	17
