Mass spectrum: Enrofloxacin; LC-ESI-QTOF; MS2; 40 V
Name: Enrofloxacin
Class: Pharmaceutical; Antimicrobial
Formula: C19H22FN3O3
Exact mass: 359.1645
SMILES: CCN1CCN(CC1)c2cc3N(C=C(C(O)=O)C(=O)c3cc2F)C4CC4
InChI: InChI=1S/C19H22FN3O3/c1-2-21-5-7-22(8-6-21)17-10-16-13(9-15(17)20)18(24)14(19(25)26)11-23(16)12-3-4-12/h9-12H,2-8H2,1H3,(H,25,26)
Instrument: TripleTOF 5600 SCIEX
Instrument type: LC-ESI-QTOF
Ms type: MS2
Ion mode: POSITIVE
Collision energy: 40
Fragmentation mode: CID
Ionization: ESI
Column name: Zorbax Eclipse Plus C18 2.1 mm x 150 mm, 3.5 um, Agilent
Retention time: 5.696 min
Precursor m/z: 360.1718
Precursor type: [M+H]+
m/z	relative intensity
70.068	16
72.0837	16
84.0829	31
135.0487	11
176.0728	13
189.0445	20
203.0612	65
204.07	41
215.0247	16
216.0676	14
217.039	41
217.0797	12
229.0771	12
230.047	11
231.0931	21
243.0553	54
245.1081	217
258.0677	39
271.0761	28
286.0985	245
300.1148	31
314.13	11
314.1662	34
316.1805	272
322.1521	13
342.1607	999
360.1685	150
