Mass spectrum: 2-Aminobenzothiazole; LC-ESI-QTOF; MS2; 60 V
Name: 2-Aminobenzothiazole
Formula: C7H6N2S
Exact mass: 150.0252
SMILES: C1=CC=C2C(=C1)N=C(S2)N
InChI: InChI=1S/C7H6N2S/c8-7-9-5-3-1-2-4-6(5)10-7/h1-4H,(H2,8,9)
Instrument: TripleTOF X500R SCIEX
Instrument type: LC-ESI-QTOF
Ms type: MS2
Ion mode: POSITIVE
Collision energy: 60
Fragmentation mode: CID
Ionization: ESI
Column name: Zorbax Eclipse Plus C18 2.1 mm x 150 mm, 3.5 um, Agilent
Retention time: 4.985 min
Precursor m/z: 151.0325
Precursor type: [M+H]+
m/z	relative intensity
37.0072	138
38.0152	123
39.0226	888
41.0255	10
43.0291	54
44.9794	92
47.9899	10
50.0151	44
51.0228	228
52.0184	11
53.0386	247
57.9879	13
59.9903	84
62.0151	28
63.0227	256
64.0185	194
65.0381	999
66.0465	24
68.979	808
69.9873	21
70.9955	14
74.0151	11
77.0384	248
80.0494	425
80.9797	16
81.9873	61
82.9947	28
90.0339	149
91.0418	126
92.0498	23
92.9799	67
94.9954	47
96.003	64
97.0108	66
106.9943	28
108.0029	282
109.0107	511
118.0525	67
123.0139	10
124.0219	36
132.9968	14
