Mass spectrum: 6-Acetylcodeine; LC-ESI-QTOF; MS2; 40 V
Name: 6-Acetylcodeine
Class: Pharmaceutical; Transformation_product
Formula: C20H23NO4
Exact mass: 341.1627
SMILES: CC(=O)OC1C=CC2C3CC4=C5C2(C1OC5=C(C=C4)OC)CCN3C
InChI: InChI=1S/C20H23NO4/c1-11(22)24-16-7-5-13-14-10-12-4-6-15(23-3)18-17(12)20(13,19(16)25-18)8-9-21(14)2/h4-7,13-14,16,19H,8-10H2,1-3H3
Instrument: TripleTOF 5600 SCIEX
Instrument type: LC-ESI-QTOF
Ms type: MS2
Ion mode: POSITIVE
Collision energy: 40
Fragmentation mode: CID
Ionization: ESI
Column name: Zorbax Eclipse Plus C18 2.1 mm x 150 mm, 3.5 um, Agilent
Retention time: 6.207 min
Precursor m/z: 342.17
Precursor type: [M+H]+
m/z	relative intensity
43.0258	15
58.0709	69
137.0596	14
141.0701	10
146.0599	11
152.0623	10
153.0692	18
154.0773	11
155.0857	20
159.0803	14
161.0594	21
165.0702	166
166.0769	20
167.0858	76
169.1015	18
171.0807	14
175.0755	40
177.0705	42
178.0778	28
179.0851	45
181.065	63
182.0728	59
183.0805	61
185.0598	15
186.0672	10
187.0752	29
190.0809	11
191.0847	58
192.1007	11
193.0646	97
193.0996	16
194.0722	42
195.0801	77
197.096	220
199.0751	57
201.0718	10
201.0915	10
203.0832	16
205.0647	15
207.0799	51
208.0879	19
209.0598	70
209.0958	23
210.0675	131
211.0749	35
212.0826	10
213.0916	28
215.1065	110
219.0806	46
220.0883	28
221.0952	33
222.0659	11
223.076	123
224.0832	13
225.0912	975
228.078	10
236.0829	56
237.0913	47
238.0974	14
239.1043	21
241.0862	55
241.121	10
243.1015	72
250.1219	30
251.1067	74
252.1019	23
253.1224	23
266.1178	96
267.1249	66
268.1329	12
269.1165	23
282.1499	139
283.0957	14
300.16	38
342.1707	999
