Mass spectrum: Acridine; LC-ESI-QTOF; MS2; 110 V
Name: Acridine
Class: Industrial_process
Formula: C13H9N
Exact mass: 179.0735
SMILES: c1ccc2nc3ccccc3cc2c1
InChI: InChI=1S/C13H9N/c1-3-7-12-10(5-1)9-11-6-2-4-8-13(11)14-12/h1-9H
Instrument: TripleTOF 5600 SCIEX
Instrument type: LC-ESI-QTOF
Ms type: MS2
Ion mode: POSITIVE
Collision energy: 110
Fragmentation mode: CID
Ionization: ESI
Column name: Zorbax Eclipse Plus C18 2.1 mm x 150 mm, 3.5 um, Agilent
Retention time: 5.776 min
Precursor m/z: 180.0808
Precursor type: [M+H]+
m/z	relative intensity
52.0363	21
73.0113	105
74.0193	999
74.0555	11
75.0262	335
75.0555	15
76.0203	26
76.0341	93
77.042	88
78.0489	17
85.0095	133
86.0174	205
87.0257	80
88.0211	10
89.0401	44
97.0078	70
98.0164	392
99.022	128
100.0318	17
101.0392	12
102.0466	18
109.0074	43
110.0153	86
111.0248	28
113.04	10
122.016	57
123.0194	29
124.0309	18
125.0411	12
126.0465	40
149.0401	25
150.0462	119
151.0547	15
175.0432	14
176.0479	10
