Mass spectrum: Febantel; LC-ESI-QTOF; MS2; 50 V
Name: Febantel
Class: Pharmaceutical
Formula: C20H22N4O6S
Exact mass: 446.126
SMILES: COCC(=O)Nc1cc(Sc2ccccc2)ccc1NC(NC(=O)OC)=NC(=O)OC
InChI: InChI=1S/C20H22N4O6S/c1-28-12-17(25)21-16-11-14(31-13-7-5-4-6-8-13)9-10-15(16)22-18(23-19(26)29-2)24-20(27)30-3/h4-11H,12H2,1-3H3,(H,21,25)(H2,22,23,24,26,27)
Instrument: TripleTOF 5600 SCIEX
Instrument type: LC-ESI-QTOF
Ms type: MS2
Ion mode: POSITIVE
Collision energy: 50
Fragmentation mode: CID
Ionization: ESI
Column name: Zorbax Eclipse Plus C18 2.1 mm x 150 mm, 3.5 um, Agilent
Retention time: 13.085 min
Precursor m/z: 447.1333
Precursor type: [M+H]+
m/z	relative intensity
45.0433	61
83.0265	44
109.0117	102
118.0529	14
145.0628	17
146.0475	18
149.0172	29
159.0433	31
171.0424	34
172.0509	37
173.0577	24
174.0414	15
183.0252	11
190.0068	36
198.0368	15
202.0066	41
202.0484	10
203.0664	12
204.0768	42
209.0263	12
210.0377	13
213.0413	14
214.0476	24
225.0471	45
227.0637	199
229.0352	65
237.0476	63
238.0558	13
239.0631	56
240.0621	29
243.0589	19
246.0656	14
247.0734	28
252.0584	15
253.0429	75
254.0729	20
255.0586	12
261.0595	19
265.0369	36
266.0375	94
267.0459	289
268.0538	170
269.0744	27
278.0376	36
280.0537	999
282.0688	102
293.048	27
294.0317	26
297.069	28
308.0483	23
311.0578	18
312.0787	35
323.0595	101
325.074	28
