Mass spectrum: 3,4-Methylenedioxymethamphetamine; LC-ESI-QTOF; MS2; 100 V
Name: 3,4-Methylenedioxymethamphetamine
Class: Pharmaceutical
Formula: C11H15NO2
Exact mass: 193.1103
SMILES: CC(CC1=CC2=C(C=C1)OCO2)NC
InChI: InChI=1S/C11H15NO2/c1-8(12-2)5-9-3-4-10-11(6-9)14-7-13-10/h3-4,6,8,12H,5,7H2,1-2H3
Instrument: TripleTOF 6600 SCIEX
Instrument type: LC-ESI-QTOF
Ms type: MS2
Ion mode: POSITIVE
Collision energy: 100
Fragmentation mode: CID
Ionization: ESI
Column name: Zorbax Eclipse Plus C18 2.1 mm x 150 mm, 3.5 um, Agilent
Retention time: 5.421 min
Precursor m/z: 194.1176
Precursor type: [M+H]+
m/z	relative intensity
35.9989	18
37.0069	105
38.0032	11
38.0144	72
39.0226	218
42.0329	10
44.0487	11
49.0067	84
50.0147	625
51.0225	999
53.0388	13
59.9993	10
61.0061	51
62.0144	98
63.0222	162
65.0381	39
73.0063	10
74.0139	65
75.0217	19
77.0377	254
78.0446	10
89.0373	77
