Mass spectrum: Nicosulfuron; LC-ESI-QTOF; MS2; 100 V
Name: Nicosulfuron
Class: Herbicide
Formula: C15H18N6O6S
Exact mass: 410.1009
SMILES: CN(C)C(=O)C1=C(N=CC=C1)S(=O)(=O)NC(=O)NC2=NC(=CC(=N2)OC)OC
InChI: InChI=1S/C15H18N6O6S/c1-21(2)13(22)9-6-5-7-16-12(9)28(24,25)20-15(23)19-14-17-10(26-3)8-11(18-14)27-4/h5-8H,1-4H3,(H2,17,18,19,20,23)
Instrument: TripleTOF 6600 SCIEX
Instrument type: LC-ESI-QTOF
Ms type: MS2
Ion mode: NEGATIVE
Collision energy: 100
Fragmentation mode: CID
Ionization: ESI
Column name: Zorbax Eclipse Plus C18 2.1 mm x 150 mm, 3.5 um, Agilent
Retention time: 8.499 min
Precursor m/z: 409.0936
Precursor type: [M-H]-
m/z	relative intensity
38.0036	10
40.0076	57
41.0151	141
41.9977	46
63.9611	10
64.0061	38
65.0142	141
65.9982	999
82.0168	13
90.01	32
94.0268	19
107.0119	228
108.0168	10
122.0357	86
139.0463	16
