Mass spectrum: Flurtamone; LC-ESI-QTOF; MS2; 100 V
Name: Flurtamone
Class: Herbicide
Formula: C18H14F3NO2
Exact mass: 333.0977
SMILES: CNC1=C(C(=O)C(O1)C2=CC=CC=C2)C3=CC(=CC=C3)C(F)(F)F
InChI: InChI=1S/C18H14F3NO2/c1-22-17-14(12-8-5-9-13(10-12)18(19,20)21)15(23)16(24-17)11-6-3-2-4-7-11/h2-10,16,22H,1H3
Instrument: TripleTOF 6600 SCIEX
Instrument type: LC-ESI-QTOF
Ms type: MS2
Ion mode: POSITIVE
Collision energy: 100
Fragmentation mode: CID
Ionization: ESI
Column name: Zorbax Eclipse Plus C18 2.1 mm x 150 mm, 3.5 um, Agilent
Retention time: 11.864 min
Precursor m/z: 334.105
Precursor type: [M+H]+
m/z	relative intensity
42.0338	17
50.0151	34
51.0229	117
58.0288	19
74.0149	10
75.022	18
77.0387	243
89.0384	22
99.0223	15
102.0465	30
115.0543	23
125.0374	10
126.0468	62
127.0543	19
128.0624	60
139.0546	45
145.0262	12
149.0377	12
150.0469	153
151.0543	579
152.0627	525
157.0451	11
163.0548	33
165.0703	16
169.0264	12
170.0528	24
174.047	15
175.0541	61
176.0633	999
177.0706	248
178.0787	220
179.0609	18
181.0456	70
187.055	52
189.0694	10
194.0536	20
195.0609	12
196.0694	51
199.0359	12
201.0521	41
205.0461	115
206.0531	66
207.0616	162
225.0525	118
227.0676	32
245.0586	15
