Mass spectrum: Iminostilbene; LC-ESI-QTOF; MS2; 130 V
Name: Iminostilbene
Class: Pharmaceutical
Formula: C14H11N
Exact mass: 193.0891
SMILES: C1=CC=C2C(=C1)C=CC3=CC=CC=C3N2
InChI: InChI=1S/C14H11N/c1-3-7-13-11(5-1)9-10-12-6-2-4-8-14(12)15-13/h1-10,15H
Instrument: TripleTOF 6600 SCIEX
Instrument type: LC-ESI-QTOF
Ms type: MS2
Ion mode: POSITIVE
Collision energy: 130
Fragmentation mode: CID
Ionization: ESI
Column name: Zorbax Eclipse Plus C18 2.1 mm x 150 mm, 3.5 um, Agilent
Retention time: 13.175 min
Precursor m/z: 194.0964
Precursor type: [M+H]+
m/z	relative intensity
35.9963	74
37.0042	329
37.9998	16
38.0117	203
39.0197	415
49.003	222
50.011	999
51.0185	549
52.0133	19
52.0259	21
59.994	46
61.002	515
62.0098	831
63.0175	781
64.012	25
64.0248	12
65.0324	34
73.0007	186
74.0085	932
75.0042	23
75.0159	220
76.0113	23
76.0235	45
77.032	34
83.9915	43
84.9997	298
86.0073	418
87.0027	17
87.015	207
88.01	26
88.0225	20
89.0304	138
96.9983	111
98.0063	413
99.0019	37
99.0137	49
108.9973	116
110.005	156
111.0003	13
111.0126	53
113.0283	55
115.0432	10
119.9881	13
120.9954	20
122.0038	81
122.999	15
123.0114	13
132.9957	14
134.0029	22
137.0259	33
139.0422	10
150.033	14
161.0243	68
162.0315	40
163.0394	49
188.0338	17
