Mass spectrum: 4-Desmethyl-trimethoprim; LC-ESI-QTOF; MS2; 50 V
Name: 4-Desmethyl-trimethoprim
Class: Pharmaceutical
Formula: C13H16N4O3
Exact mass: 276.1222
SMILES: COC1=CC(=CC(=C1O)OC)CC2=CN=C(N=C2N)N
InChI: InChI=1S/C13H16N4O3/c1-19-9-4-7(5-10(20-2)11(9)18)3-8-6-16-13(15)17-12(8)14/h4-6,18H,3H2,1-2H3,(H4,14,15,16,17)
Instrument: TripleTOF 5600 SCIEX
Instrument type: LC-ESI-QTOF
Ms type: MS2
Ion mode: POSITIVE
Collision energy: 50
Fragmentation mode: CID
Ionization: ESI
Column name: Zorbax Eclipse Plus C18 2.1 mm x 150 mm, 3.5 um, Agilent
Retention time: 4.783 min
Precursor m/z: 277.1295
Precursor type: [M+H]+
m/z	relative intensity
54.0386	17
68.04	11
81.0468	324
81.0773	12
83.0511	12
103.0539	12
106.0387	28
109.0513	12
110.0572	81
111.0664	21
121.0755	10
123.0663	999
124.0726	43
128.0479	31
129.0569	10
131.0596	22
143.0596	11
144.0457	12
145.0747	18
146.0694	25
147.0637	31
148.0728	125
149.0791	56
151.0384	27
156.0449	32
158.0623	10
159.0629	10
160.0794	16
161.0812	39
163.0964	27
167.0694	21
170.0711	35
172.0801	16
173.0796	70
174.0606	36
175.0614	13
175.0973	28
185.0825	14
186.0638	14
187.0966	201
188.1033	33
189.0745	15
191.0903	30
198.0639	17
201.0753	26
203.0906	47
215.0914	56
216.0981	33
217.1069	19
219.0866	397
229.0683	14
231.0858	133
232.0945	25
233.1014	82
243.0844	17
244.0685	11
245.1011	35
247.0811	25
259.0821	93
261.0967	797
