Mass spectrum: Olmesartan; LC-ESI-QTOF; MS2; 140 V
Name: Olmesartan
Class: Pharmaceutical
Formula: C24H26N6O3
Exact mass: 446.2066
SMILES: CCCc1nc(c(n1Cc2ccc(cc2)c3ccccc3c4n[nH]nn4)C(O)=O)C(C)(C)O
InChI: InChI=1S/C24H26N6O3/c1-4-7-19-25-21(24(2,3)33)20(23(31)32)30(19)14-15-10-12-16(13-11-15)17-8-5-6-9-18(17)22-26-28-29-27-22/h5-6,8-13,33H,4,7,14H2,1-3H3,(H,31,32)(H,26,27,28,29)
Instrument: TripleTOF 5600 SCIEX
Instrument type: LC-ESI-QTOF
Ms type: MS2
Ion mode: POSITIVE
Collision energy: 140
Fragmentation mode: CID
Ionization: ESI
Column name: Zorbax Eclipse Plus C18 2.1 mm x 150 mm, 3.5 um, Agilent
Retention time: 7.356 min
Precursor m/z: 447.2139
Precursor type: [M+H]+
m/z	relative intensity
51.0285	23
74.0191	13
75.0258	28
77.0419	94
87.0249	21
89.0406	45
98.0161	11
99.0227	17
101.0387	23
102.0466	28
113.0389	68
114.0345	17
114.046	19
115.0541	65
125.0389	41
126.0467	81
127.0544	87
128.0616	41
137.0388	53
138.0466	42
139.0544	76
140.0498	118
149.0378	19
150.0471	233
151.0551	534
152.0618	999
153.0576	39
161.0393	22
162.0473	63
163.055	356
164.0514	247
165.0697	84
166.0654	14
175.0543	19
176.0626	241
177.0595	151
178.0654	117
179.0697	14
188.05	100
189.0582	74
190.0656	270
191.0613	12
205.0762	67
