Mass spectrum: N-ethyl-4-menthane-3-carboxamide; LC-ESI-QTOF; MS2; 80 V
Name: N-ethyl-4-menthane-3-carboxamide
Class: Food_additive; Personal_care_product
Formula: C13H25NO
Exact mass: 211.1936
SMILES: CCNC(=O)C1CC(CCC1C(C)C)C
InChI: InChI=1S/C13H25NO/c1-5-14-13(15)12-8-10(4)6-7-11(12)9(2)3/h9-12H,5-8H2,1-4H3,(H,14,15)
Instrument: TripleTOF 6600 SCIEX
Instrument type: LC-ESI-QTOF
Ms type: MS2
Ion mode: POSITIVE
Collision energy: 80
Fragmentation mode: CID
Ionization: ESI
Column name: Zorbax Eclipse Plus C18 2.1 mm x 150 mm, 3.5 um, Agilent
Retention time: 11.775 min
Precursor m/z: 212.2009
Precursor type: [M+H]+
m/z	relative intensity
35.9991	23
37.0067	93
38.0026	48
38.0147	73
39.0228	523
40.0051	11
41.0386	344
42.0338	24
43.018	34
43.0541	24
44.0131	999
44.0501	14
46.0289	44
50.0148	18
51.0225	56
53.0134	23
53.038	169
54.0337	38
55.0174	221
55.0539	260
56.0499	11
65.0378	63
66.0466	13
67.041	16
67.0537	44
69.0331	9
70.0652	13
72.0444	16
77.0383	124
79.0538	66
80.0485	33
81.0337	14
81.0698	21
82.0648	11
91.0532	48
93.0574	11
94.0646	11
