Mass spectrum: Metalaxyl; LC-ESI-QTOF; MS2; 40 V
Name: Metalaxyl
Class: Fungicide
Formula: C15H21NO4
Exact mass: 279.1471
SMILES: CC1=C(C(=CC=C1)C)N(C(C)C(=O)OC)C(=O)COC
InChI: InChI=1S/C15H21NO4/c1-10-7-6-8-11(2)14(10)16(13(17)9-19-4)12(3)15(18)20-5/h6-8,12H,9H2,1-5H3
Instrument: TripleTOF 6600 SCIEX
Instrument type: LC-ESI-QTOF
Ms type: MS2
Ion mode: POSITIVE
Collision energy: 40
Fragmentation mode: CID
Ionization: ESI
Column name: Zorbax Eclipse Plus C18 2.1 mm x 150 mm, 3.5 um, Agilent
Retention time: 10.17 min
Precursor m/z: 280.1543
Precursor type: [M+H]+
m/z	relative intensity
45.0338	360
79.0541	13
91.0545	20
105.069	64
117.0573	19
118.0652	23
119.0853	28
120.08	10
121.0883	20
128.0621	10
130.0648	71
131.0716	28
132.0806	196
133.0888	107
134.0962	227
144.08	50
145.0879	189
146.0965	81
148.112	226
150.091	18
160.1122	999
162.1274	197
164.1061	12
165.1143	18
192.1386	383
220.134	92
