Mass spectrum: Nifedipine; LC-ESI-QTOF; MS2; 100 V
Name: Nifedipine
Class: Pharmaceutical
Formula: C17H18N2O6
Exact mass: 346.1165
SMILES: CC1=C(C(C(=C(N1)C)C(=O)OC)C2=CC=CC=C2[N+](=O)[O-])C(=O)OC
InChI: InChI=1S/C17H18N2O6/c1-9-13(16(20)24-3)15(14(10(2)18-9)17(21)25-4)11-7-5-6-8-12(11)19(22)23/h5-8,15,18H,1-4H3
Instrument: TripleTOF 5600 SCIEX
Instrument type: LC-ESI-QTOF
Ms type: MS2
Ion mode: POSITIVE
Collision energy: 100
Fragmentation mode: CID
Ionization: ESI
Column name: Zorbax Eclipse Plus C18 2.1 mm x 150 mm, 3.5 um, Agilent
Retention time: 10.896 min
Precursor m/z: 347.1238
Precursor type: [M+H]+
m/z	relative intensity
42.0448	25
62.0234	12
63.03	42
65.0459	41
67.0236	18
74.0209	41
75.0288	110
76.0372	42
77.0443	289
78.041	15
78.0515	27
87.0281	21
88.0345	51
89.0434	281
90.0497	38
91.0587	42
92.0531	14
93.0618	22
98.0195	23
99.0265	100
100.0327	28
101.0426	155
102.0493	122
103.0555	39
104.0515	14
113.0415	191
114.0479	151
115.0569	841
116.0519	128
117.06	76
125.0408	198
126.0487	304
127.0556	645
128.0583	555
129.0589	78
130.0667	41
137.0417	15
138.0476	68
139.0559	893
140.0519	816
141.0654	208
142.0652	76
143.0742	35
144.0438	14
149.0408	14
150.0474	79
151.0544	201
152.058	640
153.0581	271
154.066	391
155.0614	104
156.0766	13
163.057	14
164.05	158
165.0584	130
166.0663	771
167.0735	999
168.0791	236
169.0754	42
170.061	11
177.0551	55
178.0651	56
179.0615	329
180.0772	101
181.0766	136
182.0599	17
182.0851	17
191.0599	145
192.0687	509
193.0764	224
194.083	59
195.0913	66
196.0759	24
209.0769	11
