Mass spectrum: 5-Hydroxy-Octocrylen; LC-ESI-QTOF; MS2; 50 V
Name: 5-Hydroxy-Octocrylen
Formula: C24H27NO3
Exact mass: 377.1991
SMILES: CCC(CCC(C)O)COC(=O)C(=C(C1=CC=CC=C1)C2=CC=CC=C2)C#N
InChI: InChI=1S/C24H27NO3/c1-3-19(15-14-18(2)26)17-28-24(27)22(16-25)23(20-10-6-4-7-11-20)21-12-8-5-9-13-21/h4-13,18-19,26H,3,14-15,17H2,1-2H3
Instrument: TripleTOF 5600 SCIEX
Instrument type: LC-ESI-QTOF
Ms type: MS2
Ion mode: POSITIVE
Collision energy: 50
Fragmentation mode: CID
Ionization: ESI
Column name: Zorbax Eclipse Plus C18 2.1 mm x 150 mm, 3.5 um, Agilent
Retention time: 13.815 min
Precursor m/z: 378.2064
Precursor type: [M+H]+
m/z	relative intensity
69.0689	142
77.0387	114
105.0325	456
177.0717	399
203.0715	371
204.0808	999
232.0731	884
