Mass spectrum: Dimethenamid-OA; LC-ESI-QTOF; MS2; 60 V
Name: Dimethenamid-OA
Class: Transformation_product; Herbicide
Formula: C12H17NO4S
Exact mass: 271.0878
SMILES: Cc1csc(c1N(C(C)COC)C(=O)C(=O)O)C
InChI: InChI=1S/C12H17NO4S/c1-7-6-18-9(3)10(7)13(8(2)5-17-4)11(14)12(15)16/h6,8H,5H2,1-4H3,(H,15,16)
Instrument: TripleTOF 6600 SCIEX
Instrument type: LC-ESI-QTOF
Ms type: MS2
Ion mode: NEGATIVE
Collision energy: 60
Fragmentation mode: CID
Ionization: ESI
Column name: Zorbax Eclipse Plus C18 2.1 mm x 150 mm, 3.5 um, Agilent
Retention time: 8.208 min
Precursor m/z: 270.0805
Precursor type: [M-H]-
m/z	relative intensity
31.0187	76
32.9814	153
52.0177	307
56.9799	153
57.9759	76
66.0337	76
70.9949	614
73.0114	307
83.9889	76
96.0041	153
97.0127	153
98.0059	999
110.021	76
111.0257	76
122.0054	153
124.0257	153
136.0208	153
148.0201	153
150.0387	76
162.0356	153
