Mass spectrum: Disperse Yellow 9; LC-ESI-QTOF; MS2; 40 V
Name: Disperse Yellow 9
Formula: C12H10N4O4
Exact mass: 274.0702
SMILES: C1=CC(=CC=C1N)NC2=C(C=C(C=C2)[N+](=O)[O-])[N+](=O)[O-]
InChI: InChI=1S/C12H10N4O4/c13-8-1-3-9(4-2-8)14-11-6-5-10(15(17)18)7-12(11)16(19)20/h1-7,14H,13H2
Instrument: TripleTOF X500R SCIEX
Instrument type: LC-ESI-QTOF
Ms type: MS2
Ion mode: POSITIVE
Collision energy: 40
Fragmentation mode: CID
Ionization: ESI
Column name: Zorbax Eclipse Plus C18 2.1 mm x 150 mm, 3.5 um, Agilent
Retention time: 9.832 min
Precursor m/z: 275.0775
Precursor type: [M+H]+
m/z	relative intensity
93.0584	19
108.0445	44
116.0489	12
127.053	17
128.0499	12
129.0578	12
130.0665	12
139.0541	39
140.0498	60
141.046	12
143.0602	44
154.0656	85
155.0683	49
156.0693	12
164.0521	28
165.0577	23
166.0636	31
167.0612	44
168.0618	46
169.0807	12
177.0462	19
181.053	26
181.0767	330
182.0844	999
183.0807	37
193.0635	10
194.0719	688
195.0798	264
197.0719	10
210.0654	15
211.076	30
227.0685	19
228.0776	381
229.0869	53
240.0299	10
240.0651	225
241.0741	223
244.0706	19
257.0641	17
258.0767	33
275.0783	37
