Mass spectrum: Demeclocycline; LC-ESI-QTOF; MS2; 120 V
Name: Demeclocycline
Class: Antimicrobial; Pharmaceutical
Formula: C21H21ClN2O8
Exact mass: 464.0986
SMILES: CN(C)C1C2CC3C(C4=C(C=CC(=C4C(=C3C(=O)C2(C(=C(C1=O)C(=O)N)O)O)O)O)Cl)O
InChI: InChI=1S/C21H21ClN2O8/c1-24(2)14-7-5-6-10(16(27)12-9(25)4-3-8(22)11(12)15(6)26)18(29)21(7,32)19(30)13(17(14)28)20(23)31/h3-4,6-7,14-15,25-27,30,32H,5H2,1-2H3,(H2,23,31)
Instrument: TripleTOF 5600 SCIEX
Instrument type: LC-ESI-QTOF
Ms type: MS2
Ion mode: POSITIVE
Collision energy: 120
Fragmentation mode: CID
Ionization: ESI
Column name: Zorbax Eclipse Plus C18 2.1 mm x 150 mm, 3.5 um, Agilent
Retention time: 5.787 min
Precursor m/z: 465.1059
Precursor type: [M+H]+
m/z	relative intensity
115.0558	170
126.0464	97
139.0575	657
140.0618	280
141.0662	48
141.0735	97
149.0422	73
150.0486	194
151.0574	207
152.0631	999
153.0716	85
163.0573	255
164.0617	146
165.0741	109
168.0597	353
169.0659	109
173.015	73
176.0614	109
181.0597	85
186.0245	60
192.0548	73
197.0157	48
197.0594	134
199.0305	121
