Mass spectrum: Aripiprazole; LC-ESI-QTOF; MS2; 130 V
Name: Aripiprazole
Class: Pharmaceutical
Formula: C23H27Cl2N3O2
Exact mass: 447.148
SMILES: Clc1cccc(N2CCN(CCCCOc3ccc4CCC(=O)Nc4c3)CC2)c1Cl
InChI: InChI=1S/C23H27Cl2N3O2/c24-19-4-3-5-21(23(19)25)28-13-11-27(12-14-28)10-1-2-15-30-18-8-6-17-7-9-22(29)26-20(17)16-18/h3-6,8,16H,1-2,7,9-15H2,(H,26,29)
Instrument: TripleTOF 5600 SCIEX
Instrument type: LC-ESI-QTOF
Ms type: MS2
Ion mode: POSITIVE
Collision energy: 130
Fragmentation mode: CID
Ionization: ESI
Column name: Zorbax Eclipse Plus C18 2.1 mm x 150 mm, 3.5 um, Agilent
Retention time: 8.305 min
Precursor m/z: 448.1553
Precursor type: [M+H]+
m/z	relative intensity
42.0438	27
51.0269	38
55.0604	32
56.0541	54
65.042	159
74.017	131
75.0241	87
77.0408	340
78.0364	38
84.0835	32
89.0408	247
90.047	208
91.0554	504
102.033	32
103.0534	27
104.0478	82
108.9833	307
110.9985	60
115.0581	43
116.0499	76
117.0567	999
118.0648	170
125.0168	32
128.0485	49
130.0641	32
132.9582	21
138.0094	54
144.9588	285
152.0248	120
164.0262	60
171.9716	115
172.9695	54
