Mass spectrum: Sertraline; LC-ESI-QTOF; MS2; 90 V
Name: Sertraline
Class: Pharmaceutical
Formula: C17H17Cl2N
Exact mass: 305.0738
SMILES: CN[C@H]1CC[C@H](c2c1cccc2)c3ccc(c(c3)Cl)Cl
InChI: InChI=1S/C17H17Cl2N/c1-20-17-9-7-12(13-4-2-3-5-14(13)17)11-6-8-15(18)16(19)10-11/h2-6,8,10,12,17,20H,7,9H2,1H3/t12-,17-/m0/s1
Instrument: TripleTOF 5600 SCIEX
Instrument type: LC-ESI-QTOF
Ms type: MS2
Ion mode: POSITIVE
Collision energy: 90
Fragmentation mode: CID
Ionization: ESI
Column name: Zorbax Eclipse Plus C18 2.1 mm x 150 mm, 3.5 um, Agilent
Retention time: 8.925 min
Precursor m/z: 306.0811
Precursor type: [M+H]+
m/z	relative intensity
65.0434	33
72.988	322
77.0416	75
78.0483	14
82.9475	34
87.0258	19
88.0328	83
89.0418	999
91.0568	51
96.9858	139
99.0013	268
101.041	16
102.0476	45
106.9448	12
115.055	57
123.0008	838
124.0082	426
125.0159	12
126.0463	47
127.055	262
128.0631	600
129.0704	61
132.9611	203
151.0549	10
158.9775	352
162.0236	16
163.056	11
165.0684	11
176.0643	38
178.0783	14
188.0627	11
189.0707	111
199.0315	15
201.0698	15
202.0783	88
203.0858	48
