Mass spectrum: Levetiracetam acid; LC-ESI-QTOF; MS2; 40 V
Name: Levetiracetam acid
Class: Pharmaceutical; Transformation_product
Formula: C8H13NO3
Exact mass: 171.0895
SMILES: CC[C@@H](C(=O)O)N1CCCC1=O
InChI: InChI=1S/C8H13NO3/c1-2-6(8(11)12)9-5-3-4-7(9)10/h6H,2-5H2,1H3,(H,11,12)/t6-/m0/s1
Instrument: TripleTOF 5600 SCIEX
Instrument type: LC-ESI-QTOF
Ms type: MS2
Ion mode: POSITIVE
Collision energy: 40
Fragmentation mode: CID
Ionization: ESI
Column name: Zorbax Eclipse Plus C18 2.1 mm x 150 mm, 3.5 um, Agilent
Retention time: 5.699 min
Precursor m/z: 172.0968
Precursor type: [M+H]+
m/z	relative intensity
42.0424	22
55.0601	30
56.0554	33
58.0703	149
68.0531	25
69.0374	798
69.0616	12
69.0723	25
70.0677	38
81.0717	15
83.087	22
86.0611	17
96.0795	20
98.0598	38
98.0969	183
126.0912	999
