Mass spectrum: Tris(4-isopropylphenyl) phosphate; LC-ESI-QTOF; MS2; 80 V
Name: Tris(4-isopropylphenyl) phosphate
Class: Industrial_process
Formula: C27H33O4P
Exact mass: 452.2116
SMILES: CC(C)C1=CC=C(C=C1)OP(=O)(OC2=CC=C(C=C2)C(C)C)OC3=CC=C(C=C3)C(C)C
InChI: InChI=1S/C27H33O4P/c1-19(2)22-7-13-25(14-8-22)29-32(28,30-26-15-9-23(10-16-26)20(3)4)31-27-17-11-24(12-18-27)21(5)6/h7-21H,1-6H3
Instrument: TripleTOF 6600 SCIEX
Instrument type: LC-ESI-QTOF
Ms type: MS2
Ion mode: POSITIVE
Collision energy: 80
Fragmentation mode: CID
Ionization: ESI
Column name: Zorbax Eclipse Plus C18 2.1 mm x 150 mm, 3.5 um, Agilent
Retention time: 18.874 min
Precursor m/z: 453.2189
Precursor type: [M+H]+
m/z	relative intensity
39.0223	29
41.0381	46
43.0538	46
51.0227	29
65.0381	63
77.0379	545
91.0536	325
95.0486	46
103.0531	29
115.0541	40
151.0535	81
152.0616	999
153.0689	284
165.0706	40
168.0562	336
175.0145	34
178.0757	29
187.0295	46
215.0253	499
226.0777	29
227.0853	52
228.0933	162
233.0347	58
251.0472	249
327.0773	29
