Mass spectrum: Citalopram-N-oxide; LC-ESI-QTOF; MS2; 130 V
Name: Citalopram-N-oxide
Class: Metabolite; Pharmaceutical; Transformation_product
Formula: C20H21FN2O2
Exact mass: 340.1587
SMILES: C[N+](C)(CCCC1(C2=C(CO1)C=C(C=C2)C#N)C3=CC=C(C=C3)F)[O-]
InChI: InChI=1S/C20H21FN2O2/c1-23(2,24)11-3-10-20(17-5-7-18(21)8-6-17)19-9-4-15(13-22)12-16(19)14-25-20/h4-9,12H,3,10-11,14H2,1-2H3
Instrument: TripleTOF 5600 SCIEX
Instrument type: LC-ESI-QTOF
Ms type: MS2
Ion mode: POSITIVE
Collision energy: 130
Fragmentation mode: CID
Ionization: ESI
Column name: Zorbax Eclipse Plus C18 2.1 mm x 150 mm, 3.5 um, Agilent
Retention time: 7.958 min
Precursor m/z: 341.166
Precursor type: [M+H]+
m/z	relative intensity
42.0441	65
44.0582	23
51.0299	53
57.0188	443
57.0512	23
58.0696	307
59.0345	62
60.0038	17
60.0495	59
63.0555	17
65.0444	56
70.025	14
73.0105	17
74.0185	254
74.0601	11
75.0259	378
76.0203	11
76.0332	44
77.04	174
81.0166	67
83.0316	999
83.0598	23
85.0086	29
86.0174	70
87.0249	174
88.0203	50
88.0298	32
89.0407	505
90.0357	44
94.0218	32
95.0295	76
96.0382	23
97.0076	14
98.016	186
99.0237	130
100.0308	44
101.0399	29
102.0478	56
105.0141	20
107.0288	94
109.0105	14
109.0454	271
110.0158	32
111.0229	65
112.0176	17
113.0381	313
114.0334	124
115.0546	73
116.05	41
118.0206	23
120.0365	100
122.0157	103
123.0233	153
124.0283	29
125.0387	59
126.0456	73
127.0538	38
128.0618	41
131.0283	65
132.0231	11
133.0444	141
134.0138	23
135.0225	14
137.039	100
138.0348	20
138.0461	20
139.0551	41
140.0494	180
142.0192	14
143.0314	23
144.0381	82
145.0454	29
146.0146	53
146.052	47
147.0105	17
147.0222	70
148.0167	14
148.0311	70
149.0386	153
149.0576	14
150.0465	206
151.0548	62
152.0606	23
155.0303	47
156.0348	20
157.0449	91
158.0386	35
159.0255	14
160.0208	14
161.0392	174
162.0462	147
163.054	221
164.0497	82
164.0649	14
166.02	14
167.0291	56
168.0365	304
169.0453	106
170.0144	17
170.0522	76
171.0255	26
172.031	29
173.0387	103
174.046	245
175.0481	97
176.055	50
177.0563	20
179.0296	82
180.0355	165
181.0448	431
182.0448	100
183.0618	29
185.0386	59
186.0453	106
187.0529	289
187.076	17
188.05	375
189.0683	32
190.067	32
191.0303	20
192.0366	239
193.0397	141
194.0523	150
195.0487	47
197.0374	180
198.0463	540
199.0468	407
200.0597	192
201.0601	56
203.0257	20
204.0377	47
205.0443	260
206.0394	206
207.0558	97
208.055	109
209.0345	17
210.0429	35
211.0545	168
212.0509	198
213.0687	94
214.0635	44
216.0358	177
217.0445	263
218.0524	741
219.0507	138
220.0709	38
222.043	20
223.0406	100
224.0504	106
225.0567	283
226.068	20
227.0658	14
229.0445	38
230.0417	91
231.0572	162
232.0564	65
236.0493	53
237.0582	32
238.0639	147
242.045	44
243.047	221
244.0554	133
245.0636	144
256.0578	47
258.0716	20
