Mass spectrum: Prochloraz; LC-ESI-QTOF; MS2; 80 V
Name: Prochloraz
Class: Fungicide
Formula: C15H16Cl3N3O2
Exact mass: 375.0308
SMILES: CCCN(CCOc1c(cc(cc1Cl)Cl)Cl)C(=O)n2ccnc2
InChI: InChI=1S/C15H16Cl3N3O2/c1-2-4-20(15(22)21-5-3-19-10-21)6-7-23-14-12(17)8-11(16)9-13(14)18/h3,5,8-10H,2,4,6-7H2,1H3
Instrument: TripleTOF 6600 SCIEX
Instrument type: LC-ESI-QTOF
Ms type: MS2
Ion mode: POSITIVE
Collision energy: 80
Fragmentation mode: CID
Ionization: ESI
Column name: Zorbax Eclipse Plus C18 2.1 mm x 150 mm, 3.5 um, Agilent
Retention time: 11.258 min
Precursor m/z: 376.0381
Precursor type: [M+H]+
m/z	relative intensity
38.0152	39
39.023	191
41.0389	439
42.0338	383
43.0543	319
44.0493	47
56.0495	295
57.0569	55
70.0288	479
70.065	407
72.984	119
82.9451	255
89.0381	119
96.9829	39
97.9921	47
98.9985	39
106.9443	239
107.9759	175
108.9846	47
110.9983	31
122.9994	119
125.0149	175
125.9865	39
132.96	383
142.9451	207
144.9595	87
153.0096	39
158.9767	95
160.9551	39
161.9629	319
166.9219	999
169.966	47
172.9655	39
179.93	175
194.9178	47
