Mass spectrum: Nilotinib; LC-ESI-QTOF; MS2; 110 V
Name: Nilotinib
Class: Pharmaceutical
Formula: C28H22F3N7O
Exact mass: 529.1838
SMILES: Cc1cn(cn1)c2cc(NC(=O)c3ccc(C)c(Nc4nccc(n4)c5cccnc5)c3)cc(c2)C(F)(F)F
InChI: InChI=1S/C28H22F3N7O/c1-17-5-6-19(10-25(17)37-27-33-9-7-24(36-27)20-4-3-8-32-14-20)26(39)35-22-11-21(28(29,30)31)12-23(13-22)38-15-18(2)34-16-38/h3-16H,1-2H3,(H,35,39)(H,33,36,37)
Instrument: TripleTOF 5600 SCIEX
Instrument type: LC-ESI-QTOF
Ms type: MS2
Ion mode: NEGATIVE
Collision energy: 110
Fragmentation mode: CID
Ionization: ESI
Column name: Zorbax Eclipse Plus C18 2.1 mm x 150 mm, 3.5 um, Agilent
Retention time: 8.404 min
Precursor m/z: 528.1765
Precursor type: [M-H]-
m/z	relative intensity
41.0247	49
42.0027	299
42.0207	99
65.0171	199
78.0374	99
79.0301	49
81.0473	999
88.0206	49
92.0286	99
98.0039	149
103.0312	99
112.0219	49
116.0495	149
118.0102	149
130.053	249
131.062	249
136.0188	99
138.0152	149
139.0308	149
141.0443	99
141.0572	49
143.0079	49
144.061	199
151.0303	199
152.0397	99
153.048	299
155.0438	49
155.0548	299
156.0342	49
157.0158	99
158.019	99
159.0326	99
171.0394	149
171.068	549
172.0472	99
173.0494	149
178.0424	149
179.0464	99
180.0572	99
183.0329	199
185.0308	99
185.0409	99
187.0556	49
193.0627	99
198.0388	199
199.0514	49
211.012	99
211.0512	99
212.0347	49
213.0699	149
218.0712	249
223.0369	49
236.042	49
240.0745	49
