Mass spectrum: Hydroxychloroquine; LC-ESI-QTOF; MS2; 90 V
Name: Hydroxychloroquine
Class: Pharmaceutical
Formula: C18H26ClN3O
Exact mass: 335.1764
InChI: InChI=1S/C18H26ClN3O/c1-3-22(11-12-23)10-4-5-14(2)21-17-8-9-20-18-13-15(19)6-7-16(17)18/h6-9,13-14,23H,3-5,10-12H2,1-2H3,(H,20,21)
Instrument: TripleTOF 5600 SCIEX
Instrument type: LC-ESI-QTOF
Ms type: CID
Ion mode: POSITIVE
Collision energy: 90
Ionization: ESI
Column name: Zorbax Eclipse Plus C18 2.1 mm x 150 mm, 3.5 um, Agilent
Retention time: 4.747 min
Precursor m/z: 336.1837
Precursor type: [M+H]+
m/z	relative intensity
39.0227	111
41.0374	111
45.0339	222
56.049	111
58.0643	0
74.0578	0
75.0215	111
89.0373	333
90.0476	111
98.094	111
99.0218	111
102.0432	111
102.0929	111
104.0488	111
110.9986	444
112.0117	111
116.0478	666
117.0552	999
118.0636	0
126.0368	111
127.0439	222
128.0483	555
129.0515	333
129.0611	444
136.0051	222
136.013	0
138.0054	111
143.0596	666
144.0702	888
151.0198	222
155.0596	333
156.0669	444
162.011	222
163.0176	555
168.07	111
169.0786	333
178.0277	0
179.034	222
190.0192	111
191.0352	222
203.0392	111
