Mass spectrum: 5-(3,4,5-Trimethoxybenzoyl)-2,4-pyrimidinediamine; LC-ESI-QTOF; MS2; 40 V
Name: 5-(3,4,5-Trimethoxybenzoyl)-2,4-pyrimidinediamine
Class: Pharmaceutical; Transformation_product
Formula: C14H16N4O4
Exact mass: 304.1172
SMILES: COc1cc(cc(c1OC)OC)C(=O)c2cnc(nc2N)N
InChI: InChI=1S/C14H16N4O4/c1-20-9-4-7(5-10(21-2)12(9)22-3)11(19)8-6-17-14(16)18-13(8)15/h4-6H,1-3H3,(H4,15,16,17,18)
Instrument: TripleTOF 5600 SCIEX
Instrument type: LC-ESI-QTOF
Ms type: MS2
Ion mode: POSITIVE
Collision energy: 40
Fragmentation mode: CID
Ionization: ESI
Column name: Zorbax Eclipse Plus C18 2.1 mm x 150 mm, 3.5 um, Agilent
Retention time: 5.86 min
Precursor m/z: 305.1244
Precursor type: [M+H]+
m/z	relative intensity
68.0171	63
70.0327	17
95.0251	410
106.042	13
110.0588	94
111.0668	33
120.0188	13
134.0397	10
135.0485	11
137.0456	831
146.0243	11
151.0404	12
152.0469	11
161.0807	12
163.0508	99
165.0162	29
172.0635	15
173.0791	14
176.071	18
177.0751	14
179.0334	15
185.0824	44
187.0598	20
187.0991	52
188.0434	52
188.1088	12
195.0651	46
198.0655	11
199.0719	37
199.0979	23
200.0695	15
201.0769	274
202.052	11
202.08	12
205.0706	32
213.0776	39
214.0849	76
215.0928	379
216.0283	16
216.1	86
217.0697	16
219.0879	28
227.092	33
229.0714	112
230.0807	28
231.0447	13
231.0888	17
233.0578	36
242.0789	13
243.0876	206
244.0954	853
245.0674	23
246.0755	114
247.0817	125
253.0706	11
254.0788	13
257.0651	32
258.0512	21
259.0836	162
260.0887	69
261.0988	140
271.083	419
272.0879	31
273.0614	52
273.0966	18
275.0782	999
289.0938	635
290.1	12
305.1252	181
