Mass spectrum: Fluopyram; LC-ESI-QTOF; MS2; 100 V
Name: Fluopyram
Class: Fungicide
Formula: C16H11ClF6N2O
Exact mass: 396.0464
SMILES: C1=CC=C(C(=C1)C(=O)NCCC2=C(C=C(C=N2)C(F)(F)F)Cl)C(F)(F)F
InChI: InChI=1S/C16H11ClF6N2O/c17-12-7-9(15(18,19)20)8-25-13(12)5-6-24-14(26)10-3-1-2-4-11(10)16(21,22)23/h1-4,7-8H,5-6H2,(H,24,26)
Instrument: TripleTOF 6600 SCIEX
Instrument type: LC-ESI-QTOF
Ms type: MS2
Ion mode: POSITIVE
Collision energy: 100
Fragmentation mode: CID
Ionization: ESI
Column name: Zorbax Eclipse Plus C18 2.1 mm x 150 mm, 3.5 um, Agilent
Retention time: 12.765 min
Precursor m/z: 397.0537
Precursor type: [M+H]+
m/z	relative intensity
51.004	20
57.0134	14
68.9944	59
73.0073	16
74.015	134
75.0214	492
81.0134	18
95.0286	562
99.0033	50
101.0181	10
102.0337	40
104.0492	10
119.0096	54
123.0346	84
125.0192	290
126.0145	41
130.0387	18
145.0259	999
146.0202	42
152.0306	43
159.975	14
172.0362	27
173.0215	10
