Mass spectrum: Valsartanic acid; LC-ESI-QTOF; MS2; 140 V
Name: Valsartanic acid
Class: Pharmaceutical; Transformation_product
Formula: C14H10N4O2
Exact mass: 266.0804
SMILES: O=C(O)C(C=C1)=CC=C1C2=CC=CC=C2C3=NN=NN3
InChI: InChI=1S/C14H10N4O2/c19-14(20)10-7-5-9(6-8-10)11-3-1-2-4-12(11)13-15-17-18-16-13/h1-8H,(H,19,20)(H,15,16,17,18)
Instrument: TripleTOF 5600 SCIEX
Instrument type: LC-ESI-QTOF
Ms type: MS2
Ion mode: POSITIVE
Collision energy: 140
Fragmentation mode: CID
Ionization: ESI
Column name: Zorbax Eclipse Plus C18 2.1 mm x 150 mm, 3.5 um, Agilent
Retention time: 8.027 min
Precursor m/z: 267.0877
Precursor type: [M+H]+
m/z	relative intensity
60.0019	17
73.0094	119
74.0186	999
75.0259	384
76.0325	145
77.0409	114
85.0086	114
86.0161	238
87.0243	154
89.039	30
97.0083	97
98.0154	972
98.0471	26
99.0098	57
99.0231	269
100.0298	53
101.0367	22
102.0475	22
109.0075	79
110.0146	238
111.0234	88
121.0087	30
122.0148	234
123.0099	53
123.0238	79
124.0302	44
125.0378	30
126.0449	61
127.0413	22
134.0118	39
138.0398	22
148.0304	17
149.0393	101
150.0455	269
151.0399	26
151.0517	22
175.0399	35
