Mass spectrum: 3,3`-Dimethoxybenzidine; LC-ESI-QTOF; MS2; 70 V
Name: 3,3`-Dimethoxybenzidine
Formula: C14H16N2O2
Exact mass: 244.1212
SMILES: COC1=C(C=CC(=C1)C2=CC(=C(C=C2)N)OC)N
InChI: InChI=1S/C14H16N2O2/c1-17-13-7-9(3-5-11(13)15)10-4-6-12(16)14(8-10)18-2/h3-8H,15-16H2,1-2H3
Instrument: TripleTOF 6600 SCIEX
Instrument type: LC-ESI-QTOF
Ms type: MS2
Ion mode: POSITIVE
Collision energy: 70
Fragmentation mode: CID
Ionization: ESI
Column name: Zorbax Eclipse Plus C18 2.1 mm x 150 mm, 3.5 um, Agilent
Retention time: 5.188 min
Precursor m/z: 245.1285
Precursor type: [M+H]+
m/z	relative intensity
65.0382	13
77.038	63
80.0489	73
89.0373	79
90.0451	11
91.0541	41
92.0504	11
93.0564	13
101.0376	13
102.0463	31
103.0541	49
104.0506	51
105.0535	13
109.0514	87
113.0382	9
114.0438	19
115.0532	999
116.0497	87
116.0609	91
117.0564	149
118.0631	55
119.0719	11
122.0596	13
125.038	17
126.047	73
127.0527	115
128.0511	41
129.0577	15
130.0647	229
131.0685	161
132.0796	39
139.0553	15
140.048	77
141.0555	121
142.0638	287
143.0719	297
146.0591	39
152.0493	73
153.056	37
154.064	159
155.0579	29
156.0679	15
157.0758	85
158.0815	363
159.0866	319
160.0775	17
164.0481	11
168.0667	87
169.075	159
170.0632	25
171.0888	15
181.0757	21
186.078	13
187.0857	315
