Mass spectrum: Metalaxyl; LC-ESI-QTOF; MS2; 140 V
Name: Metalaxyl
Class: Fungicide
Formula: C15H21NO4
Exact mass: 279.1471
SMILES: CC1=C(C(=CC=C1)C)N(C(C)C(=O)OC)C(=O)COC
InChI: InChI=1S/C15H21NO4/c1-10-7-6-8-11(2)14(10)16(13(17)9-19-4)12(3)15(18)20-5/h6-8,12H,9H2,1-5H3
Instrument: TripleTOF 6600 SCIEX
Instrument type: LC-ESI-QTOF
Ms type: MS2
Ion mode: POSITIVE
Collision energy: 140
Fragmentation mode: CID
Ionization: ESI
Column name: Zorbax Eclipse Plus C18 2.1 mm x 150 mm, 3.5 um, Agilent
Retention time: 10.17 min
Precursor m/z: 280.1543
Precursor type: [M+H]+
m/z	relative intensity
37.0072	57
38.0151	49
39.0229	180
45.0334	90
49.0072	114
50.0148	491
51.0228	999
52.0299	32
53.0387	40
61.0072	57
62.0158	147
63.0236	368
64.0305	40
65.0383	245
74.0148	81
75.0222	57
77.0382	589
79.0533	40
89.0382	515
90.0462	106
91.0545	139
102.0456	40
103.0533	90
104.0479	57
115.0537	139
117.0562	73
130.0639	57
