Mass spectrum: Estradiol; LC-ESI-QTOF; MS2; 150 V
Name: Estradiol
Class: Pharmaceutical
Formula: C18H24O2
Exact mass: 272.1776
SMILES: CC12CCC3C(C1CCC2O)CCC4=C3C=CC(=C4)O
InChI: InChI=1S/C18H24O2/c1-18-9-8-14-13-5-3-12(19)10-11(13)2-4-15(14)16(18)6-7-17(18)20/h3,5,10,14-17,19-20H,2,4,6-9H2,1H3
Instrument: TripleTOF 5600 SCIEX
Instrument type: LC-ESI-QTOF
Ms type: MS2
Ion mode: POSITIVE
Collision energy: 150
Fragmentation mode: CID
Ionization: ESI
Column name: Zorbax Eclipse Plus C18 2.1 mm x 150 mm, 3.5 um, Agilent
Retention time: 10.403 min
Precursor m/z: 273.1849
Precursor type: [M+H]+
m/z	relative intensity
37.0075	89
38.0149	53
39.0228	214
41.0383	71
43.0172	44
49.007	71
50.0153	561
51.0226	999
53.0392	62
55.0175	44
61.0066	53
62.0147	124
63.0229	196
65.039	115
74.0139	53
75.0234	53
77.0382	651
78.0453	53
79.0533	71
89.0377	80
91.0539	53
115.055	62
