Mass spectrum: Isopyrazam; LC-ESI-QTOF; MS2; 150 V
Name: Isopyrazam
Class: Fungicide
Formula: C20H23F2N3O
Exact mass: 359.1809
SMILES: CC(C)C1C2CCC1C3=C2C=CC=C3NC(=O)C4=CN(N=C4C(F)F)C
InChI: InChI=1S/C20H23F2N3O/c1-10(2)16-12-7-8-13(16)17-11(12)5-4-6-15(17)23-20(26)14-9-25(3)24-18(14)19(21)22/h4-6,9-10,12-13,16,19H,7-8H2,1-3H3,(H,23,26)
Instrument: TripleTOF 6600 SCIEX
Instrument type: LC-ESI-QTOF
Ms type: MS2
Ion mode: POSITIVE
Collision energy: 150
Fragmentation mode: CID
Ionization: ESI
Column name: Zorbax Eclipse Plus C18 2.1 mm x 150 mm, 3.5 um, Agilent
Retention time: 14.619 min
Precursor m/z: 360.1882
Precursor type: [M+H]+
m/z	relative intensity
30.998	42
35.9995	63
37.0072	269
38.0021	42
38.0148	255
39.0227	743
41.0384	120
42.0339	276
43.0289	56
49.0066	70
50.0153	382
51.0047	155
51.023	708
52.0182	70
52.0301	49
53.0028	92
53.0382	42
57.013	170
59.9992	49
61.0065	276
62.0144	425
63.0221	751
64.0188	49
65.0387	333
66.0205	28
67.0522	28
69.0133	42
70.0098	42
73.0075	155
74.0143	850
75.009	70
75.0229	722
76.018	99
76.0305	233
77.0085	56
77.0383	999
77.998	49
78.0463	184
81.0137	77
83.0294	56
85.0073	134
86.0145	311
87.0225	375
88.0186	148
88.0291	162
89.0377	616
90.0356	28
91.0537	92
97.0056	49
98.0142	382
99.0217	488
100.0176	113
100.0298	99
101.0373	255
102.0453	467
103.0499	42
105.0141	56
107.0283	70
109.006	49
110.0138	77
111.0104	35
111.0213	92
112.0198	77
113.0376	495
114.0331	170
114.045	113
115.0528	828
116.0482	35
117.0551	28
122.0135	85
123.0092	42
123.0201	70
124.0262	106
125.0379	283
126.045	524
127.0511	453
128.061	340
129.0421	85
132.0278	35
137.0374	240
138.0393	290
139.0535	588
140.0488	410
141.0666	56
142.0535	35
144.033	35
148.0297	35
149.0394	134
150.0456	807
151.0525	616
152.0566	453
153.0511	134
154.0611	56
155.0286	42
155.0575	77
156.0209	49
161.0372	92
162.0444	148
163.0532	503
164.0478	602
165.042	63
165.0635	134
166.0633	85
167.0741	35
174.0353	28
174.0445	49
175.0449	212
176.0544	311
177.0561	247
178.0641	162
179.0583	99
184.0526	35
187.0532	106
188.0499	226
189.0587	184
190.0654	191
191.0637	148
192.064	35
200.0561	49
201.0481	42
202.0603	56
203.0657	85
204.0526	56
204.0757	35
205.0719	42
213.0572	35
214.0653	70
217.0613	35
229.0802	35
