Mass spectrum: Ethyl-2-cyano-3.3-diphenylacrylate; LC-ESI-QTOF; MS2; 80 V
Name: Ethyl-2-cyano-3.3-diphenylacrylate
Class: Industrial_process; Personal_care_product
Formula: C18H15NO2
Exact mass: 277.1103
SMILES: CCOC(=O)C(=C(C1=CC=CC=C1)C2=CC=CC=C2)C#N
InChI: InChI=1S/C18H15NO2/c1-2-21-18(20)16(13-19)17(14-9-5-3-6-10-14)15-11-7-4-8-12-15/h3-12H,2H2,1H3
Instrument: TripleTOF 5600 SCIEX
Instrument type: LC-ESI-QTOF
Ms type: MS2
Ion mode: POSITIVE
Collision energy: 80
Fragmentation mode: CID
Ionization: ESI
Column name: Zorbax Eclipse Plus C18 2.1 mm x 150 mm, 3.5 um, Agilent
Retention time: 13.596 min
Precursor m/z: 278.1176
Precursor type: [M+H]+
m/z	relative intensity
74.0209	11
75.0279	69
77.0435	478
98.0134	13
99.025	24
101.0407	33
102.0473	19
104.0526	30
105.0341	24
123.0229	16
125.0404	35
126.0479	38
127.0546	44
128.0497	11
128.0636	22
129.0357	27
139.0565	13
149.0401	69
150.0464	345
151.0543	523
152.0629	204
153.0575	19
162.0525	13
163.0529	41
164.0669	16
165.072	13
174.0477	83
175.0538	312
176.0609	999
177.058	315
178.0762	91
188.0496	13
201.0563	268
202.0629	229
203.0722	196
