Mass spectrum: Dimethenamid; LC-ESI-QTOF; MS2; 20 V
Name: Dimethenamid
Class: Herbicide
Formula: C12H18ClNO2S
Exact mass: 275.0747
SMILES: CC1=CSC(=C1N(C(C)COC)C(=O)CCl)C
InChI: InChI=1S/C12H18ClNO2S/c1-8-7-17-10(3)12(8)14(11(15)5-13)9(2)6-16-4/h7,9H,5-6H2,1-4H3
Instrument: TripleTOF 6600 SCIEX
Instrument type: LC-ESI-QTOF
Ms type: MS2
Ion mode: POSITIVE
Collision energy: 20
Fragmentation mode: CID
Ionization: ESI
Column name: Zorbax Eclipse Plus C18 2.1 mm x 150 mm, 3.5 um, Agilent
Retention time: 11.971 min
Precursor m/z: 276.082
Precursor type: [M+H]+
m/z	relative intensity
168.0844	34
244.0566	999
276.082	28
