Mass spectrum: Ofloxacin; LC-ESI-QTOF; MS2; 140 V
Name: Ofloxacin
Class: Antimicrobial; Pharmaceutical
Formula: C18H20FN3O4
Exact mass: 361.1438
SMILES: CC1COC2=C3N1C=C(C(=O)C3=CC(=C2N4CCN(CC4)C)F)C(=O)O
InChI: InChI=1S/C18H20FN3O4/c1-10-9-26-17-14-11(16(23)12(18(24)25)8-22(10)14)7-13(19)15(17)21-5-3-20(2)4-6-21/h7-8,10H,3-6,9H2,1-2H3,(H,24,25)
Instrument: TripleTOF 5600 SCIEX
Instrument type: LC-ESI-QTOF
Ms type: MS2
Ion mode: POSITIVE
Collision energy: 140
Fragmentation mode: CID
Ionization: ESI
Column name: Zorbax Eclipse Plus C18 2.1 mm x 150 mm, 3.5 um, Agilent
Retention time: 5.185 min
Precursor m/z: 362.1511
Precursor type: [M+H]+
m/z	relative intensity
42.0475	171
51.0331	142
57.0234	142
58.0763	57
70.0268	85
73.0119	128
74.0212	713
75.0154	156
75.0285	999
76.023	342
77.044	128
78.037	85
81.017	356
82.0117	57
83.0325	199
86.0171	71
87.0239	114
88.0188	99
88.0318	85
89.0427	185
90.0368	85
91.051	85
93.0171	199
94.0186	114
94.0272	71
95.0315	299
96.027	128
96.0399	85
97.0325	85
98.0203	71
99.0136	342
100.02	456
101.0414	156
102.0362	142
102.0444	99
104.0531	185
105.0135	71
107.0297	456
108.0363	142
109.0431	128
110.0399	99
113.0381	128
114.0342	185
115.0474	171
117.0462	57
120.0281	128
120.0408	85
121.0323	85
122.0413	313
126.0364	85
128.0491	85
129.0498	99
131.0299	71
132.0223	99
133.0507	57
134.0396	57
135.0496	85
139.0502	99
140.0505	128
141.0493	71
142.059	57
147.0365	71
148.0476	71
150.0283	71
