Mass spectrum: Foramsulfuron; LC-ESI-QTOF; MS2; 100 V
Name: Foramsulfuron
Class: Herbicide
Formula: C17H20N6O7S
Exact mass: 452.1114
SMILES: CN(C)C(=O)C1=C(C=C(C=C1)NC=O)S(=O)(=O)NC(=O)NC2=NC(=CC(=N2)OC)OC
InChI: InChI=1S/C17H20N6O7S/c1-23(2)15(25)11-6-5-10(18-9-24)7-12(11)31(27,28)22-17(26)21-16-19-13(29-3)8-14(20-16)30-4/h5-9H,1-4H3,(H,18,24)(H2,19,20,21,22,26)
Instrument: TripleTOF 6600 SCIEX
Instrument type: LC-ESI-QTOF
Ms type: MS2
Ion mode: POSITIVE
Collision energy: 100
Fragmentation mode: CID
Ionization: ESI
Column name: Zorbax Eclipse Plus C18 2.1 mm x 150 mm, 3.5 um, Agilent
Retention time: 8.823 min
Precursor m/z: 453.1187
Precursor type: [M+H]+
m/z	relative intensity
41.0361	11
42.044	15
43.0395	9
44.0598	30
45.0435	23
54.0434	20
55.0397	18
56.0234	65
57.0556	23
63.0326	51
65.0255	69
65.0487	242
66.0435	12
67.0151	24
68.0229	41
69.0079	96
69.0186	52
70.0384	13
71.0704	60
77.0478	29
78.0442	55
79.052	11
79.0637	15
80.0597	83
81.0545	31
82.0385	78
83.0339	999
90.0437	56
91.0513	12
91.0628	11
92.0589	148
93.0181	372
93.042	26
94.0253	22
94.0746	42
95.0333	11
100.0491	36
105.054	238
106.0377	37
106.0734	16
107.0688	16
109.0481	41
112.0579	12
117.0535	24
119.0701	11
120.0529	34
120.0764	11
121.0373	37
138.0369	26
139.0434	9
139.0575	223
140.0513	26
166.0307	22
182.0624	11
