Mass spectrum: Boscalid; LC-ESI-QTOF; MS2; 130 V
Name: Boscalid
Class: Fungicide
Formula: C18H12Cl2N2O
Exact mass: 342.0327
SMILES: C1=CC=C(C(=C1)C2=CC=C(C=C2)Cl)NC(=O)C3=C(N=CC=C3)Cl
InChI: InChI=1S/C18H12Cl2N2O/c19-13-9-7-12(8-10-13)14-4-1-2-6-16(14)22-18(23)15-5-3-11-21-17(15)20/h1-11H,(H,22,23)
Instrument: TripleTOF 6600 SCIEX
Instrument type: LC-ESI-QTOF
Ms type: MS2
Ion mode: POSITIVE
Collision energy: 130
Fragmentation mode: CID
Ionization: ESI
Column name: Zorbax Eclipse Plus C18 2.1 mm x 150 mm, 3.5 um, Agilent
Retention time: 12.31 min
Precursor m/z: 343.04
Precursor type: [M+H]+
m/z	relative intensity
49.0071	288
50.015	914
51.023	830
52.0177	84
61.0064	60
61.979	120
62.0145	84
63.0227	132
74.0146	192
75.0101	649
75.0216	96
76.018	999
77.0386	84
78.0332	216
84.9837	180
85.0065	48
86.0153	144
87.0223	144
88.0295	96
89.0367	108
98.0147	204
99.0222	96
100.0297	60
102.0447	72
110.0151	60
111.0214	48
113.0381	156
114.0326	72
115.0538	84
122.0129	72
123.0211	84
124.0309	48
125.0367	96
126.0458	168
137.0395	48
139.0529	240
140.049	120
146.012	60
148.0299	72
149.0377	156
150.0448	529
151.0545	156
152.0608	96
161.0376	84
162.0443	168
163.0523	312
164.0488	216
173.0377	96
174.0463	192
175.0419	216
176.0501	84
177.0578	84
185.0367	84
186.0449	144
187.0532	481
188.0525	577
189.0638	168
190.0654	72
197.0363	72
198.0451	264
199.0428	84
199.0551	108
200.0603	84
201.0557	168
212.0485	300
213.0574	276
214.065	601
215.0583	48
215.0719	60
223.0407	60
224.0455	48
225.0565	192
226.0643	84
238.0491	60
239.0584	84
240.0668	132
