Mass spectrum: Hydroxy-DEET; LC-ESI-QTOF; MS2; 50 V
Name: Hydroxy-DEET
Class: Metabolite; Biocide; Personal_care_product; Transformation_product-Metabolite
Formula: C12H17NO2
Exact mass: 207.1259
SMILES: CCN(CC)C(=O)C1=CC(=CC=C1)CO
InChI: InChI=1S/C12H17NO2/c1-3-13(4-2)12(15)11-7-5-6-10(8-11)9-14/h5-8,14H,3-4,9H2,1-2H3
Instrument: TripleTOF 5600 SCIEX
Instrument type: LC-ESI-QTOF
Ms type: MS2
Ion mode: POSITIVE
Collision energy: 50
Fragmentation mode: CID
Ionization: ESI
Column name: Zorbax Eclipse Plus C18 2.1 mm x 150 mm, 3.5 um, Agilent
Retention time: 6.973 min
Precursor m/z: 208.1332
Precursor type: [M+H]+
m/z	relative intensity
44.0265	20
62.0227	12
63.0304	89
65.0461	15
72.0501	14
77.0442	134
79.058	15
89.0429	999
91.058	46
105.0364	24
107.0518	51
134.0614	21
135.0463	63
