Mass spectrum: Linezolid; LC-ESI-QTOF; MS2; 110 V
Name: Linezolid
Class: Pharmaceutical
Formula: C16H20FN3O4
Exact mass: 337.1438
SMILES: CC(=O)NCC1CN(C(=O)O1)C2=CC(=C(C=C2)N3CCOCC3)F
InChI: InChI=1S/C16H20FN3O4/c1-11(21)18-9-13-10-20(16(22)24-13)12-2-3-15(14(17)8-12)19-4-6-23-7-5-19/h2-3,8,13H,4-7,9-10H2,1H3,(H,18,21)
Instrument: TripleTOF 5600 SCIEX
Instrument type: LC-ESI-QTOF
Ms type: MS2
Ion mode: POSITIVE
Collision energy: 110
Fragmentation mode: CID
Ionization: ESI
Column name: Zorbax Eclipse Plus C18 2.1 mm x 150 mm, 3.5 um, Agilent
Retention time: 6.936 min
Precursor m/z: 338.1511
Precursor type: [M+H]+
m/z	relative intensity
43.0188	59
51.0235	138
56.0502	207
57.0142	69
62.0148	89
63.023	178
65.0395	79
70.0212	49
74.0154	217
75.0232	583
76.0182	59
77.0384	445
78.0341	118
81.0137	178
82.0226	138
83.0296	445
84.038	108
88.0317	79
89.0257	69
89.0392	563
90.0347	108
90.046	89
91.0554	98
94.0209	49
95.0294	484
96.0246	39
96.0374	178
98.04	69
99.0232	69
100.0174	49
101.0395	454
102.033	108
102.0459	69
103.0549	89
104.0497	118
107.0298	999
108.0231	128
108.0374	484
109.045	662
110.0423	89
111.0485	168
114.0347	98
115.0421	168
115.0533	237
116.0496	187
117.0572	98
118.0651	69
120.0374	168
121.0432	79
122.0408	356
123.046	128
124.0573	108
125.0494	59
126.0364	49
128.0503	326
129.0463	79
129.06	59
130.0642	98
133.0456	118
134.0429	108
135.0487	563
136.0559	247
137.051	49
137.0649	49
140.0501	79
141.0582	89
142.0573	118
146.0411	197
147.0484	79
148.0562	860
149.0531	69
156.0669	49
160.0539	59
169.0774	49
172.059	39
187.0674	59
