Mass spectrum: Oxfendazole; LC-ESI-QTOF; MS2; 120 V
Name: Oxfendazole
Class: Pharmaceutical
Formula: C15H13N3O3S
Exact mass: 315.0678
SMILES: COC(=O)Nc1[nH]c2cc(ccc2n1)[S](=O)c3ccccc3
InChI: InChI=1S/C15H13N3O3S/c1-21-15(19)18-14-16-12-8-7-11(9-13(12)17-14)22(20)10-5-3-2-4-6-10/h2-9H,1H3,(H2,16,17,18,19)
Instrument: TripleTOF 5600 SCIEX
Instrument type: LC-ESI-QTOF
Ms type: MS2
Ion mode: POSITIVE
Collision energy: 120
Fragmentation mode: CID
Ionization: ESI
Column name: Zorbax Eclipse Plus C18 2.1 mm x 150 mm, 3.5 um, Agilent
Retention time: 6.579 min
Precursor m/z: 316.075
Precursor type: [M+H]+
m/z	relative intensity
51.0289	124
52.0237	47
52.0339	60
53.0314	43
63.045	21
64.0317	30
65.0289	30
65.0423	34
69.0111	99
69.0257	17
75.0126	47
75.0245	30
76.0216	434
77.0287	999
77.0696	25
78.0358	202
89.0261	25
90.0358	25
91.0416	25
92.0372	17
103.0285	55
104.0367	275
105.0437	94
113.0416	30
115.0539	34
118.0571	38
130.0407	43
131.0472	77
139.0469	25
140.0507	34
169.0142	17
170.0217	17
171.0285	17
196.0213	21
