Mass spectrum: Venlafaxine; LC-ESI-QTOF; MS2; 50 V
Name: Venlafaxine
Class: Pharmaceutical
Formula: C17H27NO2
Exact mass: 277.2042
SMILES: CN(C)CC(c1ccc(cc1)OC)C2(CCCCC2)O
InChI: InChI=1S/C17H27NO2/c1-18(2)13-16(17(19)11-5-4-6-12-17)14-7-9-15(20-3)10-8-14/h7-10,16,19H,4-6,11-13H2,1-3H3
Instrument: TripleTOF 5600 SCIEX
Instrument type: LC-ESI-QTOF
Ms type: MS2
Ion mode: POSITIVE
Collision energy: 50
Fragmentation mode: CID
Ionization: ESI
Column name: Zorbax Eclipse Plus C18 2.1 mm x 150 mm, 3.5 um, Agilent
Retention time: 6.626 min
Precursor m/z: 278.2115
Precursor type: [M+H]+
m/z	relative intensity
42.0417	27
58.0717	999
65.0423	10
77.0413	77
78.0487	33
79.0564	60
81.0726	45
91.0561	323
93.0709	15
103.0557	11
105.0715	24
107.0495	19
115.0542	60
116.0618	11
117.0706	32
119.0844	18
121.0656	712
127.0541	12
128.0617	22
129.07	18
131.0505	20
132.0576	50
135.0813	34
141.0706	23
144.0567	32
145.0652	18
147.0809	142
148.0754	11
158.0734	66
159.0806	50
162.0922	32
163.1	12
173.0962	59
