Mass spectrum: 3-Desmethyl-trimethoprim; LC-ESI-QTOF; MS2; 120 V
Name: 3-Desmethyl-trimethoprim
Class: Pharmaceutical; Transformation_product; Transformation_product-Metabolite
Formula: C13H16N4O3
Exact mass: 276.1222
SMILES: OC1=CC(CC2=CN=C(N=C2N)N)=CC(OC)=C1OC
InChI: InChI=1S/C13H16N4O3/c1-19-10-5-7(4-9(18)11(10)20-2)3-8-6-16-13(15)17-12(8)14/h4-6,18H,3H2,1-2H3,(H4,14,15,16,17)
Instrument: TripleTOF 5600 SCIEX
Instrument type: LC-ESI-QTOF
Ms type: MS2
Ion mode: POSITIVE
Collision energy: 120
Fragmentation mode: CID
Ionization: ESI
Column name: Zorbax Eclipse Plus C18 2.1 mm x 150 mm, 3.5 um, Agilent
Retention time: 5.021 min
Precursor m/z: 277.1295
Precursor type: [M+H]+
m/z	relative intensity
41.0409	215
43.0422	421
52.0277	372
53.0098	58
53.0217	78
53.0327	48
54.0437	421
55.0466	48
55.0532	39
65.0459	450
66.0415	146
67.0346	39
67.0468	117
68.0305	88
74.0202	244
75.0285	509
76.0236	274
76.037	97
77.0293	78
77.0435	999
78.0392	411
79.032	137
79.0466	78
80.0524	205
81.0492	186
83.0541	39
87.0273	97
88.0218	117
89.0418	401
90.0389	156
91.0557	137
92.0502	117
93.0491	117
93.0593	48
94.0548	107
96.0588	48
99.0227	58
100.0202	78
101.0403	137
102.0378	284
103.0314	156
104.0416	137
104.0509	88
105.0461	264
106.0506	58
107.0544	68
109.0511	88
114.0356	146
115.0439	58
116.049	117
117.0471	68
117.0589	58
118.0412	48
120.0559	195
129.0465	68
130.0379	58
131.0536	48
142.0526	48
147.0694	137
