Mass spectrum: 3,5-Dichloro-4-hydroxybenzenesulfonic acid-candidate; LC-ESI-QTOF; MS2; 40 V
Name: 3,5-Dichloro-4-hydroxybenzenesulfonic acid-candidate
Formula: C6H4Cl2O4S
Exact mass: 241.9207
SMILES: C1=C(C=C(C(=C1Cl)O)Cl)S(=O)(=O)O
InChI: InChI=1S/C6H4Cl2O4S/c7-4-1-3(13(10,11)12)2-5(8)6(4)9/h1-2,9H,(H,10,11,12)
Instrument: TripleTOF 6600 SCIEX
Instrument type: LC-ESI-QTOF
Ms type: MS2
Ion mode: NEGATIVE
Collision energy: 40
Fragmentation mode: CID
Ionization: ESI
Column name: Zorbax Eclipse Plus C18 2.1 mm x 150 mm, 3.5 um, Agilent
Retention time: 6.65 min
Precursor m/z: 240.9116
Precursor type: [M-H]-
m/z	relative intensity
124.9774	9
132.9028	71
145.0286	11
148.8994	29
150.9121	60
160.9538	999
