Mass spectrum: N,O-didesmethyl-venlafaxine; LC-ESI-QTOF; MS2; 50 V
Name: N,O-didesmethyl-venlafaxine
Class: Pharmaceutical; Metabolite
Formula: C15H23NO2
Exact mass: 249.1729
SMILES: CNCC(c1ccc(cc1)O)C2(CCCCC2)O
InChI: InChI=1S/C15H23NO2/c1-16-11-14(12-5-7-13(17)8-6-12)15(18)9-3-2-4-10-15/h5-8,14,16-18H,2-4,9-11H2,1H3
Instrument: TripleTOF 5600 SCIEX
Instrument type: LC-ESI-QTOF
Ms type: MS2
Ion mode: POSITIVE
Collision energy: 50
Fragmentation mode: CID
Ionization: ESI
Column name: Zorbax Eclipse Plus C18 2.1 mm x 150 mm, 3.5 um, Agilent
Retention time: 5.659 min
Precursor m/z: 250.1802
Precursor type: [M+H]+
m/z	relative intensity
44.059	454
55.0581	12
67.0577	10
69.0718	14
77.0409	268
79.0563	205
81.0718	86
91.055	82
103.0534	58
105.0696	283
107.0494	999
115.0532	89
116.0615	18
117.0683	24
121.0634	28
127.0522	48
129.0683	11
131.0484	35
131.0849	22
133.0641	252
134.0588	11
135.0664	46
141.0692	45
144.0563	76
145.0635	63
159.079	41
