Mass spectrum: Chlormethiazole; LC-ESI-QTOF; MS2; 70 V
Name: Chlormethiazole
Class: Pharmaceutical
Formula: C6H8ClNS
Exact mass: 161.0066
SMILES: CC1=C(SC=N1)CCCl
InChI: InChI=1S/C6H8ClNS/c1-5-6(2-3-7)9-4-8-5/h4H,2-3H2,1H3
Instrument: TripleTOF 6600 SCIEX
Instrument type: LC-ESI-QTOF
Ms type: MS2
Ion mode: POSITIVE
Collision energy: 70
Fragmentation mode: CID
Ionization: ESI
Column name: Zorbax Eclipse Plus C18 2.1 mm x 150 mm, 3.5 um, Agilent
Retention time: 7.946 min
Precursor m/z: 162.0139
Precursor type: [M+H]+
m/z	relative intensity
37.0073	55
38.0149	62
39.0231	361
41.0385	110
42.0338	353
44.9794	999
50.0149	62
51.0224	86
52.0308	47
53.0386	259
54.0338	157
55.0414	86
57.9876	55
58.9947	196
65.0387	94
68.0493	125
68.9791	62
70.9947	959
72.0027	47
78.0334	70
80.0487	141
84.0032	31
85.0102	369
94.9952	39
97.0076	31
112.0209	416
113.0288	31
