Mass spectrum: Tris(4-methylphenyl) phosphate; LC-ESI-QTOF; MS2; 80 V
Name: Tris(4-methylphenyl) phosphate
Class: Industrial_process
Formula: C21H21O4P
Exact mass: 368.1177
SMILES: CC1=CC=C(C=C1)OP(=O)(OC2=CC=C(C=C2)C)OC3=CC=C(C=C3)C
InChI: InChI=1S/C21H21O4P/c1-16-4-10-19(11-5-16)23-26(22,24-20-12-6-17(2)7-13-20)25-21-14-8-18(3)9-15-21/h4-15H,1-3H3
Instrument: TripleTOF 6600 SCIEX
Instrument type: LC-ESI-QTOF
Ms type: MS2
Ion mode: POSITIVE
Collision energy: 80
Fragmentation mode: CID
Ionization: ESI
Column name: Zorbax Eclipse Plus C18 2.1 mm x 150 mm, 3.5 um, Agilent
Retention time: 15.924 min
Precursor m/z: 369.125
Precursor type: [M+H]+
m/z	relative intensity
39.0221	41
63.0218	17
65.0381	321
77.0377	64
79.0533	17
91.0538	214
107.0483	22
115.0536	41
139.054	24
141.0699	13
152.062	48
153.069	17
163.0542	28
164.0623	72
165.0709	999
166.0785	27
177.0705	11
178.0783	56
179.0862	10
181.0655	36
194.0732	11
195.0812	106
196.0887	11
226.0786	11
239.0879	66
