Mass spectrum: Ranitidine; LC-ESI-QTOF; MS2; 120 V
Name: Ranitidine
Class: Pharmaceutical
Formula: C13H22N4O3S
Exact mass: 314.1413
SMILES: CNC(=C[N+](=O)[O-])NCCSCC1=CC=C(O1)CN(C)C
InChI: InChI=1S/C13H22N4O3S/c1-14-13(9-17(18)19)15-6-7-21-10-12-5-4-11(20-12)8-16(2)3/h4-5,9,14-15H,6-8,10H2,1-3H3
Instrument: TripleTOF 5600 SCIEX
Instrument type: LC-ESI-QTOF
Ms type: MS2
Ion mode: POSITIVE
Collision energy: 120
Fragmentation mode: CID
Ionization: ESI
Column name: Zorbax Eclipse Plus C18 2.1 mm x 150 mm, 3.5 um, Agilent
Retention time: 4.832 min
Precursor m/z: 315.1485
Precursor type: [M+H]+
m/z	relative intensity
51.0282	338
52.0381	76
53.0443	575
54.039	135
55.0313	33
55.047	126
56.055	330
57.0491	152
57.0668	42
58.0709	59
58.9992	296
65.0423	304
66.0497	110
67.0504	101
68.0525	177
68.9822	42
69.0476	67
70.0691	67
70.9986	50
77.0416	999
78.0363	101
78.0472	110
79.0212	33
79.0555	93
80.0145	50
80.0516	262
81.0355	728
81.0588	76
82.0553	177
82.0704	76
83.062	84
89.0394	93
91.0566	110
92.0517	76
93.0588	101
94.0433	59
94.0654	152
95.0623	42
96.0686	169
97.0118	93
97.0764	296
102.0364	296
104.0495	135
105.036	42
106.0642	33
107.0498	84
117.056	59
118.0627	42
119.0621	42
132.0446	59
134.0174	42
