Mass spectrum: Torasemide; LC-ESI-QTOF; MS2; 60 V
Name: Torasemide
Class: Pharmaceutical
Formula: C16H20N4O3S
Exact mass: 348.1256
SMILES: CC(C)NC(=O)N[S](=O)(=O)c1cnccc1Nc2cccc(C)c2
InChI: InChI=1S/C16H20N4O3S/c1-11(2)18-16(21)20-24(22,23)15-10-17-8-7-14(15)19-13-6-4-5-12(3)9-13/h4-11H,1-3H3,(H,17,19)(H2,18,20,21)
Instrument: TripleTOF 5600 SCIEX
Instrument type: LC-ESI-QTOF
Ms type: MS2
Ion mode: POSITIVE
Collision energy: 60
Fragmentation mode: CID
Ionization: ESI
Column name: Zorbax Eclipse Plus C18 2.1 mm x 150 mm, 3.5 um, Agilent
Retention time: 7.633 min
Precursor m/z: 349.1329
Precursor type: [M+H]+
m/z	relative intensity
67.0447	14
81.0464	13
98.0058	13
114.0452	18
117.0564	20
125.0163	75
127.053	13
128.0601	37
129.0687	37
137.0158	26
140.0483	35
141.0564	63
142.0524	15
154.0639	23
155.0642	16
156.0776	34
167.0592	31
168.0671	999
169.075	24
175.0312	10
176.0381	11
181.0747	209
182.0824	309
183.0903	617
184.0615	12
185.0699	12
191.0619	25
197.0694	14
198.0768	50
199.0849	47
201.0462	40
219.0565	14
229.0423	17
230.0491	46
247.0512	15
264.0784	19
