Mass spectrum: Metaflumizone; LC-ESI-QTOF; MS2; 150 V
Name: Metaflumizone
Class: Insecticide; Pharmaceutical
Formula: C24H16F6N4O2
Exact mass: 506.1177
SMILES: C1=CC(=CC(=C1)C(F)(F)F)C(=NNC(=O)NC2=CC=C(C=C2)OC(F)(F)F)CC3=CC=C(C=C3)C#N
InChI: InChI=1S/C24H16F6N4O2/c25-23(26,27)18-3-1-2-17(13-18)21(12-15-4-6-16(14-31)7-5-15)33-34-22(35)32-19-8-10-20(11-9-19)36-24(28,29)30/h1-11,13H,12H2,(H2,32,34,35)
Instrument: TripleTOF 6600 SCIEX
Instrument type: LC-ESI-QTOF
Ms type: MS2
Ion mode: POSITIVE
Collision energy: 150
Fragmentation mode: CID
Ionization: ESI
Column name: Zorbax Eclipse Plus C18 2.1 mm x 150 mm, 3.5 um, Agilent
Retention time: 15.496 min
Precursor m/z: 507.125
Precursor type: [M+H]+
m/z	relative intensity
37.0075	19
38.0154	29
39.0231	115
51.0231	24
53.0388	24
59.9997	17
61.007	85
62.0149	173
63.0228	673
64.0179	73
64.0301	26
65.038	154
66.0349	12
66.0459	83
68.9946	122
73.0067	22
74.0148	144
75.0225	252
76.0296	12
77.0378	24
78.0338	9
80.0491	132
81.0588	12
83.0286	29
87.0221	56
88.018	48
88.029	100
89.0385	999
90.0329	112
91.0542	9
92.0257	14
92.0488	41
93.0569	164
95.0284	73
98.0143	39
99.0064	17
99.0223	51
101.0213	12
101.0383	9
102.0323	9
102.0454	24
107.0291	14
108.0443	36
109.0459	14
113.0376	31
114.0333	190
115.0415	71
115.0534	26
116.0482	68
122.0152	22
123.0106	19
123.0207	41
123.0345	9
124.0174	26
125.0193	34
125.0378	12
133.0434	24
137.0377	44
138.0303	17
139.0529	46
140.0493	119
142.0528	19
144.0324	12
145.0255	73
147.0212	48
148.0169	14
149.0374	41
150.0455	46
151.0394	29
151.0535	22
152.0611	12
153.0587	9
157.0447	14
158.0374	17
161.0382	36
162.0305	12
162.0465	85
163.0535	445
164.0491	222
165.0456	12
165.07	22
166.0201	9
167.0292	48
168.0361	58
169.046	14
172.0324	14
173.0376	58
174.0334	26
174.0445	63
175.0405	44
175.0521	36
176.0597	53
177.0568	29
178.0762	9
181.0449	56
182.0563	17
183.0569	44
186.0286	46
187.0369	26
188.0485	301
189.0562	208
190.0647	707
191.0296	17
191.0702	26
192.0366	122
193.0375	90
194.0368	12
194.0505	29
195.0473	29
198.0337	24
199.0407	144
200.0489	61
201.0571	75
202.0635	31
203.076	19
205.0435	12
206.0389	36
207.0462	22
208.054	44
211.0328	22
212.0432	66
213.0434	24
214.0507	26
215.0589	68
216.0671	58
217.0299	19
217.0752	19
218.0399	44
219.0468	132
220.0542	26
221.0623	19
225.0455	19
226.0504	36
228.0575	9
230.0379	17
232.0491	22
237.0379	41
238.0472	14
239.054	53
245.0534	34
246.0578	22
250.0465	14
265.0564	17
