Mass spectrum: Fluxapyroxad; LC-ESI-QTOF; MS2; 130 V
Name: Fluxapyroxad
Class: Fungicide
Formula: C18H12F5N3O
Exact mass: 381.0901
SMILES: Cn1cc(c(n1)C(F)F)C(=O)Nc2ccccc2c3cc(c(c(c3)F)F)F
InChI: InChI=1S/C18H12F5N3O/c1-26-8-11(16(25-26)17(22)23)18(27)24-14-5-3-2-4-10(14)9-6-12(19)15(21)13(20)7-9/h2-8,17H,1H3,(H,24,27)
Instrument: TripleTOF 6600 SCIEX
Instrument type: LC-ESI-QTOF
Ms type: MS2
Ion mode: POSITIVE
Collision energy: 130
Fragmentation mode: CID
Ionization: ESI
Column name: Zorbax Eclipse Plus C18 2.1 mm x 150 mm, 3.5 um, Agilent
Retention time: 12.239 min
Precursor m/z: 382.0973
Precursor type: [M+H]+
m/z	relative intensity
42.0339	31
50.0137	18
51.0029	31
51.0221	31
57.0128	67
61.0068	22
62.0139	31
63.0217	49
74.0148	67
75.0029	54
75.0217	49
81.0128	49
83.0286	22
85.0059	67
86.0143	81
87.0218	63
88.011	40
92.0046	27
93.0117	18
94.0197	18
98.0143	176
99.0055	40
99.022	36
105.0129	58
106.0194	31
107.028	36
109.0066	63
110.0143	144
111.021	113
112.0118	49
114.0314	22
116.005	49
117.0121	58
118.0194	18
119.9994	22
121.0066	31
122.0144	189
123.0071	45
123.0209	45
125.0181	49
129.0117	54
130.0202	18
131.0261	36
133.0072	27
134.014	149
135.0085	40
135.0219	203
136.0143	76
137.0377	18
138.0264	31
140.0039	45
141.0127	108
142.021	22
143.0082	40
146.0144	316
147.0189	180
148.0162	18
149.0188	45
149.0387	18
151.0347	18
153.0126	27
154.022	18
155.0289	144
156.0193	40
156.0365	49
157.0437	27
159.0029	54
160.0125	63
161.0195	27
162.0266	72
165.0123	63
166.0202	126
167.009	22
167.0285	126
168.0362	144
169.0253	31
169.043	22
171.0098	99
172.0166	54
173.0189	45
174.0163	31
174.0452	22
175.0353	122
179.0275	76
180.0179	162
181.0279	40
182.0392	49
184.0106	58
185.0179	189
186.0268	999
187.0342	72
188.043	40
191.0098	22
192.034	49
193.0296	99
194.0224	27
194.0415	31
195.0093	22
197.0187	85
198.0281	58
199.0356	103
200.0324	58
203.0296	36
204.0175	343
205.0266	162
205.0447	36
206.0352	198
210.0254	31
211.0243	94
212.0424	63
213.0385	36
215.0096	22
216.0194	58
217.0254	162
218.0234	27
218.0362	22
218.0424	22
219.0446	36
221.0184	18
222.0253	49
223.0345	203
224.0306	90
225.0528	22
226.0446	22
229.0131	31
230.0381	36
231.029	63
237.037	27
241.0246	72
242.0283	58
243.0423	58
244.0379	36
248.0319	40
250.0423	27
251.0443	31
255.0316	18
