Mass spectrum: Oseltamivir carboxylic acid; LC-ESI-QTOF; MS2; 20 V
Name: Oseltamivir carboxylic acid
Class: Pharmaceutical; Metabolite; Transformation_product
Formula: C14H24N2O4
Exact mass: 284.1736
SMILES: CCC(CC)O[C@@H]1C=C(C[C@H](N)[C@H]1NC(C)=O)C(O)=O
InChI: InChI=1S/C14H24N2O4/c1-4-10(5-2)20-12-7-9(14(18)19)6-11(15)13(12)16-8(3)17/h7,10-13H,4-6,15H2,1-3H3,(H,16,17)(H,18,19)/t11-,12+,13+/m0/s1
Instrument: TripleTOF 5600 SCIEX
Instrument type: LC-ESI-QTOF
Ms type: MS2
Ion mode: POSITIVE
Collision energy: 20
Fragmentation mode: CID
Ionization: ESI
Column name: Zorbax Eclipse Plus C18 2.1 mm x 150 mm, 3.5 um, Agilent
Retention time: 5.65 min
Precursor m/z: 285.1809
Precursor type: [M+H]+
m/z	relative intensity
60.0491	11
94.0666	102
111.0438	13
120.0447	122
136.0755	22
137.0707	107
138.0556	999
139.0385	32
156.0661	17
162.0546	56
179.0812	68
180.0662	812
197.0928	977
198.0764	481
215.1027	370
268.1541	130
285.1812	142
