Mass spectrum: Triclabendazole; LC-ESI-QTOF; MS2; 130 V
Name: Triclabendazole
Class: Pharmaceutical
Formula: C14H9Cl3N2OS
Exact mass: 357.9501
SMILES: CSc1[nH]c2cc(Cl)c(Oc3cccc(Cl)c3Cl)cc2n1
InChI: InChI=1S/C14H9Cl3N2OS/c1-21-14-18-9-5-8(16)12(6-10(9)19-14)20-11-4-2-3-7(15)13(11)17/h2-6H,1H3,(H,18,19)
Instrument: TripleTOF 5600 SCIEX
Instrument type: LC-ESI-QTOF
Ms type: MS2
Ion mode: POSITIVE
Collision energy: 130
Fragmentation mode: CID
Ionization: ESI
Column name: Zorbax Eclipse Plus C18 2.1 mm x 150 mm, 3.5 um, Agilent
Retention time: 13.11 min
Precursor m/z: 358.9574
Precursor type: [M+H]+
m/z	relative intensity
44.9797	246
48.984	152
49.0083	43
50.0158	108
51.0229	180
52.0182	173
61.0075	50
61.9799	253
62.0157	115
63.0236	325
64.0186	615
65.0249	57
68.9798	137
69.9766	43
72.9847	267
73.9796	50
74.016	188
75.01	304
75.022	333
76.0187	999
77.0264	65
77.0394	94
78.0342	275
78.9409	123
81.9868	57
83.9924	43
84.984	195
85.9793	289
86.0172	36
87.024	43
88.0201	108
90.0353	152
91.0296	173
92.0363	144
92.9799	173
93.9881	115
96.9846	72
97.9795	43
97.9944	43
98.0145	238
99.0237	485
99.9955	390
100.0183	36
100.0304	65
101.0376	65
102.0356	50
102.9426	36
103.0283	79
104.0418	57
107.9912	108
108.9927	72
110.9971	65
111.9963	137
112.0241	36
113.0396	202
119.9902	94
120.998	130
122.0163	86
123.0225	188
124.0273	202
125.0391	448
126.0467	890
127.0064	224
127.0408	36
128.9563	101
134.9999	72
136.0095	72
137.0393	50
138.0341	108
139.0069	72
139.042	108
140.0495	173
143.9681	36
146.9999	72
148.009	398
150.0373	86
151.0419	557
152.0487	311
153.0556	115
159.0005	57
160.0081	318
161.0142	79
162.0285	28
170.975	86
174.0124	123
176.0463	28
177.0451	36
179.0542	28
179.0642	43
180.0447	57
183.0117	65
186.0102	43
189.0139	43
214.0113	50
