Mass spectrum: Acetonyltriphenylphosphonium; LC-ESI-QTOF; MS2; 150 V
Name: Acetonyltriphenylphosphonium
Class: Industrial_process
Formula: [C21H20OP]+
Exact mass: 319.1246
SMILES: CC(=O)C[P+](C1=CC=CC=C1)(C2=CC=CC=C2)C3=CC=CC=C3
InChI: InChI=1S/C21H20OP/c1-18(22)17-23(19-11-5-2-6-12-19,20-13-7-3-8-14-20)21-15-9-4-10-16-21/h2-16H,17H2,1H3/q+1
Instrument: TripleTOF 5600 SCIEX
Instrument type: LC-ESI-QTOF
Ms type: MS2
Ion mode: POSITIVE
Collision energy: 150
Fragmentation mode: CID
Ionization: ESI
Column name: Zorbax Eclipse Plus C18 2.1 mm x 150 mm, 3.5 um, Agilent
Retention time: 7.28 min
Precursor m/z: 319.1246
Precursor type: [M]+
m/z	relative intensity
39.0231	101
50.0148	149
51.0228	296
56.9885	121
63.0225	399
65.0381	181
74.0139	174
76.03	183
77.0375	215
78.0459	82
78.9723	103
79.9799	344
80.9875	454
86.0125	98
87.0214	195
89.0367	581
98.0128	124
102.0443	254
103.9791	133
104.9876	103
107.0027	999
113.0371	220
115.0526	399
125.0375	107
126.0453	525
131.0035	192
133.0194	62
139.0533	303
150.046	728
151.0533	870
152.0609	725
155.0042	206
156.012	190
157.0192	374
163.054	135
179.0032	195
180.0121	213
181.0196	686
187.0544	114
200.0607	124
213.0689	64
224.0607	388
225.0708	140
226.0775	133
253.0217	71
255.0349	179
