Mass spectrum: 4-Hydroxytrimethoprim; LC-ESI-QTOF; MS2; 70 V
Name: 4-Hydroxytrimethoprim
Class: Pharmaceutical; Transformation_product
Formula: C14H18N4O4
Exact mass: 306.1328
SMILES: COc1cc(cc(c1OC)OC)Cc2c(nc(nc2O)N)N
InChI: InChI=1S/C14H18N4O4/c1-20-9-5-7(6-10(21-2)11(9)22-3)4-8-12(15)17-14(16)18-13(8)19/h5-6H,4H2,1-3H3,(H5,15,16,17,18,19)
Instrument: TripleTOF 5600 SCIEX
Instrument type: LC-ESI-QTOF
Ms type: MS2
Ion mode: NEGATIVE
Collision energy: 70
Fragmentation mode: CID
Ionization: ESI
Column name: Zorbax Eclipse Plus C18 2.1 mm x 150 mm, 3.5 um, Agilent
Retention time: 5.43 min
Precursor m/z: 305.1255
Precursor type: [M-H]-
m/z	relative intensity
41.018	292
41.0418	48
42.0021	219
66.0116	146
78.0372	48
81.037	73
92.0294	73
103.028	73
117.0217	73
118.036	511
119.0236	194
119.0378	219
120.0202	121
121.0346	73
131.0234	170
131.0492	97
132.0562	121
133.0418	121
134.0267	292
134.0448	73
135.031	194
137.0249	121
140.0189	97
143.0249	243
144.0244	48
144.0542	170
145.0382	194
145.0475	73
146.0248	389
147.031	536
148.0196	97
150.0297	73
158.0207	121
158.0352	97
159.0257	170
160.0447	73
161.0362	219
161.0463	268
162.0194	365
162.0549	121
170.0345	97
171.0191	316
171.043	97
172.0233	194
172.0505	73
173.0363	194
174.0201	414
175.0026	97
175.0284	779
175.0424	97
175.0636	48
176.0117	194
186.0272	146
187.0145	438
188.0335	121
189.0343	243
190.0118	121
190.0391	73
191.0468	194
198.0343	121
199.0147	48
199.0373	73
200.02	73
200.0489	243
201.0047	73
201.0311	511
214.027	316
214.0478	73
215.0165	48
215.031	121
216.0409	804
217.0264	999
218.0334	73
226.0274	243
242.0223	414
243.0519	243
259.0488	901
260.0508	73
