Mass spectrum: Leucomalachite green; LC-ESI-QTOF; MS2; 50 V
Name: Leucomalachite green
Class: Metabolite; Antimicrobial; Fungicide; Transformation_product-Metabolite
Formula: C23H26N2
Exact mass: 330.2096
SMILES: CN(C)C1=CC=C(C=C1)C(C2=CC=CC=C2)C3=CC=C(C=C3)N(C)C
InChI: InChI=1S/C23H26N2/c1-24(2)21-14-10-19(11-15-21)23(18-8-6-5-7-9-18)20-12-16-22(17-13-20)25(3)4/h5-17,23H,1-4H3
Instrument: TripleTOF 6600 SCIEX
Instrument type: LC-ESI-QTOF
Ms type: MS2
Ion mode: POSITIVE
Collision energy: 50
Fragmentation mode: CID
Ionization: ESI
Column name: Zorbax Eclipse Plus C18 2.1 mm x 150 mm, 3.5 um, Agilent
Retention time: 9.974 min
Precursor m/z: 331.2169
Precursor type: [M+H]+
m/z	relative intensity
165.0686	26
180.0799	16
193.0884	11
194.0956	87
195.1039	35
196.1117	27
208.1121	59
209.1169	28
210.1273	48
223.1223	84
224.1303	61
237.1366	16
239.1546	999
272.1427	49
286.1586	27
299.1544	14
315.1862	185
