Mass spectrum: Remdesivir; LC-ESI-QTOF; MS2; 70 V
Name: Remdesivir
Class: Pharmaceutical
Formula: C27H35N6O8P
Exact mass: 602.2254
SMILES: CCC(CC)COC(=O)C(C)NP(=O)(OCC1C(C(C(O1)(C#N)C2=CC=C3N2N=CN=C3N)O)O)OC4=CC=CC=C4
InChI: InChI=1S/C27H35N6O8P/c1-4-18(5-2)13-38-26(36)17(3)32-42(37,41-19-9-7-6-8-10-19)39-14-21-23(34)24(35)27(15-28,40-21)22-12-11-20-25(29)30-16-31-33(20)22/h6-12,16-18,21,23-24,34-35H,4-5,13-14H2,1-3H3,(H,32,37)(H2,29,30,31)
Instrument: TripleTOF 6600 SCIEX
Instrument type: LC-ESI-QTOF
Ms type: MS2
Ion mode: POSITIVE
Collision energy: 70
Fragmentation mode: CID
Ionization: ESI
Column name: Zorbax Eclipse Plus C18 2.1 mm x 150 mm, 3.5 um, Agilent
Retention time: 9.974 min
Precursor m/z: 603.2327
Precursor type: [M+H]+
m/z	relative intensity
44.0493	49
67.0175	14
77.038	20
95.0488	22
103.0538	22
105.044	14
106.0047	25
120.0799	15
121.0645	76
135.0658	23
147.066	140
159.0661	10
161.0445	16
165.0095	114
172.0613	17
173.0813	42
174.077	15
175.0605	49
182.0362	82
183.0201	123
199.0154	20
200.0474	999
201.0767	29
202.0723	87
229.0263	22
229.0712	77
254.0579	12
274.0941	24
