Mass spectrum: Oxazepam; LC-ESI-QTOF; MS2; 90 V
Name: Oxazepam
Class: Pharmaceutical
Formula: C15H11ClN2O2
Exact mass: 286.0509
SMILES: C1=CC=C(C=C1)C2=NC(C(=O)NC3=C2C=C(C=C3)Cl)O
InChI: InChI=1S/C15H11ClN2O2/c16-10-6-7-12-11(8-10)13(9-4-2-1-3-5-9)18-15(20)14(19)17-12/h1-8,15,20H,(H,17,19)
Instrument: TripleTOF 6600 SCIEX
Instrument type: LC-ESI-QTOF
Ms type: MS2
Ion mode: POSITIVE
Collision energy: 90
Fragmentation mode: CID
Ionization: ESI
Column name: Zorbax Eclipse Plus C18 2.1 mm x 150 mm, 3.5 um, Agilent
Retention time: 9.314 min
Precursor m/z: 287.0582
Precursor type: [M+H]+
m/z	relative intensity
39.0233	11
49.0073	21
50.0152	118
51.0231	422
61.9789	14
62.0145	10
63.0227	73
64.0182	18
64.0307	28
65.0382	40
66.0462	109
72.9838	87
73.0068	22
74.0149	109
75.0228	214
76.0178	12
76.0299	10
77.0387	999
84.9835	26
90.0337	77
91.0417	137
92.049	30
93.0573	164
99.0069	209
100.0182	483
102.0345	15
102.0461	10
104.0494	106
105.044	19
108.9837	21
110.9995	105
115.0535	16
116.0362	16
117.0439	23
118.052	105
123.9947	57
125.0019	17
125.0384	23
126.0458	31
127.019	15
127.0537	19
128.0609	12
135.9949	56
139.0055	22
139.054	38
140.0493	38
149.0386	15
150.0466	167
151.054	263
152.013	13
152.0614	131
153.0567	18
163.006	14
164.0009	52
164.0501	13
165.0593	11
166.0653	78
167.0731	55
168.0682	42
176.0491	25
177.0571	145
178.0653	77
179.0599	22
179.0713	19
192.0689	57
193.076	121
194.0843	77
195.0915	17
205.0763	42
