Mass spectrum: 3,3-Diphenylacrylonitrile; LC-ESI-QTOF; MS2; 110 V
Name: 3,3-Diphenylacrylonitrile
Formula: C15H11N
Exact mass: 205.0891
SMILES: C1=CC=C(C=C1)C(=CC#N)C2=CC=CC=C2
InChI: InChI=1S/C15H11N/c16-12-11-15(13-7-3-1-4-8-13)14-9-5-2-6-10-14/h1-11H
Instrument: TripleTOF 6600 SCIEX
Instrument type: LC-ESI-QTOF
Ms type: MS2
Ion mode: POSITIVE
Collision energy: 110
Fragmentation mode: CID
Ionization: ESI
Column name: Zorbax Eclipse Plus C18 2.1 mm x 150 mm, 3.5 um, Agilent
Retention time: 13.746 min
Precursor m/z: 206.0964
Precursor type: [M+H]+
m/z	relative intensity
49.0056	142
50.0141	874
51.0217	999
61.0057	80
62.0145	44
63.0231	124
73.0066	151
74.013	945
75.0078	53
75.0212	196
76.0288	62
77.0362	124
86.0122	89
87.0204	53
98.0127	178
99.0224	35
122.0126	71
125.0424	44
150.0461	98
174.0418	44
175.0464	35
