Mass spectrum: Nafcillin; LC-ESI-QTOF; MS2; 100 V
Name: Nafcillin
Class: Pharmaceutical
Formula: C21H22N2O5S
Exact mass: 414.1249
SMILES: CCOC1=C(C2=CC=CC=C2C=C1)C(=O)NC3C4N(C3=O)C(C(S4)(C)C)C(=O)O
InChI: InChI=1S/C21H22N2O5S/c1-4-28-13-10-9-11-7-5-6-8-12(11)14(13)17(24)22-15-18(25)23-16(20(26)27)21(2,3)29-19(15)23/h5-10,15-16,19H,4H2,1-3H3,(H,22,24)(H,26,27)
Instrument: TripleTOF 6600 SCIEX
Instrument type: LC-ESI-QTOF
Ms type: MS2
Ion mode: POSITIVE
Collision energy: 100
Fragmentation mode: CID
Ionization: ESI
Column name: Zorbax Eclipse Plus C18 2.1 mm x 150 mm, 3.5 um, Agilent
Retention time: 10.616 min
Precursor m/z: 415.1322
Precursor type: [M+H]+
m/z	relative intensity
63.0223	21
65.0379	32
77.0378	11
89.0381	155
114.0453	26
115.0539	999
126.0455	12
127.0533	58
128.0612	13
140.0491	12
143.0482	68
152.0601	18
154.0638	18
155.0599	18
171.0429	17
181.0713	10
182.0588	21
209.0707	10
