Mass spectrum: Methadone; LC-ESI-QTOF; MS2; 30 V
Name: Methadone
Class: Pharmaceutical
Formula: C21H27NO
Exact mass: 309.2093
SMILES: CCC(=O)C(CC(C)N(C)C)(C1=CC=CC=C1)C2=CC=CC=C2
InChI: InChI=1S/C21H27NO/c1-5-20(23)21(16-17(2)22(3)4,18-12-8-6-9-13-18)19-14-10-7-11-15-19/h6-15,17H,5,16H2,1-4H3
Instrument: TripleTOF 6600 SCIEX
Instrument type: LC-ESI-QTOF
Ms type: MS2
Ion mode: POSITIVE
Collision energy: 30
Fragmentation mode: CID
Ionization: ESI
Column name: Zorbax Eclipse Plus C18 2.1 mm x 150 mm, 3.5 um, Agilent
Retention time: 8.79 min
Precursor m/z: 310.2166
Precursor type: [M+H]+
m/z	relative intensity
57.0333	125
77.0379	54
91.0535	128
105.0339	961
117.0691	87
129.0689	37
131.0846	16
143.0843	19
145.064	17
159.1151	121
167.0849	21
169.0993	18
187.1114	60
191.0844	15
195.1161	239
204.093	40
205.101	55
207.1161	29
218.1084	64
219.1169	396
223.1118	457
232.1241	23
236.1192	23
247.1484	156
265.1592	999
