Mass spectrum: Sulcotrione; LC-ESI-QTOF; MS2; 110 V
Name: Sulcotrione
Class: Herbicide
Formula: C14H13ClO5S
Exact mass: 328.0172
InChI: InChI=1S/C14H13ClO5S/c1-21(19,20)8-5-6-9(10(15)7-8)14(18)13-11(16)3-2-4-12(13)17/h5-7,13H,2-4H2,1H3
Instrument: TripleTOF 6600 SCIEX
Instrument type: LC-ESI-QTOF
Ms type: CID
Ion mode: NEGATIVE
Collision energy: 110
Ionization: ESI
Column name: Zorbax Eclipse Plus C18 2.1 mm x 150 mm, 3.5 um, Agilent
Retention time: 9.651 min
Precursor m/z: 327.0099
Precursor type: [M-H]-
m/z	relative intensity
34.9684	999
41.0024	88
65.0012	102
