Mass spectrum: Testosterone; LC-ESI-QTOF; MS2; 50 V
Name: Testosterone
Class: Pharmaceutical
Formula: C19H28O2
Exact mass: 288.2089
SMILES: C[C@]12CC[C@H]3[C@@H](CCC4=CC(=O)CC[C@]34C)[C@@H]1CC[C@@H]2O
InChI: InChI=1S/C19H28O2/c1-18-9-7-13(20)11-12(18)3-4-14-15-5-6-17(21)19(15,2)10-8-16(14)18/h11,14-17,21H,3-10H2,1-2H3/t14-,15-,16-,17-,18-,19-/m0/s1
Instrument: TripleTOF 5600 SCIEX
Instrument type: LC-ESI-QTOF
Ms type: MS2
Ion mode: POSITIVE
Collision energy: 50
Fragmentation mode: CID
Ionization: ESI
Column name: Zorbax Eclipse Plus C18 2.1 mm x 150 mm, 3.5 um, Agilent
Retention time: 10.968 min
Precursor m/z: 289.2162
Precursor type: [M+H]+
m/z	relative intensity
43.0269	29
55.0242	24
55.0595	16
65.0442	19
67.0593	69
69.0746	43
77.0431	114
79.0589	318
81.0735	262
83.0521	37
91.0579	156
93.0729	91
95.0883	72
97.0682	923
105.0724	122
107.0516	21
107.0862	24
109.0678	999
115.056	16
117.0718	24
119.087	67
121.0669	19
121.1028	16
123.0816	116
128.0634	13
129.0711	24
131.0877	32
133.1037	26
142.0792	16
143.0875	24
145.1035	37
147.1181	17
155.09	17
157.106	14
159.1186	14
169.1035	13
171.1206	10
183.1189	10
