Mass spectrum: Morantel; LC-ESI-QTOF; MS2; 130 V
Name: Morantel
Class: Pharmaceutical
Formula: C12H16N2S
Exact mass: 220.1034
SMILES: CN1CCCN=C1/C=C/c2sccc2C
InChI: InChI=1S/C12H16N2S/c1-10-6-9-15-11(10)4-5-12-13-7-3-8-14(12)2/h4-6,9H,3,7-8H2,1-2H3/b5-4+
Instrument: TripleTOF 5600 SCIEX
Instrument type: LC-ESI-QTOF
Ms type: MS2
Ion mode: POSITIVE
Collision energy: 130
Fragmentation mode: CID
Ionization: ESI
Column name: Zorbax Eclipse Plus C18 2.1 mm x 150 mm, 3.5 um, Agilent
Retention time: 6.042 min
Precursor m/z: 221.1107
Precursor type: [M+H]+
m/z	relative intensity
42.0416	38
45.0045	77
51.0293	999
52.0374	54
53.0441	69
57.9921	85
59.0005	54
65.0443	100
67.9761	46
68.0535	30
68.9829	495
69.9907	61
70.9999	69
74.018	92
75.0227	61
77.0409	704
78.0482	131
79.0536	38
81.9902	38
89.0382	123
91.0583	38
92.9815	46
94.9982	54
97.0115	77
108.0057	46
121.0102	100
