Mass spectrum: Sudan III; LC-ESI-QTOF; MS2; 80 V
Name: Sudan III
Formula: C22H16N4O
Exact mass: 352.1324
SMILES: C1=CC=C(C=C1)N=NC2=CC=C(C=C2)N=NC3=C(C=CC4=CC=CC=C43)O
InChI: InChI=1S/C22H16N4O/c27-21-15-10-16-6-4-5-9-20(16)22(21)26-25-19-13-11-18(12-14-19)24-23-17-7-2-1-3-8-17/h1-15,27H
Instrument: TripleTOF X500R SCIEX
Instrument type: LC-ESI-QTOF
Ms type: MS2
Ion mode: POSITIVE
Collision energy: 80
Fragmentation mode: CID
Ionization: ESI
Column name: Zorbax Eclipse Plus C18 2.1 mm x 150 mm, 3.5 um, Agilent
Retention time: 19.216 min
Precursor m/z: 353.1397
Precursor type: [M+H]+
m/z	relative intensity
39.0236	93
51.0233	359
59.0319	140
60.0306	62
63.0236	62
64.0308	163
65.0389	546
75.0238	179
77.0392	999
89.0386	70
91.0414	187
92.0496	335
101.0393	624
102.0355	132
115.0554	725
116.0525	70
127.0546	78
128.0502	405
129.0487	85
140.0577	39
141.0718	46
143.0534	54
151.054	46
153.0512	85
154.0652	70
155.0619	39
166.0658	54
167.0737	101
168.0693	46
169.0782	171
170.0712	70
179.06	39
196.0866	132
205.0796	78
218.0836	62
