Mass spectrum: N-[6-[formyl-(2,2,6,6-tetramethylpiperidin-4-yl)amino]hexyl]-N-(2,2,6,6-tetramethylpiperidin-4-yl)formamide; LC-ESI-QTOF; MS2; 60 V
Name: N-[6-[formyl-(2,2,6,6-tetramethylpiperidin-4-yl)amino]hexyl]-N-(2,2,6,6-tetramethylpiperidin-4-yl)formamide
Class: Industrial_process
Formula: C26H50N4O2
Exact mass: 450.3934
SMILES: CC1(CC(CC(N1)(C)C)N(CCCCCCN(C=O)C2CC(NC(C2)(C)C)(C)C)C=O)C
InChI: InChI=1S/C26H50N4O2/c1-23(2)15-21(16-24(3,4)27-23)29(19-31)13-11-9-10-12-14-30(20-32)22-17-25(5,6)28-26(7,8)18-22/h19-22,27-28H,9-18H2,1-8H3
Instrument: TripleTOF 5600 SCIEX
Instrument type: LC-ESI-QTOF
Ms type: MS2
Ion mode: POSITIVE
Collision energy: 60
Fragmentation mode: CID
Ionization: ESI
Column name: Zorbax Eclipse Plus C18 2.1 mm x 150 mm, 3.5 um, Agilent
Retention time: 4.674 min
Precursor m/z: 451.4007
Precursor type: [M+H]+
m/z	relative intensity
58.0655	999
79.0535	41
81.0691	333
83.0851	33
84.0806	74
95.085	74
98.0958	83
123.1167	474
126.0907	91
126.128	49
140.1412	249
166.1585	366
171.1477	58
183.1808	49
209.2022	183
211.179	574
249.2333	133
333.2952	58
350.3208	258
