Mass spectrum: Phenacetin; LC-ESI-QTOF; MS2; 80 V
Name: Phenacetin
Class: Pharmaceutical
Formula: C10H13NO2
Exact mass: 179.0946
SMILES: CCOC1=CC=C(C=C1)NC(=O)C
InChI: InChI=1S/C10H13NO2/c1-3-13-10-6-4-9(5-7-10)11-8(2)12/h4-7H,3H2,1-2H3,(H,11,12)
Instrument: TripleTOF 5600 SCIEX
Instrument type: LC-ESI-QTOF
Ms type: MS2
Ion mode: POSITIVE
Collision energy: 80
Fragmentation mode: CID
Ionization: ESI
Column name: Zorbax Eclipse Plus C18 2.1 mm x 150 mm, 3.5 um, Agilent
Retention time: 7.622 min
Precursor m/z: 180.1019
Precursor type: [M+H]+
m/z	relative intensity
35.9998	48
37.0075	198
38.0151	183
39.023	984
41.0259	37
42.0343	44
43.0182	800
44.0135	41
51.023	101
53.0025	18
53.0387	160
54.0347	52
60.9882	22
64.0321	33
65.0389	999
66.0467	183
67.0416	134
77.0385	37
78.0331	33
80.0498	669
81.057	48
92.0495	74
93.0357	29
93.058	213
108.0443	44
109.0528	74
