Mass spectrum: Thiamine Disulfide; LC-ESI-QTOF; MS2; 140 V
Name: Thiamine Disulfide
Class: Pharmaceutical
Formula: C24H34N8O4S2
Exact mass: 562.2144
SMILES: CC1=NC=C(C(=N1)N)CN(C=O)C(=C(CCO)SSC(=C(C)N(CC2=CN=C(N=C2N)C)C=O)CCO)C
InChI: InChI=1S/C24H34N8O4S2/c1-15(31(13-35)11-19-9-27-17(3)29-23(19)25)21(5-7-33)37-38-22(6-8-34)16(2)32(14-36)12-20-10-28-18(4)30-24(20)26/h9-10,13-14,33-34H,5-8,11-12H2,1-4H3,(H2,25,27,29)(H2,26,28,30)
Instrument: TripleTOF 6600 SCIEX
Instrument type: LC-ESI-QTOF
Ms type: MS2
Ion mode: POSITIVE
Collision energy: 140
Fragmentation mode: CID
Ionization: ESI
Column name: Zorbax Eclipse Plus C18 2.1 mm x 150 mm, 3.5 um, Agilent
Retention time: 4.48 min
Precursor m/z: 563.2217
Precursor type: [M+H]+
m/z	relative intensity
39.0225	87
42.0328	543
43.0169	56
44.9787	25
51.0215	20
52.0175	87
54.0329	999
55.0406	937
56.0477	30
58.9944	40
65.0374	61
66.0327	292
68.0486	20
69.0438	548
70.9933	51
72.0024	35
77.0372	66
78.0323	56
79.0294	25
79.0413	25
80.0487	102
81.0436	727
82.0511	481
83.0595	71
83.9881	35
85.0099	61
90.0327	30
91.0535	46
92.0479	61
93.044	194
93.0567	20
94.0504	25
94.0634	30
95.0592	128
96.0542	87
97.0093	46
97.075	25
99.025	56
102.0364	30
103.0294	25
104.0488	51
105.0427	117
106.0626	35
107.0596	102
108.0547	122
109.0622	40
110.0697	368
111	25
112.0203	204
113.0279	476
114.0357	71
116.0483	46
117.0435	61
117.0539	30
118.0636	35
119.0596	51
120.0533	40
121.0739	46
122.07	76
123.0773	215
124.0206	20
124.086	117
126.0357	153
131.0583	61
132.0615	30
132.0668	35
133.0687	56
134.0707	61
135.065	35
136.0869	20
142.0523	25
143.0585	30
144.0466	102
145.0765	51
146.0705	46
147.0779	51
148.0848	61
156.0657	25
158.0705	25
160.0865	46
161.0816	71
163.0844	20
166.0419	20
172.0858	30
174.1001	35
175.0973	46
189.1111	35
