Mass spectrum: 2,4-Dihydroxybenzophenone; LC-ESI-QTOF; MS2; 70 V
Name: 2,4-Dihydroxybenzophenone
Class: Personal_care_product
Formula: C13H10O3
Exact mass: 214.063
InChI: InChI=1S/C13H10O3/c14-10-6-7-11(12(15)8-10)13(16)9-4-2-1-3-5-9/h1-8,14-15H
Instrument: TripleTOF 5600 SCIEX
Instrument type: LC-ESI-QTOF
Ms type: CID
Ion mode: POSITIVE
Collision energy: 70
Ionization: ESI
Column name: Zorbax Eclipse Plus C18 2.1 mm x 150 mm, 3.5 um, Agilent
Retention time: 10.97 min
Precursor m/z: 215.0703
Precursor type: [M+H]+
m/z	relative intensity
52.0338	17
53.0069	11
65.0455	11
69.0006	433
77.0419	999
77.0764	14
78.0448	38
81.0367	698
89.0408	26
105.0337	47
108.0196	20
109.0291	23
115.0551	88
137.024	73
139.0556	17
