Mass spectrum: 2-Methyl-4`-(methylthio)-2-morpholinopropiophenone; LC-ESI-QTOF; MS2; 90 V
Name: 2-Methyl-4`-(methylthio)-2-morpholinopropiophenone
Class: Industrial_process
Formula: C15H21NO2S
Exact mass: 279.1293
SMILES: CC(C)(C(=O)C1=CC=C(C=C1)SC)N2CCOCC2
InChI: InChI=1S/C15H21NO2S/c1-15(2,16-8-10-18-11-9-16)14(17)12-4-6-13(19-3)7-5-12/h4-7H,8-11H2,1-3H3
Instrument: TripleTOF 6600 SCIEX
Instrument type: LC-ESI-QTOF
Ms type: MS2
Ion mode: POSITIVE
Collision energy: 90
Fragmentation mode: CID
Ionization: ESI
Column name: Zorbax Eclipse Plus C18 2.1 mm x 150 mm, 3.5 um, Agilent
Retention time: 7.548 min
Precursor m/z: 280.1366
Precursor type: [M+H]+
m/z	relative intensity
39.0231	39
41.0385	16
42.0339	32
44.0496	37
44.9794	15
45.0332	10
50.0149	17
51.0228	51
63.0224	22
65.0385	167
68.979	13
70.0648	18
77.0386	277
78.0462	142
79.0537	11
89.0382	50
90.046	12
91.0544	999
102.0462	47
103.0537	111
105.0692	11
108.0021	10
109.01	32
110.0178	16
115.0542	817
116.061	46
117.0695	386
121.0101	311
122.0182	139
127.0538	23
131.0482	28
134.0177	46
135.0256	72
137.0412	16
