Mass spectrum: Acetochlor; LC-ESI-QTOF; MS2; 70 V
Name: Acetochlor
Class: Herbicide
Formula: C14H20ClNO2
Exact mass: 269.1183
SMILES: CCC1=CC=CC(=C1N(COCC)C(=O)CCl)C
InChI: InChI=1S/C14H20ClNO2/c1-4-12-8-6-7-11(3)14(12)16(10-18-5-2)13(17)9-15/h6-8H,4-5,9-10H2,1-3H3
Instrument: TripleTOF 6600 SCIEX
Instrument type: LC-ESI-QTOF
Ms type: MS2
Ion mode: POSITIVE
Collision energy: 70
Fragmentation mode: CID
Ionization: ESI
Column name: Zorbax Eclipse Plus C18 2.1 mm x 150 mm, 3.5 um, Agilent
Retention time: 13.251 min
Precursor m/z: 270.1255
Precursor type: [M+H]+
m/z	relative intensity
31.0174	160
41.0377	33
45.0325	203
48.9825	143
65.0386	50
77.0372	160
79.053	76
89.0395	42
90.0458	76
91.0522	389
103.0528	84
105.0675	211
106.0648	93
115.0525	355
116.0508	42
117.0558	982
118.0637	203
119.0715	33
127.0532	33
128.0583	76
130.0612	279
131.0725	126
132.0793	999
133.0874	203
143.0701	42
144.0787	76
146.0937	203
