Mass spectrum: O-desmethyl-naproxen; LC-ESI-QTOF; MS2; 70 V
Name: O-desmethyl-naproxen
Class: Metabolite; Pharmaceutical; Transformation_product
Formula: C13H12O3
Exact mass: 216.0786
SMILES: CC(C1=CC2=C(C=C1)C=C(C=C2)O)C(=O)O
InChI: InChI=1S/C13H12O3/c1-8(13(15)16)9-2-3-11-7-12(14)5-4-10(11)6-9/h2-8,14H,1H3,(H,15,16)
Instrument: TripleTOF 5600 SCIEX
Instrument type: LC-ESI-QTOF
Ms type: MS2
Ion mode: POSITIVE
Collision energy: 70
Fragmentation mode: CID
Ionization: ESI
Column name: Zorbax Eclipse Plus C18 2.1 mm x 150 mm, 3.5 um, Agilent
Retention time: 8.5 min
Precursor m/z: 217.0859
Precursor type: [M+H]+
m/z	relative intensity
65.0443	52
77.0442	130
89.0404	130
102.0483	121
114.0502	43
115.0543	999
116.0634	121
126.0463	112
127.056	277
128.0627	477
131.0511	43
141.0704	130
144.0575	130
150.0495	86
151.0535	208
152.061	503
