Mass spectrum: 6`-Hydroxymethyl Simvastatin; LC-ESI-QTOF; MS2; 60 V
Name: 6`-Hydroxymethyl Simvastatin
Class: Metabolite; Pharmaceutical
Formula: C25H38O6
Exact mass: 434.2668
SMILES: CCC(C)(C)C(=O)OC1CC(C=C2C1C(C(C=C2)C)CCC3CC(CC(=O)O3)O)CO
InChI: InChI=1S/C25H38O6/c1-5-25(3,4)24(29)31-21-11-16(14-26)10-17-7-6-15(2)20(23(17)21)9-8-19-12-18(27)13-22(28)30-19/h6-7,10,15-16,18-21,23,26-27H,5,8-9,11-14H2,1-4H3
Instrument: TripleTOF 5600 SCIEX
Instrument type: LC-ESI-QTOF
Ms type: MS2
Ion mode: POSITIVE
Collision energy: 60
Fragmentation mode: CID
Ionization: ESI
Column name: Zorbax Eclipse Plus C18 2.1 mm x 150 mm, 3.5 um, Agilent
Retention time: 10.786 min
Precursor m/z: 435.2741
Precursor type: [M+H]+
m/z	relative intensity
79.0583	183
81.0763	81
105.0729	183
117.0677	81
128.0628	244
129.0689	224
131.0894	163
141.0719	489
142.0795	265
143.0868	550
145.1043	244
153.0698	203
154.0823	366
155.0861	733
156.0948	713
157.1021	326
159.1155	163
165.0712	285
166.0771	101
167.083	387
168.0906	265
169.0999	999
171.1173	530
179.0873	122
180.0936	224
181.0999	428
182.111	550
183.1172	183
189.1273	101
191.0823	122
193.1006	244
195.1151	530
197.1291	672
206.1068	224
207.1202	101
208.1227	81
209.1338	122
217.0868	101
217.1008	183
223.146	305
232.1267	142
