Mass spectrum: 6-Acetylcodeine; LC-ESI-QTOF; MS2; 80 V
Name: 6-Acetylcodeine
Class: Pharmaceutical; Transformation_product
Formula: C20H23NO4
Exact mass: 341.1627
SMILES: CC(=O)OC1C=CC2C3CC4=C5C2(C1OC5=C(C=C4)OC)CCN3C
InChI: InChI=1S/C20H23NO4/c1-11(22)24-16-7-5-13-14-10-12-4-6-15(23-3)18-17(12)20(13,19(16)25-18)8-9-21(14)2/h4-7,13-14,16,19H,8-10H2,1-3H3
Instrument: TripleTOF 5600 SCIEX
Instrument type: LC-ESI-QTOF
Ms type: MS2
Ion mode: POSITIVE
Collision energy: 80
Fragmentation mode: CID
Ionization: ESI
Column name: Zorbax Eclipse Plus C18 2.1 mm x 150 mm, 3.5 um, Agilent
Retention time: 6.207 min
Precursor m/z: 342.17
Precursor type: [M+H]+
m/z	relative intensity
43.027	116
58.0708	27
77.0411	57
89.0403	13
91.0562	45
94.0423	10
102.0465	19
103.055	31
115.0552	254
116.0623	27
117.0643	11
118.0411	16
122.0359	10
126.0467	17
127.0548	110
128.0626	284
129.0696	60
131.0496	44
131.0733	10
137.0606	10
139.0549	105
140.0631	30
141.0701	163
142.0777	16
143.0491	27
144.057	51
145.0653	13
146.0367	13
150.0464	19
151.0548	186
152.063	956
153.0706	521
154.0775	112
155.0489	89
155.0852	31
156.0565	42
157.0652	42
158.0725	18
161.06	28
163.0544	48
164.0626	159
165.0706	999
166.0773	58
167.0864	32
168.0574	126
169.0659	77
170.0377	16
170.0719	14
171.0442	34
171.0797	42
172.0504	12
176.0625	119
177.0688	57
178.078	179
179.0516	17
179.0853	56
180.0579	74
181.0654	377
182.0717	72
183.0437	88
183.081	16
184.0517	39
185.0601	36
189.0701	182
190.0781	48
191.0852	57
192.0579	21
193.0652	73
194.0725	53
195.0791	25
197.0591	57
198.0676	25
199.0754	16
200.0614	19
201.0681	15
202.0766	29
204.0819	14
205.0654	50
206.0714	10
206.0977	10
207.047	12
207.081	36
208.052	40
209.0604	39
210.0683	42
211.0742	13
218.0712	24
218.0951	18
219.08	21
219.1032	17
220.111	21
221.0608	37
223.0757	23
234.0899	12
236.0726	12
250.0877	12
