Mass spectrum: Reserpine; LC-ESI-QTOF; MS2; 40 V
Name: Reserpine
Class: Natural_product; Pharmaceutical
Formula: C33H40N2O9
Exact mass: 608.2734
SMILES: COC1C(CC2CN3CCC4=C(C3CC2C1C(=O)OC)NC5=C4C=CC(=C5)OC)OC(=O)C6=CC(=C(C(=C6)OC)OC)OC
InChI: InChI=1S/C33H40N2O9/c1-38-19-7-8-20-21-9-10-35-16-18-13-27(44-32(36)17-11-25(39-2)30(41-4)26(12-17)40-3)31(42-5)28(33(37)43-6)22(18)15-24(35)29(21)34-23(20)14-19/h7-8,11-12,14,18,22,24,27-28,31,34H,9-10,13,15-16H2,1-6H3
Instrument: TripleTOF 5600 SCIEX
Instrument type: LC-ESI-QTOF
Ms type: MS2
Ion mode: POSITIVE
Collision energy: 40
Fragmentation mode: CID
Ionization: ESI
Column name: Zorbax Eclipse Plus C18 2.1 mm x 150 mm, 3.5 um, Agilent
Retention time: 8.6 min
Precursor m/z: 609.2807
Precursor type: [M+H]+
m/z	relative intensity
131.075	12
139.0763	11
143.0743	13
148.0766	19
152.0478	15
159.0691	23
160.0762	26
167.0716	27
174.0918	391
176.1075	15
186.0917	11
188.1077	26
190.0858	10
192.1019	75
195.0651	629
200.1071	30
204.1011	32
214.1101	11
215.1172	23
222.1104	11
224.1267	75
227.1184	11
236.1272	168
238.1213	19
265.1321	13
276.1387	19
288.1368	20
290.1142	10
304.1332	15
305.1576	16
322.1414	18
333.1581	24
334.1416	12
336.158	75
348.157	39
365.1849	242
368.1829	56
380.1843	21
397.2106	806
402.1504	11
413.2058	16
434.1791	34
436.1955	89
448.1944	445
577.2498	134
607.3465	28
608.2527	10
609.2779	999
