Mass spectrum: N,O-didesmethyl-venlafaxine; LC-ESI-QTOF; MS2; 70 V
Name: N,O-didesmethyl-venlafaxine
Class: Pharmaceutical; Metabolite; Transformation_product-Metabolite
Formula: C15H23NO2
Exact mass: 249.1729
SMILES: CNCC(c1ccc(cc1)O)C2(CCCCC2)O
InChI: InChI=1S/C15H23NO2/c1-16-11-14(12-5-7-13(17)8-6-12)15(18)9-3-2-4-10-15/h5-8,14,16-18H,2-4,9-11H2,1H3
Instrument: TripleTOF 5600 SCIEX
Instrument type: LC-ESI-QTOF
Ms type: MS2
Ion mode: POSITIVE
Collision energy: 70
Fragmentation mode: CID
Ionization: ESI
Column name: Zorbax Eclipse Plus C18 2.1 mm x 150 mm, 3.5 um, Agilent
Retention time: 5.659 min
Precursor m/z: 250.1802
Precursor type: [M+H]+
m/z	relative intensity
42.0424	20
44.0589	621
51.0287	55
53.043	11
55.0226	26
55.0596	10
65.0423	42
77.042	999
79.0568	347
81.0712	80
89.0396	21
91.0554	144
94.0421	23
103.0545	120
105.07	154
107.0496	916
115.0539	209
116.0611	47
117.0691	13
119.0478	13
120.0559	13
127.0547	59
128.0629	25
131.0479	35
132.0573	10
133.0632	31
134.0601	20
135.0688	13
141.0694	20
144.0567	40
145.0633	10
