Mass spectrum: Verapamil; LC-ESI-QTOF; MS2; 130 V
Name: Verapamil
Class: Pharmaceutical
Formula: C27H38N2O4
Exact mass: 454.2832
SMILES: CC(C)C(CCCN(C)CCc1ccc(c(c1)OC)OC)(C#N)c2ccc(c(c2)OC)OC
InChI: InChI=1S/C27H38N2O4/c1-20(2)27(19-28,22-10-12-24(31-5)26(18-22)33-7)14-8-15-29(3)16-13-21-9-11-23(30-4)25(17-21)32-6/h9-12,17-18,20H,8,13-16H2,1-7H3
Instrument: TripleTOF 5600 SCIEX
Instrument type: LC-ESI-QTOF
Ms type: MS2
Ion mode: POSITIVE
Collision energy: 130
Fragmentation mode: CID
Ionization: ESI
Column name: Zorbax Eclipse Plus C18 2.1 mm x 150 mm, 3.5 um, Agilent
Retention time: 8.542 min
Precursor m/z: 455.2904
Precursor type: [M+H]+
m/z	relative intensity
44.059	14
58.0711	22
65.0435	125
76.0343	10
77.0428	999
78.0494	100
79.0579	201
81.0357	10
84.0832	14
89.0407	90
90.0484	65
91.0571	702
92.0265	12
92.0631	10
93.0716	22
94.0429	25
102.0474	50
103.0554	188
104.0626	23
105.0344	60
105.0699	21
107.0501	196
115.0545	42
117.0631	17
118.0416	26
119.0497	111
120.0573	20
121.0652	61
128.0615	10
131.0496	39
132.0463	11
133.0288	30
134.0729	20
135.0443	107
149.0598	15
