Mass spectrum: 17alpha-Methyltestosterone; LC-ESI-QTOF; MS2; 40 V
Name: 17alpha-Methyltestosterone
Class: Pharmaceutical
Formula: C20H30O2
Exact mass: 302.2246
SMILES: C[C@]1(O)CC[C@H]2[C@@H]3CCC4=CC(=O)CC[C@]4(C)[C@H]3CC[C@]12C
InChI: InChI=1S/C20H30O2/c1-18-9-6-14(21)12-13(18)4-5-15-16(18)7-10-19(2)17(15)8-11-20(19,3)22/h12,15-17,22H,4-11H2,1-3H3/t15-,16+,17+,18+,19+,20+/m1/s1
Instrument: TripleTOF 5600 SCIEX
Instrument type: LC-ESI-QTOF
Ms type: MS2
Ion mode: POSITIVE
Collision energy: 40
Fragmentation mode: CID
Ionization: ESI
Column name: Zorbax Eclipse Plus C18 2.1 mm x 150 mm, 3.5 um, Agilent
Retention time: 11.57 min
Precursor m/z: 303.2319
Precursor type: [M+H]+
m/z	relative intensity
67.0585	39
69.0732	21
77.042	38
79.0573	140
81.072	123
83.0505	51
91.0556	78
93.071	105
95.0873	136
97.0667	957
105.0706	97
107.0498	11
107.086	128
109.066	999
109.1055	17
117.0708	19
119.0856	103
121.0632	43
121.1014	102
123.0809	146
123.1155	10
129.0723	13
131.0867	51
133.1008	104
135.1169	41
137.0969	17
143.0852	29
145.1	54
147.1176	61
149.0971	29
149.1314	23
155.0844	19
156.0931	14
157.1027	43
159.1168	74
161.1319	46
163.1111	21
163.1461	10
169.0998	21
171.1185	44
173.1326	32
175.1488	33
177.1276	31
177.1626	22
183.1197	12
185.1317	42
187.1486	32
189.1273	13
189.163	38
197.1314	20
199.1498	17
201.1634	38
211.1469	37
215.1445	10
215.1797	15
225.1654	13
227.1793	72
229.1565	10
245.1897	18
267.2107	34
285.221	41
