Mass spectrum: Hydrocortisone; LC-ESI-QTOF; MS2; 150 V
Name: Hydrocortisone
Class: Pharmaceutical
Formula: C21H30O5
Exact mass: 362.2093
SMILES: C[C@]12CCC(=O)C=C1CC[C@H]3[C@@H]4CC[C@](O)(C(=O)CO)[C@@]4(C)C[C@H](O)[C@H]23
InChI: InChI=1S/C21H30O5/c1-19-7-5-13(23)9-12(19)3-4-14-15-6-8-21(26,17(25)11-22)20(15,2)10-16(24)18(14)19/h9,14-16,18,22,24,26H,3-8,10-11H2,1-2H3/t14-,15-,16-,18+,19-,20-,21-/m0/s1
Instrument: TripleTOF 5600 SCIEX
Instrument type: LC-ESI-QTOF
Ms type: MS2
Ion mode: POSITIVE
Collision energy: 150
Fragmentation mode: CID
Ionization: ESI
Column name: Zorbax Eclipse Plus C18 2.1 mm x 150 mm, 3.5 um, Agilent
Retention time: 8.323 min
Precursor m/z: 363.2166
Precursor type: [M+H]+
m/z	relative intensity
43.0264	56
53.0442	36
55.0581	20
65.0437	388
74.019	41
75.024	41
76.0337	46
77.0413	999
77.0785	20
78.0483	108
79.0566	139
89.0404	201
91.0554	543
101.0386	25
102.0453	191
103.0553	87
105.0682	31
107.0511	25
115.0541	859
115.0792	41
116.0612	31
126.0449	103
127.0528	238
127.0734	25
128.061	507
129.0693	25
139.0536	62
141.0704	82
150.0453	51
151.053	98
152.0609	320
153.071	56
163.0542	129
164.0631	62
165.0695	212
176.0599	56
178.0774	51
189.0703	93
202.0772	36
