Mass spectrum: Hostavin VSU P; LC-ESI-QTOF; MS2; 40 V
Name: Hostavin VSU P
Formula: C18H20N2O3
Exact mass: 312.1474
SMILES: CCC1=CC=CC=C1NC(=O)C(=O)NC2=CC=CC=C2OCC
InChI: InChI=1S/C18H20N2O3/c1-3-13-9-5-6-10-14(13)19-17(21)18(22)20-15-11-7-8-12-16(15)23-4-2/h5-12H,3-4H2,1-2H3,(H,19,21)(H,20,22)
Instrument: TripleTOF 5600 SCIEX
Instrument type: LC-ESI-QTOF
Ms type: MS2
Ion mode: POSITIVE
Collision energy: 40
Fragmentation mode: CID
Ionization: ESI
Column name: Zorbax Eclipse Plus C18 2.1 mm x 150 mm, 3.5 um, Agilent
Retention time: 15.402 min
Precursor m/z: 313.1547
Precursor type: [M+H]+
m/z	relative intensity
65.0377	71
77.0396	38
79.0535	38
80.0489	97
91.0538	64
92.0486	58
93.0331	90
93.0691	38
94.0648	51
103.0539	84
105.0711	71
106.0644	45
108.0446	90
109.052	168
110.0599	356
117.0568	25
118.0655	64
120.0443	142
120.0804	265
121.0681	32
122.097	272
130.065	551
132.0811	71
136.039	999
138.0915	304
148.0757	155
