Mass spectrum: Rhein; LC-ESI-QTOF; MS2; 50 V
Name: Rhein
Class: Metabolite
Formula: C15H8O6
Exact mass: 284.0321
SMILES: C1=CC2=C(C(=C1)O)C(=O)C3=C(C=C(C=C3C2=O)C(=O)O)O
InChI: InChI=1S/C15H8O6/c16-9-3-1-2-7-11(9)14(19)12-8(13(7)18)4-6(15(20)21)5-10(12)17/h1-5,16-17H,(H,20,21)
Instrument: TripleTOF 5600 SCIEX
Instrument type: LC-ESI-QTOF
Ms type: MS2
Ion mode: POSITIVE
Collision energy: 50
Fragmentation mode: CID
Ionization: ESI
Column name: Zorbax Eclipse Plus C18 2.1 mm x 150 mm, 3.5 um, Agilent
Retention time: 10.796 min
Precursor m/z: 285.0394
Precursor type: [M+H]+
m/z	relative intensity
65.039	61
77.0385	79
93.0339	134
109.0271	30
115.0555	79
119.0104	49
121.0274	484
126.0468	24
127.0544	429
128.0611	189
129.0688	110
131.0472	55
139.0531	355
141.0708	49
155.0488	999
157.0645	288
165.0187	91
167.0492	189
173.0671	30
183.0441	815
185.0608	79
193.03	67
195.0441	98
211.0391	294
213.0543	147
239.036	98
241.0539	85
257.0384	42
267.0227	49
