Mass spectrum: Progesterone; LC-ESI-QTOF; MS2; 140 V
Name: Progesterone
Class: Pharmaceutical
Formula: C21H30O2
Exact mass: 314.2246
SMILES: CC(=O)[C@H]1CC[C@H]2[C@@H]3CCC4=CC(=O)CC[C@]4(C)[C@H]3CC[C@]12C
InChI: InChI=1S/C21H30O2/c1-13(22)17-6-7-18-16-5-4-14-12-15(23)8-10-20(14,2)19(16)9-11-21(17,18)3/h12,16-19H,4-11H2,1-3H3/t16-,17+,18-,19-,20-,21+/m0/s1
Instrument: TripleTOF 5600 SCIEX
Instrument type: LC-ESI-QTOF
Ms type: MS2
Ion mode: POSITIVE
Collision energy: 140
Fragmentation mode: CID
Ionization: ESI
Column name: Zorbax Eclipse Plus C18 2.1 mm x 150 mm, 3.5 um, Agilent
Retention time: 13.796 min
Precursor m/z: 315.2319
Precursor type: [M+H]+
m/z	relative intensity
43.0268	347
43.0389	30
43.0459	36
53.0446	85
55.0229	67
55.0588	42
57.0394	24
65.0422	298
66.0509	48
67.0578	48
77.0414	999
78.0503	54
79.0559	225
82.0435	30
89.0413	67
91.0556	243
97.0654	67
102.0454	36
107.0491	48
115.0539	188
127.0542	48
128.0606	109
141.0699	24
152.0603	42
