Mass spectrum: Etofibrate; LC-ESI-QTOF; MS2; 90 V
Name: Etofibrate
Class: Pharmaceutical
Formula: C18H18ClNO5
Exact mass: 363.0874
SMILES: CC(C)(C(=O)OCCOC(=O)C1=CN=CC=C1)OC2=CC=C(C=C2)Cl
InChI: InChI=1S/C18H18ClNO5/c1-18(2,25-15-7-5-14(19)6-8-15)17(22)24-11-10-23-16(21)13-4-3-9-20-12-13/h3-9,12H,10-11H2,1-2H3
Instrument: TripleTOF 6600 SCIEX
Instrument type: LC-ESI-QTOF
Ms type: MS2
Ion mode: POSITIVE
Collision energy: 90
Fragmentation mode: CID
Ionization: ESI
Column name: Zorbax Eclipse Plus C18 2.1 mm x 150 mm, 3.5 um, Agilent
Retention time: 12.631 min
Precursor m/z: 364.0946
Precursor type: [M+H]+
m/z	relative intensity
39.0221	75
41.0377	143
42.0455	17
45.0321	16
50.0138	36
51.0218	117
52.0169	32
52.0295	16
53.0376	117
55.0169	503
65.0373	23
69.0322	96
70.04	19
73.0267	28
74.0135	27
75.0213	109
77.0372	41
78.0327	999
79.0403	74
80.0483	678
93.0561	30
94.0396	30
99.0426	825
106.0271	75
106.0635	36
110.9977	84
113.058	93
114.0655	23
122.0212	18
124.0379	508
129.0084	11
139.0031	22
141.008	13
