Mass spectrum: Doxycycline; LC-ESI-QTOF; MS2; 130 V
Name: Doxycycline
Class: Antimicrobial; Pharmaceutical
Formula: C22H24N2O8
Exact mass: 444.1533
SMILES: CC1C2C(C3C(C(=O)C(=C(C3(C(=O)C2=C(C4=C1C=CC=C4O)O)O)O)C(=O)N)N(C)C)O
InChI: InChI=1S/C22H24N2O8/c1-7-8-5-4-6-9(25)11(8)16(26)12-10(7)17(27)14-15(24(2)3)18(28)13(21(23)31)20(30)22(14,32)19(12)29/h4-7,10,14-15,17,25-27,30,32H,1-3H3,(H2,23,31)
Instrument: TripleTOF 5600 SCIEX
Instrument type: LC-ESI-QTOF
Ms type: MS2
Ion mode: POSITIVE
Collision energy: 130
Fragmentation mode: CID
Ionization: ESI
Column name: Zorbax Eclipse Plus C18 2.1 mm x 150 mm, 3.5 um, Agilent
Retention time: 6.499 min
Precursor m/z: 445.1605
Precursor type: [M+H]+
m/z	relative intensity
77.0439	269
91.0582	222
101.0396	79
102.0501	95
103.0584	79
114.0485	126
115.057	983
116.0652	111
126.0482	222
127.0566	555
128.0643	491
139.0569	999
140.064	237
141.0702	142
144.0572	79
150.0475	158
151.0548	333
152.0637	777
153.0698	126
163.0562	269
164.0635	253
165.0701	602
168.0554	269
176.0631	253
178.0783	174
181.0615	95
189.0677	237
