Mass spectrum: 14-Hydroxycodeinone; LC-ESI-QTOF; MS2; 90 V
Name: 14-Hydroxycodeinone
Class: Pharmaceutical; Transformation_product
Formula: C18H19NO4
Exact mass: 313.1314
SMILES: COc1ccc2C[C@H]3N(C)CC[C@@]45C(Oc1c24)C(=O)C=C[C@@]35O
InChI: InChI=1S/C18H19NO4/c1-19-8-7-17-14-10-3-4-12(22-2)15(14)23-16(17)11(20)5-6-18(17,21)13(19)9-10/h3-6,13,16,21H,7-9H2,1-2H3/t13-,16?,17+,18-/m1/s1
Instrument: TripleTOF 5600 SCIEX
Instrument type: LC-ESI-QTOF
Ms type: MS2
Ion mode: POSITIVE
Collision energy: 90
Fragmentation mode: CID
Ionization: ESI
Column name: Zorbax Eclipse Plus C18 2.1 mm x 150 mm, 3.5 um, Agilent
Retention time: 5.367 min
Precursor m/z: 314.1387
Precursor type: [M+H]+
m/z	relative intensity
65.0425	19
75.024	11
77.0406	94
78.0494	16
89.0401	114
90.047	14
91.0539	60
92.0508	16
93.0562	16
94.0656	26
101.0375	26
102.0457	44
103.0545	32
113.0379	50
114.046	49
115.0542	644
116.0482	68
117.0568	42
118.0402	13
118.0637	27
125.0389	21
126.0457	86
127.0541	225
128.0619	181
129.0556	9
129.068	31
130.0641	34
131.048	21
131.0735	47
138.0465	21
139.0542	822
140.0607	292
141.0686	246
142.0637	45
143.0464	9
143.0725	22
144.082	22
150.0452	78
151.0537	237
152.0618	698
153.0679	297
154.0649	202
155.0492	65
155.0738	65
156.0795	34
163.0545	120
164.0616	176
165.069	528
166.0649	999
167.0726	923
168.0592	49
168.0806	202
169.0626	47
169.0883	31
170.0623	17
175.0534	9
176.0614	155
177.0662	37
178.069	147
179.0502	21
179.073	99
180.0802	500
181.0879	775
181.1225	9
182.0605	19
182.0954	184
183.0688	17
184.0485	13
184.0771	14
187.0527	11
189.0704	29
190.0639	88
191.0714	158
192.0559	14
192.0806	103
193.0651	19
193.0885	42
194.0586	132
194.0962	50
195.0674	268
195.1019	14
196.0757	31
196.1079	16
197.0821	21
202.0632	21
203.0714	73
204.0803	45
205.0656	29
205.0875	32
206.0589	42
206.0949	26
207.068	35
207.1062	9
208.0749	135
209.0592	13
209.0827	78
210.0909	250
211.0663	13
216.0812	19
217.0844	14
218.0967	14
219.0663	21
220.0745	53
221.0863	14
222.054	80
222.0912	14
223.0597	47
224.0687	11
236.0712	67
237.0744	17
238.0859	387
248.0703	13
250.0835	13
