Mass spectrum: 2-Methyl-4`-(methylthio)-2-morpholinopropiophenone; LC-ESI-QTOF; MS2; 70 V
Name: 2-Methyl-4`-(methylthio)-2-morpholinopropiophenone
Class: Industrial_process
Formula: C15H21NO2S
Exact mass: 279.1293
SMILES: CC(C)(C(=O)C1=CC=C(C=C1)SC)N2CCOCC2
InChI: InChI=1S/C15H21NO2S/c1-15(2,16-8-10-18-11-9-16)14(17)12-4-6-13(19-3)7-5-12/h4-7H,8-11H2,1-3H3
Instrument: TripleTOF 6600 SCIEX
Instrument type: LC-ESI-QTOF
Ms type: MS2
Ion mode: POSITIVE
Collision energy: 70
Fragmentation mode: CID
Ionization: ESI
Column name: Zorbax Eclipse Plus C18 2.1 mm x 150 mm, 3.5 um, Agilent
Retention time: 7.548 min
Precursor m/z: 280.1366
Precursor type: [M+H]+
m/z	relative intensity
39.0229	13
41.0387	11
42.0341	31
44.0492	33
44.9794	17
45.0335	13
65.0383	37
70.0648	56
77.0383	75
78.0462	77
84.0805	19
88.0747	34
89.0381	13
91.0541	539
102.0453	16
103.0537	120
104.0612	15
105.0686	20
109.0099	65
110.0172	15
115.0542	603
116.0611	45
117.0698	999
118.0773	52
121.01	109
122.018	238
124.0327	10
127.0531	15
128.0613	11
128.1058	15
131.0486	123
134.0177	32
135.0257	225
137.0412	187
145.0639	33
149.041	29
150.0488	43
