Mass spectrum: Bicalutamide; LC-ESI-QTOF; MS2; 80 V
Name: Bicalutamide
Class: Pharmaceutical
Formula: C18H14F4N2O4S
Exact mass: 430.061
InChI: InChI=1S/C18H14F4N2O4S/c1-17(26,10-29(27,28)14-6-3-12(19)4-7-14)16(25)24-13-5-2-11(9-23)15(8-13)18(20,21)22/h2-8,26H,10H2,1H3,(H,24,25)
Instrument: TripleTOF 5600 SCIEX
Instrument type: LC-ESI-QTOF
Ms type: CID
Ion mode: NEGATIVE
Collision energy: 80
Ionization: ESI
Column name: Zorbax Eclipse Plus C18 2.1 mm x 150 mm, 3.5 um, Agilent
Retention time: 11.644 min
Precursor m/z: 429.0538
Precursor type: [M-H]-
m/z	relative intensity
63.9634	121
78.9858	138
95.0296	62
145.02	87
158.0211	128
184.036	99
185.0317	999
185.0501	212
