Mass spectrum: Anagrelide; LC-ESI-QTOF; MS2; 90 V
Name: Anagrelide
Class: Pharmaceutical
Formula: C10H7Cl2N3O
Exact mass: 254.9966
SMILES: c1cc(c(c2c1NC3=NC(=O)CN3C2)Cl)Cl
InChI: InChI=1S/C10H7Cl2N3O/c11-6-1-2-7-5(9(6)12)3-15-4-8(16)14-10(15)13-7/h1-2H,3-4H2,(H,13,14,16)
Instrument: TripleTOF 5600 SCIEX
Instrument type: LC-ESI-QTOF
Ms type: MS2
Ion mode: POSITIVE
Collision energy: 90
Fragmentation mode: CID
Ionization: ESI
Column name: Zorbax Eclipse Plus C18 2.1 mm x 150 mm, 3.5 um, Agilent
Retention time: 7.666 min
Precursor m/z: 256.0039
Precursor type: [M+H]+
m/z	relative intensity
51.0284	35
52.0247	22
61.9841	97
72.9875	26
73.0092	124
74.0188	497
74.0551	22
75.0255	381
76.0192	93
76.0342	62
84.9862	31
89.0418	35
96.9831	22
99.0105	483
100.0188	999
100.043	53
101.0358	17
102.0345	532
102.0564	22
106.9444	26
108.9828	359
109.9913	88
110.9989	17
122.9996	44
129.0438	93
130.0389	57
135.994	106
137.0016	239
144.9614	93
163.9962	17
172.9657	17
