Mass spectrum: Fenoxycarb; LC-ESI-QTOF; MS2; 60 V
Name: Fenoxycarb
Class: Insecticide
Formula: C17H19NO4
Exact mass: 301.1314
SMILES: CCOC(=O)NCCOc1ccc(Oc2ccccc2)cc1
InChI: InChI=1S/C17H19NO4/c1-2-20-17(19)18-12-13-21-14-8-10-16(11-9-14)22-15-6-4-3-5-7-15/h3-11H,2,12-13H2,1H3,(H,18,19)
Instrument: TripleTOF 5600 SCIEX
Instrument type: LC-ESI-QTOF
Ms type: MS2
Ion mode: POSITIVE
Collision energy: 60
Fragmentation mode: CID
Ionization: ESI
Column name: Zorbax Eclipse Plus C18 2.1 mm x 150 mm, 3.5 um, Agilent
Retention time: 13.067 min
Precursor m/z: 302.1387
Precursor type: [M+H]+
m/z	relative intensity
42.0445	67
44.0597	319
65.0434	38
66.0508	61
70.0329	158
77.0418	326
78.0493	10
79.0566	28
81.0356	27
88.0418	999
89.0398	17
90.0477	11
91.0557	202
92.0639	20
94.0426	143
103.0544	10
105.034	72
107.0492	61
109.0285	66
110.0359	20
115.0542	353
116.0706	134
118.041	68
119.0488	30
120.0564	61
121.028	11
127.0539	70
128.0617	203
129.0696	163
131.049	20
134.0355	15
139.0535	32
140.0587	12
141.0697	181
151.0541	20
152.062	78
153.07	14
155.0599	10
157.0653	99
158.0726	46
165.0701	124
166.0761	13
168.0575	33
169.0638	30
170.0737	10
176.0614	29
181.0653	19
185.0608	27
186.0678	109
197.0598	20
213.0548	14
