Mass spectrum: Pendimethalin; LC-ESI-QTOF; MS2; 140 V
Name: Pendimethalin
Class: Herbicide
Formula: C13H19N3O4
Exact mass: 281.1376
SMILES: CCC(CC)Nc1c(cc(c(c1[N+](=O)[O-])C)C)[N+](=O)[O-]
InChI: InChI=1S/C13H19N3O4/c1-5-10(6-2)14-12-11(15(17)18)7-8(3)9(4)13(12)16(19)20/h7,10,14H,5-6H2,1-4H3
Instrument: TripleTOF 6600 SCIEX
Instrument type: LC-ESI-QTOF
Ms type: MS2
Ion mode: POSITIVE
Collision energy: 140
Fragmentation mode: CID
Ionization: ESI
Column name: Zorbax Eclipse Plus C18 2.1 mm x 150 mm, 3.5 um, Agilent
Retention time: 16.198 min
Precursor m/z: 282.1448
Precursor type: [M+H]+
m/z	relative intensity
37.0079	298
38.0036	119
38.0159	223
39.0238	999
41.0394	193
49.0076	208
50.0155	656
51.0233	879
52.0189	328
53.0142	104
61.0075	164
62.0155	328
63.0235	432
65.0391	238
66.0338	59
74.0154	253
75.0106	134
75.0242	74
76.0189	119
77.0387	149
78.0344	134
89.0388	149
