Mass spectrum: Nitrofurantoin; LC-ESI-QTOF; MS2; 10 V
Name: Nitrofurantoin
Class: Antimicrobial; Pharmaceutical
Formula: C8H6N4O5
Exact mass: 238.0338
SMILES: C1C(=O)NC(=O)N1N=CC2=CC=C(O2)[N+](=O)[O-]
InChI: InChI=1S/C8H6N4O5/c13-6-4-11(8(14)10-6)9-3-5-1-2-7(17-5)12(15)16/h1-3H,4H2,(H,10,13,14)
Instrument: TripleTOF 5600 SCIEX
Instrument type: LC-ESI-QTOF
Ms type: MS2
Ion mode: POSITIVE
Collision energy: 10
Fragmentation mode: CID
Ionization: ESI
Column name: Zorbax Eclipse Plus C18 2.1 mm x 150 mm, 3.5 um, Agilent
Retention time: 6.225 min
Precursor m/z: 239.0411
Precursor type: [M+H]+
m/z	relative intensity
126.0326	19
168.0414	19
222.0402	19
239.0396	999
