Mass spectrum: Adipic acid; LC-ESI-QTOF; MS2; 40 V
Name: Adipic acid
Class: Industrial_process; Personal_care_product
Formula: C6H10O4
Exact mass: 146.0579
SMILES: C(CCC(=O)O)CC(=O)O
InChI: InChI=1S/C6H10O4/c7-5(8)3-1-2-4-6(9)10/h1-4H2,(H,7,8)(H,9,10)
Instrument: TripleTOF 5600 SCIEX
Instrument type: LC-ESI-QTOF
Ms type: MS2
Ion mode: NEGATIVE
Collision energy: 40
Fragmentation mode: CID
Ionization: ESI
Column name: Zorbax Eclipse Plus C18 2.1 mm x 150 mm, 3.5 um, Agilent
Retention time: 5.22 min
Precursor m/z: 145.0511
Precursor type: [M-H]-
m/z	relative intensity
53.039	60
80.9932	58
81.0348	999
83.05	715
101.0607	523
145.0555	33
