Mass spectrum: Fluazifop; LC-ESI-QTOF; MS2; 120 V
Name: Fluazifop
Class: Herbicide; Transformation_product
Formula: C15H12F3NO4
Exact mass: 327.0718
SMILES: CC(C(=O)O)Oc1ccc(cc1)Oc2ccc(cn2)C(F)(F)F
InChI: InChI=1S/C15H12F3NO4/c1-9(14(20)21)22-11-3-5-12(6-4-11)23-13-7-2-10(8-19-13)15(16,17)18/h2-9H,1H3,(H,20,21)
Instrument: TripleTOF 6600 SCIEX
Instrument type: LC-ESI-QTOF
Ms type: MS2
Ion mode: POSITIVE
Collision energy: 120
Fragmentation mode: CID
Ionization: ESI
Column name: Zorbax Eclipse Plus C18 2.1 mm x 150 mm, 3.5 um, Agilent
Retention time: 11.668 min
Precursor m/z: 328.0791
Precursor type: [M+H]+
m/z	relative intensity
36	34
37.008	149
38.0157	139
39.0235	564
43.0187	19
49.0076	129
50.0157	509
51.0053	104
51.0234	744
52.0189	79
52.0311	39
53.0027	24
53.0387	49
55.0195	24
56.0061	29
57.014	84
60	24
61.0078	134
62.0156	299
63.0235	944
64.0312	84
65.0388	309
66.0473	49
68.995	479
69.0141	24
70.0214	164
73.0077	29
74.0155	289
75.0048	999
75.0226	154
76.0187	274
76.0308	59
77.0263	39
77.0388	499
78.0337	204
78.9971	24
79.0414	19
80.0054	44
81.0136	64
81.0343	74
82.0085	24
83.0289	39
85.0065	24
86.015	69
87.0229	124
88.0143	39
88.0305	74
89.0388	94
90.0342	19
91.0426	39
91.0548	34
92.9949	59
96.0259	39
97.032	39
98.0161	54
99.0046	304
99.0225	34
99.9996	34
100.0126	139
101.0201	79
101.0402	74
102.0466	114
103.0538	69
104.0502	29
105.013	29
106.0085	29
106.0206	24
107.0151	29
107.0298	69
108.0253	19
110.0139	29
111.0223	34
113.0387	224
114.0331	54
114.0449	29
115.0543	24
117.0135	34
119.0101	124
120.0371	24
122.0154	109
123.0109	39
123.0224	84
124.0176	34
125.0195	64
126.0148	209
127.0227	54
128.0496	104
129.0444	39
129.0568	24
131.0283	99
131.0507	34
132.0364	44
133.0448	64
138.0316	29
140.0497	119
141.0576	29
143.0281	19
144.0387	19
146.0216	59
148.0549	19
149.0191	19
150.0317	34
151.0347	129
158.0409	39
159.0491	19
161.0183	29
162.0276	44
164.0328	19
176.0314	24
177.0352	29
182.0352	29
196.0355	19
