Mass spectrum: Fluconazole; LC-ESI-QTOF; MS2; 40 V
Name: Fluconazole
Class: Pharmaceutical
Formula: C13H12F2N6O
Exact mass: 306.1041
SMILES: OC(Cn1cncn1)(Cn2cncn2)c3ccc(F)cc3F
InChI: InChI=1S/C13H12F2N6O/c14-10-1-2-11(12(15)3-10)13(22,4-20-8-16-6-18-20)5-21-9-17-7-19-21/h1-3,6-9,22H,4-5H2
Instrument: TripleTOF 5600 SCIEX
Instrument type: LC-ESI-QTOF
Ms type: MS2
Ion mode: POSITIVE
Collision energy: 40
Fragmentation mode: CID
Ionization: ESI
Column name: Zorbax Eclipse Plus C18 2.1 mm x 150 mm, 3.5 um, Agilent
Retention time: 6.343 min
Precursor m/z: 307.1113
Precursor type: [M+H]+
m/z	relative intensity
55.0231	15
55.0331	10
70.0433	386
74.0175	12
75.0264	30
82.0419	23
83.0492	10
99.0225	25
101.022	15
101.0382	229
107.0291	12
113.0224	18
119.0289	72
121.0444	386
121.0646	15
127.0354	545
129.0441	56
139.0346	623
141.0157	77
141.0504	303
145.0444	30
146.0378	15
147.0351	28
149.0413	36
151.0355	530
153.04	23
164.0425	15
166.0461	90
169.0461	772
173.0504	92
177.0434	12
193.0561	46
200.0619	164
220.0685	999
238.0785	630
