Mass spectrum: Metaflumizone; LC-ESI-QTOF; MS2; 70 V
Name: Metaflumizone
Class: Insecticide; Pharmaceutical
Formula: C24H16F6N4O2
Exact mass: 506.1177
SMILES: C1=CC(=CC(=C1)C(F)(F)F)C(=NNC(=O)NC2=CC=C(C=C2)OC(F)(F)F)CC3=CC=C(C=C3)C#N
InChI: InChI=1S/C24H16F6N4O2/c25-23(26,27)18-3-1-2-17(13-18)21(12-15-4-6-16(14-31)7-5-15)33-34-22(35)32-19-8-10-20(11-9-19)36-24(28,29)30/h1-11,13H,12H2,(H2,32,34,35)
Instrument: TripleTOF 6600 SCIEX
Instrument type: LC-ESI-QTOF
Ms type: MS2
Ion mode: POSITIVE
Collision energy: 70
Fragmentation mode: CID
Ionization: ESI
Column name: Zorbax Eclipse Plus C18 2.1 mm x 150 mm, 3.5 um, Agilent
Retention time: 15.496 min
Precursor m/z: 507.125
Precursor type: [M+H]+
m/z	relative intensity
63.0225	22
65.0387	77
66.0465	10
75.0232	12
80.0488	13
89.0384	279
90.0341	18
90.0469	10
92.0492	284
93.0331	19
93.057	196
95.0291	25
108.0439	61
114.0339	18
115.0419	18
116.0494	999
123.0356	13
128.0487	28
129.0441	10
141.0444	27
142.0519	31
145.0247	11
151.0351	35
159.042	34
164.0302	46
164.0617	14
165.0694	9
171.0412	20
172.0359	57
176.0316	72
177.0389	29
178.0473	624
190.0647	237
191.0723	134
192.0671	10
193.044	28
200.0497	58
201.0566	11
202.0647	17
203.0726	48
204.0801	50
212.0444	15
213.0506	18
216.0673	29
217.0754	96
218.0839	786
219.047	49
219.0914	18
220.0552	240
221.0597	33
227.0598	38
228.0573	18
233.0562	71
234.0681	11
239.053	91
240.0617	242
246.0592	36
247.0666	705
248.067	14
250.0452	11
252.0626	23
253.0592	15
258.0518	28
259.0585	11
260.0671	47
265.0579	18
266.065	35
267.0733	652
270.0516	34
271.0595	13
272.07	15
273.0636	58
286.0714	129
287.0799	321
288.0872	26
