Mass spectrum: Fluazifop-P-butyl; LC-ESI-QTOF; MS2; 40 V
Name: Fluazifop-P-butyl
Class: Herbicide
Formula: C19H20F3NO4
Exact mass: 383.1344
SMILES: CCCCOC(=O)C(C)OC1=CC=C(C=C1)OC2=NC=C(C=C2)C(F)(F)F
InChI: InChI=1S/C19H20F3NO4/c1-3-4-11-25-18(24)13(2)26-15-6-8-16(9-7-15)27-17-10-5-14(12-23-17)19(20,21)22/h5-10,12-13H,3-4,11H2,1-2H3
Instrument: TripleTOF 6600 SCIEX
Instrument type: LC-ESI-QTOF
Ms type: MS2
Ion mode: POSITIVE
Collision energy: 40
Fragmentation mode: CID
Ionization: ESI
Column name: Zorbax Eclipse Plus C18 2.1 mm x 150 mm, 3.5 um, Agilent
Retention time: 15.933 min
Precursor m/z: 384.1417
Precursor type: [M+H]+
m/z	relative intensity
41.0385	13
57.0697	12
65.0381	19
91.0536	287
93.0326	11
119.0481	50
121.0274	12
146.02	12
147.0279	16
164.0304	21
198.0516	10
213.0769	10
218.0402	13
226.0816	19
227.0538	92
236.0658	14
238.0466	335
254.0679	603
255.0486	119
256.057	103
264.0628	13
282.0728	999
328.0785	159
384.1392	10
