Mass spectrum: Theophylline; LC-ESI-QTOF; MS2; 60 V
Name: Theophylline
Class: Pharmaceutical
Formula: C7H8N4O2
Exact mass: 180.0647
SMILES: CN1C2=C(C(=O)N(C1=O)C)NC=N2
InChI: InChI=1S/C7H8N4O2/c1-10-5-4(8-3-9-5)6(12)11(2)7(10)13/h3H,1-2H3,(H,8,9)
Instrument: TripleTOF 5600 SCIEX
Instrument type: LC-ESI-QTOF
Ms type: MS2
Ion mode: POSITIVE
Collision energy: 60
Fragmentation mode: CID
Ionization: ESI
Column name: Zorbax Eclipse Plus C18 2.1 mm x 150 mm, 3.5 um, Agilent
Retention time: 4.936 min
Precursor m/z: 181.072
Precursor type: [M+H]+
m/z	relative intensity
42.0429	999
53.0193	26
53.0294	13
54.026	133
54.0397	28
55.0357	26
66.0274	13
67.0327	62
68.0415	33
69.0478	373
81.0466	20
82.0195	31
94.0397	44
95.0239	18
96.0548	28
109.0276	81
121.0481	15
124.05	18
