Mass spectrum: Icaridin; LC-ESI-QTOF; MS2; 40 V
Name: Icaridin
Class: Insecticide
Formula: C12H23NO3
Exact mass: 229.1678
SMILES: CCC(C)OC(=O)N1CCCCC1CCO
InChI: InChI=1S/C12H23NO3/c1-3-10(2)16-12(15)13-8-5-4-6-11(13)7-9-14/h10-11,14H,3-9H2,1-2H3
Instrument: TripleTOF 6600 SCIEX
Instrument type: LC-ESI-QTOF
Ms type: MS2
Ion mode: POSITIVE
Collision energy: 40
Fragmentation mode: CID
Ionization: ESI
Column name: Zorbax Eclipse Plus C18 2.1 mm x 150 mm, 3.5 um, Agilent
Retention time: 10.188 min
Precursor m/z: 230.1751
Precursor type: [M+H]+
m/z	relative intensity
30.0328	22
39.0219	27
41.0375	70
43.053	25
44.0481	42
53.0367	12
55.0529	233
56.0482	100
57.0321	22
57.0686	45
65.037	37
67.0528	627
69.0683	72
70.0634	102
71.0476	271
77.0368	22
80.06	12
83.0829	22
84.0793	386
91.0521	22
93.0679	97
95.0838	512
112.1101	353
113.0939	95
128.0685	153
130.121	999
156.0986	25
