Mass spectrum: Itraconazole; LC-ESI-QTOF; MS2; 40 V
Name: Itraconazole
Class: Pharmaceutical
Formula: C35H38Cl2N8O4
Exact mass: 704.2393
SMILES: CCC(C)N1C(=O)N(C=N1)C2=CC=C(C=C2)N3CCN(CC3)C4=CC=C(C=C4)OCC5COC(O5)(CN6C=NC=N6)C7=C(C=C(C=C7)Cl)Cl
InChI: InChI=1S/C35H38Cl2N8O4/c1-3-25(2)45-34(46)44(24-40-45)29-7-5-27(6-8-29)41-14-16-42(17-15-41)28-9-11-30(12-10-28)47-19-31-20-48-35(49-31,21-43-23-38-22-39-43)32-13-4-26(36)18-33(32)37/h4-13,18,22-25,31H,3,14-17,19-21H2,1-2H3
Instrument: TripleTOF 5600 SCIEX
Instrument type: LC-ESI-QTOF
Ms type: MS2
Ion mode: POSITIVE
Collision energy: 40
Fragmentation mode: CID
Ionization: ESI
Column name: Zorbax Eclipse Plus C18 2.1 mm x 150 mm, 3.5 um, Agilent
Retention time: 13.565 min
Precursor m/z: 705.2466
Precursor type: [M+H]+
m/z	relative intensity
174.088	11
256.0114	23
335.1483	46
348.1758	28
376.1784	40
376.2042	11
377.2172	11
378.2227	23
392.2061	167
394.1823	23
394.2275	11
404.2448	28
420.2289	17
432.2383	63
432.2585	11
450.2458	63
450.2713	23
705.2479	999
