Mass spectrum: Tributylmethylammonium; LC-ESI-QTOF; MS2; 20 V
Name: Tributylmethylammonium
Formula: [C13H30N]+
Exact mass: 200.2373
SMILES: CCCC[N+](C)(CCCC)CCCC
InChI: InChI=1S/C13H30N/c1-5-8-11-14(4,12-9-6-2)13-10-7-3/h5-13H2,1-4H3/q+1
Instrument: TripleTOF 5600 SCIEX
Instrument type: LC-ESI-QTOF
Ms type: MS2
Ion mode: POSITIVE
Collision energy: 20
Fragmentation mode: CID
Ionization: ESI
Column name: Zorbax Eclipse Plus C18 2.1 mm x 150 mm, 3.5 um, Agilent
Retention time: 7.009 min
Precursor m/z: 200.2373
Precursor type: [M]+
m/z	relative intensity
57.0754	51
58.0705	63
88.1126	195
100.112	707
142.1579	511
144.1738	999
200.2373	788
200.2479	285
