Mass spectrum: Disperse Red 1; LC-ESI-QTOF; MS2; 50 V
Name: Disperse Red 1
Formula: C16H18N4O3
Exact mass: 314.1379
SMILES: CCN(CCO)C1=CC=C(C=C1)N=NC2=CC=C(C=C2)[N+](=O)[O-]
InChI: InChI=1S/C16H18N4O3/c1-2-19(11-12-21)15-7-3-13(4-8-15)17-18-14-5-9-16(10-6-14)20(22)23/h3-10,21H,2,11-12H2,1H3
Instrument: TripleTOF X500R SCIEX
Instrument type: LC-ESI-QTOF
Ms type: MS2
Ion mode: POSITIVE
Collision energy: 50
Fragmentation mode: CID
Ionization: ESI
Column name: Zorbax Eclipse Plus C18 2.1 mm x 150 mm, 3.5 um, Agilent
Retention time: 12.973 min
Precursor m/z: 315.1452
Precursor type: [M+H]+
m/z	relative intensity
64.0315	17
65.0387	17
75.0235	196
76.0313	158
77.0387	35
79.0545	28
80.0503	21
91.0552	28
92.0265	267
92.0491	91
93.0575	24
93.0696	31
94.0669	17
103.0546	31
104.0494	66
105.0567	260
106.0657	510
107.073	17
108.0817	24
117.0576	49
118.0639	84
119.0607	302
120.0812	200
122.0243	372
130.066	21
132.0798	126
133.0852	84
134.097	999
136.0757	66
140.0347	45
145.0759	56
147.0727	14
147.0926	506
149.0682	24
150.0304	439
150.0915	21
152.0621	21
163.0851	17
178.1109	31
180.0848	24
181.0919	21
182.0859	14
209.095	334
209.1357	24
237.1276	28
238.1364	17
255.0892	612
269.1558	35
284.1264	21
