Mass spectrum: Ranitidine-N-oxide; LC-ESI-QTOF; MS2; 120 V
Name: Ranitidine-N-oxide
Class: Pharmaceutical; Transformation_product
Formula: C13H22N4O4S
Exact mass: 330.1362
SMILES: CNC(/NCCSCc1oc(C[N+](C)(C)[O-])cc1)=C\[N+]([O-])=O
InChI: InChI=1S/C13H22N4O4S/c1-14-13(8-16(18)19)15-6-7-22-10-12-5-4-11(21-12)9-17(2,3)20/h4-5,8,14-15H,6-7,9-10H2,1-3H3/b13-8+
Instrument: TripleTOF 5600 SCIEX
Instrument type: LC-ESI-QTOF
Ms type: MS2
Ion mode: POSITIVE
Collision energy: 120
Fragmentation mode: CID
Ionization: ESI
Column name: Zorbax Eclipse Plus C18 2.1 mm x 150 mm, 3.5 um, Agilent
Retention time: 4.879 min
Precursor m/z: 331.1435
Precursor type: [M+H]+
m/z	relative intensity
39.0309	38
51.0283	230
52.0368	48
53.0454	528
54.039	67
55.0463	76
56.0539	307
57.0498	144
58.9978	86
59.006	67
60.0046	38
65.0426	182
66.0495	76
67.0494	86
68.0529	134
68.9825	38
70.0677	38
77.0407	999
78.0362	105
78.047	86
79.0558	115
80.051	163
81.0353	662
81.0625	48
82.0534	211
83.0626	57
89.0394	76
91.0552	144
92.0488	67
93.0588	76
94.0418	57
94.0648	57
95.061	48
96.0677	134
97.0108	76
97.0761	307
97.0955	38
102.0366	201
104.0497	144
105.036	57
106.0633	57
107.0493	96
107.06	57
109.0784	38
117.0548	67
118.0659	57
119.0591	57
129.0493	48
132.0443	105
