Mass spectrum: Oleyltrimethylammonium; LC-ESI-QTOF; MS2; 120 V
Name: Oleyltrimethylammonium
Formula: [C21H44N]+
Exact mass: 310.3468
SMILES: CCCCCCCCC=CCCCCCCCC[N+](C)(C)C
InChI: InChI=1S/C21H44N/c1-5-6-7-8-9-10-11-12-13-14-15-16-17-18-19-20-21-22(2,3)4/h12-13H,5-11,14-21H2,1-4H3/q+1
Instrument: TripleTOF 6600 SCIEX
Instrument type: LC-ESI-QTOF
Ms type: MS2
Ion mode: POSITIVE
Collision energy: 120
Fragmentation mode: CID
Ionization: ESI
Column name: Zorbax Eclipse Plus C18 2.1 mm x 150 mm, 3.5 um, Agilent
Retention time: 13.666 min
Precursor m/z: 310.3468
Precursor type: [M]+
m/z	relative intensity
39.0233	461
41.0394	204
42.0347	179
44.0496	999
45.0578	153
58.0655	384
