Mass spectrum: 4-Acetamidobenzoic acid; LC-ESI-QTOF; MS2; 70 V
Name: 4-Acetamidobenzoic acid
Class: Pharmaceutical
Formula: C9H9NO3
Exact mass: 179.0582
SMILES: CC(=O)NC1=CC=C(C=C1)C(=O)O
InChI: InChI=1S/C9H9NO3/c1-6(11)10-8-4-2-7(3-5-8)9(12)13/h2-5H,1H3,(H,10,11)(H,12,13)
Instrument: TripleTOF 6600 SCIEX
Instrument type: LC-ESI-QTOF
Ms type: MS2
Ion mode: POSITIVE
Collision energy: 70
Fragmentation mode: CID
Ionization: ESI
Column name: Zorbax Eclipse Plus C18 2.1 mm x 150 mm, 3.5 um, Agilent
Retention time: 5.59 min
Precursor m/z: 180.0655
Precursor type: [M+H]+
m/z	relative intensity
39.0228	154
41.0387	40
43.0177	332
50.0152	211
51.0228	999
60.9858	81
65.0381	129
66.0465	97
77.0383	454
92.0493	56
93.0569	105
