Mass spectrum: 2-(5-Chloro-2-methoxyphenyl)-1H-benzimidazole; LC-ESI-QTOF; MS2; 90 V
Name: 2-(5-Chloro-2-methoxyphenyl)-1H-benzimidazole
Class: Pharmaceutical
Formula: C14H11ClN2O
Exact mass: 258.056
SMILES: COc1ccc(cc1c2[nH]c3ccccc3n2)Cl
InChI: InChI=1S/C14H11ClN2O/c1-18-13-7-6-9(15)8-10(13)14-16-11-4-2-3-5-12(11)17-14/h2-8H,1H3,(H,16,17)
Instrument: TripleTOF 5600 SCIEX
Instrument type: LC-ESI-QTOF
Ms type: MS2
Ion mode: POSITIVE
Collision energy: 90
Fragmentation mode: CID
Ionization: ESI
Column name: Zorbax Eclipse Plus C18 2.1 mm x 150 mm, 3.5 um, Agilent
Retention time: 7.374 min
Precursor m/z: 259.0633
Precursor type: [M+H]+
m/z	relative intensity
52.0233	14
64.0338	62
65.0439	641
66.0367	14
73.006	14
74.0194	57
75.0265	286
75.0677	14
76.0213	62
76.0389	20
77.0427	999
77.0808	17
78.0365	48
78.0489	20
87.0256	14
88.0328	17
89.0414	28
90.0363	392
91.0431	137
92.0503	143
92.0695	11
99.0229	22
100.0189	14
101.0392	208
101.0638	28
102.0349	420
103.0427	71
103.0562	28
104.0508	54
113.039	22
114.0367	45
115.0423	62
117.0557	20
118.0518	42
119.0599	40
125.0379	83
126.0322	20
126.0466	197
126.0776	14
127.054	807
128.0518	346
129.0462	291
130.0386	45
130.0639	31
131.0605	80
140.0491	65
141.0573	11
142.0529	114
143.0603	62
152.0502	257
153.0574	372
154.0439	14
154.065	320
155.0602	203
164.0514	14
165.045	17
166.0508	14
168.0688	34
178.0514	25
179.06	770
180.0678	363
181.0757	317
215.0359	11
