Mass spectrum: Benodanil; LC-ESI-QTOF; MS2; 90 V
Name: Benodanil
Class: Fungicide
Formula: C13H10INO
Exact mass: 322.9807
SMILES: C1=CC=C(C=C1)NC(=O)C2=CC=CC=C2I
InChI: InChI=1S/C13H10INO/c14-12-9-5-4-8-11(12)13(16)15-10-6-2-1-3-7-10/h1-9H,(H,15,16)
Instrument: TripleTOF 6600 SCIEX
Instrument type: LC-ESI-QTOF
Ms type: MS2
Ion mode: POSITIVE
Collision energy: 90
Fragmentation mode: CID
Ionization: ESI
Column name: Zorbax Eclipse Plus C18 2.1 mm x 150 mm, 3.5 um, Agilent
Retention time: 11.052 min
Precursor m/z: 323.988
Precursor type: [M+H]+
m/z	relative intensity
49.0065	76
50.0145	531
51.0219	51
74.014	30
75.0213	34
76.03	999
77.0373	100
104.0246	34
150.0443	10
151.0539	19
177.0561	14
202.9337	139
230.9324	21
