Mass spectrum: Trihexyltetradecylphosphonium; LC-ESI-QTOF; MS2; 110 V
Name: Trihexyltetradecylphosphonium
Formula: [C32H68P]+
Exact mass: 483.5053
SMILES: CCCCCCCCCCCCCC[P+](CCCCCC)(CCCCCC)CCCCCC
InChI: InChI=1S/C32H68P/c1-5-9-13-17-18-19-20-21-22-23-24-28-32-33(29-25-14-10-6-2,30-26-15-11-7-3)31-27-16-12-8-4/h5-32H2,1-4H3/q+1
Instrument: TripleTOF 5600 SCIEX
Instrument type: LC-ESI-QTOF
Ms type: MS2
Ion mode: POSITIVE
Collision energy: 110
Fragmentation mode: CID
Ionization: ESI
Column name: Zorbax Eclipse Plus C18 2.1 mm x 150 mm, 3.5 um, Agilent
Retention time: 17.125 min
Precursor m/z: 483.5053
Precursor type: [M]+
m/z	relative intensity
39.024	59
41.0395	121
43.0552	108
43.9821	51
45.9975	167
48.0129	97
55.0549	138
56.9893	119
59.0051	167
61.0204	467
62.0281	622
69.0698	48
73.0201	102
74.0283	55
75.0358	563
76.0435	999
87.035	55
88.0426	93
89.0503	248
90.0585	295
101.0509	106
102.0594	61
103.0666	263
115.0668	153
116.0753	53
117.0823	282
129.0823	114
131.0981	223
143.0976	87
145.1139	231
157.1142	95
159.1305	310
171.13	78
173.1457	184
185.1451	99
187.1617	204
199.1643	51
201.1782	250
213.1776	89
215.1933	99
229.2094	197
243.225	99
257.2432	76
271.2553	150
285.2747	55
313.3031	97
