Mass spectrum: Mesosulfuron-methyl; LC-ESI-QTOF; MS2; 110 V
Name: Mesosulfuron-methyl
Class: Herbicide
Formula: C17H21N5O9S2
Exact mass: 503.0781
SMILES: COC(=O)c1ccc(CN[S](C)(=O)=O)cc1[S](=O)(=O)NC(=O)Nc2nc(OC)cc(OC)n2
InChI: InChI=1S/C17H21N5O9S2/c1-29-13-8-14(30-2)20-16(19-13)21-17(24)22-33(27,28)12-7-10(9-18-32(4,25)26)5-6-11(12)15(23)31-3/h5-8,18H,9H2,1-4H3,(H2,19,20,21,22,24)
Instrument: TripleTOF 5600 SCIEX
Instrument type: LC-ESI-QTOF
Ms type: MS2
Ion mode: NEGATIVE
Collision energy: 110
Fragmentation mode: CID
Ionization: ESI
Column name: Zorbax Eclipse Plus C18 2.1 mm x 150 mm, 3.5 um, Agilent
Retention time: 10.025 min
Precursor m/z: 502.0708
Precursor type: [M-H]-
m/z	relative intensity
42.0019	867
61.9729	150
63.9641	999
65.0141	169
65.9997	772
78.9735	169
78.9853	376
90.0108	75
93.9994	113
105.9589	56
107.011	320
122.0361	263
139.0402	188
154.0624	207
180.9867	301
209.0028	659
