Mass spectrum: 2-Phenyl-1H-benzimidazol-4-amine; LC-ESI-QTOF; MS2; 80 V
Name: 2-Phenyl-1H-benzimidazol-4-amine
Class: Pharmaceutical
Formula: C13H11N3
Exact mass: 209.0953
SMILES: C1=CC=C(C=C1)C2=NC3=C(N2)C=CC=C3N
InChI: InChI=1S/C13H11N3/c14-10-7-4-8-11-12(10)16-13(15-11)9-5-2-1-3-6-9/h1-8H,14H2,(H,15,16)
Instrument: TripleTOF 5600 SCIEX
Instrument type: LC-ESI-QTOF
Ms type: MS2
Ion mode: POSITIVE
Collision energy: 80
Fragmentation mode: CID
Ionization: ESI
Column name: Zorbax Eclipse Plus C18 2.1 mm x 150 mm, 3.5 um, Agilent
Retention time: 5.276 min
Precursor m/z: 210.1026
Precursor type: [M+H]+
m/z	relative intensity
54.045	26
65.0436	25
67.0486	17
75.028	10
76.0341	17
77.0437	223
78.0393	115
79.0468	78
80.0549	999
87.0263	12
89.0421	93
90.0384	20
90.0481	17
91.0502	15
104.0526	57
105.0462	123
106.0537	23
107.0616	18
113.0409	67
114.0363	15
115.0549	36
127.0536	25
128.0643	10
137.0407	12
138.0468	10
139.0544	78
140.0493	67
164.0505	59
166.0661	18
191.0616	15
192.0694	18
