Mass spectrum: N-Ethylcyclohexylamine; LC-ESI-QTOF; MS2; 70 V
Name: N-Ethylcyclohexylamine
Formula: C8H17N
Exact mass: 127.1361
SMILES: CCNC1CCCCC1
InChI: InChI=1S/C8H17N/c1-2-9-8-6-4-3-5-7-8/h8-9H,2-7H2,1H3
Instrument: TripleTOF 6600 SCIEX
Instrument type: LC-ESI-QTOF
Ms type: MS2
Ion mode: POSITIVE
Collision energy: 70
Fragmentation mode: CID
Ionization: ESI
Column name: Zorbax Eclipse Plus C18 2.1 mm x 150 mm, 3.5 um, Agilent
Retention time: 4.828 min
Precursor m/z: 128.1434
Precursor type: [M+H]+
m/z	relative intensity
35.9997	43
37.008	380
38.0036	58
38.0152	296
39.0233	999
41.0389	113
53.0123	18
53.0384	24
55.0538	22
