Mass spectrum: Dimethenamid-ESA; LC-ESI-QTOF; MS2; 110 V
Name: Dimethenamid-ESA
Class: Transformation_product; Herbicide; Metabolite
Formula: C12H19NO5S2
Exact mass: 321.0705
SMILES: CC1=CSC(=C1N(C(C)COC)C(=O)CS(=O)(=O)O)C
InChI: InChI=1S/C12H19NO5S2/c1-8-6-19-10(3)12(8)13(9(2)5-18-4)11(14)7-20(15,16)17/h6,9H,5,7H2,1-4H3,(H,15,16,17)
Instrument: TripleTOF 6600 SCIEX
Instrument type: LC-ESI-QTOF
Ms type: MS2
Ion mode: POSITIVE
Collision energy: 110
Fragmentation mode: CID
Ionization: ESI
Column name: Zorbax Eclipse Plus C18 2.1 mm x 150 mm, 3.5 um, Agilent
Retention time: 7.036 min
Precursor m/z: 322.0778
Precursor type: [M+H]+
m/z	relative intensity
37.0074	67
38.015	80
39.0231	513
41.0389	256
42.0344	94
43.0178	229
44.9798	553
45.0336	216
50.0156	148
51.0229	377
53.0387	432
54.0346	67
55.0543	67
57.9876	121
58.995	432
59.9903	148
63.0233	161
64.0309	94
65.0384	783
66.0459	229
67.0427	80
67.0535	229
68.9796	229
69.9864	67
70.995	269
77.0382	999
78.0335	229
78.0472	242
79.0428	67
79.0549	256
80.0501	702
84.0039	94
85.01	108
85.9703	67
89.0387	202
90.0468	161
91.0417	256
91.0543	675
92.0492	188
93.057	418
94.0646	755
96.0033	80
97.0103	729
103.0536	54
104.049	472
105.0568	161
105.0685	54
106.0652	404
107.0732	108
109.0106	134
110.0185	94
111.0262	364
112.0211	80
115.0538	80
117.0573	580
118.0647	715
119.0725	148
122.0075	54
123.0131	121
124.0212	175
126.0372	364
132.0816	80
134.0183	188
136.0211	432
137.0272	80
138.0376	67
148.0214	80
150.0368	229
152.0158	134
