Mass spectrum: N-Isopropyl-N'-phenyl-p-phenylenediamine; LC-ESI-QTOF; MS2; 130 V
Name: N-Isopropyl-N'-phenyl-p-phenylenediamine
Class: Industrial_process
Formula: C15H18N2
Exact mass: 226.147
SMILES: CC(C)Nc1ccc(cc1)Nc2ccccc2
InChI: InChI=1S/C15H18N2/c1-12(2)16-14-8-10-15(11-9-14)17-13-6-4-3-5-7-13/h3-12,16-17H,1-2H3
Instrument: TripleTOF 6600 SCIEX
Instrument type: LC-ESI-QTOF
Ms type: MS2
Ion mode: POSITIVE
Collision energy: 130
Fragmentation mode: CID
Ionization: ESI
Column name: Zorbax Eclipse Plus C18 2.1 mm x 150 mm, 3.5 um, Agilent
Retention time: 7.24 min
Precursor m/z: 227.1543
Precursor type: [M+H]+
m/z	relative intensity
35.9988	38
37.0068	382
38.002	21
38.0148	278
39.0224	999
41.0249	38
42.0341	38
49.0068	60
50.0145	556
51.0221	813
52.018	109
52.0297	60
53.038	736
54.0326	158
59.9993	32
61.0063	234
62.0141	442
63.022	709
64.0172	70
64.0264	27
65.0369	169
73.0063	21
74.0145	267
75.0089	27
75.0224	152
76.0181	27
76.0298	32
77.0374	201
78.0316	70
78.0443	27
80.0486	442
85.0068	49
86.0141	114
87.0214	120
88.0181	32
89.0368	218
90.0427	38
98.0131	76
101.0356	32
102.0453	43
113.0367	76
114.0363	27
115.0525	38
126.0441	54
127.049	43
128.0567	43
137.0357	38
139.0515	65
140.0477	65
164.0448	27
