Mass spectrum: Diatrizoate; LC-ESI-QTOF; MS2; 40 V
Name: Diatrizoate
Class: Pharmaceutical
Formula: C11H9I3N2O4
Exact mass: 613.7697
InChI: InChI=1S/C11H9I3N2O4/c1-3(17)15-9-6(12)5(11(19)20)7(13)10(8(9)14)16-4(2)18/h1-2H3,(H,15,17)(H,16,18)(H,19,20)
Instrument: TripleTOF 5600 SCIEX
Instrument type: LC-ESI-QTOF
Ms type: CID
Ion mode: POSITIVE
Collision energy: 40
Ionization: ESI
Column name: Zorbax Eclipse Plus C18 2.1 mm x 150 mm, 3.5 um, Agilent
Retention time: 4.549 min
Precursor m/z: 614.7769
Precursor type: [M+H]+
m/z	relative intensity
192.0538	30
233.0559	513
318.9545	28
342.96	10
360.9691	999
