Mass spectrum: Amitriptyline; LC-ESI-QTOF; MS2; 50 V
Name: Amitriptyline
Class: Pharmaceutical
Formula: C20H23N
Exact mass: 277.183
SMILES: CN(C)CCC=C1C2=CC=CC=C2CCC3=CC=CC=C31
InChI: InChI=1S/C20H23N/c1-21(2)15-7-12-20-18-10-5-3-8-16(18)13-14-17-9-4-6-11-19(17)20/h3-6,8-12H,7,13-15H2,1-2H3
Instrument: TripleTOF 6600 SCIEX
Instrument type: LC-ESI-QTOF
Ms type: MS2
Ion mode: POSITIVE
Collision energy: 50
Fragmentation mode: CID
Ionization: ESI
Column name: Zorbax Eclipse Plus C18 2.1 mm x 150 mm, 3.5 um, Agilent
Retention time: 8.708 min
Precursor m/z: 278.1903
Precursor type: [M+H]+
m/z	relative intensity
42.0339	13
58.0651	51
65.0385	53
70.0649	30
77.0387	94
79.0541	104
84.0807	95
91.0545	999
103.054	109
105.0699	497
115.0543	382
116.0616	13
117.07	513
127.054	72
128.0619	121
129.0699	185
141.0699	87
152.0619	20
153.0698	83
154.0777	38
155.0848	117
165.0696	91
177.0698	10
178.0779	508
179.0855	160
189.07	140
190.0777	224
191.0856	740
192.0934	98
193.1007	24
202.0776	254
203.0861	815
204.0937	259
205.1013	132
215.0853	75
216.0936	43
217.1017	369
218.1094	188
