Mass spectrum: Clarithromycin; LC-ESI-QTOF; MS2; 120 V
Name: Clarithromycin
Class: Pharmaceutical
Formula: C38H69NO13
Exact mass: 747.4769
SMILES: CC[C@H]1OC(=O)[C@H](C)[C@@H](O[C@H]2C[C@@](C)(OC)[C@@H](O)[C@H](C)O2)[C@H](C)[C@@H](O[C@@H]3O[C@H](C)C[C@@H]([C@H]3O)N(C)C)[C@@](C)(C[C@@H](C)C(=O)[C@H](C)[C@@H](O)[C@]1(C)O)OC
InChI: InChI=1S/C38H69NO13/c1-15-26-38(10,45)31(42)21(4)28(40)19(2)17-37(9,47-14)33(52-35-29(41)25(39(11)12)16-20(3)48-35)22(5)30(23(6)34(44)50-26)51-27-18-36(8,46-13)32(43)24(7)49-27/h19-27,29-33,35,41-43,45H,15-18H2,1-14H3/t19-,20-,21+,22+,23-,24+,25+,26-,27+,29-,30+,31-,32+,33-,35+,36-,37-,38-/m1/s1
Instrument: TripleTOF 5600 SCIEX
Instrument type: LC-ESI-QTOF
Ms type: MS2
Ion mode: POSITIVE
Collision energy: 120
Fragmentation mode: CID
Ionization: ESI
Column name: Zorbax Eclipse Plus C18 2.1 mm x 150 mm, 3.5 um, Agilent
Retention time: 8.861 min
Precursor m/z: 748.4842
Precursor type: [M+H]+
m/z	relative intensity
43.0242	26
45.0394	49
55.0585	202
57.0608	22
59.0538	76
70.0674	26
72.0835	428
73.0556	19
79.0567	22
81.0721	38
83.0509	999
83.0849	15
84.084	126
87.045	107
87.0678	15
88.076	122
98.0595	19
98.0965	398
100.0745	15
113.0606	15
116.0696	164
116.1074	91
123.0792	38
128.1045	15
158.1155	91
