Mass spectrum: Thiamethoxam; LC-ESI-QTOF; MS2; 60 V
Name: Thiamethoxam
Class: Insecticide
Formula: C8H10ClN5O3S
Exact mass: 291.0193
SMILES: CN1COCN(Cc2sc(Cl)nc2)/C1=N/[N+]([O-])=O
InChI: InChI=1S/C8H10ClN5O3S/c1-12-4-17-5-13(8(12)11-14(15)16)3-6-2-10-7(9)18-6/h2H,3-5H2,1H3/b11-8+
Instrument: TripleTOF 5600 SCIEX
Instrument type: LC-ESI-QTOF
Ms type: MS2
Ion mode: POSITIVE
Collision energy: 60
Fragmentation mode: CID
Ionization: ESI
Column name: Zorbax Eclipse Plus C18 2.1 mm x 150 mm, 3.5 um, Agilent
Retention time: 6.188 min
Precursor m/z: 292.0266
Precursor type: [M+H]+
m/z	relative intensity
54.0414	23
67.0457	141
69.0487	183
70.9972	301
79.0315	29
81.048	106
81.0591	29
82.9854	47
83.9919	70
87.9965	41
94.0521	47
95.0607	29
98.0062	165
99.0007	35
108.0559	744
111.0011	53
112.0128	35
113.0171	29
118.9596	35
122.0716	171
123.0773	47
124.0087	106
125.016	153
131.9669	999
132.9744	41
138.0127	82
151.0195	88
152.0267	277
154.0427	23
165.0269	35
181.0517	59
