Mass spectrum: Nitrendipine; LC-ESI-QTOF; MS2; 140 V
Name: Nitrendipine
Class: Pharmaceutical
Formula: C18H20N2O6
Exact mass: 360.1321
SMILES: CCOC(=O)C1=C(NC(=C(C1C2=CC(=CC=C2)[N+](=O)[O-])C(=O)OC)C)C
InChI: InChI=1S/C18H20N2O6/c1-5-26-18(22)15-11(3)19-10(2)14(17(21)25-4)16(15)12-7-6-8-13(9-12)20(23)24/h6-9,16,19H,5H2,1-4H3
Instrument: TripleTOF 5600 SCIEX
Instrument type: LC-ESI-QTOF
Ms type: MS2
Ion mode: POSITIVE
Collision energy: 140
Fragmentation mode: CID
Ionization: ESI
Column name: Zorbax Eclipse Plus C18 2.1 mm x 150 mm, 3.5 um, Agilent
Retention time: 12.373 min
Precursor m/z: 361.1394
Precursor type: [M+H]+
m/z	relative intensity
65.046	115
67.0237	403
74.0198	144
75.0293	201
76.0369	134
77.043	701
78.049	144
86.0212	67
87.026	134
88.0323	115
89.0417	489
91.0583	76
98.0209	57
99.0254	96
101.0402	124
102.0486	172
104.051	105
106.065	57
113.0385	230
114.0433	124
115.0547	605
116.0473	48
125.0412	48
126.0479	345
127.0548	451
128.06	211
137.0393	134
138.0485	105
139.0535	999
140.0505	249
141.0675	48
150.0473	278
151.0548	566
152.0622	854
153.0547	57
154.0593	57
163.0569	96
164.0486	211
166.0651	182
167.073	105
177.0548	67
178.0663	105
180.0812	96
