Mass spectrum: Warfarin; LC-ESI-QTOF; MS2; 150 V
Name: Warfarin
Class: Pesticide
Formula: C19H16O4
Exact mass: 308.1049
SMILES: CC(=O)CC(C1=CC=CC=C1)C2=C(C3=CC=CC=C3OC2=O)O
InChI: InChI=1S/C19H16O4/c1-12(20)11-15(13-7-3-2-4-8-13)17-18(21)14-9-5-6-10-16(14)23-19(17)22/h2-10,15,21H,11H2,1H3
Instrument: TripleTOF 6600 SCIEX
Instrument type: LC-ESI-QTOF
Ms type: MS2
Ion mode: POSITIVE
Collision energy: 150
Fragmentation mode: CID
Ionization: ESI
Column name: Zorbax Eclipse Plus C18 2.1 mm x 150 mm, 3.5 um, Agilent
Retention time: 11.631 min
Precursor m/z: 309.1122
Precursor type: [M+H]+
m/z	relative intensity
35.9986	74
37.0075	350
38.0151	340
39.0228	999
41.0025	31
43.0177	191
49.0064	79
50.0149	600
51.0227	908
53.0021	132
61.0078	74
62.0153	164
63.0226	185
65.0389	138
68.9987	26
73.0073	74
74.0146	494
75.023	185
76.0325	58
77.0385	233
78.0454	21
85.0053	47
86.0147	53
87.0227	58
89.0384	58
98.0129	143
99.0218	58
102.0459	63
110.0129	37
113.0413	53
115.0539	31
122.0132	58
125.0378	26
126.0467	69
139.0525	37
149.0372	31
150.0458	228
151.0555	58
161.0362	47
162.0435	31
163.0534	100
174.0454	63
175.0552	26
176.0598	26
