Mass spectrum: 2-Hydroxybenzophenone; LC-ESI-QTOF; MS2; 40 V
Name: 2-Hydroxybenzophenone
Class: Personal_care_product
Formula: C13H10O2
Exact mass: 198.0681
SMILES: Oc1ccccc1C(=O)c2ccccc2
InChI: InChI=1S/C13H10O2/c14-12-9-5-4-8-11(12)13(15)10-6-2-1-3-7-10/h1-9,14H
Instrument: TripleTOF 5600 SCIEX
Instrument type: LC-ESI-QTOF
Ms type: MS2
Ion mode: POSITIVE
Collision energy: 40
Fragmentation mode: CID
Ionization: ESI
Column name: Zorbax Eclipse Plus C18 2.1 mm x 150 mm, 3.5 um, Agilent
Retention time: 13.03 min
Precursor m/z: 199.0754
Precursor type: [M+H]+
m/z	relative intensity
65.0427	437
77.0404	280
93.0351	338
105.0337	104
121.0282	999
152.0625	20
