Mass spectrum: Antipyrine; LC-ESI-QTOF; MS2; 90 V
Name: Antipyrine
Class: Pharmaceutical
Formula: C11H12N2O
Exact mass: 188.095
SMILES: CN1N(C(=O)C=C1C)c2ccccc2
InChI: InChI=1S/C11H12N2O/c1-9-8-11(14)13(12(9)2)10-6-4-3-5-7-10/h3-8H,1-2H3
Instrument: TripleTOF 5600 SCIEX
Instrument type: LC-ESI-QTOF
Ms type: MS2
Ion mode: POSITIVE
Collision energy: 90
Fragmentation mode: CID
Ionization: ESI
Column name: Zorbax Eclipse Plus C18 2.1 mm x 150 mm, 3.5 um, Agilent
Retention time: 6.261 min
Precursor m/z: 189.1022
Precursor type: [M+H]+
m/z	relative intensity
42.0513	62
51.0288	999
52.0355	33
54.0412	33
56.0541	441
65.0414	187
66.0533	28
74.0169	67
75.0251	48
76.0316	24
77.0401	792
78.0481	24
89.0395	158
91.0537	57
102.0478	48
104.0494	33
115.0525	43
117.0603	24
130.0627	24
131.0636	28
