Mass spectrum: Flumioxazin; LC-ESI-QTOF; MS2; 100 V
Name: Flumioxazin
Class: Herbicide; Fungicide
Formula: C19H15FN2O4
Exact mass: 354.1016
SMILES: C#CCN1c2cc(c(cc2OCC1=O)F)N3C(=O)C4=C(C3=O)CCCC4
InChI: InChI=1S/C19H15FN2O4/c1-2-7-21-15-9-14(13(20)8-16(15)26-10-17(21)23)22-18(24)11-5-3-4-6-12(11)19(22)25/h1,8-9H,3-7,10H2
Instrument: TripleTOF 6600 SCIEX
Instrument type: LC-ESI-QTOF
Ms type: MS2
Ion mode: POSITIVE
Collision energy: 100
Fragmentation mode: CID
Ionization: ESI
Column name: Zorbax Eclipse Plus C18 2.1 mm x 150 mm, 3.5 um, Agilent
Retention time: 11.704 min
Precursor m/z: 355.1089
Precursor type: [M+H]+
m/z	relative intensity
39.0226	66
51.022	399
57.013	66
69.0086	133
70.0194	66
74.0142	66
75.0218	333
76.0176	199
77.0374	999
79.0528	333
81.0116	133
83.028	66
88.0171	133
89.038	66
95.0288	66
96.0228	333
99.0228	66
101.0389	266
107.0263	399
108.0225	199
114.0325	66
115.0531	66
120.034	133
121.0307	66
122.0394	66
123.0377	66
124.0178	266
128.0489	133
129.0412	133
133.0432	66
134.0395	66
135.0459	266
139.0532	66
145.0319	66
146.0385	66
146.0516	66
148.0508	133
151.0303	66
152.0124	66
152.053	333
153.0429	199
154.0637	66
158.0383	66
165.0632	133
173.0571	66
179.027	266
179.0634	66
189.0423	133
191.0709	66
195.047	66
