Mass spectrum: Flutamide; LC-ESI-QTOF; MS2; 150 V
Name: Flutamide
Class: Pharmaceutical
Formula: C11H11F3N2O3
Exact mass: 276.0722
SMILES: CC(C)C(=O)NC1=CC(=C(C=C1)[N+](=O)[O-])C(F)(F)F
InChI: InChI=1S/C11H11F3N2O3/c1-6(2)10(17)15-7-3-4-9(16(18)19)8(5-7)11(12,13)14/h3-6H,1-2H3,(H,15,17)
Instrument: TripleTOF 6600 SCIEX
Instrument type: LC-ESI-QTOF
Ms type: MS2
Ion mode: POSITIVE
Collision energy: 150
Fragmentation mode: CID
Ionization: ESI
Column name: Zorbax Eclipse Plus C18 2.1 mm x 150 mm, 3.5 um, Agilent
Retention time: 12.297 min
Precursor m/z: 277.0795
Precursor type: [M+H]+
m/z	relative intensity
30.9974	21
35.9988	63
37.0067	340
38.0025	148
38.0144	191
39.0224	999
40.0066	42
41.0158	42
41.0388	255
42.0362	21
43.0162	21
44.0113	21
51.0023	21
51.0215	85
52.0085	63
52.0162	42
53.0115	63
57.0118	85
59.9993	21
64.0315	21
65.0398	42
68.0033	63
68.9943	42
73.0054	85
74.0145	255
75.0034	85
75.01	42
75.024	42
76.014	21
83.0282	42
89.0395	21
92.0029	42
93.0138	42
99.006	85
