Mass spectrum: Metalaxyl; LC-ESI-QTOF; MS2; 80 V
Name: Metalaxyl
Class: Fungicide
Formula: C15H21NO4
Exact mass: 279.1471
SMILES: CC1=C(C(=CC=C1)C)N(C(C)C(=O)OC)C(=O)COC
InChI: InChI=1S/C15H21NO4/c1-10-7-6-8-11(2)14(10)16(13(17)9-19-4)12(3)15(18)20-5/h6-8,12H,9H2,1-5H3
Instrument: TripleTOF 6600 SCIEX
Instrument type: LC-ESI-QTOF
Ms type: MS2
Ion mode: POSITIVE
Collision energy: 80
Fragmentation mode: CID
Ionization: ESI
Column name: Zorbax Eclipse Plus C18 2.1 mm x 150 mm, 3.5 um, Agilent
Retention time: 10.17 min
Precursor m/z: 280.1543
Precursor type: [M+H]+
m/z	relative intensity
39.0224	13
45.0335	497
50.0149	26
51.0227	108
63.0229	23
65.0382	95
77.0385	738
78.0456	39
79.0543	313
80.05	19
89.038	72
90.0461	128
91.0539	557
93.071	16
102.0459	19
103.0537	276
104.0494	29
104.0614	19
105.0463	13
105.0692	359
106.0644	118
107.0727	32
115.0537	207
116.0491	26
116.0605	32
117.0575	999
118.0648	181
119.0726	69
120.0808	82
127.0549	16
128.0493	32
128.06	23
130.0643	576
131.0726	69
132.0804	336
133.0879	29
134.0611	59
134.0958	164
142.0646	32
143.072	85
144.0803	511
145.0869	39
146.0956	29
148.0751	75
148.1113	23
158.0974	19
