Mass spectrum: 2`-Deoxyinosine; LC-ESI-QTOF; MS2; 90 V
Name: 2`-Deoxyinosine
Class: Natural_product
Formula: C10H12N4O4
Exact mass: 252.0859
SMILES: C1C(C(OC1N2C=NC3=C2NC=NC3=O)CO)O
InChI: InChI=1S/C10H12N4O4/c15-2-6-5(16)1-7(18-6)14-4-13-8-9(14)11-3-12-10(8)17/h3-7,15-16H,1-2H2,(H,11,12,17)
Instrument: TripleTOF 5600 SCIEX
Instrument type: LC-ESI-QTOF
Ms type: MS2
Ion mode: POSITIVE
Collision energy: 90
Fragmentation mode: CID
Ionization: ESI
Column name: Zorbax Eclipse Plus C18 2.1 mm x 150 mm, 3.5 um, Agilent
Retention time: 4.181 min
Precursor m/z: 253.0931
Precursor type: [M+H]+
m/z	relative intensity
45.0442	142
55.0369	999
55.0434	142
60.9928	142
65.0189	428
65.0282	142
67.0365	285
67.0428	142
69.0421	142
73.0298	285
82.0429	570
92.0283	856
94.0412	142
110.0368	428
119.0331	142
119.0416	570
