Mass spectrum: Bentazone; LC-ESI-QTOF; MS2; 40 V
Name: Bentazone
Class: Herbicide
Formula: C10H12N2O3S
Exact mass: 240.0569
SMILES: CC(C)N1C(=O)c2ccccc2NS1(=O)=O
InChI: InChI=1S/C10H12N2O3S/c1-7(2)12-10(13)8-5-3-4-6-9(8)11-16(12,14)15/h3-7,11H,1-2H3
Instrument: TripleTOF 6600 SCIEX
Instrument type: LC-ESI-QTOF
Ms type: MS2
Ion mode: NEGATIVE
Collision energy: 40
Fragmentation mode: CID
Ionization: ESI
Column name: Zorbax Eclipse Plus C18 2.1 mm x 150 mm, 3.5 um, Agilent
Retention time: 9.867 min
Precursor m/z: 239.0496
Precursor type: [M-H]-
m/z	relative intensity
41.9989	14
76.0316	57
77.0393	20
79.957	17
105.0346	69
116.0381	27
117.0462	93
132.0339	999
133.0415	331
175.088	41
195.9946	52
197.0027	141
239.0482	18
