Mass spectrum: Nifedipine; LC-ESI-QTOF; MS2; 40 V
Name: Nifedipine
Class: Pharmaceutical
Formula: C17H18N2O6
Exact mass: 346.1165
SMILES: CC1=C(C(C(=C(N1)C)C(=O)OC)C2=CC=CC=C2[N+](=O)[O-])C(=O)OC
InChI: InChI=1S/C17H18N2O6/c1-9-13(16(20)24-3)15(14(10(2)18-9)17(21)25-4)11-7-5-6-8-12(11)19(22)23/h5-8,15,18H,1-4H3
Instrument: TripleTOF 5600 SCIEX
Instrument type: LC-ESI-QTOF
Ms type: MS2
Ion mode: POSITIVE
Collision energy: 40
Fragmentation mode: CID
Ionization: ESI
Column name: Zorbax Eclipse Plus C18 2.1 mm x 150 mm, 3.5 um, Agilent
Retention time: 10.896 min
Precursor m/z: 347.1238
Precursor type: [M+H]+
m/z	relative intensity
115.0569	103
116.0514	18
117.0581	11
122.0259	82
127.0559	68
128.0578	56
129.0697	35
130.066	23
132.0459	11
139.0556	20
140.0512	59
141.0688	54
142.0669	101
143.0422	10
143.0736	25
144.0465	36
151.0556	22
152.0515	48
153.0588	62
154.0288	12
154.0661	176
155.0688	41
156.0517	11
156.0821	43
166.0663	123
167.0729	231
168.0797	264
169.0769	83
170.0614	160
178.0657	49
179.0613	125
180.0695	121
181.0767	204
182.0836	183
183.0918	229
184.0546	10
184.0751	29
185.0712	19
186.055	22
192.0684	61
193.0763	371
194.084	748
195.0516	12
195.0915	999
196.0535	11
196.0998	285
197.0762	32
197.1068	41
198.0893	22
208.0736	52
209.0719	163
210.0898	96
211.0854	413
212.0939	92
213.0654	43
214.0493	121
218.0803	15
221.071	179
222.0772	176
223.0867	654
224.064	33
224.0902	21
225.08	14
226.0856	325
227.0799	25
228.0885	43
236.0693	28
238.0726	28
239.0813	592
240.1018	17
241.0966	105
246.0759	24
252.0653	27
253.0971	767
254.104	903
255.0749	24
256.0853	39
268.0956	60
270.0767	156
271.1089	56
284.0912	84
315.0982	30
