Mass spectrum: Picoxystrobin; LC-ESI-QTOF; MS2; 140 V
Name: Picoxystrobin
Class: Fungicide
Formula: C18H16F3NO4
Exact mass: 367.1031
SMILES: COC=C(C1=CC=CC=C1COC2=CC=CC(=N2)C(F)(F)F)C(=O)OC
InChI: InChI=1S/C18H16F3NO4/c1-24-11-14(17(23)25-2)13-7-4-3-6-12(13)10-26-16-9-5-8-15(22-16)18(19,20)21/h3-9,11H,10H2,1-2H3
Instrument: TripleTOF 6600 SCIEX
Instrument type: LC-ESI-QTOF
Ms type: MS2
Ion mode: POSITIVE
Collision energy: 140
Fragmentation mode: CID
Ionization: ESI
Column name: Zorbax Eclipse Plus C18 2.1 mm x 150 mm, 3.5 um, Agilent
Retention time: 13.935 min
Precursor m/z: 368.1104
Precursor type: [M+H]+
m/z	relative intensity
37.0081	22
38.0151	17
39.0232	94
49.0071	14
50.0155	281
51.0236	277
52.031	51
59.9989	9
61.0067	41
62.0145	75
63.023	172
65.0384	107
73.0069	32
74.0153	241
75.0231	72
76.0309	658
77.0386	614
78.0466	31
85.0061	12
86.0151	34
87.0233	49
89.0384	101
91.0544	98
101.0377	18
102.0465	999
103.0543	145
105.0448	17
115.0534	164
127.054	13
128.0597	16
