Mass spectrum: Ethyl-N-(3-amino-2-methylphenyl)carbamate; LC-ESI-QTOF; MS2; 80 V
Name: Ethyl-N-(3-amino-2-methylphenyl)carbamate
Class: Industrial_process
Formula: C10H14N2O2
Exact mass: 194.1055
SMILES: CCOC(=O)NC1=CC=CC(=C1C)N
InChI: InChI=1S/C10H14N2O2/c1-3-14-10(13)12-9-6-4-5-8(11)7(9)2/h4-6H,3,11H2,1-2H3,(H,12,13)
Instrument: TripleTOF 5600 SCIEX
Instrument type: LC-ESI-QTOF
Ms type: MS2
Ion mode: POSITIVE
Collision energy: 80
Fragmentation mode: CID
Ionization: ESI
Column name: Zorbax Eclipse Plus C18 2.1 mm x 150 mm, 3.5 um, Agilent
Retention time: 5.082 min
Precursor m/z: 195.1128
Precursor type: [M+H]+
m/z	relative intensity
41.0417	15
42.0474	19
54.0434	43
64.0373	31
65.0447	59
66.0422	11
66.0543	29
67.0509	51
77.0445	999
78.0388	122
79.0471	81
79.0589	75
80.0542	465
81.0621	99
89.0426	25
91.0451	55
92.0514	15
93.0611	43
94.0678	35
104.0511	41
105.0461	95
106.0664	103
107.0631	75
108.0696	87
121.0758	17
