Mass spectrum: 6-Acetylcodeine; LC-ESI-QTOF; MS2; 120 V
Name: 6-Acetylcodeine
Class: Pharmaceutical; Transformation_product
Formula: C20H23NO4
Exact mass: 341.1627
SMILES: CC(=O)OC1C=CC2C3CC4=C5C2(C1OC5=C(C=C4)OC)CCN3C
InChI: InChI=1S/C20H23NO4/c1-11(22)24-16-7-5-13-14-10-12-4-6-15(23-3)18-17(12)20(13,19(16)25-18)8-9-21(14)2/h4-7,13-14,16,19H,8-10H2,1-3H3
Instrument: TripleTOF 5600 SCIEX
Instrument type: LC-ESI-QTOF
Ms type: MS2
Ion mode: POSITIVE
Collision energy: 120
Fragmentation mode: CID
Ionization: ESI
Column name: Zorbax Eclipse Plus C18 2.1 mm x 150 mm, 3.5 um, Agilent
Retention time: 6.207 min
Precursor m/z: 342.17
Precursor type: [M+H]+
m/z	relative intensity
43.0261	132
51.0288	19
65.0418	42
74.0173	23
75.0255	30
76.0334	30
77.0408	198
78.0491	43
87.0244	13
89.0399	124
90.0471	10
91.0551	43
98.0156	11
99.024	10
101.0385	37
102.0465	120
103.0543	25
113.0383	47
114.0457	40
115.0543	535
116.0623	11
118.0409	17
125.0372	30
126.0459	176
127.0537	242
128.0619	218
129.0677	15
131.0484	13
138.0454	14
139.0539	294
140.0602	17
141.069	53
149.0367	14
150.0458	202
151.0538	454
152.0616	999
153.069	88
155.0487	32
162.0454	19
163.0535	260
164.0619	189
165.0693	283
168.0565	15
174.0461	11
175.0535	15
176.0619	108
177.0683	32
178.0767	47
181.0646	29
187.0537	25
188.0604	27
189.0686	102
200.0605	20
202.0765	11
204.0781	10
