Mass spectrum: Spirodiclofen-enol; LC-ESI-QTOF; MS2; 50 V
Name: Spirodiclofen-enol
Formula: C15H14Cl2O3
Exact mass: 312.032
SMILES: C1CCC2(CC1)C(=C(C(=O)O2)C3=C(C=C(C=C3)Cl)Cl)O
InChI: InChI=1S/C15H14Cl2O3/c16-9-4-5-10(11(17)8-9)12-13(18)15(20-14(12)19)6-2-1-3-7-15/h4-5,8,18H,1-3,6-7H2
Instrument: TripleTOF 6600 SCIEX
Instrument type: LC-ESI-QTOF
Ms type: MS2
Ion mode: POSITIVE
Collision energy: 50
Fragmentation mode: CID
Ionization: ESI
Column name: Zorbax Eclipse Plus C18 2.1 mm x 150 mm, 3.5 um, Agilent
Retention time: 12.261 min
Precursor m/z: 313.0393
Precursor type: [M+H]+
m/z	relative intensity
67.0541	31
77.0379	13
79.0535	19
81.0698	17
110.9985	34
122.9975	15
139.0001	41
146.9759	29
149.0133	13
150.0206	12
152.0596	12
156.9596	999
158.9751	341
162.0208	28
165.0686	15
170.9748	23
172.9547	30
174.97	49
175.0284	10
178.0763	74
179.0847	163
182.9743	36
184.9546	553
186.0219	11
188.0381	14
196.9904	17
199.0279	11
202.9623	17
204.0321	36
208.9909	12
212.949	125
213.0449	11
214.052	24
