Mass spectrum: Dexpanthenol; LC-ESI-QTOF; MS2; 20 V
Name: Dexpanthenol
Formula: C9H19NO4
Exact mass: 205.1314
SMILES: CC(C)(CO)C(C(=O)NCCCO)O
InChI: InChI=1S/C9H19NO4/c1-9(2,6-12)7(13)8(14)10-4-3-5-11/h7,11-13H,3-6H2,1-2H3,(H,10,14)
Instrument: TripleTOF 6600 SCIEX
Instrument type: LC-ESI-QTOF
Ms type: MS2
Ion mode: POSITIVE
Collision energy: 20
Fragmentation mode: CID
Ionization: ESI
Column name: Zorbax Eclipse Plus C18 2.1 mm x 150 mm, 3.5 um, Agilent
Retention time: 4.791 min
Precursor m/z: 206.1387
Precursor type: [M+H]+
m/z	relative intensity
43.0172	16
57.0693	11
58.0647	85
59.0484	11
67.0536	19
69.0689	35
74.0228	127
76.0751	999
84.0443	37
85.0636	58
86.059	25
95.0482	59
102.0544	303
103.0744	76
113.0588	24
124.0742	11
142.1212	17
152.1051	17
170.1167	340
188.1273	675
206.1381	996
