Mass spectrum: 1-Palmitoyl-2-glutaryl-sn-glycero-3-phosphocholine; LC-ESI-QTOF; MS2; 110 V
Name: 1-Palmitoyl-2-glutaryl-sn-glycero-3-phosphocholine
Formula: C29H56NO10P
Exact mass: 609.3642
SMILES: CCCCCCCCCCCCCCCC(=O)OCC(COP(=O)([O-])OCC[N+](C)(C)C)OC(=O)CCCC(=O)O
InChI: InChI=1S/C29H56NO10P/c1-5-6-7-8-9-10-11-12-13-14-15-16-17-20-28(33)37-24-26(40-29(34)21-18-19-27(31)32)25-39-41(35,36)38-23-22-30(2,3)4/h26H,5-25H2,1-4H3,(H-,31,32,35,36)
Instrument: TripleTOF 6600 SCIEX
Instrument type: LC-ESI-QTOF
Ms type: MS2
Ion mode: NEGATIVE
Collision energy: 110
Fragmentation mode: CID
Ionization: ESI
Column name: Zorbax Eclipse Plus C18 2.1 mm x 150 mm, 3.5 um, Agilent
Retention time: 15.246 min
Precursor m/z: 608.3569
Precursor type: [M-H]-
m/z	relative intensity
41.0029	431
59.0124	45
62.9628	68
69.0339	703
73.0292	56
78.9579	999
87.0443	45
113.0252	68
122.9851	476
