Mass spectrum: 6-Acetylcodeine; LC-ESI-QTOF; MS2; 40 V
Name: 6-Acetylcodeine
Class: Pharmaceutical; Transformation_product
Formula: C20H23NO4
Exact mass: 341.1627
SMILES: CC(=O)OC1C=CC2C3CC4=C5C2(C1OC5=C(C=C4)OC)CCN3C
InChI: InChI=1S/C20H23NO4/c1-11(22)24-16-7-5-13-14-10-12-4-6-15(23-3)18-17(12)20(13,19(16)25-18)8-9-21(14)2/h4-7,13-14,16,19H,8-10H2,1-3H3
Instrument: TripleTOF 5600 SCIEX
Instrument type: LC-ESI-QTOF
Ms type: MS2
Ion mode: POSITIVE
Collision energy: 40
Fragmentation mode: CID
Ionization: ESI
Column name: Zorbax Eclipse Plus C18 2.1 mm x 150 mm, 3.5 um, Agilent
Retention time: 6.207 min
Precursor m/z: 342.17
Precursor type: [M+H]+
m/z	relative intensity
43.028	22
44.0581	19
58.0708	90
115.054	12
121.0654	10
128.0617	11
137.0587	22
141.0704	27
144.0588	14
146.0604	15
152.0621	36
153.0701	70
154.0775	40
155.0858	37
158.0723	10
159.0802	22
161.0591	31
164.0642	14
165.0704	303
166.0774	45
167.0856	116
168.0566	20
169.0644	16
169.1011	26
171.0802	41
172.0531	10
172.0886	14
175.0755	56
176.0623	16
177.0707	71
178.0787	53
179.0862	75
180.0571	25
181.0655	143
181.1018	11
182.0726	107
183.0806	77
185.0592	24
186.067	21
187.0755	39
189.0701	17
190.0793	19
191.0868	83
192.057	14
192.1004	14
193.0654	133
193.0995	21
194.0728	86
195.0805	106
196.0876	10
197.0611	21
197.0966	232
198.0679	27
199.0755	82
200.0827	16
201.0688	22
201.0912	15
202.0789	14
203.0861	13
205.0671	25
207.0804	66
208.0522	21
208.0877	32
209.0599	95
209.0953	27
210.0679	192
211.0768	38
212.0834	13
213.0912	30
215.107	124
218.0729	14
219.0807	66
220.0875	31
220.1096	15
221.0604	31
221.0962	39
222.0694	23
222.0965	13
223.0757	149
223.1111	12
224.0816	25
225.0918	841
227.0714	11
228.0782	11
235.0757	16
236.0831	67
237.0928	55
238.0977	22
239.1045	16
241.0864	63
241.1203	12
243.102	81
248.1068	17
250.1229	31
251.1075	83
252.1013	34
253.1234	33
266.1183	111
267.125	72
268.1329	11
269.1187	25
282.1496	223
300.1595	51
341.0939	14
342.1705	999
