Mass spectrum: Dimethenamid-OA; LC-ESI-QTOF; MS2; 80 V
Name: Dimethenamid-OA
Class: Transformation_product; Herbicide
Formula: C12H17NO4S
Exact mass: 271.0878
SMILES: Cc1csc(c1N(C(C)COC)C(=O)C(=O)O)C
InChI: InChI=1S/C12H17NO4S/c1-7-6-18-9(3)10(7)13(8(2)5-17-4)11(14)12(15)16/h6,8H,5H2,1-4H3,(H,15,16)
Instrument: TripleTOF 6600 SCIEX
Instrument type: LC-ESI-QTOF
Ms type: MS2
Ion mode: POSITIVE
Collision energy: 80
Fragmentation mode: CID
Ionization: ESI
Column name: Zorbax Eclipse Plus C18 2.1 mm x 150 mm, 3.5 um, Agilent
Retention time: 8.208 min
Precursor m/z: 272.0951
Precursor type: [M+H]+
m/z	relative intensity
39.0235	576
41.0394	384
44.9795	384
45.0342	384
51.0233	384
53.0397	268
58.9949	499
59.99	230
65.0389	999
66.0472	268
67.0433	268
67.0539	537
70.996	268
77.0384	768
78.0476	345
79.0541	230
80.0499	422
91.0541	384
92.0497	268
93.0573	614
94.0654	883
97.0102	691
99.0256	153
104.0513	307
105.0568	307
111.0261	653
117.0579	153
123.0125	153
126.036	576
136.0212	192
