Mass spectrum: Fluxapyroxad; LC-ESI-QTOF; MS2; 80 V
Name: Fluxapyroxad
Class: Fungicide
Formula: C18H12F5N3O
Exact mass: 381.0901
SMILES: Cn1cc(c(n1)C(F)F)C(=O)Nc2ccccc2c3cc(c(c(c3)F)F)F
InChI: InChI=1S/C18H12F5N3O/c1-26-8-11(16(25-26)17(22)23)18(27)24-14-5-3-2-4-10(14)9-6-12(19)15(21)13(20)7-9/h2-8,17H,1H3,(H,24,27)
Instrument: TripleTOF 6600 SCIEX
Instrument type: LC-ESI-QTOF
Ms type: MS2
Ion mode: NEGATIVE
Collision energy: 80
Fragmentation mode: CID
Ionization: ESI
Column name: Zorbax Eclipse Plus C18 2.1 mm x 150 mm, 3.5 um, Agilent
Retention time: 12.239 min
Precursor m/z: 380.0828
Precursor type: [M-H]-
m/z	relative intensity
40.0189	45
41.9983	75
48.0004	45
49.0081	79
50.0036	307
63.0233	182
64.0182	18
65.0134	72
68.0061	30
91.0296	999
111.0355	37
150.0333	22
160.0192	26
180.0245	41
200.0311	155
220.0369	106
