Mass spectrum: Formononetin; LC-ESI-QTOF; MS2; 140 V
Name: Formononetin
Class: Metabolite; Metabolite; Pharmaceutical
Formula: C16H12O4
Exact mass: 268.0736
SMILES: COc1ccc(cc1)C2=COc3cc(O)ccc3C2=O
InChI: InChI=1S/C16H12O4/c1-19-12-5-2-10(3-6-12)14-9-20-15-8-11(17)4-7-13(15)16(14)18/h2-9,17H,1H3
Instrument: TripleTOF 5600 SCIEX
Instrument type: LC-ESI-QTOF
Ms type: MS2
Ion mode: POSITIVE
Collision energy: 140
Fragmentation mode: CID
Ionization: ESI
Column name: Zorbax Eclipse Plus C18 2.1 mm x 150 mm, 3.5 um, Agilent
Retention time: 10.093 min
Precursor m/z: 269.0808
Precursor type: [M+H]+
m/z	relative intensity
53.0069	28
60.0056	93
62.0633	20
64.0357	76
65.0425	161
69.003	64
73.0097	44
74.0179	537
75.0253	222
75.048	24
76.033	64
77.0415	173
78.0508	32
85.0097	48
86.0169	129
86.0294	24
87.0245	145
88.0344	36
89.0406	999
89.0807	24
90.0487	28
98.015	145
99.0231	44
102.0487	56
102.0609	20
110.0136	24
113.0395	117
114.0475	32
115.0545	226
122.0155	36
125.0375	28
126.0471	64
127.0579	24
137.0361	20
138.0468	24
139.0539	226
139.0802	24
149.0378	28
150.0455	141
151.0557	48
