Mass spectrum: Leucomalachite green; LC-ESI-QTOF; MS2; 90 V
Name: Leucomalachite green
Class: Metabolite
Formula: C23H26N2
Exact mass: 330.2096
SMILES: CN(C)C1=CC=C(C=C1)C(C2=CC=CC=C2)C3=CC=C(C=C3)N(C)C
InChI: InChI=1S/C23H26N2/c1-24(2)21-14-10-19(11-15-21)23(18-8-6-5-7-9-18)20-12-16-22(17-13-20)25(3)4/h5-17,23H,1-4H3
Instrument: TripleTOF 6600 SCIEX
Instrument type: LC-ESI-QTOF
Ms type: MS2
Ion mode: POSITIVE
Collision energy: 90
Fragmentation mode: CID
Ionization: ESI
Column name: Zorbax Eclipse Plus C18 2.1 mm x 150 mm, 3.5 um, Agilent
Retention time: 9.974 min
Precursor m/z: 331.2169
Precursor type: [M+H]+
m/z	relative intensity
77.038	28
91.0529	24
115.0529	61
117.0559	13
118.0645	17
120.0793	26
127.0526	30
128.0613	35
129.0681	13
130.0625	10
139.0523	39
141.0682	50
144.0799	13
150.0447	10
151.0533	61
152.061	518
153.0688	645
154.0773	39
155.0844	32
156.0807	19
163.0536	41
164.0602	120
165.0688	999
166.0761	215
167.0737	129
168.0788	28
170.0962	17
176.0607	13
177.0547	13
178.0649	63
179.0718	111
180.0801	566
181.0881	204
182.0947	100
189.0685	19
190.068	13
191.0713	37
192.0788	92
193.0882	127
194.0955	862
195.103	245
196.1113	212
197.1196	43
202.0784	59
206.0818	43
207.091	142
208.0992	241
209.107	70
213.0691	10
215.0838	72
221.1066	48
222.1137	26
223.1223	799
224.1298	43
225.073	13
226.0775	54
227.0843	39
228.0915	81
229.1019	21
230.0996	10
239.0846	81
239.1551	28
240.09	37
241.0968	76
242.0955	19
243.1036	13
253.0876	13
254.0957	72
255.1026	26
256.1117	48
257.1191	17
258.1352	13
268.1095	41
269.1097	19
270.1251	50
283.1219	28
284.1316	13
299.1534	19
