Mass spectrum: Boscalid; LC-ESI-QTOF; MS2; 120 V
Name: Boscalid
Class: Fungicide
Formula: C18H12Cl2N2O
Exact mass: 342.0327
SMILES: C1=CC=C(C(=C1)C2=CC=C(C=C2)Cl)NC(=O)C3=C(N=CC=C3)Cl
InChI: InChI=1S/C18H12Cl2N2O/c19-13-9-7-12(8-10-13)14-4-1-2-6-16(14)22-18(23)15-5-3-11-21-17(15)20/h1-11H,(H,22,23)
Instrument: TripleTOF 6600 SCIEX
Instrument type: LC-ESI-QTOF
Ms type: MS2
Ion mode: POSITIVE
Collision energy: 120
Fragmentation mode: CID
Ionization: ESI
Column name: Zorbax Eclipse Plus C18 2.1 mm x 150 mm, 3.5 um, Agilent
Retention time: 12.31 min
Precursor m/z: 343.04
Precursor type: [M+H]+
m/z	relative intensity
49.0073	196
50.0149	597
51.0229	767
52.0181	80
61.9793	62
62.0155	53
63.0218	71
74.0149	142
75.01	374
75.022	89
76.0181	999
77.0389	62
78.033	285
84.983	187
86.015	44
87.022	80
89.0375	44
98.0145	89
99.0218	44
100.0304	44
102.0461	53
111.0207	53
111.9946	71
112.0284	44
113.0378	115
114.0344	44
115.0533	71
122.0168	44
123.0216	44
124.031	35
125.0383	35
126.045	133
137.0347	107
139.0538	169
140.05	115
149.0375	169
150.0457	419
151.0528	231
152.0609	71
161.0369	80
162.0463	80
163.0533	330
164.0488	98
164.061	35
165.0667	35
173.0378	98
174.0444	231
175.0418	169
176.059	89
177.0547	133
186.0449	89
187.0531	570
188.0515	374
189.0634	276
190.0641	124
197.036	71
198.0454	205
199.0486	205
200.0601	205
201.0549	133
202.0629	35
212.0484	240
213.0553	205
214.0639	651
215.066	160
216.0803	44
223.0405	80
224.0485	62
225.0551	214
226.0627	44
227.0688	53
239.0583	98
240.0657	222
241.0755	151
242.0807	71
252.0642	62
