Mass spectrum: Boscalid; LC-ESI-QTOF; MS2; 80 V
Name: Boscalid
Class: Fungicide
Formula: C18H12Cl2N2O
Exact mass: 342.0327
SMILES: C1=CC=C(C(=C1)C2=CC=C(C=C2)Cl)NC(=O)C3=C(N=CC=C3)Cl
InChI: InChI=1S/C18H12Cl2N2O/c19-13-9-7-12(8-10-13)14-4-1-2-6-16(14)22-18(23)15-5-3-11-21-17(15)20/h1-11H,(H,22,23)
Instrument: TripleTOF 6600 SCIEX
Instrument type: LC-ESI-QTOF
Ms type: MS2
Ion mode: POSITIVE
Collision energy: 80
Fragmentation mode: CID
Ionization: ESI
Column name: Zorbax Eclipse Plus C18 2.1 mm x 150 mm, 3.5 um, Agilent
Retention time: 12.31 min
Precursor m/z: 343.04
Precursor type: [M+H]+
m/z	relative intensity
49.0075	21
50.0148	96
51.0225	232
52.0187	25
61.9787	42
75.0096	82
76.0179	605
78.0335	476
84.9837	71
102.0446	17
111.9945	386
113.002	28
113.0379	32
114.01	17
114.0334	25
114.0463	17
115.0551	17
126.046	25
139.0556	25
139.9906	14
140.0485	64
141.0446	14
141.0565	17
142.0535	25
150.045	64
151.0536	107
152.0606	161
163.0533	46
164.0541	46
165.0692	42
166.0644	42
167.0603	17
167.0754	17
168.0674	28
175.0528	35
176.0478	28
176.0613	46
177.0569	153
178.0653	21
179.0598	17
187.0555	46
188.0574	71
189.0689	239
190.0643	161
191.0751	32
198.0485	25
199.0539	96
200.0613	168
201.0614	150
202.0663	78
203.0707	82
204.0788	35
214.0643	307
215.0719	193
216.0804	257
217.0807	78
218.089	14
224.052	17
225.057	175
226.0642	204
227.0724	204
228.08	139
229.0739	39
239.0599	28
240.0665	82
241.0757	247
242.0839	999
243.0914	311
244.0819	17
244.0963	39
251.0597	53
252.0665	100
253.0768	196
254.0799	46
269.0702	46
270.0781	136
271.0862	218
272.0939	17
305.0471	17
