Mass spectrum: Dodecyl dihydrogen phosphate; LC-ESI-QTOF; MS2; 70 V
Name: Dodecyl dihydrogen phosphate
Formula: C12H27O4P
Exact mass: 266.1647
InChI: InChI=1S/C12H27O4P/c1-2-3-4-5-6-7-8-9-10-11-12-16-17(13,14)15/h2-12H2,1H3,(H2,13,14,15)
Ms type: Q
Ion mode: NEGATIVE
Collision energy: 70
Ionization: ESI
Retention time: 13.899 min
Precursor m/z: 265.1574
Precursor type: [M-H]-
m/z	relative intensity
62.9642	41
78.9597	999
