Mass spectrum: Prednisolone; LC-ESI-QTOF; MS2; 110 V
Name: Prednisolone
Class: Pharmaceutical
Formula: C21H28O5
Exact mass: 360.1937
SMILES: C[C@]12C[C@H](O)[C@H]3[C@@H](CCC4=CC(=O)C=C[C@]34C)[C@@H]1CC[C@]2(O)C(=O)CO
InChI: InChI=1S/C21H28O5/c1-19-7-5-13(23)9-12(19)3-4-14-15-6-8-21(26,17(25)11-22)20(15,2)10-16(24)18(14)19/h5,7,9,14-16,18,22,24,26H,3-4,6,8,10-11H2,1-2H3/t14-,15-,16-,18+,19-,20-,21-/m0/s1
Instrument: TripleTOF 5600 SCIEX
Instrument type: LC-ESI-QTOF
Ms type: MS2
Ion mode: POSITIVE
Collision energy: 110
Fragmentation mode: CID
Ionization: ESI
Column name: Zorbax Eclipse Plus C18 2.1 mm x 150 mm, 3.5 um, Agilent
Retention time: 8.432 min
Precursor m/z: 361.201
Precursor type: [M+H]+
m/z	relative intensity
43.0242	31
51.028	57
55.0592	22
65.0423	279
67.0578	31
75.026	17
77.0411	999
78.0489	102
79.0557	173
81.072	26
89.0397	48
91.0557	790
91.0892	26
93.0712	35
102.0457	66
103.0545	222
104.0638	53
105.0694	84
107.049	71
115.0545	754
116.0611	53
117.0707	53
119.0854	22
121.0649	195
126.0479	48
127.0545	257
128.0623	666
129.0697	168
130.0785	31
131.0486	284
131.0853	17
132.0564	88
139.0549	79
140.0626	22
141.0705	217
142.0784	17
144.0595	35
145.0663	35
151.0549	106
152.0625	390
153.0709	124
155.0863	17
157.0654	115
158.0704	17
163.0525	35
164.0614	53
165.0703	501
166.0783	66
167.0857	17
176.0618	93
177.0702	84
178.0782	350
179.0844	66
181.0653	133
188.0603	35
189.0702	350
190.0793	44
191.0848	62
194.0716	35
195.0812	26
201.0749	44
202.0787	168
203.087	35
205.0668	48
207.0807	39
213.0666	22
215.09	84
218.0741	22
226.0787	39
227.0878	26
231.0794	22
