Mass spectrum: N-Ethylcyclohexylamine; LC-ESI-QTOF; MS2; 40 V
Name: N-Ethylcyclohexylamine
Formula: C8H17N
Exact mass: 127.1361
SMILES: CCNC1CCCCC1
InChI: InChI=1S/C8H17N/c1-2-9-8-6-4-3-5-7-8/h8-9H,2-7H2,1H3
Instrument: TripleTOF 6600 SCIEX
Instrument type: LC-ESI-QTOF
Ms type: MS2
Ion mode: POSITIVE
Collision energy: 40
Fragmentation mode: CID
Ionization: ESI
Column name: Zorbax Eclipse Plus C18 2.1 mm x 150 mm, 3.5 um, Agilent
Retention time: 4.828 min
Precursor m/z: 128.1434
Precursor type: [M+H]+
m/z	relative intensity
37.008	46
38.0032	13
38.015	41
39.0234	431
41.0388	311
43.0548	11
46.0649	56
53.0385	39
55.0545	999
83.0845	45
