Mass spectrum: Terbutrynesulfoxide; LC-ESI-QTOF; MS2; 110 V
Name: Terbutrynesulfoxide
Class: Transformation_product
Formula: C10H19N5OS
Exact mass: 257.131
SMILES: CCNC1=NC(=NC(=N1)S(=O)C)NC(C)(C)C
InChI: InChI=1S/C10H19N5OS/c1-6-11-7-12-8(15-10(2,3)4)14-9(13-7)17(5)16/h6H2,1-5H3,(H2,11,12,13,14,15)
Instrument: TripleTOF 5600 SCIEX
Instrument type: LC-ESI-QTOF
Ms type: MS2
Ion mode: POSITIVE
Collision energy: 110
Fragmentation mode: CID
Ionization: ESI
Column name: Zorbax Eclipse Plus C18 2.1 mm x 150 mm, 3.5 um, Agilent
Retention time: 8.816 min
Precursor m/z: 258.1383
Precursor type: [M+H]+
m/z	relative intensity
41.0268	38
42.0353	44
42.0498	15
43.0425	410
44.0593	31
44.9922	23
47.0025	11
53.0214	50
54.043	11
55.0385	23
56.0463	15
57.9829	81
67.037	29
68.0319	999
69.0153	384
69.036	19
69.0482	44
70.0483	33
71.0664	21
71.996	25
74.0095	13
84.99	219
94.0456	15
