Mass spectrum: Oxymetazoline; LC-ESI-QTOF; MS2; 40 V
Name: Oxymetazoline
Class: Pharmaceutical
Formula: C16H24N2O
Exact mass: 260.1889
SMILES: Cc1cc(c(c(c1CC2=NCCN2)C)O)C(C)(C)C
InChI: InChI=1S/C16H24N2O/c1-10-8-13(16(3,4)5)15(19)11(2)12(10)9-14-17-6-7-18-14/h8,19H,6-7,9H2,1-5H3,(H,17,18)
Instrument: TripleTOF 5600 SCIEX
Instrument type: LC-ESI-QTOF
Ms type: MS2
Ion mode: POSITIVE
Collision energy: 40
Fragmentation mode: CID
Ionization: ESI
Column name: Zorbax Eclipse Plus C18 2.1 mm x 150 mm, 3.5 um, Agilent
Retention time: 7.429 min
Precursor m/z: 261.1961
Precursor type: [M+H]+
m/z	relative intensity
44.0595	132
57.0764	116
71.0645	13
77.0422	25
79.0569	37
84.0707	39
85.0785	66
91.0562	76
93.0714	27
103.0547	13
105.0706	92
107.0859	43
115.0543	16
117.0703	15
119.0866	67
121.0653	70
121.1008	58
128.0627	17
131.0839	12
133.0645	15
133.1021	61
135.0809	264
135.1155	28
136.0883	47
137.0965	24
143.0854	33
145.099	13
146.0739	12
147.0814	15
147.116	23
148.1255	21
149.0958	144
149.131	14
158.1089	20
159.0831	11
160.0873	21
161.0966	166
162.0934	13
163.112	12
163.1477	41
171.0913	10
172.0993	18
173.133	13
174.0905	21
175.1061	52
176.1185	23
177.128	127
185.1062	23
186.1173	14
187.1241	27
188.1052	58
189.1126	35
191.1442	87
201.1381	75
203.1173	46
204.1259	19
205.1345	780
213.1374	12
216.1363	20
217.1346	52
218.1413	90
227.1545	48
228.1626	15
229.1713	14
231.1497	232
243.1871	18
245.1649	69
246.1733	30
261.1971	999
