Mass spectrum: Carbamazepine; LC-ESI-QTOF; MS2; 80 V
Name: Carbamazepine
Class: Pharmaceutical
Formula: C15H12N2O
Exact mass: 236.095
SMILES: NC(=O)N1c2ccccc2C=Cc3ccccc13
InChI: InChI=1S/C15H12N2O/c16-15(18)17-13-7-3-1-5-11(13)9-10-12-6-2-4-8-14(12)17/h1-10H,(H2,16,18)
Instrument: TripleTOF 5600 SCIEX
Instrument type: LC-ESI-QTOF
Ms type: MS2
Ion mode: POSITIVE
Collision energy: 80
Fragmentation mode: CID
Ionization: ESI
Column name: Zorbax Eclipse Plus C18 2.1 mm x 150 mm, 3.5 um, Agilent
Retention time: 8.87 min
Precursor m/z: 237.1022
Precursor type: [M+H]+
m/z	relative intensity
64.0376	11
65.0429	45
74.0193	23
75.0255	32
76.0338	21
77.0423	64
78.0479	11
87.0242	14
89.0406	310
90.0474	74
91.0557	28
98.0159	12
99.0218	12
100.0295	14
101.039	37
102.0471	57
113.0384	70
114.0407	33
115.0545	199
116.0495	22
117.0564	32
125.039	42
126.0476	97
127.042	11
127.0548	33
128.0505	104
129.0523	15
137.0397	25
138.0457	39
139.0547	393
140.0503	236
141.0671	16
149.0409	25
150.0461	244
151.0546	454
152.0619	285
153.0579	78
162.0462	29
163.0548	526
164.0611	489
165.0698	681
166.0655	275
167.073	161
176.0567	53
177.0581	212
178.0654	282
179.0722	56
188.0476	29
189.0588	108
190.0655	683
191.0736	999
192.0819	277
193.0871	42
