Mass spectrum: Tris(4-methylphenyl) phosphate; LC-ESI-QTOF; MS2; 40 V
Name: Tris(4-methylphenyl) phosphate
Class: Industrial_process
Formula: C21H21O4P
Exact mass: 368.1177
SMILES: CC1=CC=C(C=C1)OP(=O)(OC2=CC=C(C=C2)C)OC3=CC=C(C=C3)C
InChI: InChI=1S/C21H21O4P/c1-16-4-10-19(11-5-16)23-26(22,24-20-12-6-17(2)7-13-20)25-21-14-8-18(3)9-15-21/h4-15H,1-3H3
Instrument: TripleTOF 6600 SCIEX
Instrument type: LC-ESI-QTOF
Ms type: MS2
Ion mode: POSITIVE
Collision energy: 40
Fragmentation mode: CID
Ionization: ESI
Column name: Zorbax Eclipse Plus C18 2.1 mm x 150 mm, 3.5 um, Agilent
Retention time: 15.924 min
Precursor m/z: 369.125
Precursor type: [M+H]+
m/z	relative intensity
65.0378	58
77.0377	12
79.0533	22
91.054	509
107.0486	119
109.0639	22
141.0695	28
152.0614	12
153.0096	26
153.0699	45
165.0708	678
166.0786	999
178.0782	30
179.0862	107
180.0941	28
181.1019	148
189.0315	46
195.081	20
196.0892	124
199.1125	35
215.0641	29
240.0952	10
241.103	93
243.0597	866
255.1189	56
256.1273	170
261.0701	201
279.0815	366
333.1071	21
351.1189	12
369.1306	536
