Mass spectrum: N-[2-[(2-Bromo-4,6-dinitrophenyl)azo]-5-(diethylamino)phenyl]acetamide; LC-ESI-QTOF; MS2; 40 V
Name: N-[2-[(2-Bromo-4,6-dinitrophenyl)azo]-5-(diethylamino)phenyl]acetamide
Formula: [C18H19BrN6O5]-
Exact mass: 478.06
SMILES: CCN(CC)C1=CC(=C(C=C1)N=NC2=C(C=C(C=C2Br)[N+](=O)[O-])[N+](=O)[O-])NC(=O)C
InChI: InChI=1S/C18H19BrN6O5/c1-4-23(5-2)12-6-7-15(16(9-12)20-11(3)26)21-22-18-14(19)8-13(24(27)28)10-17(18)25(29)30/h6-10H,4-5H2,1-3H3,(H,20,26)
Instrument: TripleTOF 6600 SCIEX
Instrument type: LC-ESI-QTOF
Ms type: MS2
Ion mode: NEGATIVE
Collision energy: 40
Fragmentation mode: CID
Ionization: ESI
Column name: Zorbax Eclipse Plus C18 2.1 mm x 150 mm, 3.5 um, Agilent
Retention time: 16.579 min
Precursor m/z: 478.0614
Precursor type: [M]-
m/z	relative intensity
78.9184	793
117.0444	14
120.0075	25
132.0691	14
173.0719	10
186.927	386
199.9331	50
205.1347	32
214.9226	61
215.9287	92
224.1299	29
229.9319	269
230.9381	12
238.0569	28
239.0869	13
244.9162	146
254.0549	85
282.0616	15
298.1221	16
311.1211	16
323.1177	10
324.0717	20
326.1247	44
333.9824	68
349.0065	16
355.1095	11
360.0032	18
361.9891	69
369.0936	22
377.0124	36
378.0449	139
403.9955	237
406.0481	631
419.021	37
434.0006	21
448.0584	999
449.0184	256
478.0569	193
