Mass spectrum: 3-Hydroxyacetaminophen; LC-ESI-QTOF; MS2; 150 V
Name: 3-Hydroxyacetaminophen
Class: Pharmaceutical; Transformation_product
Formula: C8H9NO3
Exact mass: 167.0582
SMILES: CC(=O)Nc1ccc(O)c(O)c1
InChI: InChI=1S/C8H9NO3/c1-5(10)9-6-2-3-7(11)8(12)4-6/h2-4,11-12H,1H3,(H,9,10)
Instrument: TripleTOF 5600 SCIEX
Instrument type: LC-ESI-QTOF
Ms type: MS2
Ion mode: POSITIVE
Collision energy: 150
Fragmentation mode: CID
Ionization: ESI
Column name: Zorbax Eclipse Plus C18 2.1 mm x 150 mm, 3.5 um, Agilent
Retention time: 4.471 min
Precursor m/z: 168.0655
Precursor type: [M+H]+
m/z	relative intensity
40.0262	131
41.0344	62
42.0183	47
42.0436	84
43.027	999
44.0217	127
51.029	445
53.0088	596
54.0431	28
60.0044	696
61.0439	80
62.0495	30
