Mass spectrum: Disperse Orange 61; LC-ESI-QTOF; MS2; 30 V
Name: Disperse Orange 61
Formula: C17H15Br2N5O2
Exact mass: 478.9592
SMILES: CCN(CCC#N)C1=CC=C(C=C1)N=NC2=C(C=C(C=C2Br)[N+](=O)[O-])Br
InChI: InChI=1S/C17H15Br2N5O2/c1-2-23(9-3-8-20)13-6-4-12(5-7-13)21-22-17-15(18)10-14(24(25)26)11-16(17)19/h4-7,10-11H,2-3,9H2,1H3
Instrument: TripleTOF X500R SCIEX
Instrument type: LC-ESI-QTOF
Ms type: MS2
Ion mode: POSITIVE
Collision energy: 30
Fragmentation mode: CID
Ionization: ESI
Column name: Zorbax Eclipse Plus C18 2.1 mm x 150 mm, 3.5 um, Agilent
Retention time: 15.39 min
Precursor m/z: 479.9665
Precursor type: [M+H]+
m/z	relative intensity
120.0811	27
134.0983	12
145.076	22
148.0872	25
173.0825	16
173.1074	11
277.8444	27
305.8523	24
361.031	90
392.9492	12
401.0473	19
410.9093	41
425.9329	49
438.9402	999
439.9478	29
450.9263	10
479.9671	489
