Mass spectrum: Flumequin; LC-ESI-QTOF; MS2; 100 V
Name: Flumequin
Class: Pharmaceutical; Antimicrobial
Formula: C14H12FNO3
Exact mass: 261.0801
SMILES: CC1CCc2cc(F)cc3C(=O)C(=CN1c23)C(O)=O
InChI: InChI=1S/C14H12FNO3/c1-7-2-3-8-4-9(15)5-10-12(8)16(7)6-11(13(10)17)14(18)19/h4-7H,2-3H2,1H3,(H,18,19)
Instrument: TripleTOF 5600 SCIEX
Instrument type: LC-ESI-QTOF
Ms type: MS2
Ion mode: POSITIVE
Collision energy: 100
Fragmentation mode: CID
Ionization: ESI
Column name: Zorbax Eclipse Plus C18 2.1 mm x 150 mm, 3.5 um, Agilent
Retention time: 9.545 min
Precursor m/z: 262.0874
Precursor type: [M+H]+
m/z	relative intensity
51.0287	44
53.0079	75
73.0108	65
74.0185	272
75.0261	409
76.0212	68
81.0164	24
83.0302	27
86.0223	17
92.0105	20
93.0151	124
94.0239	41
95.0307	41
96.0376	20
97.0088	17
98.0167	871
99.0239	999
100.0193	682
105.0148	20
106.0228	20
107.0293	41
119.0289	68
120.0237	17
120.0355	55
125.0399	44
126.0338	79
131.03	58
133.0463	31
144.0384	13
145.0322	37
146.0403	48
147.0399	20
152.0516	27
154.0388	31
172.0563	27
