Mass spectrum: Reserpine; LC-ESI-QTOF; MS2; 90 V
Name: Reserpine
Class: Natural_product; Pharmaceutical
Formula: C33H40N2O9
Exact mass: 608.2734
SMILES: COC1C(CC2CN3CCC4=C(C3CC2C1C(=O)OC)NC5=C4C=CC(=C5)OC)OC(=O)C6=CC(=C(C(=C6)OC)OC)OC
InChI: InChI=1S/C33H40N2O9/c1-38-19-7-8-20-21-9-10-35-16-18-13-27(44-32(36)17-11-25(39-2)30(41-4)26(12-17)40-3)31(42-5)28(33(37)43-6)22(18)15-24(35)29(21)34-23(20)14-19/h7-8,11-12,14,18,22,24,27-28,31,34H,9-10,13,15-16H2,1-6H3
Instrument: TripleTOF 5600 SCIEX
Instrument type: LC-ESI-QTOF
Ms type: MS2
Ion mode: POSITIVE
Collision energy: 90
Fragmentation mode: CID
Ionization: ESI
Column name: Zorbax Eclipse Plus C18 2.1 mm x 150 mm, 3.5 um, Agilent
Retention time: 8.6 min
Precursor m/z: 609.2807
Precursor type: [M+H]+
m/z	relative intensity
65.0436	12
77.0441	76
79.0594	60
81.0382	64
81.0742	24
91.0583	82
92.0288	10
93.0602	10
94.0447	24
94.0689	28
95.0524	22
96.0608	76
103.0579	34
105.0355	10
105.0729	21
106.0447	13
106.0675	19
107.0158	13
107.053	28
108.0594	37
109.0312	19
109.0678	84
111.0467	18
111.0839	17
113.0625	19
115.0567	117
116.0644	30
117.0638	93
118.0677	41
119.0845	10
120.0819	23
121.0299	48
121.0666	28
122.0382	105
123.0461	16
124.0539	149
127.0558	19
128.0625	17
129.0711	38
130.0667	289
131.0747	595
132.0479	14
132.082	67
133.0537	13
134.0379	21
136.0759	12
137.0246	85
137.0595	12
139.0775	170
141.0656	14
142.0668	80
143.0744	396
144.0815	110
145.0527	38
145.0894	29
146.061	65
146.0981	17
147.0778	92
148.0767	43
149.06	18
151.0405	100
152.0478	365
154.0651	41
155.0739	19
156.0808	30
157.0888	27
158.0613	91
159.0689	800
160.0768	128
161.0611	10
161.0831	48
162.0923	28
165.0609	13
167.0712	179
168.0816	26
169.0857	17
170.0604	61
171.0669	21
172.0752	60
173.0845	108
174.092	999
180.0813	19
181.0895	19
182.059	19
183.069	24
184.0759	71
185.0816	47
186.0904	67
187.0995	26
188.1066	34
191.0709	10
192.0787	23
192.1001	20
193.0895	23
194.0946	12
195.0652	532
196.0764	52
197.0828	41
198.0898	60
199.0873	76
200.1036	47
201.1011	15
204.0793	27
204.0999	12
205.0896	28
206.0933	29
207.1059	11
208.0756	29
208.1001	10
209.0867	20
210.0897	55
211.0981	27
212.0982	42
213.1005	24
214.1086	13
217.0895	28
218.0963	36
219.1041	28
220.075	28
221.0839	36
222.0899	72
223.0915	55
224.1039	74
225.1038	21
226.119	16
227.1163	20
230.0959	28
231.102	21
232.0758	26
232.1126	17
233.0841	25
233.12	11
234.0915	66
235.0953	37
236.1001	80
237.1038	53
238.1179	45
239.1162	28
241.0882	10
242.0954	14
244.1098	21
245.1181	15
246.092	63
247.1001	52
248.1045	68
249.1006	67
250.1126	65
251.116	112
252.1214	11
253.131	16
258.0926	25
259.101	20
260.1049	68
261.1132	55
262.12	79
263.1207	27
264.1031	18
264.1249	21
265.1328	52
266.1365	13
272.1028	13
273.1164	26
274.1217	48
275.1152	13
276.1323	43
277.132	15
278.1174	13
288.1056	13
288.1357	14
289.1293	16
290.1416	11
291.1368	17
305.1636	15
306.1095	15
322.1572	10
350.1567	16
365.1791	10
