Mass spectrum: 5-(3,4,5-Trimethoxybenzoyl)-2,4-pyrimidinediamine; LC-ESI-QTOF; MS2; 150 V
Name: 5-(3,4,5-Trimethoxybenzoyl)-2,4-pyrimidinediamine
Class: Pharmaceutical; Transformation_product
Formula: C14H16N4O4
Exact mass: 304.1172
SMILES: COc1cc(cc(c1OC)OC)C(=O)c2cnc(nc2N)N
InChI: InChI=1S/C14H16N4O4/c1-20-9-4-7(5-10(21-2)12(9)22-3)11(19)8-6-17-14(16)18-13(8)15/h4-6H,1-3H3,(H4,15,16,17,18)
Instrument: TripleTOF 5600 SCIEX
Instrument type: LC-ESI-QTOF
Ms type: MS2
Ion mode: POSITIVE
Collision energy: 150
Fragmentation mode: CID
Ionization: ESI
Column name: Zorbax Eclipse Plus C18 2.1 mm x 150 mm, 3.5 um, Agilent
Retention time: 5.86 min
Precursor m/z: 305.1244
Precursor type: [M+H]+
m/z	relative intensity
41.0351	236
43.0388	744
52.0246	381
52.0347	127
53.0093	399
53.0433	127
55.0333	127
65.0169	181
65.0293	108
65.0425	217
66.0124	90
66.0241	163
66.0402	90
67.0306	181
67.0425	127
68.0193	999
68.0363	145
68.9997	90
70.0299	90
74.0184	435
75.0127	254
75.024	363
76.0218	835
77.0421	363
78.0365	399
79.0202	72
79.0443	145
80.0535	72
87.0209	108
88.0206	163
89.0399	236
90.0399	145
92.0273	108
93.0474	108
99.0115	108
100.02	108
102.0307	72
105.0454	145
109.05	72
114.0367	108
120.0578	90
