Mass spectrum: Bosentan; LC-ESI-QTOF; MS2; 140 V
Name: Bosentan
Class: Pharmaceutical
Formula: C27H29N5O6S
Exact mass: 551.1839
SMILES: CC(C)(C)C1=CC=C(C=C1)S(=O)(=O)NC2=C(C(=NC(=N2)C3=NC=CC=N3)OCCO)OC4=CC=CC=C4OC
InChI: InChI=1S/C27H29N5O6S/c1-27(2,3)18-10-12-19(13-11-18)39(34,35)32-23-22(38-21-9-6-5-8-20(21)36-4)26(37-17-16-33)31-25(30-23)24-28-14-7-15-29-24/h5-15,33H,16-17H2,1-4H3,(H,30,31,32)
Instrument: TripleTOF 5600 SCIEX
Instrument type: LC-ESI-QTOF
Ms type: MS2
Ion mode: POSITIVE
Collision energy: 140
Fragmentation mode: CID
Ionization: ESI
Column name: Zorbax Eclipse Plus C18 2.1 mm x 150 mm, 3.5 um, Agilent
Retention time: 12.118 min
Precursor m/z: 552.1911
Precursor type: [M+H]+
m/z	relative intensity
52.0278	68
53.0341	73
54.041	12
64.0368	11
65.0453	237
67.0364	11
68.0432	12
69.0517	12
75.0272	29
76.0356	19
77.0434	268
78.049	74
79.0339	999
79.0585	30
80.0186	12
80.0415	607
81.0469	35
89.0425	68
90.038	27
90.048	16
91.0567	131
92.0291	30
92.052	76
93.0364	146
95.051	21
97.0425	14
102.0358	74
103.0518	25
104.0512	144
105.0395	16
105.0709	21
106.0413	908
107.0492	16
108.055	30
109.0516	12
115.0559	40
116.0502	69
117.0703	22
118.041	11
118.0555	17
119.0618	68
120.0452	204
121.0298	53
130.0436	17
131.0614	38
132.0447	22
134.0526	30
135.0535	14
143.0568	11
144.0466	14
147.066	25
157.0549	16
197.0878	9
