Mass spectrum: 1-Myristoyl-sn-glycero-3-phosphocholine; LC-ESI-QTOF; MS2; 90 V
Name: 1-Myristoyl-sn-glycero-3-phosphocholine
Class: Natural_product
Formula: C22H46NO7P
Exact mass: 467.3012
SMILES: CCCCCCCCCCCCCC(=O)OCC(COP(=O)([O-])OCC[N+](C)(C)C)O
InChI: InChI=1S/C22H46NO7P/c1-5-6-7-8-9-10-11-12-13-14-15-16-22(25)28-19-21(24)20-30-31(26,27)29-18-17-23(2,3)4/h21,24H,5-20H2,1-4H3
Instrument: TripleTOF 6600 SCIEX
Instrument type: LC-ESI-QTOF
Ms type: MS2
Ion mode: POSITIVE
Collision energy: 90
Fragmentation mode: CID
Ionization: ESI
Column name: Zorbax Eclipse Plus C18 2.1 mm x 150 mm, 3.5 um, Agilent
Retention time: 12.658 min
Precursor m/z: 468.3085
Precursor type: [M+H]+
m/z	relative intensity
39.024	15
41.039	42
42.0341	12
43.042	18
43.0545	54
44.0501	48
45.0343	171
45.058	30
55.0546	21
56.0502	174
57.0337	21
57.0703	54
58.0657	99
59.0732	24
60.0812	330
62.9635	30
67.0546	39
70.0656	36
71.0735	696
80.974	156
81.0713	18
86.0968	999
95.0856	15
98.9846	840
104.1072	333
106.9894	15
124.9999	654
166.0635	51
184.0736	18
