Mass spectrum: Napropamide; LC-ESI-QTOF; MS2; 30 V
Name: Napropamide
Class: Herbicide
Formula: C17H21NO2
Exact mass: 271.1572
SMILES: CCN(CC)C(=O)C(C)Oc1cccc2c1cccc2
InChI: InChI=1S/C17H21NO2/c1-4-18(5-2)17(19)13(3)20-16-12-8-10-14-9-6-7-11-15(14)16/h6-13H,4-5H2,1-3H3
Instrument: TripleTOF 6600 SCIEX
Instrument type: LC-ESI-QTOF
Ms type: MS2
Ion mode: POSITIVE
Collision energy: 30
Fragmentation mode: CID
Ionization: ESI
Column name: Zorbax Eclipse Plus C18 2.1 mm x 150 mm, 3.5 um, Agilent
Retention time: 12.596 min
Precursor m/z: 272.1645
Precursor type: [M+H]+
m/z	relative intensity
44.0494	32
57.0331	25
58.0652	345
72.0446	22
72.0668	11
72.0806	205
73.0882	12
74.0961	108
86.0595	22
100.0756	263
100.1106	34
101.0828	94
114.091	426
127.0539	10
128.0613	34
128.1062	76
129.1143	594
143.0847	116
144.0562	11
152.0623	10
153.0688	55
171.0801	999
199.0742	55
