Mass spectrum: Azacyclonol; LC-ESI-QTOF; MS2; 60 V
Name: Azacyclonol
Class: Pharmaceutical
Formula: C18H21NO
Exact mass: 267.1623
SMILES: OC(C1CCNCC1)(C2=CC=CC=C2)C3=CC=CC=C3
InChI: InChI=1S/C18H21NO/c20-18(15-7-3-1-4-8-15,16-9-5-2-6-10-16)17-11-13-19-14-12-17/h1-10,17,19-20H,11-14H2
Instrument: TripleTOF 5600 SCIEX
Instrument type: LC-ESI-QTOF
Ms type: MS2
Ion mode: POSITIVE
Collision energy: 60
Fragmentation mode: CID
Ionization: ESI
Column name: Zorbax Eclipse Plus C18 2.1 mm x 150 mm, 3.5 um, Agilent
Retention time: 6.644 min
Precursor m/z: 268.1696
Precursor type: [M+H]+
m/z	relative intensity
42.0341	17
44.0496	14
56.0498	24
65.0387	128
68.049	18
77.0386	92
79.054	36
80.0491	16
82.0651	65
91.0545	999
102.0461	21
103.0542	119
105.0699	117
115.0545	192
116.062	10
117.0676	70
127.0542	155
128.0623	787
129.0699	36
130.0656	44
141.0684	52
143.0862	48
144.0804	14
151.0564	14
152.0629	111
165.0701	180
166.0786	46
167.0872	21
178.0782	80
179.0863	12
189.0719	17
191.0857	37
202.0782	16
203.0859	26
204.0952	13
