Mass spectrum: Tetrapentylammonium; LC-ESI-QTOF; MS2; 40 V
Name: Tetrapentylammonium
Class: Industrial_process
Formula: [C20H44N]+
Exact mass: 298.3468
SMILES: CCCCC[N+](CCCCC)(CCCCC)CCCCC
InChI: InChI=1S/C20H44N/c1-5-9-13-17-21(18-14-10-6-2,19-15-11-7-3)20-16-12-8-4/h5-20H2,1-4H3/q+1
Instrument: TripleTOF 5600 SCIEX
Instrument type: LC-ESI-QTOF
Ms type: MS2
Ion mode: POSITIVE
Collision energy: 40
Fragmentation mode: CID
Ionization: ESI
Column name: Zorbax Eclipse Plus C18 2.1 mm x 150 mm, 3.5 um, Agilent
Retention time: 11.279 min
Precursor m/z: 298.3468
Precursor type: [M]+
m/z	relative intensity
58.0695	109
114.128	543
156.1733	63
158.1898	153
170.1902	999
226.2525	235
228.268	448
298.3461	522
