Mass spectrum: Icaridin acid; LC-ESI-QTOF; MS2; 140 V
Name: Icaridin acid
Formula: C12H21NO4
Exact mass: 243.1471
SMILES: CCC(C)OC(=O)N1CCCCC1CC(O)=O
InChI: InChI=1S/C12H21NO4/c1-3-9(2)17-12(16)13-7-5-4-6-10(13)8-11(14)15/h9-10H,3-8H2,1-2H3,(H,14,15)
Instrument: TripleTOF 6600 SCIEX
Instrument type: LC-ESI-QTOF
Ms type: MS2
Ion mode: POSITIVE
Collision energy: 140
Fragmentation mode: CID
Ionization: ESI
Column name: Zorbax Eclipse Plus C18 2.1 mm x 150 mm, 3.5 um, Agilent
Retention time: 9.741 min
Precursor m/z: 244.1543
Precursor type: [M+H]+
m/z	relative intensity
30.0316	104
35.9972	67
37.0047	395
38.0007	72
38.0132	322
39.0205	999
40.0044	20
41.0239	36
41.0363	119
42.0312	124
44.995	72
51.0201	36
53.0113	31
54.0314	52
55.0519	20
56.0481	83
68.0463	88
