Mass spectrum: Carbendazim; LC-ESI-QTOF; MS2; 80 V
Name: Carbendazim
Class: Fungicide; Metabolite; Pharmaceutical
Formula: C9H9N3O2
Exact mass: 191.0695
InChI: InChI=1S/C9H9N3O2/c1-14-9(13)12-8-10-6-4-2-3-5-7(6)11-8/h2-5H,1H3,(H2,10,11,12,13)
Instrument: TripleTOF 5600 SCIEX
Instrument type: LC-ESI-QTOF
Ms type: CID
Ion mode: POSITIVE
Collision energy: 80
Ionization: ESI
Column name: Zorbax Eclipse Plus C18 2.1 mm x 150 mm, 3.5 um, Agilent
Retention time: 5.075 min
Precursor m/z: 192.0768
Precursor type: [M+H]+
m/z	relative intensity
51.029	295
52.0256	33
52.0357	60
63.0523	33
64.0448	67
65.0431	999
77.0287	53
78.0362	543
78.0594	40
79.0433	120
79.055	26
80.0516	80
90.0348	543
91.0432	73
92.0526	46
105.0446	724
106.0533	46
131.0476	26
132.0532	33
