Mass spectrum: 3,6,9-Trioxaundecanedioic acid; LC-ESI-QTOF; MS2; 110 V
Name: 3,6,9-Trioxaundecanedioic acid
Formula: C8H14O7
Exact mass: 222.074
SMILES: C(COCC(=O)O)OCCOCC(=O)O
InChI: InChI=1S/C8H14O7/c9-7(10)5-14-3-1-13-2-4-15-6-8(11)12/h1-6H2,(H,9,10)(H,11,12)
Instrument: TripleTOF 6600 SCIEX
Instrument type: LC-ESI-QTOF
Ms type: MS2
Ion mode: POSITIVE
Collision energy: 110
Fragmentation mode: CID
Ionization: ESI
Column name: Zorbax Eclipse Plus C18 2.1 mm x 150 mm, 3.5 um, Agilent
Retention time: 4.827 min
Precursor m/z: 223.0812
Precursor type: [M+H]+
m/z	relative intensity
31.0163	99
42.01	99
42.0144	99
43.0177	599
45.0339	999
