Mass spectrum: Tryptamine; LC-ESI-QTOF; MS2; 60 V
Name: Tryptamine
Class: Metabolite
Formula: C10H12N2
Exact mass: 160.1
SMILES: C1=CC=C2C(=C1)C(=CN2)CCN
InChI: InChI=1S/C10H12N2/c11-6-5-8-7-12-10-4-2-1-3-9(8)10/h1-4,7,12H,5-6,11H2
Instrument: TripleTOF 5600 SCIEX
Instrument type: LC-ESI-QTOF
Ms type: MS2
Ion mode: POSITIVE
Collision energy: 60
Fragmentation mode: CID
Ionization: ESI
Column name: Zorbax Eclipse Plus C18 2.1 mm x 150 mm, 3.5 um, Agilent
Retention time: 4.966 min
Precursor m/z: 161.1073
Precursor type: [M+H]+
m/z	relative intensity
39.0224	41
50.0159	23
51.0234	83
62.0148	27
63.0231	92
65.0386	232
75.0237	78
76.0315	23
77.0388	274
78.0466	27
89.0386	743
90.0464	283
91.0538	455
101.0373	51
102.046	55
103.0531	23
115.0544	999
116.0487	60
116.0631	97
117.0568	348
126.0465	27
127.0554	46
128.0539	74
130.0632	23
140.049	23
141.057	41
142.064	111
143.0724	78
