Mass spectrum: Iomeprol; LC-ESI-QTOF; MS2; 60 V
Name: Iomeprol
Class: Pharmaceutical
Formula: C17H22I3N3O8
Exact mass: 776.8541
SMILES: CN(C(=O)CO)c1c(I)c(C(=O)NCC(O)CO)c(I)c(C(=O)NCC(O)CO)c1I
InChI: InChI=1S/C17H22I3N3O8/c1-23(9(29)6-26)15-13(19)10(16(30)21-2-7(27)4-24)12(18)11(14(15)20)17(31)22-3-8(28)5-25/h7-8,24-28H,2-6H2,1H3,(H,21,30)(H,22,31)
Instrument: TripleTOF 5600 SCIEX
Instrument type: LC-ESI-QTOF
Ms type: MS2
Ion mode: POSITIVE
Collision energy: 60
Fragmentation mode: CID
Ionization: ESI
Column name: Zorbax Eclipse Plus C18 2.1 mm x 150 mm, 3.5 um, Agilent
Retention time: 4.596 min
Precursor m/z: 777.8614
Precursor type: [M+H]+
m/z	relative intensity
287.9503	37
331.9402	130
346.985	19
374.9817	35
386.9817	27
404.9937	999
414.852	26
531.8976	61
558.8845	110
