Mass spectrum: Fluoxastrobin; LC-ESI-QTOF; MS2; 60 V
Name: Fluoxastrobin
Class: Fungicide
Formula: C21H16ClFN4O5
Exact mass: 458.0793
SMILES: CON=C(C1=CC=CC=C1OC2=C(C(=NC=N2)OC3=CC=CC=C3Cl)F)C4=NOCCO4
InChI: InChI=1S/C21H16ClFN4O5/c1-28-26-18(21-27-30-11-10-29-21)13-6-2-4-8-15(13)31-19-17(23)20(25-12-24-19)32-16-9-5-3-7-14(16)22/h2-9,12H,10-11H2,1H3
Instrument: TripleTOF 6600 SCIEX
Instrument type: LC-ESI-QTOF
Ms type: MS2
Ion mode: POSITIVE
Collision energy: 60
Fragmentation mode: CID
Ionization: ESI
Column name: Zorbax Eclipse Plus C18 2.1 mm x 150 mm, 3.5 um, Agilent
Retention time: 13.269 min
Precursor m/z: 459.0866
Precursor type: [M+H]+
m/z	relative intensity
43.0175	17
63.0218	12
65.0379	31
69.9918	10
74.0138	23
75.0224	73
76.0294	12
77.038	54
78.0328	19
90.0328	96
91.0406	10
92.0241	11
93.0321	33
95.0279	26
98.9981	25
102.033	138
103.0403	10
104.0477	12
105.0331	35
106.027	18
107.0291	23
110.9983	225
115.0405	18
116.0366	16
117.0446	16
118.0514	15
119.035	25
120.0435	34
121.0316	20
122.0388	59
123.0336	21
128.0002	17
129.0085	19
129.0443	121
130.0374	201
132.0229	21
132.0438	12
133.0306	71
134.0397	35
138.0094	203
139.0027	142
140.0357	15
140.9898	25
142.0396	16
144.0302	40
145.038	98
146.0218	62
147.0344	27
148.0383	18
149.0264	32
150.0339	297
151.0049	20
154.0391	26
154.9887	9
157.038	14
159.0343	39
160.0418	66
161.0298	49
162.035	22
163.0037	21
168.0	85
169.0395	26
170.0331	31
173.0384	15
174.0436	17
175.0291	65
176.037	28
177.0198	10
177.0515	15
178.0292	156
178.9989	21
182.0371	10
183.9934	13
185.0366	12
186.0416	12
187.0315	18
188.0371	999
189.0424	22
190.0391	21
191.0214	20
196.0531	19
197.0602	14
200.0419	13
201.0393	13
202.0432	26
203.0612	10
204.0629	13
205.0375	43
213.0347	17
214.0059	14
214.0403	18
216.0558	16
221.0449	15
223.0648	15
225.0583	38
228.0482	18
229.0265	26
230.0348	88
232.0655	13
239.0362	10
240.0438	15
241.0503	17
246.0281	10
248.0611	13
249.0701	11
251.0617	47
252.0655	20
257.0476	14
258.0654	13
261.0643	17
263.0615	20
264.035	13
266.0123	11
274.0616	10
277.0646	16
278.0698	34
279.0546	46
280.0644	34
286.0595	15
298.0575	10
304.0503	21
306.0654	263
313.0713	12
315.0301	13
318.069	34
331.0589	41
340.0281	29
