Mass spectrum: Tripropyl phosphate; LC-ESI-QTOF; MS2; 80 V
Name: Tripropyl phosphate
Class: Industrial_process
Formula: C9H21O4P
Exact mass: 224.1177
SMILES: CCCOP(=O)(OCCC)OCCC
InChI: InChI=1S/C9H21O4P/c1-4-7-11-14(10,12-8-5-2)13-9-6-3/h4-9H2,1-3H3
Instrument: TripleTOF 6600 SCIEX
Instrument type: LC-ESI-QTOF
Ms type: MS2
Ion mode: POSITIVE
Collision energy: 80
Fragmentation mode: CID
Ionization: ESI
Column name: Zorbax Eclipse Plus C18 2.1 mm x 150 mm, 3.5 um, Agilent
Retention time: 10.873 min
Precursor m/z: 225.125
Precursor type: [M+H]+
m/z	relative intensity
39.0217	21
41.0372	19
46.9666	19
62.9619	511
80.9722	999
98.9821	65
