Mass spectrum: Flumioxazin; LC-ESI-QTOF; MS2; 110 V
Name: Flumioxazin
Class: Herbicide; Fungicide
Formula: C19H15FN2O4
Exact mass: 354.1016
SMILES: C#CCN1c2cc(c(cc2OCC1=O)F)N3C(=O)C4=C(C3=O)CCCC4
InChI: InChI=1S/C19H15FN2O4/c1-2-7-21-15-9-14(13(20)8-16(15)26-10-17(21)23)22-18(24)11-5-3-4-6-12(11)19(22)25/h1,8-9H,3-7,10H2
Instrument: TripleTOF 6600 SCIEX
Instrument type: LC-ESI-QTOF
Ms type: MS2
Ion mode: POSITIVE
Collision energy: 110
Fragmentation mode: CID
Ionization: ESI
Column name: Zorbax Eclipse Plus C18 2.1 mm x 150 mm, 3.5 um, Agilent
Retention time: 11.704 min
Precursor m/z: 355.1089
Precursor type: [M+H]+
m/z	relative intensity
38.0146	90
49.005	181
51.0222	454
57.0127	181
65.0324	272
70.0198	90
74.0132	272
75.0083	90
75.0219	272
76.0167	454
77.0373	999
79.053	181
81.0137	272
82.0189	90
83.0268	90
88.0153	90
89.0378	90
95.0281	90
96.0219	181
99.0221	181
101.039	181
103.0537	90
107.0286	363
108.0247	272
114.033	181
115.0528	90
120.0338	90
122.0394	181
124.0184	90
125.038	90
127.0522	90
128.0473	90
129.0462	90
132.0258	90
139.0493	181
140.0504	90
147.0486	90
148.0543	90
152.0444	181
152.0614	90
153.0507	181
154.0419	90
154.0635	181
162.0318	181
164.0478	90
182.0515	272
183.0584	90
