Mass spectrum: Nicosulfuron; LC-ESI-QTOF; MS2; 60 V
Name: Nicosulfuron
Class: Herbicide
Formula: C15H18N6O6S
Exact mass: 410.1009
SMILES: CN(C)C(=O)C1=C(N=CC=C1)S(=O)(=O)NC(=O)NC2=NC(=CC(=N2)OC)OC
InChI: InChI=1S/C15H18N6O6S/c1-21(2)13(22)9-6-5-7-16-12(9)28(24,25)20-15(23)19-14-17-10(26-3)8-11(18-14)27-4/h5-8H,1-4H3,(H2,17,18,19,20,23)
Instrument: TripleTOF 6600 SCIEX
Instrument type: LC-ESI-QTOF
Ms type: MS2
Ion mode: NEGATIVE
Collision energy: 60
Fragmentation mode: CID
Ionization: ESI
Column name: Zorbax Eclipse Plus C18 2.1 mm x 150 mm, 3.5 um, Agilent
Retention time: 8.499 min
Precursor m/z: 409.0936
Precursor type: [M-H]-
m/z	relative intensity
40.0067	16
41.0158	41
41.9989	48
64.006	16
65.0137	336
65.9978	506
82.0164	71
90.0094	43
93.048	31
94.0298	31
97.0397	31
107.012	620
108.0184	29
109.0282	33
119.0252	18
122.0355	950
124.0512	87
139.0392	529
147.0457	14
154.0619	999
162.0716	13
164.0836	11
182.9872	29
