Mass spectrum: Imatinib; LC-ESI-QTOF; MS2; 40 V
Name: Imatinib
Class: Pharmaceutical
Formula: C29H31N7O
Exact mass: 493.259
SMILES: CC1=C(C=C(C=C1)NC(=O)C2=CC=C(C=C2)CN3CCN(CC3)C)NC4=NC=CC(=N4)C5=CN=CC=C5
InChI: InChI=1S/C29H31N7O/c1-21-5-10-25(18-27(21)34-29-31-13-11-26(33-29)24-4-3-12-30-19-24)32-28(37)23-8-6-22(7-9-23)20-36-16-14-35(2)15-17-36/h3-13,18-19H,14-17,20H2,1-2H3,(H,32,37)(H,31,33,34)
Instrument: TripleTOF 5600 SCIEX
Instrument type: LC-ESI-QTOF
Ms type: MS2
Ion mode: POSITIVE
Collision energy: 40
Fragmentation mode: CID
Ionization: ESI
Column name: Zorbax Eclipse Plus C18 2.1 mm x 150 mm, 3.5 um, Agilent
Retention time: 6.152 min
Precursor m/z: 494.2663
Precursor type: [M+H]+
m/z	relative intensity
217.1344	108
222.0865	48
247.0817	24
377.1389	36
379.1408	36
394.1665	999
494.2639	102
