Mass spectrum: Febantel; LC-ESI-QTOF; MS2; 120 V
Name: Febantel
Class: Pharmaceutical
Formula: C20H22N4O6S
Exact mass: 446.126
SMILES: COCC(=O)Nc1cc(Sc2ccccc2)ccc1NC(NC(=O)OC)=NC(=O)OC
InChI: InChI=1S/C20H22N4O6S/c1-28-12-17(25)21-16-11-14(31-13-7-5-4-6-8-13)9-10-15(16)22-18(23-19(26)29-2)24-20(27)30-3/h4-11H,12H2,1-3H3,(H,21,25)(H2,22,23,24,26,27)
Instrument: TripleTOF 5600 SCIEX
Instrument type: LC-ESI-QTOF
Ms type: MS2
Ion mode: POSITIVE
Collision energy: 120
Fragmentation mode: CID
Ionization: ESI
Column name: Zorbax Eclipse Plus C18 2.1 mm x 150 mm, 3.5 um, Agilent
Retention time: 13.085 min
Precursor m/z: 447.1333
Precursor type: [M+H]+
m/z	relative intensity
45.0422	435
45.0699	41
51.0284	49
52.0362	20
64.036	74
65.0305	49
65.0435	365
66.0499	16
68.0183	28
68.9837	209
69.0128	24
75.0152	28
75.027	53
76.0238	205
76.0718	20
77.0341	674
78.0358	213
79.0455	98
80.053	45
83.0269	74
88.0204	53
89.0279	234
90.036	213
91.0301	24
91.0437	448
91.0753	16
92.039	37
92.0517	61
93.059	61
93.987	20
94.0687	20
94.9969	69
96.0031	20
101.0274	49
102.0355	164
103.0353	193
103.0697	28
104.0383	735
105.0456	193
106.0522	41
107.0598	20
108.0033	45
109.0105	291
113.0389	37
115.0281	65
115.0528	102
116.0373	920
117.0443	180
118.0528	690
118.0814	24
119.0282	20
119.0587	86
119.9899	69
120.9979	28
121.0107	20
121.0774	16
122.0058	370
125.037	28
126.0477	69
127.0538	349
128.0604	111
129.0448	98
130.0397	230
131.0256	32
131.0478	624
131.9893	24
132.0563	41
132.9996	32
133.0674	24
134.018	32
135.0573	32
136.0103	16
137.037	32
138.0461	94
139.0542	781
139.0888	28
140.0501	254
142.0409	49
143.0469	209
143.0675	24
144.0558	78
144.0742	16
145.0112	45
145.0402	41
145.0646	111
146.0349	32
146.0699	45
147.0017	90
147.0234	41
148.0064	32
149.0157	41
150.0237	32
150.0456	98
151.0539	98
151.0729	16
152.0584	263
153.0568	61
154.0644	131
158.0171	78
158.0376	20
158.0693	20
159.012	41
159.043	378
159.0663	20
160.0076	28
160.0505	28
161.0154	20
163.026	28
163.0519	24
164.0485	333
165.0558	90
166.066	111
167.074	45
169.0118	98
170.0162	127
170.0313	28
171.0266	999
172.0264	78
172.0512	172
173.0552	32
176.0507	61
177.0573	304
178.0582	65
179.0591	90
182.0175	102
183.0208	230
184.0324	201
185.0289	45
186.0349	82
190.0054	78
191.0601	78
192.0672	78
193.0756	24
194.0034	20
194.0772	41
195.0173	41
196.0213	682
197.0302	123
198.037	164
199.0421	41
202.0083	24
205.078	37
206.0698	57
208.0211	152
209.0286	407
210.0236	131
211.0325	234
223.0328	53
224.0397	275
225.0523	41
235.0332	28
237.0423	53
238.0441	90
246.0659	37
265.0281	69
