Mass spectrum: Tributylphosphine oxide; LC-ESI-QTOF; MS2; 120 V
Name: Tributylphosphine oxide
Class: Industrial_process
Formula: C12H27OP
Exact mass: 218.18
SMILES: CCCC[P](=O)(CCCC)CCCC
InChI: InChI=1S/C12H27OP/c1-4-7-10-14(13,11-8-5-2)12-9-6-3/h4-12H2,1-3H3
Instrument: TripleTOF 5600 SCIEX
Instrument type: LC-ESI-QTOF
Ms type: MS2
Ion mode: POSITIVE
Collision energy: 120
Fragmentation mode: CID
Ionization: ESI
Column name: Zorbax Eclipse Plus C18 2.1 mm x 150 mm, 3.5 um, Agilent
Retention time: 11.114 min
Precursor m/z: 219.1872
Precursor type: [M+H]+
m/z	relative intensity
43.9896	86
44.9975	550
47.0078	39
47.0183	26
51.0273	39
55.9852	18
56.9939	153
59.0088	26
61.0248	15
63.0041	999
65.0418	26
77.0167	54
77.0409	31
78.0271	20
89.0385	28
115.0534	36
128.061	18
