Mass spectrum: Fipronil; LC-ESI-QTOF; MS2; 70 V
Name: Fipronil
Class: Insecticide
Formula: C12H4Cl2F6N4OS
Exact mass: 435.9387
SMILES: C1=C(C=C(C(=C1Cl)N2C(=C(C(=N2)C#N)S(=O)C(F)(F)F)N)Cl)C(F)(F)F
InChI: InChI=1S/C12H4Cl2F6N4OS/c13-5-1-4(11(15,16)17)2-6(14)8(5)24-10(22)9(7(3-21)23-24)26(25)12(18,19)20/h1-2H,22H2
Instrument: TripleTOF 6600 SCIEX
Instrument type: LC-ESI-QTOF
Ms type: MS2
Ion mode: NEGATIVE
Collision energy: 70
Fragmentation mode: CID
Ionization: ESI
Column name: Zorbax Eclipse Plus C18 2.1 mm x 150 mm, 3.5 um, Agilent
Retention time: 13.577 min
Precursor m/z: 434.9314
Precursor type: [M-H]-
m/z	relative intensity
34.9699	163
50.0038	27
57.9756	53
76.0063	11
77.0139	27
81.9751	15
88.0014	9
112.0033	23
113.0151	157
143.0056	398
148.0066	15
148.9902	13
154.9996	17
162.0035	17
163.0118	608
166.998	9
182.0096	126
183.0183	999
188.0067	23
198.0035	19
199.0121	13
203.9783	29
207.0127	15
208.0118	27
212.0056	25
212.949	19
213.9746	21
216.9783	21
217.9861	39
218.0099	90
223.9819	35
227.9772	25
232.0116	29
233.9797	27
243.9883	124
244.9234	13
246.0168	9
247.9822	29
249.9578	234
253.9853	15
267.9881	248
271.983	59
277.9536	25
281.9907	21
