Mass spectrum: N-acetyl-sitagliptin; LC-ESI-QTOF; MS2; 120 V
Name: N-acetyl-sitagliptin
Class: Metabolite; Pharmaceutical
Formula: C18H17F6N5O2
Exact mass: 449.1286
SMILES: CC(=O)NC(CC1=CC(=C(C=C1F)F)F)CC(=O)N2CCN3C(=NN=C3C(F)(F)F)C2
InChI: InChI=1S/C18H17F6N5O2/c1-9(30)25-11(4-10-5-13(20)14(21)7-12(10)19)6-16(31)28-2-3-29-15(8-28)26-27-17(29)18(22,23)24/h5,7,11H,2-4,6,8H2,1H3,(H,25,30)
Instrument: TripleTOF 5600 SCIEX
Instrument type: LC-ESI-QTOF
Ms type: MS2
Ion mode: POSITIVE
Collision energy: 120
Fragmentation mode: CID
Ionization: ESI
Column name: Zorbax Eclipse Plus C18 2.1 mm x 150 mm, 3.5 um, Agilent
Retention time: 8.852 min
Precursor m/z: 450.1359
Precursor type: [M+H]+
m/z	relative intensity
43.026	17
56.0536	16
75.007	28
75.025	14
77.0224	24
77.0411	31
81.0156	28
87.0251	48
91.0107	15
95.0295	38
101.0208	176
107.0292	141
117.0129	19
118.0203	15
119.0097	33
120.0369	17
125.0198	165
126.0278	21
127.0358	999
131.0304	35
134.0409	47
137.0202	70
145.0263	484
150.029	11
151.036	389
153.038	63
154.0461	68
157.0256	16
169.0255	75
174.053	12
