Mass spectrum: Amantadine; LC-ESI-QTOF; MS2; 40 V
Name: Amantadine
Class: Pharmaceutical
Formula: C10H17N
Exact mass: 151.1361
SMILES: C1C2CC3CC1CC(C2)(C3)N
InChI: InChI=1S/C10H17N/c11-10-4-7-1-8(5-10)3-9(2-7)6-10/h7-9H,1-6,11H2
Instrument: TripleTOF 5600 SCIEX
Instrument type: LC-ESI-QTOF
Ms type: MS2
Ion mode: POSITIVE
Collision energy: 40
Fragmentation mode: CID
Ionization: ESI
Column name: Zorbax Eclipse Plus C18 2.1 mm x 150 mm, 3.5 um, Agilent
Retention time: 5.148 min
Precursor m/z: 152.1434
Precursor type: [M+H]+
m/z	relative intensity
41.0387	17
51.0231	16
55.0542	53
65.0384	26
67.0542	170
69.0696	34
77.0387	427
79.0545	593
81.0698	225
91.0546	298
93.0701	583
94.0775	12
105.0701	50
107.0856	389
133.0995	11
135.1172	999
