Mass spectrum: Carazolol; LC-ESI-QTOF; MS2; 40 V
Name: Carazolol
Class: Pharmaceutical
Formula: C18H22N2O2
Exact mass: 298.1681
SMILES: CC(C)NCC(O)COc1cccc2[nH]c3ccccc3c12
InChI: InChI=1S/C18H22N2O2/c1-12(2)19-10-13(21)11-22-17-9-5-8-16-18(17)14-6-3-4-7-15(14)20-16/h3-9,12-13,19-21H,10-11H2,1-2H3
Instrument: TripleTOF 5600 SCIEX
Instrument type: LC-ESI-QTOF
Ms type: MS2
Ion mode: POSITIVE
Collision energy: 40
Fragmentation mode: CID
Ionization: ESI
Column name: Zorbax Eclipse Plus C18 2.1 mm x 150 mm, 3.5 um, Agilent
Retention time: 6.882 min
Precursor m/z: 299.1754
Precursor type: [M+H]+
m/z	relative intensity
56.0559	277
58.0707	58
72.0846	208
74.064	381
98.0973	116
100.1115	20
116.1075	972
128.0605	10
129.0695	45
130.0648	25
139.0532	12
154.0653	37
156.0808	176
166.065	140
167.075	111
168.0806	199
177.0693	12
179.0729	14
180.0798	52
182.0598	12
182.0967	19
183.0668	41
184.0757	600
192.0798	34
193.0876	89
194.0965	999
196.0752	231
204.0805	78
205.0893	14
207.0673	43
210.0908	33
220.0752	16
221.0843	16
222.0912	394
299.1744	11
