Mass spectrum: Fluxapyroxad; LC-ESI-QTOF; MS2; 40 V
Name: Fluxapyroxad
Class: Fungicide
Formula: C18H12F5N3O
Exact mass: 381.0901
SMILES: Cn1cc(c(n1)C(F)F)C(=O)Nc2ccccc2c3cc(c(c(c3)F)F)F
InChI: InChI=1S/C18H12F5N3O/c1-26-8-11(16(25-26)17(22)23)18(27)24-14-5-3-2-4-10(14)9-6-12(19)15(21)13(20)7-9/h2-8,17H,1H3,(H,24,27)
Instrument: TripleTOF 6600 SCIEX
Instrument type: LC-ESI-QTOF
Ms type: MS2
Ion mode: POSITIVE
Collision energy: 40
Fragmentation mode: CID
Ionization: ESI
Column name: Zorbax Eclipse Plus C18 2.1 mm x 150 mm, 3.5 um, Agilent
Retention time: 12.239 min
Precursor m/z: 382.0973
Precursor type: [M+H]+
m/z	relative intensity
109.0386	34
129.0445	10
159.0359	124
206.0328	26
207.0416	34
232.0366	95
234.0527	346
246.0525	29
260.0317	46
266.0759	10
267.0728	33
271.0609	238
273.0635	45
279.0604	32
285.0632	18
286.0766	12
287.0793	11
294.0844	37
299.0786	16
300.0864	25
301.0591	18
314.0911	734
315.0742	12
322.0791	48
327.061	13
342.0862	999
