Mass spectrum: Erlotinib; LC-ESI-QTOF; MS2; 70 V
Name: Erlotinib
Class: Pharmaceutical
Formula: C22H23N3O4
Exact mass: 393.1689
SMILES: COCCOC1=C(C=C2C(=C1)C(=NC=N2)NC3=CC=CC(=C3)C#C)OCCOC
InChI: InChI=1S/C22H23N3O4/c1-4-16-6-5-7-17(12-16)25-22-18-13-20(28-10-8-26-2)21(29-11-9-27-3)14-19(18)23-15-24-22/h1,5-7,12-15H,8-11H2,2-3H3,(H,23,24,25)
Instrument: TripleTOF 5600 SCIEX
Instrument type: LC-ESI-QTOF
Ms type: MS2
Ion mode: POSITIVE
Collision energy: 70
Fragmentation mode: CID
Ionization: ESI
Column name: Zorbax Eclipse Plus C18 2.1 mm x 150 mm, 3.5 um, Agilent
Retention time: 7.429 min
Precursor m/z: 394.1761
Precursor type: [M+H]+
m/z	relative intensity
59.0494	46
68.0489	10
74.0148	16
75.0228	89
77.0385	23
78.0338	24
79.0175	10
81.0334	50
89.0386	24
91.0544	157
95.0605	12
96.0447	87
97.0284	25
101.0389	380
102.0339	12
105.0446	24
106.029	89
109.0287	106
115.0298	12
116.0498	51
117.0574	113
118.0659	109
121.04	13
123.0551	18
124.039	48
127.0549	16
128.0496	83
129.0455	48
133.0398	33
134.0233	38
135.0322	37
136.0389	110
137.035	22
140.0504	19
142.0558	10
143.0609	93
149.0357	25
150.0432	58
151.0524	180
152.0503	59
153.0558	27
154.0651	51
155.0665	20
161.035	449
162.0376	49
163.0541	20
164.0496	13
165.0594	13
166.0652	26
167.0714	36
168.0674	11
168.0811	25
176.0507	57
177.0549	82
178.0655	183
179.0606	58
180.0762	44
181.075	46
182.0642	11
182.0858	14
183.0702	11
188.0476	30
190.0657	42
191.0665	46
192.069	70
193.0765	103
194.0776	32
195.092	103
201.0653	14
203.0608	96
204.0686	95
205.0772	382
206.0619	228
207.0789	128
208.0703	23
209.0733	22
211.0611	17
215.0612	51
216.0668	14
217.0626	27
218.0731	18
219.0791	64
220.0873	370
221.0714	111
222.0817	20
222.102	62
223.085	44
230.0714	185
231.0796	355
232.0871	142
233.0707	61
233.0957	19
234.0659	40
235.075	32
236.0678	31
237.0668	206
238.074	42
242.0724	13
243.0524	21
243.0775	20
244.0861	16
246.0654	76
247.0732	78
248.083	345
249.0886	39
250.0977	158
251.0819	98
258.0677	33
259.0747	77
260.0827	184
261.0673	113
262.0621	12
275.0698	83
276.0778	933
277.084	25
278.0934	999
290.0906	45
304.1092	44
