Mass spectrum: 2-(Thiocyanomethylthio)benzothiazole; LC-ESI-QTOF; MS2; 100 V
Name: 2-(Thiocyanomethylthio)benzothiazole
Class: Antimicrobial; Fungicide
Formula: C9H6N2S3
Exact mass: 237.9693
SMILES: C1=CC=C2C(=C1)N=C(S2)SCSC#N
InChI: InChI=1S/C9H6N2S3/c10-5-12-6-13-9-11-7-3-1-2-4-8(7)14-9/h1-4H,6H2
Instrument: TripleTOF 6600 SCIEX
Instrument type: LC-ESI-QTOF
Ms type: MS2
Ion mode: POSITIVE
Collision energy: 100
Fragmentation mode: CID
Ionization: ESI
Column name: Zorbax Eclipse Plus C18 2.1 mm x 150 mm, 3.5 um, Agilent
Retention time: 12.417 min
Precursor m/z: 238.9766
Precursor type: [M+H]+
m/z	relative intensity
35.9995	17
37.0075	64
38.0152	64
39.0232	315
43.9715	71
44.9795	584
45.9749	22
45.987	24
49.0072	76
50.0153	374
51.0232	619
52.0181	27
52.031	34
57.987	59
61.0072	44
62.0153	111
63.023	303
63.9438	37
64.0182	76
64.0301	27
65.0387	577
67.9727	61
68.9797	999
69.974	14
69.987	78
70.9949	14
71.99	29
74.0156	46
75.0108	17
75.0232	34
76.0187	37
76.0312	19
77.0387	241
78.0342	17
78.045	17
80.9792	37
81.9867	148
82.9946	12
89.0388	37
90.0341	32
91.0415	17
92.9798	86
94.9948	98
96.0029	49
101.9465	14
106.9937	22
108.0026	123
109.0106	83
121.0117	44
122.0065	27
136.0234	9
