Mass spectrum: Tetraoctylammonium; LC-ESI-QTOF; MS2; 50 V
Name: Tetraoctylammonium
Class: Industrial_process
Formula: [C32H68N]+
Exact mass: 466.5346
SMILES: CCCCCCCC[N+](CCCCCCCC)(CCCCCCCC)CCCCCCCC
InChI: InChI=1S/C32H68N/c1-5-9-13-17-21-25-29-33(30-26-22-18-14-10-6-2,31-27-23-19-15-11-7-3)32-28-24-20-16-12-8-4/h5-32H2,1-4H3/q+1
Instrument: TripleTOF 5600 SCIEX
Instrument type: LC-ESI-QTOF
Ms type: MS2
Ion mode: POSITIVE
Collision energy: 50
Fragmentation mode: CID
Ionization: ESI
Column name: Zorbax Eclipse Plus C18 2.1 mm x 150 mm, 3.5 um, Agilent
Retention time: 16.186 min
Precursor m/z: 466.5346
Precursor type: [M]+
m/z	relative intensity
156.175	275
242.2845	116
254.2845	473
352.3941	261
354.41	552
466.5347	999
