Mass spectrum: 3,5-bis(hexanoylamino)-2,4,6-triiodobenzoic acid; LC-ESI-QTOF; MS2; 150 V
Name: 3,5-bis(hexanoylamino)-2,4,6-triiodobenzoic acid
Class: Pharmaceutical; Transformation_product
Formula: C19H25I3N2O4
Exact mass: 725.8949
SMILES: CCCCCC(=O)Nc1c(I)c(NC(=O)CCCCC)c(I)c(C(O)=O)c1I
InChI: InChI=1S/C19H25I3N2O4/c1-3-5-7-9-11(25)23-17-14(20)13(19(27)28)15(21)18(16(17)22)24-12(26)10-8-6-4-2/h3-10H2,1-2H3,(H,23,25)(H,24,26)(H,27,28)
Instrument: TripleTOF 5600 SCIEX
Instrument type: LC-ESI-QTOF
Ms type: MS2
Ion mode: POSITIVE
Collision energy: 150
Fragmentation mode: CID
Ionization: ESI
Column name: Zorbax Eclipse Plus C18 2.1 mm x 150 mm, 3.5 um, Agilent
Retention time: 11.575 min
Precursor m/z: 726.9021
Precursor type: [M+H]+
m/z	relative intensity
77.0312	169
78.0371	207
79.0448	358
80.0522	301
89.0382	75
90.0347	320
91.0434	490
92.0496	188
93.0471	113
93.0592	94
94.0537	113
103.0418	169
104.0505	226
104.0698	75
105.0438	188
106.0292	245
106.0655	113
107.0371	131
108.0443	546
116.0353	113
117.0232	113
117.0442	471
117.055	131
118.0286	188
118.0524	508
119.0345	131
119.0617	188
120.0444	131
129.044	150
130.0516	94
130.0646	75
131.0595	131
132.0453	131
134.0246	150
134.0594	94
143.0631	113
144.0399	150
145.0157	75
145.0397	376
146.0249	999
146.0481	263
147.0319	169
147.0568	301
148.0403	169
148.0624	263
158.0474	150
158.0838	94
159.0568	263
160.0384	169
160.063	94
161.071	659
171.055	75
172.0275	245
173.0336	113
173.0722	94
174.0445	207
185.0346	320
186.0422	263
187.0497	433
188.0562	169
191.0463	169
192.0526	131
198.0443	94
199.0498	207
200.0548	282
201.0639	245
203.9287	94
204.1028	94
205.0608	113
213.0292	188
213.0639	113
231.0372	75
243.9477	301
256.1149	94
271.9464	94
