Mass spectrum: Chlorfenvinfos; LC-ESI-QTOF; MS2; 140 V
Name: Chlorfenvinfos
Class: Insecticide
Formula: C12H14Cl3O4P
Exact mass: 357.9695
SMILES: CCOP(=O)(OCC)OC(=CCl)C1=C(C=C(C=C1)Cl)Cl
InChI: InChI=1S/C12H14Cl3O4P/c1-3-17-20(16,18-4-2)19-12(8-13)10-6-5-9(14)7-11(10)15/h5-8H,3-4H2,1-2H3
Instrument: TripleTOF 6600 SCIEX
Instrument type: LC-ESI-QTOF
Ms type: MS2
Ion mode: POSITIVE
Collision energy: 140
Fragmentation mode: CID
Ionization: ESI
Column name: Zorbax Eclipse Plus C18 2.1 mm x 150 mm, 3.5 um, Agilent
Retention time: 13.629 min
Precursor m/z: 358.9768
Precursor type: [M+H]+
m/z	relative intensity
46.9665	11
50.0134	15
51.0205	10
61.0055	30
62.014	33
62.9609	172
73.0046	56
74.0129	254
75.0199	37
80.9712	173
83.9739	41
84.9811	22
97.005	152
98.0129	999
98.9843	14
99.0207	302
100.028	18
107.9738	100
108.9818	52
134.9966	14
