Mass spectrum: Voriconazole-N-oxide; LC-ESI-QTOF; MS2; 120 V
Name: Voriconazole-N-oxide
Class: Metabolite; Pharmaceutical
Formula: C16H14F3N5O2
Exact mass: 365.11
SMILES: CC(C1=NC=[N+](C=C1F)[O-])C(CN2C=NC=N2)(C3=C(C=C(C=C3)F)F)O
InChI: InChI=1S/C16H14F3N5O2/c1-10(15-14(19)5-24(26)9-21-15)16(25,6-23-8-20-7-22-23)12-3-2-11(17)4-13(12)18/h2-5,7-10,25H,6H2,1H3
Instrument: TripleTOF 5600 SCIEX
Instrument type: LC-ESI-QTOF
Ms type: MS2
Ion mode: POSITIVE
Collision energy: 120
Fragmentation mode: CID
Ionization: ESI
Column name: Zorbax Eclipse Plus C18 2.1 mm x 150 mm, 3.5 um, Agilent
Retention time: 7.739 min
Precursor m/z: 366.1172
Precursor type: [M+H]+
m/z	relative intensity
51.0133	41
51.0274	35
57.0184	141
68.0537	35
70.0132	47
70.0419	64
71.0211	170
75.0076	135
77.0233	111
77.0415	152
78.0358	70
81.0161	229
82.0419	41
83.0312	58
95.0603	29
97.0197	52
97.0304	64
98.028	64
98.0404	152
99.0375	47
101.0207	999
105.0436	64
107.0297	570
107.0591	23
113.02	58
125.0206	29
125.0508	787
126.0586	29
127.0351	599
127.0845	29
141.0201	29
