Mass spectrum: Flutriafol; LC-ESI-QTOF; MS2; 80 V
Name: Flutriafol
Class: Fungicide
Formula: C16H13F2N3O
Exact mass: 301.1027
SMILES: C1=CC=C(C(=C1)C(CN2C=NC=N2)(C3=CC=C(C=C3)F)O)F
InChI: InChI=1S/C16H13F2N3O/c17-13-7-5-12(6-8-13)16(22,9-21-11-19-10-20-21)14-3-1-2-4-15(14)18/h1-8,10-11,22H,9H2
Instrument: TripleTOF 6600 SCIEX
Instrument type: LC-ESI-QTOF
Ms type: MS2
Ion mode: POSITIVE
Collision energy: 80
Fragmentation mode: CID
Ionization: ESI
Column name: Zorbax Eclipse Plus C18 2.1 mm x 150 mm, 3.5 um, Agilent
Retention time: 10.047 min
Precursor m/z: 302.11
Precursor type: [M+H]+
m/z	relative intensity
43.0295	176
57.0134	27
59.0292	10
63.0233	22
69.0139	13
70.0402	999
73.007	18
74.015	254
75.0228	687
83.0289	238
89.0379	25
95.0292	871
109.0445	229
123.0335	311
149.0373	27
163.053	13
164.0609	10
165.0697	24
168.0357	35
169.0443	23
174.0462	41
175.0521	17
183.0591	38
188.0428	12
193.0441	18
194.0516	69
214.0582	22
