Mass spectrum: Carbadox; LC-ESI-QTOF; MS2; 120 V
Name: Carbadox
Class: Antimicrobial; Pharmaceutical
Formula: C11H10N4O4
Exact mass: 262.0702
SMILES: COC(=O)N=NC=C1C=[N+]([O-])c2ccccc2N1O
InChI: InChI=1S/C11H10N4O4/c1-19-11(16)13-12-6-8-7-14(17)9-4-2-3-5-10(9)15(8)18/h2-7,18H,1H3
Instrument: TripleTOF 5600 SCIEX
Instrument type: LC-ESI-QTOF
Ms type: MS2
Ion mode: POSITIVE
Collision energy: 120
Fragmentation mode: CID
Ionization: ESI
Column name: Zorbax Eclipse Plus C18 2.1 mm x 150 mm, 3.5 um, Agilent
Retention time: 5.823 min
Precursor m/z: 263.0775
Precursor type: [M+H]+
m/z	relative intensity
51.0287	627
52.0245	89
52.0341	25
60.0044	32
63.07	32
64.0338	70
65.0288	25
73.01	89
74.018	999
75.0137	140
75.0259	678
76.0215	371
76.0307	211
77.0414	102
88.0173	44
88.0306	32
90.0339	32
99.013	38
102.0335	89
103.0429	44
