Mass spectrum: Oxcarbazepine; LC-ESI-QTOF; MS2; 140 V
Name: Oxcarbazepine
Class: Pharmaceutical
Formula: C15H12N2O2
Exact mass: 252.0899
SMILES: NC(=O)N1c2ccccc2CC(=O)c3ccccc13
InChI: InChI=1S/C15H12N2O2/c16-15(19)17-12-7-3-1-5-10(12)9-14(18)11-6-2-4-8-13(11)17/h1-8H,9H2,(H2,16,19)
Instrument: TripleTOF 5600 SCIEX
Instrument type: LC-ESI-QTOF
Ms type: MS2
Ion mode: POSITIVE
Collision energy: 140
Fragmentation mode: CID
Ionization: ESI
Column name: Zorbax Eclipse Plus C18 2.1 mm x 150 mm, 3.5 um, Agilent
Retention time: 8.323 min
Precursor m/z: 253.0972
Precursor type: [M+H]+
m/z	relative intensity
60.0051	36
65.0418	66
73.0102	102
74.0183	999
75.013	54
75.0254	787
76.0195	30
76.0324	248
77.0414	429
78.0515	66
85.0108	127
86.017	278
87.0243	326
88.0189	30
88.0318	54
89.0399	326
97.0085	48
98.0156	375
99.0101	42
99.0226	272
100.0319	66
101.0392	133
102.0338	30
102.0469	96
109.0063	30
110.0145	115
111.0239	42
113.0381	157
114.0342	36
115.0536	54
122.0165	54
123.0224	24
124.0262	54
125.038	145
126.0462	266
127.0428	30
127.0539	30
128.0493	30
137.0374	72
139.0548	84
140.0491	54
149.0382	84
150.0467	708
151.0534	399
152.0484	72
152.062	133
153.057	24
161.0377	36
162.0459	54
163.0568	102
176.0504	78
177.0575	115
178.0654	96
