Mass spectrum: Salicylic acid; LC-ESI-QTOF; MS2; 140 V
Name: Salicylic acid
Class: Antimicrobial; Food_additive; Industrial_process; Personal_care_product; Pharmaceutical
Formula: C7H6O3
Exact mass: 138.0317
SMILES: C1=CC=C(C(=C1)C(=O)O)O
InChI: InChI=1S/C7H6O3/c8-6-4-2-1-3-5(6)7(9)10/h1-4,8H,(H,9,10)
Instrument: TripleTOF 5600 SCIEX
Instrument type: LC-ESI-QTOF
Ms type: MS2
Ion mode: NEGATIVE
Collision energy: 140
Fragmentation mode: CID
Ionization: ESI
Column name: Zorbax Eclipse Plus C18 2.1 mm x 150 mm, 3.5 um, Agilent
Retention time: 7.886 min
Precursor m/z: 137.0244
Precursor type: [M-H]-
m/z	relative intensity
41.0033	999
47.9992	90
65.0018	90
65.0387	363
93.0358	90
