Mass spectrum: Naringenin; LC-ESI-QTOF; MS2; 90 V
Name: Naringenin
Class: Pharmaceutical
Formula: C15H12O5
Exact mass: 272.0685
SMILES: Oc1ccc(cc1)C2CC(=O)c3c(O)cc(O)cc3O2
InChI: InChI=1S/C15H12O5/c16-9-3-1-8(2-4-9)13-7-12(19)15-11(18)5-10(17)6-14(15)20-13/h1-6,13,16-18H,7H2
Instrument: TripleTOF 5600 SCIEX
Instrument type: LC-ESI-QTOF
Ms type: CID
Ion mode: POSITIVE
Collision energy: 90
Ionization: ESI
Column name: Zorbax Eclipse Plus C18 2.1 mm x 150 mm, 3.5 um, Agilent
Retention time: 9.18 min
Precursor m/z: 273.0757
Precursor type: [M+H]+
m/z	relative intensity
65.0422	999
69.0006	412
69.0366	173
75.0248	86
77.0403	369
91.0548	542
115.0577	86
