Mass spectrum: N-Isopropyl-N'-phenyl-p-phenylenediamine; LC-ESI-QTOF; MS2; 110 V
Name: N-Isopropyl-N'-phenyl-p-phenylenediamine
Class: Industrial_process
Formula: C15H18N2
Exact mass: 226.147
SMILES: CC(C)Nc1ccc(cc1)Nc2ccccc2
InChI: InChI=1S/C15H18N2/c1-12(2)16-14-8-10-15(11-9-14)17-13-6-4-3-5-7-13/h3-12,16-17H,1-2H3
Instrument: TripleTOF 6600 SCIEX
Instrument type: LC-ESI-QTOF
Ms type: MS2
Ion mode: POSITIVE
Collision energy: 110
Fragmentation mode: CID
Ionization: ESI
Column name: Zorbax Eclipse Plus C18 2.1 mm x 150 mm, 3.5 um, Agilent
Retention time: 7.24 min
Precursor m/z: 227.1543
Precursor type: [M+H]+
m/z	relative intensity
36.0004	10
37.0069	89
38.0031	17
38.0141	74
39.0224	426
40.018	10
41.0258	15
42.0335	20
49.0066	15
50.0144	159
51.0223	372
52.0177	64
52.03	51
53.0379	785
54.0334	89
61.0061	66
62.0139	166
63.0223	428
64.0172	33
64.0299	28
65.0373	154
66.0456	43
73.0063	17
74.0148	64
75.0211	82
76.0185	12
76.0289	20
77.038	223
78.0338	66
78.0453	20
79.0396	33
80.0483	999
85.0085	12
86.0143	41
87.0215	43
88.0191	12
88.0297	25
89.0372	233
90.0341	41
90.046	12
91.0406	17
92.0488	28
98.0151	15
101.0361	38
102.0452	30
103.0397	15
103.0534	20
105.0427	20
107.0601	28
113.0377	138
114.0336	28
115.0536	82
116.046	15
117.0568	10
126.0441	41
127.0528	102
128.0564	115
129.0436	10
129.0604	12
130.0639	10
137.0359	23
138.0448	25
139.053	161
140.0497	107
141.0511	12
154.0641	46
164.0451	20
166.0633	28
181.078	15
