Mass spectrum: Metazachlor; LC-ESI-QTOF; MS2; 150 V
Name: Metazachlor
Class: Herbicide
Formula: C14H16ClN3O
Exact mass: 277.0982
InChI: InChI=1S/C14H16ClN3O/c1-11-5-3-6-12(2)14(11)18(13(19)9-15)10-17-8-4-7-16-17/h3-8H,9-10H2,1-2H3
Instrument: TripleTOF 5600 SCIEX
Instrument type: LC-ESI-QTOF
Ms type: CID
Ion mode: POSITIVE
Collision energy: 150
Ionization: ESI
Column name: Zorbax Eclipse Plus C18 2.1 mm x 150 mm, 3.5 um, Agilent
Retention time: 11.114 min
Precursor m/z: 278.1055
Precursor type: [M+H]+
m/z	relative intensity
64.0334	65
65.0435	121
74.018	28
75.0254	28
77.0411	999
77.0711	28
78.0487	42
79.0579	56
89.0398	844
90.046	196
91.0547	98
102.0453	23
103.053	65
116.0481	23
117.0568	89
130.0655	28
