Mass spectrum: Inabenfide; LC-ESI-QTOF; MS2; 100 V
Name: Inabenfide
Formula: C19H15ClN2O2
Exact mass: 338.0822
SMILES: C1=CC=C(C=C1)C(C2=C(C=CC(=C2)Cl)NC(=O)C3=CC=NC=C3)O
InChI: InChI=1S/C19H15ClN2O2/c20-15-6-7-17(22-19(24)14-8-10-21-11-9-14)16(12-15)18(23)13-4-2-1-3-5-13/h1-12,18,23H,(H,22,24)
Instrument: TripleTOF 6600 SCIEX
Instrument type: LC-ESI-QTOF
Ms type: MS2
Ion mode: POSITIVE
Collision energy: 100
Fragmentation mode: CID
Ionization: ESI
Column name: Zorbax Eclipse Plus C18 2.1 mm x 150 mm, 3.5 um, Agilent
Retention time: 10.231 min
Precursor m/z: 339.0895
Precursor type: [M+H]+
m/z	relative intensity
39.0215	13
49.0067	40
50.0145	249
51.0221	263
52.0185	47
52.0301	661
53.0379	118
65.0367	13
75.0223	37
77.0377	77
78.0331	108
79.0409	999
80.0487	475
89.0374	30
99.0215	27
101.037	27
102.0455	23
104.0486	23
105.0437	50
113.0369	20
115.0529	121
125.0382	87
126.0452	101
127.0416	23
127.0526	148
128.0488	57
128.0604	47
129.0558	16
130.0645	20
138.0451	30
139.0537	151
140.0489	47
140.0608	47
141.0689	47
149.0366	20
150.0455	175
151.0539	452
152.0607	320
153.0414	16
153.0566	145
154.0644	94
155.0594	37
161.0122	23
162.0098	57
163.0537	195
164.0611	145
165.0691	442
166.0643	101
167.0723	259
168.0799	54
173.0123	16
174.0468	23
175.0544	23
176.0552	97
177.0571	290
178.0642	303
179.0646	263
180.067	54
181.0752	30
187.0548	37
188.0243	43
188.0477	20
188.0634	40
189.0688	94
190.0642	60
191.0695	20
199.0293	13
200.0623	70
201.0549	20
201.0699	80
202.0751	138
203.0728	47
204.0568	27
206.0602	111
211.0559	23
212.0604	16
213.0699	172
214.0659	111
215.0362	67
215.0847	108
216.0809	47
217.0851	27
224.0611	23
225.0566	54
226.0656	37
227.0736	111
228.0807	151
229.0867	54
230.0936	30
238.0647	97
239.0736	40
240.0807	158
241.0877	124
242.0963	57
253.0748	54
254.0834	43
255.0924	175
256.0981	20
266.0854	16
289.0515	67
