Mass spectrum: Amido Black 10B; LC-ESI-QTOF; MS2; 80 V
Name: Amido Black 10B
Formula: C22H16N6O9S2
Exact mass: 572.042
SMILES: C1=CC=C(C=C1)N=NC2=C(C3=C(C(=C(C=C3C=C2S(=O)(=O)O)S(=O)(=O)O)N=NC4=CC=C(C=C4)[N+](=O)[O-])N)O
InChI: InChI=1S/C22H16N6O9S2/c23-19-18-12(11-17(39(35,36)37)21(22(18)29)27-24-13-4-2-1-3-5-13)10-16(38(32,33)34)20(19)26-25-14-6-8-15(9-7-14)28(30)31/h1-11,29H,23H2,(H,32,33,34)(H,35,36,37)
Instrument: TripleTOF 6600 SCIEX
Instrument type: LC-ESI-QTOF
Ms type: MS2
Ion mode: POSITIVE
Collision energy: 80
Fragmentation mode: CID
Ionization: ESI
Column name: Zorbax Eclipse Plus C18 2.1 mm x 150 mm, 3.5 um, Agilent
Retention time: 9.552 min
Precursor m/z: 573.0493
Precursor type: [M+H]+
m/z	relative intensity
39.0225	18
65.0382	318
66.0454	50
75.0219	68
77.0383	47
80.0481	26
92.0254	39
92.0491	467
93.057	999
108.0447	11
114.0342	16
122.0236	33
129.0449	23
139.0295	13
145.0398	29
150.0297	43
157.0373	47
167.0237	11
173.0345	155
177.0538	11
178.0609	12
204.064	24
205.0741	63
215.0601	18
216.0563	57
217.0639	21
218.0712	10
220.0863	11
230.0697	40
231.0734	55
232.0857	106
233.0873	17
234.0782	11
242.059	49
243.0686	62
245.0564	10
248.0836	27
258.0691	13
259.069	58
260.0829	31
261.0881	20
265.0316	12
270.0533	101
271.0624	197
273.0751	11
276.0712	11
287.0589	28
306.0996	18
307.0938	18
308.1104	13
319.0948	27
320.1068	13
334.1036	15
335.0984	10
340.0377	33
341.0447	11
345.1005	18
346.1078	41
362.1064	24
