Mass spectrum: Timolol; LC-ESI-QTOF; MS2; 20 V
Name: Timolol
Class: Pharmaceutical
Formula: C13H24N4O3S
Exact mass: 316.1569
SMILES: CC(C)(C)NCC(COC1=NSN=C1N2CCOCC2)O
InChI: InChI=1S/C13H24N4O3S/c1-13(2,3)14-8-10(18)9-20-12-11(15-21-16-12)17-4-6-19-7-5-17/h10,14,18H,4-9H2,1-3H3
Instrument: TripleTOF 5600 SCIEX
Instrument type: LC-ESI-QTOF
Ms type: MS2
Ion mode: POSITIVE
Collision energy: 20
Fragmentation mode: CID
Ionization: ESI
Column name: Zorbax Eclipse Plus C18 2.1 mm x 150 mm, 3.5 um, Agilent
Retention time: 5.513 min
Precursor m/z: 317.1642
Precursor type: [M+H]+
m/z	relative intensity
74.0659	95
130.1244	15
188.0489	78
243.09	26
244.0745	211
261.1013	708
316.1607	19
317.1639	999
