Mass spectrum: O-desmethyl-naproxen; LC-ESI-QTOF; MS2; 40 V
Name: O-desmethyl-naproxen
Class: Metabolite; Pharmaceutical; Transformation_product
Formula: C13H12O3
Exact mass: 216.0786
SMILES: CC(C1=CC2=C(C=C1)C=C(C=C2)O)C(=O)O
InChI: InChI=1S/C13H12O3/c1-8(13(15)16)9-2-3-11-7-12(14)5-4-10(11)6-9/h2-8,14H,1H3,(H,15,16)
Instrument: TripleTOF 5600 SCIEX
Instrument type: LC-ESI-QTOF
Ms type: MS2
Ion mode: POSITIVE
Collision energy: 40
Fragmentation mode: CID
Ionization: ESI
Column name: Zorbax Eclipse Plus C18 2.1 mm x 150 mm, 3.5 um, Agilent
Retention time: 8.5 min
Precursor m/z: 217.0859
Precursor type: [M+H]+
m/z	relative intensity
83.0518	33
91.0567	49
115.0539	382
116.0618	83
127.0539	283
128.061	832
129.0686	83
141.069	74
143.0844	233
144.0555	191
151.0521	91
151.0652	41
152.0615	774
153.0687	482
154.0727	41
155.0606	49
170.0674	58
171.0793	999
181.0733	58
