Mass spectrum: Parathion; LC-ESI-QTOF; MS2; 70 V
Name: Parathion
Class: Insecticide
Formula: C10H14NO5PS
Exact mass: 291.033
SMILES: CCOP(=S)(OCC)Oc1ccc(cc1)[N+](=O)[O-]
InChI: InChI=1S/C10H14NO5PS/c1-3-14-17(18,15-4-2)16-10-7-5-9(6-8-10)11(12)13/h5-8H,3-4H2,1-2H3
Instrument: TripleTOF 5600 SCIEX
Instrument type: LC-ESI-QTOF
Ms type: MS2
Ion mode: POSITIVE
Collision energy: 70
Fragmentation mode: CID
Ionization: ESI
Column name: Zorbax Eclipse Plus C18 2.1 mm x 150 mm, 3.5 um, Agilent
Retention time: 14.107 min
Precursor m/z: 292.0403
Precursor type: [M+H]+
m/z	relative intensity
64.9897	86
65.0433	246
66.0501	579
75.0259	376
77.0408	86
78.9423	115
81.0389	57
92.0264	130
93.0365	217
93.0583	72
94.0421	999
94.0635	101
96.9508	376
97.0125	173
109.011	188
110.0185	289
121.0409	72
123.0321	144
125.0068	57
154.9699	115
