Mass spectrum: 3,4-Methylenedioxy-N-ethylamphetamine; LC-ESI-QTOF; MS2; 60 V
Name: 3,4-Methylenedioxy-N-ethylamphetamine
Class: Pharmaceutical
Formula: C12H17NO2
Exact mass: 207.1259
SMILES: CCNC(C)CC1=CC2=C(C=C1)OCO2
InChI: InChI=1S/C12H17NO2/c1-3-13-9(2)6-10-4-5-11-12(7-10)15-8-14-11/h4-5,7,9,13H,3,6,8H2,1-2H3
Instrument: TripleTOF 6600 SCIEX
Instrument type: LC-ESI-QTOF
Ms type: MS2
Ion mode: POSITIVE
Collision energy: 60
Fragmentation mode: CID
Ionization: ESI
Column name: Zorbax Eclipse Plus C18 2.1 mm x 150 mm, 3.5 um, Agilent
Retention time: 5.673 min
Precursor m/z: 208.1332
Precursor type: [M+H]+
m/z	relative intensity
39.0228	19
44.0492	10
50.0147	16
51.0229	158
55.0173	11
65.0381	64
77.0381	999
79.0538	261
89.0372	18
91.0534	21
103.0534	178
105.0393	43
105.068	82
115.053	10
121.0275	34
135.0429	66
147.0429	44
