Mass spectrum: Timolol; LC-ESI-QTOF; MS2; 60 V
Name: Timolol
Class: Pharmaceutical
Formula: C13H24N4O3S
Exact mass: 316.1569
SMILES: CC(C)(C)NCC(COC1=NSN=C1N2CCOCC2)O
InChI: InChI=1S/C13H24N4O3S/c1-13(2,3)14-8-10(18)9-20-12-11(15-21-16-12)17-4-6-19-7-5-17/h10,14,18H,4-9H2,1-3H3
Instrument: TripleTOF 5600 SCIEX
Instrument type: LC-ESI-QTOF
Ms type: MS2
Ion mode: POSITIVE
Collision energy: 60
Fragmentation mode: CID
Ionization: ESI
Column name: Zorbax Eclipse Plus C18 2.1 mm x 150 mm, 3.5 um, Agilent
Retention time: 5.513 min
Precursor m/z: 317.1642
Precursor type: [M+H]+
m/z	relative intensity
56.0582	435
57.0452	16
59.9975	40
69.0498	225
70.0583	28
71.9954	32
74.0113	269
74.0654	737
85.9747	32
86.0631	76
99.0022	221
101.0192	72
102.9978	28
113.0722	717
118.0342	24
126.9964	100
127.9904	48
130.0066	44
144.023	999
145.0415	124
159.0223	36
170.0381	72
188.0465	330
244.0749	20
