Mass spectrum: Demeclocycline; LC-ESI-QTOF; MS2; 110 V
Name: Demeclocycline
Class: Antimicrobial; Pharmaceutical
Formula: C21H21ClN2O8
Exact mass: 464.0986
SMILES: CN(C)C1C2CC3C(C4=C(C=CC(=C4C(=C3C(=O)C2(C(=C(C1=O)C(=O)N)O)O)O)O)Cl)O
InChI: InChI=1S/C21H21ClN2O8/c1-24(2)14-7-5-6-10(16(27)12-9(25)4-3-8(22)11(12)15(6)26)18(29)21(7,32)19(30)13(17(14)28)20(23)31/h3-4,6-7,14-15,25-27,30,32H,5H2,1-2H3,(H2,23,31)
Instrument: TripleTOF 5600 SCIEX
Instrument type: LC-ESI-QTOF
Ms type: MS2
Ion mode: POSITIVE
Collision energy: 110
Fragmentation mode: CID
Ionization: ESI
Column name: Zorbax Eclipse Plus C18 2.1 mm x 150 mm, 3.5 um, Agilent
Retention time: 5.787 min
Precursor m/z: 465.1059
Precursor type: [M+H]+
m/z	relative intensity
115.057	111
139.0566	541
140.0622	277
141.0689	124
150.0484	222
151.0565	194
152.0638	999
153.0665	69
163.0548	249
164.0614	208
165.0685	180
167.0433	124
168.0573	735
169.0651	124
173.0129	111
176.0626	97
180.0572	138
181.0668	138
187.0319	55
192.0575	111
196.0542	55
197.0582	180
199.027	235
205.0611	97
215.0209	69
231.0118	69
