Mass spectrum: Malachite green cation; LC-ESI-QTOF; MS2; 150 V
Name: Malachite green cation
Class: Industrial_process; Pigment
Formula: [C23H25N2]+
Exact mass: 329.2012
SMILES: CN(C)C1=CC=C(C=C1)C(=C2C=CC(=[N+](C)C)C=C2)C3=CC=CC=C3
InChI: InChI=1S/C23H25N2/c1-24(2)21-14-10-19(11-15-21)23(18-8-6-5-7-9-18)20-12-16-22(17-13-20)25(3)4/h5-17H,1-4H3/q+1
Instrument: TripleTOF 5600 SCIEX
Instrument type: LC-ESI-QTOF
Ms type: MS2
Ion mode: POSITIVE
Collision energy: 150
Fragmentation mode: CID
Ionization: ESI
Column name: Zorbax Eclipse Plus C18 2.1 mm x 150 mm, 3.5 um, Agilent
Retention time: 9.29 min
Precursor m/z: 329.2012
Precursor type: [M]+
m/z	relative intensity
89.0353	71
115.0536	128
139.0518	128
150.0455	171
151.052	114
162.0455	156
163.0535	627
164.0603	128
165.069	71
176.0617	85
187.0525	256
188.0591	114
189.0719	142
190.0643	71
200.0618	256
211.0531	185
212.0625	99
213.068	356
224.063	442
225.0587	85
226.0788	214
235.0541	299
236.0618	228
237.0696	999
238.0766	199
239.0857	313
251.0742	85
