Mass spectrum: Triethylphosphine oxide; LC-ESI-QTOF; MS2; 40 V
Name: Triethylphosphine oxide
Class: Pharmaceutical; Industrial_process
Formula: C6H15OP
Exact mass: 134.0861
SMILES: CC[P](=O)(CC)CC
InChI: InChI=1S/C6H15OP/c1-4-8(7,5-2)6-3/h4-6H2,1-3H3
Instrument: TripleTOF 5600 SCIEX
Instrument type: LC-ESI-QTOF
Ms type: MS2
Ion mode: POSITIVE
Collision energy: 40
Fragmentation mode: CID
Ionization: ESI
Column name: Zorbax Eclipse Plus C18 2.1 mm x 150 mm, 3.5 um, Agilent
Retention time: 5.148 min
Precursor m/z: 135.0933
Precursor type: [M+H]+
m/z	relative intensity
44.9959	39
45.0056	9
47.0083	14
48.0076	19
49.9979	204
51.005	29
55.9855	9
56.9951	202
59.0089	177
61.0244	217
62.9666	14
63.0042	680
64.0495	19
75.0408	22
77.0182	629
78.0262	902
79.0332	83
89.0534	54
91.0325	24
92.0409	717
105.0475	32
106.0544	165
107.063	313
135.0939	999
