Mass spectrum: Tebuconazole; LC-ESI-QTOF; MS2; 90 V
Name: Tebuconazole
Class: Fungicide
Formula: C16H22ClN3O
Exact mass: 307.1451
SMILES: CC(C)(C)C(O)(CCc1ccc(Cl)cc1)Cn2cncn2
InChI: InChI=1S/C16H22ClN3O/c1-15(2,3)16(21,10-20-12-18-11-19-20)9-8-13-4-6-14(17)7-5-13/h4-7,11-12,21H,8-10H2,1-3H3
Instrument: TripleTOF 5600 SCIEX
Instrument type: LC-ESI-QTOF
Ms type: MS2
Ion mode: POSITIVE
Collision energy: 90
Fragmentation mode: CID
Ionization: ESI
Column name: Zorbax Eclipse Plus C18 2.1 mm x 150 mm, 3.5 um, Agilent
Retention time: 12.72 min
Precursor m/z: 308.1524
Precursor type: [M+H]+
m/z	relative intensity
42.0346	10
43.0394	123
55.06	10
57.0753	21
59.0552	54
65.0431	24
70.0459	999
72.9874	47
77.042	60
89.0419	374
90.0483	112
99.0014	192
102.0472	13
103.0545	23
115.0553	328
116.0625	82
125.0162	497
127.0541	11
128.062	39
129.0698	25
