Mass spectrum: Acridone; LC-ESI-QTOF; MS2; 140 V
Name: Acridone
Class: Metabolite; Pharmaceutical; Transformation_product
Formula: C13H9NO
Exact mass: 195.0684
SMILES: O=C1c2ccccc2Nc3ccccc13
InChI: InChI=1S/C13H9NO/c15-13-9-5-1-3-7-11(9)14-12-8-4-2-6-10(12)13/h1-8H,(H,14,15)
Instrument: TripleTOF 5600 SCIEX
Instrument type: LC-ESI-QTOF
Ms type: MS2
Ion mode: NEGATIVE
Collision energy: 140
Fragmentation mode: CID
Ionization: ESI
Column name: Zorbax Eclipse Plus C18 2.1 mm x 150 mm, 3.5 um, Agilent
Retention time: 8.5 min
Precursor m/z: 194.0611
Precursor type: [M-H]-
m/z	relative intensity
41.0056	104
42.0014	104
50.0051	145
63.0106	62
65.0031	228
65.9983	999
66.0153	62
73.0085	62
74.0053	62
87.0097	104
88.0195	145
89.0275	62
138.031	83
140.0472	62
162.0322	187
163.0427	62
164.0455	83
