Mass spectrum: Thiamethoxam; LC-ESI-QTOF; MS2; 70 V
Name: Thiamethoxam
Class: Insecticide
Formula: C8H10ClN5O3S
Exact mass: 291.0193
SMILES: CN1COCN(Cc2sc(Cl)nc2)/C1=N/[N+]([O-])=O
InChI: InChI=1S/C8H10ClN5O3S/c1-12-4-17-5-13(8(12)11-14(15)16)3-6-2-10-7(9)18-6/h2H,3-5H2,1H3/b11-8+
Instrument: TripleTOF 5600 SCIEX
Instrument type: LC-ESI-QTOF
Ms type: MS2
Ion mode: POSITIVE
Collision energy: 70
Fragmentation mode: CID
Ionization: ESI
Column name: Zorbax Eclipse Plus C18 2.1 mm x 150 mm, 3.5 um, Agilent
Retention time: 6.188 min
Precursor m/z: 292.0266
Precursor type: [M+H]+
m/z	relative intensity
54.04	74
61.9862	53
67.0325	53
67.0443	106
69.0487	159
70.9983	542
71.0244	63
71.9936	116
78.9423	63
79.0304	53
81.0468	212
83.992	286
87.9979	63
93.0446	53
94.0552	106
95.0629	85
95.993	42
98.0077	223
108.0556	786
111.0014	127
122.0693	170
124.0083	138
125.0176	127
131.9671	999
138.0118	85
151.0193	42
152.0277	138
