Mass spectrum: Gabapentin related compound E; LC-ESI-QTOF; MS2; 20 V
Name: Gabapentin related compound E
Class: Pharmaceutical; Transformation_product
Formula: C9H14O4
Exact mass: 186.0892
SMILES: OC(=O)CC1(CCCCC1)C(O)=O
InChI: InChI=1S/C9H14O4/c10-7(11)6-9(8(12)13)4-2-1-3-5-9/h1-6H2,(H,10,11)(H,12,13)
Instrument: TripleTOF 5600 SCIEX
Instrument type: LC-ESI-QTOF
Ms type: MS2
Ion mode: NEGATIVE
Collision energy: 20
Fragmentation mode: CID
Ionization: ESI
Column name: Zorbax Eclipse Plus C18 2.1 mm x 150 mm, 3.5 um, Agilent
Retention time: 7.493 min
Precursor m/z: 185.0819
Precursor type: [M-H]-
m/z	relative intensity
141.0914	903
185.0807	999
