Mass spectrum: Amitriptyline; LC-ESI-QTOF; MS2; 130 V
Name: Amitriptyline
Class: Pharmaceutical
Formula: C20H23N
Exact mass: 277.183
SMILES: CN(C)CCC=C1C2=CC=CC=C2CCC3=CC=CC=C31
InChI: InChI=1S/C20H23N/c1-21(2)15-7-12-20-18-10-5-3-8-16(18)13-14-17-9-4-6-11-19(17)20/h3-6,8-12H,7,13-15H2,1-2H3
Instrument: TripleTOF 6600 SCIEX
Instrument type: LC-ESI-QTOF
Ms type: MS2
Ion mode: POSITIVE
Collision energy: 130
Fragmentation mode: CID
Ionization: ESI
Column name: Zorbax Eclipse Plus C18 2.1 mm x 150 mm, 3.5 um, Agilent
Retention time: 8.708 min
Precursor m/z: 278.1903
Precursor type: [M+H]+
m/z	relative intensity
37.0075	55
38.0151	47
39.0232	247
41.0386	15
42.0341	32
44.0491	13
49.0072	69
50.0152	338
51.0233	489
52.0307	28
59.9998	12
61.0073	76
62.0152	173
63.0232	353
65.0387	273
73.0071	23
74.0154	226
75.0227	132
76.0306	126
77.0387	283
78.0462	77
85.0073	41
86.015	97
87.0228	125
88.031	18
89.0387	246
91.054	68
97.0073	12
98.0151	139
99.023	58
100.0304	28
101.0385	31
102.0463	200
109.0074	16
110.0155	43
111.0232	35
113.0384	83
114.0456	14
115.0541	278
122.0154	55
123.0231	26
124.0305	18
125.0382	64
126.0466	209
127.0543	82
128.0619	77
129.044	9
134.015	15
135.0223	14
137.0384	51
138.0472	26
139.0544	169
146.0156	9
148.0303	12
149.0385	107
150.0467	698
151.0543	368
152.0622	199
155.0606	10
161.0388	104
162.0464	155
163.0546	555
164.062	78
165.07	43
173.0387	27
174.047	271
175.0541	147
176.0624	230
177.069	13
179.06	14
185.0385	61
186.0462	124
187.0549	760
188.0622	191
189.0704	256
197.0413	11
198.0466	166
199.0551	260
200.0629	999
201.0703	128
202.0782	58
210.0458	14
211.0539	148
212.062	57
213.0706	383
214.0781	13
215.0852	45
