Mass spectrum: 2-Morpholin-4-yl-benzothiazole; LC-ESI-QTOF; MS2; 40 V
Name: 2-Morpholin-4-yl-benzothiazole
Class: Industrial_process
Formula: C11H12N2OS
Exact mass: 220.067
SMILES: c1ccc2c(c1)nc(s2)N3CCOCC3
InChI: InChI=1S/C11H12N2OS/c1-2-4-10-9(3-1)12-11(15-10)13-5-7-14-8-6-13/h1-4H,5-8H2
Instrument: TripleTOF 5600 SCIEX
Instrument type: LC-ESI-QTOF
Ms type: MS2
Ion mode: POSITIVE
Collision energy: 40
Fragmentation mode: CID
Ionization: ESI
Column name: Zorbax Eclipse Plus C18 2.1 mm x 150 mm, 3.5 um, Agilent
Retention time: 9.363 min
Precursor m/z: 221.0743
Precursor type: [M+H]+
m/z	relative intensity
45.0405	16
57.0752	12
65.0428	47
67.0581	12
74.0091	13
77.0417	31
79.0562	16
80.051	24
81.0718	17
91.056	34
92.0514	32
104.0487	10
105.0706	20
106.0655	26
108.0027	18
109.0117	853
111.0799	11
116.0478	20
117.0574	205
119.0848	15
121.064	13
124.0216	125
134.006	52
135.0134	69
136.022	663
144.0689	30
148.0219	22
149.029	77
150.0375	990
151.0321	51
160.022	24
161.0176	15
162.0365	16
163.0326	53
175.0318	140
176.042	16
177.0485	999
188.0405	16
189.0478	43
203.0633	35
219.0577	16
221.0744	364
