Mass spectrum: Methabenzthiazuron; LC-ESI-QTOF; MS2; 80 V
Name: Methabenzthiazuron
Class: Herbicide
Formula: C10H11N3OS
Exact mass: 221.0623
SMILES: CNC(=O)N(C)c1sc2ccccc2n1
InChI: InChI=1S/C10H11N3OS/c1-11-9(14)13(2)10-12-7-5-3-4-6-8(7)15-10/h3-6H,1-2H3,(H,11,14)
Instrument: TripleTOF 5600 SCIEX
Instrument type: LC-ESI-QTOF
Ms type: MS2
Ion mode: POSITIVE
Collision energy: 80
Fragmentation mode: CID
Ionization: ESI
Column name: Zorbax Eclipse Plus C18 2.1 mm x 150 mm, 3.5 um, Agilent
Retention time: 9.783 min
Precursor m/z: 222.0696
Precursor type: [M+H]+
m/z	relative intensity
51.0292	14
52.0359	13
53.0439	17
58.0334	41
65.0429	85
68.9829	135
69.991	227
77.0406	34
78.0357	20
79.0433	38
80.0523	130
81.9888	20
91.0424	33
94.9959	244
96.0043	999
97.0107	17
105.0436	27
106.0525	16
108.0018	21
109.0097	35
118.0521	61
122.0049	150
123.0129	194
150.024	103
