Mass spectrum: Metolachlor ESA; LC-ESI-QTOF; MS2; 70 V
Name: Metolachlor ESA
Class: Herbicide; Transformation_product-Metabolite
Formula: C15H23NO5S
Exact mass: 329.1297
SMILES: CCC1=CC=CC(=C1N(C(C)COC)C(=O)CS(=O)(=O)O)C
InChI: InChI=1S/C15H23NO5S/c1-5-13-8-6-7-11(2)15(13)16(12(3)9-21-4)14(17)10-22(18,19)20/h6-8,12H,5,9-10H2,1-4H3,(H,18,19,20)
Instrument: TripleTOF 5600 SCIEX
Instrument type: LC-ESI-QTOF
Ms type: MS2
Ion mode: POSITIVE
Collision energy: 70
Fragmentation mode: CID
Ionization: ESI
Column name: Zorbax Eclipse Plus C18 2.1 mm x 150 mm, 3.5 um, Agilent
Retention time: 8.247 min
Precursor m/z: 330.137
Precursor type: [M+H]+
m/z	relative intensity
45.0397	37
73.0681	37
77.0402	32
77.0491	24
79.0567	24
91.0555	222
93.0591	20
103.0533	49
104.0638	28
105.0692	102
106.0627	20
106.0713	16
107.0745	41
108.0813	37
115.0535	119
116.0617	20
117.0637	341
118.0641	127
119.0742	189
120.0816	94
128.0612	90
129.066	32
130.0648	304
131.0724	378
132.0799	386
133.0889	90
134.0957	53
134.1089	20
141.0655	16
142.0648	32
143.0716	61
143.0846	65
144.0801	920
145.0523	20
145.088	999
146.0593	45
146.0956	271
148.1116	24
157.085	16
158.0587	28
158.0966	333
159.1049	242
160.0788	49
160.1123	390
162.0901	65
172.1139	28
174.128	143
202.1244	82
