Mass spectrum: 3,3`-Dimethoxybenzidine; LC-ESI-QTOF; MS2; 80 V
Name: 3,3`-Dimethoxybenzidine
Formula: C14H16N2O2
Exact mass: 244.1212
SMILES: COC1=C(C=CC(=C1)C2=CC(=C(C=C2)N)OC)N
InChI: InChI=1S/C14H16N2O2/c1-17-13-7-9(3-5-11(13)15)10-4-6-12(16)14(8-10)18-2/h3-8H,15-16H2,1-2H3
Instrument: TripleTOF 6600 SCIEX
Instrument type: LC-ESI-QTOF
Ms type: MS2
Ion mode: POSITIVE
Collision energy: 80
Fragmentation mode: CID
Ionization: ESI
Column name: Zorbax Eclipse Plus C18 2.1 mm x 150 mm, 3.5 um, Agilent
Retention time: 5.188 min
Precursor m/z: 245.1285
Precursor type: [M+H]+
m/z	relative intensity
51.0217	16
62.0151	9
63.0222	25
65.0389	28
74.0132	11
75.0222	30
76.0308	14
77.038	169
78.0352	23
80.0485	73
87.0212	11
89.0378	186
90.0464	35
91.0544	87
92.0512	18
93.0567	14
99.0234	21
101.0388	37
102.0457	56
103.0539	65
104.0502	91
105.0504	18
109.0511	47
113.0389	18
114.0456	63
115.0535	999
116.0498	136
117.0562	164
118.0637	44
119.063	14
122.0585	11
125.0371	14
126.0453	82
127.0528	134
128.0483	37
128.0608	11
129.0438	11
130.0647	242
131.0668	219
132.0765	14
139.0556	21
140.0486	131
141.0555	190
142.0632	117
143.0574	37
143.0744	56
146.0566	18
151.0446	9
152.0493	44
153.0573	18
154.0648	63
155.0594	25
156.0675	18
157.0728	54
158.0814	141
159.0859	91
164.0526	11
167.0614	14
168.0671	87
169.076	47
170.0557	14
187.0863	61
