Mass spectrum: 4-Hydroxydiphenylamine; LC-ESI-QTOF; MS2; 40 V
Name: 4-Hydroxydiphenylamine
Class: Pesticide; Industrial_process
Formula: C12H11NO
Exact mass: 185.0841
SMILES: C1=CC=C(C=C1)NC2=CC=C(C=C2)O
InChI: InChI=1S/C12H11NO/c14-12-8-6-11(7-9-12)13-10-4-2-1-3-5-10/h1-9,13-14H
Instrument: TripleTOF 6600 SCIEX
Instrument type: LC-ESI-QTOF
Ms type: MS2
Ion mode: POSITIVE
Collision energy: 40
Fragmentation mode: CID
Ionization: ESI
Column name: Zorbax Eclipse Plus C18 2.1 mm x 150 mm, 3.5 um, Agilent
Retention time: 10.034 min
Precursor m/z: 186.0914
Precursor type: [M+H]+
m/z	relative intensity
53.0376	15
65.0378	52
66.0454	15
80.0489	229
81.0332	52
81.0558	29
82.0396	11
92.0484	55
93.0565	97
108.0434	122
109.0517	999
115.0528	16
141.0687	16
167.0723	18
186.0907	51
