Mass spectrum: Nifedipine; LC-ESI-QTOF; MS2; 120 V
Name: Nifedipine
Class: Pharmaceutical
Formula: C17H18N2O6
Exact mass: 346.1165
SMILES: CC1=C(C(C(=C(N1)C)C(=O)OC)C2=CC=CC=C2[N+](=O)[O-])C(=O)OC
InChI: InChI=1S/C17H18N2O6/c1-9-13(16(20)24-3)15(14(10(2)18-9)17(21)25-4)11-7-5-6-8-12(11)19(22)23/h5-8,15,18H,1-4H3
Instrument: TripleTOF 5600 SCIEX
Instrument type: LC-ESI-QTOF
Ms type: MS2
Ion mode: POSITIVE
Collision energy: 120
Fragmentation mode: CID
Ionization: ESI
Column name: Zorbax Eclipse Plus C18 2.1 mm x 150 mm, 3.5 um, Agilent
Retention time: 10.896 min
Precursor m/z: 347.1238
Precursor type: [M+H]+
m/z	relative intensity
42.0468	34
50.0243	22
61.0145	23
62.0232	33
63.0313	130
64.0355	10
65.0461	73
66.0524	11
67.0258	15
74.0211	116
75.029	244
76.036	82
77.0448	449
78.0513	61
86.0202	37
87.0277	76
88.0343	106
89.0432	431
90.0505	64
91.0586	47
92.0523	12
93.0613	10
98.0188	73
99.027	192
100.0208	17
100.0331	41
101.0425	199
102.0495	190
103.0548	41
104.0515	16
106.068	11
113.0416	323
114.0459	189
115.0572	673
116.0524	86
117.0601	52
125.0409	148
126.0486	334
127.056	522
128.0578	366
129.0524	55
130.0684	21
137.0406	51
138.048	124
139.0561	999
140.0519	765
141.0633	86
142.0654	32
143.0722	11
149.0394	16
150.0483	111
151.0547	204
152.0604	457
153.0592	156
154.0666	198
155.0611	38
163.0561	31
164.0512	283
165.0572	136
166.0662	484
167.0735	399
168.0782	71
169.0769	14
176.0521	10
177.0562	30
178.0655	34
179.061	133
180.0816	30
181.0785	41
191.0615	115
192.0694	197
193.0777	44
194.0835	10
