Mass spectrum: N,O-didesmethyl-venlafaxine; LC-ESI-QTOF; MS2; 30 V
Name: N,O-didesmethyl-venlafaxine
Class: Pharmaceutical; Metabolite
Formula: C15H23NO2
Exact mass: 249.1729
SMILES: CNCC(c1ccc(cc1)O)C2(CCCCC2)O
InChI: InChI=1S/C15H23NO2/c1-16-11-14(12-5-7-13(17)8-6-12)15(18)9-3-2-4-10-15/h5-8,14,16-18H,2-4,9-11H2,1H3
Instrument: TripleTOF 5600 SCIEX
Instrument type: LC-ESI-QTOF
Ms type: MS2
Ion mode: POSITIVE
Collision energy: 30
Fragmentation mode: CID
Ionization: ESI
Column name: Zorbax Eclipse Plus C18 2.1 mm x 150 mm, 3.5 um, Agilent
Retention time: 5.659 min
Precursor m/z: 250.1802
Precursor type: [M+H]+
m/z	relative intensity
44.0592	914
69.0722	35
77.0406	27
79.0555	46
81.071	91
91.0538	29
93.0702	10
105.0687	62
107.0492	931
115.0541	11
119.0481	21
121.0636	60
131.0478	27
131.084	17
133.0643	999
135.0666	29
141.0687	14
144.0556	10
145.0639	245
147.0796	15
149.0852	11
150.0897	58
159.0799	340
173.094	30
201.1268	269
232.1691	88
