Mass spectrum: Simvastatin; LC-ESI-QTOF; MS2; 40 V
Name: Simvastatin
Class: Pharmaceutical
Formula: C25H38O5
Exact mass: 418.2719
SMILES: CCC(C)(C)C(=O)O[C@H]1C[C@@H](C)C=C2C=C[C@H](C)[C@H](CC[C@@H]3C[C@@H](O)CC(=O)O3)[C@@H]12
InChI: InChI=1S/C25H38O5/c1-6-25(4,5)24(28)30-21-12-15(2)11-17-8-7-16(3)20(23(17)21)10-9-19-13-18(26)14-22(27)29-19/h7-8,11,15-16,18-21,23,26H,6,9-10,12-14H2,1-5H3/t15-,16-,18+,19+,20-,21-,23-/m0/s1
Instrument: TripleTOF 5600 SCIEX
Instrument type: LC-ESI-QTOF
Ms type: MS2
Ion mode: POSITIVE
Collision energy: 40
Fragmentation mode: CID
Ionization: ESI
Column name: Zorbax Eclipse Plus C18 2.1 mm x 150 mm, 3.5 um, Agilent
Retention time: 15.438 min
Precursor m/z: 419.2792
Precursor type: [M+H]+
m/z	relative intensity
79.0567	69
81.0708	37
83.0521	31
91.0538	50
93.0714	37
97.0651	31
105.0706	106
107.0845	100
108.0459	37
117.0732	31
119.0861	94
121.099	37
128.0606	43
129.0685	37
131.0865	175
133.1011	50
141.0707	56
142.0806	31
143.0852	376
144.0987	25
145.0999	219
145.1146	31
147.1173	31
154.0778	25
155.0859	119
156.0933	75
157.0999	226
158.1101	50
159.116	295
169.1014	245
171.1168	257
173.1314	653
181.1011	69
183.1172	157
185.1322	43
191.1044	37
193.1054	37
195.1169	37
197.133	144
199.1464	999
201.1612	138
205.1225	31
207.1194	75
211.1109	37
211.1466	81
215.1782	31
221.1324	31
223.1478	125
225.1254	37
225.1621	640
229.1202	31
239.1391	37
239.1779	106
243.1739	201
249.1631	138
267.1735	144
285.1841	144
285.2024	25
303.1955	37
