Mass spectrum: Estradiol; LC-ESI-QTOF; MS2; 100 V
Name: Estradiol
Class: Pharmaceutical
Formula: C18H24O2
Exact mass: 272.1776
SMILES: CC12CCC3C(C1CCC2O)CCC4=C3C=CC(=C4)O
InChI: InChI=1S/C18H24O2/c1-18-9-8-14-13-5-3-12(19)10-11(13)2-4-15(14)16(18)6-7-17(18)20/h3,5,10,14-17,19-20H,2,4,6-9H2,1H3
Instrument: TripleTOF 5600 SCIEX
Instrument type: LC-ESI-QTOF
Ms type: MS2
Ion mode: POSITIVE
Collision energy: 100
Fragmentation mode: CID
Ionization: ESI
Column name: Zorbax Eclipse Plus C18 2.1 mm x 150 mm, 3.5 um, Agilent
Retention time: 10.403 min
Precursor m/z: 273.1849
Precursor type: [M+H]+
m/z	relative intensity
39.0228	41
41.0388	32
50.0151	49
51.0231	222
53.0384	31
55.0177	46
55.054	29
63.0232	21
65.0384	82
67.0539	54
77.0386	999
78.0463	28
79.0539	150
81.0341	18
81.0688	19
89.0379	24
91.0544	125
93.0695	9
95.0852	16
103.0544	37
105.0701	18
107.0493	217
115.0546	123
116.0582	18
127.0553	23
128.0611	31
129.0691	9
131.0505	13
