Mass spectrum: 4-Acetamidoantipyrine; LC-ESI-QTOF; MS2; 50 V
Name: 4-Acetamidoantipyrine
Class: Pharmaceutical; Metabolite; Transformation_product
Formula: C13H15N3O2
Exact mass: 245.1164
SMILES: CN1N(C(=O)C(=C1C)NC(C)=O)c2ccccc2
InChI: InChI=1S/C13H15N3O2/c1-9-12(14-10(2)17)13(18)16(15(9)3)11-7-5-4-6-8-11/h4-8H,1-3H3,(H,14,17)
Instrument: TripleTOF 5600 SCIEX
Instrument type: LC-ESI-QTOF
Ms type: MS2
Ion mode: POSITIVE
Collision energy: 50
Fragmentation mode: CID
Ionization: ESI
Column name: Zorbax Eclipse Plus C18 2.1 mm x 150 mm, 3.5 um, Agilent
Retention time: 5.586 min
Precursor m/z: 246.1237
Precursor type: [M+H]+
m/z	relative intensity
42.0423	18
43.0262	42
51.0287	11
56.0564	374
77.0425	435
81.0469	25
83.064	999
91.0561	12
92.0507	18
94.0666	94
104.051	347
117.0572	18
118.0662	16
119.0606	14
128.049	34
130.0657	27
131.0603	29
132.0796	31
143.0604	18
144.0679	13
144.0795	26
145.0762	21
146.0605	14
159.0917	37
171.0554	31
172.0633	10
185.0694	12
