Mass spectrum: Brilliant Green Cation; LC-ESI-QTOF; MS2; 90 V
Name: Brilliant Green Cation
Formula: [C27H33N2]+
Exact mass: 385.2638
SMILES: CCN(CC)C1=CC=C(C=C1)C(=C2C=CC(=[N+](CC)CC)C=C2)C3=CC=CC=C3
InChI: InChI=1S/C27H33N2/c1-5-28(6-2)25-18-14-23(15-19-25)27(22-12-10-9-11-13-22)24-16-20-26(21-17-24)29(7-3)8-4/h9-21H,5-8H2,1-4H3/q+1
Instrument: TripleTOF 6600 SCIEX
Instrument type: LC-ESI-QTOF
Ms type: MS2
Ion mode: POSITIVE
Collision energy: 90
Fragmentation mode: CID
Ionization: ESI
Column name: Zorbax Eclipse Plus C18 2.1 mm x 150 mm, 3.5 um, Agilent
Retention time: 12.461 min
Precursor m/z: 385.2638
Precursor type: [M]+
m/z	relative intensity
152.0588	50
164.0599	67
165.0682	373
190.0637	68
191.0717	86
192.0798	452
215.0843	110
219.0908	90
226.076	110
228.0919	58
239.0846	380
240.0914	214
241.1005	999
253.0985	52
254.0981	102
255.114	76
267.1019	64
268.1115	295
269.1187	163
283.1349	130
297.1371	206
