Mass spectrum: Haloxyfop-2-ethoxyethyl; LC-ESI-QTOF; MS2; 60 V
Name: Haloxyfop-2-ethoxyethyl
Class: Herbicide
Formula: C19H19ClF3NO5
Exact mass: 433.0904
SMILES: CCOCCOC(=O)C(C)Oc1ccc(Oc2ncc(cc2Cl)C(F)(F)F)cc1
InChI: InChI=1S/C19H19ClF3NO5/c1-3-26-8-9-27-18(25)12(2)28-14-4-6-15(7-5-14)29-17-16(20)10-13(11-24-17)19(21,22)23/h4-7,10-12H,3,8-9H2,1-2H3
Instrument: TripleTOF 5600 SCIEX
Instrument type: LC-ESI-QTOF
Ms type: MS2
Ion mode: POSITIVE
Collision energy: 60
Fragmentation mode: CID
Ionization: ESI
Column name: Zorbax Eclipse Plus C18 2.1 mm x 150 mm, 3.5 um, Agilent
Retention time: 15.493 min
Precursor m/z: 434.0977
Precursor type: [M+H]+
m/z	relative intensity
45.0401	62
45.0597	31
65.0406	31
65.0473	39
73.067	39
91.0554	975
99.0445	54
100.0514	70
119.0487	39
179.9786	31
197.9904	54
203.0109	39
209.0427	179
216.0266	78
219.0428	39
232.0117	70
235.062	39
237.0383	46
245.0167	54
251.9971	54
252.0599	54
260.0413	54
272.0061	999
288.0029	46
288.037	109
316.031	31
