Mass spectrum: Salbutamol; LC-ESI-QTOF; MS2; 50 V
Name: Salbutamol
Class: Pharmaceutical
Formula: C13H21NO3
Exact mass: 239.1521
SMILES: CC(C)(NCC(c1cc(CO)c(O)cc1)O)C
InChI: InChI=1S/C13H21NO3/c1-13(2,3)14-7-12(17)9-4-5-11(16)10(6-9)8-15/h4-6,12,14-17H,7-8H2,1-3H3
Instrument: TripleTOF 5600 SCIEX
Instrument type: LC-ESI-QTOF
Ms type: MS2
Ion mode: NEGATIVE
Collision energy: 50
Fragmentation mode: CID
Ionization: ESI
Column name: Zorbax Eclipse Plus C18 2.1 mm x 150 mm, 3.5 um, Agilent
Retention time: 4.69 min
Precursor m/z: 238.1449
Precursor type: [M-H]-
m/z	relative intensity
77.0369	121
90.0461	60
91.0551	60
106.0417	999
107.0506	60
117.0574	302
118.0263	60
118.0404	90
119.0504	242
121.028	60
131.0358	181
132.0469	302
133.0521	211
134.0371	696
134.0615	121
136.0526	90
144.046	363
160.0403	787
160.0771	272
161.0477	514
162.0563	60
163.0641	333
188.0698	151
190.124	544
218.1167	90
