Mass spectrum: Flunixin; LC-ESI-QTOF; MS2; 150 V
Name: Flunixin
Class: Pharmaceutical
Formula: C14H11F3N2O2
Exact mass: 296.0773
SMILES: CC1=C(C=CC=C1NC2=C(C=CC=N2)C(=O)O)C(F)(F)F
InChI: InChI=1S/C14H11F3N2O2/c1-8-10(14(15,16)17)5-2-6-11(8)19-12-9(13(20)21)4-3-7-18-12/h2-7H,1H3,(H,18,19)(H,20,21)
Instrument: TripleTOF 5600 SCIEX
Instrument type: LC-ESI-QTOF
Ms type: MS2
Ion mode: POSITIVE
Collision energy: 150
Fragmentation mode: CID
Ionization: ESI
Column name: Zorbax Eclipse Plus C18 2.1 mm x 150 mm, 3.5 um, Agilent
Retention time: 11.023 min
Precursor m/z: 297.0845
Precursor type: [M+H]+
m/z	relative intensity
51.0155	13
51.034	226
52.0265	27
57.023	438
59.0387	23
60.0084	40
65.0451	20
68.0123	20
69.0017	43
69.0204	27
73.0138	91
74.0214	574
75.0072	15
75.0287	333
76.0282	95
77.0441	159
78.0405	37
79.0481	12
80.0117	23
81.0188	149
82.0277	21
83.0347	225
84.0033	20
85.011	180
86.0191	256
87.0273	226
88.0226	131
89.0433	115
90.0408	9
92.0091	78
92.9998	13
93.0157	74
94.0248	13
97.0107	185
98.0184	999
99.0243	234
100.0207	77
100.037	10
101.0228	13
101.0397	44
102.0395	29
104.0513	10
105.0149	67
106.0207	35
107.0315	98
109.0092	33
109.0463	20
110.0168	101
111.0154	104
112.0193	67
113.0402	94
114.0355	46
116.0057	10
117.0162	13
118.0249	13
119.9995	15
121.0075	20
122.0169	106
123.0119	100
124.0208	30
125.0196	13
125.0408	35
126.047	86
127.0494	40
128.0528	16
129.0148	16
131.03	60
132.0291	29
135.0134	15
136.0166	10
137.0409	18
138.0335	43
139.0471	24
140.0511	26
141.0156	13
146.015	21
147.0096	46
148.0126	12
150.0374	10
151.041	15
152.0482	30
155.0311	26
156.0242	15
158.0402	13
179.0614	15
