Mass spectrum: Ritalinic acid; LC-ESI-QTOF; MS2; 80 V
Name: Ritalinic acid
Class: Pharmaceutical; Metabolite
Formula: C13H17NO2
Exact mass: 219.1259
SMILES: OC(=O)C(C1CCCCN1)c2ccccc2
InChI: InChI=1S/C13H17NO2/c15-13(16)12(10-6-2-1-3-7-10)11-8-4-5-9-14-11/h1-3,6-7,11-12,14H,4-5,8-9H2,(H,15,16)
Instrument: TripleTOF 5600 SCIEX
Instrument type: LC-ESI-QTOF
Ms type: MS2
Ion mode: POSITIVE
Collision energy: 80
Fragmentation mode: CID
Ionization: ESI
Column name: Zorbax Eclipse Plus C18 2.1 mm x 150 mm, 3.5 um, Agilent
Retention time: 4.91 min
Precursor m/z: 220.1332
Precursor type: [M+H]+
m/z	relative intensity
55.0545	140
56.0497	858
65.0381	192
67.0551	87
68.0508	87
69.0584	87
77.0386	262
82.0638	70
84.0811	999
91.0543	262
115.0545	262
127.0557	87
128.0639	192
