Mass spectrum: (Methoxymethyl)triphenylphosphonium; LC-ESI-QTOF; MS2; 130 V
Name: (Methoxymethyl)triphenylphosphonium
Class: Industrial_process
Formula: [C20H20OP]+
Exact mass: 307.1246
SMILES: COC[P+](C1=CC=CC=C1)(C2=CC=CC=C2)C3=CC=CC=C3
InChI: InChI=1S/C20H20OP/c1-21-17-22(18-11-5-2-6-12-18,19-13-7-3-8-14-19)20-15-9-4-10-16-20/h2-16H,17H2,1H3/q+1
Instrument: TripleTOF 5600 SCIEX
Instrument type: LC-ESI-QTOF
Ms type: MS2
Ion mode: POSITIVE
Collision energy: 130
Fragmentation mode: CID
Ionization: ESI
Column name: Zorbax Eclipse Plus C18 2.1 mm x 150 mm, 3.5 um, Agilent
Retention time: 7.502 min
Precursor m/z: 307.1246
Precursor type: [M]+
m/z	relative intensity
45.0337	446
56.9887	89
63.0225	172
65.0379	95
74.0137	62
76.029	62
77.0368	86
78.972	59
79.9793	132
80.9875	307
87.0215	76
89.0372	363
102.0447	148
103.9796	72
107.0031	999
113.0383	99
115.0529	416
126.0459	396
131.003	119
133.0182	56
139.0541	330
150.046	393
151.0547	545
152.0614	932
155.0047	86
156.0117	125
157.0202	466
179.0066	49
180.0124	129
181.0199	525
183.0362	76
