Mass spectrum: Desamino-metamitron; LC-ESI-QTOF; MS2; 50 V
Name: Desamino-metamitron
Class: Metabolite; Herbicide
Formula: C10H9N3O
Exact mass: 187.0746
SMILES: CC1=NC(=O)C(=NN1)c2ccccc2
InChI: InChI=1S/C10H9N3O/c1-7-11-10(14)9(13-12-7)8-5-3-2-4-6-8/h2-6H,1H3,(H,11,12,14)
Instrument: TripleTOF 5600 SCIEX
Instrument type: LC-ESI-QTOF
Ms type: MS2
Ion mode: POSITIVE
Collision energy: 50
Fragmentation mode: CID
Ionization: ESI
Column name: Zorbax Eclipse Plus C18 2.1 mm x 150 mm, 3.5 um, Agilent
Retention time: 6.124 min
Precursor m/z: 188.0818
Precursor type: [M+H]+
m/z	relative intensity
51.0288	157
57.0481	13
65.042	86
77.0412	999
77.0746	24
89.0403	16
90.0475	13
91.0555	16
92.0508	64
103.0441	32
104.0498	303
119.0613	32
130.0652	29
