Mass spectrum: 2,3,5-Trimethylpyrazine; LC-ESI-QTOF; MS2; 50 V
Name: 2,3,5-Trimethylpyrazine
Formula: C7H10N2
Exact mass: 122.0844
SMILES: N=1C=C(N=C(C1C)C)C
InChI: InChI=1S/C7H10N2/c1-5-4-8-6(2)7(3)9-5/h4H,1-3H3
Instrument: TripleTOF X500R SCIEX
Instrument type: LC-ESI-QTOF
Ms type: MS2
Ion mode: POSITIVE
Collision energy: 50
Fragmentation mode: CID
Ionization: ESI
Column name: Zorbax Eclipse Plus C18 2.1 mm x 150 mm, 3.5 um, Agilent
Retention time: 5.574 min
Precursor m/z: 123.0917
Precursor type: [M+H]+
m/z	relative intensity
37.0074	85
38.0155	85
39.0228	839
41.0252	63
41.0382	191
42.0339	999
53.0392	148
54.0335	85
55.0536	63
67.0409	85
80.0488	159
107.0598	106
121.0762	95
