Mass spectrum: Sildenafil; LC-ESI-QTOF; MS2; 90 V
Name: Sildenafil
Class: Pharmaceutical
Formula: C22H30N6O4S
Exact mass: 474.2049
SMILES: CCCC1=NN(C2=C1NC(=NC2=O)C3=C(C=CC(=C3)S(=O)(=O)N4CCN(CC4)C)OCC)C
InChI: InChI=1S/C22H30N6O4S/c1-5-7-17-19-20(27(4)25-17)22(29)24-21(23-19)16-14-15(8-9-18(16)32-6-2)33(30,31)28-12-10-26(3)11-13-28/h8-9,14H,5-7,10-13H2,1-4H3,(H,23,24,29)
Instrument: TripleTOF 5600 SCIEX
Instrument type: LC-ESI-QTOF
Ms type: MS2
Ion mode: POSITIVE
Collision energy: 90
Fragmentation mode: CID
Ionization: ESI
Column name: Zorbax Eclipse Plus C18 2.1 mm x 150 mm, 3.5 um, Agilent
Retention time: 7.283 min
Precursor m/z: 475.2122
Precursor type: [M+H]+
m/z	relative intensity
42.0462	72
44.0594	15
56.0586	117
58.0746	999
69.0514	26
70.0704	117
77.0439	13
80.0562	13
81.0501	19
83.066	13
84.0728	28
94.0348	11
95.0626	22
97.0732	11
99.0937	35
104.0514	17
105.042	11
109.0726	11
116.0531	13
117.0462	22
120.0482	22
122.0382	15
128.0509	24
129.0463	35
130.038	13
130.0556	17
131.0593	33
132.039	11
133.0592	11
136.0526	99
140.0539	11
141.0453	15
142.0495	11
142.0615	13
143.0527	24
144.038	11
145.0426	17
146.0617	11
146.0758	11
154.0561	22
155.0603	57
156.0537	37
157.0436	11
157.0614	17
158.0484	22
158.0726	24
159.0561	17
164.0795	13
166.0971	50
168.0532	11
168.0692	19
169.0815	17
170.0703	50
171.0801	53
172.0843	17
173.0687	11
176.0771	19
180.0603	11
181.0695	13
182.0667	30
183.0586	48
183.0768	13
183.098	11
184.0545	26
184.0883	22
185.079	41
186.0647	24
187.0487	11
194.0719	19
195.0735	17
196.049	13
196.0714	11
197.0587	15
197.0781	75
198.0571	22
198.0709	24
198.0928	39
199.0697	24
199.097	11
200.0855	17
208.0553	13
208.0853	13
209.0636	11
209.083	19
210.058	19
210.0969	11
211.0584	108
211.0935	15
212.0727	44
212.0867	13
212.1173	11
213.0798	50
217.1123	15
222.07	17
224.0651	13
225.0779	243
226.0855	81
227.0932	55
228.106	13
237.0765	22
238.0859	15
239.0555	53
239.0907	59
240.0668	22
240.1062	19
241.0724	13
241.102	11
250.089	11
253.0752	163
254.0809	103
255.089	24
255.1221	61
256.0962	19
267.0882	19
282.115	11
283.1104	13
283.124	26
284.1311	24
