Mass spectrum: 4-Methoxycinnamaldehyde; LC-ESI-QTOF; MS2; 30 V
Name: 4-Methoxycinnamaldehyde
Formula: C10H10O2
Exact mass: 162.0681
SMILES: COC1=CC=C(C=C1)C=CC=O
InChI: InChI=1S/C10H10O2/c1-12-10-6-4-9(5-7-10)3-2-8-11/h2-8H,1H3
Instrument: TripleTOF 6600 SCIEX
Instrument type: LC-ESI-QTOF
Ms type: MS2
Ion mode: POSITIVE
Collision energy: 30
Fragmentation mode: CID
Ionization: ESI
Column name: Zorbax Eclipse Plus C18 2.1 mm x 150 mm, 3.5 um, Agilent
Retention time: 9.471 min
Precursor m/z: 163.0754
Precursor type: [M+H]+
m/z	relative intensity
55.0186	913
56.0228	36
65.0391	42
77.0392	692
78.0442	98
79.0545	502
80.0582	61
89.0416	24
90.0482	30
91.0548	974
92.0622	214
94.0434	30
95.0497	36
102.0472	539
103.0555	827
104.0623	110
105.036	79
105.0471	49
105.0705	527
106.0433	24
106.0751	79
107.0504	79
115.056	232
116.0615	42
118.0452	42
119.0496	239
120.0579	398
121.0649	232
130.0425	625
131.0487	251
132.056	73
133.0666	134
134.0746	171
135.0801	110
145.0666	999
146.0717	251
147.0444	128
148.052	73
