Mass spectrum: Diflufenican; LC-ESI-QTOF; MS2; 140 V
Name: Diflufenican
Class: Herbicide
Formula: C19H11F5N2O2
Exact mass: 394.0741
SMILES: C1=CC(=CC(=C1)OC2=C(C=CC=N2)C(=O)NC3=C(C=C(C=C3)F)F)C(F)(F)F
InChI: InChI=1S/C19H11F5N2O2/c20-12-6-7-16(15(21)10-12)26-17(27)14-5-2-8-25-18(14)28-13-4-1-3-11(9-13)19(22,23)24/h1-10H,(H,26,27)
Instrument: TripleTOF 6600 SCIEX
Instrument type: LC-ESI-QTOF
Ms type: MS2
Ion mode: POSITIVE
Collision energy: 140
Fragmentation mode: CID
Ionization: ESI
Column name: Zorbax Eclipse Plus C18 2.1 mm x 150 mm, 3.5 um, Agilent
Retention time: 14.853 min
Precursor m/z: 395.0814
Precursor type: [M+H]+
m/z	relative intensity
37.0073	74
39.024	203
50.0153	203
51.0235	277
57.0143	240
61.008	240
62.0152	314
63.0232	628
68.9944	185
73.0079	148
74.0156	924
75.0044	425
75.0233	999
78.0338	92
81.0135	333
83.0287	166
85.0072	129
86.0154	314
87.0234	370
88.0177	185
88.0306	333
89.0385	129
93.0145	166
95.0291	277
98.015	277
99.0053	277
99.0231	185
100.0183	166
101.0195	166
105.0138	148
106.0214	129
107.0294	296
110.0152	74
111.0092	92
111.0228	111
112.0187	92
113.0384	980
114.0336	296
114.0459	259
117.0131	240
119.0114	74
122.0149	628
123.0095	111
123.0225	573
124.0175	277
125.0195	222
131.0284	222
132.025	92
132.0362	129
133.0455	314
138.0318	111
139.0408	111
140.0499	518
143.0277	166
144.0362	92
145.0262	92
147.0103	92
148.0164	92
149.0182	74
150.0293	111
151.0353	111
156.0168	129
158.0381	129
162.0252	240
163.0295	129
164.0422	92
176.0269	74
182.0328	166
183.0296	74
205.0406	74
