Mass spectrum: Acebutolol; LC-ESI-QTOF; MS2; 40 V
Name: Acebutolol
Class: Pharmaceutical
Formula: C18H28N2O4
Exact mass: 336.2049
SMILES: CCCC(=O)Nc1ccc(OCC(O)CNC(C)C)c(c1)C(C)=O
InChI: InChI=1S/C18H28N2O4/c1-5-6-18(23)20-14-7-8-17(16(9-14)13(4)21)24-11-15(22)10-19-12(2)3/h7-9,12,15,19,22H,5-6,10-11H2,1-4H3,(H,20,23)
Instrument: TripleTOF 5600 SCIEX
Instrument type: LC-ESI-QTOF
Ms type: MS2
Ion mode: POSITIVE
Collision energy: 40
Fragmentation mode: CID
Ionization: ESI
Column name: Zorbax Eclipse Plus C18 2.1 mm x 150 mm, 3.5 um, Agilent
Retention time: 5.965 min
Precursor m/z: 337.2122
Precursor type: [M+H]+
m/z	relative intensity
56.0564	447
58.0704	31
71.0518	21
72.0851	465
74.0641	459
98.0977	348
100.1134	12
106.0647	12
110.0604	83
114.0904	19
116.1077	999
120.0807	81
122.0596	15
130.0637	15
134.0593	11
134.0957	17
136.076	15
144.082	14
148.0759	179
150.0904	16
152.0697	15
160.0755	48
162.0915	16
164.0699	13
172.0753	9
180.1018	107
190.0863	27
206.1177	13
216.0998	9
218.1172	265
220.133	13
222.1113	95
230.1167	29
234.111	23
248.1284	32
260.1274	239
277.1532	32
295.1634	11
295.2004	11
319.1996	295
337.2104	548
