Mass spectrum: Deethylatrazine; LC-ESI-QTOF; MS2; 40 V
Name: Deethylatrazine
Class: Transformation_product; Herbicide; Metabolite
Formula: C6H10ClN5
Exact mass: 187.0625
SMILES: CC(C)NC1=NC(=NC(=N1)N)Cl
InChI: InChI=1S/C6H10ClN5/c1-3(2)9-6-11-4(7)10-5(8)12-6/h3H,1-2H3,(H3,8,9,10,11,12)
Instrument: TripleTOF 6600 SCIEX
Instrument type: LC-ESI-QTOF
Ms type: MS2
Ion mode: POSITIVE
Collision energy: 40
Fragmentation mode: CID
Ionization: ESI
Column name: Zorbax Eclipse Plus C18 2.1 mm x 150 mm, 3.5 um, Agilent
Retention time: 6.911 min
Precursor m/z: 188.0698
Precursor type: [M+H]+
m/z	relative intensity
39.0232	23
41.0387	84
43.0296	711
43.0548	42
61.9793	278
68.0246	859
79.0058	849
104.0012	999
110.0457	152
146.0228	389
