Mass spectrum: Octhilinone; LC-ESI-QTOF; MS2; 30 V
Name: Octhilinone
Class: Fungicide; Antimicrobial
Formula: C11H19NOS
Exact mass: 213.1187
SMILES: CCCCCCCCN1C(=O)C=CS1
InChI: InChI=1S/C11H19NOS/c1-2-3-4-5-6-7-9-12-11(13)8-10-14-12/h8,10H,2-7,9H2,1H3
Instrument: TripleTOF 6600 SCIEX
Instrument type: LC-ESI-QTOF
Ms type: MS2
Ion mode: POSITIVE
Collision energy: 30
Fragmentation mode: CID
Ionization: ESI
Column name: Zorbax Eclipse Plus C18 2.1 mm x 150 mm, 3.5 um, Agilent
Retention time: 11.855 min
Precursor m/z: 214.126
Precursor type: [M+H]+
m/z	relative intensity
39.0233	28
41.0391	93
43.055	212
57.0705	237
71.0859	95
83.9903	17
102.0016	999
