Mass spectrum: 4-Hydroxydiphenylamine; LC-ESI-QTOF; MS2; 80 V
Name: 4-Hydroxydiphenylamine
Class: Pesticide
Formula: C12H11NO
Exact mass: 185.0841
SMILES: C1=CC=C(C=C1)NC2=CC=C(C=C2)O
InChI: InChI=1S/C12H11NO/c14-12-8-6-11(7-9-12)13-10-4-2-1-3-5-10/h1-9,13-14H
Instrument: TripleTOF 6600 SCIEX
Instrument type: LC-ESI-QTOF
Ms type: MS2
Ion mode: POSITIVE
Collision energy: 80
Fragmentation mode: CID
Ionization: ESI
Column name: Zorbax Eclipse Plus C18 2.1 mm x 150 mm, 3.5 um, Agilent
Retention time: 10.034 min
Precursor m/z: 186.0914
Precursor type: [M+H]+
m/z	relative intensity
37.0068	49
38.0146	44
39.0223	249
40.0296	17
41.025	13
42.0332	32
44.0127	28
49.0062	11
50.0142	46
51.0221	101
52.0178	32
53.0378	375
54.0329	86
55.0166	17
62.0145	17
63.0219	70
64.0298	19
65.0259	13
65.0377	132
66.033	19
66.0454	78
77.0371	19
78.0325	28
80.0487	999
81.0324	67
81.0553	13
82.0404	15
89.0379	15
92.0494	32
93.0563	42
108.0425	61
109.0517	38
113.0378	9
115.0514	11
139.0527	19
