Mass spectrum: 2-Hydroxybenzothiazole; LC-ESI-QTOF; MS2; 40 V
Name: 2-Hydroxybenzothiazole
Class: Industrial_process
Formula: C7H5NOS
Exact mass: 151.0092
SMILES: C1=CC=C2C(=C1)NC(=O)S2
InChI: InChI=1S/C7H5NOS/c9-7-8-5-3-1-2-4-6(5)10-7/h1-4H,(H,8,9)
Instrument: TripleTOF 5600 SCIEX
Instrument type: LC-ESI-QTOF
Ms type: MS2
Ion mode: POSITIVE
Collision energy: 40
Fragmentation mode: CID
Ionization: ESI
Column name: Zorbax Eclipse Plus C18 2.1 mm x 150 mm, 3.5 um, Agilent
Retention time: 7.776 min
Precursor m/z: 152.0165
Precursor type: [M+H]+
m/z	relative intensity
53.0383	79
64.0315	55
65.0388	618
68.9792	118
80.0497	999
90.0337	364
91.0417	364
92.0495	198
97.0099	182
106.9982	39
109.0107	309
119.0362	444
124.0214	309
134.0077	134
152.017	206
