Mass spectrum: Hydroxytorasemide; LC-ESI-QTOF; MS2; 90 V
Name: Hydroxytorasemide
Class: Pharmaceutical; Transformation_product; Transformation_product-Metabolite
Formula: C16H20N4O4S
Exact mass: 364.1205
SMILES: CC(C)NC(=O)NS(=O)(=O)c1cnccc1Nc2cccc(c2)CO
InChI: InChI=1S/C16H20N4O4S/c1-11(2)18-16(22)20-25(23,24)15-9-17-7-6-14(15)19-13-5-3-4-12(8-13)10-21/h3-9,11,21H,10H2,1-2H3,(H,17,19)(H2,18,20,22)
Instrument: TripleTOF 5600 SCIEX
Instrument type: LC-ESI-QTOF
Ms type: MS2
Ion mode: POSITIVE
Collision energy: 90
Fragmentation mode: CID
Ionization: ESI
Column name: Zorbax Eclipse Plus C18 2.1 mm x 150 mm, 3.5 um, Agilent
Retention time: 5.824 min
Precursor m/z: 365.1278
Precursor type: [M+H]+
m/z	relative intensity
65.0431	14
67.0459	15
75.0245	21
77.0411	100
78.0388	11
79.0452	18
81.0467	20
89.0398	118
90.0485	27
91.0556	10
98.0041	12
101.0378	57
102.0449	19
103.0538	19
104.0358	11
113.0369	28
114.0456	116
115.0532	999
116.0483	93
117.0566	86
124.0087	10
126.046	27
127.0536	168
128.0488	204
129.0444	14
129.056	25
130.063	24
137.0166	18
140.0486	249
141.0564	172
142.0627	122
143.0648	13
152.0478	31
153.0553	72
154.0642	149
155.06	88
156.067	37
166.0518	17
167.0596	89
168.0669	629
169.0748	469
175.0329	10
179.06	87
180.068	71
181.0751	546
182.0827	223
184.0616	19
185.0696	18
187.0309	48
197.0702	78
199.0865	79
