Mass spectrum: Morantel; LC-ESI-QTOF; MS2; 80 V
Name: Morantel
Class: Pharmaceutical
Formula: C12H16N2S
Exact mass: 220.1034
SMILES: CN1CCCN=C1/C=C/c2sccc2C
InChI: InChI=1S/C12H16N2S/c1-10-6-9-15-11(10)4-5-12-13-7-3-8-14(12)2/h4-6,9H,3,7-8H2,1-2H3/b5-4+
Instrument: TripleTOF 5600 SCIEX
Instrument type: LC-ESI-QTOF
Ms type: MS2
Ion mode: POSITIVE
Collision energy: 80
Fragmentation mode: CID
Ionization: ESI
Column name: Zorbax Eclipse Plus C18 2.1 mm x 150 mm, 3.5 um, Agilent
Retention time: 6.042 min
Precursor m/z: 221.1107
Precursor type: [M+H]+
m/z	relative intensity
42.0427	11
43.0267	11
44.0569	14
45.013	16
51.0297	110
53.0439	31
55.0577	14
57.993	14
58.9991	11
65.0423	86
67.0579	22
68.0539	14
68.9821	31
69.0483	29
69.9909	16
70.9971	11
77.0417	999
78.0488	203
79.0565	422
80.0518	16
84.0043	37
89.04	200
90.034	18
90.0467	65
91.0553	151
94.0647	13
94.9956	28
96.0034	37
97.0114	159
103.0545	20
104.0488	74
105.0591	11
106.0652	29
108.003	39
109.0123	18
110.0202	20
111.0247	20
115.0556	37
116.049	37
117.0565	76
118.0636	20
121.0103	314
122.0177	275
123.0261	97
128.0636	14
130.0646	16
133.0088	14
134.01	59
135.0121	28
136.0231	13
148.0204	99
149.0282	52
150.0351	11
