Mass spectrum: Myclobutanil; LC-ESI-QTOF; MS2; 60 V
Name: Myclobutanil
Class: Fungicide
Formula: C15H17ClN4
Exact mass: 288.1142
SMILES: CCCCC(Cn1cncn1)(C#N)c2ccc(Cl)cc2
InChI: InChI=1S/C15H17ClN4/c1-2-3-8-15(9-17,10-20-12-18-11-19-20)13-4-6-14(16)7-5-13/h4-7,11-12H,2-3,8,10H2,1H3
Instrument: TripleTOF 6600 SCIEX
Instrument type: LC-ESI-QTOF
Ms type: MS2
Ion mode: POSITIVE
Collision energy: 60
Fragmentation mode: CID
Ionization: ESI
Column name: Zorbax Eclipse Plus C18 2.1 mm x 150 mm, 3.5 um, Agilent
Retention time: 12.025 min
Precursor m/z: 289.1215
Precursor type: [M+H]+
m/z	relative intensity
43.0294	57
55.0545	11
63.0228	28
65.0384	12
70.0404	999
72.9836	14
75.024	14
77.0393	11
82.0396	19
89.0387	240
90.0463	71
98.9994	112
101.0384	28
102.0464	21
115.0542	89
116.0623	106
122.9995	15
125.0156	857
128.0495	39
129.0451	12
130.0659	33
137.0163	13
143.0746	12
149.0154	19
150.0104	25
151.0301	24
153.0692	13
164.0256	12
