Mass spectrum: 2,6-Dichlorophenoxyacetic acid; LC-ESI-QTOF; MS2; 110 V
Name: 2,6-Dichlorophenoxyacetic acid
Class: Herbicide
Formula: C8H6Cl2O3
Exact mass: 219.9694
SMILES: C1=CC(=C(C(=C1)Cl)OCC(=O)O)Cl
InChI: InChI=1S/C8H6Cl2O3/c9-5-2-1-3-6(10)8(5)13-4-7(11)12/h1-3H,4H2,(H,11,12)
Instrument: TripleTOF 6600 SCIEX
Instrument type: LC-ESI-QTOF
Ms type: MS2
Ion mode: NEGATIVE
Collision energy: 110
Fragmentation mode: CID
Ionization: ESI
Column name: Zorbax Eclipse Plus C18 2.1 mm x 150 mm, 3.5 um, Agilent
Retention time: 9.147 min
Precursor m/z: 218.9621
Precursor type: [M-H]-
m/z	relative intensity
34.9706	999
