Mass spectrum: Dexamethasone; LC-ESI-QTOF; MS2; 50 V
Name: Dexamethasone
Class: Pharmaceutical
Formula: C22H29FO5
Exact mass: 392.1999
SMILES: C[C@@H]1C[C@H]2[C@@H]3CCC4=CC(=O)C=C[C@@]4([C@]3([C@H](C[C@@]2([C@]1(C(=O)CO)O)C)O)F)C
InChI: InChI=1S/C22H29FO5/c1-12-8-16-15-5-4-13-9-14(25)6-7-19(13,2)21(15,23)17(26)10-20(16,3)22(12,28)18(27)11-24/h6-7,9,12,15-17,24,26,28H,4-5,8,10-11H2,1-3H3/t12-,15+,16+,17+,19+,20+,21+,22+/m1/s1
Instrument: TripleTOF 5600 SCIEX
Instrument type: LC-ESI-QTOF
Ms type: MS2
Ion mode: POSITIVE
Collision energy: 50
Fragmentation mode: CID
Ionization: ESI
Column name: Zorbax Eclipse Plus C18 2.1 mm x 150 mm, 3.5 um, Agilent
Retention time: 9.089 min
Precursor m/z: 393.2072
Precursor type: [M+H]+
m/z	relative intensity
43.0298	45
55.0289	11
57.0432	9
67.0602	50
69.0396	29
69.0749	19
71.0558	11
77.0438	72
79.0596	82
81.0753	47
83.055	23
91.0582	254
93.0732	160
95.053	45
95.0888	113
97.0682	27
99.0483	9
103.0574	19
105.0731	264
107.0514	41
107.0885	258
109.0681	52
109.1037	64
111.0855	31
115.058	62
116.0643	23
117.0717	92
119.0523	13
119.0881	315
121.0675	562
121.1026	66
123.0834	64
125.0614	48
125.0991	11
127.0552	29
128.0635	154
129.0708	101
130.0798	25
131.0508	21
131.0878	191
132.06	52
133.066	78
133.1031	74
134.0752	11
135.0825	203
137.0647	19
137.0982	50
141.0716	97
142.0786	43
143.0865	238
144.0588	37
145.0655	203
145.1022	99
146.0741	45
147.082	999
149.0979	70
151.0746	33
152.061	9
153.0697	33
153.089	11
154.0784	19
155.0851	127
156.0574	15
156.0935	23
157.0654	23
157.1016	78
158.0733	170
159.0817	362
159.1175	9
160.0925	17
161.0961	199
163.0748	27
165.0693	84
166.0761	25
167.0877	92
168.0593	17
168.0967	17
169.0667	48
169.1017	54
170.0717	43
171.0813	479
171.1207	9
172.0907	43
173.0968	272
175.0785	15
175.1118	27
177.0932	27
178.0795	72
179.0867	178
180.0919	48
181.0647	54
181.1023	66
182.0712	68
182.1147	15
183.0802	131
183.1156	13
184.0889	45
185.0966	213
186.1051	13
187.0766	48
187.1112	66
189.0708	78
190.0792	48
191.0841	80
192.0927	92
193.1029	131
194.0724	31
194.1075	84
195.0798	160
195.1172	72
196.0873	154
197.0964	229
198.1027	45
199.0807	11
199.1121	50
202.0788	47
203.0856	78
204.0936	174
205.1016	82
206.0704	19
206.1127	58
207.0815	78
207.1147	88
208.0883	219
208.1219	19
209.095	274
209.1316	88
210.1036	162
211.0759	15
211.1105	182
212.1202	58
213.0897	17
213.1265	90
215.0841	31
215.1031	43
216.0937	43
217.1011	56
218.075	17
218.1108	31
219.0812	56
219.1179	146
220.0871	62
220.1265	29
221.0956	227
221.1308	47
222.1041	532
223.1121	266
224.084	19
224.1182	101
225.094	25
225.1261	90
226.1004	41
226.1311	11
227.1048	21
227.142	37
228.0936	17
229.0994	62
230.1092	45
231.0787	33
231.1171	56
232.0885	39
232.128	27
233.096	141
233.1336	33
234.1033	133
234.1437	15
235.1117	305
235.1495	21
236.1196	64
236.1484	17
237.0923	13
237.1272	356
238.1012	21
238.1302	21
239.0983	21
239.1433	94
240.1017	23
241.1035	21
241.1233	15
242.1099	31
243.1143	62
244.1233	43
245.0986	78
245.1312	50
246.103	78
246.1356	21
247.111	186
248.1188	184
249.1276	139
250.1352	31
251.1118	15
251.1433	52
252.1501	41
253.1212	41
253.1575	29
254.1081	9
255.1237	11
256.0819	13
256.1256	13
257.0949	15
257.1369	23
258.1072	19
258.1401	17
259.1103	113
259.1492	11
260.1178	72
261.1248	174
261.1614	29
262.1339	144
263.1087	27
263.1423	321
264.1494	58
265.1218	15
265.1558	13
266.1669	15
267.1361	19
269.1417	13
270.0926	9
271.1114	60
272.1196	31
273.1252	45
274.1363	52
275.1116	9
275.1424	60
276.1187	11
276.1499	58
277.1194	15
277.1558	82
278.1646	50
279.1734	74
281.1528	23
285.1262	33
286.1339	52
287.1498	13
289.1209	17
289.1549	31
291.1393	27
291.1758	25
301.163	23
304.1485	21
307.1723	9
