Mass spectrum: Fludarabine; LC-ESI-QTOF; MS2; 100 V
Name: Fludarabine
Class: Pharmaceutical
Formula: C10H12FN5O4
Exact mass: 285.0873
SMILES: C1=NC2=C(N1C3C(C(C(O3)CO)O)O)N=C(N=C2N)F
InChI: InChI=1S/C10H12FN5O4/c11-10-14-7(12)4-8(15-10)16(2-13-4)9-6(19)5(18)3(1-17)20-9/h2-3,5-6,9,17-19H,1H2,(H2,12,14,15)
Instrument: TripleTOF 5600 SCIEX
Instrument type: LC-ESI-QTOF
Ms type: CID
Ion mode: POSITIVE
Collision energy: 100
Ionization: ESI
Column name: Zorbax Eclipse Plus C18 2.1 mm x 150 mm, 3.5 um, Agilent
Retention time: 4.674 min
Precursor m/z: 286.0946
Precursor type: [M+H]+
m/z	relative intensity
43.0283	151
53.0231	575
55.0364	211
57.0416	181
65.0201	181
68.0308	696
71.0182	302
80.0295	999
92.0289	333
93.033	181
107.0371	938
134.0472	847
