Mass spectrum: Flumequin; LC-ESI-QTOF; MS2; 140 V
Name: Flumequin
Class: Pharmaceutical; Antimicrobial
Formula: C14H12FNO3
Exact mass: 261.0801
SMILES: CC1CCc2cc(F)cc3C(=O)C(=CN1c23)C(O)=O
InChI: InChI=1S/C14H12FNO3/c1-7-2-3-8-4-9(15)5-10-12(8)16(7)6-11(13(10)17)14(18)19/h4-7H,2-3H2,1H3,(H,18,19)
Instrument: TripleTOF 5600 SCIEX
Instrument type: LC-ESI-QTOF
Ms type: MS2
Ion mode: POSITIVE
Collision energy: 140
Fragmentation mode: CID
Ionization: ESI
Column name: Zorbax Eclipse Plus C18 2.1 mm x 150 mm, 3.5 um, Agilent
Retention time: 9.545 min
Precursor m/z: 262.0874
Precursor type: [M+H]+
m/z	relative intensity
51.0283	27
53.007	75
53.0238	13
57.0179	17
68.0079	13
69.0182	13
73.0102	137
74.018	511
74.0471	20
75.0136	54
75.0249	127
76.022	34
81.0152	27
85.0098	37
86.0165	37
92.0056	34
93.0133	41
94.0211	13
97.0072	164
98.0155	999
99.0106	360
100.0183	82
105.0127	24
122.0146	13
131.0294	13
