Mass spectrum: Clodinafop-Propargyl; LC-ESI-QTOF; MS2; 40 V
Name: Clodinafop-Propargyl
Class: Herbicide
Formula: C17H13ClFNO4
Exact mass: 349.0517
SMILES: CC(C(=O)OCC#C)OC1=CC=C(C=C1)OC2=C(C=C(C=N2)Cl)F
InChI: InChI=1S/C17H13ClFNO4/c1-3-8-22-17(21)11(2)23-13-4-6-14(7-5-13)24-16-15(19)9-12(18)10-20-16/h1,4-7,9-11H,8H2,2H3
Instrument: TripleTOF 6600 SCIEX
Instrument type: LC-ESI-QTOF
Ms type: MS2
Ion mode: POSITIVE
Collision energy: 40
Fragmentation mode: CID
Ionization: ESI
Column name: Zorbax Eclipse Plus C18 2.1 mm x 150 mm, 3.5 um, Agilent
Retention time: 13.951 min
Precursor m/z: 350.059
Precursor type: [M+H]+
m/z	relative intensity
65.0369	63
75.0216	13
77.0367	15
91.0528	999
92.0243	18
92.0606	37
93.0665	15
102.0439	13
103.0525	21
119.047	82
120.0544	58
121.026	18
121.0627	18
129.9835	47
130.9919	13
131.0465	37
143.9989	10
147.0595	21
147.9941	42
158.038	29
159.0461	141
167.0027	10
169.0064	18
174.0073	15
176.0492	98
182.0154	37
183.0635	10
185.061	29
187.0402	69
193.0077	15
194.0153	21
195.0212	15
202.0661	18
203.0731	26
210.0092	21
210.0458	42
211.0176	21
213.055	13
216.0439	13
219.0246	15
220.0312	42
222.0107	847
223.0157	13
230.0617	18
231.0677	34
238.006	274
238.0406	258
239.0124	98
266.0368	202
276.0209	53
