Mass spectrum: Flunixin; LC-ESI-QTOF; MS2; 40 V
Name: Flunixin
Class: Pharmaceutical
Formula: C14H11F3N2O2
Exact mass: 296.0773
SMILES: CC1=C(C=CC=C1NC2=C(C=CC=N2)C(=O)O)C(F)(F)F
InChI: InChI=1S/C14H11F3N2O2/c1-8-10(14(15,16)17)5-2-6-11(8)19-12-9(13(20)21)4-3-7-18-12/h2-7H,1H3,(H,18,19)(H,20,21)
Instrument: TripleTOF 5600 SCIEX
Instrument type: LC-ESI-QTOF
Ms type: MS2
Ion mode: POSITIVE
Collision energy: 40
Fragmentation mode: CID
Ionization: ESI
Column name: Zorbax Eclipse Plus C18 2.1 mm x 150 mm, 3.5 um, Agilent
Retention time: 11.023 min
Precursor m/z: 297.0845
Precursor type: [M+H]+
m/z	relative intensity
109.0468	37
159.0427	46
181.0764	24
182.0841	19
184.0565	41
191.0609	16
209.0714	26
210.0783	146
211.0669	76
216.0506	10
219.0563	19
231.0728	33
234.0532	18
236.0564	68
239.0616	161
241.0573	27
251.0791	17
259.0679	306
261.0633	13
264.0498	670
277.0609	35
278.0663	12
279.073	999
297.0836	43
