Mass spectrum: Dehydroepiandrosterone; LC-ESI-QTOF; MS2; 20 V
Name: Dehydroepiandrosterone
Class: Pharmaceutical
Formula: C19H28O2
Exact mass: 288.2089
SMILES: C[C@]12CC[C@H]3[C@@H](CC=C4C[C@@H](O)CC[C@]34C)[C@@H]1CCC2=O
InChI: InChI=1S/C19H28O2/c1-18-9-7-13(20)11-12(18)3-4-14-15-5-6-17(21)19(15,2)10-8-16(14)18/h3,13-16,20H,4-11H2,1-2H3/t13-,14-,15-,16-,18-,19-/m0/s1
Instrument: TripleTOF 5600 SCIEX
Instrument type: LC-ESI-QTOF
Ms type: MS2
Ion mode: POSITIVE
Collision energy: 20
Fragmentation mode: CID
Ionization: ESI
Column name: Zorbax Eclipse Plus C18 2.1 mm x 150 mm, 3.5 um, Agilent
Retention time: 11.589 min
Precursor m/z: 289.2162
Precursor type: [M+H]+
m/z	relative intensity
81.0722	28
97.0648	32
131.0846	40
133.1011	32
135.1167	40
145.0994	60
147.1178	28
155.0856	20
157.1018	76
159.1156	93
169.1005	20
171.1147	80
173.1312	32
183.1146	32
185.13	52
197.1315	222
211.1467	80
213.1623	626
225.1643	68
231.1732	347
253.194	999
253.2429	20
271.2052	845
289.2157	190
