Mass spectrum: Propaquizafop; LC-ESI-QTOF; MS2; 80 V
Name: Propaquizafop
Class: Herbicide
Formula: C22H22ClN3O5
Exact mass: 443.1248
SMILES: CC(Oc1ccc(Oc2cnc3cc(Cl)ccc3n2)cc1)C(=O)OCCON=C(C)C
InChI: InChI=1S/C22H22ClN3O5/c1-14(2)26-29-11-10-28-22(27)15(3)30-17-5-7-18(8-6-17)31-21-13-24-20-12-16(23)4-9-19(20)25-21/h4-9,12-13,15H,10-11H2,1-3H3
Instrument: TripleTOF 6600 SCIEX
Instrument type: LC-ESI-QTOF
Ms type: MS2
Ion mode: POSITIVE
Collision energy: 80
Fragmentation mode: CID
Ionization: ESI
Column name: Zorbax Eclipse Plus C18 2.1 mm x 150 mm, 3.5 um, Agilent
Retention time: 15.307 min
Precursor m/z: 444.1321
Precursor type: [M+H]+
m/z	relative intensity
41.0389	21
42.0343	38
55.018	32
55.0416	59
56.0496	591
65.0385	195
70.0652	890
75.0232	38
77.0386	108
91.0546	401
98.9997	38
99.044	331
100.0182	173
100.0533	157
100.0752	92
103.054	21
105.0702	27
119.0491	48
120.0562	21
121.0284	21
123.9954	21
126.0101	21
135.9951	173
137.0027	70
138.0459	65
147.0443	21
152.048	27
153.058	27
154.0643	27
163.0069	999
164.0007	418
164.0501	152
165.0223	32
165.0576	331
166.0649	65
168.0672	21
173.0156	32
174.0108	21
177.0218	65
178.0555	21
179.0596	114
180.0696	92
181.0155	38
181.0777	21
188.028	27
189.0212	21
190.0636	32
191.0599	157
192.069	999
193.0755	119
194.0866	38
200.027	65
201.0236	43
202.0301	59
203.0369	48
205.0769	21
206.0848	21
207.0927	130
208.0621	81
208.1	59
215.0377	124
217.0748	43
218.0855	76
220.0635	32
221.072	43
226.0295	119
227.0369	130
228.044	86
229.0295	27
229.0546	108
235.0904	27
239.0396	59
241.053	48
243.0723	81
252.0451	65
255.0325	255
256.0401	38
257.0488	173
285.043	70
