Mass spectrum: Flavanone; LC-ESI-QTOF; MS2; 70 V
Name: Flavanone
Class: Personal_care_product
Formula: C15H12O2
Exact mass: 224.0837
SMILES: C1C(OC2=CC=CC=C2C1=O)C3=CC=CC=C3
InChI: InChI=1S/C15H12O2/c16-13-10-15(11-6-2-1-3-7-11)17-14-9-5-4-8-12(13)14/h1-9,15H,10H2
Instrument: TripleTOF 5600 SCIEX
Instrument type: LC-ESI-QTOF
Ms type: MS2
Ion mode: POSITIVE
Collision energy: 70
Fragmentation mode: CID
Ionization: ESI
Column name: Zorbax Eclipse Plus C18 2.1 mm x 150 mm, 3.5 um, Agilent
Retention time: 12.61 min
Precursor m/z: 225.091
Precursor type: [M+H]+
m/z	relative intensity
37.0078	30
38.0154	19
39.0231	156
50.016	30
51.0229	156
63.0218	15
65.0387	704
75.0232	26
77.0386	999
79.0533	42
91.055	42
93.0337	103
101.0413	26
102.0473	45
103.0544	244
115.053	22
121.029	84
126.0437	19
128.068	34
150.0443	34
151.0547	137
152.0616	264
153.0693	26
163.0548	26
165.0754	26
176.0598	275
177.0707	76
178.0763	107
