Mass spectrum: Acetonyltriphenylphosphonium; LC-ESI-QTOF; MS2; 140 V
Name: Acetonyltriphenylphosphonium
Class: Industrial_process
Formula: [C21H20OP]+
Exact mass: 319.1246
SMILES: CC(=O)C[P+](C1=CC=CC=C1)(C2=CC=CC=C2)C3=CC=CC=C3
InChI: InChI=1S/C21H20OP/c1-18(22)17-23(19-11-5-2-6-12-19,20-13-7-3-8-14-20)21-15-9-4-10-16-21/h2-16H,17H2,1H3/q+1
Instrument: TripleTOF 5600 SCIEX
Instrument type: LC-ESI-QTOF
Ms type: MS2
Ion mode: POSITIVE
Collision energy: 140
Fragmentation mode: CID
Ionization: ESI
Column name: Zorbax Eclipse Plus C18 2.1 mm x 150 mm, 3.5 um, Agilent
Retention time: 7.28 min
Precursor m/z: 319.1246
Precursor type: [M]+
m/z	relative intensity
39.0234	55
50.0153	68
51.023	163
56.9886	73
63.0223	175
65.0381	145
74.0141	90
76.0296	91
77.0379	157
78.0449	59
78.9723	52
79.9794	150
80.9877	314
86.0134	66
87.021	104
89.0367	423
98.0134	66
102.0448	161
103.9799	83
104.9875	55
107.0031	893
113.0369	166
115.0529	440
125.0384	56
126.0452	443
131.0036	172
133.0191	97
139.0534	370
150.0457	437
151.0537	711
152.0618	999
155.0051	108
156.0129	148
157.0201	572
163.0531	84
179.0045	58
180.0128	173
181.0196	621
183.0355	79
187.0548	68
200.0624	118
213.0693	81
224.0623	287
225.0704	101
226.0787	240
253.0177	52
255.0355	197
257.0517	58
