Mass spectrum: Benalaxyl; LC-ESI-QTOF; MS2; 140 V
Name: Benalaxyl
Class: Fungicide
Formula: C20H23NO3
Exact mass: 325.1678
SMILES: CC1=C(C(=CC=C1)C)N(C(C)C(=O)OC)C(=O)CC2=CC=CC=C2
InChI: InChI=1S/C20H23NO3/c1-14-9-8-10-15(2)19(14)21(16(3)20(23)24-4)18(22)13-17-11-6-5-7-12-17/h5-12,16H,13H2,1-4H3
Instrument: TripleTOF 6600 SCIEX
Instrument type: LC-ESI-QTOF
Ms type: MS2
Ion mode: POSITIVE
Collision energy: 140
Fragmentation mode: CID
Ionization: ESI
Column name: Zorbax Eclipse Plus C18 2.1 mm x 150 mm, 3.5 um, Agilent
Retention time: 13.881 min
Precursor m/z: 326.1751
Precursor type: [M+H]+
m/z	relative intensity
35.9994	31
37.0071	211
38.0147	162
39.0227	999
41.0381	90
49.007	19
50.0146	208
51.0225	535
52.0306	11
53.0372	24
59.9989	18
61.0058	77
62.0142	167
63.0223	244
65.038	754
66.0449	13
67.042	11
74.0151	21
75.0215	16
77.0379	737
78.0452	59
79.0533	49
80.0474	21
89.0371	82
90.0453	19
91.0531	346
102.0444	13
103.0523	47
104.0478	18
105.0426	11
106.0633	62
115.0524	19
117.0563	37
118.0642	16
120.0791	26
130.063	9
152.0625	18
