Mass spectrum: Mefenpyr-diethyl; LC-ESI-QTOF; MS2; 80 V
Name: Mefenpyr-diethyl
Class: Herbicide
Formula: C16H18Cl2N2O4
Exact mass: 372.0644
SMILES: CCOC(=O)C1=NN(C(C1)(C)C(=O)OCC)C2=C(C=C(C=C2)Cl)Cl
InChI: InChI=1S/C16H18Cl2N2O4/c1-4-23-14(21)12-9-16(3,15(22)24-5-2)20(19-12)13-7-6-10(17)8-11(13)18/h6-8H,4-5,9H2,1-3H3
Instrument: TripleTOF 5600 SCIEX
Instrument type: LC-ESI-QTOF
Ms type: MS2
Ion mode: POSITIVE
Collision energy: 80
Fragmentation mode: CID
Ionization: ESI
Column name: Zorbax Eclipse Plus C18 2.1 mm x 150 mm, 3.5 um, Agilent
Retention time: 14.581 min
Precursor m/z: 373.0716
Precursor type: [M+H]+
m/z	relative intensity
72.9892	49
74.0202	94
82.9496	65
90.0376	11
96.9856	19
99.0015	31
106.945	19
108.9855	461
114.0345	10
123.9964	42
125.0038	97
127.0438	13
128.0503	28
132.9615	999
136.0077	13
144.9612	502
147.9958	12
151.0181	31
153.0455	21
154.0525	12
155.0596	49
156.961	15
158.9771	14
159.972	95
160.9781	34
162.0106	13
163.0178	41
164.0257	59
172.9666	114
183.9704	12
185.9868	225
189.0209	168
190.0275	31
