Mass spectrum: Etofibrate; LC-ESI-QTOF; MS2; 70 V
Name: Etofibrate
Class: Pharmaceutical
Formula: C18H18ClNO5
Exact mass: 363.0874
SMILES: CC(C)(C(=O)OCCOC(=O)C1=CN=CC=C1)OC2=CC=C(C=C2)Cl
InChI: InChI=1S/C18H18ClNO5/c1-18(2,25-15-7-5-14(19)6-8-15)17(22)24-11-10-23-16(21)13-4-3-9-20-12-13/h3-9,12H,10-11H2,1-2H3
Instrument: TripleTOF 6600 SCIEX
Instrument type: LC-ESI-QTOF
Ms type: MS2
Ion mode: POSITIVE
Collision energy: 70
Fragmentation mode: CID
Ionization: ESI
Column name: Zorbax Eclipse Plus C18 2.1 mm x 150 mm, 3.5 um, Agilent
Retention time: 12.631 min
Precursor m/z: 364.0946
Precursor type: [M+H]+
m/z	relative intensity
39.0221	19
41.0377	47
51.0216	21
53.0371	13
55.017	138
69.0323	87
70.0402	12
73.0271	38
75.0216	15
77.0372	11
78.0328	357
79.0401	15
80.0482	182
93.0555	15
94.0399	10
99.0432	999
106.0275	117
106.0626	21
110.9979	41
113.058	127
114.0661	132
122.0234	12
124.0381	873
129.0083	23
139.0038	14
141.0086	26
