Mass spectrum: Sulfamethazine; LC-ESI-QTOF; MS2; 110 V
Name: Sulfamethazine
Class: Antimicrobial; Pharmaceutical
Formula: C12H14N4O2S
Exact mass: 278.0837
InChI: InChI=1S/C12H14N4O2S/c1-8-7-9(2)15-12(14-8)16-19(17,18)11-5-3-10(13)4-6-11/h3-7H,13H2,1-2H3,(H,14,15,16)
Instrument: TripleTOF 5600 SCIEX
Instrument type: LC-ESI-QTOF
Ms type: CID
Ion mode: POSITIVE
Collision energy: 110
Ionization: ESI
Column name: Zorbax Eclipse Plus C18 2.1 mm x 150 mm, 3.5 um, Agilent
Retention time: 6.115 min
Precursor m/z: 279.091
Precursor type: [M+H]+
m/z	relative intensity
42.047	84
54.0431	37
65.0465	999
66.0412	174
67.0369	393
68.0563	53
74.0247	18
75.0297	12
77.0429	12
78.0392	46
80.0558	521
82.0684	24
92.0534	134
93.0618	34
95.0652	212
96.0725	21
107.0649	40
108.0473	56
154.0673	15
