Mass spectrum: Phenacetin; LC-ESI-QTOF; MS2; 150 V
Name: Phenacetin
Class: Pharmaceutical
Formula: C10H13NO2
Exact mass: 179.0946
SMILES: CCOC1=CC=C(C=C1)NC(=O)C
InChI: InChI=1S/C10H13NO2/c1-3-13-10-6-4-9(5-7-10)11-8(2)12/h4-7H,3H2,1-2H3,(H,11,12)
Instrument: TripleTOF 5600 SCIEX
Instrument type: LC-ESI-QTOF
Ms type: MS2
Ion mode: POSITIVE
Collision energy: 150
Fragmentation mode: CID
Ionization: ESI
Column name: Zorbax Eclipse Plus C18 2.1 mm x 150 mm, 3.5 um, Agilent
Retention time: 7.622 min
Precursor m/z: 180.1019
Precursor type: [M+H]+
m/z	relative intensity
35.9994	294
37.0074	999
38.0026	64
38.0153	563
39.0229	537
43.018	576
44.0131	76
51.0229	153
52.0188	140
53.0015	89
59.9983	76
73.0088	102
74.0161	153
