Mass spectrum: Propamocarb; LC-ESI-QTOF; MS2; 20 V
Name: Propamocarb
Class: Fungicide
Formula: C9H20N2O2
Exact mass: 188.1525
SMILES: CCCOC(=O)NCCCN(C)C
InChI: InChI=1S/C9H20N2O2/c1-4-8-13-9(12)10-6-5-7-11(2)3/h4-8H2,1-3H3,(H,10,12)
Instrument: TripleTOF 6600 SCIEX
Instrument type: LC-ESI-QTOF
Ms type: MS2
Ion mode: POSITIVE
Collision energy: 20
Fragmentation mode: CID
Ionization: ESI
Column name: Zorbax Eclipse Plus C18 2.1 mm x 150 mm, 3.5 um, Agilent
Retention time: 4.882 min
Precursor m/z: 189.1598
Precursor type: [M+H]+
m/z	relative intensity
58.0652	11
74.0238	93
86.0964	11
102.0552	999
144.1017	199
189.1598	267
