Mass spectrum: Azoxystrobin; LC-ESI-QTOF; MS2; 50 V
Name: Azoxystrobin
Class: Fungicide
Formula: C22H17N3O5
Exact mass: 403.1168
SMILES: COC=C(C1=CC=CC=C1OC2=NC=NC(=C2)OC3=CC=CC=C3C#N)C(=O)OC
InChI: InChI=1S/C22H17N3O5/c1-27-13-17(22(26)28-2)16-8-4-6-10-19(16)30-21-11-20(24-14-25-21)29-18-9-5-3-7-15(18)12-23/h3-11,13-14H,1-2H3
Instrument: TripleTOF 6600 SCIEX
Instrument type: LC-ESI-QTOF
Ms type: MS2
Ion mode: POSITIVE
Collision energy: 50
Fragmentation mode: CID
Ionization: ESI
Column name: Zorbax Eclipse Plus C18 2.1 mm x 150 mm, 3.5 um, Agilent
Retention time: 12.114 min
Precursor m/z: 404.1241
Precursor type: [M+H]+
m/z	relative intensity
89.0368	17
102.0323	16
104.0475	12
114.032	13
116.0475	15
120.0428	18
129.0427	51
130.0381	38
133.0506	50
134.0584	89
141.0432	26
143.0355	12
143.0586	43
144.0424	19
145.0269	19
145.0502	50
155.0343	9
155.0586	17
156.043	234
157.0265	14
169.0381	43
170.0461	20
171.0303	13
171.0538	54
172.0381	313
173.0457	20
177.0522	18
182.0462	26
182.0696	14
183.0541	313
184.0366	10
199.0486	78
200.0328	115
201.0411	112
201.0634	16
210.0414	127
211.0485	25
216.0646	39
244.0862	22
245.0687	17
246.0773	11
258.0785	13
259.0862	17
261.0763	12
271.0831	10
272.0802	134
273.0688	85
273.0869	81
274.0738	27
275.0812	24
287.0813	18
300.0755	137
301.0841	199
328.0714	518
329.0799	999
344.1022	91
