Mass spectrum: Flusilazole; LC-ESI-QTOF; MS2; 140 V
Name: Flusilazole
Class: Fungicide
Formula: C16H15F2N3Si
Exact mass: 315.1003
SMILES: C[Si](CN1C=NC=N1)(C2=CC=C(C=C2)F)C3=CC=C(C=C3)F
InChI: InChI=1S/C16H15F2N3Si/c1-22(12-21-11-19-10-20-21,15-6-2-13(17)3-7-15)16-8-4-14(18)5-9-16/h2-11H,12H2,1H3
Instrument: TripleTOF 6600 SCIEX
Instrument type: LC-ESI-QTOF
Ms type: MS2
Ion mode: POSITIVE
Collision energy: 140
Fragmentation mode: CID
Ionization: ESI
Column name: Zorbax Eclipse Plus C18 2.1 mm x 150 mm, 3.5 um, Agilent
Retention time: 12.729 min
Precursor m/z: 316.1076
Precursor type: [M+H]+
m/z	relative intensity
30.9973	32
33.0133	34
35.9991	12
37.0069	75
38.0149	42
39.0226	197
42.9985	15
46.9743	999
49.0062	34
50.0146	223
51.0224	372
52.9835	19
57.0128	422
59.0287	22
59.9986	36
61.0062	150
62.0142	249
63.0221	405
65.0376	58
68.0052	10
69.0117	15
70.0206	12
73.0072	65
74.014	443
75.0222	194
76.0302	34
77.0376	107
81.0119	68
83.0282	347
83.9972	19
85.006	109
86.0142	170
87.0215	156
88.0292	19
89.0376	163
94.0195	24
97.0059	24
98.0138	238
99.021	62
100.0284	16
102.0462	17
105.0124	23
106.0184	9
107.0279	73
109.0044	36
109.0436	33
110.0137	92
111.0214	64
113.036	77
115.0523	39
120.0354	17
121.0068	15
122.0136	90
123.021	31
124.0296	14
125.038	10
126.0448	24
131.027	30
133.0433	59
134.0136	19
137.036	70
139.0528	39
144.0349	12
149.0377	23
150.0441	100
151.054	25
152.0588	11
155.0267	29
156.0353	9
157.0429	35
161.0364	169
162.045	174
163.0531	321
164.059	13
168.0368	26
176.0609	13
179.0267	43
180.0352	72
181.0435	232
182.0492	17
183.0593	11
199.0352	25
