Mass spectrum: 1-(2,6-Dichlorophenyl)-2-indolinone; LC-ESI-QTOF; MS2; 120 V
Name: 1-(2,6-Dichlorophenyl)-2-indolinone
Class: Pharmaceutical; Transformation_product; Diclofenac-lactam
Formula: C14H9Cl2NO
Exact mass: 277.0061
SMILES: C1C2=CC=CC=C2N(C1=O)C3=C(C=CC=C3Cl)Cl
InChI: InChI=1S/C14H9Cl2NO/c15-10-5-3-6-11(16)14(10)17-12-7-2-1-4-9(12)8-13(17)18/h1-7H,8H2
Instrument: TripleTOF 5600 SCIEX
Instrument type: LC-ESI-QTOF
Ms type: MS2
Ion mode: POSITIVE
Collision energy: 120
Fragmentation mode: CID
Ionization: ESI
Column name: Zorbax Eclipse Plus C18 2.1 mm x 150 mm, 3.5 um, Agilent
Retention time: 12.191 min
Precursor m/z: 278.0134
Precursor type: [M+H]+
m/z	relative intensity
50.0259	182
61.0143	15
62.0226	48
63.0292	126
72.9902	27
73.0126	88
74.021	601
75.0135	12
75.0283	321
76.0233	15
76.036	108
77.0441	809
78.0523	48
79.0607	42
83.9788	15
84.9868	12
85.0126	17
86.02	30
87.0257	63
88.0326	15
89.0415	128
90.0492	15
97.0066	15
98.0185	189
99.0255	240
100.0318	101
101.0403	113
102.0488	108
104.0538	20
108.9853	35
110.0183	32
111.0255	42
112.0272	12
113.0423	30
114.0388	12
115.0593	17
122.0177	42
123.0082	12
123.0239	50
124.0311	48
125.0404	192
126.0478	252
127.05	113
128.0518	50
129.0521	12
134.0148	10
137.0393	32
139.0524	10
140.0485	42
149.0397	179
150.0469	999
151.0543	543
152.0581	285
153.0562	35
164.0444	15
175.0385	65
176.0491	98
177.0573	278
178.0656	214
179.0659	10
