Mass spectrum: Cybutryne; LC-ESI-QTOF; MS2; 100 V
Name: Cybutryne
Class: Antimicrobial; Herbicide
Formula: C11H19N5S
Exact mass: 253.1361
SMILES: CSc1nc(NC2CC2)nc(NC(C)(C)C)n1
InChI: InChI=1S/C11H19N5S/c1-11(2,3)16-9-13-8(12-7-5-6-7)14-10(15-9)17-4/h7H,5-6H2,1-4H3,(H2,12,13,14,15,16)
Instrument: TripleTOF 5600 SCIEX
Instrument type: LC-ESI-QTOF
Ms type: MS2
Ion mode: POSITIVE
Collision energy: 100
Fragmentation mode: CID
Ionization: ESI
Column name: Zorbax Eclipse Plus C18 2.1 mm x 150 mm, 3.5 um, Agilent
Retention time: 10.202 min
Precursor m/z: 254.1434
Precursor type: [M+H]+
m/z	relative intensity
55.0353	117
56.0558	137
68.0278	999
74.0075	333
84.9876	117
