Mass spectrum: Methiocarb; LC-ESI-QTOF; MS2; 60 V
Name: Methiocarb
Class: Acaricide; Insecticide
Formula: C11H15NO2S
Exact mass: 225.0823
SMILES: Cc1cc(cc(c1SC)C)OC(=O)NC
InChI: InChI=1S/C11H15NO2S/c1-7-5-9(14-11(13)12-3)6-8(2)10(7)15-4/h5-6H,1-4H3,(H,12,13)
Instrument: TripleTOF 6600 SCIEX
Instrument type: LC-ESI-QTOF
Ms type: MS2
Ion mode: POSITIVE
Collision energy: 60
Fragmentation mode: CID
Ionization: ESI
Column name: Zorbax Eclipse Plus C18 2.1 mm x 150 mm, 3.5 um, Agilent
Retention time: 11.34614 min
Precursor m/z: 226.0896
Precursor type: [M+H]+
m/z	relative intensity
39.0209	21
41.036	11
44.9765	17
50.0123	13
51.0206	129
53.0362	17
65.0357	86
67.051	17
77.0359	999
78.0432	81
79.0512	176
91.0511	391
93.0665	53
103.0515	45
104.059	12
105.0414	23
107.0461	684
111.024	21
121.0616	220
122.07	41
135.0233	11
