Mass spectrum: Disperse Yellow 9; LC-ESI-QTOF; MS2; 40 V
Name: Disperse Yellow 9
Formula: C12H10N4O4
Exact mass: 274.0702
SMILES: C1=CC(=CC=C1N)NC2=C(C=C(C=C2)[N+](=O)[O-])[N+](=O)[O-]
InChI: InChI=1S/C12H10N4O4/c13-8-1-3-9(4-2-8)14-11-6-5-10(15(17)18)7-12(11)16(19)20/h1-7,14H,13H2
Instrument: TripleTOF X500R SCIEX
Instrument type: LC-ESI-QTOF
Ms type: MS2
Ion mode: POSITIVE
Collision energy: 40
Fragmentation mode: CID
Ionization: ESI
Column name: Zorbax Eclipse Plus C18 2.1 mm x 150 mm, 3.5 um, Agilent
Retention time: 9.832 min
Precursor m/z: 275.0775
Precursor type: [M+H]+
m/z	relative intensity
108.0449	28
127.0543	14
129.0579	14
130.0662	22
139.0544	15
140.0506	44
143.0608	39
153.0586	18
154.0658	37
155.0654	30
164.0508	11
165.0571	18
166.0652	20
167.0609	46
168.0645	35
169.0771	19
177.0456	23
181.0534	21
181.0768	331
182.0847	999
183.0809	45
193.0637	19
194.0724	429
195.08	295
198.0816	21
211.0754	22
227.0699	19
228.078	219
240.0641	29
241.0744	54
257.0673	13
