Mass spectrum: Cybutryne-N-descyclopropyl; LC-ESI-QTOF; MS2; 40 V
Name: Cybutryne-N-descyclopropyl
Class: Fungicide; Metabolite; Transformation_product; Herbicide
Formula: C8H15N5S
Exact mass: 213.1048
SMILES: CC(C)(C)Nc1[nH]c(nc(=N)n1)SC
InChI: InChI=1S/C8H15N5S/c1-8(2,3)13-6-10-5(9)11-7(12-6)14-4/h1-4H3,(H3,9,10,11,12,13)
Instrument: TripleTOF 5600 SCIEX
Instrument type: LC-ESI-QTOF
Ms type: MS2
Ion mode: POSITIVE
Collision energy: 40
Fragmentation mode: CID
Ionization: ESI
Column name: Zorbax Eclipse Plus C18 2.1 mm x 150 mm, 3.5 um, Agilent
Retention time: 7.502 min
Precursor m/z: 214.1121
Precursor type: [M+H]+
m/z	relative intensity
43.0381	46
43.0526	13
51.0292	29
68.0282	148
74.008	56
77.0424	999
77.0758	16
85.053	106
91.033	11
110.0465	80
116.0267	76
140.9994	14
158.0494	252
