Mass spectrum: Praziquantel; LC-ESI-QTOF; MS2; 80 V
Name: Praziquantel
Class: Pharmaceutical
Formula: C19H24N2O2
Exact mass: 312.1838
SMILES: O=C1CN(CC2N1CCc3ccccc23)C(=O)C4CCCCC4
InChI: InChI=1S/C19H24N2O2/c22-18-13-20(19(23)15-7-2-1-3-8-15)12-17-16-9-5-4-6-14(16)10-11-21(17)18/h4-6,9,15,17H,1-3,7-8,10-13H2
Instrument: TripleTOF 5600 SCIEX
Instrument type: LC-ESI-QTOF
Ms type: MS2
Ion mode: POSITIVE
Collision energy: 80
Fragmentation mode: CID
Ionization: ESI
Column name: Zorbax Eclipse Plus C18 2.1 mm x 150 mm, 3.5 um, Agilent
Retention time: 10.768 min
Precursor m/z: 313.1911
Precursor type: [M+H]+
m/z	relative intensity
53.0446	22
55.0596	999
77.0401	45
79.058	27
83.0865	241
90.0483	41
91.0543	136
103.054	72
105.0696	232
115.0534	287
116.062	36
117.059	392
127.0539	118
128.0615	314
129.0691	173
130.0641	378
131.0719	100
132.0797	533
143.0721	22
144.0785	141
145.0869	82
146.096	50
174.0903	54
