Mass spectrum: Nilotinib; LC-ESI-QTOF; MS2; 90 V
Name: Nilotinib
Class: Pharmaceutical
Formula: C28H22F3N7O
Exact mass: 529.1838
SMILES: Cc1cn(cn1)c2cc(NC(=O)c3ccc(C)c(Nc4nccc(n4)c5cccnc5)c3)cc(c2)C(F)(F)F
InChI: InChI=1S/C28H22F3N7O/c1-17-5-6-19(10-25(17)37-27-33-9-7-24(36-27)20-4-3-8-32-14-20)26(39)35-22-11-21(28(29,30)31)12-23(13-22)38-15-18(2)34-16-38/h3-16H,1-2H3,(H,35,39)(H,33,36,37)
Instrument: TripleTOF 5600 SCIEX
Instrument type: LC-ESI-QTOF
Ms type: MS2
Ion mode: POSITIVE
Collision energy: 90
Fragmentation mode: CID
Ionization: ESI
Column name: Zorbax Eclipse Plus C18 2.1 mm x 150 mm, 3.5 um, Agilent
Retention time: 8.404 min
Precursor m/z: 530.1911
Precursor type: [M+H]+
m/z	relative intensity
104.0478	26
116.0499	18
129.0453	11
130.0609	10
131.06	37
142.0507	14
153.0369	11
155.0601	11
156.0529	29
158.0704	11
171.079	11
194.0673	28
214.0724	19
218.0738	18
219.0786	32
220.0871	28
231.0789	10
232.086	26
233.0937	22
234.0998	57
243.0796	17
244.0751	35
245.0804	137
246.0888	184
247.0952	22
257.0821	14
258.0882	20
259.0971	999
260.1041	105
261.1125	133
