Mass spectrum: Sulfisoxazole; LC-ESI-QTOF; MS2; 50 V
Name: Sulfisoxazole
Class: Antimicrobial; Metabolite; Pharmaceutical
Formula: C11H13N3O3S
Exact mass: 267.0678
SMILES: CC1=C(ON=C1C)NS(=O)(=O)C2=CC=C(C=C2)N
InChI: InChI=1S/C11H13N3O3S/c1-7-8(2)13-17-11(7)14-18(15,16)10-5-3-9(12)4-6-10/h3-6,14H,12H2,1-2H3
Instrument: TripleTOF 5600 SCIEX
Instrument type: LC-ESI-QTOF
Ms type: MS2
Ion mode: POSITIVE
Collision energy: 50
Fragmentation mode: CID
Ionization: ESI
Column name: Zorbax Eclipse Plus C18 2.1 mm x 150 mm, 3.5 um, Agilent
Retention time: 7.557 min
Precursor m/z: 268.075
Precursor type: [M+H]+
m/z	relative intensity
42.0479	23
44.0634	41
55.0266	53
65.0461	587
66.0421	19
68.0561	88
71.0654	55
80.0544	224
85.0803	11
92.0528	999
93.0609	11
96.0472	57
108.0462	766
113.0719	151
140.017	11
156.012	41
