Mass spectrum: Thiamine Disulfide; LC-ESI-QTOF; MS2; 70 V
Name: Thiamine Disulfide
Class: Pharmaceutical
Formula: C24H34N8O4S2
Exact mass: 562.2144
SMILES: CC1=NC=C(C(=N1)N)CN(C=O)C(=C(CCO)SSC(=C(C)N(CC2=CN=C(N=C2N)C)C=O)CCO)C
InChI: InChI=1S/C24H34N8O4S2/c1-15(31(13-35)11-19-9-27-17(3)29-23(19)25)21(5-7-33)37-38-22(6-8-34)16(2)32(14-36)12-20-10-28-18(4)30-24(20)26/h9-10,13-14,33-34H,5-8,11-12H2,1-4H3,(H2,25,27,29)(H2,26,28,30)
Instrument: TripleTOF 6600 SCIEX
Instrument type: LC-ESI-QTOF
Ms type: MS2
Ion mode: POSITIVE
Collision energy: 70
Fragmentation mode: CID
Ionization: ESI
Column name: Zorbax Eclipse Plus C18 2.1 mm x 150 mm, 3.5 um, Agilent
Retention time: 4.48 min
Precursor m/z: 563.2217
Precursor type: [M+H]+
m/z	relative intensity
42.033	10
54.0326	25
55.0405	31
66.0328	19
69.0438	31
81.0434	73
82.0516	102
83.0592	18
93.0439	19
96.0546	19
107.0592	50
108.0541	17
110.0703	658
122.0702	165
123.0783	999
124.0859	595
126.0371	12
137.0807	92
139.0969	38
144.0465	106
148.0857	13
149.0812	18
154.0422	10
160.0867	16
162.0856	29
163.093	15
173.0923	11
174.1009	15
186.102	12
189.113	14
204.112	64
206.0742	10
221.1397	44
223.0998	18
233.0855	47
247.101	13
253.1112	27
263.0968	65
281.1076	28
