Mass spectrum: Doxorubicin; LC-ESI-QTOF; MS2; 110 V
Name: Doxorubicin
Class: Pharmaceutical
Formula: C27H29NO11
Exact mass: 543.1741
SMILES: C[C@H]1[C@H]([C@H](C[C@@H](O1)O[C@H]2C[C@@](Cc3c2c(c4c(c3O)C(=O)c5cccc(c5C4=O)OC)O)(C(=O)CO)O)N)O
InChI: InChI=1S/C27H29NO11/c1-10-22(31)13(28)6-17(38-10)39-15-8-27(36,16(30)9-29)7-12-19(15)26(35)21-20(24(12)33)23(32)11-4-3-5-14(37-2)18(11)25(21)34/h3-5,10,13,15,17,22,29,31,33,35-36H,6-9,28H2,1-2H3/t10-,13-,15-,17-,22+,27-/m0/s1
Instrument: TripleTOF 5600 SCIEX
Instrument type: LC-ESI-QTOF
Ms type: MS2
Ion mode: POSITIVE
Collision energy: 110
Fragmentation mode: CID
Ionization: ESI
Column name: Zorbax Eclipse Plus C18 2.1 mm x 150 mm, 3.5 um, Agilent
Retention time: 7.064 min
Precursor m/z: 544.1813
Precursor type: [M+H]+
m/z	relative intensity
44.0572	181
58.0673	227
72.0478	227
77.0402	272
86.0628	726
89.0406	272
105.0356	227
113.0597	227
130.0849	363
165.0697	408
176.0624	999
177.0721	317
178.0795	363
187.0556	317
189.068	908
202.0766	681
204.0555	817
205.0652	635
216.0539	363
217.0613	227
218.0734	272
221.0579	363
230.0702	181
232.0523	454
233.0591	499
234.0669	363
244.0546	317
245.0579	227
247.0811	227
249.0539	454
259.0749	227
261.0556	317
273.0518	272
289.0471	590
305.0491	227
306.0522	408
317.0518	181
