Mass spectrum: Terbutryn; LC-ESI-QTOF; MS2; 10 V
Name: Terbutryn
Class: Herbicide
Formula: C10H19N5S
Exact mass: 241.1361
SMILES: CCNc1nc(NC(C)(C)C)nc(SC)n1
InChI: InChI=1S/C10H19N5S/c1-6-11-7-12-8(15-10(2,3)4)14-9(13-7)16-5/h6H2,1-5H3,(H2,11,12,13,14,15)
Instrument: TripleTOF 5600 SCIEX
Instrument type: LC-ESI-QTOF
Ms type: MS2
Ion mode: POSITIVE
Collision energy: 10
Fragmentation mode: CID
Ionization: ESI
Column name: Zorbax Eclipse Plus C18 2.1 mm x 150 mm, 3.5 um, Agilent
Retention time: 9.673 min
Precursor m/z: 242.1434
Precursor type: [M+H]+
m/z	relative intensity
186.0808	251
242.1432	999
