Mass spectrum: Zidovudine; LC-ESI-QTOF; MS2; 40 V
Name: Zidovudine
Class: Pharmaceutical
Formula: C10H13N5O4
Exact mass: 267.0968
SMILES: CC1=CN([C@H]2C[C@H](N=[N+]=[N-])[C@@H](CO)O2)C(=O)NC1=O
InChI: InChI=1S/C10H13N5O4/c1-5-3-15(10(18)12-9(5)17)8-2-6(13-14-11)7(4-16)19-8/h3,6-8,16H,2,4H2,1H3,(H,12,17,18)/t6-,7+,8+/m0/s1
Instrument: TripleTOF 5600 SCIEX
Instrument type: LC-ESI-QTOF
Ms type: MS2
Ion mode: NEGATIVE
Collision energy: 40
Fragmentation mode: CID
Ionization: ESI
Column name: Zorbax Eclipse Plus C18 2.1 mm x 150 mm, 3.5 um, Agilent
Retention time: 5.902 min
Precursor m/z: 266.0895
Precursor type: [M-H]-
m/z	relative intensity
42.0023	999
122.0635	82
