Mass spectrum: Amoxicillin; LC-ESI-QTOF; MS2; 80 V
Name: Amoxicillin
Class: Pharmaceutical
Formula: C16H19N3O5S
Exact mass: 365.1045
InChI: InChI=1S/C16H19N3O5S/c1-16(2)11(15(23)24)19-13(22)10(14(19)25-16)18-12(21)9(17)7-3-5-8(20)6-4-7/h3-6,9-11,14,20H,17H2,1-2H3,(H,18,21)(H,23,24)/t9-,10-,11+,14-/m1/s1
Instrument: TripleTOF 5600 SCIEX
Instrument type: LC-ESI-QTOF
Ms type: CID
Ion mode: POSITIVE
Collision energy: 80
Ionization: ESI
Column name: Zorbax Eclipse Plus C18 2.1 mm x 150 mm, 3.5 um, Agilent
Retention time: 4.706 min
Precursor m/z: 366.1118
Precursor type: [M+H]+
m/z	relative intensity
58.9995	181
70.0666	90
77.0405	399
79.0553	163
86.0066	926
89.0389	127
91.0549	127
105.0326	90
106.0417	90
106.0643	163
107.0477	999
114.0004	508
114.0354	145
116.0465	308
117.0577	108
122.0586	72
133.0511	217
134.0582	236
134.074	72
137.0048	308
163.0199	72
