Mass spectrum: Chloridazone-desphenyl; LC-ESI-QTOF; MS2; 90 V
Name: Chloridazone-desphenyl
Class: Herbicide; Transformation_product; Transformation_product-Metabolite
Formula: C4H4ClN3O
Exact mass: 145.0043
SMILES: C1=NNC(=O)C(=C1N)Cl
InChI: InChI=1S/C4H4ClN3O/c5-3-2(6)1-7-8-4(3)9/h1H,(H3,6,8,9)
Instrument: TripleTOF 6600 SCIEX
Instrument type: LC-ESI-QTOF
Ms type: MS2
Ion mode: NEGATIVE
Collision energy: 90
Fragmentation mode: CID
Ionization: ESI
Column name: Zorbax Eclipse Plus C18 2.1 mm x 150 mm, 3.5 um, Agilent
Retention time: 2.877 min
Precursor m/z: 143.997
Precursor type: [M-H]-
m/z	relative intensity
34.969	999
38.0027	111
50.0025	111
64.0071	222
