Mass spectrum: Etrimfos; LC-ESI-QTOF; MS2; 90 V
Name: Etrimfos
Class: Insecticide
Formula: C10H17N2O4PS
Exact mass: 292.0647
SMILES: CCC1=NC(=CC(=N1)OP(=S)(OC)OC)OCC
InChI: InChI=1S/C10H17N2O4PS/c1-5-8-11-9(15-6-2)7-10(12-8)16-17(18,13-3)14-4/h7H,5-6H2,1-4H3
Instrument: TripleTOF 6600 SCIEX
Instrument type: LC-ESI-QTOF
Ms type: MS2
Ion mode: POSITIVE
Collision energy: 90
Fragmentation mode: CID
Ionization: ESI
Column name: Zorbax Eclipse Plus C18 2.1 mm x 150 mm, 3.5 um, Agilent
Retention time: 14.241 min
Precursor m/z: 293.072
Precursor type: [M+H]+
m/z	relative intensity
40.0173	52
42.0337	13
43.9711	23
44.9789	999
45.9863	36
46.9718	218
46.9903	972
48.9831	20
56.0489	100
56.9787	11
62.0175	22
62.9438	23
62.9986	75
64.9779	19
68.0122	198
68.9958	12
78.9394	16
78.9933	303
79.9466	11
93.0087	54
109.0034	29
110.9647	62
124.9799	24
