Mass spectrum: Citalopram; LC-ESI-QTOF; MS2; 150 V
Name: Citalopram
Class: Pharmaceutical
Formula: C20H21FN2O
Exact mass: 324.1638
SMILES: CN(C)CCCC1(OCc2cc(ccc12)C#N)c3ccc(F)cc3
InChI: InChI=1S/C20H21FN2O/c1-23(2)11-3-10-20(17-5-7-18(21)8-6-17)19-9-4-15(13-22)12-16(19)14-24-20/h4-9,12H,3,10-11,14H2,1-2H3
Instrument: TripleTOF 5600 SCIEX
Instrument type: LC-ESI-QTOF
Ms type: MS2
Ion mode: POSITIVE
Collision energy: 150
Fragmentation mode: CID
Ionization: ESI
Column name: Zorbax Eclipse Plus C18 2.1 mm x 150 mm, 3.5 um, Agilent
Retention time: 7.757 min
Precursor m/z: 325.1711
Precursor type: [M+H]+
m/z	relative intensity
42.0422	112
43.0503	20
44.0576	91
51.0297	174
56.0549	20
57.0197	999
58.0704	271
59.034	96
60.0057	46
65.0444	59
68.0099	33
69.0167	31
70.0251	28
73.0108	91
74.019	999
75.0261	589
75.0441	20
75.0627	13
76.0342	67
77.0419	174
78.0492	13
81.016	169
83.0319	920
85.0094	182
86.0167	255
87.0251	422
88.0198	151
89.0408	370
90.0352	41
92.0065	20
94.0223	125
95.0296	62
96.0384	36
97.0067	49
98.016	657
99.0238	320
100.0316	91
101.0387	23
102.0471	62
105.0138	75
106.0221	26
107.0306	198
109.0078	62
109.0448	119
110.0149	224
111.0108	26
111.0227	166
112.0182	44
113.0388	229
114.0342	99
115.0541	36
117.0148	13
118.0213	49
119.9994	28
120.0365	99
121.007	46
122.0156	503
123.0224	253
124.0184	20
124.0299	44
125.0393	41
126.0462	93
127.054	20
128.0629	23
129.0129	44
131.0298	112
132	26
132.0347	13
133.0077	31
133.0447	106
134.0141	125
135.0097	39
135.0231	91
136.02	15
137.0391	122
138.0338	44
139.0535	23
140.0042	18
140.0496	59
141.0138	44
142.0218	54
143.0289	18
144.0374	117
145.0428	20
146.0144	266
146.0509	26
147.0204	148
148.0289	78
149.0391	114
150.0459	226
151.0527	44
152.064	10
153.0141	23
155.0288	122
156.0314	39
157.0446	62
158.0151	39
158.0377	18
159.0146	41
160.0233	26
161.0394	326
162.0451	174
163.0548	148
164.0491	49
166.0226	33
167.0293	109
168.0373	362
169.0457	75
170.0154	73
170.0514	31
171.0206	78
172.0291	57
173.0392	101
174.0462	213
175.0424	104
176.0564	15
179.0304	237
180.0376	185
181.0448	289
182.0409	59
185.0384	169
186.0435	187
187.0533	266
188.0498	179
189.0575	13
191.0306	52
192.0365	242
193.0351	101
194.0527	44
195.0158	23
196.0303	59
197.0378	200
198.0453	461
199.0418	127
199.0558	73
200.0619	65
201.0594	13
203.0287	117
204.0374	127
205.0441	279
206.0406	164
207.0497	26
208.0562	18
209.0375	54
210.0412	106
211.0535	213
212.0479	166
213.0666	18
215.0296	59
216.0368	380
217.045	206
218.0534	208
219.0496	49
221.038	15
222.0332	28
223.0416	143
224.0488	67
225.0555	83
228.0387	18
229.0441	96
230.0419	78
231.0585	62
232.0576	15
235.0431	20
236.0489	86
237.0568	18
238.0674	31
240.0356	15
241.0287	18
242.0442	36
243.0483	148
244.0552	15
254.0419	31
256.056	33
