Mass spectrum: Triphenylphosphine oxide; LC-ESI-QTOF; MS2; 70 V
Name: Triphenylphosphine oxide
Class: Industrial_process
Formula: C18H15OP
Exact mass: 278.0861
SMILES: O=[P](c1ccccc1)(c2ccccc2)c3ccccc3
InChI: InChI=1S/C18H15OP/c19-20(16-10-4-1-5-11-16,17-12-6-2-7-13-17)18-14-8-3-9-15-18/h1-15H
Instrument: TripleTOF 5600 SCIEX
Instrument type: LC-ESI-QTOF
Ms type: MS2
Ion mode: POSITIVE
Collision energy: 70
Fragmentation mode: CID
Ionization: ESI
Column name: Zorbax Eclipse Plus C18 2.1 mm x 150 mm, 3.5 um, Agilent
Retention time: 10.458 min
Precursor m/z: 279.0933
Precursor type: [M+H]+
m/z	relative intensity
51.0305	215
68.9928	68
77.0419	999
95.0058	188
107.0039	45
115.0541	53
122.9986	22
125.0141	13
127.0524	25
128.0622	194
129.0698	60
133.0204	110
139.0532	22
141.0685	35
145.0198	17
147.0344	14
151.0538	17
152.0619	173
153.0698	141
154.0765	53
157.0206	44
170.0285	119
171.0356	133
173.0527	43
181.0238	11
183.0352	161
201.0472	35
