Mass spectrum: Prochloraz; LC-ESI-QTOF; MS2; 40 V
Name: Prochloraz
Class: Fungicide
Formula: C15H16Cl3N3O2
Exact mass: 375.0308
SMILES: CCCN(CCOc1c(cc(cc1Cl)Cl)Cl)C(=O)n2ccnc2
InChI: InChI=1S/C15H16Cl3N3O2/c1-2-4-20(15(22)21-5-3-19-10-21)6-7-23-14-12(17)8-11(16)9-13(14)18/h3,5,8-10H,2,4,6-7H2,1H3
Instrument: TripleTOF 6600 SCIEX
Instrument type: LC-ESI-QTOF
Ms type: MS2
Ion mode: POSITIVE
Collision energy: 40
Fragmentation mode: CID
Ionization: ESI
Column name: Zorbax Eclipse Plus C18 2.1 mm x 150 mm, 3.5 um, Agilent
Retention time: 11.258 min
Precursor m/z: 376.0381
Precursor type: [M+H]+
m/z	relative intensity
39.0229	21
41.0384	87
42.0337	75
43.0542	261
56.0495	163
57.0566	42
70.0289	999
70.0524	167
70.0646	342
71.0369	13
72.0437	25
84.0801	11
85.0884	172
98.0593	57
112.0759	15
113.0836	30
138.0113	16
158.9756	50
159.9831	21
160.9545	20
161.9626	37
166.0032	60
166.9209	43
167.012	48
173.9865	60
174.9704	84
179.9275	35
180.0203	13
186.9725	23
187.9783	33
192.9366	11
194.9157	253
194.9513	48
196.9305	101
201.9803	101
202.9903	18
204.9371	15
206.9291	13
208.0518	10
209.0592	20
215.9957	20
222.9473	249
237.9593	33
244.0304	35
245.0363	45
265.9527	55
280.0065	32
307.9994	74
