Mass spectrum: Pindolol; LC-ESI-QTOF; MS2; 90 V
Name: Pindolol
Class: Pharmaceutical
Formula: C14H20N2O2
Exact mass: 248.1525
SMILES: CC(C)NCC(COC1=CC=CC2=C1C=CN2)O
InChI: InChI=1S/C14H20N2O2/c1-10(2)16-8-11(17)9-18-14-5-3-4-13-12(14)6-7-15-13/h3-7,10-11,15-17H,8-9H2,1-2H3
Instrument: TripleTOF 5600 SCIEX
Instrument type: LC-ESI-QTOF
Ms type: MS2
Ion mode: POSITIVE
Collision energy: 90
Fragmentation mode: CID
Ionization: ESI
Column name: Zorbax Eclipse Plus C18 2.1 mm x 150 mm, 3.5 um, Agilent
Retention time: 5.148 min
Precursor m/z: 249.1598
Precursor type: [M+H]+
m/z	relative intensity
42.0471	20
44.0624	13
56.0589	198
57.0434	13
58.0736	104
65.0463	281
72.0846	24
72.0921	20
74.066	52
75.0295	27
76.0341	27
77.0446	678
78.0417	135
79.046	27
79.0605	107
89.0435	999
90.0369	24
90.0503	194
91.0583	393
101.0404	17
102.0503	76
103.0546	41
104.054	240
105.0346	17
105.0626	45
106.0671	31
107.0521	80
115.0565	320
116.0523	250
117.06	386
118.068	20
126.0499	20
127.0544	24
128.0515	24
130.0683	20
132.0487	27
133.0559	48
141.0576	17
142.066	52
143.0729	31
154.066	24
