Mass spectrum: Ethyl-2-cyano-3.3-diphenylacrylate; LC-ESI-QTOF; MS2; 100 V
Name: Ethyl-2-cyano-3.3-diphenylacrylate
Class: Industrial_process; Personal_care_product
Formula: C18H15NO2
Exact mass: 277.1103
SMILES: CCOC(=O)C(=C(C1=CC=CC=C1)C2=CC=CC=C2)C#N
InChI: InChI=1S/C18H15NO2/c1-2-21-18(20)16(13-19)17(14-9-5-3-6-10-14)15-11-7-4-8-12-15/h3-12H,2H2,1H3
Instrument: TripleTOF 5600 SCIEX
Instrument type: LC-ESI-QTOF
Ms type: MS2
Ion mode: POSITIVE
Collision energy: 100
Fragmentation mode: CID
Ionization: ESI
Column name: Zorbax Eclipse Plus C18 2.1 mm x 150 mm, 3.5 um, Agilent
Retention time: 13.596 min
Precursor m/z: 278.1176
Precursor type: [M+H]+
m/z	relative intensity
74.0217	70
75.027	137
76.0342	41
77.0436	526
78.0527	19
87.0283	19
89.0419	25
98.0163	76
99.0253	86
100.0333	28
101.0388	38
102.0485	79
104.0532	15
110.0158	22
111.0229	15
113.0389	12
115.0559	25
122.0139	19
123.0226	41
124.0319	28
125.0383	95
126.0463	165
127.054	54
128.0643	35
129.0355	22
139.0556	28
149.0391	159
150.0469	999
151.0541	456
152.0622	143
153.0561	15
163.0555	54
164.0556	19
165.0662	19
174.0472	264
175.0528	386
176.0612	593
177.0586	130
178.0756	19
187.0568	15
188.0589	12
199.0464	12
200.0511	31
201.0562	236
202.0655	63
