Mass spectrum: 3,5-Dichloro-4-hydroxybenzaldehyde; LC-ESI-QTOF; MS2; 90 V
Name: 3,5-Dichloro-4-hydroxybenzaldehyde
Formula: C7H4Cl2O2
Exact mass: 189.9588
SMILES: C1=C(C=C(C(=C1Cl)O)Cl)C=O
InChI: InChI=1S/C7H4Cl2O2/c8-5-1-4(3-10)2-6(9)7(5)11/h1-3,11H
Instrument: TripleTOF 6600 SCIEX
Instrument type: LC-ESI-QTOF
Ms type: MS2
Ion mode: NEGATIVE
Collision energy: 90
Fragmentation mode: CID
Ionization: ESI
Column name: Zorbax Eclipse Plus C18 2.1 mm x 150 mm, 3.5 um, Agilent
Retention time: 9.07 min
Precursor m/z: 188.9515
Precursor type: [M-H]-
m/z	relative intensity
34.9687	999
