Mass spectrum: Norgestrel; LC-ESI-QTOF; MS2; 110 V
Name: Norgestrel
Class: Pharmaceutical
Formula: C21H28O2
Exact mass: 312.2089
SMILES: CCC12CCC3C(C1CCC2(C#C)O)CCC4=CC(=O)CCC34
InChI: InChI=1S/C21H28O2/c1-3-20-11-9-17-16-8-6-15(22)13-14(16)5-7-18(17)19(20)10-12-21(20,23)4-2/h2,13,16-19,23H,3,5-12H2,1H3
Instrument: TripleTOF 5600 SCIEX
Instrument type: LC-ESI-QTOF
Ms type: MS2
Ion mode: POSITIVE
Collision energy: 110
Fragmentation mode: CID
Ionization: ESI
Column name: Zorbax Eclipse Plus C18 2.1 mm x 150 mm, 3.5 um, Agilent
Retention time: 12.063 min
Precursor m/z: 313.2162
Precursor type: [M+H]+
m/z	relative intensity
43.0309	21
53.0133	13
55.0273	45
65.0463	353
67.0611	69
75.0301	21
77.0449	999
78.052	93
79.0597	289
81.0392	13
81.0757	72
83.054	88
89.0435	91
91.0589	677
94.0464	24
101.0423	18
102.0494	101
103.0576	83
104.0675	10
105.0747	48
107.0511	37
109.069	34
115.0575	690
116.0653	29
117.0733	45
126.0499	45
127.0572	182
128.0648	444
129.0728	64
131.0524	13
139.0572	26
141.0713	112
144.0617	10
150.0465	18
151.0486	10
151.0589	29
152.0629	152
153.0724	64
163.0562	18
164.0639	24
165.0719	85
167.0896	10
176.0616	21
177.0709	13
178.0805	16
189.0712	48
202.0779	18
