Mass spectrum: Thiabendazole; LC-ESI-QTOF; MS2; 40 V
Name: Thiabendazole
Class: Fungicide; Pharmaceutical
Formula: C10H7N3S
Exact mass: 201.0361
SMILES: [nH]1c2ccccc2nc1c3cscn3
InChI: InChI=1S/C10H7N3S/c1-2-4-8-7(3-1)12-10(13-8)9-5-14-6-11-9/h1-6H,(H,12,13)
Instrument: TripleTOF 5600 SCIEX
Instrument type: LC-ESI-QTOF
Ms type: MS2
Ion mode: POSITIVE
Collision energy: 40
Fragmentation mode: CID
Ionization: ESI
Column name: Zorbax Eclipse Plus C18 2.1 mm x 150 mm, 3.5 um, Agilent
Retention time: 5.203 min
Precursor m/z: 202.0433
Precursor type: [M+H]+
m/z	relative intensity
65.0437	198
77.042	46
90.0345	10
92.0513	153
104.0502	100
118.0525	22
129.044	10
131.0611	751
134.0044	35
142.0545	10
143.0603	96
157.0642	14
158.0703	43
170.0701	18
175.0328	999
202.0436	683
