Mass spectrum: Mandipropamid; LC-ESI-QTOF; MS2; 40 V
Name: Mandipropamid
Class: Fungicide
Formula: C23H22ClNO4
Exact mass: 411.1237
SMILES: COC1=C(C=CC(=C1)CCNC(=O)C(C2=CC=C(C=C2)Cl)OCC#C)OCC#C
InChI: InChI=1S/C23H22ClNO4/c1-4-14-28-20-11-6-17(16-21(20)27-3)12-13-25-23(26)22(29-15-5-2)18-7-9-19(24)10-8-18/h1-2,6-11,16,22H,12-15H2,3H3,(H,25,26)
Instrument: TripleTOF 6600 SCIEX
Instrument type: LC-ESI-QTOF
Ms type: MS2
Ion mode: POSITIVE
Collision energy: 40
Fragmentation mode: CID
Ionization: ESI
Column name: Zorbax Eclipse Plus C18 2.1 mm x 150 mm, 3.5 um, Agilent
Retention time: 12.239 min
Precursor m/z: 412.131
Precursor type: [M+H]+
m/z	relative intensity
89.0378	18
91.0535	36
103.0535	11
115.054	21
116.062	14
117.0694	18
118.0646	18
119.0483	13
119.0721	11
121.064	18
125.0151	999
127.0548	12
128.0614	27
129.069	36
131.0483	27
133.0645	10
135.0435	21
136.0504	11
136.0747	14
138.9932	14
140.0251	32
144.0569	12
144.0797	25
145.0647	27
146.0594	18
146.0718	29
147.0439	20
147.068	23
148.0511	59
148.0743	14
149.0588	10
150.056	16
150.0673	24
151.0743	10
152.0259	15
157.0643	14
158.0717	17
159.0745	22
160.0755	14
161.0594	17
161.0968	33
162.0557	16
164.0698	111
165.0777	64
172.0751	14
174.0665	15
175.0734	14
176.0703	26
177.0776	41
178.0806	15
187.0737	12
188.1055	19
189.0905	64
191.0837	12
194.072	12
202.0809	11
203.0922	44
204.1009	141
205.0994	13
207.081	11
208.0879	22
215.0849	18
216.099	47
218.1075	12
221.0964	16
225.0478	11
225.09	33
229.0422	18
232.089	27
233.0962	19
236.1173	12
237.0905	21
239.0614	10
241.0425	14
242.0503	13
243.0558	29
244.0893	16
245.0981	14
251.0616	16
256.0657	15
257.0367	20
261.0914	13
264.1021	18
270.0664	11
271.0527	35
271.0879	10
272.0595	42
279.0558	22
280.0639	14
281.0645	12
283.0865	36
288.0789	23
289.086	36
298.0614	10
299.0827	38
300.0789	19
311.0821	36
328.1091	228
