Mass spectrum: N-[2-[(2-Bromo-4,6-dinitrophenyl)azo]-5-(diethylamino)phenyl]acetamide; LC-ESI-QTOF; MS2; 70 V
Name: N-[2-[(2-Bromo-4,6-dinitrophenyl)azo]-5-(diethylamino)phenyl]acetamide
Formula: C18H19BrN6O5
Exact mass: 478.06
SMILES: CCN(CC)C1=CC(=C(C=C1)N=NC2=C(C=C(C=C2Br)[N+](=O)[O-])[N+](=O)[O-])NC(=O)C
InChI: InChI=1S/C18H19BrN6O5/c1-4-23(5-2)12-6-7-15(16(9-12)20-11(3)26)21-22-18-14(19)8-13(24(27)28)10-17(18)25(29)30/h6-10H,4-5H2,1-3H3,(H,20,26)
Instrument: TripleTOF X500R SCIEX
Instrument type: LC-ESI-QTOF
Ms type: MS2
Ion mode: POSITIVE
Collision energy: 70
Fragmentation mode: CID
Ionization: ESI
Column name: Zorbax Eclipse Plus C18 2.1 mm x 150 mm, 3.5 um, Agilent
Retention time: 16.579 min
Precursor m/z: 479.0673
Precursor type: [M+H]+
m/z	relative intensity
43.0176	37
80.0495	25
92.0496	13
93.0578	75
94.065	42
95.0606	17
104.0509	11
105.045	28
106.0659	41
107.0379	16
107.0608	101
108.0443	94
108.0803	60
109.0759	55
117.0563	26
118.0665	13
119.0613	51
120.0587	109
121.0762	547
122.0602	27
122.0977	18
123.0926	21
128.9346	26
131.0627	26
132.0445	13
132.0813	17
133.0649	130
134.0714	289
135.0922	120
136.0761	124
145.077	30
146.0729	26
147.0567	44
147.0788	74
148.0637	182
148.0876	198
149.0715	12
149.1078	196
150.0928	18
161.0711	55
161.1008	18
162.0798	37
162.1025	274
163.0866	475
163.1232	124
167.0665	25
175.0769	44
176.0893	13
176.1194	18
177.1026	241
179.0616	15
191.118	999
193.0774	32
194.0748	44
195.0813	13
204.1137	25
221.0834	18
222.099	22
237.1172	12
244.9854	11
250.1332	36
257.9812	15
265.1446	74
271.993	18
272.9904	72
284.989	23
300.0076	23
300.9864	32
301.0278	16
313.0225	11
315.0234	11
316.0352	18
328.0413	39
329.0477	28
344.063	44
345.0471	11
345.9933	11
