Mass spectrum: 2,2`-Dihydroxy-4,4`-dimethoxybenzophenone; LC-ESI-QTOF; MS2; 70 V
Name: 2,2`-Dihydroxy-4,4`-dimethoxybenzophenone
Class: Industrial_process; Personal_care_product
Formula: C15H14O5
Exact mass: 274.0841
SMILES: COc1ccc(c(O)c1)C(=O)c2ccc(OC)cc2O
InChI: InChI=1S/C15H14O5/c1-19-9-3-5-11(13(16)7-9)15(18)12-6-4-10(20-2)8-14(12)17/h3-8,16-17H,1-2H3
Instrument: TripleTOF 5600 SCIEX
Instrument type: LC-ESI-QTOF
Ms type: MS2
Ion mode: POSITIVE
Collision energy: 70
Fragmentation mode: CID
Ionization: ESI
Column name: Zorbax Eclipse Plus C18 2.1 mm x 150 mm, 3.5 um, Agilent
Retention time: 12.683 min
Precursor m/z: 275.0914
Precursor type: [M+H]+
m/z	relative intensity
52.0364	320
53.0063	16
55.0226	49
65.0425	552
67.0562	129
68.9994	158
77.0399	39
79.0187	29
80.0276	559
89.0413	13
93.0342	49
95.0499	999
108.0197	764
115.0534	112
123.0444	62
126.0464	23
127.0536	43
136.0154	29
139.0511	16
151.0385	393
171.0453	19
