Mass spectrum: Propyphenazone; LC-ESI-QTOF; MS2; 40 V
Name: Propyphenazone
Class: Pharmaceutical
Formula: C14H18N2O
Exact mass: 230.1419
SMILES: CC1=C(C(=O)N(N1C)C2=CC=CC=C2)C(C)C
InChI: InChI=1S/C14H18N2O/c1-10(2)13-11(3)15(4)16(14(13)17)12-8-6-5-7-9-12/h5-10H,1-4H3
Instrument: TripleTOF 5600 SCIEX
Instrument type: LC-ESI-QTOF
Ms type: MS2
Ion mode: POSITIVE
Collision energy: 40
Fragmentation mode: CID
Ionization: ESI
Column name: Zorbax Eclipse Plus C18 2.1 mm x 150 mm, 3.5 um, Agilent
Retention time: 9.545 min
Precursor m/z: 231.1492
Precursor type: [M+H]+
m/z	relative intensity
39.0227	10
41.0381	14
42.0334	16
43.0539	11
44.0491	10
51.0228	16
53.038	14
55.0542	31
56.0496	652
58.0648	31
65.0384	39
67.0416	14
68.0488	13
70.0653	15
77.0388	281
79.0542	47
80.0491	34
81.0572	29
81.0693	20
82.0648	148
91.0544	46
92.0494	131
93.0563	32
94.0647	106
95.0727	70
96.0457	9
96.081	135
97.0886	20
98.0602	22
100.1123	21
103.0554	35
104.0489	125
105.034	18
105.066	11
106.0656	29
108.0809	9
110.0955	45
112.0777	16
112.112	126
115.0546	68
116.0524	19
117.0625	113
118.0653	185
120.0432	49
120.0803	128
123.0929	10
124.0759	70
128.0524	23
128.1057	11
129.0669	13
130.0652	147
131.0722	140
132.0802	66
133.0541	26
133.0756	34
134.0953	23
135.0565	14
138.0901	30
139.086	14
142.0643	30
143.0736	47
144.081	146
145.0686	68
146.0944	212
147.0919	29
148.0786	18
148.1121	17
156.0785	17
157.0908	16
158.06	14
158.0965	29
159.0693	10
159.0935	20
160.0986	41
161.1089	56
171.0532	14
172.0745	24
172.1113	44
173.1085	10
174.0813	30
185.0718	16
186.0808	32
188.0942	29
189.1023	733
201.1031	410
203.1548	26
215.1176	17
216.127	63
229.1321	24
231.1495	999
