Mass spectrum: 2-Piperidin-3-yl-benzothiazole; LC-ESI-QTOF; MS2; 90 V
Name: 2-Piperidin-3-yl-benzothiazole
Formula: C12H14N2S
Exact mass: 218.0878
SMILES: C1CC(CNC1)C2=NC3=CC=CC=C3S2
InChI: InChI=1S/C12H14N2S/c1-2-6-11-10(5-1)14-12(15-11)9-4-3-7-13-8-9/h1-2,5-6,9,13H,3-4,7-8H2
Instrument: TripleTOF 5600 SCIEX
Instrument type: LC-ESI-QTOF
Ms type: MS2
Ion mode: POSITIVE
Collision energy: 90
Fragmentation mode: CID
Ionization: ESI
Column name: Zorbax Eclipse Plus C18 2.1 mm x 150 mm, 3.5 um, Agilent
Retention time: 5.623 min
Precursor m/z: 219.095
Precursor type: [M+H]+
m/z	relative intensity
37.0075	14
38.0164	14
39.0224	74
42.0341	21
44.0493	63
44.9791	264
50.0141	31
51.0225	98
54.0339	17
57.9871	91
63.0228	81
65.0385	540
67.9717	38
68.9795	999
70.065	28
70.9942	24
74.016	28
75.0227	42
76.0185	17
76.0309	14
77.0383	420
78.0469	24
80.9795	28
81.9868	465
82.9964	17
89.0383	144
90.0476	38
91.0543	24
92.9789	158
94.9952	21
96.0037	21
102.0336	31
103.0551	35
104.0492	84
106.9959	60
108.0028	741
109.0109	377
115.0536	28
116.0486	42
117.057	70
121.0103	201
128.0565	21
130.0644	56
136.024	21
146.0124	21
148.0212	187
149.0279	70
160.0167	14
172.018	24
173.0298	95
174.0373	28
