Mass spectrum: Metachrome Yellow free acid; LC-ESI-QTOF; MS2; 150 V
Name: Metachrome Yellow free acid
Formula: C13H9N3O5
Exact mass: 287.0542
SMILES: C1=CC(=CC(=C1)[N+](=O)[O-])N=NC2=CC(=C(C=C2)O)C(=O)O
InChI: InChI=1S/C13H9N3O5/c17-12-5-4-9(7-11(12)13(18)19)15-14-8-2-1-3-10(6-8)16(20)21/h1-7,17H,(H,18,19)
Instrument: TripleTOF 6600 SCIEX
Instrument type: LC-ESI-QTOF
Ms type: MS2
Ion mode: POSITIVE
Collision energy: 150
Fragmentation mode: CID
Ionization: ESI
Column name: Zorbax Eclipse Plus C18 2.1 mm x 150 mm, 3.5 um, Agilent
Retention time: 11.919 min
Precursor m/z: 288.0615
Precursor type: [M+H]+
m/z	relative intensity
37.0065	184
38.0145	142
39.0221	53
49.0062	130
50.0143	600
51.0098	41
51.0219	130
52.0169	214
53.0012	178
59.9984	41
61.0063	374
62.0142	636
63.0219	654
73.0061	214
74.0136	999
75.0227	184
76.0179	29
76.0297	23
85.0055	29
86.0132	89
89.0372	23
