Mass spectrum: 4-Hydroxydiphenylamine; LC-ESI-QTOF; MS2; 150 V
Name: 4-Hydroxydiphenylamine
Class: Pesticide
Formula: C12H11NO
Exact mass: 185.0841
SMILES: C1=CC=C(C=C1)NC2=CC=C(C=C2)O
InChI: InChI=1S/C12H11NO/c14-12-8-6-11(7-9-12)13-10-4-2-1-3-5-10/h1-9,13-14H
Instrument: TripleTOF 6600 SCIEX
Instrument type: LC-ESI-QTOF
Ms type: MS2
Ion mode: POSITIVE
Collision energy: 150
Fragmentation mode: CID
Ionization: ESI
Column name: Zorbax Eclipse Plus C18 2.1 mm x 150 mm, 3.5 um, Agilent
Retention time: 10.034 min
Precursor m/z: 186.0914
Precursor type: [M+H]+
m/z	relative intensity
35.9989	271
37.0067	999
38.0029	123
38.0143	629
39.0221	555
40.0173	86
41.0248	74
49.0065	419
50.0142	986
51.0095	86
51.022	259
52.0168	172
53.001	98
53.0383	49
61.0066	246
62.0144	172
63.022	98
73.0066	74
74.0143	123
