Mass spectrum: Clenbuterol; LC-ESI-QTOF; MS2; 150 V
Name: Clenbuterol
Class: Pharmaceutical
Formula: C12H18Cl2N2O
Exact mass: 276.0796
SMILES: CC(C)(C)NCC(c1cc(c(c(c1)Cl)N)Cl)O
InChI: InChI=1S/C12H18Cl2N2O/c1-12(2,3)16-6-10(17)7-4-8(13)11(15)9(14)5-7/h4-5,10,16-17H,6,15H2,1-3H3
Instrument: TripleTOF 5600 SCIEX
Instrument type: LC-ESI-QTOF
Ms type: MS2
Ion mode: POSITIVE
Collision energy: 150
Fragmentation mode: CID
Ionization: ESI
Column name: Zorbax Eclipse Plus C18 2.1 mm x 150 mm, 3.5 um, Agilent
Retention time: 6.115 min
Precursor m/z: 277.0869
Precursor type: [M+H]+
m/z	relative intensity
42.0416	80
52.0227	70
52.0359	50
57.0724	90
58.0693	312
64.0337	50
72.9871	141
73.0106	100
74.0181	595
75.0142	70
75.0259	222
76.02	70
76.031	50
77.0409	999
78.0378	191
79.0437	40
80.0533	60
86.017	50
88.0186	60
89.0408	383
90.0352	50
104.0502	393
105.057	50
114.0315	50
