Mass spectrum: Telmisartan; LC-ESI-QTOF; MS2; 80 V
Name: Telmisartan
Class: Pharmaceutical
Formula: C33H30N4O2
Exact mass: 514.2369
SMILES: CCCc1nc2c(C)cc(cc2n1Cc3ccc(cc3)c4ccccc4C(O)=O)c5nc6ccccc6n5C
InChI: InChI=1S/C33H30N4O2/c1-4-9-30-35-31-21(2)18-24(32-34-27-12-7-8-13-28(27)36(32)3)19-29(31)37(30)20-22-14-16-23(17-15-22)25-10-5-6-11-26(25)33(38)39/h5-8,10-19H,4,9,20H2,1-3H3,(H,38,39)
Instrument: TripleTOF 5600 SCIEX
Instrument type: LC-ESI-QTOF
Ms type: MS2
Ion mode: POSITIVE
Collision energy: 80
Fragmentation mode: CID
Ionization: ESI
Column name: Zorbax Eclipse Plus C18 2.1 mm x 150 mm, 3.5 um, Agilent
Retention time: 8.861 min
Precursor m/z: 515.2442
Precursor type: [M+H]+
m/z	relative intensity
115.0575	23
152.0622	52
153.07	23
155.0867	29
165.069	122
166.0801	23
183.0927	23
193.0658	116
211.0733	58
234.1048	29
247.0969	23
260.1087	75
261.1136	484
262.1217	23
273.1122	40
274.1206	64
275.1298	373
276.1376	999
287.1284	58
289.1443	338
301.1433	29
303.1607	163
305.1788	40
423.1733	35
467.1892	75
485.2	70
