Mass spectrum: Decyl hydrogen phthalate; LC-ESI-QTOF; MS2; 10 V
Name: Decyl hydrogen phthalate
Formula: C18H26O4
Exact mass: 306.1831
SMILES: CCCCCCCCCCOC(=O)C1=CC=CC=C1C(=O)O
InChI: InChI=1S/C18H26O4/c1-2-3-4-5-6-7-8-11-14-22-18(21)16-13-10-9-12-15(16)17(19)20/h9-10,12-13H,2-8,11,14H2,1H3,(H,19,20)
Instrument: TripleTOF 6600 SCIEX
Instrument type: LC-ESI-QTOF
Ms type: MS2
Ion mode: NEGATIVE
Collision energy: 10
Fragmentation mode: CID
Ionization: ESI
Column name: Zorbax Eclipse Plus C18 2.1 mm x 150 mm, 3.5 um, Agilent
Retention time: 16.185 min
Precursor m/z: 305.1758
Precursor type: [M-H]-
m/z	relative intensity
305.1827	999
