Mass spectrum: Dehydroepiandrosterone; LC-ESI-QTOF; MS2; 30 V
Name: Dehydroepiandrosterone
Class: Pharmaceutical
Formula: C19H28O2
Exact mass: 288.2089
SMILES: C[C@]12CC[C@H]3[C@@H](CC=C4C[C@@H](O)CC[C@]34C)[C@@H]1CCC2=O
InChI: InChI=1S/C19H28O2/c1-18-9-7-13(20)11-12(18)3-4-14-15-5-6-17(21)19(15,2)10-8-16(14)18/h3,13-16,20H,4-11H2,1-2H3/t13-,14-,15-,16-,18-,19-/m0/s1
Instrument: TripleTOF 5600 SCIEX
Instrument type: LC-ESI-QTOF
Ms type: MS2
Ion mode: POSITIVE
Collision energy: 30
Fragmentation mode: CID
Ionization: ESI
Column name: Zorbax Eclipse Plus C18 2.1 mm x 150 mm, 3.5 um, Agilent
Retention time: 11.589 min
Precursor m/z: 289.2162
Precursor type: [M+H]+
m/z	relative intensity
79.0541	33
81.0713	105
91.0553	46
93.0713	46
95.0878	46
97.0646	33
105.0682	86
107.0851	46
117.0684	72
119.0854	46
121.0994	59
131.085	112
133.1008	218
135.1169	105
141.071	46
143.0827	72
145.0993	172
147.1168	132
155.0844	72
157.1001	244
159.1153	238
169.1001	46
171.1159	264
173.1317	99
182.1057	52
183.1165	86
185.133	99
197.1313	443
211.1454	198
213.1624	999
225.1622	86
231.1716	119
253.1922	476
271.2037	99
