Mass spectrum: Loratadine; LC-ESI-QTOF; MS2; 70 V
Name: Loratadine
Class: Pharmaceutical
Formula: C22H23ClN2O2
Exact mass: 382.1448
SMILES: CCOC(=O)N1CCC(=C2C3=C(CCC4=C2N=CC=C4)C=C(C=C3)Cl)CC1
InChI: InChI=1S/C22H23ClN2O2/c1-2-27-22(26)25-12-9-15(10-13-25)20-19-8-7-18(23)14-17(19)6-5-16-4-3-11-24-21(16)20/h3-4,7-8,11,14H,2,5-6,9-10,12-13H2,1H3
Instrument: TripleTOF 6600 SCIEX
Instrument type: LC-ESI-QTOF
Ms type: MS2
Ion mode: POSITIVE
Collision energy: 70
Fragmentation mode: CID
Ionization: ESI
Column name: Zorbax Eclipse Plus C18 2.1 mm x 150 mm, 3.5 um, Agilent
Retention time: 9.41 min
Precursor m/z: 383.1521
Precursor type: [M+H]+
m/z	relative intensity
80.0487	11
82.064	16
130.0644	11
152.0612	10
165.0698	12
178.0751	11
179.0724	31
191.0721	31
192.0801	36
193.0872	61
202.076	19
203.0724	12
204.0797	21
213.0327	11
214.0409	178
215.0762	17
216.0797	117
217.0878	235
218.0953	105
219.1044	16
226.0413	16
227.0471	13
228.0564	79
228.0788	63
229.087	69
230.0951	320
231.1032	424
232.1114	153
233.1186	10
238.0413	51
240.0564	11
241.0509	10
241.0879	69
242.0952	182
243.1037	662
244.1115	429
245.1191	302
246.1269	82
247.1353	11
250.0405	16
251.049	248
252.0563	536
253.0635	76
254.0949	12
256.1108	115
257.1195	57
258.1269	602
259.1343	108
264.0567	118
265.0643	125
266.0722	999
267.0794	268
276.0579	22
277.0637	67
278.072	256
279.0799	116
280.088	456
281.0939	16
282.1023	13
290.0714	11
292.089	84
