Mass spectrum: Difenoconazole; LC-ESI-QTOF; MS2; 90 V
Name: Difenoconazole
Class: Fungicide
Formula: C19H17Cl2N3O3
Exact mass: 405.0647
SMILES: CC1COC(Cn2cncn2)(O1)c3ccc(Oc4ccc(Cl)cc4)cc3Cl
InChI: InChI=1S/C19H17Cl2N3O3/c1-13-9-25-19(27-13,10-24-12-22-11-23-24)17-7-6-16(8-18(17)21)26-15-4-2-14(20)3-5-15/h2-8,11-13H,9-10H2,1H3
Instrument: TripleTOF 6600 SCIEX
Instrument type: LC-ESI-QTOF
Ms type: MS2
Ion mode: POSITIVE
Collision energy: 90
Fragmentation mode: CID
Ionization: ESI
Column name: Zorbax Eclipse Plus C18 2.1 mm x 150 mm, 3.5 um, Agilent
Retention time: 13.755 min
Precursor m/z: 406.072
Precursor type: [M+H]+
m/z	relative intensity
39.0229	14
50.0149	33
51.0229	33
63.0228	11
70.0406	11
72.9829	12
73.007	12
74.015	201
75.023	999
76.0301	12
77.0382	116
78.0468	16
84.9836	77
89.0383	29
98.9995	29
110.9991	716
113.013	14
114.0472	14
115.0526	12
126.0457	25
127.0543	35
128.0611	30
129.0696	11
138.0456	29
139.0051	193
139.0543	225
141.0096	324
149.0149	61
150.0463	35
151.0537	158
152.0618	976
153.0696	443
154.9898	24
155.0587	11
162.0222	43
167.0488	35
173.0144	90
174.0233	25
179.0588	12
180.0594	11
181.0641	129
182.9783	56
187.0303	27
188.0384	217
202.0172	111
208.992	22
215.0253	66
223.0048	11
251.0006	14
264.9831	12
