Mass spectrum: Fenarimol; LC-ESI-QTOF; MS2; 70 V
Name: Fenarimol
Class: Fungicide
Formula: C17H12Cl2N2O
Exact mass: 330.0327
SMILES: C1=CC=C(C(=C1)C(C2=CC=C(C=C2)Cl)(C3=CN=CN=C3)O)Cl
InChI: InChI=1S/C17H12Cl2N2O/c18-14-7-5-12(6-8-14)17(22,13-9-20-11-21-10-13)15-3-1-2-4-16(15)19/h1-11,22H
Instrument: TripleTOF 6600 SCIEX
Instrument type: LC-ESI-QTOF
Ms type: MS2
Ion mode: POSITIVE
Collision energy: 70
Fragmentation mode: CID
Ionization: ESI
Column name: Zorbax Eclipse Plus C18 2.1 mm x 150 mm, 3.5 um, Agilent
Retention time: 11.9 min
Precursor m/z: 331.04
Precursor type: [M+H]+
m/z	relative intensity
52.0173	11
54.0339	208
74.0147	29
75.0229	165
77.0381	15
81.0444	273
84.9838	17
102.0465	11
110.9994	647
128.048	19
130.0644	17
138.9992	585
151.053	25
152.0611	35
158.0583	19
163.0542	46
164.0257	15
165.0699	40
176.0613	79
177.0694	46
178.0772	99
187.0539	119
188.0623	148
189.0701	999
190.065	27
198.0243	15
199.0312	17
202.0637	21
203.073	52
204.0814	124
205.0641	79
206.0712	9
212.0399	15
214.0651	52
215.0728	21
216.0808	76
217.0647	13
217.0878	15
219.0319	13
223.0308	122
225.0442	9
232.0762	31
232.9918	23
238.0416	48
240.0561	23
241.041	13
241.0765	23
242.0836	39
243.0907	11
250.0421	25
251.0251	9
252.034	11
266.0379	25
