Mass spectrum: Dehydroaripiprazole; LC-ESI-QTOF; MS2; 20 V
Name: Dehydroaripiprazole
Class: Metabolite
Formula: C23H25Cl2N3O2
Exact mass: 445.1324
SMILES: C1CN(CCN1CCCCOC2=CC3=C(C=C2)C=CC(=O)N3)C4=C(C(=CC=C4)Cl)Cl
InChI: InChI=1S/C23H25Cl2N3O2/c24-19-4-3-5-21(23(19)25)28-13-11-27(12-14-28)10-1-2-15-30-18-8-6-17-7-9-22(29)26-20(17)16-18/h3-9,16H,1-2,10-15H2,(H,26,29)
Instrument: TripleTOF 5600 SCIEX
Instrument type: LC-ESI-QTOF
Ms type: MS2
Ion mode: POSITIVE
Collision energy: 20
Fragmentation mode: CID
Ionization: ESI
Column name: Zorbax Eclipse Plus C18 2.1 mm x 150 mm, 3.5 um, Agilent
Retention time: 7.84 min
Precursor m/z: 446.1397
Precursor type: [M+H]+
m/z	relative intensity
285.092	367
446.1387	999
