Mass spectrum: Testosterone; LC-ESI-QTOF; MS2; 60 V
Name: Testosterone
Class: Pharmaceutical
Formula: C19H28O2
Exact mass: 288.2089
SMILES: C[C@]12CC[C@H]3[C@@H](CCC4=CC(=O)CC[C@]34C)[C@@H]1CC[C@@H]2O
InChI: InChI=1S/C19H28O2/c1-18-9-7-13(20)11-12(18)3-4-14-15-5-6-17(21)19(15,2)10-8-16(14)18/h11,14-17,21H,3-10H2,1-2H3/t14-,15-,16-,17-,18-,19-/m0/s1
Instrument: TripleTOF 5600 SCIEX
Instrument type: LC-ESI-QTOF
Ms type: MS2
Ion mode: POSITIVE
Collision energy: 60
Fragmentation mode: CID
Ionization: ESI
Column name: Zorbax Eclipse Plus C18 2.1 mm x 150 mm, 3.5 um, Agilent
Retention time: 10.968 min
Precursor m/z: 289.2162
Precursor type: [M+H]+
m/z	relative intensity
43.0273	50
43.0373	12
55.0238	59
65.043	38
67.0605	152
69.0392	12
69.0744	91
77.0434	378
79.0587	712
81.0373	24
81.0739	425
83.0527	44
91.0578	347
93.0724	126
94.0453	20
95.0503	10
95.0874	73
97.0679	999
97.0975	40
103.0549	24
105.0718	229
107.0509	26
107.0866	28
108.0584	12
109.0674	935
109.1079	10
115.0566	36
117.0731	46
119.0875	67
121.0664	22
121.1043	10
123.0818	132
127.0554	14
128.0638	44
129.0721	44
131.0862	42
133.1008	14
141.0731	34
142.0814	18
143.0899	20
145.1051	28
155.0877	24
156.0959	10
157.1034	12
167.0885	12
169.1015	12
