Mass spectrum: 2-Mercaptobenzoxazole; LC-ESI-QTOF; MS2; 50 V
Name: 2-Mercaptobenzoxazole
Class: Industrial_process
Formula: C7H5NOS
Exact mass: 151.0092
SMILES: S=C1Nc2ccccc2O1
InChI: InChI=1S/C7H5NOS/c10-7-8-5-3-1-2-4-6(5)9-7/h1-4H,(H,8,10)
Instrument: TripleTOF 5600 SCIEX
Instrument type: LC-ESI-QTOF
Ms type: MS2
Ion mode: POSITIVE
Collision energy: 50
Fragmentation mode: CID
Ionization: ESI
Column name: Zorbax Eclipse Plus C18 2.1 mm x 150 mm, 3.5 um, Agilent
Retention time: 8.264 min
Precursor m/z: 152.0165
Precursor type: [M+H]+
m/z	relative intensity
53.0438	169
59.9946	131
60.9785	508
64.0348	94
65.043	999
68.984	56
80.0521	650
90.0353	612
91.0431	84
92.05	47
94.0449	65
97.0112	75
106.9958	131
132.996	56
134.006	226
152.0123	37
