Mass spectrum: Triisobutyl phosphate; LC-ESI-QTOF; MS2; 110 V
Name: Triisobutyl phosphate
Class: Industrial_process
Formula: C12H27O4P
Exact mass: 266.1647
SMILES: CC(C)COP(=O)(OCC(C)C)OCC(C)C
InChI: InChI=1S/C12H27O4P/c1-10(2)7-14-17(13,15-8-11(3)4)16-9-12(5)6/h10-12H,7-9H2,1-6H3
Instrument: TripleTOF 5600 SCIEX
Instrument type: LC-ESI-QTOF
Ms type: MS2
Ion mode: POSITIVE
Collision energy: 110
Fragmentation mode: CID
Ionization: ESI
Column name: Zorbax Eclipse Plus C18 2.1 mm x 150 mm, 3.5 um, Agilent
Retention time: 14.015 min
Precursor m/z: 267.172
Precursor type: [M+H]+
m/z	relative intensity
39.0226	19
41.0384	18
46.968	21
57.069	16
62.9632	532
80.974	999
98.9847	128
