Mass spectrum: Kresoxim-methyl; LC-ESI-QTOF; MS2; 20 V
Name: Kresoxim-methyl
Class: Fungicide
Formula: C18H19NO4
Exact mass: 313.1314
SMILES: CC1=CC=CC=C1OCC2=CC=CC=C2C(=NOC)C(=O)OC
InChI: InChI=1S/C18H19NO4/c1-13-8-4-7-11-16(13)23-12-14-9-5-6-10-15(14)17(19-22-3)18(20)21-2/h4-11H,12H2,1-3H3
Instrument: TripleTOF 6600 SCIEX
Instrument type: LC-ESI-QTOF
Ms type: MS2
Ion mode: POSITIVE
Collision energy: 20
Fragmentation mode: CID
Ionization: ESI
Column name: Zorbax Eclipse Plus C18 2.1 mm x 150 mm, 3.5 um, Agilent
Retention time: 13.809 min
Precursor m/z: 314.1387
Precursor type: [M+H]+
m/z	relative intensity
116.0478	116
121.0638	15
131.0711	58
132.0808	50
135.0429	12
146.0581	54
162.089	19
179.0847	24
180.082	13
181.098	13
193.0983	32
194.0735	12
194.0938	58
195.1034	42
206.0802	33
207.079	41
207.1015	19
208.0866	84
209.0966	22
210.1268	44
222.0905	999
223.0986	399
224.1061	16
235.0744	503
236.0805	10
238.1213	283
250.0857	117
254.118	158
267.1019	195
282.1133	175
