Mass spectrum: 4-Acetamidoantipyrine; LC-ESI-QTOF; MS2; 110 V
Name: 4-Acetamidoantipyrine
Class: Pharmaceutical; Metabolite; Transformation_product; Transformation_product-Metabolite
Formula: C13H15N3O2
Exact mass: 245.1164
SMILES: CN1N(C(=O)C(=C1C)NC(C)=O)c2ccccc2
InChI: InChI=1S/C13H15N3O2/c1-9-12(14-10(2)17)13(18)16(15(9)3)11-7-5-4-6-8-11/h4-8H,1-3H3,(H,14,17)
Instrument: TripleTOF 5600 SCIEX
Instrument type: LC-ESI-QTOF
Ms type: MS2
Ion mode: POSITIVE
Collision energy: 110
Fragmentation mode: CID
Ionization: ESI
Column name: Zorbax Eclipse Plus C18 2.1 mm x 150 mm, 3.5 um, Agilent
Retention time: 5.586 min
Precursor m/z: 246.1237
Precursor type: [M+H]+
m/z	relative intensity
41.0342	35
42.0428	288
43.0266	374
53.0191	78
54.0402	46
56.0553	999
65.0445	62
66.0508	31
69.0485	27
74.0172	19
75.0248	35
76.0331	15
77.0419	718
81.0471	62
83.0621	456
89.0389	39
92.0527	19
115.056	23
116.0535	19
