Mass spectrum: Verapamil; LC-ESI-QTOF; MS2; 90 V
Name: Verapamil
Class: Pharmaceutical
Formula: C27H38N2O4
Exact mass: 454.2832
SMILES: CC(C)C(CCCN(C)CCc1ccc(c(c1)OC)OC)(C#N)c2ccc(c(c2)OC)OC
InChI: InChI=1S/C27H38N2O4/c1-20(2)27(19-28,22-10-12-24(31-5)26(18-22)33-7)14-8-15-29(3)16-13-21-9-11-23(30-4)25(17-21)32-6/h9-12,17-18,20H,8,13-16H2,1-7H3
Instrument: TripleTOF 5600 SCIEX
Instrument type: LC-ESI-QTOF
Ms type: MS2
Ion mode: POSITIVE
Collision energy: 90
Fragmentation mode: CID
Ionization: ESI
Column name: Zorbax Eclipse Plus C18 2.1 mm x 150 mm, 3.5 um, Agilent
Retention time: 8.542 min
Precursor m/z: 455.2904
Precursor type: [M+H]+
m/z	relative intensity
44.0572	12
58.0702	75
65.0421	54
67.0571	12
77.0421	895
78.049	137
79.0574	680
80.0519	12
84.0831	60
89.0402	67
90.0478	179
91.0563	895
92.0257	15
92.063	60
93.0713	107
94.0425	44
94.0679	16
95.05	36
96.0577	16
102.0469	85
103.055	663
104.0621	202
105.0331	26
105.0699	337
106.0414	16
107.0498	792
108.0562	43
109.0289	17
109.0647	37
115.0539	57
116.0622	12
117.0704	20
118.0413	245
119.0492	613
120.0569	202
121.0648	568
122.0359	24
122.0721	91
123.0437	40
124.0506	32
127.0539	13
128.0599	11
129.0678	17
131.0488	215
132.0445	16
132.0557	24
133.0269	15
133.0642	183
134.0728	525
135.0442	999
135.0771	19
136.0514	47
137.0594	64
138.0658	37
144.0563	17
144.0812	19
145.0639	30
146.0662	95
147.079	17
149.0597	170
150.0674	600
151.0747	114
152.0813	13
159.0664	10
159.0792	13
160.0783	44
161.0595	18
165.0904	114
172.0757	60
174.0916	34
176.0699	32
186.0911	13
187.0993	14
188.0706	16
202.0853	22
203.0954	10
214.1217	11
