Mass spectrum: Flumequin; LC-ESI-QTOF; MS2; 70 V
Name: Flumequin
Class: Pharmaceutical; Antimicrobial
Formula: C14H12FNO3
Exact mass: 261.0801
SMILES: CC1CCc2cc(F)cc3C(=O)C(=CN1c23)C(O)=O
InChI: InChI=1S/C14H12FNO3/c1-7-2-3-8-4-9(15)5-10-12(8)16(7)6-11(13(10)17)14(18)19/h4-7H,2-3H2,1H3,(H,18,19)
Instrument: TripleTOF 5600 SCIEX
Instrument type: LC-ESI-QTOF
Ms type: MS2
Ion mode: POSITIVE
Collision energy: 70
Fragmentation mode: CID
Ionization: ESI
Column name: Zorbax Eclipse Plus C18 2.1 mm x 150 mm, 3.5 um, Agilent
Retention time: 9.545 min
Precursor m/z: 262.0874
Precursor type: [M+H]+
m/z	relative intensity
51.028	17
53.0083	48
74.0177	30
75.0258	173
76.0218	21
93.0159	17
95.0313	69
96.0376	17
98.0161	92
99.0238	585
100.0185	348
109.0448	9
119.0292	246
120.024	69
120.0357	82
126.0342	999
131.029	23
132.0366	21
133.0437	48
145.0347	44
146.0399	429
147.0428	107
148.0527	13
154.0397	373
158.0396	46
159.0461	23
172.0546	59
174.035	248
200.0501	32
202.0293	159
