Mass spectrum: Sotalol; LC-ESI-QTOF; MS2; 100 V
Name: Sotalol
Class: Pharmaceutical
Formula: C12H20N2O3S
Exact mass: 272.1195
SMILES: CC(C)NCC(C1=CC=C(C=C1)NS(=O)(=O)C)O
InChI: InChI=1S/C12H20N2O3S/c1-9(2)13-8-12(15)10-4-6-11(7-5-10)14-18(3,16)17/h4-7,9,12-15H,8H2,1-3H3
Instrument: TripleTOF 5600 SCIEX
Instrument type: LC-ESI-QTOF
Ms type: MS2
Ion mode: POSITIVE
Collision energy: 100
Fragmentation mode: CID
Ionization: ESI
Column name: Zorbax Eclipse Plus C18 2.1 mm x 150 mm, 3.5 um, Agilent
Retention time: 4.583 min
Precursor m/z: 273.1267
Precursor type: [M+H]+
m/z	relative intensity
51.0316	132
53.0476	47
65.0454	142
66.0514	23
67.048	89
77.0435	999
78.0404	94
79.0588	468
80.0537	307
81.061	23
89.0421	378
90.0499	104
91.0556	165
92.0545	47
93.0613	33
104.0508	104
105.0586	33
106.0668	762
107.0755	23
116.0505	104
117.0587	184
118.0492	23
118.0643	23
119.0591	33
131.0619	108
132.07	108
133.0782	47
