Mass spectrum: Nevirapine; LC-ESI-QTOF; MS2; 150 V
Name: Nevirapine
Class: Pharmaceutical
Formula: C15H14N4O
Exact mass: 266.1168
SMILES: Cc1ccnc2N(C3CC3)c4ncccc4C(=O)Nc12
InChI: InChI=1S/C15H14N4O/c1-9-6-8-17-14-12(9)18-15(20)11-3-2-7-16-13(11)19(14)10-4-5-10/h2-3,6-8,10H,4-5H2,1H3,(H,18,20)
Instrument: TripleTOF 5600 SCIEX
Instrument type: LC-ESI-QTOF
Ms type: MS2
Ion mode: POSITIVE
Collision energy: 150
Fragmentation mode: CID
Ionization: ESI
Column name: Zorbax Eclipse Plus C18 2.1 mm x 150 mm, 3.5 um, Agilent
Retention time: 7.301 min
Precursor m/z: 267.124
Precursor type: [M+H]+
m/z	relative intensity
52.0232	299
52.0334	127
53.0186	54
53.0443	208
60.0046	36
63.0147	45
65.0299	72
65.0426	90
66.0346	63
67.0453	54
73.0113	72
74.0176	544
75.0131	999
75.0545	81
76.0204	989
77.0288	54
77.0391	72
78.0358	308
80.0526	72
86.0176	108
87.0238	99
88.0189	63
88.0325	72
89.0405	127
89.052	36
90.0387	54
92.0367	45
93.0485	36
98.0143	90
99.0112	99
99.022	54
100.0186	72
102.035	63
103.03	72
104.0467	63
105.0452	45
113.0385	45
114.0333	90
115.0415	54
117.0434	36
