Mass spectrum: Triphenyl phosphate; LC-ESI-QTOF; MS2; 120 V
Name: Triphenyl phosphate
Class: Industrial_process
Formula: C18H15O4P
Exact mass: 326.0708
SMILES: C1=CC=C(C=C1)OP(=O)(OC2=CC=CC=C2)OC3=CC=CC=C3
InChI: InChI=1S/C18H15O4P/c19-23(20-16-10-4-1-5-11-16,21-17-12-6-2-7-13-17)22-18-14-8-3-9-15-18/h1-15H
Instrument: TripleTOF 5600 SCIEX
Instrument type: LC-ESI-QTOF
Ms type: MS2
Ion mode: POSITIVE
Collision energy: 120
Fragmentation mode: CID
Ionization: ESI
Column name: Zorbax Eclipse Plus C18 2.1 mm x 150 mm, 3.5 um, Agilent
Retention time: 14.07 min
Precursor m/z: 327.0781
Precursor type: [M+H]+
m/z	relative intensity
49.0085	38
50.0149	324
51.0228	992
65.0387	25
74.0148	181
75.0221	129
76.0301	142
77.0381	999
78.0463	64
86.0129	38
87.0236	45
89.0367	71
98.0149	116
99.0235	77
100.031	45
101.0385	58
102.0458	168
113.0386	51
114.0458	32
115.0539	77
122.0162	25
125.0391	90
126.0455	505
127.0516	25
139.0549	402
149.0382	51
150.0467	733
151.0537	726
152.0601	363
200.0644	90
224.0614	259
225.067	51
226.0761	38
