Mass spectrum: Metsulfuron-methyl; LC-ESI-QTOF; MS2; 120 V
Name: Metsulfuron-methyl
Class: Herbicide
Formula: C14H15N5O6S
Exact mass: 381.0743
SMILES: CC1=NC(=NC(=N1)OC)NC(=O)NS(=O)(=O)C2=CC=CC=C2C(=O)OC
InChI: InChI=1S/C14H15N5O6S/c1-8-15-12(18-14(16-8)25-3)17-13(21)19-26(22,23)10-7-5-4-6-9(10)11(20)24-2/h4-7H,1-3H3,(H2,15,16,17,18,19,21)
Instrument: TripleTOF 6600 SCIEX
Instrument type: LC-ESI-QTOF
Ms type: MS2
Ion mode: POSITIVE
Collision energy: 120
Fragmentation mode: CID
Ionization: ESI
Column name: Zorbax Eclipse Plus C18 2.1 mm x 150 mm, 3.5 um, Agilent
Retention time: 9.15008 min
Precursor m/z: 382.0816
Precursor type: [M+H]+
m/z	relative intensity
37.0071	62
38.0149	62
39.0218	62
41.0131	124
42.0327	124
43.031	124
51.0223	437
56.0488	62
58.0281	62
64.0306	249
69.0081	999
77.0383	686
90.0323	124
92.0262	374
