Mass spectrum: Tridemorph; LC-ESI-QTOF; MS2; 50 V
Name: Tridemorph
Class: Fungicide
Formula: C19H39NO
Exact mass: 297.3032
SMILES: CCCCCCCCCCCCCN1CC(OC(C1)C)C
InChI: InChI=1S/C19H39NO/c1-4-5-6-7-8-9-10-11-12-13-14-15-20-16-18(2)21-19(3)17-20/h18-19H,4-17H2,1-3H3
Instrument: TripleTOF 5600 SCIEX
Instrument type: LC-ESI-QTOF
Ms type: MS2
Ion mode: POSITIVE
Collision energy: 50
Fragmentation mode: CID
Ionization: ESI
Column name: Zorbax Eclipse Plus C18 2.1 mm x 150 mm, 3.5 um, Agilent
Retention time: 10.439 min
Precursor m/z: 298.3104
Precursor type: [M+H]+
m/z	relative intensity
39.0229	122
41.0381	448
43.0539	611
56.0489	122
57.0698	835
58.0649	163
59.0492	163
70.0649	224
71.0856	326
72.0807	224
98.0962	999
102.0911	163
112.112	101
116.1056	244
130.1223	632
298.3157	265
