Mass spectrum: Disperse brown 1; LC-ESI-QTOF; MS2; 90 V
Name: Disperse brown 1
Formula: C16H15Cl3N4O4
Exact mass: 432.0159
SMILES: C1=CC(=C(C=C1N(CCO)CCO)Cl)N=NC2=C(C=C(C=C2Cl)[N+](=O)[O-])Cl
InChI: InChI=1S/C16H15Cl3N4O4/c17-12-7-10(22(3-5-24)4-6-25)1-2-15(12)20-21-16-13(18)8-11(23(26)27)9-14(16)19/h1-2,7-9,24-25H,3-6H2
Instrument: TripleTOF 6600 SCIEX
Instrument type: LC-ESI-QTOF
Ms type: MS2
Ion mode: POSITIVE
Collision energy: 90
Fragmentation mode: CID
Ionization: ESI
Column name: Zorbax Eclipse Plus C18 2.1 mm x 150 mm, 3.5 um, Agilent
Retention time: 12.39 min
Precursor m/z: 433.0232
Precursor type: [M+H]+
m/z	relative intensity
45.0345	43
65.0385	54
74.0146	109
75.0229	54
76.018	98
77.039	120
78.0332	109
80.9743	54
83.9751	43
89.0379	54
90.0331	263
91.0552	98
92.0491	76
96.9841	120
98.9999	109
103.0278	131
104.0495	252
105.0546	142
106.9443	54
107.9748	241
108.9836	922
109.9924	65
110.9993	98
111.9937	109
114.0105	98
116.05	54
117.0441	65
117.0556	406
118.0527	131
118.0668	252
119.0602	76
123.9929	428
125.0041	98
126.0107	164
127.0206	76
130.063	109
131.0649	87
138.0069	43
139.0154	241
140.0271	98
142.9469	296
143.9521	999
145.076	54
152.0139	109
153.0195	252
153.0317	87
184.0088	65
213.0216	87
