Mass spectrum: Amlodipine; LC-ESI-QTOF; MS2; 130 V
Name: Amlodipine
Class: Pharmaceutical
Formula: C20H25ClN2O5
Exact mass: 408.1452
SMILES: CCOC(=O)C1=C(COCCN)NC(=C(C1c2ccccc2Cl)C(=O)OC)C
InChI: InChI=1S/C20H25ClN2O5/c1-4-28-20(25)18-15(11-27-10-9-22)23-12(2)16(19(24)26-3)17(18)13-7-5-6-8-14(13)21/h5-8,17,23H,4,9-11,22H2,1-3H3
Instrument: TripleTOF 5600 SCIEX
Instrument type: LC-ESI-QTOF
Ms type: MS2
Ion mode: POSITIVE
Collision energy: 130
Fragmentation mode: CID
Ionization: ESI
Column name: Zorbax Eclipse Plus C18 2.1 mm x 150 mm, 3.5 um, Agilent
Retention time: 8.432 min
Precursor m/z: 409.1525
Precursor type: [M+H]+
m/z	relative intensity
42.0431	84
51.0275	80
65.0416	132
67.0207	24
72.99	40
73.0211	16
74.0191	173
75.0265	692
76.0338	72
77.0423	318
78.0484	28
78.0582	16
85.0129	20
86.0187	24
87.0263	56
88.0316	165
89.0403	261
90.0484	36
91.0425	20
91.0546	44
92.0516	64
93.059	20
94.0671	24
98.0158	32
99.0007	64
99.0242	52
100.0318	28
101.0392	366
102.0482	547
102.0886	20
103.0525	24
104.0502	16
111	84
113.039	233
114.0467	491
115.0548	999
116.0507	28
116.0614	56
120.0436	24
122.9998	40
125.0151	44
125.0386	56
126.047	314
127.0543	455
128.0476	40
128.0619	322
129.0494	56
129.0685	20
130.0655	24
136.04	28
137.0378	60
138.0466	96
138.9958	28
139.0544	555
140.0517	225
141.07	153
141.0865	16
142.0649	20
143.0729	48
149.0151	205
149.0372	16
150.0465	173
151.0546	334
152.0626	866
153.0651	193
154.0656	116
155.0514	32
156.0805	24
163.0538	36
164.0492	32
165.0686	52
166.0658	229
167.0726	273
168.0539	16
168.0811	52
173.013	20
177.0582	68
178.0656	153
179.0737	64
180.0822	161
182.0609	24
188.0441	28
195.0662	24
196.0801	24
