Mass spectrum: 3-Phenylpyridine; LC-ESI-QTOF; MS2; 80 V
Name: 3-Phenylpyridine
Formula: C11H9N
Exact mass: 155.0735
SMILES: C1=CC=C(C=C1)C2=CN=CC=C2
InChI: InChI=1S/C11H9N/c1-2-5-10(6-3-1)11-7-4-8-12-9-11/h1-9H
Instrument: TripleTOF X500R SCIEX
Instrument type: LC-ESI-QTOF
Ms type: MS2
Ion mode: POSITIVE
Collision energy: 80
Fragmentation mode: CID
Ionization: ESI
Column name: Zorbax Eclipse Plus C18 2.1 mm x 150 mm, 3.5 um, Agilent
Retention time: 5.684 min
Precursor m/z: 156.0808
Precursor type: [M+H]+
m/z	relative intensity
39.0232	77
49.0076	60
50.0151	710
51.0229	999
52.0191	42
52.0306	192
62.0147	74
63.0228	126
65.0383	19
74.0153	156
75.0233	172
76.0307	100
77.0386	288
78.0466	115
79.0423	41
86.0153	34
87.0234	39
89.0382	49
98.0157	52
99.0226	18
100.0314	16
101.0399	55
102.0468	192
115.0546	13
125.0405	9
126.0464	133
127.0549	143
128.062	83
153.0628	13
