Mass spectrum: Pethoxamid; LC-ESI-QTOF; MS2; 110 V
Name: Pethoxamid
Class: Herbicide
Formula: C16H22ClNO2
Exact mass: 295.1339
SMILES: CCOCCN(C(=O)CCl)C(=C(C)C)C1=CC=CC=C1
InChI: InChI=1S/C16H22ClNO2/c1-4-20-11-10-18(15(19)12-17)16(13(2)3)14-8-6-5-7-9-14/h5-9H,4,10-12H2,1-3H3
Instrument: TripleTOF 6600 SCIEX
Instrument type: LC-ESI-QTOF
Ms type: MS2
Ion mode: POSITIVE
Collision energy: 110
Fragmentation mode: CID
Ionization: ESI
Column name: Zorbax Eclipse Plus C18 2.1 mm x 150 mm, 3.5 um, Agilent
Retention time: 12.961 min
Precursor m/z: 296.1412
Precursor type: [M+H]+
m/z	relative intensity
37.0074	31
38.0151	34
39.0229	248
41.0381	36
45.0331	13
48.9835	11
50.0146	25
51.0224	107
61.0063	18
62.0145	45
63.0224	136
65.0382	766
74.0145	25
75.0219	29
77.0375	166
78.0458	20
87.0224	13
89.0376	225
91.0535	629
102.0452	61
103.0529	15
114.045	9
115.0533	999
116.0603	29
126.044	15
127.0519	50
128.0605	141
130.063	15
