Mass spectrum: 9-Methylguanine; LC-ESI-QTOF; MS2; 20 V
Name: 9-Methylguanine
Class: Natural_product
Formula: C6H7N5O
Exact mass: 165.0651
SMILES: CN1C=NC2=C1NC(=NC2=O)N
InChI: InChI=1S/C6H7N5O/c1-11-2-8-3-4(11)9-6(7)10-5(3)12/h2H,1H3,(H3,7,9,10,12)
Instrument: TripleTOF 5600 SCIEX
Instrument type: LC-ESI-QTOF
Ms type: MS2
Ion mode: POSITIVE
Collision energy: 20
Fragmentation mode: CID
Ionization: ESI
Column name: Zorbax Eclipse Plus C18 2.1 mm x 150 mm, 3.5 um, Agilent
Retention time: 2.43 min
Precursor m/z: 166.0723
Precursor type: [M+H]+
m/z	relative intensity
123.0655	32
124.05	143
148.0609	14
149.0452	296
166.0718	999
