Mass spectrum: N-desmethyl-diphenhydramine; LC-ESI-QTOF; MS2; 80 V
Name: N-desmethyl-diphenhydramine
Class: Pharmaceutical; Metabolite
Formula: C16H19NO
Exact mass: 241.1467
SMILES: CNCCOC(c1ccccc1)c2ccccc2
InChI: InChI=1S/C16H19NO/c1-17-12-13-18-16(14-8-4-2-5-9-14)15-10-6-3-7-11-15/h2-11,16-17H,12-13H2,1H3
Instrument: TripleTOF 5600 SCIEX
Instrument type: LC-ESI-QTOF
Ms type: MS2
Ion mode: POSITIVE
Collision energy: 80
Fragmentation mode: CID
Ionization: ESI
Column name: Zorbax Eclipse Plus C18 2.1 mm x 150 mm, 3.5 um, Agilent
Retention time: 7.557 min
Precursor m/z: 242.1539
Precursor type: [M+H]+
m/z	relative intensity
65.0432	23
76.0334	12
77.0413	20
78.0491	23
89.0402	42
91.0556	16
102.0471	59
115.0547	283
125.0387	11
126.0461	78
127.0539	32
128.0619	150
139.0542	108
141.0701	36
150.0464	73
151.0544	236
152.0621	518
163.054	127
164.0618	243
165.0699	999
166.0781	20
