Mass spectrum: 1,4-Dimethoxybenzene; LC-ESI-QTOF; MS2; 20 V
Name: 1,4-Dimethoxybenzene
Class: Food_additive
Formula: C8H10O2
Exact mass: 138.0681
SMILES: COc1ccc(OC)cc1
InChI: InChI=1S/C8H10O2/c1-9-7-3-5-8(10-2)6-4-7/h3-6H,1-2H3
Instrument: TripleTOF 5600 SCIEX
Instrument type: LC-ESI-QTOF
Ms type: MS2
Ion mode: POSITIVE
Collision energy: 20
Fragmentation mode: CID
Ionization: ESI
Column name: Zorbax Eclipse Plus C18 2.1 mm x 150 mm, 3.5 um, Agilent
Retention time: 10.084 min
Precursor m/z: 139.0754
Precursor type: [M+H]+
m/z	relative intensity
77.0407	103
78.0489	31
79.0559	18
92.0274	24
94.0426	28
95.0501	31
96.0589	103
107.0491	87
108.0572	321
109.0289	137
109.0632	43
123.0488	21
124.0514	783
139.0752	999
