Mass spectrum: Hydroxytorasemide; LC-ESI-QTOF; MS2; 110 V
Name: Hydroxytorasemide
Class: Pharmaceutical; Transformation_product
Formula: C16H20N4O4S
Exact mass: 364.1205
SMILES: CC(C)NC(=O)NS(=O)(=O)c1cnccc1Nc2cccc(c2)CO
InChI: InChI=1S/C16H20N4O4S/c1-11(2)18-16(22)20-25(23,24)15-9-17-7-6-14(15)19-13-5-3-4-12(8-13)10-21/h3-9,11,21H,10H2,1-2H3,(H,17,19)(H2,18,20,22)
Instrument: TripleTOF 5600 SCIEX
Instrument type: LC-ESI-QTOF
Ms type: MS2
Ion mode: NEGATIVE
Collision energy: 110
Fragmentation mode: CID
Ionization: ESI
Column name: Zorbax Eclipse Plus C18 2.1 mm x 150 mm, 3.5 um, Agilent
Retention time: 5.824 min
Precursor m/z: 363.1132
Precursor type: [M-H]-
m/z	relative intensity
42.0015	69
47.9705	115
57.9774	84
61.971	184
63.9633	322
65.0147	92
66.0365	53
77.9655	999
78.9739	107
90.0339	92
91.0298	399
93.0455	999
107.0476	115
108.0334	92
108.0563	153
165.0434	84
166.0476	69
167.0611	276
168.0564	92
178.0516	238
179.062	207
180.067	53
192.059	176
195.0568	69
