Mass spectrum: Indigo; LC-ESI-QTOF; MS2; 60 V
Name: Indigo
Formula: C16H10N2O2
Exact mass: 262.0742
SMILES: C1=CC=C2C(=C1)C(=C(N2)C3=NC4=CC=CC=C4C3=O)O
InChI: InChI=1S/C16H10N2O2/c19-15-9-5-1-3-7-11(9)17-13(15)14-16(20)10-6-2-4-8-12(10)18-14/h1-8,17,19H
Instrument: TripleTOF X500R SCIEX
Instrument type: LC-ESI-QTOF
Ms type: MS2
Ion mode: POSITIVE
Collision energy: 60
Fragmentation mode: CID
Ionization: ESI
Column name: Zorbax Eclipse Plus C18 2.1 mm x 150 mm, 3.5 um, Agilent
Retention time: 11.892 min
Precursor m/z: 263.0815
Precursor type: [M+H]+
m/z	relative intensity
50.0134	36
51.0234	157
65.0399	22
76.0309	49
77.0391	670
89.039	175
90.0463	36
102.0351	94
103.0414	90
104.0269	67
104.0496	175
105.034	81
114.0345	27
116.0493	54
117.0569	85
127.0549	31
128.0512	27
129.0564	22
132.0451	216
140.051	36
150.0476	27
151.0553	103
152.0623	234
153.0717	85
157.0396	31
158.0483	54
163.0548	112
164.0584	90
165.0697	144
177.0572	36
178.0661	175
179.073	261
180.0821	202
181.0673	22
188.0508	36
189.0566	90
190.0657	342
191.069	54
192.0698	40
205.0524	22
205.0768	999
206.0842	306
207.0713	22
215.0623	31
216.0697	162
217.0765	45
218.0853	125
219.0959	22
233.0745	76
234.08	117
262.0748	40
