Mass spectrum: Spinosad A; LC-ESI-QTOF; MS2; 140 V
Name: Spinosad A
Class: Insecticide
Formula: C41H65NO10
Exact mass: 731.4608
SMILES: CCC1CCCC(C(C(=O)C2=CC3C4CC(CC4C=CC3C2CC(=O)O1)OC5C(C(C(C(O5)C)OC)OC)OC)C)OC6CCC(C(O6)C)N(C)C
InChI: InChI=1S/C41H65NO10/c1-10-26-12-11-13-34(52-36-17-16-33(42(5)6)23(3)48-36)22(2)37(44)32-20-30-28(31(32)21-35(43)50-26)15-14-25-18-27(19-29(25)30)51-41-40(47-9)39(46-8)38(45-7)24(4)49-41/h14-15,20,22-31,33-34,36,38-41H,10-13,16-19,21H2,1-9H3
Instrument: TripleTOF 6600 SCIEX
Instrument type: LC-ESI-QTOF
Ms type: MS2
Ion mode: POSITIVE
Collision energy: 140
Fragmentation mode: CID
Ionization: ESI
Column name: Zorbax Eclipse Plus C18 2.1 mm x 150 mm, 3.5 um, Agilent
Retention time: 10.391 min
Precursor m/z: 732.4681
Precursor type: [M+H]+
m/z	relative intensity
31.0177	14
37.0067	19
38.0139	12
39.0222	132
41.038	328
42.0328	52
43.0173	139
43.0535	14
44.0489	87
45.0328	94
46.0645	42
47.0483	34
53.0377	49
54.0447	9
55.0169	44
55.0534	191
56.0486	102
57.0323	64
57.0685	14
58.0644	32
59.0112	19
59.0482	129
65.0379	57
67.0532	137
68.025	19
68.0487	19
69.0325	17
69.0687	127
70.0642	169
71.0479	139
71.0715	32
72.0433	72
72.0796	97
73.0642	17
74.0349	94
75.043	79
77.0376	134
79.0533	109
81.032	37
81.0692	42
82.04	74
82.0639	19
83.048	17
83.0839	22
84.08	84
85.0269	19
85.0634	37
85.0874	114
86.0943	19
89.0579	19
91.0528	84
93.0694	17
95.0848	22
97.0634	159
98.0353	29
98.0954	999
99.0428	72
99.0791	32
99.1015	17
101.0588	89
103.0531	12
105.0683	24
107.049	9
109.0869	9
112.1114	12
115.0529	199
115.0745	17
116.0608	29
117.0688	37
124.1109	44
125.0583	24
127.0532	97
128.061	286
129.0686	186
130.0772	14
131.0849	14
139.0539	17
141.0684	221
142.0755	39
142.1216	87
143.085	17
145.065	12
151.0531	39
152.0613	161
153.0686	406
154.076	151
155.0588	44
155.0844	174
156.0909	9
157.0997	14
165.0693	124
166.0779	54
167.0849	49
168.0922	14
169.0998	42
178.0773	54
179.0849	34
181.0653	17
181.0994	14
183.079	9
189.0682	12
190.0763	12
191.0832	17
202.0777	29
203.0856	12
215.0823	12
