Mass spectrum: Butylphosphonic acid; LC-ESI-QTOF; MS2; 130 V
Name: Butylphosphonic acid
Formula: C4H11O3P
Exact mass: 138.0446
InChI: InChI=1S/C4H11O3P/c1-2-3-4-8(5,6)7/h2-4H2,1H3,(H2,5,6,7)
Instrument: TripleTOF 5600 SCIEX
Instrument type: LC-ESI-QTOF
Ms type: CID
Ion mode: POSITIVE
Collision energy: 130
Ionization: ESI
Column name: Zorbax Eclipse Plus C18 2.1 mm x 150 mm, 3.5 um, Agilent
Retention time: 4.77 min
Precursor m/z: 139.0519
Precursor type: [M+H]+
m/z	relative intensity
35.9986	27
37.0069	55
38.0154	27
39.0226	83
43.9831	27
44.9779	27
46.9685	999
47.9738	27
62.9639	55
