Mass spectrum: Terfenadine; LC-ESI-QTOF; MS2; 90 V
Name: Terfenadine
Class: Pharmaceutical
Formula: C32H41NO2
Exact mass: 471.3137
SMILES: CC(C)(C)C1=CC=C(C=C1)C(CCCN2CCC(CC2)C(C3=CC=CC=C3)(C4=CC=CC=C4)O)O
InChI: InChI=1S/C32H41NO2/c1-31(2,3)26-18-16-25(17-19-26)30(34)15-10-22-33-23-20-29(21-24-33)32(35,27-11-6-4-7-12-27)28-13-8-5-9-14-28/h4-9,11-14,16-19,29-30,34-35H,10,15,20-24H2,1-3H3
Instrument: TripleTOF 6600 SCIEX
Instrument type: LC-ESI-QTOF
Ms type: MS2
Ion mode: POSITIVE
Collision energy: 90
Fragmentation mode: CID
Ionization: ESI
Column name: Zorbax Eclipse Plus C18 2.1 mm x 150 mm, 3.5 um, Agilent
Retention time: 10.223 min
Precursor m/z: 472.321
Precursor type: [M+H]+
m/z	relative intensity
39.0215	95
41.0371	243
57.0682	538
65.0367	104
68.0472	69
70.0625	60
77.0365	78
79.0519	60
80.0472	95
81.0684	52
82.0623	165
83.0711	34
91.0517	999
94.0623	60
96.0784	104
98.094	130
103.0524	60
105.0672	191
115.0511	330
116.0603	86
117.0673	330
118.0746	95
119.0829	95
124.1106	52
127.0517	112
128.0592	460
129.0675	234
131.083	225
132.0903	173
141.0684	69
145.0976	78
146.0702	43
147.114	52
152.0587	78
155.0823	69
161.0925	156
165.0665	104
166.0739	52
178.0736	95
189.066	60
190.0748	60
191.0835	52
202.0748	138
203.083	104
204.0902	95
215.0816	156
216.0899	34
217.0992	60
218.1044	52
