Mass spectrum: Phencyclidine; LC-ESI-QTOF; MS2; 130 V
Name: Phencyclidine
Class: Pharmaceutical
Formula: C17H25N
Exact mass: 243.1987
SMILES: C1CCC(CC1)(C2=CC=CC=C2)N3CCCCC3
InChI: InChI=1S/C17H25N/c1-4-10-16(11-5-1)17(12-6-2-7-13-17)18-14-8-3-9-15-18/h1,4-5,10-11H,2-3,6-9,12-15H2
Instrument: TripleTOF 6600 SCIEX
Instrument type: LC-ESI-QTOF
Ms type: MS2
Ion mode: POSITIVE
Collision energy: 130
Fragmentation mode: CID
Ionization: ESI
Column name: Zorbax Eclipse Plus C18 2.1 mm x 150 mm, 3.5 um, Agilent
Retention time: 7.311 min
Precursor m/z: 244.206
Precursor type: [M+H]+
m/z	relative intensity
30.0326	14
35.9984	50
37.0065	274
38.0142	214
39.0221	999
41.0376	71
49.0065	25
50.0139	171
51.022	185
59.9975	15
61.0062	88
62.0135	159
63.0217	169
65.0374	323
74.0133	31
75.0227	11
77.037	26
89.037	34
91.0525	61
115.0533	31
