Mass spectrum: 2,2,4-Trimethyl-1,2-dihydroquinoline; LC-ESI-QTOF; MS2; 60 V
Name: 2,2,4-Trimethyl-1,2-dihydroquinoline
Class: Industrial_process
Formula: C12H15N
Exact mass: 173.1204
SMILES: CC1=CC(NC2=CC=CC=C12)(C)C
InChI: InChI=1S/C12H15N/c1-9-8-12(2,3)13-11-7-5-4-6-10(9)11/h4-8,13H,1-3H3
Instrument: TripleTOF 6600 SCIEX
Instrument type: LC-ESI-QTOF
Ms type: MS2
Ion mode: POSITIVE
Collision energy: 60
Fragmentation mode: CID
Ionization: ESI
Column name: Zorbax Eclipse Plus C18 2.1 mm x 150 mm, 3.5 um, Agilent
Retention time: 12.497 min
Precursor m/z: 174.1277
Precursor type: [M+H]+
m/z	relative intensity
37.0067	21
38.0149	23
39.0226	235
41.038	79
50.0144	27
51.0223	228
53.0379	17
63.022	52
65.038	687
66.0455	14
67.0406	10
75.0221	28
77.038	974
78.0328	12
78.045	15
79.0532	47
80.0485	13
89.0377	349
90.0455	287
91.0536	999
93.0561	36
101.0371	30
102.0448	38
103.0531	311
104.0481	16
105.0439	13
106.0637	58
115.0534	616
116.0485	19
116.0604	77
117.0569	479
118.0641	35
126.0452	38
127.053	292
128.0521	124
129.0556	18
130.0642	569
131.0713	11
141.0692	52
142.0642	59
143.0718	475
144.0795	210
155.0588	35
156.0796	29
157.0869	36
158.0956	79
