Mass spectrum: Norgestrel; LC-ESI-QTOF; MS2; 80 V
Name: Norgestrel
Class: Pharmaceutical
Formula: C21H28O2
Exact mass: 312.2089
SMILES: CCC12CCC3C(C1CCC2(C#C)O)CCC4=CC(=O)CCC34
InChI: InChI=1S/C21H28O2/c1-3-20-11-9-17-16-8-6-15(22)13-14(16)5-7-18(17)19(20)10-12-21(20,23)4-2/h2,13,16-19,23H,3,5-12H2,1H3
Instrument: TripleTOF 5600 SCIEX
Instrument type: LC-ESI-QTOF
Ms type: MS2
Ion mode: POSITIVE
Collision energy: 80
Fragmentation mode: CID
Ionization: ESI
Column name: Zorbax Eclipse Plus C18 2.1 mm x 150 mm, 3.5 um, Agilent
Retention time: 12.063 min
Precursor m/z: 313.2162
Precursor type: [M+H]+
m/z	relative intensity
43.0299	24
55.0277	36
65.0461	167
67.0613	108
69.0405	14
77.0449	786
78.0519	28
79.0599	524
81.0382	32
81.0757	212
83.0546	180
89.0431	28
91.0589	999
92.0684	12
93.0723	83
94.0451	24
95.0518	12
95.0889	22
102.0495	32
103.0579	143
104.0658	28
105.0734	219
107.0507	137
107.0885	14
109.0675	157
115.0576	593
116.0646	131
117.073	151
119.0884	26
126.0507	20
127.0566	161
128.0649	550
129.0724	229
130.0788	30
131.0499	22
131.087	28
133.067	22
135.0815	16
139.0531	12
141.0718	266
142.0813	55
143.0851	38
145.0686	24
145.103	12
151.0549	24
152.0625	114
153.0712	112
154.0788	32
155.0856	53
157.0617	12
164.0674	10
165.0722	155
166.0772	22
167.0855	34
177.071	14
178.0791	63
179.0841	24
189.0726	42
190.0735	16
191.0874	28
203.0841	12
