Mass spectrum: 5,5-Dimethylhydantoin; LC-ESI-QTOF; MS2; 20 V
Name: 5,5-Dimethylhydantoin
Class: Industrial_process; Personal_care_product
Formula: C5H8N2O2
Exact mass: 128.0586
SMILES: CC1(C(=O)NC(=O)N1)C
InChI: InChI=1S/C5H8N2O2/c1-5(2)3(8)6-4(9)7-5/h1-2H3,(H2,6,7,8,9)
Instrument: TripleTOF 5600 SCIEX
Instrument type: LC-ESI-QTOF
Ms type: MS2
Ion mode: POSITIVE
Collision energy: 20
Fragmentation mode: CID
Ionization: ESI
Column name: Zorbax Eclipse Plus C18 2.1 mm x 150 mm, 3.5 um, Agilent
Retention time: 3.47 min
Precursor m/z: 129.0659
Precursor type: [M+H]+
m/z	relative intensity
129.0667	999
