Mass spectrum: Thiacloprid; LC-ESI-QTOF; MS2; 140 V
Name: Thiacloprid
Class: Insecticide
Formula: C10H9ClN4S
Exact mass: 252.0236
SMILES: Clc1ccc(CN2CCSC2=NC#N)cn1
InChI: InChI=1S/C10H9ClN4S/c11-9-2-1-8(5-13-9)6-15-3-4-16-10(15)14-7-12/h1-2,5H,3-4,6H2
Instrument: TripleTOF 5600 SCIEX
Instrument type: LC-ESI-QTOF
Ms type: MS2
Ion mode: POSITIVE
Collision energy: 140
Fragmentation mode: CID
Ionization: ESI
Column name: Zorbax Eclipse Plus C18 2.1 mm x 150 mm, 3.5 um, Agilent
Retention time: 8.232 min
Precursor m/z: 253.0309
Precursor type: [M+H]+
m/z	relative intensity
60.0063	26
64.0382	46
72.987	999
73.0333	46
