Mass spectrum: 3,3-Diphenylacrylonitrile; LC-ESI-QTOF; MS2; 60 V
Name: 3,3-Diphenylacrylonitrile
Formula: C15H11N
Exact mass: 205.0891
SMILES: C1=CC=C(C=C1)C(=CC#N)C2=CC=CC=C2
InChI: InChI=1S/C15H11N/c16-12-11-15(13-7-3-1-4-8-13)14-9-5-2-6-10-14/h1-11H
Instrument: TripleTOF 6600 SCIEX
Instrument type: LC-ESI-QTOF
Ms type: MS2
Ion mode: POSITIVE
Collision energy: 60
Fragmentation mode: CID
Ionization: ESI
Column name: Zorbax Eclipse Plus C18 2.1 mm x 150 mm, 3.5 um, Agilent
Retention time: 13.746 min
Precursor m/z: 206.0964
Precursor type: [M+H]+
m/z	relative intensity
50.0135	13
51.0214	184
74.014	42
75.0209	328
76.0159	13
77.0373	999
101.0368	178
102.031	60
104.0471	136
105.0433	28
115.0521	26
127.0539	13
128.0455	13
128.0565	26
129.0418	63
130.0392	21
139.0529	26
140.0502	10
150.0469	23
151.052	144
152.06	162
163.0527	52
164.06	34
165.0688	63
175.0548	15
176.0601	297
177.0679	107
178.0764	128
187.0509	10
189.0656	13
190.0649	21
203.07	18
204.0838	26
