Mass spectrum: 5-Chlorobenzotriazole; LC-ESI-QTOF; MS2; 100 V
Name: 5-Chlorobenzotriazole
Class: Industrial_process
Formula: C6H4ClN3
Exact mass: 153.0094
SMILES: Clc1ccc2n[nH]nc2c1
InChI: InChI=1S/C6H4ClN3/c7-4-1-2-5-6(3-4)9-10-8-5/h1-3H,(H,8,9,10)
Instrument: TripleTOF 5600 SCIEX
Instrument type: LC-ESI-QTOF
Ms type: MS2
Ion mode: POSITIVE
Collision energy: 100
Fragmentation mode: CID
Ionization: ESI
Column name: Zorbax Eclipse Plus C18 2.1 mm x 150 mm, 3.5 um, Agilent
Retention time: 7.635 min
Precursor m/z: 154.0167
Precursor type: [M+H]+
m/z	relative intensity
40.0277	20
41.0345	36
52.0248	383
60.0047	356
65.029	56
71.9788	36
72.9878	999
74.0167	103
75.0134	423
76.0206	100
