Mass spectrum: Meclofenamic acid; LC-ESI-QTOF; MS2; 140 V
Name: Meclofenamic acid
Class: Pharmaceutical
Formula: C14H11Cl2NO2
Exact mass: 295.0167
SMILES: Cc1ccc(c(c1Cl)Nc2ccccc2C(=O)O)Cl
InChI: InChI=1S/C14H11Cl2NO2/c1-8-6-7-10(15)13(12(8)16)17-11-5-3-2-4-9(11)14(18)19/h2-7,17H,1H3,(H,18,19)
Instrument: TripleTOF 5600 SCIEX
Instrument type: LC-ESI-QTOF
Ms type: MS2
Ion mode: POSITIVE
Collision energy: 140
Fragmentation mode: CID
Ionization: ESI
Column name: Zorbax Eclipse Plus C18 2.1 mm x 150 mm, 3.5 um, Agilent
Retention time: 13.705 min
Precursor m/z: 296.024
Precursor type: [M+H]+
m/z	relative intensity
73.0104	54
74.0186	639
75.0261	546
76.0329	236
77.0406	393
77.0685	29
78.0498	29
85.009	29
86.0167	103
87.0252	113
88.0182	19
88.0331	34
89.0393	73
89.0514	29
98.0152	354
99.0235	339
100.0184	24
100.0318	68
101.0399	78
102.0475	73
110.0134	63
111.0232	49
113.0392	78
122.015	63
123.0219	68
124.0311	34
125.0385	177
126.0456	265
127.0479	78
128.0473	24
128.0655	24
137.0386	44
138.0348	29
139.0549	19
140.0484	24
149.0378	201
150.0459	999
151.054	408
152.055	182
164.0523	29
175.0403	39
176.0479	108
177.0566	152
177.0748	29
178.0673	98
