Mass spectrum: Fluometuron; LC-ESI-QTOF; MS2; 40 V
Name: Fluometuron
Class: Herbicide
Formula: C10H11F3N2O
Exact mass: 232.0823
SMILES: CN(C)C(=O)Nc1cccc(c1)C(F)(F)F
InChI: InChI=1S/C10H11F3N2O/c1-15(2)9(16)14-8-5-3-4-7(6-8)10(11,12)13/h3-6H,1-2H3,(H,14,16)
Instrument: TripleTOF 5600 SCIEX
Instrument type: LC-ESI-QTOF
Ms type: MS2
Ion mode: POSITIVE
Collision energy: 40
Fragmentation mode: CID
Ionization: ESI
Column name: Zorbax Eclipse Plus C18 2.1 mm x 150 mm, 3.5 um, Agilent
Retention time: 9.983 min
Precursor m/z: 233.0896
Precursor type: [M+H]+
m/z	relative intensity
72.0481	999
72.0796	34
140.029	51
145.0257	115
160.0365	115
168.0251	51
188.0306	23
