Mass spectrum: 6-Methylthioguanine; LC-ESI-QTOF; MS2; 60 V
Name: 6-Methylthioguanine
Class: Metabolite; Pharmaceutical
Formula: C6H7N5S
Exact mass: 181.0422
SMILES: CSc1nc(N)nc2nc[nH]c12
InChI: InChI=1S/C6H7N5S/c1-12-5-3-4(9-2-8-3)10-6(7)11-5/h2H,1H3,(H3,7,8,9,10,11)
Instrument: TripleTOF 5600 SCIEX
Instrument type: LC-ESI-QTOF
Ms type: MS2
Ion mode: POSITIVE
Collision energy: 60
Fragmentation mode: CID
Ionization: ESI
Column name: Zorbax Eclipse Plus C18 2.1 mm x 150 mm, 3.5 um, Agilent
Retention time: 4.912 min
Precursor m/z: 182.0495
Precursor type: [M+H]+
m/z	relative intensity
53.0193	428
53.0338	58
54.0274	188
55.0338	252
55.0457	32
65.0169	505
66.0242	84
67.0307	162
68.0276	577
69.9762	77
70.9852	999
71.995	45
74.0083	32
80.0265	629
80.0587	45
81.0355	233
81.9759	58
82.0425	38
82.9843	577
83.0085	25
83.9927	51
92.025	285
93.0344	77
95.9779	51
97.9939	317
99.0028	90
107.0351	720
107.0716	25
108.0423	220
109.0504	77
121.0496	38
122.9888	136
125.0035	252
126.0118	233
134.0457	415
149.9988	136
