Mass spectrum: Pyridoxine; LC-ESI-QTOF; MS2; 30 V
Name: Pyridoxine
Formula: C8H11NO3
Exact mass: 169.0739
SMILES: OC1=C(C)N=CC(CO)=C1CO
InChI: InChI=1S/C8H11NO3/c1-5-8(12)7(4-11)6(3-10)2-9-5/h2,10-12H,3-4H2,1H3
Instrument: TripleTOF 5600 SCIEX
Instrument type: LC-ESI-QTOF
Ms type: MS2
Ion mode: POSITIVE
Collision energy: 30
Fragmentation mode: CID
Ionization: ESI
Column name: Zorbax Eclipse Plus C18 2.1 mm x 150 mm, 3.5 um, Agilent
Retention time: 2.11 min
Precursor m/z: 170.0812
Precursor type: [M+H]+
m/z	relative intensity
77.0379	47
79.0538	46
80.0493	15
81.0573	24
94.0643	16
96.0803	26
106.0652	47
123.0663	23
124.0755	93
134.0601	999
152.0703	237
