Mass spectrum: Resveratrol; LC-ESI-QTOF; MS2; 20 V
Name: Resveratrol
Class: Pharmaceutical
Formula: C14H12O3
Exact mass: 228.0786
SMILES: c1cc(ccc1/C=C/c2cc(cc(c2)O)O)O
InChI: InChI=1S/C14H12O3/c15-12-5-3-10(4-6-12)1-2-11-7-13(16)9-14(17)8-11/h1-9,15-17H/b2-1+
Instrument: TripleTOF 5600 SCIEX
Instrument type: LC-ESI-QTOF
Ms type: MS2
Ion mode: POSITIVE
Collision energy: 20
Fragmentation mode: CID
Ionization: ESI
Column name: Zorbax Eclipse Plus C18 2.1 mm x 150 mm, 3.5 um, Agilent
Retention time: 7.575 min
Precursor m/z: 229.0859
Precursor type: [M+H]+
m/z	relative intensity
91.0555	63
107.0484	115
107.0563	42
119.0482	157
135.0431	546
165.0697	73
183.0783	105
193.0654	52
229.0619	63
229.0856	999
