Mass spectrum: Triisopropanolamine; LC-ESI-QTOF; MS2; 50 V
Name: Triisopropanolamine
Formula: C9H21NO3
Exact mass: 191.1521
SMILES: CC(CN(CC(C)O)CC(C)O)O
InChI: InChI=1S/C9H21NO3/c1-7(11)4-10(5-8(2)12)6-9(3)13/h7-9,11-13H,4-6H2,1-3H3
Instrument: TripleTOF 6600 SCIEX
Instrument type: LC-ESI-QTOF
Ms type: MS2
Ion mode: POSITIVE
Collision energy: 50
Fragmentation mode: CID
Ionization: ESI
Column name: Zorbax Eclipse Plus C18 2.1 mm x 150 mm, 3.5 um, Agilent
Retention time: 2.182 min
Precursor m/z: 192.1594
Precursor type: [M+H]+
m/z	relative intensity
31.0183	278
37.0079	61
38.0158	51
39.0237	659
41.0392	999
42.034	199
43.0179	56
43.0422	11
43.0542	81
44.0501	25
53.0388	20
54.0331	18
55.0542	30
56.0493	93
58.0651	63
59.0491	360
68.0498	155
70.0646	201
72.0805	18
77.0389	30
79.0538	58
80.05	27
81.0572	15
81.0687	22
82.0645	70
83.0724	11
84.0804	13
94.0655	13
96.0798	22
98.0963	66
108.0796	11
