Mass spectrum: Tributyltetradecylphosphonium; LC-ESI-QTOF; MS2; 100 V
Name: Tributyltetradecylphosphonium
Formula: [C26H56P]+
Exact mass: 399.4114
SMILES: CCCCCCCCCCCCCC[P+](CCCC)(CCCC)CCCC
InChI: InChI=1S/C26H56P/c1-5-9-13-14-15-16-17-18-19-20-21-22-26-27(23-10-6-2,24-11-7-3)25-12-8-4/h5-26H2,1-4H3/q+1
Instrument: TripleTOF 5600 SCIEX
Instrument type: LC-ESI-QTOF
Ms type: MS2
Ion mode: POSITIVE
Collision energy: 100
Fragmentation mode: CID
Ionization: ESI
Column name: Zorbax Eclipse Plus C18 2.1 mm x 150 mm, 3.5 um, Agilent
Retention time: 14.891 min
Precursor m/z: 399.4114
Precursor type: [M]+
m/z	relative intensity
41.0392	72
44.9891	69
45.9971	102
56.9889	119
59.0045	179
61.0204	532
62.0279	398
73.0193	58
75.0352	448
76.0431	999
88.0417	53
89.0496	98
90.0576	200
103.0655	93
115.0659	73
117.0813	101
131.0978	187
145.1134	89
159.129	50
173.1458	156
187.1608	67
229.2084	64
