Mass spectrum: Diazinon; LC-ESI-QTOF; MS2; 110 V
Name: Diazinon
Class: Insecticide
Formula: C12H21N2O3PS
Exact mass: 304.1011
SMILES: CCO[P](=S)(OCC)Oc1cc(C)nc(n1)C(C)C
InChI: InChI=1S/C12H21N2O3PS/c1-6-15-18(19,16-7-2)17-11-8-10(5)13-12(14-11)9(3)4/h8-9H,6-7H2,1-5H3
Instrument: TripleTOF 5600 SCIEX
Instrument type: LC-ESI-QTOF
Ms type: MS2
Ion mode: POSITIVE
Collision energy: 110
Fragmentation mode: CID
Ionization: ESI
Column name: Zorbax Eclipse Plus C18 2.1 mm x 150 mm, 3.5 um, Agilent
Retention time: 14.526 min
Precursor m/z: 305.1083
Precursor type: [M+H]+
m/z	relative intensity
42.0431	210
54.0396	24
56.0538	13
57.9926	18
58.9996	55
59.9944	49
62.9676	172
64.9838	696
66.0376	15
67.0452	67
70.0677	14
78.9434	746
80.9757	231
82.9967	80
84.0463	41
90.9955	17
94.066	14
96.9521	999
99.0139	11
100.0215	50
153.0468	12
