Mass spectrum: 2-isopropyl-5,6-dimethyl-1H-benzimidazole; LC-ESI-QTOF; MS2; 90 V
Name: 2-isopropyl-5,6-dimethyl-1H-benzimidazole
Formula: C12H16N2
Exact mass: 188.1313
SMILES: CC1=CC2=C(C=C1C)N=C(N2)C(C)C
InChI: InChI=1S/C12H16N2/c1-7(2)12-13-10-5-8(3)9(4)6-11(10)14-12/h5-7H,1-4H3,(H,13,14)
Instrument: TripleTOF 6600 SCIEX
Instrument type: LC-ESI-QTOF
Ms type: MS2
Ion mode: POSITIVE
Collision energy: 90
Fragmentation mode: CID
Ionization: ESI
Column name: Zorbax Eclipse Plus C18 2.1 mm x 150 mm, 3.5 um, Agilent
Retention time: 6.482 min
Precursor m/z: 189.1386
Precursor type: [M+H]+
m/z	relative intensity
37.0069	13
39.0226	80
41.0381	20
50.0145	84
51.0226	396
52.0301	16
53.0376	13
54.0333	12
62.014	14
63.0219	43
65.0377	146
74.0134	14
75.0214	24
76.0289	15
77.038	999
78.0333	40
78.0443	103
79.0529	24
80.0487	38
89.0371	97
90.0446	21
91.0528	278
92.0487	12
93.0568	20
102.032	37
103.0525	56
104.048	255
105.0448	23
106.0634	14
115.0411	19
116.0484	26
117.0556	39
118.0631	44
129.0468	18
130.0629	64
131.0587	264
132.0652	16
142.0507	39
145.0734	14
155.0585	33
156.0678	16
157.0744	265
