Mass spectrum: 11alpha-Hydroxyprogesterone; LC-ESI-QTOF; MS2; 110 V
Name: 11alpha-Hydroxyprogesterone
Class: Pharmaceutical; Metabolite
Formula: C21H30O3
Exact mass: 330.2195
SMILES: CC(=O)C1CC[C@H]2[C@@H]3CCC4=CC(=O)CC[C@]4(C)[C@H]3[C@H](O)C[C@]12C
InChI: InChI=1S/C21H30O3/c1-12(22)16-6-7-17-15-5-4-13-10-14(23)8-9-20(13,2)19(15)18(24)11-21(16,17)3/h10,15-19,24H,4-9,11H2,1-3H3/t15-,16?,17-,18+,19+,20-,21+/m0/s1
Instrument: TripleTOF 5600 SCIEX
Instrument type: LC-ESI-QTOF
Ms type: MS2
Ion mode: POSITIVE
Collision energy: 110
Fragmentation mode: CID
Ionization: ESI
Column name: Zorbax Eclipse Plus C18 2.1 mm x 150 mm, 3.5 um, Agilent
Retention time: 10.293 min
Precursor m/z: 331.2268
Precursor type: [M+H]+
m/z	relative intensity
43.0266	428
51.0278	96
55.0212	48
55.0587	67
65.043	279
67.0571	126
69.0387	14
71.0527	14
77.0417	999
78.0485	55
79.0566	290
81.071	29
83.0498	52
83.0659	14
89.04	22
91.0556	663
91.0826	22
93.0709	33
94.04	29
95.0857	22
97.0655	44
102.0469	59
103.0555	123
104.0617	14
105.0712	108
107.0484	44
115.0538	510
116.0629	41
117.0692	48
121.0634	33
126.0464	26
127.0546	137
128.0622	350
129.068	78
131.0481	26
131.0811	22
139.0511	18
141.0694	126
151.053	18
152.0609	104
153.0681	85
155.085	26
165.0687	130
166.0783	18
176.065	26
178.0751	44
179.0878	22
189.0714	29
191.0866	18
