Mass spectrum: Epirubicin; LC-ESI-QTOF; MS2; 140 V
Name: Epirubicin
Class: Pharmaceutical
Formula: C27H29NO11
Exact mass: 543.1741
SMILES: CC1C(C(CC(O1)OC2CC(CC3=C(C4=C(C(=C23)O)C(=O)C5=C(C4=O)C=CC=C5OC)O)(C(=O)CO)O)N)O
InChI: InChI=1S/C27H29NO11/c1-10-22(31)13(28)6-17(38-10)39-15-8-27(36,16(30)9-29)7-12-19(15)26(35)21-20(24(12)33)23(32)11-4-3-5-14(37-2)18(11)25(21)34/h3-5,10,13,15,17,22,29,31,33,35-36H,6-9,28H2,1-2H3
Instrument: TripleTOF 5600 SCIEX
Instrument type: LC-ESI-QTOF
Ms type: MS2
Ion mode: NEGATIVE
Collision energy: 140
Fragmentation mode: CID
Ionization: ESI
Column name: Zorbax Eclipse Plus C18 2.1 mm x 150 mm, 3.5 um, Agilent
Retention time: 7.492 min
Precursor m/z: 542.1668
Precursor type: [M-H]-
m/z	relative intensity
65.0401	66
93.0382	99
101.0402	66
116.026	166
117.0349	333
129.037	66
145.028	233
151.0539	166
152.0616	66
154.0429	66
163.0536	99
164.0634	66
165.036	66
165.0735	133
167.0491	133
172.0145	99
173.0251	199
176.0585	66
179.0511	133
180.0631	199
181.0615	66
181.0691	66
191.0533	732
193.0684	133
194.044	66
195.0404	133
195.0513	66
206.0419	133
207.0488	266
208.0508	133
209.0655	99
210.034	66
219.048	999
220.0525	166
221.0587	133
232.0535	199
233.0686	99
235.0437	699
236.0572	99
237.0621	133
247.0427	432
248.0499	532
259.0337	66
263.0371	432
264.0416	266
265.0463	66
276.0443	199
291.0282	99
292.0281	166
