Mass spectrum: Diethylamino hydroxybenzoyl hexyl benzoate; LC-ESI-QTOF; MS2; 60 V
Name: Diethylamino hydroxybenzoyl hexyl benzoate
Formula: C24H31NO4
Exact mass: 397.2253
SMILES: CCCCCCOC(=O)C1=CC=CC=C1C(=O)C2=C(C=C(C=C2)N(CC)CC)O
InChI: InChI=1S/C24H31NO4/c1-4-7-8-11-16-29-24(28)20-13-10-9-12-19(20)23(27)21-15-14-18(17-22(21)26)25(5-2)6-3/h9-10,12-15,17,26H,4-8,11,16H2,1-3H3
Instrument: TripleTOF 6600 SCIEX
Instrument type: LC-ESI-QTOF
Ms type: MS2
Ion mode: POSITIVE
Collision energy: 60
Fragmentation mode: CID
Ionization: ESI
Column name: Zorbax Eclipse Plus C18 2.1 mm x 150 mm, 3.5 um, Agilent
Retention time: 17.769 min
Precursor m/z: 398.2326
Precursor type: [M+H]+
m/z	relative intensity
41.0385	11
43.0544	31
65.0384	28
93.0331	56
105.0327	17
121.0289	186
122.0588	24
133.0275	12
136.075	12
138.0904	22
139.0536	11
141.0691	14
149.0233	999
152.0606	10
153.069	15
164.0704	123
165.0696	12
167.0481	11
167.0778	10
168.0571	15
180.0795	14
181.0641	32
182.0593	14
184.051	23
194.0613	13
194.0956	14
195.0458	11
195.0678	26
196.0584	100
197.0595	70
198.0593	43
204.0799	12
208.0752	75
209.0591	11
210.0575	26
210.089	17
211.0633	47
212.0699	52
220.074	21
222.0551	19
222.0894	27
223.0442	64
224.0706	325
225.0624	52
226.0852	20
232.0757	23
233.0827	18
234.0535	19
235.0623	26
236.0702	10
238.0536	29
238.0834	37
239.059	18
239.0927	34
240.101	714
248.0705	12
249.078	12
250.0852	53
251.0599	10
252.0654	279
266.081	747
267.0872	11
268.0968	36
