Mass spectrum: Difenoconazole; LC-ESI-QTOF; MS2; 140 V
Name: Difenoconazole
Class: Fungicide
Formula: C19H17Cl2N3O3
Exact mass: 405.0647
SMILES: CC1COC(Cn2cncn2)(O1)c3ccc(Oc4ccc(Cl)cc4)cc3Cl
InChI: InChI=1S/C19H17Cl2N3O3/c1-13-9-25-19(27-13,10-24-12-22-11-23-24)17-7-6-16(8-18(17)21)26-15-4-2-14(20)3-5-15/h2-8,11-13H,9-10H2,1H3
Instrument: TripleTOF 6600 SCIEX
Instrument type: LC-ESI-QTOF
Ms type: MS2
Ion mode: POSITIVE
Collision energy: 140
Fragmentation mode: CID
Ionization: ESI
Column name: Zorbax Eclipse Plus C18 2.1 mm x 150 mm, 3.5 um, Agilent
Retention time: 13.755 min
Precursor m/z: 406.072
Precursor type: [M+H]+
m/z	relative intensity
39.0233	17
49.0072	32
50.015	142
51.0228	139
60.9837	21
62.0143	19
63.0226	46
72.9839	48
73.0068	64
74.0152	999
75.0228	891
76.03	41
77.0378	107
78.0462	42
84.9833	135
86.0142	14
87.0231	25
88.0295	10
89.0382	58
98.0156	12
98.999	19
99.0226	16
101.0382	10
102.0447	35
110.999	33
113.0377	64
114.0457	12
125.0383	17
126.0457	82
127.0535	48
128.0608	21
137.0379	37
138.0461	41
139.0531	167
141.0083	12
148.0069	10
149.0136	12
149.0375	10
150.0453	121
151.0528	219
152.0614	343
173.0147	10
179.0585	14
