Mass spectrum: 2-Nitrophenol; LC-ESI-QTOF; MS2; 40 V
Name: 2-Nitrophenol
Class: Industrial_process
Formula: C6H5NO3
Exact mass: 139.0269
SMILES: C1=CC=C(C(=C1)[N+](=O)[O-])O
InChI: InChI=1S/C6H5NO3/c8-6-4-2-1-3-5(6)7(9)10/h1-4,8H
Instrument: TripleTOF 6600 SCIEX
Instrument type: LC-ESI-QTOF
Ms type: MS2
Ion mode: NEGATIVE
Collision energy: 40
Fragmentation mode: CID
Ionization: ESI
Column name: Zorbax Eclipse Plus C18 2.1 mm x 150 mm, 3.5 um, Agilent
Retention time: 7.82 min
Precursor m/z: 138.0195
Precursor type: [M-H]-
m/z	relative intensity
45.9934	999
92.0253	574
108.0207	531
138.0228	129
