Mass spectrum: (Methoxymethyl)triphenylphosphonium; LC-ESI-QTOF; MS2; 70 V
Name: (Methoxymethyl)triphenylphosphonium
Class: Industrial_process
Formula: [C20H20OP]+
Exact mass: 307.1246
SMILES: COC[P+](C1=CC=CC=C1)(C2=CC=CC=C2)C3=CC=CC=C3
InChI: InChI=1S/C20H20OP/c1-21-17-22(18-11-5-2-6-12-18,19-13-7-3-8-14-19)20-15-9-4-10-16-20/h2-16H,17H2,1H3/q+1
Instrument: TripleTOF 5600 SCIEX
Instrument type: LC-ESI-QTOF
Ms type: MS2
Ion mode: POSITIVE
Collision energy: 70
Fragmentation mode: CID
Ionization: ESI
Column name: Zorbax Eclipse Plus C18 2.1 mm x 150 mm, 3.5 um, Agilent
Retention time: 7.502 min
Precursor m/z: 307.1246
Precursor type: [M]+
m/z	relative intensity
45.0337	156
107.0029	169
108.0105	55
152.0613	205
157.0195	82
183.036	999
