Mass spectrum: Quinoline; LC-ESI-QTOF; MS2; 20 V
Name: Quinoline
Formula: C9H7N
Exact mass: 129.0578
SMILES: C1=CC=C2C(=C1)C=CC=N2
InChI: InChI=1S/C9H7N/c1-2-6-9-8(4-1)5-3-7-10-9/h1-7H
Instrument: TripleTOF X500R SCIEX
Instrument type: LC-ESI-QTOF
Ms type: MS2
Ion mode: POSITIVE
Collision energy: 20
Fragmentation mode: CID
Ionization: ESI
Column name: Zorbax Eclipse Plus C18 2.1 mm x 150 mm, 3.5 um, Agilent
Retention time: 4.58 min
Precursor m/z: 130.0651
Precursor type: [M+H]+
m/z	relative intensity
77.0385	15
102.0467	28
103.0539	301
128.0494	135
130.0667	999
131.0678	10
