Mass spectrum: Doxycycline; LC-ESI-QTOF; MS2; 70 V
Name: Doxycycline
Class: Antimicrobial; Pharmaceutical
Formula: C22H24N2O8
Exact mass: 444.1533
SMILES: CC1C2C(C3C(C(=O)C(=C(C3(C(=O)C2=C(C4=C1C=CC=C4O)O)O)O)C(=O)N)N(C)C)O
InChI: InChI=1S/C22H24N2O8/c1-7-8-5-4-6-9(25)11(8)16(26)12-10(7)17(27)14-15(24(2)3)18(28)13(21(23)31)20(30)22(14,32)19(12)29/h4-7,10,14-15,17,25-27,30,32H,1-3H3,(H2,23,31)
Instrument: TripleTOF 5600 SCIEX
Instrument type: LC-ESI-QTOF
Ms type: MS2
Ion mode: POSITIVE
Collision energy: 70
Fragmentation mode: CID
Ionization: ESI
Column name: Zorbax Eclipse Plus C18 2.1 mm x 150 mm, 3.5 um, Agilent
Retention time: 6.499 min
Precursor m/z: 445.1605
Precursor type: [M+H]+
m/z	relative intensity
70.0757	65
84.0542	65
91.0583	65
98.0644	521
115.0587	65
117.0697	108
127.0549	228
128.0624	54
131.0537	43
137.0257	86
140.0529	54
141.0737	86
144.0603	54
145.0659	314
147.0779	76
151.0554	43
152.0629	76
153.08	43
155.0501	97
155.0848	65
157.0681	108
159.0813	65
164.0722	54
165.0184	97
165.0689	206
167.0866	108
168.0568	206
169.0668	65
171.0827	76
173.0576	97
174.069	43
175.0768	108
177.0693	97
178.0739	76
179.0857	108
181.0648	76
183.0813	119
184.0573	54
185.0653	43
185.103	65
187.0382	54
187.0743	249
189.0678	65
191.0798	54
193.0713	54
194.0752	108
195.0797	325
196.0531	249
197.0581	141
198.0682	141
199.0742	65
201.0154	43
201.0563	857
205.0706	76
207.0837	108
208.0492	65
209.0898	54
210.0699	108
211.0732	401
213.0907	141
219.0838	97
221.0597	141
222.0672	76
223.0744	206
224.0457	282
225.062	65
225.0916	141
226.0596	358
232.0531	54
235.0758	108
236.0396	54
237.0553	76
237.0819	65
238.0632	152
239.0692	369
240.0616	43
241.0872	173
242.0599	97
247.0792	108
249.0558	54
250.0636	249
251.069	141
252.0427	999
253.0847	119
254.0618	43
262.0618	54
263.073	119
267.0632	423
267.0938	54
269.0821	130
275.0821	54
278.0483	97
278.0612	119
279.0673	65
293.0824	141
306.0449	97
306.0589	76
321.0786	54
334.0458	86
