Mass spectrum: Phenylbutazone; LC-ESI-QTOF; MS2; 30 V
Name: Phenylbutazone
Class: Pharmaceutical
Formula: C19H20N2O2
Exact mass: 308.1525
SMILES: CCCCC1C(=O)N(N(C1=O)C2=CC=CC=C2)C3=CC=CC=C3
InChI: InChI=1S/C19H20N2O2/c1-2-3-14-17-18(22)20(15-10-6-4-7-11-15)21(19(17)23)16-12-8-5-9-13-16/h4-13,17H,2-3,14H2,1H3
Instrument: TripleTOF 5600 SCIEX
Instrument type: LC-ESI-QTOF
Ms type: MS2
Ion mode: POSITIVE
Collision energy: 30
Fragmentation mode: CID
Ionization: ESI
Column name: Zorbax Eclipse Plus C18 2.1 mm x 150 mm, 3.5 um, Agilent
Retention time: 13.103 min
Precursor m/z: 309.1598
Precursor type: [M+H]+
m/z	relative intensity
55.0292	22
71.0919	34
77.0447	168
79.0607	11
91.0588	16
92.054	395
93.0379	279
93.0596	57
94.0454	16
94.0687	282
95.0522	30
97.0672	49
104.0521	59
105.037	29
106.0676	130
107.0509	15
117.0596	19
118.0674	30
120.0464	999
125.0629	17
128.0515	15
130.0657	49
131.0738	30
132.0464	257
132.0819	17
133.0537	121
134.0613	48
134.0983	13
143.0783	13
144.0814	15
145.0929	12
146.061	238
146.093	12
148.0787	30
148.1127	60
160.0646	25
160.1135	402
162.0555	25
162.1288	243
166.0678	12
168.0803	16
172.1139	64
173.0855	10
174.0559	97
182.0844	47
183.0932	22
186.0935	17
188.1074	627
190.1238	409
194.0591	63
200.1071	35
207.0913	22
208.1001	33
211.0871	686
216.1025	81
221.1072	15
224.0972	12
234.1127	11
253.0974	64
263.1519	67
265.1704	15
309.1602	180
