Mass spectrum: Salbutamol; LC-ESI-QTOF; MS2; 40 V
Name: Salbutamol
Class: Pharmaceutical
Formula: C13H21NO3
Exact mass: 239.1521
SMILES: CC(C)(NCC(c1cc(CO)c(O)cc1)O)C
InChI: InChI=1S/C13H21NO3/c1-13(2,3)14-7-12(17)9-4-5-11(16)10(6-9)8-15/h4-6,12,14-17H,7-8H2,1-3H3
Instrument: TripleTOF 5600 SCIEX
Instrument type: LC-ESI-QTOF
Ms type: MS2
Ion mode: POSITIVE
Collision energy: 40
Fragmentation mode: CID
Ionization: ESI
Column name: Zorbax Eclipse Plus C18 2.1 mm x 150 mm, 3.5 um, Agilent
Retention time: 4.69 min
Precursor m/z: 240.1594
Precursor type: [M+H]+
m/z	relative intensity
55.0226	28
57.0746	97
65.0424	16
77.0415	212
79.0567	108
80.0516	65
81.0353	24
91.0557	288
93.0706	127
94.0664	24
103.0547	172
104.0502	10
105.0583	42
106.0656	34
107.0491	25
117.0572	31
118.0649	85
119.049	21
120.0803	188
121.0647	452
130.0648	366
131.0484	77
131.072	19
133.0523	321
135.068	21
136.0749	18
146.0607	17
147.0672	25
148.0756	999
166.0849	51
222.1504	21
