Mass spectrum: Torasemide; LC-ESI-QTOF; MS2; 70 V
Name: Torasemide
Class: Pharmaceutical
Formula: C16H20N4O3S
Exact mass: 348.1256
InChI: InChI=1S/C16H20N4O3S/c1-11(2)18-16(21)20-24(22,23)15-10-17-8-7-14(15)19-13-6-4-5-12(3)9-13/h4-11H,1-3H3,(H,17,19)(H2,18,20,21)
Instrument: TripleTOF 5600 SCIEX
Instrument type: LC-ESI-QTOF
Ms type: CID
Ion mode: NEGATIVE
Collision energy: 70
Ionization: ESI
Column name: Zorbax Eclipse Plus C18 2.1 mm x 150 mm, 3.5 um, Agilent
Retention time: 7.633 min
Precursor m/z: 347.1183
Precursor type: [M-H]-
m/z	relative intensity
48.9771	72
77.9654	491
78.9735	66
91.0302	127
92.0379	166
93.046	177
107.0476	54
108.0325	215
180.0702	134
181.0774	999
182.0748	66
183.0933	194
194.072	65
195.0806	265
196.087	115
226.0453	72
