Mass spectrum: Bisoprolol; LC-ESI-QTOF; MS2; 100 V
Name: Bisoprolol
Class: Pharmaceutical
Formula: C18H31NO4
Exact mass: 325.2253
SMILES: CC(C)NCC(COC1=CC=C(C=C1)COCCOC(C)C)O
InChI: InChI=1S/C18H31NO4/c1-14(2)19-11-17(20)13-23-18-7-5-16(6-8-18)12-21-9-10-22-15(3)4/h5-8,14-15,17,19-20H,9-13H2,1-4H3
Instrument: TripleTOF 6600 SCIEX
Instrument type: LC-ESI-QTOF
Ms type: MS2
Ion mode: POSITIVE
Collision energy: 100
Fragmentation mode: CID
Ionization: ESI
Column name: Zorbax Eclipse Plus C18 2.1 mm x 150 mm, 3.5 um, Agilent
Retention time: 7.01 min
Precursor m/z: 326.2326
Precursor type: [M+H]+
m/z	relative intensity
30.0335	145
37.0067	37
38.0019	18
38.0146	46
39.0227	281
41.038	250
42.0328	19
43.0168	26
43.0534	119
44.0485	30
45.0329	253
50.0145	19
51.0224	152
53.0378	21
55.017	29
56.0492	274
58.0634	49
59.9987	23
61.0062	93
62.0139	189
63.0222	860
65.038	212
74.0588	50
77.0378	999
78.0449	53
79.0532	135
81.031	18
89.0371	650
90.0443	11
91.0532	219
95.0472	12
103.0527	30
105.0438	25
107.0472	336
115.0516	65
