Mass spectrum: Tributyltetradecylphosphonium; LC-ESI-QTOF; MS2; 150 V
Name: Tributyltetradecylphosphonium
Formula: [C26H56P]+
Exact mass: 399.4114
SMILES: CCCCCCCCCCCCCC[P+](CCCC)(CCCC)CCCC
InChI: InChI=1S/C26H56P/c1-5-9-13-14-15-16-17-18-19-20-21-22-26-27(23-10-6-2,24-11-7-3)25-12-8-4/h5-26H2,1-4H3/q+1
Instrument: TripleTOF 5600 SCIEX
Instrument type: LC-ESI-QTOF
Ms type: MS2
Ion mode: POSITIVE
Collision energy: 150
Fragmentation mode: CID
Ionization: ESI
Column name: Zorbax Eclipse Plus C18 2.1 mm x 150 mm, 3.5 um, Agilent
Retention time: 14.891 min
Precursor m/z: 399.4114
Precursor type: [M]+
m/z	relative intensity
39.0235	132
41.0391	130
43.9811	213
44.9892	473
45.9969	347
47.0046	211
48.0125	49
56.9889	836
59.0044	802
61.0201	999
62.0276	335
73.0195	87
75.0351	333
76.0425	290
