Mass spectrum: 1,2-Benzisothiazol-3(2H)-one; LC-ESI-QTOF; MS2; 40 V
Name: 1,2-Benzisothiazol-3(2H)-one
Class: Antimicrobial
Formula: C7H5NOS
Exact mass: 151.0092
SMILES: C1=CC=C2C(=C1)C(=O)NS2
InChI: InChI=1S/C7H5NOS/c9-7-5-3-1-2-4-6(5)10-8-7/h1-4H,(H,8,9)
Instrument: TripleTOF 6600 SCIEX
Instrument type: LC-ESI-QTOF
Ms type: MS2
Ion mode: POSITIVE
Collision energy: 40
Fragmentation mode: CID
Ionization: ESI
Column name: Zorbax Eclipse Plus C18 2.1 mm x 150 mm, 3.5 um, Agilent
Retention time: 6.233 min
Precursor m/z: 152.0165
Precursor type: [M+H]+
m/z	relative intensity
37.0061	15
39.0228	63
44.9788	10
50.0148	12
51.0221	99
53.0381	86
62.0144	12
63.0224	298
64.0176	68
65.038	275
68.9793	61
76.03	12
77.0381	999
80.0489	351
81.9864	20
82.9946	15
90.0333	695
91.041	12
92.9794	50
97.0095	33
105.0324	361
106.9939	219
108.0014	84
109.0101	558
132.9973	61
134.005	705
135.997	25
152.016	196
