Mass spectrum: Tramadol-N-oxide; LC-ESI-QTOF; MS2; 90 V
Name: Tramadol-N-oxide
Class: Pharmaceutical; Transformation_product-Metabolite
Formula: C16H25NO3
Exact mass: 279.1834
SMILES: [O-][N+](C)(C)C[C@H]2CCCC[C@]2(O)c1cc(OC)ccc1
InChI: InChI=1S/C16H25NO3/c1-17(2,19)12-14-7-4-5-10-16(14,18)13-8-6-9-15(11-13)20-3/h6,8-9,11,14,18H,4-5,7,10,12H2,1-3H3/t14-,16+/m1/s1
Instrument: TripleTOF 5600 SCIEX
Instrument type: LC-ESI-QTOF
Ms type: MS2
Ion mode: POSITIVE
Collision energy: 90
Fragmentation mode: CID
Ionization: ESI
Column name: Zorbax Eclipse Plus C18 2.1 mm x 150 mm, 3.5 um, Agilent
Retention time: 6.334 min
Precursor m/z: 280.1907
Precursor type: [M+H]+
m/z	relative intensity
42.0442	71
43.0257	26
44.0581	33
55.0264	10
56.0563	33
58.0714	313
64.036	278
65.0433	263
66.05	31
67.0588	20
68.0536	13
75.0264	9
77.0421	999
78.0499	299
79.0563	57
89.0408	66
90.0472	11
91.0559	417
92.0276	558
94.0421	54
94.0667	27
101.0386	9
102.0468	89
103.0553	100
104.0621	14
106.0427	14
107.0499	50
115.0544	611
116.0631	81
117.0688	30
121.0648	90
126.0475	25
127.0544	135
128.0617	284
129.069	55
130.0411	10
131.049	37
141.0696	28
144.0568	43
145.0646	14
152.0598	17
153.0699	10
