Mass spectrum: Tetraoctylphosphonium; LC-ESI-QTOF; MS2; 30 V
Name: Tetraoctylphosphonium
Formula: [C32H68P]+
Exact mass: 483.5053
SMILES: CCCCCCCC[P+](CCCCCCCC)(CCCCCCCC)CCCCCCCC
InChI: InChI=1S/C32H68P/c1-5-9-13-17-21-25-29-33(30-26-22-18-14-10-6-2,31-27-23-19-15-11-7-3)32-28-24-20-16-12-8-4/h5-32H2,1-4H3/q+1
Instrument: TripleTOF 5600 SCIEX
Instrument type: LC-ESI-QTOF
Ms type: MS2
Ion mode: POSITIVE
Collision energy: 30
Fragmentation mode: CID
Ionization: ESI
Column name: Zorbax Eclipse Plus C18 2.1 mm x 150 mm, 3.5 um, Agilent
Retention time: 16.405 min
Precursor m/z: 483.5053
Precursor type: [M]+
m/z	relative intensity
483.5048	999
