Mass spectrum: Levamisole; LC-ESI-QTOF; MS2; 70 V
Name: Levamisole
Class: Pharmaceutical
Formula: C11H12N2S
Exact mass: 204.0721
SMILES: c1ccc(cc1)[C@H]2CN3CCSC3=N2
InChI: InChI=1S/C11H12N2S/c1-2-4-9(5-3-1)10-8-13-6-7-14-11(13)12-10/h1-5,10H,6-8H2/t10-/m1/s1
Instrument: TripleTOF 5600 SCIEX
Instrument type: LC-ESI-QTOF
Ms type: MS2
Ion mode: POSITIVE
Collision energy: 70
Fragmentation mode: CID
Ionization: ESI
Column name: Zorbax Eclipse Plus C18 2.1 mm x 150 mm, 3.5 um, Agilent
Retention time: 5.021 min
Precursor m/z: 205.0794
Precursor type: [M+H]+
m/z	relative intensity
51.0309	110
59.0002	21
59.9946	59
65.0437	424
75.0258	24
77.0425	625
78.0492	95
79.0568	54
89.0406	111
90.048	78
91.057	999
91.0898	12
101.0391	25
102.0476	68
103.0549	207
104.0626	21
105.0706	12
115.0545	118
117.0577	114
118.065	21
123.0267	11
126.0484	12
127.0546	64
128.0628	183
130.0652	190
144.0813	10
