Mass spectrum: Thioridazine; LC-ESI-QTOF; MS2; 110 V
Name: Thioridazine
Class: Pharmaceutical
Formula: C21H26N2S2
Exact mass: 370.1537
SMILES: CN1CCCCC1CCN2C3=CC=CC=C3SC4=C2C=C(C=C4)SC
InChI: InChI=1S/C21H26N2S2/c1-22-13-6-5-7-16(22)12-14-23-18-8-3-4-9-20(18)25-21-11-10-17(24-2)15-19(21)23/h3-4,8-11,15-16H,5-7,12-14H2,1-2H3
Instrument: TripleTOF 5600 SCIEX
Instrument type: LC-ESI-QTOF
Ms type: MS2
Ion mode: POSITIVE
Collision energy: 110
Fragmentation mode: CID
Ionization: ESI
Column name: Zorbax Eclipse Plus C18 2.1 mm x 150 mm, 3.5 um, Agilent
Retention time: 9.472 min
Precursor m/z: 371.161
Precursor type: [M+H]+
m/z	relative intensity
42.0443	241
44.0575	36
55.0604	90
56.0541	14
56.0644	9
57.0622	17
58.0706	125
65.0431	12
67.0592	14
68.0526	145
68.9828	10
70.07	785
77.0419	17
82.0671	52
83.0744	31
84.0832	44
89.0409	12
96.0816	56
98.0984	842
113.0391	12
114.0455	13
115.0551	42
125.0398	21
126.0458	46
126.1273	25
127.056	27
128.0508	32
138.0464	21
139.0545	304
140.0506	157
150.0461	84
151.0543	203
152.0581	120
153.0575	119
154.0657	60
164.0503	27
165.057	19
165.0674	12
166.0654	429
167.0737	999
171.0255	29
176.0541	15
177.0558	84
178.0654	246
179.0729	69
180.0797	18
183.0252	41
184.0344	15
185.0295	15
186.0363	60
190.0656	12
191.0735	14
196.0207	25
197.0307	27
198.0377	56
199.0461	18
204.082	39
208.0231	24
209.0293	79
210.0373	95
211.0433	38
222.0358	10
242.0093	10
