Mass spectrum: Dimethenamid; LC-ESI-QTOF; MS2; 60 V
Name: Dimethenamid
Class: Herbicide
Formula: C12H18ClNO2S
Exact mass: 275.0747
SMILES: CC1=CSC(=C1N(C(C)COC)C(=O)CCl)C
InChI: InChI=1S/C12H18ClNO2S/c1-8-7-17-10(3)12(8)14(11(15)5-13)9(2)6-16-4/h7,9H,5-6H2,1-4H3
Instrument: TripleTOF 6600 SCIEX
Instrument type: LC-ESI-QTOF
Ms type: MS2
Ion mode: POSITIVE
Collision energy: 60
Fragmentation mode: CID
Ionization: ESI
Column name: Zorbax Eclipse Plus C18 2.1 mm x 150 mm, 3.5 um, Agilent
Retention time: 11.971 min
Precursor m/z: 276.082
Precursor type: [M+H]+
m/z	relative intensity
37.0086	18
39.0238	70
41.0395	92
42.0341	24
43.0191	15
43.0549	12
44.9802	76
45.0341	126
46.9693	18
48.9845	258
51.0234	33
53.0395	39
54.0356	12
55.0552	24
56.0503	21
57.9882	15
58.9954	89
59.9909	30
65.0389	132
66.0474	30
67.0421	15
67.0551	230
68.0496	18
68.9804	15
70.9957	76
73.0108	18
73.0651	24
75.9949	15
76.9786	55
77.0392	276
78.034	15
78.0473	150
79.055	104
80.0503	122
81.0579	30
82.065	67
82.9954	18
85.0113	61
90.048	18
91.0544	98
92.0498	49
93.0578	193
93.0705	39
94.0656	497
95.0497	15
95.0737	310
97.0108	187
98.0208	15
99.0275	122
101.0427	27
104.0498	110
105.0577	190
106.0658	67
107.075	49
108.0812	86
109.0118	64
110.0073	21
110.0186	43
111.0269	999
112.0215	33
112.0345	98
113.0297	55
113.0417	39
114.0376	24
115.0549	36
117.0583	92
117.0705	21
118.0658	122
119.0733	116
120.0435	18
120.081	184
121.0111	21
122.096	15
123.014	58
123.0271	43
124.022	187
125.0302	61
125.0419	135
126.0378	854
127.0222	18
127.0456	46
128.0531	95
132.0813	27
133.0882	15
134.0166	12
134.0963	110
135.0273	61
135.1043	49
136.023	162
137.0292	141
138.0007	61
138.0377	479
139.0455	27
140.0522	39
149.0302	33
150.0374	209
151.023	12
151.046	39
151.0571	18
152.0166	565
152.0522	233
153.0244	76
153.0614	79
154.0323	24
154.0686	18
159.0007	12
166.0315	30
166.0701	33
168.0841	67
