Mass spectrum: Nevirapine; LC-ESI-QTOF; MS2; 70 V
Name: Nevirapine
Class: Pharmaceutical
Formula: C15H14N4O
Exact mass: 266.1168
SMILES: Cc1ccnc2N(C3CC3)c4ncccc4C(=O)Nc12
InChI: InChI=1S/C15H14N4O/c1-9-6-8-17-14-12(9)18-15(20)11-3-2-7-16-13(11)19(14)10-4-5-10/h2-3,6-8,10H,4-5H2,1H3,(H,18,20)
Instrument: TripleTOF 5600 SCIEX
Instrument type: LC-ESI-QTOF
Ms type: MS2
Ion mode: POSITIVE
Collision energy: 70
Fragmentation mode: CID
Ionization: ESI
Column name: Zorbax Eclipse Plus C18 2.1 mm x 150 mm, 3.5 um, Agilent
Retention time: 7.301 min
Precursor m/z: 267.124
Precursor type: [M+H]+
m/z	relative intensity
52.0225	10
52.0366	53
54.0402	12
64.0332	12
65.0425	100
66.0377	89
67.0456	173
68.0542	33
75.0271	21
76.021	66
77.0285	14
77.0413	121
78.0371	847
78.0721	12
79.0444	268
80.0526	805
89.04	82
90.0347	105
90.0472	39
91.0428	37
91.0545	32
92.0383	160
92.0499	105
93.0463	418
94.0537	39
94.0656	10
95.0621	23
101.0397	60
102.0336	51
103.0296	148
103.0483	46
104.0495	203
105.0454	382
106.0288	10
106.0548	42
107.0608	191
108.0677	17
114.0338	58
115.0421	19
115.0525	14
116.0491	180
117.0449	343
118.0527	162
118.0791	10
119.0484	62
119.0607	35
120.055	82
121.0394	42
126.0359	17
127.0421	69
128.0489	126
128.0714	10
129.0448	151
130.0384	21
130.0588	119
131.0602	289
132.0557	19
132.0676	48
133.0395	17
133.0625	48
134.0715	53
139.0442	14
140.0493	60
141.0456	117
142.0531	157
143.0601	251
144.0588	134
145.0542	19
145.075	69
146.0699	62
147.0812	23
148.0492	19
152.0493	32
153.0448	85
154.0528	110
155.0604	466
156.0571	219
157.0632	191
158.0717	151
159.0563	42
160.0491	10
160.0863	19
161.0695	25
165.0447	16
166.0511	37
167.0565	75
168.0563	225
169.064	318
170.0716	959
171.0787	184
172.0876	42
179.0606	62
180.0556	162
181.0645	173
182.0703	625
183.0749	330
184.0526	16
184.0863	319
185.0598	73
187.0624	25
193.064	42
194.0717	67
195.0669	171
196.0521	25
196.08	167
197.0822	999
198.0662	334
198.0879	153
199.1006	23
205.0635	16
206.072	105
207.0738	130
208.0744	196
209.0576	16
209.0821	60
210.0652	119
210.1012	10
211.0711	25
212.0723	17
219.0779	17
220.0881	37
221.082	139
222.0655	12
222.0907	82
223.061	12
223.0979	51
224.0812	21
225.0769	110
226.084	30
227.0925	50
233.079	25
234.0653	19
234.09	12
235.0765	21
235.0963	19
236.0696	46
237.0778	41
247.0988	19
248.106	16
249.0826	10
251.0922	62
