Mass spectrum: Amisulbrom; LC-ESI-QTOF; MS2; 80 V
Name: Amisulbrom
Formula: C13H13BrFN5O4S2
Exact mass: 464.9576
SMILES: CC1=C(C2=C(N1S(=O)(=O)C3=NN(C=N3)S(=O)(=O)N(C)C)C=C(C=C2)F)Br
InChI: InChI=1S/C13H13BrFN5O4S2/c1-8-12(14)10-5-4-9(15)6-11(10)20(8)25(21,22)13-16-7-19(17-13)26(23,24)18(2)3/h4-7H,1-3H3
Instrument: TripleTOF 6600 SCIEX
Instrument type: LC-ESI-QTOF
Ms type: MS2
Ion mode: POSITIVE
Collision energy: 80
Fragmentation mode: CID
Ionization: ESI
Column name: Zorbax Eclipse Plus C18 2.1 mm x 150 mm, 3.5 um, Agilent
Retention time: 14.781 min
Precursor m/z: 465.9649
Precursor type: [M+H]+
m/z	relative intensity
44.0495	36
75.0219	15
101.0376	42
108.0099	20
120.0374	38
126.0351	14
128.0495	98
129.0453	21
133.0445	35
134.0378	11
146.0385	126
147.0473	215
148.0545	999
154.0393	11
160.0473	15
175.0639	12
186.0576	15
187.0687	17
188.0618	9
215.0698	10
225.9649	754
226.9728	85
