Mass spectrum: Ranitidine; LC-ESI-QTOF; MS2; 50 V
Name: Ranitidine
Class: Pharmaceutical
Formula: C13H22N4O3S
Exact mass: 314.1413
SMILES: CNC(=C[N+](=O)[O-])NCCSCC1=CC=C(O1)CN(C)C
InChI: InChI=1S/C13H22N4O3S/c1-14-13(9-17(18)19)15-6-7-21-10-12-5-4-11(20-12)8-16(2)3/h4-5,9,14-15H,6-8,10H2,1-3H3
Instrument: TripleTOF 5600 SCIEX
Instrument type: LC-ESI-QTOF
Ms type: MS2
Ion mode: POSITIVE
Collision energy: 50
Fragmentation mode: CID
Ionization: ESI
Column name: Zorbax Eclipse Plus C18 2.1 mm x 150 mm, 3.5 um, Agilent
Retention time: 4.832 min
Precursor m/z: 315.1485
Precursor type: [M+H]+
m/z	relative intensity
53.0446	13
55.0482	17
56.0551	42
68.0526	16
69.0608	10
71.0634	21
77.0417	15
79.056	13
80.0519	13
81.0361	485
82.0667	22
83.062	46
84.0694	70
86.0077	13
88.0225	25
91.055	15
94.0418	17
94.0666	51
95.0491	53
95.0723	13
96.069	11
97.0118	22
97.0771	397
98.0851	232
101.0302	26
102.0383	999
104.0502	15
106.0647	22
107.0493	197
108.0806	24
109.0705	26
110.0597	31
110.0964	72
115.032	24
117.0478	46
118.0319	16
118.0647	31
120.0807	22
121.0756	106
122.0587	15
122.0831	16
124.0762	59
125.0059	728
129.0475	54
130.0559	432
131.0625	18
132.0434	72
132.079	12
133.0518	84
134.0603	20
135.0258	12
135.092	134
137.107	15
138.0903	16
139.034	16
146.061	11
147.0673	22
147.091	21
148.0758	220
149.0712	56
150.0378	20
151.0203	26
153.0425	15
159.0447	16
163.0862	72
164.0951	16
165.1013	65
167.0644	36
176.0493	42
177.1021	117
178.0317	65
181.0799	39
191.1167	36
192.0483	49
223.0892	12
