Mass spectrum: Bis(2,4,4-trimethylpentyl)phosphinic acid; LC-ESI-QTOF; MS2; 60 V
Name: Bis(2,4,4-trimethylpentyl)phosphinic acid
Class: Industrial_process
Formula: C16H35O2P
Exact mass: 290.2375
SMILES: CC(CC(C)(C)C)CP(=O)(CC(C)CC(C)(C)C)O
InChI: InChI=1S/C16H35O2P/c1-13(9-15(3,4)5)11-19(17,18)12-14(2)10-16(6,7)8/h13-14H,9-12H2,1-8H3,(H,17,18)
Instrument: TripleTOF 6600 SCIEX
Instrument type: LC-ESI-QTOF
Ms type: MS2
Ion mode: POSITIVE
Collision energy: 60
Fragmentation mode: CID
Ionization: ESI
Column name: Zorbax Eclipse Plus C18 2.1 mm x 150 mm, 3.5 um, Agilent
Retention time: 14.45 min
Precursor m/z: 291.2448
Precursor type: [M+H]+
m/z	relative intensity
37.0067	13
38.0021	12
38.0144	19
39.0225	115
41.0384	377
43.0539	135
44.988	11
46.9675	99
48.9832	11
55.0536	144
57.0696	999
62.9989	226
64.9781	220
69.0693	202
71.0848	31
73.0196	45
76.0065	12
77.0143	83
78.9936	483
80.0017	236
81.0091	41
83.0847	12
85.0193	28
87.0354	94
89.0143	53
94.0172	395
97.0047	15
97.0994	19
101.0508	11
103.0297	44
105.046	56
107.0248	109
111.1175	10
117.0452	12
119.0614	33
121.0402	90
123.057	35
135.056	32
137.0712	18
145.0758	15
147.0919	10
159.0916	11
161.1091	12
163.0864	52
177.1037	20
179.1204	28
219.1484	10
235.182	19
291.2476	11
