Mass spectrum: Picolinafen; LC-ESI-QTOF; MS2; 80 V
Name: Picolinafen
Class: Herbicide
Formula: C19H12F4N2O2
Exact mass: 376.0835
SMILES: C1=CC(=CC(=C1)OC2=CC=CC(=N2)C(=O)NC3=CC=C(C=C3)F)C(F)(F)F
InChI: InChI=1S/C19H12F4N2O2/c20-13-7-9-14(10-8-13)24-18(26)16-5-2-6-17(25-16)27-15-4-1-3-12(11-15)19(21,22)23/h1-11H,(H,24,26)
Instrument: TripleTOF 6600 SCIEX
Instrument type: LC-ESI-QTOF
Ms type: MS2
Ion mode: POSITIVE
Collision energy: 80
Fragmentation mode: CID
Ionization: ESI
Column name: Zorbax Eclipse Plus C18 2.1 mm x 150 mm, 3.5 um, Agilent
Retention time: 15.501 min
Precursor m/z: 377.0908
Precursor type: [M+H]+
m/z	relative intensity
37.0068	20
38.0148	14
39.0219	155
74.0127	45
75.0026	20
75.0207	110
95.0274	256
99.0023	12
113.0369	13
114.0442	13
119.0083	11
123.0337	55
125.0176	129
133.0432	22
140.047	28
141.0538	17
143.0269	19
145.0236	999
163.0332	29
170.0377	28
173.0297	13
182.0341	20
183.0394	19
189.0365	13
190.0442	40
210.0539	11
238.0451	12
