Mass spectrum: Monomethyldiuron; LC-ESI-QTOF; MS2; 100 V
Name: Monomethyldiuron
Class: Herbicide; Transformation_product
Formula: C8H8Cl2N2O
Exact mass: 218.0014
SMILES: CNC(=O)Nc1ccc(Cl)c(Cl)c1
InChI: InChI=1S/C8H8Cl2N2O/c1-11-8(13)12-5-2-3-6(9)7(10)4-5/h2-4H,1H3,(H2,11,12,13)
Instrument: TripleTOF 5600 SCIEX
Instrument type: LC-ESI-QTOF
Ms type: MS2
Ion mode: POSITIVE
Collision energy: 100
Fragmentation mode: CID
Ionization: ESI
Column name: Zorbax Eclipse Plus C18 2.1 mm x 150 mm, 3.5 um, Agilent
Retention time: 9.821 min
Precursor m/z: 219.0086
Precursor type: [M+H]+
m/z	relative intensity
52.0287	40
58.0354	268
64.036	64
65.0432	999
66.0441	32
72.9878	276
73.0106	113
74.0188	576
75.0256	105
82.9484	48
83.9785	56
92.0529	121
98.9988	105
100.0068	64
100.0148	40
127.0176	97
