Mass spectrum: Ecgonine ethyl ester; LC-ESI-QTOF; MS2; 50 V
Name: Ecgonine ethyl ester
Formula: C11H19NO3
Exact mass: 213.1365
SMILES: CCOC(=O)C1C2CCC(N2C)CC1O
InChI: InChI=1S/C11H19NO3/c1-3-15-11(14)10-8-5-4-7(12(8)2)6-9(10)13/h7-10,13H,3-6H2,1-2H3
Instrument: TripleTOF 6600 SCIEX
Instrument type: LC-ESI-QTOF
Ms type: MS2
Ion mode: POSITIVE
Collision energy: 50
Fragmentation mode: CID
Ionization: ESI
Column name: Zorbax Eclipse Plus C18 2.1 mm x 150 mm, 3.5 um, Agilent
Retention time: 2.108 min
Precursor m/z: 214.1438
Precursor type: [M+H]+
m/z	relative intensity
39.0235	42
41.0394	84
42.0349	93
44.0507	33
55.0188	16
55.0554	33
56.0497	16
57.0585	25
65.0398	126
67.0429	152
67.055	177
68.05	203
69.0343	42
70.0661	16
71.0136	16
77.0392	67
79.055	33
80.0502	50
81.0588	33
81.0711	16
82.0658	999
83.0494	67
83.074	143
84.0816	42
91.0547	203
93.0336	25
93.0696	25
94.0659	211
96.0811	110
100.0765	59
107.0735	25
108.081	16
111.0458	33
119.0488	59
122.0977	33
124.1132	16
135.0686	16
140.0715	16
168.102	33
