Mass spectrum: 1,5-Naphthalenediamine; LC-ESI-QTOF; MS2; 50 V
Name: 1,5-Naphthalenediamine
Formula: C10H10N2
Exact mass: 158.0844
SMILES: C1=CC2=C(C=CC=C2N)C(=C1)N
InChI: InChI=1S/C10H10N2/c11-9-5-1-3-7-8(9)4-2-6-10(7)12/h1-6H,11-12H2
Instrument: TripleTOF X500R SCIEX
Instrument type: LC-ESI-QTOF
Ms type: MS2
Ion mode: POSITIVE
Collision energy: 50
Fragmentation mode: CID
Ionization: ESI
Column name: Zorbax Eclipse Plus C18 2.1 mm x 150 mm, 3.5 um, Agilent
Retention time: 2.752 min
Precursor m/z: 159.0917
Precursor type: [M+H]+
m/z	relative intensity
65.038	41
75.021	25
89.0381	109
91.0528	33
93.0554	16
98.0154	8
103.0539	75
113.0393	25
114.047	92
115.0543	999
116.0623	151
117.0568	67
126.0476	16
130.0658	319
131.0737	25
132.0638	8
140.0508	8
141.0557	50
142.0597	33
143.0736	109
157.0738	50
158.0869	58
