Mass spectrum: 2-N-methyl-lamotrigine; LC-ESI-QTOF; MS2; 80 V
Name: 2-N-methyl-lamotrigine
Class: Metabolite; Pharmaceutical
Formula: C10H9Cl2N5
Exact mass: 269.0235
SMILES: CN1N=C(C2=CC=CC(Cl)=C2Cl)C(N)=NC1=N
InChI: InChI=1S/C10H9Cl2N5/c1-17-10(14)15-9(13)8(16-17)5-3-2-4-6(11)7(5)12/h2-4H,1H3,(H3,13,14,15)
Instrument: TripleTOF 5600 SCIEX
Instrument type: LC-ESI-QTOF
Ms type: MS2
Ion mode: POSITIVE
Collision energy: 80
Fragmentation mode: CID
Ionization: ESI
Column name: Zorbax Eclipse Plus C18 2.1 mm x 150 mm, 3.5 um, Agilent
Retention time: 6.444 min
Precursor m/z: 270.0308
Precursor type: [M+H]+
m/z	relative intensity
57.0504	999
68.028	19
72.0575	26
72.9866	82
73.0081	24
74.0167	151
75.0262	53
77.04	24
82.0412	9
84.9857	14
87.0226	34
88.0189	26
88.0333	17
89.0408	24
90.0336	14
96.984	58
99.0097	58
100.018	387
102.0335	21
102.0433	14
103.053	12
104.049	17
108.9833	229
110.9982	36
111.0192	12
114.0331	263
115.0393	19
121.991	19
122.9989	553
123.9934	129
128.0517	12
129.0428	12
130.0647	17
132.9609	48
135.9943	151
137.0017	34
138.0103	58
144.9612	43
147.9939	12
149.002	29
150.0101	60
151.0029	12
156.9602	34
158.964	34
164.0007	73
165.0217	38
170.9649	26
171.9717	63
172.9699	17
183.9674	12
184.9763	31
185.9753	46
