Mass spectrum: Reactive Orange; LC-ESI-QTOF; MS2; 70 V
Name: Reactive Orange
Formula: C20H19N3O11S3
Exact mass: 573.0182
SMILES: CC(=O)NC1=CC2=C(C(=C(C=C2C=C1)S(=O)(=O)O)N=NC3=CC=C(C=C3)S(=O)(=O)CCOS(=O)(=O)O)O
InChI: InChI=1S/C20H19N3O11S3/c1-12(24)21-15-3-2-13-10-18(36(28,29)30)19(20(25)17(13)11-15)23-22-14-4-6-16(7-5-14)35(26,27)9-8-34-37(31,32)33/h2-7,10-11,25H,8-9H2,1H3,(H,21,24)(H,28,29,30)(H,31,32,33)
Instrument: TripleTOF 6600 SCIEX
Instrument type: LC-ESI-QTOF
Ms type: MS2
Ion mode: POSITIVE
Collision energy: 70
Fragmentation mode: CID
Ionization: ESI
Column name: Zorbax Eclipse Plus C18 2.1 mm x 150 mm, 3.5 um, Agilent
Retention time: 5.751 min
Precursor m/z: 574.0255
Precursor type: [M+H]+
m/z	relative intensity
53.0375	12
68.0127	12
74.9892	36
80.0486	62
81.0328	253
92.0489	43
93.0563	20
104.0496	25
108.0441	999
116.0485	11
129.0442	12
130.0514	89
131.0596	72
132.0436	30
142.0505	109
143.0593	29
156.0103	26
158.0477	31
159.0548	34
170.0471	815
171.0543	129
172.0381	24
204.0824	13
205.0758	31
206.0808	20
220.0837	43
221.0928	12
231.0781	11
232.0837	52
233.093	405
234.0767	35
244.0809	15
245.0939	24
248.0794	45
249.0894	58
260.0806	154
261.09	365
262.0761	31
302.0891	13
303.0994	95
325.0488	12
358.0858	37
