Mass spectrum: N,N`-bis(2-ethoxyethoxycarbonyl)-4-methyl-1,3-phenylenediamine; LC-ESI-QTOF; MS2; 40 V
Name: N,N`-bis(2-ethoxyethoxycarbonyl)-4-methyl-1,3-phenylenediamine
Formula: C17H26N2O6
Exact mass: 354.1791
SMILES: CCOCCOC(=O)NC1=CC(=C(C=C1)C)NC(=O)OCCOCC
InChI: InChI=1S/C17H26N2O6/c1-4-22-8-10-24-16(20)18-14-7-6-13(3)15(12-14)19-17(21)25-11-9-23-5-2/h6-7,12H,4-5,8-11H2,1-3H3,(H,18,20)(H,19,21)
Instrument: TripleTOF 5600 SCIEX
Instrument type: LC-ESI-QTOF
Ms type: MS2
Ion mode: POSITIVE
Collision energy: 40
Fragmentation mode: CID
Ionization: ESI
Column name: Zorbax Eclipse Plus C18 2.1 mm x 150 mm, 3.5 um, Agilent
Retention time: 9.91 min
Precursor m/z: 355.1864
Precursor type: [M+H]+
m/z	relative intensity
45.0478	231
73.0713	452
77.044	14
91.0791	202
92.0535	16
104.0519	24
106.0682	25
120.046	40
121.076	23
132.0459	79
147.0555	289
149.0713	39
160.0584	13
175.0503	260
175.0803	19
176.072	21
191.0803	16
193.0643	48
193.0969	88
219.0763	999
237.0868	82
263.1035	41
265.1171	32
309.1441	154
