Mass spectrum: Neburon; LC-ESI-QTOF; MS2; 70 V
Name: Neburon
Class: Herbicide
Formula: C12H16Cl2N2O
Exact mass: 274.064
InChI: InChI=1S/C12H16Cl2N2O/c1-3-4-7-16(2)12(17)15-9-5-6-10(13)11(14)8-9/h5-6,8H,3-4,7H2,1-2H3,(H,15,17)
Instrument: TripleTOF 5600 SCIEX
Instrument type: LC-ESI-QTOF
Ms type: CID
Ion mode: POSITIVE
Collision energy: 70
Ionization: ESI
Column name: Zorbax Eclipse Plus C18 2.1 mm x 150 mm, 3.5 um, Agilent
Retention time: 13.559 min
Precursor m/z: 275.0712
Precursor type: [M+H]+
m/z	relative intensity
57.0753	358
58.0336	358
65.0425	56
72.986	98
74.0205	98
82.9473	56
88.1129	28
90.0351	42
92.0501	70
96.9833	35
100.009	56
106.9469	56
108.9828	288
108.9982	35
123.9946	91
125.0022	492
127.0183	633
132.9597	999
132.9934	49
144.9597	77
152.9965	49
159.9704	161
172.9648	28
