Mass spectrum: Ranitidine; LC-ESI-QTOF; MS2; 80 V
Name: Ranitidine
Class: Pharmaceutical
Formula: C13H22N4O3S
Exact mass: 314.1413
SMILES: CNC(=C[N+](=O)[O-])NCCSCC1=CC=C(O1)CN(C)C
InChI: InChI=1S/C13H22N4O3S/c1-14-13(9-17(18)19)15-6-7-21-10-12-5-4-11(20-12)8-16(2)3/h4-5,9,14-15H,6-8,10H2,1-3H3
Instrument: TripleTOF 5600 SCIEX
Instrument type: LC-ESI-QTOF
Ms type: MS2
Ion mode: NEGATIVE
Collision energy: 80
Fragmentation mode: CID
Ionization: ESI
Column name: Zorbax Eclipse Plus C18 2.1 mm x 150 mm, 3.5 um, Agilent
Retention time: 4.832 min
Precursor m/z: 313.134
Precursor type: [M-H]-
m/z	relative intensity
40.022	83
42.0114	83
45.9971	832
46.013	83
55.0303	249
56.9834	83
60.0105	999
85.0048	166
85.0126	166
110.9914	499
111.9979	582
112.0235	83
116.0455	499
120.9544	83
124.9927	166
140.0186	249
