Mass spectrum: Benzophenone; LC-ESI-QTOF; MS2; 150 V
Name: Benzophenone
Class: Food_additive; Industrial_process; Personal_care_product
Formula: C13H10O
Exact mass: 182.0732
InChI: InChI=1S/C13H10O/c14-13(11-7-3-1-4-8-11)12-9-5-2-6-10-12/h1-10H
Instrument: TripleTOF 5600 SCIEX
Instrument type: LC-ESI-QTOF
Ms type: CID
Ion mode: POSITIVE
Collision energy: 150
Ionization: ESI
Column name: Zorbax Eclipse Plus C18 2.1 mm x 150 mm, 3.5 um, Agilent
Retention time: 12.61 min
Precursor m/z: 183.0804
Precursor type: [M+H]+
m/z	relative intensity
51.0282	999
74.0196	399
