Mass spectrum: Methadone; LC-ESI-QTOF; MS2; 140 V
Name: Methadone
Class: Pharmaceutical
Formula: C21H27NO
Exact mass: 309.2093
SMILES: CCC(=O)C(CC(C)N(C)C)(C1=CC=CC=C1)C2=CC=CC=C2
InChI: InChI=1S/C21H27NO/c1-5-20(23)21(16-17(2)22(3)4,18-12-8-6-9-13-18)19-14-10-7-11-15-19/h6-15,17H,5,16H2,1-4H3
Instrument: TripleTOF 6600 SCIEX
Instrument type: LC-ESI-QTOF
Ms type: MS2
Ion mode: POSITIVE
Collision energy: 140
Fragmentation mode: CID
Ionization: ESI
Column name: Zorbax Eclipse Plus C18 2.1 mm x 150 mm, 3.5 um, Agilent
Retention time: 8.79 min
Precursor m/z: 310.2166
Precursor type: [M+H]+
m/z	relative intensity
35.9982	10
37.0067	71
38.0029	13
38.0147	55
39.0225	268
41.038	23
42.0332	73
44.0489	18
49.0069	48
50.0146	407
51.0225	999
52.03	10
56.0492	18
59.9992	13
61.0061	54
62.0139	106
63.0217	188
65.0374	267
73.0055	16
74.0135	111
75.0218	68
76.0293	51
77.0377	408
78.0445	36
85.0056	22
86.0135	45
87.0213	55
89.0372	201
91.0526	99
98.0128	44
99.0214	16
101.0376	15
102.0453	89
110.0127	12
111.0218	9
113.0368	50
115.0527	287
122.013	13
125.0367	13
126.0452	92
127.0521	58
128.0596	77
137.0371	19
138.044	20
139.0528	144
149.0391	24
150.0451	195
151.0524	122
152.0603	83
161.0365	27
162.0444	65
163.0526	367
164.0602	105
165.0678	94
174.0453	50
175.053	38
176.061	116
186.0453	12
187.053	102
188.061	28
189.0686	60
198.0448	34
199.0529	45
200.0605	238
201.068	43
202.0775	35
211.0493	32
213.0685	88
215.0808	12
