Mass spectrum: Azathioprine; LC-ESI-QTOF; MS2; 80 V
Name: Azathioprine
Class: Pharmaceutical
Formula: C9H7N7O2S
Exact mass: 277.0382
SMILES: Cn1cnc(c1Sc2ncnc3nc[nH]c23)[N+]([O-])=O
InChI: InChI=1S/C9H7N7O2S/c1-15-4-14-7(16(17)18)9(15)19-8-5-6(11-2-10-5)12-3-13-8/h2-4H,1H3,(H,10,11,12,13)
Instrument: TripleTOF 5600 SCIEX
Instrument type: LC-ESI-QTOF
Ms type: MS2
Ion mode: POSITIVE
Collision energy: 80
Fragmentation mode: CID
Ionization: ESI
Column name: Zorbax Eclipse Plus C18 2.1 mm x 150 mm, 3.5 um, Agilent
Retention time: 5.367 min
Precursor m/z: 278.0455
Precursor type: [M+H]+
m/z	relative intensity
57.9793	296
65.0167	518
66.0236	407
67.0313	554
69.0111	148
69.0483	407
74.0088	592
77.0164	222
79.0308	148
81.0523	185
82.9882	185
92.024	444
92.0336	222
93.0339	888
94.041	259
106.0411	259
118.0384	296
119.0347	999
120.0419	518
125.0049	296
145.0492	259
