Mass spectrum: Fenoxycarb; LC-ESI-QTOF; MS2; 130 V
Name: Fenoxycarb
Class: Insecticide
Formula: C17H19NO4
Exact mass: 301.1314
SMILES: CCOC(=O)NCCOc1ccc(Oc2ccccc2)cc1
InChI: InChI=1S/C17H19NO4/c1-2-20-17(19)18-12-13-21-14-8-10-16(11-9-14)22-15-6-4-3-5-7-15/h3-11H,2,12-13H2,1H3,(H,18,19)
Instrument: TripleTOF 5600 SCIEX
Instrument type: LC-ESI-QTOF
Ms type: MS2
Ion mode: POSITIVE
Collision energy: 130
Fragmentation mode: CID
Ionization: ESI
Column name: Zorbax Eclipse Plus C18 2.1 mm x 150 mm, 3.5 um, Agilent
Retention time: 13.067 min
Precursor m/z: 302.1387
Precursor type: [M+H]+
m/z	relative intensity
41.0403	26
42.0448	346
43.0502	26
44.0597	999
45.0065	161
55.0242	15
65.0435	322
66.0506	40
70.0323	67
73.0103	14
74.0181	97
75.0265	67
76.0342	52
77.0418	558
78.0491	55
81.0368	97
86.0178	34
87.0249	52
88.0413	388
89.0407	360
91.056	254
94.042	42
98.0151	21
99.0233	13
101.04	16
102.047	127
103.0555	14
113.0389	62
114.0467	20
115.0546	346
126.046	70
127.0543	116
128.0619	177
137.0396	10
138.0463	20
139.0543	171
150.0452	37
151.0553	22
152.0618	19
163.0546	52
164.062	16
