Mass spectrum: Flubendazole; LC-ESI-QTOF; MS2; 90 V
Name: Flubendazole
Class: Pharmaceutical
Formula: C16H12FN3O3
Exact mass: 313.0863
SMILES: COC(=O)Nc1[nH]c2cc(ccc2n1)C(=O)c3ccc(F)cc3
InChI: InChI=1S/C16H12FN3O3/c1-23-16(22)20-15-18-12-7-4-10(8-13(12)19-15)14(21)9-2-5-11(17)6-3-9/h2-8H,1H3,(H2,18,19,20,22)
Instrument: TripleTOF 5600 SCIEX
Instrument type: LC-ESI-QTOF
Ms type: MS2
Ion mode: POSITIVE
Collision energy: 90
Fragmentation mode: CID
Ionization: ESI
Column name: Zorbax Eclipse Plus C18 2.1 mm x 150 mm, 3.5 um, Agilent
Retention time: 9.113 min
Precursor m/z: 314.0935
Precursor type: [M+H]+
m/z	relative intensity
69.0161	16
73.01	25
74.0187	275
75.027	721
76.0214	47
77.0289	132
78.036	41
95.0314	999
103.03	29
104.0375	155
105.0452	113
123.0304	104
125.0394	11
130.0402	46
131.0272	12
131.0476	55
132.0558	16
133.0444	19
145.0451	14
157.0457	40
158.0397	30
159.0423	40
182.04	10
184.0559	13
