Mass spectrum: Atrazine; LC-ESI-QTOF; MS2; 60 V
Name: Atrazine
Class: Herbicide
Formula: C8H14ClN5
Exact mass: 215.0938
SMILES: CCNc1nc(Cl)nc(NC(C)C)n1
InChI: InChI=1S/C8H14ClN5/c1-4-10-7-12-6(9)13-8(14-7)11-5(2)3/h5H,4H2,1-3H3,(H2,10,11,12,13,14)
Instrument: TripleTOF 5600 SCIEX
Instrument type: LC-ESI-QTOF
Ms type: MS2
Ion mode: POSITIVE
Collision energy: 60
Fragmentation mode: CID
Ionization: ESI
Column name: Zorbax Eclipse Plus C18 2.1 mm x 150 mm, 3.5 um, Agilent
Retention time: 10.312 min
Precursor m/z: 216.101
Precursor type: [M+H]+
m/z	relative intensity
43.0385	271
61.9843	469
68.0292	999
68.0664	16
71.0634	68
79.0084	181
96.0567	44
104.0013	345
110.0461	14
