Mass spectrum: 6`-Hydroxymethyl Simvastatin; LC-ESI-QTOF; MS2; 20 V
Name: 6`-Hydroxymethyl Simvastatin
Class: Metabolite; Pharmaceutical
Formula: C25H38O6
Exact mass: 434.2668
SMILES: CCC(C)(C)C(=O)OC1CC(C=C2C1C(C(C=C2)C)CCC3CC(CC(=O)O3)O)CO
InChI: InChI=1S/C25H38O6/c1-5-25(3,4)24(29)31-21-11-16(14-26)10-17-7-6-15(2)20(23(17)21)9-8-19-12-18(27)13-22(28)30-19/h6-7,10,15-16,18-21,23,26-27H,5,8-9,11-14H2,1-4H3
Instrument: TripleTOF 5600 SCIEX
Instrument type: LC-ESI-QTOF
Ms type: MS2
Ion mode: POSITIVE
Collision energy: 20
Fragmentation mode: CID
Ionization: ESI
Column name: Zorbax Eclipse Plus C18 2.1 mm x 150 mm, 3.5 um, Agilent
Retention time: 10.786 min
Precursor m/z: 435.2741
Precursor type: [M+H]+
m/z	relative intensity
97.0674	27
125.0637	54
131.0905	40
143.0709	47
155.0889	47
157.1034	67
159.1197	47
169.1023	108
171.1158	141
173.1335	40
181.1028	60
183.1136	33
189.1285	188
195.1139	60
197.1337	837
199.1449	141
209.0981	27
213.1687	33
215.1432	263
221.1304	121
223.1491	789
237.129	33
237.1702	40
239.1411	40
239.1769	54
241.1207	33
241.1579	377
247.1458	553
265.1603	668
283.1693	999
301.1797	776
319.1892	263
417.2654	27
435.2747	182
