Mass spectrum: Chlorotoluron; LC-ESI-QTOF; MS2; 90 V
Name: Chlorotoluron
Class: Herbicide
Formula: C10H13ClN2O
Exact mass: 212.0716
SMILES: CC1=C(C=C(C=C1)NC(=O)N(C)C)Cl
InChI: InChI=1S/C10H13ClN2O/c1-7-4-5-8(6-9(7)11)12-10(14)13(2)3/h4-6H,1-3H3,(H,12,14)
Instrument: TripleTOF 6600 SCIEX
Instrument type: LC-ESI-QTOF
Ms type: MS2
Ion mode: POSITIVE
Collision energy: 90
Fragmentation mode: CID
Ionization: ESI
Column name: Zorbax Eclipse Plus C18 2.1 mm x 150 mm, 3.5 um, Agilent
Retention time: 9.778 min
Precursor m/z: 213.0789
Precursor type: [M+H]+
m/z	relative intensity
30.0348	206
42.034	206
46.0656	378
48.9848	172
50.0154	516
51.0235	999
56.0135	930
61.0077	206
62.0152	447
63.0233	826
72.0442	895
72.9839	516
77.0381	792
78.0471	137
89.0389	551
99.001	206
