Mass spectrum: Fipronil; LC-ESI-QTOF; MS2; 50 V
Name: Fipronil
Class: Insecticide
Formula: C12H4Cl2F6N4OS
Exact mass: 435.9387
SMILES: C1=C(C=C(C(=C1Cl)N2C(=C(C(=N2)C#N)S(=O)C(F)(F)F)N)Cl)C(F)(F)F
InChI: InChI=1S/C12H4Cl2F6N4OS/c13-5-1-4(11(15,16)17)2-6(14)8(5)24-10(22)9(7(3-21)23-24)26(25)12(18,19)20/h1-2H,22H2
Instrument: TripleTOF 6600 SCIEX
Instrument type: LC-ESI-QTOF
Ms type: MS2
Ion mode: NEGATIVE
Collision energy: 50
Fragmentation mode: CID
Ionization: ESI
Column name: Zorbax Eclipse Plus C18 2.1 mm x 150 mm, 3.5 um, Agilent
Retention time: 13.577 min
Precursor m/z: 434.9314
Precursor type: [M-H]-
m/z	relative intensity
34.97	56
57.9753	25
77.014	11
113.014	24
143.0056	35
163.0113	111
182.0096	157
183.0184	999
212.9474	47
216.9778	23
217.9866	254
218.0091	42
223.9827	17
233.9784	29
243.9892	189
246.0151	16
249.9583	940
253.9858	92
267.988	196
271.9837	17
277.9527	541
280.9548	32
281.9917	297
287.9594	52
303.9581	11
317.9665	75
329.9577	17
