Mass spectrum: 6-Methylthioinosin; LC-ESI-QTOF; MS2; 120 V
Name: 6-Methylthioinosin
Class: Pharmaceutical
Formula: C11H14N4O4S
Exact mass: 298.0736
SMILES: CSc1ncnc2n(cnc12)C3OC(CO)C(O)C3O
InChI: InChI=1S/C11H14N4O4S/c1-20-10-6-9(12-3-13-10)15(4-14-6)11-8(18)7(17)5(2-16)19-11/h3-5,7-8,11,16-18H,2H2,1H3
Instrument: TripleTOF 5600 SCIEX
Instrument type: LC-ESI-QTOF
Ms type: MS2
Ion mode: POSITIVE
Collision energy: 120
Fragmentation mode: CID
Ionization: ESI
Column name: Zorbax Eclipse Plus C18 2.1 mm x 150 mm, 3.5 um, Agilent
Retention time: 5.666 min
Precursor m/z: 299.0809
Precursor type: [M+H]+
m/z	relative intensity
43.0342	72
54.0257	115
55.9753	57
57.0392	86
65.0173	912
66.0256	144
67.031	202
69.0387	72
69.9778	101
70.0451	130
70.9856	999
71.0172	188
77.0157	101
81.0342	173
81.9779	57
82.9841	434
92.0266	390
97.9944	390
119.0364	173
125.0038	347
