Mass spectrum: 2-Phenylbenzimidazole; LC-ESI-QTOF; MS2; 80 V
Name: 2-Phenylbenzimidazole
Class: Industrial_process
Formula: C13H10N2
Exact mass: 194.0844
SMILES: [nH]1c2ccccc2nc1c3ccccc3
InChI: InChI=1S/C13H10N2/c1-2-6-10(7-3-1)13-14-11-8-4-5-9-12(11)15-13/h1-9H,(H,14,15)
Instrument: TripleTOF 5600 SCIEX
Instrument type: LC-ESI-QTOF
Ms type: MS2
Ion mode: NEGATIVE
Collision energy: 80
Fragmentation mode: CID
Ionization: ESI
Column name: Zorbax Eclipse Plus C18 2.1 mm x 150 mm, 3.5 um, Agilent
Retention time: 5.903 min
Precursor m/z: 193.0771
Precursor type: [M-H]-
m/z	relative intensity
40.022	38
41.0181	192
50.0051	461
63.0122	192
65.015	115
73.0096	230
74.0026	76
87.0118	76
88.0198	499
89.0277	115
90.0345	192
115.0314	999
117.0452	422
141.0429	499
165.0481	153
189.0482	268
191.0645	230
192.0658	76
