Mass spectrum: Irbesartan; LC-ESI-QTOF; MS2; 150 V
Name: Irbesartan
Class: Pharmaceutical
Formula: C25H28N6O
Exact mass: 428.2325
SMILES: CCCCC1=NC2(CCCC2)C(=O)N1Cc3ccc(cc3)c4ccccc4c5n[nH]nn5
InChI: InChI=1S/C25H28N6O/c1-2-3-10-22-26-25(15-6-7-16-25)24(32)31(22)17-18-11-13-19(14-12-18)20-8-4-5-9-21(20)23-27-29-30-28-23/h4-5,8-9,11-14H,2-3,6-7,10,15-17H2,1H3,(H,27,28,29,30)
Instrument: TripleTOF 5600 SCIEX
Instrument type: LC-ESI-QTOF
Ms type: MS2
Ion mode: POSITIVE
Collision energy: 150
Fragmentation mode: CID
Ionization: ESI
Column name: Zorbax Eclipse Plus C18 2.1 mm x 150 mm, 3.5 um, Agilent
Retention time: 9.345 min
Precursor m/z: 429.2397
Precursor type: [M+H]+
m/z	relative intensity
51.029	84
65.0424	32
67.0579	25
74.0186	65
75.0258	118
76.0328	17
77.0414	255
78.0365	12
78.0495	18
80.0515	11
84.0828	11
86.0171	39
87.0252	88
88.0202	13
88.0316	26
89.0405	159
90.048	9
98.016	54
99.0238	80
100.0304	20
101.0391	75
102.0335	11
102.0467	71
111.0234	31
113.0391	181
114.0367	85
115.0545	216
116.0488	12
124.0314	13
125.0393	126
126.0468	247
127.0544	155
128.0495	21
128.0607	37
137.0388	141
138.0432	85
139.0546	285
140.0497	180
149.0387	83
150.0472	814
151.055	999
152.0615	595
153.0572	68
161.0381	68
162.0467	141
163.0546	613
164.0553	479
165.0446	10
165.0697	195
166.0672	15
175.0421	41
176.0535	117
177.0577	323
178.0657	236
179.0666	33
188.0499	169
189.0571	51
190.0644	125
191.0604	13
203.0595	19
204.0637	13
205.0762	58
