Mass spectrum: Meclofenamic acid; LC-ESI-QTOF; MS2; 100 V
Name: Meclofenamic acid
Class: Pharmaceutical
Formula: C14H11Cl2NO2
Exact mass: 295.0167
SMILES: Cc1ccc(c(c1Cl)Nc2ccccc2C(=O)O)Cl
InChI: InChI=1S/C14H11Cl2NO2/c1-8-6-7-10(15)13(12(8)16)17-11-5-3-2-4-9(11)14(18)19/h2-7,17H,1H3,(H,18,19)
Instrument: TripleTOF 5600 SCIEX
Instrument type: LC-ESI-QTOF
Ms type: MS2
Ion mode: POSITIVE
Collision energy: 100
Fragmentation mode: CID
Ionization: ESI
Column name: Zorbax Eclipse Plus C18 2.1 mm x 150 mm, 3.5 um, Agilent
Retention time: 13.705 min
Precursor m/z: 296.024
Precursor type: [M+H]+
m/z	relative intensity
51.0285	46
74.0166	32
75.0263	65
76.0305	21
76.048	15
77.0405	193
78.0542	19
87.0225	13
89.0389	26
98.0173	24
99.0223	47
100.0297	11
101.038	67
101.0567	13
102.033	26
102.0449	44
113.0378	30
114.0359	17
115.054	13
123.0218	13
125.0373	138
126.0455	157
127.0391	15
127.0524	109
128.0477	113
129.0532	11
130.0399	11
137.0397	24
138.0459	19
139.0523	21
140.0497	40
149.0357	53
150.0457	584
151.0531	999
152.0599	703
153.0565	118
154.0631	23
164.0469	44
175.0419	24
176.0466	72
177.0559	485
178.0636	818
179.0706	228
180.0787	36
213.0322	19
214.038	13
