Mass spectrum: 4-Hydroxy-1-(2-hydroxyethyl)-2,2,6,6-tetramethylpiperidine; LC-ESI-QTOF; MS2; 40 V
Name: 4-Hydroxy-1-(2-hydroxyethyl)-2,2,6,6-tetramethylpiperidine
Formula: C11H23NO2
Exact mass: 201.1729
SMILES: CC1(CC(CC(N1CCO)(C)C)O)C
InChI: InChI=1S/C11H23NO2/c1-10(2)7-9(14)8-11(3,4)12(10)5-6-13/h9,13-14H,5-8H2,1-4H3
Instrument: TripleTOF 6600 SCIEX
Instrument type: LC-ESI-QTOF
Ms type: MS2
Ion mode: POSITIVE
Collision energy: 40
Fragmentation mode: CID
Ionization: ESI
Column name: Zorbax Eclipse Plus C18 2.1 mm x 150 mm, 3.5 um, Agilent
Retention time: 2.162 min
Precursor m/z: 202.1802
Precursor type: [M+H]+
m/z	relative intensity
39.0222	19
41.0385	56
42.0336	22
44.0493	196
45.0329	50
55.0538	33
57.0696	140
58.0646	115
59.0481	42
62.0595	283
67.0532	42
79.0539	30
81.0692	98
83.0848	14
84.0802	463
85.0642	260
95.0847	16
102.0911	999
123.1148	11
