Mass spectrum: Chlormethiazole; LC-ESI-QTOF; MS2; 40 V
Name: Chlormethiazole
Class: Pharmaceutical
Formula: C6H8ClNS
Exact mass: 161.0066
SMILES: CC1=C(SC=N1)CCCl
InChI: InChI=1S/C6H8ClNS/c1-5-6(2-3-7)9-4-8-5/h4H,2-3H2,1H3
Instrument: TripleTOF 6600 SCIEX
Instrument type: LC-ESI-QTOF
Ms type: MS2
Ion mode: POSITIVE
Collision energy: 40
Fragmentation mode: CID
Ionization: ESI
Column name: Zorbax Eclipse Plus C18 2.1 mm x 150 mm, 3.5 um, Agilent
Retention time: 7.946 min
Precursor m/z: 162.0139
Precursor type: [M+H]+
m/z	relative intensity
39.0227	25
42.0337	43
44.9794	34
53.0388	15
55.0416	25
55.0537	19
58.9949	36
65.0385	85
68.049	16
70.9945	157
72.0029	58
80.0489	80
85.01	76
86.0176	35
97.01	16
98.0055	26
99.0254	50
112.0211	527
113.029	999
126.0366	280
162.013	104
