Mass spectrum: Tramadol-N-oxide; LC-ESI-QTOF; MS2; 40 V
Name: Tramadol-N-oxide
Class: Pharmaceutical; Transformation_product-Metabolite
Formula: C16H25NO3
Exact mass: 279.1834
SMILES: [O-][N+](C)(C)C[C@H]2CCCC[C@]2(O)c1cc(OC)ccc1
InChI: InChI=1S/C16H25NO3/c1-17(2,19)12-14-7-4-5-10-16(14,18)13-8-6-9-15(11-13)20-3/h6,8-9,11,14,18H,4-5,7,10,12H2,1-3H3/t14-,16+/m1/s1
Instrument: TripleTOF 5600 SCIEX
Instrument type: LC-ESI-QTOF
Ms type: MS2
Ion mode: POSITIVE
Collision energy: 40
Fragmentation mode: CID
Ionization: ESI
Column name: Zorbax Eclipse Plus C18 2.1 mm x 150 mm, 3.5 um, Agilent
Retention time: 6.334 min
Precursor m/z: 280.1907
Precursor type: [M+H]+
m/z	relative intensity
58.0714	389
62.0652	12
67.0583	25
70.0682	18
74.064	13
77.0419	200
79.0573	42
81.072	16
82.0676	39
83.0876	18
84.0836	40
91.0561	114
92.0275	61
93.0708	44
94.0663	23
95.0745	31
105.0701	13
107.0496	412
108.0806	32
109.0647	46
110.0966	156
115.0535	18
117.0706	11
121.0651	397
127.0538	11
128.0616	13
129.0692	29
131.0493	14
135.0444	999
135.0785	46
144.0572	87
145.0649	46
146.0718	17
147.0804	88
158.0729	51
159.0805	329
160.0879	59
171.0789	13
172.0886	22
173.0955	71
186.1026	18
201.1279	111
262.1818	32
