Mass spectrum: Indomethacin; LC-ESI-QTOF; MS2; 70 V
Name: Indomethacin
Class: Pharmaceutical
Formula: C19H16ClNO4
Exact mass: 357.0768
SMILES: COc1ccc2n(c(C)c(CC(O)=O)c2c1)C(=O)c3ccc(Cl)cc3
InChI: InChI=1S/C19H16ClNO4/c1-11-15(10-18(22)23)16-9-14(25-2)7-8-17(16)21(11)19(24)12-3-5-13(20)6-4-12/h3-9H,10H2,1-2H3,(H,22,23)
Instrument: TripleTOF 5600 SCIEX
Instrument type: LC-ESI-QTOF
Ms type: MS2
Ion mode: POSITIVE
Collision energy: 70
Fragmentation mode: CID
Ionization: ESI
Column name: Zorbax Eclipse Plus C18 2.1 mm x 150 mm, 3.5 um, Agilent
Retention time: 12.629 min
Precursor m/z: 358.0841
Precursor type: [M+H]+
m/z	relative intensity
74.0177	48
75.0261	174
84.9871	15
111.0003	999
131.0717	18
138.9956	692
