Mass spectrum: Enrofloxacin; LC-ESI-QTOF; MS2; 100 V
Name: Enrofloxacin
Class: Pharmaceutical; Antimicrobial
Formula: C19H22FN3O3
Exact mass: 359.1645
SMILES: CCN1CCN(CC1)c2cc3N(C=C(C(O)=O)C(=O)c3cc2F)C4CC4
InChI: InChI=1S/C19H22FN3O3/c1-2-21-5-7-22(8-6-21)17-10-16-13(9-15(17)20)18(24)14(19(25)26)11-23(16)12-3-4-12/h9-12H,2-8H2,1H3,(H,25,26)
Instrument: TripleTOF 5600 SCIEX
Instrument type: LC-ESI-QTOF
Ms type: MS2
Ion mode: POSITIVE
Collision energy: 100
Fragmentation mode: CID
Ionization: ESI
Column name: Zorbax Eclipse Plus C18 2.1 mm x 150 mm, 3.5 um, Agilent
Retention time: 5.696 min
Precursor m/z: 360.1718
Precursor type: [M+H]+
m/z	relative intensity
42.0439	595
53.0095	249
56.0548	134
56.0644	76
70.0702	230
75.0268	288
77.043	153
82.0105	76
83.0315	153
87.0258	115
89.0409	326
93.0152	134
94.0238	115
95.0285	115
96.0377	96
99.0233	230
100.0188	172
101.0393	326
102.0465	96
105.0144	134
106.0217	153
107.0289	845
108.0391	326
109.0473	153
114.0345	422
115.0407	76
115.0538	288
116.0495	268
117.055	96
120.0356	192
121.0362	153
122.0406	134
125.0406	115
126.0343	499
127.0538	268
128.0531	365
129.0575	172
130.0636	96
132.0235	999
133.038	806
134.04	922
135.0467	288
136.0182	76
139.0285	96
140.0504	345
141.0445	115
141.0707	76
142.0652	76
145.0432	230
146.0431	633
147.0456	345
148.0565	768
149.0564	134
152.0471	96
153.0434	76
154.0417	115
154.0655	422
155.0611	307
158.0401	326
159.0426	134
159.0583	153
160.022	134
160.0462	326
161.0252	115
161.0525	384
162.0343	172
163.0299	76
166.0671	96
167.068	172
172.0564	595
173.0569	288
174.0344	384
174.065	326
175.0699	153
180.0615	115
184.0571	96
185.0638	268
187.0284	153
187.0636	96
188.0158	268
199.0633	76
200.0557	96
201.0558	115
201.082	96
202.0311	76
203.0626	96
