Mass spectrum: Ethyltriphenylphosphonium; LC-ESI-QTOF; MS2; 40 V
Name: Ethyltriphenylphosphonium
Class: Industrial_process
Formula: [C20H20P]+
Exact mass: 291.1297
SMILES: CC[P+](C1=CC=CC=C1)(C2=CC=CC=C2)C3=CC=CC=C3
InChI: InChI=1S/C20H20P/c1-2-21(18-12-6-3-7-13-18,19-14-8-4-9-15-19)20-16-10-5-11-17-20/h3-17H,2H2,1H3/q+1
Instrument: TripleTOF 5600 SCIEX
Instrument type: LC-ESI-QTOF
Ms type: MS2
Ion mode: POSITIVE
Collision energy: 40
Fragmentation mode: CID
Ionization: ESI
Column name: Zorbax Eclipse Plus C18 2.1 mm x 150 mm, 3.5 um, Agilent
Retention time: 7.392 min
Precursor m/z: 291.1297
Precursor type: [M]+
m/z	relative intensity
107.003	151
108.0106	376
152.0616	62
183.0355	610
184.0428	176
185.052	264
261.0833	560
262.0914	508
263.0992	104
275.0987	214
291.1298	999
