Mass spectrum: Diazepam; LC-ESI-QTOF; MS2; 70 V
Name: Diazepam
Class: Pharmaceutical
Formula: C16H13ClN2O
Exact mass: 284.0716
SMILES: CN1C(=O)CN=C(C2=C1C=CC(=C2)Cl)C3=CC=CC=C3
InChI: InChI=1S/C16H13ClN2O/c1-19-14-8-7-12(17)9-13(14)16(18-10-15(19)20)11-5-3-2-4-6-11/h2-9H,10H2,1H3
Instrument: TripleTOF 6600 SCIEX
Instrument type: LC-ESI-QTOF
Ms type: MS2
Ion mode: POSITIVE
Collision energy: 70
Fragmentation mode: CID
Ionization: ESI
Column name: Zorbax Eclipse Plus C18 2.1 mm x 150 mm, 3.5 um, Agilent
Retention time: 11.181 min
Precursor m/z: 285.0789
Precursor type: [M+H]+
m/z	relative intensity
39.0225	26
51.0221	34
58.0291	21
61.0063	15
62.0145	24
63.0225	91
65.0377	138
72.9827	43
74.0148	24
75.0225	75
77.038	261
78.0449	16
79.0535	13
89.038	809
90.0459	352
91.0536	563
98.9988	189
100.0175	115
102.0327	50
103.0416	16
104.0487	131
110.999	109
112.0056	28
114.0104	16
114.0327	27
115.047	55
116.0484	225
117.0565	291
118.0644	299
119.0715	72
122.9992	103
124.0073	20
125.0145	249
126.0245	16
127.0452	26
128.0495	18
129.0439	25
130.0404	16
135.9941	92
137.0023	49
138.0098	158
139.0111	43
139.0534	33
140.025	37
140.047	15
142.0512	33
143.0599	254
144.0663	20
150.0103	50
150.046	28
151.0188	23
151.0533	159
152.0266	10
152.0613	202
153.0335	19
153.0698	67
154.0407	75
154.0634	15
162.0099	10
163.0057	290
163.0525	77
164.0006	122
164.0607	153
165.0695	999
166.0719	63
167.0765	65
176.0601	91
177.0219	16
177.0607	171
178.0656	205
179.0726	417
180.0804	239
189.0564	11
190.0649	141
191.0722	155
192.0808	303
193.0878	379
194.0951	80
199.0308	38
202.0622	12
203.0716	50
204.0798	194
205.0757	358
206.0834	489
207.091	51
213.0329	107
214.0411	47
219.0929	50
220.1001	18
221.107	34
226.0352	14
227.048	18
228.0572	11
239.0368	103
240.0457	132
241.053	154
