Mass spectrum: Sulcotrione; LC-ESI-QTOF; MS2; 110 V
Name: Sulcotrione
Class: Herbicide
Formula: C14H13ClO5S
Exact mass: 328.0172
SMILES: CS(=O)(=O)C1=CC(=C(C=C1)C(=O)C2C(=O)CCCC2=O)Cl
InChI: InChI=1S/C14H13ClO5S/c1-21(19,20)8-5-6-9(10(15)7-8)14(18)13-11(16)3-2-4-12(13)17/h5-7,13H,2-4H2,1H3
Instrument: TripleTOF 6600 SCIEX
Instrument type: LC-ESI-QTOF
Ms type: MS2
Ion mode: POSITIVE
Collision energy: 110
Fragmentation mode: CID
Ionization: ESI
Column name: Zorbax Eclipse Plus C18 2.1 mm x 150 mm, 3.5 um, Agilent
Retention time: 9.651 min
Precursor m/z: 329.0245
Precursor type: [M+H]+
m/z	relative intensity
39.0231	22
41.0025	196
51.0235	14
55.0183	44
61.0079	12
62.0144	12
63.0231	34
65.0382	14
66.0097	16
68.9977	999
72.9834	34
74.0162	46
75.0233	40
77.0017	34
77.0395	18
83.9759	16
86.015	14
87.023	48
89.0386	16
96.9861	14
98.0151	44
99.001	12
99.0238	54
102.0452	12
107.9764	50
115.0521	40
121.9912	12
127.0153	14
128.062	16
139.0546	20
