Mass spectrum: Trimethoprim; LC-ESI-QTOF; MS2; 30 V
Name: Trimethoprim
Class: Pharmaceutical
Formula: C14H18N4O3
Exact mass: 290.1379
SMILES: COC1=CC(=CC(=C1OC)OC)CC2=CN=C(N=C2N)N
InChI: InChI=1S/C14H18N4O3/c1-19-10-5-8(6-11(20-2)12(10)21-3)4-9-7-17-14(16)18-13(9)15/h5-7H,4H2,1-3H3,(H4,15,16,17,18)
Instrument: TripleTOF 5600 SCIEX
Instrument type: LC-ESI-QTOF
Ms type: MS2
Ion mode: POSITIVE
Collision energy: 30
Fragmentation mode: CID
Ionization: ESI
Column name: Zorbax Eclipse Plus C18 2.1 mm x 150 mm, 3.5 um, Agilent
Retention time: 5.112 min
Precursor m/z: 291.1452
Precursor type: [M+H]+
m/z	relative intensity
81.0447	16
110.0583	54
123.0667	275
181.0866	34
187.0986	16
201.1142	36
202.1202	28
229.109	91
230.1166	644
232.093	19
233.103	45
245.1023	54
246.1116	44
247.1186	79
257.1032	113
258.1114	132
259.0862	12
259.1199	13
260.1235	11
261.0985	550
275.1143	398
276.123	91
291.1457	999
