Mass spectrum: 5-Chloro-2-mercaptobenzoxazole; LC-ESI-QTOF; MS2; 80 V
Name: 5-Chloro-2-mercaptobenzoxazole
Class: Industrial_process
Formula: C7H4ClNOS
Exact mass: 184.9702
SMILES: Clc1ccc2OC(=S)Nc2c1
InChI: InChI=1S/C7H4ClNOS/c8-4-1-2-6-5(3-4)9-7(11)10-6/h1-3H,(H,9,11)
Instrument: TripleTOF 5600 SCIEX
Instrument type: LC-ESI-QTOF
Ms type: MS2
Ion mode: POSITIVE
Collision energy: 80
Fragmentation mode: CID
Ionization: ESI
Column name: Zorbax Eclipse Plus C18 2.1 mm x 150 mm, 3.5 um, Agilent
Retention time: 9.98 min
Precursor m/z: 185.9775
Precursor type: [M+H]+
m/z	relative intensity
72.9867	999
