Mass spectrum: 2,6-Dichlorodiphenylamine; LC-ESI-QTOF; MS2; 70 V
Name: 2,6-Dichlorodiphenylamine
Class: Pharmaceutical
Formula: C12H9Cl2N
Exact mass: 237.0112
SMILES: C1=CC=C(C=C1)NC2=C(C=CC=C2Cl)Cl
InChI: InChI=1S/C12H9Cl2N/c13-10-7-4-8-11(14)12(10)15-9-5-2-1-3-6-9/h1-8,15H
Instrument: TripleTOF 5600 SCIEX
Instrument type: LC-ESI-QTOF
Ms type: MS2
Ion mode: POSITIVE
Collision energy: 70
Fragmentation mode: CID
Ionization: ESI
Column name: Zorbax Eclipse Plus C18 2.1 mm x 150 mm, 3.5 um, Agilent
Retention time: 14.125 min
Precursor m/z: 238.0185
Precursor type: [M+H]+
m/z	relative intensity
66.0526	353
72.9894	373
77.0431	383
82.9475	100
89.0299	40
90.0372	716
91.0461	50
92.0526	151
93.0597	807
96.9856	100
97.9915	70
99.0013	302
106.9472	90
113.0406	60
115.0555	111
123.9958	50
125.0033	514
126.0125	161
132.961	373
133.9669	60
139.0548	423
140.0504	232
160.9805	555
166.0648	494
167.0721	999
