Mass spectrum: Fluazifop-P-butyl; LC-ESI-QTOF; MS2; 50 V
Name: Fluazifop-P-butyl
Class: Herbicide
Formula: C19H20F3NO4
Exact mass: 383.1344
SMILES: CCCCOC(=O)C(C)OC1=CC=C(C=C1)OC2=NC=C(C=C2)C(F)(F)F
InChI: InChI=1S/C19H20F3NO4/c1-3-4-11-25-18(24)13(2)26-15-6-8-16(9-7-15)27-17-10-5-14(12-23-17)19(20,21)22/h5-10,12-13H,3-4,11H2,1-2H3
Instrument: TripleTOF 6600 SCIEX
Instrument type: LC-ESI-QTOF
Ms type: MS2
Ion mode: POSITIVE
Collision energy: 50
Fragmentation mode: CID
Ionization: ESI
Column name: Zorbax Eclipse Plus C18 2.1 mm x 150 mm, 3.5 um, Agilent
Retention time: 15.933 min
Precursor m/z: 384.1417
Precursor type: [M+H]+
m/z	relative intensity
39.0231	16
41.0387	29
57.0696	17
65.0382	76
91.0538	650
93.0328	26
119.0484	64
121.0275	21
141.0565	35
146.0199	55
147.0282	68
158.0589	13
164.0304	55
167.0722	13
169.051	11
185.0425	12
186.0507	18
190.045	25
198.0502	41
210.051	16
211.0587	26
212.068	13
213.0774	20
216.0607	10
218.0399	68
226.0466	22
226.0814	33
227.0542	287
235.0593	16
236.0673	32
238.0466	999
239.0537	14
240.0632	11
254.0509	735
255.049	70
256.0569	125
264.0628	19
282.0726	195
