Mass spectrum: Hydroxychloroquine; LC-ESI-QTOF; MS2; 50 V
Name: Hydroxychloroquine
Class: Pharmaceutical
Formula: C18H26ClN3O
Exact mass: 335.1764
SMILES: CCN(CCCC(C)NC1=C2C=CC(=CC2=NC=C1)Cl)CCO
InChI: InChI=1S/C18H26ClN3O/c1-3-22(11-12-23)10-4-5-14(2)21-17-8-9-20-18-13-15(19)6-7-16(17)18/h6-9,13-14,23H,3-5,10-12H2,1-2H3,(H,20,21)
Instrument: TripleTOF 5600 SCIEX
Instrument type: LC-ESI-QTOF
Ms type: MS2
Ion mode: POSITIVE
Collision energy: 50
Fragmentation mode: CID
Ionization: ESI
Column name: Zorbax Eclipse Plus C18 2.1 mm x 150 mm, 3.5 um, Agilent
Retention time: 4.747 min
Precursor m/z: 336.1837
Precursor type: [M+H]+
m/z	relative intensity
39.0225	18
41.0375	37
44.0481	18
69.07	75
69.0772	18
70.0666	18
72.0788	56
84.0785	37
90.0895	37
98.0958	37
102.0905	452
128.0498	18
144.0724	75
155.0581	94
156.0695	131
158.1541	75
163.0155	56
164.0233	94
177.0279	56
178.0302	18
178.0434	37
179.0381	961
191.0345	678
192.0368	37
205.0351	18
205.0538	282
247.0995	999
