Mass spectrum: 10-Hydroxycarbamazepine; LC-ESI-QTOF; MS2; 40 V
Name: 10-Hydroxycarbamazepine
Class: Metabolite; Pharmaceutical; Transformation_product; Transformation_product-Metabolite
Formula: C15H14N2O2
Exact mass: 254.1055
SMILES: NC(N1c2c(CC(c3c1cccc3)O)cccc2)=O
InChI: InChI=1S/C15H14N2O2/c16-15(19)17-12-7-3-1-5-10(12)9-14(18)11-6-2-4-8-13(11)17/h1-8,14,18H,9H2,(H2,16,19)
Instrument: TripleTOF 5600 SCIEX
Instrument type: LC-ESI-QTOF
Ms type: MS2
Ion mode: POSITIVE
Collision energy: 40
Fragmentation mode: CID
Ionization: ESI
Column name: Zorbax Eclipse Plus C18 2.1 mm x 150 mm, 3.5 um, Agilent
Retention time: 7.19 min
Precursor m/z: 237.1021
Precursor type: [M-H2O+H]+
m/z	relative intensity
116.0517	13
151.0547	23
152.0616	60
164.0622	16
165.0704	166
166.0709	23
167.0741	72
176.0615	23
177.0702	23
178.0663	77
179.0732	257
190.0654	59
191.0732	143
192.0809	514
193.0894	439
194.0969	999
237.103	33
