Mass spectrum: Venlafaxine; LC-ESI-QTOF; MS2; 140 V
Name: Venlafaxine
Class: Pharmaceutical
Formula: C17H27NO2
Exact mass: 277.2042
SMILES: CN(C)CC(c1ccc(cc1)OC)C2(CCCCC2)O
InChI: InChI=1S/C17H27NO2/c1-18(2)13-16(17(19)11-5-4-6-12-17)14-7-9-15(20-3)10-8-14/h7-10,16,19H,4-6,11-13H2,1-3H3
Instrument: TripleTOF 5600 SCIEX
Instrument type: LC-ESI-QTOF
Ms type: MS2
Ion mode: POSITIVE
Collision energy: 140
Fragmentation mode: CID
Ionization: ESI
Column name: Zorbax Eclipse Plus C18 2.1 mm x 150 mm, 3.5 um, Agilent
Retention time: 6.626 min
Precursor m/z: 278.2115
Precursor type: [M+H]+
m/z	relative intensity
42.0428	507
58.0707	999
65.0421	393
74.0192	49
76.0358	40
77.0414	532
78.049	589
79.0565	40
89.0397	122
91.0566	106
102.0506	73
103.0543	32
115.0547	139
128.0639	57
