Mass spectrum: Loratadine; LC-ESI-QTOF; MS2; 40 V
Name: Loratadine
Class: Pharmaceutical
Formula: C22H23ClN2O2
Exact mass: 382.1448
SMILES: CCOC(=O)N1CCC(=C2C3=C(CCC4=C2N=CC=C4)C=C(C=C3)Cl)CC1
InChI: InChI=1S/C22H23ClN2O2/c1-2-27-22(26)25-12-9-15(10-13-25)20-19-8-7-18(23)14-17(19)6-5-16-4-3-11-24-21(16)20/h3-4,7-8,11,14H,2,5-6,9-10,12-13H2,1H3
Instrument: TripleTOF 6600 SCIEX
Instrument type: LC-ESI-QTOF
Ms type: MS2
Ion mode: POSITIVE
Collision energy: 40
Fragmentation mode: CID
Ionization: ESI
Column name: Zorbax Eclipse Plus C18 2.1 mm x 150 mm, 3.5 um, Agilent
Retention time: 9.41 min
Precursor m/z: 383.1521
Precursor type: [M+H]+
m/z	relative intensity
214.0406	15
228.0575	34
229.0646	32
231.1043	11
232.1129	11
243.1034	15
244.1116	14
245.1192	13
246.1273	27
247.1359	12
248.0942	13
252.056	18
253.0643	42
257.1186	10
258.1275	106
259.1357	371
266.0728	132
267.0809	634
268.0876	22
270.0546	25
278.0733	13
279.081	113
280.0885	134
281.0968	304
282.1041	141
283.0629	22
292.0886	56
294.1043	278
302.1416	50
311.1302	16
322.0861	45
337.1109	999
339.1619	50
355.1199	10
383.1514	111
