Mass spectrum: 2-Dimethylaminoguanosine; LC-ESI-QTOF; MS2; 80 V
Name: 2-Dimethylaminoguanosine
Class: Pharmaceutical
Formula: C12H17N5O5
Exact mass: 311.123
SMILES: CN(C)C1=NC(=O)c2ncn([C@@H]3O[C@H](CO)[C@@H](O)[C@H]3O)c2N1
InChI: InChI=1S/C12H17N5O5/c1-16(2)12-14-9-6(10(21)15-12)13-4-17(9)11-8(20)7(19)5(3-18)22-11/h4-5,7-8,11,18-20H,3H2,1-2H3,(H,14,15,21)/t5-,7-,8-,11-/m1/s1
Instrument: TripleTOF 5600 SCIEX
Instrument type: LC-ESI-QTOF
Ms type: MS2
Ion mode: POSITIVE
Collision energy: 80
Fragmentation mode: CID
Ionization: ESI
Column name: Zorbax Eclipse Plus C18 2.1 mm x 150 mm, 3.5 um, Agilent
Retention time: 4.565 min
Precursor m/z: 312.1302
Precursor type: [M+H]+
m/z	relative intensity
55.0325	183
71.0161	50
71.063	234
80.0274	61
82.0416	305
83.0246	40
107.0347	101
108.0414	152
110.0337	999
119.034	50
120.0421	81
122.0572	316
135.029	856
136.0372	71
137.0442	61
137.0797	81
147.0531	132
148.0385	50
162.0739	50
163.0603	91
165.0676	91
180.0853	203
