Mass spectrum: Amlodipine; LC-ESI-QTOF; MS2; 100 V
Name: Amlodipine
Class: Pharmaceutical
Formula: C20H25ClN2O5
Exact mass: 408.1452
SMILES: CCOC(=O)C1=C(COCCN)NC(=C(C1c2ccccc2Cl)C(=O)OC)C
InChI: InChI=1S/C20H25ClN2O5/c1-4-28-20(25)18-15(11-27-10-9-22)23-12(2)16(19(24)26-3)17(18)13-7-5-6-8-14(13)21/h5-8,17,23H,4,9-11,22H2,1-3H3
Instrument: TripleTOF 5600 SCIEX
Instrument type: LC-ESI-QTOF
Ms type: MS2
Ion mode: POSITIVE
Collision energy: 100
Fragmentation mode: CID
Ionization: ESI
Column name: Zorbax Eclipse Plus C18 2.1 mm x 150 mm, 3.5 um, Agilent
Retention time: 8.432 min
Precursor m/z: 409.1525
Precursor type: [M+H]+
m/z	relative intensity
42.0418	83
44.0572	255
65.043	147
67.0215	31
70.033	15
72.0484	43
74.0171	63
74.0635	15
75.0258	367
75.0531	19
77.0407	219
78.0368	15
78.0474	19
80.0528	39
88.0335	47
89.0387	107
90.0456	27
91.0422	19
91.0547	47
92.0508	163
93.0339	15
93.0584	27
94.0648	35
99.0001	39
99.0229	23
101.0389	695
101.0649	19
102.0466	791
102.0701	15
103.0529	31
104.0506	27
110.9995	127
113.0372	119
114.0456	459
115.054	999
116.0488	43
116.0619	223
117.0556	23
120.0433	235
122.058	27
122.9996	19
125.0147	91
125.0375	19
126.0455	195
127.0539	371
128.0606	691
129.0436	123
129.0574	15
129.0687	67
130.0658	27
130.0766	19
136.0396	59
137.015	235
137.0358	23
138.011	19
138.0453	59
138.9947	59
139.0536	383
140.0265	27
140.0525	307
141.069	271
142.0427	35
142.0646	211
143.047	19
143.0719	311
148.038	135
149.0145	983
150.0498	83
151.0235	27
151.0539	359
152.0614	843
153.0684	319
154.0635	315
155.0285	23
155.0479	47
155.0703	35
156.0492	43
156.08	59
161.015	47
162.022	35
163.0534	19
164.0264	35
164.059	35
165.0087	23
165.0692	67
166.0643	239
167.0724	459
168.0566	35
168.0793	219
168.1204	23
169.0643	31
169.0863	35
170.0607	27
170.0959	15
173.0117	63
174.0112	19
175.0286	51
176.0351	55
177.0332	19
177.059	47
178.0451	19
178.0649	243
179.0712	147
180.0589	27
180.0798	455
181.0624	47
181.0858	111
182.0584	55
182.0902	27
183.0645	31
184.0755	19
187.0314	23
188.0249	23
189.011	23
190.0405	15
190.0688	27
193.0845	27
194.061	55
194.0945	31
195.0677	51
195.0946	31
196.0744	263
197.0817	31
198.0911	19
201.0321	15
202.0396	55
203.0483	39
204.0544	55
206.058	23
208.0745	43
209.0834	19
214.0394	63
215.0246	23
224.0711	71
225.0746	27
229.0454	15
230.0353	27
232.0528	39
