Mass spectrum: Betamethasone; LC-ESI-QTOF; MS2; 80 V
Name: Betamethasone
Class: Pharmaceutical
Formula: C22H29FO5
Exact mass: 392.1999
SMILES: C[C@H]1C[C@H]2[C@@H]3CCC4=CC(=O)C=C[C@@]4([C@]3([C@H](C[C@@]2([C@]1(C(=O)CO)O)C)O)F)C
InChI: InChI=1S/C22H29FO5/c1-12-8-16-15-5-4-13-9-14(25)6-7-19(13,2)21(15,23)17(26)10-20(16,3)22(12,28)18(27)11-24/h6-7,9,12,15-17,24,26,28H,4-5,8,10-11H2,1-3H3/t12-,15-,16-,17-,19-,20-,21-,22-/m0/s1
Instrument: TripleTOF 5600 SCIEX
Instrument type: LC-ESI-QTOF
Ms type: MS2
Ion mode: POSITIVE
Collision energy: 80
Fragmentation mode: CID
Ionization: ESI
Column name: Zorbax Eclipse Plus C18 2.1 mm x 150 mm, 3.5 um, Agilent
Retention time: 9.016 min
Precursor m/z: 393.2072
Precursor type: [M+H]+
m/z	relative intensity
43.0275	62
51.0332	12
55.0229	12
65.0454	65
67.0616	109
69.0387	18
77.0427	487
78.0507	31
79.0581	231
81.0742	40
83.0563	12
89.042	12
91.0569	999
93.0717	124
95.0483	15
95.0884	49
103.0548	165
104.0628	53
105.0714	399
107.0496	99
107.087	65
109.0437	15
109.0648	18
109.1032	21
111.0849	12
115.0551	565
116.0628	127
117.07	227
119.0507	18
119.0858	199
121.0663	536
121.1018	18
123.082	28
127.0551	231
128.0626	739
129.0695	321
130.0782	71
131.0502	162
131.0861	99
132.057	255
133.0633	34
133.1013	28
135.0802	46
137.063	12
139.0564	28
140.0625	15
141.0698	343
142.0785	140
143.0859	112
144.0563	177
145.064	196
145.1023	18
146.052	15
146.0715	65
147.0621	15
147.0807	212
149.0957	15
151.0573	28
152.0631	193
153.0708	224
154.0768	59
155.0491	37
155.0847	93
156.0564	37
156.0925	31
157.0645	137
157.1037	24
158.0734	221
159.0804	71
161.0927	40
165.0698	462
166.0786	115
167.0856	124
168.0594	49
168.0938	18
169.0652	93
169.1002	31
170.0727	46
171.0808	143
172.0802	12
172.0913	12
173.0942	34
176.0654	37
177.0689	78
178.0777	402
179.084	396
180.0908	62
181.0645	309
181.102	40
182.0717	103
183.0829	59
184.09	34
185.0966	37
189.0683	284
190.0785	174
191.0838	255
192.0927	106
193.1007	109
194.0724	118
194.1092	31
195.079	234
195.1193	18
196.0875	84
197.0966	49
201.073	40
202.0754	171
203.0845	255
204.0916	78
205.0648	90
205.1012	143
206.0737	46
206.1081	43
207.0784	212
207.1176	24
208.0884	87
209.0943	96
210.1073	18
211.1115	21
213.0621	24
214.0787	21
215.0845	343
216.0933	81
217.1001	103
218.0699	90
218.1095	37
219.0786	152
219.1161	34
220.0871	49
220.122	24
221.0935	124
221.1285	24
222.1011	56
223.1075	43
226.0677	18
227.0733	15
227.0898	56
228.0926	115
229.1004	156
230.1091	53
231.0825	202
231.1125	31
232.0864	140
233.0952	146
234.1021	46
235.1113	65
237.1266	21
239.0853	40
241.0954	24
242.1044	21
243.1154	46
244.0869	49
245.0944	90
246.0978	59
247.1111	87
248.1107	34
248.1242	28
249.0848	21
249.1215	21
252.0967	15
255.0822	40
256.0872	24
257.095	28
258.0951	21
259.1064	40
261.127	40
270.1045	21
271.1058	12
272.1069	18
274.0948	15
