Mass spectrum: Clodinafop-Propargyl; LC-ESI-QTOF; MS2; 110 V
Name: Clodinafop-Propargyl
Class: Herbicide
Formula: C17H13ClFNO4
Exact mass: 349.0517
SMILES: CC(C(=O)OCC#C)OC1=CC=C(C=C1)OC2=C(C=C(C=N2)Cl)F
InChI: InChI=1S/C17H13ClFNO4/c1-3-8-22-17(21)11(2)23-13-4-6-14(7-5-13)24-16-15(19)9-12(18)10-20-16/h1,4-7,9-11H,8H2,2H3
Instrument: TripleTOF 6600 SCIEX
Instrument type: LC-ESI-QTOF
Ms type: MS2
Ion mode: POSITIVE
Collision energy: 110
Fragmentation mode: CID
Ionization: ESI
Column name: Zorbax Eclipse Plus C18 2.1 mm x 150 mm, 3.5 um, Agilent
Retention time: 13.951 min
Precursor m/z: 350.059
Precursor type: [M+H]+
m/z	relative intensity
37.0059	124
39.0217	349
50.0135	399
51.0212	524
57.0121	224
61.005	124
62.0127	274
63.0212	999
64.0293	174
65.0371	724
69.0112	149
74.0131	549
75.0089	599
75.0209	724
76.016	174
76.0288	124
77.0366	674
81.0124	124
81.0321	99
90.9723	124
91.0525	324
94.0067	124
96.0225	199
101.0357	249
105.0117	99
106.0192	249
107.0272	124
108.0204	149
109.977	674
113.0364	99
128.0471	124
129.0424	99
129.984	199
131.027	624
132.0345	249
133.0295	124
139.0406	199
158.0385	524
