Mass spectrum: Methacetin; LC-ESI-QTOF; MS2; 100 V
Name: Methacetin
Class: Pharmaceutical
Formula: C9H11NO2
Exact mass: 165.079
SMILES: COc1ccc(NC(C)=O)cc1
InChI: InChI=1S/C9H11NO2/c1-7(11)10-8-3-5-9(12-2)6-4-8/h3-6H,1-2H3,(H,10,11)
Instrument: TripleTOF 5600 SCIEX
Instrument type: LC-ESI-QTOF
Ms type: MS2
Ion mode: POSITIVE
Collision energy: 100
Fragmentation mode: CID
Ionization: ESI
Column name: Zorbax Eclipse Plus C18 2.1 mm x 150 mm, 3.5 um, Agilent
Retention time: 6.508 min
Precursor m/z: 166.0863
Precursor type: [M+H]+
m/z	relative intensity
41.0387	77
42.0443	110
43.0293	999
44.0229	49
52.0265	229
53.0092	22
54.0415	304
60.0054	33
62.0407	34
64.0362	140
65.0438	593
66.0509	247
67.0456	24
74.0191	55
76.0217	23
77.0418	81
78.0374	93
80.053	934
92.0511	100
93.0591	48
