Mass spectrum: Clomazone; LC-ESI-QTOF; MS2; 120 V
Name: Clomazone
Class: Herbicide
Formula: C12H14ClNO2
Exact mass: 239.0713
SMILES: CC1(CON(C1=O)CC2=CC=CC=C2Cl)C
InChI: InChI=1S/C12H14ClNO2/c1-12(2)8-16-14(11(12)15)7-9-5-3-4-6-10(9)13/h3-6H,7-8H2,1-2H3
Instrument: TripleTOF 6600 SCIEX
Instrument type: LC-ESI-QTOF
Ms type: MS2
Ion mode: POSITIVE
Collision energy: 120
Fragmentation mode: CID
Ionization: ESI
Column name: Zorbax Eclipse Plus C18 2.1 mm x 150 mm, 3.5 um, Agilent
Retention time: 11.289 min
Precursor m/z: 240.0786
Precursor type: [M+H]+
m/z	relative intensity
35.9982	43
37.0054	212
38.0135	221
39.0211	378
46.9663	120
48.9819	151
49.0056	18
50.013	98
51.021	49
59.9972	84
61.0047	417
62.013	704
63.0207	999
64.0288	54
65.0356	25
72.9817	647
73.0047	16
74.0126	104
74.9981	12
75.02	42
85.0034	10
86.0128	10
89.0358	638
90.0429	18
96.98	25
98.9974	47
