Mass spectrum: Benalaxyl; LC-ESI-QTOF; MS2; 90 V
Name: Benalaxyl
Class: Fungicide
Formula: C20H23NO3
Exact mass: 325.1678
SMILES: CC1=C(C(=CC=C1)C)N(C(C)C(=O)OC)C(=O)CC2=CC=CC=C2
InChI: InChI=1S/C20H23NO3/c1-14-9-8-10-15(2)19(14)21(16(3)20(23)24-4)18(22)13-17-11-6-5-7-12-17/h5-12,16H,13H2,1-4H3
Instrument: TripleTOF 6600 SCIEX
Instrument type: LC-ESI-QTOF
Ms type: MS2
Ion mode: POSITIVE
Collision energy: 90
Fragmentation mode: CID
Ionization: ESI
Column name: Zorbax Eclipse Plus C18 2.1 mm x 150 mm, 3.5 um, Agilent
Retention time: 13.881 min
Precursor m/z: 326.1751
Precursor type: [M+H]+
m/z	relative intensity
37.0062	11
39.0226	83
41.0383	24
51.0225	38
63.022	31
65.0381	480
77.038	338
78.0456	28
79.0533	189
80.0479	9
91.0535	999
93.0683	12
103.0533	122
105.0691	79
106.0643	417
107.0728	13
115.0527	14
117.0564	24
118.0645	72
120.0798	237
121.0868	31
132.0795	62
133.0876	24
148.1105	10
180.0797	13
