Mass spectrum: Ethyl-2-cyano-3.3-diphenylacrylate; LC-ESI-QTOF; MS2; 140 V
Name: Ethyl-2-cyano-3.3-diphenylacrylate
Class: Industrial_process; Personal_care_product
Formula: C18H15NO2
Exact mass: 277.1103
SMILES: CCOC(=O)C(=C(C1=CC=CC=C1)C2=CC=CC=C2)C#N
InChI: InChI=1S/C18H15NO2/c1-2-21-18(20)16(13-19)17(14-9-5-3-6-10-14)15-11-7-4-8-12-15/h3-12H,2H2,1H3
Instrument: TripleTOF 5600 SCIEX
Instrument type: LC-ESI-QTOF
Ms type: MS2
Ion mode: POSITIVE
Collision energy: 140
Fragmentation mode: CID
Ionization: ESI
Column name: Zorbax Eclipse Plus C18 2.1 mm x 150 mm, 3.5 um, Agilent
Retention time: 13.596 min
Precursor m/z: 278.1176
Precursor type: [M+H]+
m/z	relative intensity
73.0121	85
74.0199	938
75.0284	389
76.0352	243
77.044	560
78.0511	60
85.0096	73
86.0175	134
87.0261	170
89.0427	60
97.0111	85
98.0176	999
99.0238	207
100.0317	121
102.0478	158
109.0093	60
110.0161	268
111.0255	170
122.0157	377
123.0244	182
124.031	121
125.0391	121
126.0492	134
127.0439	60
134.0149	109
149.0354	207
150.0458	828
151.0547	134
174.0448	365
175.0528	48
176.0623	121
