Mass spectrum: Torasemide; LC-ESI-QTOF; MS2; 90 V
Name: Torasemide
Class: Pharmaceutical
Formula: C16H20N4O3S
Exact mass: 348.1256
SMILES: CC(C)NC(=O)N[S](=O)(=O)c1cnccc1Nc2cccc(C)c2
InChI: InChI=1S/C16H20N4O3S/c1-11(2)18-16(21)20-24(22,23)15-10-17-8-7-14(15)19-13-6-4-5-12(3)9-13/h4-11H,1-3H3,(H,17,19)(H2,18,20,21)
Instrument: TripleTOF 5600 SCIEX
Instrument type: LC-ESI-QTOF
Ms type: MS2
Ion mode: POSITIVE
Collision energy: 90
Fragmentation mode: CID
Ionization: ESI
Column name: Zorbax Eclipse Plus C18 2.1 mm x 150 mm, 3.5 um, Agilent
Retention time: 7.633 min
Precursor m/z: 349.1329
Precursor type: [M+H]+
m/z	relative intensity
67.0452	11
77.0416	35
81.0473	17
88.0322	24
89.0408	56
90.0482	46
98.0058	11
101.0392	20
113.0387	50
114.0467	237
115.0499	80
116.0496	25
117.0574	150
127.0543	96
128.0567	226
129.0688	33
130.0648	13
137.0159	16
140.0499	400
141.0574	245
142.0521	161
153.0561	17
154.0652	119
155.0608	45
156.069	31
166.0522	29
167.0606	133
168.0683	999
169.0759	32
175.0314	12
179.0594	19
180.0685	28
181.0762	644
182.0836	131
183.0916	197
197.0716	13
201.0479	15
