Mass spectrum: (S)-N-methyl-pregabalin; LC-ESI-QTOF; MS2; 40 V
Name: (S)-N-methyl-pregabalin
Formula: C9H19NO2
Exact mass: 173.1416
SMILES: CC(C)CC(CC(=O)O)CNC
InChI: InChI=1S/C9H19NO2/c1-7(2)4-8(6-10-3)5-9(11)12/h7-8,10H,4-6H2,1-3H3,(H,11,12)
Instrument: TripleTOF 5600 SCIEX
Instrument type: LC-ESI-QTOF
Ms type: MS2
Ion mode: POSITIVE
Collision energy: 40
Fragmentation mode: CID
Ionization: ESI
Column name: Zorbax Eclipse Plus C18 2.1 mm x 150 mm, 3.5 um, Agilent
Retention time: 4.84 min
Precursor m/z: 174.1489
Precursor type: [M+H]+
m/z	relative intensity
37.0081	11
38.0155	11
39.0233	93
41.0389	172
43.0182	32
43.0547	57
44.0498	47
45.0341	33
53.0391	35
55.0183	225
55.0548	999
56.0502	13
57.0705	102
58.029	80
59.0495	112
65.0397	15
67.0417	38
67.0539	27
68.0504	10
69.034	42
69.0701	117
70.0657	145
77.0389	19
79.0545	73
80.0499	13
81.0578	16
81.0705	45
82.0655	219
83.0497	40
83.0858	322
91.054	55
94.0649	32
95.0801	19
96.0805	56
97.101	130
99.0681	30
100.0755	15
105.0703	14
107.086	43
114.0905	14
125.0967	38
138.1279	244
156.1389	220
174.1489	19
