Mass spectrum: Terbutrynesulfoxide; LC-ESI-QTOF; MS2; 10 V
Name: Terbutrynesulfoxide
Class: Transformation_product
Formula: C10H19N5OS
Exact mass: 257.131
SMILES: CCNC1=NC(=NC(=N1)S(=O)C)NC(C)(C)C
InChI: InChI=1S/C10H19N5OS/c1-6-11-7-12-8(15-10(2,3)4)14-9(13-7)17(5)16/h6H2,1-5H3,(H2,11,12,13,14,15)
Instrument: TripleTOF 5600 SCIEX
Instrument type: LC-ESI-QTOF
Ms type: MS2
Ion mode: POSITIVE
Collision energy: 10
Fragmentation mode: CID
Ionization: ESI
Column name: Zorbax Eclipse Plus C18 2.1 mm x 150 mm, 3.5 um, Agilent
Retention time: 8.816 min
Precursor m/z: 258.1383
Precursor type: [M+H]+
m/z	relative intensity
156.089	22
184.0654	41
202.0759	87
240.1273	77
258.137	999
