Mass spectrum: 2-(2-Hydroxyphenyl)-1H-benzimidazole; LC-ESI-QTOF; MS2; 60 V
Name: 2-(2-Hydroxyphenyl)-1H-benzimidazole
Class: Industrial_process; Pharmaceutical
Formula: C13H10N2O
Exact mass: 210.0793
SMILES: C1=CC=C2C(=C1)NC(=C3C=CC=CC3=O)N2
InChI: InChI=1S/C13H10N2O/c16-12-8-4-1-5-9(12)13-14-10-6-2-3-7-11(10)15-13/h1-8,14-15H
Instrument: TripleTOF 5600 SCIEX
Instrument type: LC-ESI-QTOF
Ms type: MS2
Ion mode: POSITIVE
Collision energy: 60
Fragmentation mode: CID
Ionization: ESI
Column name: Zorbax Eclipse Plus C18 2.1 mm x 150 mm, 3.5 um, Agilent
Retention time: 6.225 min
Precursor m/z: 211.0866
Precursor type: [M+H]+
m/z	relative intensity
64.0319	15
66.0416	13
75.0295	19
76.0348	12
77.0442	149
78.0387	16
80.055	14
89.0425	17
90.0391	22
91.0457	69
92.0535	359
93.0636	11
102.0361	74
103.0442	66
104.0516	84
113.038	15
114.0493	32
115.0536	35
116.0492	13
117.0588	44
118.0549	152
119.0611	25
120.0482	11
127.0559	31
128.0528	84
129.0565	102
130.0434	15
130.0663	21
131.0617	140
132.0688	40
138.0487	32
139.0545	71
140.051	116
141.0569	32
142.0537	45
143.0603	108
153.0556	20
154.0657	108
155.0619	124
156.0689	224
157.0767	17
164.0501	88
165.0567	44
166.0652	45
167.0649	68
168.0691	311
169.0774	20
179.0632	20
180.0676	57
181.0768	999
182.0841	491
183.0908	163
191.0612	54
192.0692	126
211.0864	11
