Mass spectrum: Sulfamethazine; LC-ESI-QTOF; MS2; 40 V
Name: Sulfamethazine
Class: Antimicrobial; Pharmaceutical
Formula: C12H14N4O2S
Exact mass: 278.0837
SMILES: CC1=CC(=NC(=N1)NS(=O)(=O)C2=CC=C(C=C2)N)C
InChI: InChI=1S/C12H14N4O2S/c1-8-7-9(2)15-12(14-8)16-19(17,18)11-5-3-10(13)4-6-11/h3-7H,13H2,1-2H3,(H,14,15,16)
Instrument: TripleTOF 5600 SCIEX
Instrument type: LC-ESI-QTOF
Ms type: MS2
Ion mode: POSITIVE
Collision energy: 40
Fragmentation mode: CID
Ionization: ESI
Column name: Zorbax Eclipse Plus C18 2.1 mm x 150 mm, 3.5 um, Agilent
Retention time: 6.115 min
Precursor m/z: 279.091
Precursor type: [M+H]+
m/z	relative intensity
65.0466	190
66.0401	10
67.0374	13
68.0559	25
80.0553	82
81.0508	68
82.0696	25
92.0544	889
93.0605	45
94.0698	10
95.0647	139
96.0732	16
107.064	114
108.0481	833
122.0744	146
123.0818	39
124.0897	999
156.0127	229
186.0337	384
196.0871	39
198.0931	20
213.1138	213
