Mass spectrum: Carbofuran; LC-ESI-QTOF; MS2; 100 V
Name: Carbofuran
Class: Insecticide; Transformation_product
Formula: C12H15NO3
Exact mass: 221.1052
SMILES: CNC(=O)Oc1cccc2CC(C)(C)Oc12
InChI: InChI=1S/C12H15NO3/c1-12(2)7-8-5-4-6-9(10(8)16-12)15-11(14)13-3/h4-6H,7H2,1-3H3,(H,13,14)
Instrument: TripleTOF 5600 SCIEX
Instrument type: LC-ESI-QTOF
Ms type: MS2
Ion mode: POSITIVE
Collision energy: 100
Fragmentation mode: CID
Ionization: ESI
Column name: Zorbax Eclipse Plus C18 2.1 mm x 150 mm, 3.5 um, Agilent
Retention time: 9.746 min
Precursor m/z: 222.1125
Precursor type: [M+H]+
m/z	relative intensity
55.0239	24
55.0599	80
58.0341	303
58.0473	72
63.0506	20
65.0425	489
67.0587	20
74.0172	36
75.0256	48
76.0337	20
77.0414	999
78.0486	113
79.0546	32
81.0364	24
89.0396	60
91.055	182
102.0468	48
103.0538	68
115.053	44
127.0612	20
