Mass spectrum: Eprinomectin B1A; LC-ESI-QTOF; MS2; 30 V
Name: Eprinomectin B1A
Formula: C50H75NO14
Exact mass: 913.5188
SMILES: CCC(C)C1C(C=CC2(O1)CC3CC(O2)CC=C(C(C(C=CC=C4COC5C4(C(C=C(C5O)C)C(=O)O3)O)C)OC6CC(C(C(O6)C)OC7CC(C(C(O7)C)NC(=O)C)OC)OC)C)C
InChI: InChI=1S/C50H75NO14/c1-12-26(2)45-29(5)18-19-49(65-45)24-36-21-35(64-49)17-16-28(4)44(27(3)14-13-15-34-25-58-47-43(53)30(6)20-37(48(54)61-36)50(34,47)55)62-41-23-39(57-11)46(32(8)60-41)63-40-22-38(56-10)42(31(7)59-40)51-33(9)52/h13-16,18-20,26-27,29,31-32,35-47,53,55H,12,17,21-25H2,1-11H3,(H,51,52)
Instrument: TripleTOF 5600 SCIEX
Instrument type: LC-ESI-QTOF
Ms type: MS2
Ion mode: POSITIVE
Collision energy: 30
Fragmentation mode: CID
Ionization: ESI
Column name: Zorbax Eclipse Plus C18 2.1 mm x 150 mm, 3.5 um, Agilent
Retention time: 16.157 min
Precursor m/z: 914.526
Precursor type: [M+H]+
m/z	relative intensity
112.0757	39
142.0828	22
144.1003	56
152.0726	28
154.0843	242
184.0988	129
186.1126	999
193.1566	84
199.1112	203
243.0988	67
266.1376	33
298.1626	524
305.2063	28
330.1676	28
330.1913	253
468.3052	28
642.352	28
860.5245	28
878.5028	28
896.512	28
914.5007	39
