Mass spectrum: Progesterone; LC-ESI-QTOF; MS2; 130 V
Name: Progesterone
Class: Pharmaceutical
Formula: C21H30O2
Exact mass: 314.2246
SMILES: CC(=O)[C@H]1CC[C@H]2[C@@H]3CCC4=CC(=O)CC[C@]4(C)[C@H]3CC[C@]12C
InChI: InChI=1S/C21H30O2/c1-13(22)17-6-7-18-16-5-4-14-12-15(23)8-10-20(14,2)19(16)9-11-21(17,18)3/h12,16-19H,4-11H2,1-3H3/t16-,17+,18-,19-,20-,21+/m0/s1
Instrument: TripleTOF 5600 SCIEX
Instrument type: LC-ESI-QTOF
Ms type: MS2
Ion mode: POSITIVE
Collision energy: 130
Fragmentation mode: CID
Ionization: ESI
Column name: Zorbax Eclipse Plus C18 2.1 mm x 150 mm, 3.5 um, Agilent
Retention time: 13.796 min
Precursor m/z: 315.2319
Precursor type: [M+H]+
m/z	relative intensity
43.0261	336
55.023	71
55.0592	56
57.0382	23
65.0426	241
66.051	28
67.0585	75
69.0364	18
77.0414	999
78.0491	47
79.0559	288
81.0344	33
81.0718	47
83.05	18
89.0408	47
91.0558	189
94.0423	33
97.0662	99
102.0471	42
103.0536	42
107.0494	42
109.0681	37
115.0538	156
115.0792	23
127.0532	42
128.0625	118
141.0679	18
152.058	23
165.0676	23
