Mass spectrum: 2-(3-Hydroxyquinolin-2-yl)indene-1,3-dione; LC-ESI-QTOF; MS2; 140 V
Name: 2-(3-Hydroxyquinolin-2-yl)indene-1,3-dione
Class: Industrial_process; Personal_care_product; Pigment
Formula: C18H11NO3
Exact mass: 289.0739
SMILES: C1=CC=C2C(=C1)C=C(C(=N2)C3C(=O)C4=CC=CC=C4C3=O)O
InChI: InChI=1S/C18H11NO3/c20-14-9-10-5-1-4-8-13(10)19-16(14)15-17(21)11-6-2-3-7-12(11)18(15)22/h1-9,15,20H
Instrument: TripleTOF 6600 SCIEX
Instrument type: LC-ESI-QTOF
Ms type: MS2
Ion mode: POSITIVE
Collision energy: 140
Fragmentation mode: CID
Ionization: ESI
Column name: Zorbax Eclipse Plus C18 2.1 mm x 150 mm, 3.5 um, Agilent
Retention time: 14.718 min
Precursor m/z: 290.0812
Precursor type: [M+H]+
m/z	relative intensity
39.0237	239
50.0154	679
51.0232	999
61.0077	319
62.0153	719
63.0233	959
74.0154	519
75.0232	199
77.0383	399
85.0081	199
86.0158	399
87.0229	399
89.0383	399
98.016	359
110.0149	439
111.0229	319
113.0376	239
122.0148	159
149.037	199
150.048	439
151.0548	239
161.0369	319
162.0449	199
163.0555	199
185.0378	479
186.0448	399
187.0563	359
188.0483	239
212.0494	239
