Mass spectrum: Prednisolone; LC-ESI-QTOF; MS2; 140 V
Name: Prednisolone
Class: Pharmaceutical
Formula: C21H28O5
Exact mass: 360.1937
SMILES: C[C@]12C[C@H](O)[C@H]3[C@@H](CCC4=CC(=O)C=C[C@]34C)[C@@H]1CC[C@]2(O)C(=O)CO
InChI: InChI=1S/C21H28O5/c1-19-7-5-13(23)9-12(19)3-4-14-15-6-8-21(26,17(25)11-22)20(15,2)10-16(24)18(14)19/h5,7,9,14-16,18,22,24,26H,3-4,6,8,10-11H2,1-2H3/t14-,15-,16-,18+,19-,20-,21-/m0/s1
Instrument: TripleTOF 5600 SCIEX
Instrument type: LC-ESI-QTOF
Ms type: MS2
Ion mode: POSITIVE
Collision energy: 140
Fragmentation mode: CID
Ionization: ESI
Column name: Zorbax Eclipse Plus C18 2.1 mm x 150 mm, 3.5 um, Agilent
Retention time: 8.432 min
Precursor m/z: 361.201
Precursor type: [M+H]+
m/z	relative intensity
51.029	177
65.0426	310
74.0182	39
75.0266	39
76.0329	49
77.0416	999
78.0487	123
79.055	83
89.0407	132
91.0557	467
101.0407	34
102.047	162
103.0543	187
107.0487	34
115.0546	703
116.0637	34
117.0687	19
121.064	49
126.0459	73
127.054	226
128.0619	359
129.0706	34
131.0492	137
132.0578	19
139.055	118
141.0712	54
150.0478	88
151.0541	172
152.0622	349
153.0689	29
157.0655	19
163.0535	113
164.0614	93
165.0689	295
176.0608	152
177.0696	44
178.077	118
181.0678	29
187.0525	54
188.0599	68
189.0701	231
190.0767	19
200.0639	68
201.069	34
202.0776	113
205.0606	19
213.0692	44
215.0904	34
