Mass spectrum: Fenbendazole; LC-ESI-QTOF; MS2; 50 V
Name: Fenbendazole
Class: Pharmaceutical
Formula: C15H13N3O2S
Exact mass: 299.0728
SMILES: COC(=O)Nc1[nH]c2cc(Sc3ccccc3)ccc2n1
InChI: InChI=1S/C15H13N3O2S/c1-20-15(19)18-14-16-12-8-7-11(9-13(12)17-14)21-10-5-3-2-4-6-10/h2-9H,1H3,(H2,16,17,18,19)
Instrument: TripleTOF 5600 SCIEX
Instrument type: LC-ESI-QTOF
Ms type: MS2
Ion mode: POSITIVE
Collision energy: 50
Fragmentation mode: CID
Ionization: ESI
Column name: Zorbax Eclipse Plus C18 2.1 mm x 150 mm, 3.5 um, Agilent
Retention time: 9.947 min
Precursor m/z: 300.0801
Precursor type: [M+H]+
m/z	relative intensity
77.0288	16
103.0408	25
104.0368	74
109.0106	85
122.0051	50
131.0475	277
158.0333	10
159.0418	999
163.0186	10
171.0248	24
190.006	180
191.0132	207
198.0354	22
199.0434	12
225.0467	26
226.054	17
240.0574	19
268.0526	308
