Mass spectrum: Isoxaben; LC-ESI-QTOF; MS2; 150 V
Name: Isoxaben
Class: Herbicide
Formula: C18H24N2O4
Exact mass: 332.1736
SMILES: CCC(C)(CC)C1=NOC(=C1)NC(=O)C2=C(C=CC=C2OC)OC
InChI: InChI=1S/C18H24N2O4/c1-6-18(3,7-2)14-11-15(24-20-14)19-17(21)16-12(22-4)9-8-10-13(16)23-5/h8-11H,6-7H2,1-5H3,(H,19,21)
Instrument: TripleTOF 6600 SCIEX
Instrument type: LC-ESI-QTOF
Ms type: MS2
Ion mode: POSITIVE
Collision energy: 150
Fragmentation mode: CID
Ionization: ESI
Column name: Zorbax Eclipse Plus C18 2.1 mm x 150 mm, 3.5 um, Agilent
Retention time: 12.747 min
Precursor m/z: 333.1809
Precursor type: [M+H]+
m/z	relative intensity
35.9985	16
37.0075	85
38.0029	18
38.0144	90
39.0223	115
41.0015	14
41.0382	18
49.0072	123
50.0149	844
51.0226	999
53.0019	282
53.0375	12
55.0174	433
59.9988	33
61.0066	140
62.0143	265
63.0225	672
64.0301	56
65.0379	33
68.9969	27
73.0061	50
74.0146	201
75.0225	115
77.0377	23
79.0174	127
91.0178	10
92.024	12
107.0117	140
