Mass spectrum: Clonidine; LC-ESI-QTOF; MS2; 100 V
Name: Clonidine
Class: Pharmaceutical
Formula: C9H9Cl2N3
Exact mass: 229.0174
SMILES: C1CN=C(N1)NC2=C(C=CC=C2Cl)Cl
InChI: InChI=1S/C9H9Cl2N3/c10-6-2-1-3-7(11)8(6)14-9-12-4-5-13-9/h1-3H,4-5H2,(H2,12,13,14)
Instrument: TripleTOF 6600 SCIEX
Instrument type: LC-ESI-QTOF
Ms type: MS2
Ion mode: POSITIVE
Collision energy: 100
Fragmentation mode: CID
Ionization: ESI
Column name: Zorbax Eclipse Plus C18 2.1 mm x 150 mm, 3.5 um, Agilent
Retention time: 5.408 min
Precursor m/z: 230.0246
Precursor type: [M+H]+
m/z	relative intensity
37.0066	74
41.0262	46
42.0211	65
42.0333	84
43.0288	56
44.0497	74
46.9677	112
48.9833	205
50.0144	130
51.0225	102
55.028	46
61.0065	168
62.0147	224
63.0221	233
64.018	140
72.9833	616
73.0069	149
74.0144	999
75.022	242
76.017	130
77.0382	65
82.9437	121
83.9742	56
88.0168	102
90.033	93
96.9827	56
97.9766	56
99.0098	102
105.043	37
106.9435	56
108.9837	46
123.9943	46
125.0026	37
132.9588	46
