Mass spectrum: Florasulam; LC-ESI-QTOF; MS2; 120 V
Name: Florasulam
Class: Herbicide
Formula: C12H8F3N5O3S
Exact mass: 359.03
SMILES: COC1=NC=C(C2=NC(=NN21)S(=O)(=O)NC3=C(C=CC=C3F)F)F
InChI: InChI=1S/C12H8F3N5O3S/c1-23-12-16-5-8(15)10-17-11(18-20(10)12)24(21,22)19-9-6(13)3-2-4-7(9)14/h2-5,19H,1H3
Instrument: TripleTOF 6600 SCIEX
Instrument type: LC-ESI-QTOF
Ms type: MS2
Ion mode: POSITIVE
Collision energy: 120
Fragmentation mode: CID
Ionization: ESI
Column name: Zorbax Eclipse Plus C18 2.1 mm x 150 mm, 3.5 um, Agilent
Retention time: 9.723 min
Precursor m/z: 360.0373
Precursor type: [M+H]+
m/z	relative intensity
30.9961	19
38.0127	20
46.0066	11
50.0127	14
51.0008	48
51.0196	29
52.0153	65
53.0103	11
56.0029	29
57.0108	70
58.0068	11
59.014	11
59.997	55
61.0046	171
62.0122	414
63.0086	13
63.0201	547
65.0229	19
70.0063	71
75.0013	128
76.0149	55
77.0116	24
81.0106	999
82.0064	20
82.0182	473
83.0129	14
83.0255	26
84.0093	20
88.0152	96
89.0234	125
90.0331	13
101.0163	259
102.025	65
108.0219	68
109.0294	172
129.0358	65
