Mass spectrum: Sildenafil; LC-ESI-QTOF; MS2; 70 V
Name: Sildenafil
Class: Pharmaceutical
Formula: C22H30N6O4S
Exact mass: 474.2049
SMILES: CCCC1=NN(C2=C1NC(=NC2=O)C3=C(C=CC(=C3)S(=O)(=O)N4CCN(CC4)C)OCC)C
InChI: InChI=1S/C22H30N6O4S/c1-5-7-17-19-20(27(4)25-17)22(29)24-21(23-19)16-14-15(8-9-18(16)32-6-2)33(30,31)28-12-10-26(3)11-13-28/h8-9,14H,5-7,10-13H2,1-4H3,(H,23,24,29)
Instrument: TripleTOF 5600 SCIEX
Instrument type: LC-ESI-QTOF
Ms type: MS2
Ion mode: POSITIVE
Collision energy: 70
Fragmentation mode: CID
Ionization: ESI
Column name: Zorbax Eclipse Plus C18 2.1 mm x 150 mm, 3.5 um, Agilent
Retention time: 7.283 min
Precursor m/z: 475.2122
Precursor type: [M+H]+
m/z	relative intensity
42.0481	39
44.0605	23
56.0592	97
58.0744	999
69.0543	20
70.0715	145
77.0481	11
84.0724	41
95.0598	13
97.0796	32
98.0858	11
99.0948	168
100.1013	85
101.1109	11
117.0467	9
130.0618	11
131.0595	18
136.0527	69
143.0608	13
145.0431	23
146.0665	11
155.0628	16
156.0518	9
156.0686	13
157.0642	13
158.0732	18
159.0567	18
164.0857	16
166.0986	117
168.0641	16
169.0757	13
171.0795	34
172.0469	11
174.0669	13
176.0826	11
181.0644	13
182.0697	25
183.0611	30
183.0933	9
184.0554	13
184.0893	11
185.0586	9
185.073	11
186.0713	34
193.0371	11
193.1096	16
195.0821	18
197.0807	37
198.0838	41
198.0994	13
199.0726	25
199.0972	16
200.0809	25
200.1144	20
210.0553	9
210.1018	11
211.0619	60
211.0942	25
212.0691	53
212.0922	11
212.1106	13
213.0789	60
214.0919	32
222.064	11
223.0752	20
224.0832	34
225.0782	196
226.0869	154
227.0921	106
227.1333	20
228.1114	41
236.0787	11
237.0825	20
238.0775	13
238.0988	37
239.057	62
239.0778	13
239.0946	57
240.064	27
240.102	85
241.0704	67
241.1104	20
242.0777	13
242.1317	11
249.0874	13
253.0734	228
253.1101	20
254.0806	427
254.1225	13
255.0919	80
255.1257	302
256.0913	34
256.1061	37
267.0899	85
267.1277	23
268.0923	13
268.1109	23
269.0994	27
269.1418	16
278.1183	48
279.1267	18
281.1007	18
281.1218	11
282.1098	27
283.1203	700
284.1284	198
285.1355	39
296.122	20
297.1462	16
299.1157	148
311.1318	11
311.1556	16
312.1619	97
331.0907	11
