Mass spectrum: Flutriafol; LC-ESI-QTOF; MS2; 40 V
Name: Flutriafol
Class: Fungicide
Formula: C16H13F2N3O
Exact mass: 301.1027
SMILES: C1=CC=C(C(=C1)C(CN2C=NC=N2)(C3=CC=C(C=C3)F)O)F
InChI: InChI=1S/C16H13F2N3O/c17-13-7-5-12(6-8-13)16(22,9-21-11-19-10-20-21)14-3-1-2-4-15(14)18/h1-8,10-11,22H,9H2
Instrument: TripleTOF 6600 SCIEX
Instrument type: LC-ESI-QTOF
Ms type: MS2
Ion mode: POSITIVE
Collision energy: 40
Fragmentation mode: CID
Ionization: ESI
Column name: Zorbax Eclipse Plus C18 2.1 mm x 150 mm, 3.5 um, Agilent
Retention time: 10.047 min
Precursor m/z: 302.11
Precursor type: [M+H]+
m/z	relative intensity
43.0293	14
70.0399	999
75.0221	13
95.0286	86
109.0444	265
123.0242	754
137.0391	10
165.0696	10
175.0529	10
194.0511	10
195.0582	27
214.0577	15
215.066	20
