Mass spectrum: Repaglinide; LC-ESI-QTOF; MS2; 140 V
Name: Repaglinide
Class: Pharmaceutical
Formula: C27H36N2O4
Exact mass: 452.2675
SMILES: CCOc1cc(CC(=O)N[C@@H](CC(C)C)c2ccccc2N3CCCCC3)ccc1C(O)=O
InChI: InChI=1S/C27H36N2O4/c1-4-33-25-17-20(12-13-22(25)27(31)32)18-26(30)28-23(16-19(2)3)21-10-6-7-11-24(21)29-14-8-5-9-15-29/h6-7,10-13,17,19,23H,4-5,8-9,14-16,18H2,1-3H3,(H,28,30)(H,31,32)/t23-/m0/s1
Instrument: TripleTOF 5600 SCIEX
Instrument type: LC-ESI-QTOF
Ms type: MS2
Ion mode: POSITIVE
Collision energy: 140
Fragmentation mode: CID
Ionization: ESI
Column name: Zorbax Eclipse Plus C18 2.1 mm x 150 mm, 3.5 um, Agilent
Retention time: 10.348 min
Precursor m/z: 453.2748
Precursor type: [M+H]+
m/z	relative intensity
65.043	171
77.0422	343
78.0481	13
79.0563	38
86.0985	16
89.0404	188
90.0482	188
91.0565	562
93.0586	15
102.0461	25
103.0549	193
104.0493	27
105.0329	26
105.0698	21
106.0654	65
115.0543	187
116.0552	55
117.0582	490
118.0646	141
127.054	48
128.051	121
129.0565	19
129.0681	18
130.0656	999
131.0726	82
132.0799	28
142.0642	44
143.073	219
144.081	366
156.0809	47
157.0879	27
158.096	91
170.0966	29
172.1116	48
