Mass spectrum: 2-Methyl-4`-(methylthio)-2-morpholinopropiophenone; LC-ESI-QTOF; MS2; 40 V
Name: 2-Methyl-4`-(methylthio)-2-morpholinopropiophenone
Class: Industrial_process
Formula: C15H21NO2S
Exact mass: 279.1293
SMILES: CC(C)(C(=O)C1=CC=C(C=C1)SC)N2CCOCC2
InChI: InChI=1S/C15H21NO2S/c1-15(2,16-8-10-18-11-9-16)14(17)12-4-6-13(19-3)7-5-12/h4-7H,8-11H2,1-3H3
Instrument: TripleTOF 6600 SCIEX
Instrument type: LC-ESI-QTOF
Ms type: MS2
Ion mode: POSITIVE
Collision energy: 40
Fragmentation mode: CID
Ionization: ESI
Column name: Zorbax Eclipse Plus C18 2.1 mm x 150 mm, 3.5 um, Agilent
Retention time: 7.548 min
Precursor m/z: 280.1366
Precursor type: [M+H]+
m/z	relative intensity
44.0496	10
70.0652	71
88.0759	290
91.0537	23
115.054	70
117.07	389
118.0774	85
122.0177	11
125.0411	21
128.1067	125
131.0486	39
135.0256	32
137.0419	263
145.0641	18
146.0721	86
149.0409	12
150.0495	81
165.0734	999
280.1357	42
