Mass spectrum: 2-Piperidin-3-yl-benzothiazole; LC-ESI-QTOF; MS2; 80 V
Name: 2-Piperidin-3-yl-benzothiazole
Formula: C12H14N2S
Exact mass: 218.0878
SMILES: C1CC(CNC1)C2=NC3=CC=CC=C3S2
InChI: InChI=1S/C12H14N2S/c1-2-6-11-10(5-1)14-12(15-11)9-4-3-7-13-8-9/h1-2,5-6,9,13H,3-4,7-8H2
Instrument: TripleTOF 5600 SCIEX
Instrument type: LC-ESI-QTOF
Ms type: MS2
Ion mode: POSITIVE
Collision energy: 80
Fragmentation mode: CID
Ionization: ESI
Column name: Zorbax Eclipse Plus C18 2.1 mm x 150 mm, 3.5 um, Agilent
Retention time: 5.623 min
Precursor m/z: 219.095
Precursor type: [M+H]+
m/z	relative intensity
39.023	65
42.0334	12
43.9711	12
44.0498	87
44.9793	333
51.024	59
54.0343	12
57.9876	87
63.0228	28
64.0312	15
65.0385	430
67.9711	18
68.9793	706
70.0652	50
70.9968	12
74.0153	15
75.0229	40
76.0188	15
77.0386	389
78.0462	28
80.0505	18
80.9817	12
81.9876	483
82.9974	18
89.0385	128
90.0463	47
91.0541	34
92.979	91
94.9957	15
96.0026	18
102.0376	50
103.0554	18
104.0495	157
105.0556	18
106.9964	47
108.003	999
109.0111	622
115.0564	15
116.0506	87
117.0567	160
121.0111	267
122.0149	31
128.0502	31
129.0625	15
130.065	62
135.0124	31
136.02	50
146.0108	31
147.0292	25
148.0215	464
149.0303	260
160.023	37
162.0369	50
172.0202	31
173.0288	188
174.0368	97
186.0382	21
