Mass spectrum: Medroxyprogesterone-17-acetate; LC-ESI-QTOF; MS2; 50 V
Name: Medroxyprogesterone-17-acetate
Class: Pharmaceutical
Formula: C24H34O4
Exact mass: 386.2457
SMILES: CC1CC2C(CCC3(C2CCC3(C(=O)C)OC(=O)C)C)C4(C1=CC(=O)CC4)C
InChI: InChI=1S/C24H34O4/c1-14-12-18-19(22(4)9-6-17(27)13-21(14)22)7-10-23(5)20(18)8-11-24(23,15(2)25)28-16(3)26/h13-14,18-20H,6-12H2,1-5H3
Instrument: TripleTOF 5600 SCIEX
Instrument type: LC-ESI-QTOF
Ms type: MS2
Ion mode: POSITIVE
Collision energy: 50
Fragmentation mode: CID
Ionization: ESI
Column name: Zorbax Eclipse Plus C18 2.1 mm x 150 mm, 3.5 um, Agilent
Retention time: 13.723 min
Precursor m/z: 387.253
Precursor type: [M+H]+
m/z	relative intensity
43.0178	44
55.0544	10
67.0541	58
69.0696	13
77.0383	29
79.054	52
81.0697	41
83.0489	55
91.0545	38
93.0699	92
95.0481	13
95.0853	102
97.065	488
105.0694	121
107.0498	10
107.0852	60
108.0563	14
109.0644	44
109.1008	30
111.0806	28
117.0698	30
119.0858	114
121.0644	15
121.101	36
123.0805	999
128.0627	11
129.07	27
130.0766	11
131.0855	79
133.1005	84
135.0794	21
135.1157	18
137.096	138
141.0674	13
142.0767	20
143.0851	65
144.0929	12
145.1012	144
147.1165	149
155.0847	18
156.0926	28
157.1013	61
159.1175	84
161.0969	16
161.1325	77
163.1128	19
163.1477	11
167.0874	11
168.0949	10
169.1013	44
171.1165	87
173.1328	112
175.1121	17
175.1474	117
177.1281	21
181.1012	17
182.1098	14
183.1174	52
185.1338	50
187.1119	17
187.1483	30
189.1257	21
195.1156	17
196.1239	11
197.1316	56
199.1486	53
201.1648	15
209.1324	23
210.1433	12
211.1476	49
213.1285	20
213.163	22
214.1359	233
215.1422	47
221.1333	10
223.1489	27
225.1651	32
227.1783	45
237.1629	19
239.1785	10
251.1805	72
265.193	13
266.2005	41
267.2115	57
269.1916	40
284.2142	15
285.2185	15
