Mass spectrum: Florfenicol; LC-ESI-QTOF; MS2; 70 V
Name: Florfenicol
Class: Pharmaceutical
Formula: C12H14Cl2FNO4S
Exact mass: 357.0005
InChI: InChI=1S/C12H14Cl2FNO4S/c1-21(19,20)8-4-2-7(3-5-8)10(17)9(6-15)16-12(18)11(13)14/h2-5,9-11,17H,6H2,1H3,(H,16,18)/t9-,10-/m1/s1
Instrument: TripleTOF 5600 SCIEX
Instrument type: LC-ESI-QTOF
Ms type: CID
Ion mode: NEGATIVE
Collision energy: 70
Ionization: ESI
Column name: Zorbax Eclipse Plus C18 2.1 mm x 150 mm, 3.5 um, Agilent
Retention time: 7.507 min
Precursor m/z: 355.9932
Precursor type: [M-H]-
m/z	relative intensity
42.0019	82
63.9633	311
78.9859	407
82.9452	279
105.0343	248
119.0508	999
121.0298	458
155.0183	63
168.997	248
