Mass spectrum: Amisulbrom; LC-ESI-QTOF; MS2; 100 V
Name: Amisulbrom
Formula: C13H13BrFN5O4S2
Exact mass: 464.9576
SMILES: CC1=C(C2=C(N1S(=O)(=O)C3=NN(C=N3)S(=O)(=O)N(C)C)C=C(C=C2)F)Br
InChI: InChI=1S/C13H13BrFN5O4S2/c1-8-12(14)10-5-4-9(15)6-11(10)20(8)25(21,22)13-16-7-19(17-13)26(23,24)18(2)3/h4-7H,1-3H3
Instrument: TripleTOF 6600 SCIEX
Instrument type: LC-ESI-QTOF
Ms type: MS2
Ion mode: POSITIVE
Collision energy: 100
Fragmentation mode: CID
Ionization: ESI
Column name: Zorbax Eclipse Plus C18 2.1 mm x 150 mm, 3.5 um, Agilent
Retention time: 14.781 min
Precursor m/z: 465.9649
Precursor type: [M+H]+
m/z	relative intensity
42.0338	30
44.0487	27
74.0148	27
75.0211	154
77.038	30
94.0205	23
95.0268	50
96.0354	34
98.0145	15
99.0226	38
100.0165	27
101.0373	499
107.0278	50
109.0463	15
119.0345	23
120.0361	542
121.0397	69
123.0367	19
126.034	100
127.0397	34
128.0473	298
129.0433	120
133.0431	166
134.0403	50
140.0473	46
146.0383	410
147.0467	948
148.0555	999
154.0385	58
158.0399	27
159.0428	50
160.0479	34
161.0465	19
175.0654	34
225.963	666
