Mass spectrum: Hexadecyl-trimethylammonium; LC-ESI-QTOF; MS2; 90 V
Name: Hexadecyl-trimethylammonium
Class: Industrial_process; Pharmaceutical
Formula: [C19H42N]+
Exact mass: 284.3312
SMILES: CCCCCCCCCCCCCCCC[N+](C)(C)C
InChI: InChI=1S/C19H42N/c1-5-6-7-8-9-10-11-12-13-14-15-16-17-18-19-20(2,3)4/h5-19H2,1-4H3/q+1
Instrument: TripleTOF 5600 SCIEX
Instrument type: LC-ESI-QTOF
Ms type: MS2
Ion mode: POSITIVE
Collision energy: 90
Fragmentation mode: CID
Ionization: ESI
Column name: Zorbax Eclipse Plus C18 2.1 mm x 150 mm, 3.5 um, Agilent
Retention time: 12.775 min
Precursor m/z: 284.3312
Precursor type: [M]+
m/z	relative intensity
42.0414	80
44.0587	999
45.0649	265
58.0705	508
60.0852	560
