Mass spectrum: Aminophenazone; LC-ESI-QTOF; MS2; 90 V
Name: Aminophenazone
Class: Pharmaceutical; Transformation_product-Metabolite
Formula: C13H17N3O
Exact mass: 231.1372
SMILES: CC1=C(C(=O)N(N1C)C2=CC=CC=C2)N(C)C
InChI: InChI=1S/C13H17N3O/c1-10-12(14(2)3)13(17)16(15(10)4)11-8-6-5-7-9-11/h5-9H,1-4H3
Instrument: TripleTOF 5600 SCIEX
Instrument type: LC-ESI-QTOF
Ms type: MS2
Ion mode: POSITIVE
Collision energy: 90
Fragmentation mode: CID
Ionization: ESI
Column name: Zorbax Eclipse Plus C18 2.1 mm x 150 mm, 3.5 um, Agilent
Retention time: 4.71 min
Precursor m/z: 232.1444
Precursor type: [M+H]+
m/z	relative intensity
42.0485	240
44.0589	15
54.0435	40
55.0517	30
56.0588	999
57.0669	22
58.0739	312
67.0482	12
68.0556	42
70.0723	120
72.0868	47
77.0443	265
78.0518	12
79.0581	15
81.0495	42
82.058	10
83.0656	135
89.0437	15
91.0587	17
95.0655	12
97.0804	638
106.065	10
117.0578	17
130.0676	12
