Mass spectrum: Pyrimethanil; LC-ESI-QTOF; MS2; 120 V
Name: Pyrimethanil
Class: Fungicide
Formula: C12H13N3
Exact mass: 199.1109
SMILES: CC1=CC(=NC(=N1)NC2=CC=CC=C2)C
InChI: InChI=1S/C12H13N3/c1-9-8-10(2)14-12(13-9)15-11-6-4-3-5-7-11/h3-8H,1-2H3,(H,13,14,15)
Instrument: TripleTOF 6600 SCIEX
Instrument type: LC-ESI-QTOF
Ms type: MS2
Ion mode: POSITIVE
Collision energy: 120
Fragmentation mode: CID
Ionization: ESI
Column name: Zorbax Eclipse Plus C18 2.1 mm x 150 mm, 3.5 um, Agilent
Retention time: 9.225 min
Precursor m/z: 200.1182
Precursor type: [M+H]+
m/z	relative intensity
35.9994	21
37.0072	128
38.0023	18
38.015	87
39.0229	216
40.0179	31
41.0262	40
42.0337	248
49.007	185
50.0152	999
51.0228	647
52.0178	43
61.0065	40
62.0146	72
63.0224	84
64.0174	18
65.0391	31
66.033	18
67.0281	28
74.015	113
75.0095	18
75.0223	37
76.0175	15
77.0381	21
85.0063	15
86.0147	21
87.0232	18
89.0367	12
