Mass spectrum: Propazine; LC-ESI-QTOF; MS2; 120 V
Name: Propazine
Class: Herbicide
Formula: C9H16ClN5
Exact mass: 229.1094
SMILES: CC(C)Nc1nc(Cl)nc(NC(C)C)n1
InChI: InChI=1S/C9H16ClN5/c1-5(2)11-8-13-7(10)14-9(15-8)12-6(3)4/h5-6H,1-4H3,(H2,11,12,13,14,15)
Instrument: TripleTOF 5600 SCIEX
Instrument type: LC-ESI-QTOF
Ms type: MS2
Ion mode: POSITIVE
Collision energy: 120
Fragmentation mode: CID
Ionization: ESI
Column name: Zorbax Eclipse Plus C18 2.1 mm x 150 mm, 3.5 um, Agilent
Retention time: 11.571 min
Precursor m/z: 230.1167
Precursor type: [M+H]+
m/z	relative intensity
41.0213	37
42.0322	28
43.0378	361
61.9843	999
62.034	13
68.0277	424
68.0619	27
79.0069	11
86.9758	23
