Mass spectrum: Tepraloxydim; LC-ESI-QTOF; MS2; 150 V
Name: Tepraloxydim
Class: Herbicide
Formula: C17H24ClNO4
Exact mass: 341.1394
SMILES: CCC(=NOCC=CCl)C1=C(CC(CC1=O)C2CCOCC2)O
InChI: InChI=1S/C17H24ClNO4/c1-2-14(19-23-7-3-6-18)17-15(20)10-13(11-16(17)21)12-4-8-22-9-5-12/h3,6,12-13,20H,2,4-5,7-11H2,1H3
Instrument: TripleTOF 6600 SCIEX
Instrument type: LC-ESI-QTOF
Ms type: MS2
Ion mode: POSITIVE
Collision energy: 150
Fragmentation mode: CID
Ionization: ESI
Column name: Zorbax Eclipse Plus C18 2.1 mm x 150 mm, 3.5 um, Agilent
Retention time: 12.248 min
Precursor m/z: 342.1467
Precursor type: [M+H]+
m/z	relative intensity
37.0066	223
38.0142	223
39.0222	947
41.0257	120
41.0382	189
42.0327	292
43.017	241
44.0124	120
46.9671	206
48.9832	981
49.0062	86
50.0142	585
51.0218	999
53.0021	103
53.0379	189
54.0322	189
62.0135	86
63.0216	241
65.0376	344
66.0326	120
66.0448	86
67.0406	120
68.0478	103
77.0372	775
78.0315	68
78.0457	68
80.0481	206
89.0369	206
91.0527	189
93.0558	103
96.0442	86
105.044	103
115.0523	120
