Mass spectrum: Hydroxytorasemide; LC-ESI-QTOF; MS2; 150 V
Name: Hydroxytorasemide
Class: Pharmaceutical; Transformation_product
Formula: C16H20N4O4S
Exact mass: 364.1205
SMILES: CC(C)NC(=O)NS(=O)(=O)c1cnccc1Nc2cccc(c2)CO
InChI: InChI=1S/C16H20N4O4S/c1-11(2)18-16(22)20-25(23,24)15-9-17-7-6-14(15)19-13-5-3-4-12(8-13)10-21/h3-9,11,21H,10H2,1-2H3,(H,17,19)(H2,18,20,22)
Instrument: TripleTOF 5600 SCIEX
Instrument type: LC-ESI-QTOF
Ms type: MS2
Ion mode: POSITIVE
Collision energy: 150
Fragmentation mode: CID
Ionization: ESI
Column name: Zorbax Eclipse Plus C18 2.1 mm x 150 mm, 3.5 um, Agilent
Retention time: 5.824 min
Precursor m/z: 365.1278
Precursor type: [M+H]+
m/z	relative intensity
51.0302	245
52.0357	18
64.0344	36
65.0427	154
67.0467	18
68.9819	13
73.0104	28
74.0181	274
75.0259	470
76.0208	65
76.0336	109
77.0416	622
78.0365	91
79.0446	44
85.0095	20
86.0153	101
87.0243	183
88.0323	355
89.0401	999
90.0478	141
91.0418	15
91.056	23
98.0163	65
99.0092	20
99.0231	57
99.0341	10
100.017	15
100.0272	18
101.0382	316
102.0342	78
102.0451	141
103.029	13
103.0404	15
103.052	39
104.048	33
110.0062	10
113.0381	669
114.0411	520
115.0541	870
116.0478	99
117.0435	10
117.0576	96
118.0538	23
125.039	94
126.0302	15
126.0467	266
126.0702	13
127.0534	489
128.0492	415
129.0447	141
130.0396	15
130.0649	13
131.0631	15
138.0321	26
139.0409	67
140.0499	805
141.0553	177
142.058	86
151.0405	33
152.0487	175
153.0571	211
154.0402	13
154.0643	245
155.0594	122
165.0467	20
166.0535	83
167.0596	104
168.0698	169
169.0763	65
178.0537	18
179.0595	222
180.0672	107
181.0768	543
197.0693	13
