Mass spectrum: Fluroxypyr; LC-ESI-QTOF; MS2; 150 V
Name: Fluroxypyr
Class: Herbicide
Formula: C7H5Cl2FN2O3
Exact mass: 253.9661
SMILES: C(C(=O)O)OC1=NC(=C(C(=C1Cl)N)Cl)F
InChI: InChI=1S/C7H5Cl2FN2O3/c8-3-5(11)4(9)7(12-6(3)10)15-1-2(13)14/h1H2,(H2,11,12)(H,13,14)
Instrument: TripleTOF 6600 SCIEX
Instrument type: LC-ESI-QTOF
Ms type: MS2
Ion mode: POSITIVE
Collision energy: 150
Fragmentation mode: CID
Ionization: ESI
Column name: Zorbax Eclipse Plus C18 2.1 mm x 150 mm, 3.5 um, Agilent
Retention time: 8.859 min
Precursor m/z: 254.9734
Precursor type: [M+H]+
m/z	relative intensity
30.9978	280
46.0092	124
46.9681	437
48.9836	124
51.0106	749
52.0188	249
54.9969	374
56.006	343
61.9792	187
62.0017	187
63.0076	156
66.9744	655
70.0086	905
70.9679	405
71.9761	249
76.0046	249
77.0131	593
80.999	156
85.9789	749
89.9668	999
90.9728	312
