Mass spectrum: Irbesartan; LC-ESI-QTOF; MS2; 90 V
Name: Irbesartan
Class: Pharmaceutical
Formula: C25H28N6O
Exact mass: 428.2325
SMILES: CCCCC1=NC2(CCCC2)C(=O)N1Cc3ccc(cc3)c4ccccc4c5n[nH]nn5
InChI: InChI=1S/C25H28N6O/c1-2-3-10-22-26-25(15-6-7-16-25)24(32)31(22)17-18-11-13-19(14-12-18)20-8-4-5-9-21(20)23-27-29-30-28-23/h4-5,8-9,11-14H,2-3,6-7,10,15-17H2,1H3,(H,27,28,29,30)
Instrument: TripleTOF 5600 SCIEX
Instrument type: LC-ESI-QTOF
Ms type: MS2
Ion mode: POSITIVE
Collision energy: 90
Fragmentation mode: CID
Ionization: ESI
Column name: Zorbax Eclipse Plus C18 2.1 mm x 150 mm, 3.5 um, Agilent
Retention time: 9.345 min
Precursor m/z: 429.2397
Precursor type: [M+H]+
m/z	relative intensity
67.0582	28
77.0417	85
78.0357	12
80.052	27
84.0832	91
102.0344	16
113.0388	15
115.0546	34
125.0389	13
126.0472	10
127.0543	67
128.0513	34
129.0447	17
138.0466	26
139.0547	56
140.0501	108
141.0569	12
150.0468	48
151.0549	392
152.0624	612
153.0693	135
154.0651	26
162.0474	17
163.0548	178
164.0554	194
165.0698	412
166.066	58
167.0736	36
168.067	14
176.0534	23
177.0582	146
178.0663	336
179.0731	306
180.0806	228
181.0762	14
188.0491	27
189.0582	61
190.0657	452
191.0675	136
192.0692	204
205.0768	999
206.0842	78
207.0912	20
