Mass spectrum: Azithromycin; LC-ESI-QTOF; MS2; 70 V
Name: Azithromycin
Class: Pharmaceutical
Formula: C38H72N2O12
Exact mass: 748.5085
SMILES: CC[C@H]1OC(=O)[C@H](C)[C@@H](O[C@H]2C[C@@](C)(OC)[C@@H](O)[C@H](C)O2)C(C)[C@@H](O[C@@H]3O[C@H](C)C[C@@H]([C@H]3O)N(C)C)[C@](C)(O)C[C@@H](C)CN(C)[C@H](C)[C@@H](O)[C@]1(C)O
InChI: InChI=1S/C38H72N2O12/c1-15-27-38(10,46)31(42)24(6)40(13)19-20(2)17-36(8,45)33(52-35-29(41)26(39(11)12)16-21(3)48-35)22(4)30(23(5)34(44)50-27)51-28-18-37(9,47-14)32(43)25(7)49-28/h20-33,35,41-43,45-46H,15-19H2,1-14H3/t20-,21-,22?,23-,24-,25+,26+,27-,28+,29-,30+,31-,32+,33-,35+,36-,37-,38-/m1/s1
Instrument: TripleTOF 5600 SCIEX
Instrument type: LC-ESI-QTOF
Ms type: MS2
Ion mode: POSITIVE
Collision energy: 70
Fragmentation mode: CID
Ionization: ESI
Column name: Zorbax Eclipse Plus C18 2.1 mm x 150 mm, 3.5 um, Agilent
Retention time: 6.249 min
Precursor m/z: 749.5158
Precursor type: [M+H]+
m/z	relative intensity
55.0583	21
58.0699	10
59.055	12
72.0846	176
81.072	23
83.0517	872
84.0847	12
85.0311	10
87.0457	62
87.0787	10
88.0771	80
98.066	10
98.0972	338
99.0822	32
100.0759	37
113.0594	101
114.0911	37
115.0743	53
116.0801	26
116.1065	929
121.1025	24
127.0744	30
128.104	12
138.1272	14
156.138	51
158.1174	999
174.1484	42
182.1563	12
186.149	107
274.2019	14
300.2176	41
358.2596	26
398.2921	58
416.2992	76
434.3118	98
457.3304	76
573.4083	203
591.4193	71
