Mass spectrum: 7-Amino-4-methylcoumarin; LC-ESI-QTOF; MS2; 70 V
Name: 7-Amino-4-methylcoumarin
Formula: C10H9NO2
Exact mass: 175.0633
SMILES: CC1=CC(=O)OC2=C1C=CC(=C2)N
InChI: InChI=1S/C10H9NO2/c1-6-4-10(12)13-9-5-7(11)2-3-8(6)9/h2-5H,11H2,1H3
Instrument: TripleTOF X500R SCIEX
Instrument type: LC-ESI-QTOF
Ms type: MS2
Ion mode: POSITIVE
Collision energy: 70
Fragmentation mode: CID
Ionization: ESI
Column name: Zorbax Eclipse Plus C18 2.1 mm x 150 mm, 3.5 um, Agilent
Retention time: 7.107 min
Precursor m/z: 176.0706
Precursor type: [M+H]+
m/z	relative intensity
37.0076	31
38.0147	35
39.0232	197
40.0185	40
41.0386	31
42.0333	40
50.0152	143
51.023	873
52.0311	35
53.0392	58
54.0328	31
62.0153	58
63.0232	165
65.0386	161
66.0465	120
67.0427	22
68.0143	49
74.015	17
75.023	35
76.0321	49
77.0388	999
78.0327	31
78.0463	71
79.047	35
80.0495	53
89.038	80
91.0553	134
92.0496	67
93.0575	210
101.0374	22
102.0463	94
103.0549	165
104.0497	304
117.0565	85
118.0654	89
130.0658	62
