Mass spectrum: 3-Hydroxycarbamazepine; LC-ESI-QTOF; MS2; 100 V
Name: 3-Hydroxycarbamazepine
Class: Pharmaceutical; Transformation_product-Metabolite
Formula: C15H12N2O2
Exact mass: 252.0899
SMILES: NC(=O)N1c2ccccc2C=Cc3ccc(O)cc13
InChI: InChI=1S/C15H12N2O2/c16-15(19)17-13-4-2-1-3-10(13)5-6-11-7-8-12(18)9-14(11)17/h1-9,18H,(H2,16,19)
Instrument: TripleTOF 5600 SCIEX
Instrument type: LC-ESI-QTOF
Ms type: MS2
Ion mode: POSITIVE
Collision energy: 100
Fragmentation mode: CID
Ionization: ESI
Column name: Zorbax Eclipse Plus C18 2.1 mm x 150 mm, 3.5 um, Agilent
Retention time: 7.917 min
Precursor m/z: 253.0972
Precursor type: [M+H]+
m/z	relative intensity
44.0229	14
64.0329	16
65.0427	88
74.0179	85
75.0259	150
76.034	52
77.0414	349
78.0372	19
78.0488	48
85.0099	12
86.0162	39
87.025	101
88.0318	32
89.0409	513
90.0485	41
91.0563	27
98.0163	36
99.0234	52
100.0324	23
101.0393	155
102.0342	16
102.0477	99
103.0542	14
104.0495	18
110.0135	10
111.0244	18
113.0391	293
114.0337	41
114.0464	76
115.0551	314
116.0502	47
117.0574	19
123.0219	12
125.0392	83
126.0468	242
127.0544	247
128.0505	146
129.0535	10
137.038	68
138.0472	76
139.0549	888
139.0847	10
140.0499	548
141.0598	14
149.0388	30
150.0466	273
151.0547	599
152.0625	999
153.0589	57
153.0708	30
154.0651	76
161.0389	30
162.0478	65
163.0545	338
164.053	209
165.0646	112
166.0656	224
167.0733	39
175.0461	12
176.0508	34
177.0573	141
178.066	390
179.073	142
180.0812	106
181.0648	12
182.0608	12
188.0491	63
189.0579	70
190.0663	104
191.0721	43
206.0595	14
207.0647	10
