Mass spectrum: Dexpanthenol; LC-ESI-QTOF; MS2; 100 V
Name: Dexpanthenol
Formula: C9H19NO4
Exact mass: 205.1314
SMILES: CC(C)(CO)C(C(=O)NCCCO)O
InChI: InChI=1S/C9H19NO4/c1-9(2,6-12)7(13)8(14)10-4-3-5-11/h7,11-13H,3-6H2,1-2H3,(H,10,14)
Instrument: TripleTOF 6600 SCIEX
Instrument type: LC-ESI-QTOF
Ms type: MS2
Ion mode: POSITIVE
Collision energy: 100
Fragmentation mode: CID
Ionization: ESI
Column name: Zorbax Eclipse Plus C18 2.1 mm x 150 mm, 3.5 um, Agilent
Retention time: 4.791 min
Precursor m/z: 206.1387
Precursor type: [M+H]+
m/z	relative intensity
31.0176	149
37.0071	219
38.0157	229
39.0227	999
41.0374	129
42.0338	109
43.0171	269
56.0125	79
