Mass spectrum: Cyprodinil; LC-ESI-QTOF; MS2; 40 V
Name: Cyprodinil
Class: Fungicide
Formula: C14H15N3
Exact mass: 225.1266
SMILES: CC1=CC(=NC(=N1)NC2=CC=CC=C2)C3CC3
InChI: InChI=1S/C14H15N3/c1-10-9-13(11-7-8-11)17-14(15-10)16-12-5-3-2-4-6-12/h2-6,9,11H,7-8H2,1H3,(H,15,16,17)
Instrument: TripleTOF 6600 SCIEX
Instrument type: LC-ESI-QTOF
Ms type: MS2
Ion mode: POSITIVE
Collision energy: 40
Fragmentation mode: CID
Ionization: ESI
Column name: Zorbax Eclipse Plus C18 2.1 mm x 150 mm, 3.5 um, Agilent
Retention time: 10.83 min
Precursor m/z: 226.1339
Precursor type: [M+H]+
m/z	relative intensity
41.0382	10
42.0337	32
65.0382	98
66.0458	16
67.0414	12
67.0534	38
68.0491	30
77.0382	165
78.0331	10
79.0538	114
80.0489	49
81.0695	62
82.0645	31
84.0799	14
89.0381	20
91.0536	238
92.0493	169
93.0572	626
94.0646	36
104.0485	37
105.044	14
106.0645	225
107.0597	11
107.0715	20
108.0796	371
109.0751	23
115.0529	17
116.0487	98
117.0565	71
118.0533	258
119.0598	195
128.0495	14
130.064	12
131.0595	94
132.0677	98
133.0752	146
140.0478	10
142.0641	35
143.0595	100
144.0798	88
145.0751	46
156.0673	13
157.075	18
159.0901	40
165.0684	13
167.0713	74
168.0769	78
169.0741	44
170.0831	10
180.079	10
181.0769	28
182.0826	50
183.0854	52
184.0859	81
185.1064	45
191.0733	13
192.0786	13
193.0758	92
194.0831	93
196.0845	15
197.0936	25
198.1014	29
207.0907	65
208.0988	36
209.1067	83
210.1018	219
211.1099	35
224.1179	56
226.1338	999
