Mass spectrum: Rhein; LC-ESI-QTOF; MS2; 40 V
Name: Rhein
Class: Metabolite
Formula: C15H8O6
Exact mass: 284.0321
SMILES: C1=CC2=C(C(=C1)O)C(=O)C3=C(C=C(C=C3C2=O)C(=O)O)O
InChI: InChI=1S/C15H8O6/c16-9-3-1-2-7-11(9)14(19)12-8(13(7)18)4-6(15(20)21)5-10(12)17/h1-5,16-17H,(H,20,21)
Instrument: TripleTOF 5600 SCIEX
Instrument type: LC-ESI-QTOF
Ms type: MS2
Ion mode: POSITIVE
Collision energy: 40
Fragmentation mode: CID
Ionization: ESI
Column name: Zorbax Eclipse Plus C18 2.1 mm x 150 mm, 3.5 um, Agilent
Retention time: 10.796 min
Precursor m/z: 285.0394
Precursor type: [M+H]+
m/z	relative intensity
65.0376	39
77.0379	39
93.0318	66
115.0526	59
121.0278	379
127.0542	199
128.0611	99
129.0691	59
139.0534	193
141.0682	39
155.0483	472
157.065	179
165.0177	93
167.0498	139
169.0636	39
173.058	26
183.0424	572
184.0519	39
185.0585	93
193.0228	46
195.045	66
199.0388	33
211.038	339
213.0551	266
223.0388	53
229.0495	59
239.0328	366
241.0487	999
257.0457	59
267.028	506
285.0382	812
