Mass spectrum: 2-(3-Hydroxyquinolin-2-yl)indene-1,3-dione; LC-ESI-QTOF; MS2; 10 V
Name: 2-(3-Hydroxyquinolin-2-yl)indene-1,3-dione
Class: Industrial_process; Personal_care_product; Pigment
Formula: C18H11NO3
Exact mass: 289.0739
SMILES: C1=CC=C2C(=C1)C=C(C(=N2)C3C(=O)C4=CC=CC=C4C3=O)O
InChI: InChI=1S/C18H11NO3/c20-14-9-10-5-1-4-8-13(10)19-16(14)15-17(21)11-6-2-3-7-12(11)18(15)22/h1-9,15,20H
Instrument: TripleTOF 6600 SCIEX
Instrument type: LC-ESI-QTOF
Ms type: MS2
Ion mode: POSITIVE
Collision energy: 10
Fragmentation mode: CID
Ionization: ESI
Column name: Zorbax Eclipse Plus C18 2.1 mm x 150 mm, 3.5 um, Agilent
Retention time: 14.718 min
Precursor m/z: 290.0812
Precursor type: [M+H]+
m/z	relative intensity
290.0802	999
