Mass spectrum: Reserpine; LC-ESI-QTOF; MS2; 120 V
Name: Reserpine
Class: Natural_product; Pharmaceutical
Formula: C33H40N2O9
Exact mass: 608.2734
SMILES: COC1C(CC2CN3CCC4=C(C3CC2C1C(=O)OC)NC5=C4C=CC(=C5)OC)OC(=O)C6=CC(=C(C(=C6)OC)OC)OC
InChI: InChI=1S/C33H40N2O9/c1-38-19-7-8-20-21-9-10-35-16-18-13-27(44-32(36)17-11-25(39-2)30(41-4)26(12-17)40-3)31(42-5)28(33(37)43-6)22(18)15-24(35)29(21)34-23(20)14-19/h7-8,11-12,14,18,22,24,27-28,31,34H,9-10,13,15-16H2,1-6H3
Instrument: TripleTOF 5600 SCIEX
Instrument type: LC-ESI-QTOF
Ms type: MS2
Ion mode: POSITIVE
Collision energy: 120
Fragmentation mode: CID
Ionization: ESI
Column name: Zorbax Eclipse Plus C18 2.1 mm x 150 mm, 3.5 um, Agilent
Retention time: 8.6 min
Precursor m/z: 609.2807
Precursor type: [M+H]+
m/z	relative intensity
65.0454	29
66.0528	18
67.061	16
77.0443	163
78.0513	31
79.0594	74
80.0548	23
81.0385	151
81.0757	13
89.0435	27
90.0513	18
91.0581	121
92.0294	26
93.0383	13
93.061	20
94.0108	10
94.0447	39
94.0691	15
95.0525	37
96.0608	55
102.0488	13
103.0577	88
104.0556	44
105.0349	20
105.0628	36
106.0443	19
106.0685	21
107.0154	61
107.0508	20
108.06	33
109.0313	79
109.0662	28
115.0567	206
116.0621	69
117.0597	184
118.0666	53
119.0506	10
120.0814	13
121.0302	98
121.0662	24
122.038	83
123.0468	22
124.0542	51
127.055	35
128.0595	69
129.0589	15
129.0702	20
130.0667	816
131.0745	999
132.0474	56
132.0824	35
133.0527	17
134.0373	13
137.025	148
139.0552	11
139.0765	29
140.0498	10
141.0587	31
142.0662	100
143.0742	407
144.058	17
144.0816	110
145.0535	54
145.0897	30
146.0609	82
146.0986	10
147.0732	44
148.0776	15
151.0398	173
152.0482	140
153.068	21
154.0662	89
155.0739	52
156.079	72
157.0879	31
158.0609	149
159.0687	491
160.0762	63
165.0688	25
166.0674	18
167.0735	98
168.0813	70
169.0548	13
169.0821	23
170.0605	93
171.0673	26
172.0762	60
173.0838	75
174.0917	166
178.0652	12
179.0753	21
180.0806	72
181.088	47
182.0576	32
182.0861	25
183.0692	33
184.0742	72
184.0992	10
185.0829	21
186.0891	31
189.0728	15
191.0733	49
192.0802	79
193.0861	50
194.0944	59
195.0654	50
196.0741	54
197.076	19
198.091	24
199.0871	38
202.0783	18
203.0776	23
204.081	103
205.0877	60
206.063	11
206.0945	52
207.0914	57
208.0761	49
208.1005	23
209.0863	16
210.0888	37
212.0987	12
213.1008	10
215.0802	13
216.0815	26
217.0882	96
218.0971	85
219.0965	70
220.0773	67
221.0821	61
222.0906	62
223.0908	36
224.1045	35
228.0803	18
229.0883	15
230.0966	62
231.1041	30
232.0748	39
232.1092	22
233.0829	27
233.1135	18
234.0881	50
235.0883	45
236.0945	70
237.1003	18
238.1073	15
241.0885	18
242.0946	18
243.1033	16
244.0756	10
244.1086	20
245.0871	23
246.0889	78
247.0953	36
248.1061	25
249.0981	37
250.1075	23
251.1177	29
254.0962	12
258.0889	20
259.0986	13
260.1031	33
261.1118	10
262.1035	25
262.1189	13
263.1162	10
264.0965	11
274.1205	11
