Mass spectrum: Mebendazole; LC-ESI-QTOF; MS2; 90 V
Name: Mebendazole
Class: Pharmaceutical
Formula: C16H13N3O3
Exact mass: 295.0957
SMILES: COC(=O)Nc1[nH]c2cc(ccc2n1)C(=O)c3ccccc3
InChI: InChI=1S/C16H13N3O3/c1-22-16(21)19-15-17-12-8-7-11(9-13(12)18-15)14(20)10-5-3-2-4-6-10/h2-9H,1H3,(H2,17,18,19,21)
Instrument: TripleTOF 5600 SCIEX
Instrument type: LC-ESI-QTOF
Ms type: MS2
Ion mode: POSITIVE
Collision energy: 90
Fragmentation mode: CID
Ionization: ESI
Column name: Zorbax Eclipse Plus C18 2.1 mm x 150 mm, 3.5 um, Agilent
Retention time: 8.672 min
Precursor m/z: 296.103
Precursor type: [M+H]+
m/z	relative intensity
76.0208	66
77.0416	999
78.0367	58
103.0291	55
104.037	143
105.0446	142
115.0534	15
127.0543	21
130.0395	64
131.048	50
132.0556	12
139.0543	35
140.0489	31
159.0435	21
164.0482	11
166.0648	12
