Mass spectrum: 3-Phenylpyridine; LC-ESI-QTOF; MS2; 60 V
Name: 3-Phenylpyridine
Formula: C11H9N
Exact mass: 155.0735
SMILES: C1=CC=C(C=C1)C2=CN=CC=C2
InChI: InChI=1S/C11H9N/c1-2-5-10(6-3-1)11-7-4-8-12-9-11/h1-9H
Instrument: TripleTOF X500R SCIEX
Instrument type: LC-ESI-QTOF
Ms type: MS2
Ion mode: POSITIVE
Collision energy: 60
Fragmentation mode: CID
Ionization: ESI
Column name: Zorbax Eclipse Plus C18 2.1 mm x 150 mm, 3.5 um, Agilent
Retention time: 5.684 min
Precursor m/z: 156.0808
Precursor type: [M+H]+
m/z	relative intensity
39.0232	13
50.0151	174
51.023	723
52.0182	16
52.0307	105
53.0385	21
63.0228	27
65.0394	13
74.0157	14
75.023	64
76.0317	38
77.0385	501
78.0397	226
79.0418	94
89.0392	59
90.0467	21
98.0147	11
99.0244	12
101.0389	98
102.0468	497
103.0538	30
104.0504	37
113.0392	16
115.0553	30
117.0557	18
125.0397	16
126.0469	295
127.0546	612
128.062	999
153.0566	19
154.0657	109
155.0628	20
156.0819	10
