Mass spectrum: Octhilinone; LC-ESI-QTOF; MS2; 50 V
Name: Octhilinone
Class: Fungicide; Antimicrobial; Biocide
Formula: C11H19NOS
Exact mass: 213.1187
SMILES: CCCCCCCCN1C(=O)C=CS1
InChI: InChI=1S/C11H19NOS/c1-2-3-4-5-6-7-9-12-11(13)8-10-14-12/h8,10H,2-7,9H2,1H3
Instrument: TripleTOF 6600 SCIEX
Instrument type: LC-ESI-QTOF
Ms type: MS2
Ion mode: POSITIVE
Collision energy: 50
Fragmentation mode: CID
Ionization: ESI
Column name: Zorbax Eclipse Plus C18 2.1 mm x 150 mm, 3.5 um, Agilent
Retention time: 11.855 min
Precursor m/z: 214.126
Precursor type: [M+H]+
m/z	relative intensity
37.0078	23
38.003	16
38.0154	21
39.0234	180
41.0392	398
43.0548	334
44.0138	13
47.9907	17
55.0545	25
56.9796	182
57.0705	94
58.9953	98
74.0061	29
83.9906	264
84.9746	117
102.0013	999
