Mass spectrum: Reactive Orange; LC-ESI-QTOF; MS2; 40 V
Name: Reactive Orange
Formula: C20H19N3O11S3
Exact mass: 573.0182
SMILES: CC(=O)NC1=CC2=C(C(=C(C=C2C=C1)S(=O)(=O)O)N=NC3=CC=C(C=C3)S(=O)(=O)CCOS(=O)(=O)O)O
InChI: InChI=1S/C20H19N3O11S3/c1-12(24)21-15-3-2-13-10-18(36(28,29)30)19(20(25)17(13)11-15)23-22-14-4-6-16(7-5-14)35(26,27)9-8-34-37(31,32)33/h2-7,10-11,25H,8-9H2,1H3,(H,21,24)(H,28,29,30)(H,31,32,33)
Instrument: TripleTOF 6600 SCIEX
Instrument type: LC-ESI-QTOF
Ms type: MS2
Ion mode: POSITIVE
Collision energy: 40
Fragmentation mode: CID
Ionization: ESI
Column name: Zorbax Eclipse Plus C18 2.1 mm x 150 mm, 3.5 um, Agilent
Retention time: 5.751 min
Precursor m/z: 574.0255
Precursor type: [M+H]+
m/z	relative intensity
74.989	27
81.0324	25
93.0559	11
108.0439	929
136.0746	73
156.0092	28
159.054	25
170.0462	378
171.0531	50
200.0365	27
211.0483	21
212.0582	139
213.0653	150
214.0478	24
233.087	28
260.0808	31
261.0895	425
262.0752	13
275.0929	29
277.098	15
281.0009	36
302.0905	272
303.1004	800
304.1056	25
343.0743	30
352.0764	19
358.0831	37
366.0533	73
367.0641	93
368.0681	57
370.0877	73
385.0764	57
386.0793	200
394.0838	81
400.0933	89
412.0962	517
428.0922	46
434.0495	14
438.0375	23
458.0488	62
466.0356	274
476.0577	999
480.052	68
508.0477	34
556.013	439
