Mass spectrum: Lapatinib; LC-ESI-QTOF; MS2; 80 V
Name: Lapatinib
Class: Pharmaceutical
Formula: C29H26ClFN4O4S
Exact mass: 580.1347
SMILES: CS(=O)(CCNCC1=CC=C(C2=CC3=C(N=CN=C3NC4=CC(Cl)=C(OCC5=CC(F)=CC=C5)C=C4)C=C2)O1)=O
InChI: InChI=1S/C29H26ClFN4O4S/c1-40(36,37)12-11-32-16-23-7-10-27(39-23)20-5-8-26-24(14-20)29(34-18-33-26)35-22-6-9-28(25(30)15-22)38-17-19-3-2-4-21(31)13-19/h2-10,13-15,18,32H,11-12,16-17H2,1H3,(H,33,34,35)
Instrument: TripleTOF 5600 SCIEX
Instrument type: LC-ESI-QTOF
Ms type: MS2
Ion mode: NEGATIVE
Collision energy: 80
Fragmentation mode: CID
Ionization: ESI
Column name: Zorbax Eclipse Plus C18 2.1 mm x 150 mm, 3.5 um, Agilent
Retention time: 8.263 min
Precursor m/z: 579.1275
Precursor type: [M-H]-
m/z	relative intensity
220.0536	999
233.056	58
233.0725	58
242.0754	156
244.088	58
255.0763	58
258.062	58
268.0201	58
269.0468	97
270.0726	78
271.081	97
272.0856	78
282.0631	78
283.0777	137
284.0817	97
292.0267	78
294.0659	58
310.0563	58
311.0692	97
312.0689	58
313.0893	97
318.0445	137
325.1172	97
327.0921	137
346.0353	235
347.0476	391
348.0588	293
349.0603	156
361.061	391
362.0618	137
363.0669	78
