Mass spectrum: Furosemide; LC-ESI-QTOF; MS2; 100 V
Name: Furosemide
Class: Pharmaceutical
Formula: C12H11ClN2O5S
Exact mass: 330.0077
SMILES: N[S](=O)(=O)c1cc(C(O)=O)c(NCc2occc2)cc1Cl
InChI: InChI=1S/C12H11ClN2O5S/c13-9-5-10(15-6-7-2-1-3-20-7)8(12(16)17)4-11(9)21(14,18)19/h1-5,15H,6H2,(H,16,17)(H2,14,18,19)
Instrument: TripleTOF 5600 SCIEX
Instrument type: LC-ESI-QTOF
Ms type: MS2
Ion mode: NEGATIVE
Collision energy: 100
Fragmentation mode: CID
Ionization: ESI
Column name: Zorbax Eclipse Plus C18 2.1 mm x 150 mm, 3.5 um, Agilent
Retention time: 8.893 min
Precursor m/z: 329.0004
Precursor type: [M-H]-
m/z	relative intensity
34.9733	140
47.9678	52
61.9714	192
63.963	262
76.022	52
77.9656	999
78.9724	87
79.9791	52
90.0345	70
94.0292	192
104.0389	105
115.03	122
