Mass spectrum: Omeprazole sulfide 5-carboxylic acid; LC-ESI-QTOF; MS2; 130 V
Name: Omeprazole sulfide 5-carboxylic acid
Class: Metabolite; Pharmaceutical
Formula: C17H17N3O4S
Exact mass: 359.094
SMILES: CC1=C(C(=CN=C1CSC2=NC3=C(N2)C=C(C=C3)OC)C(=O)O)OC
InChI: InChI=1S/C17H17N3O4S/c1-9-14(18-7-11(16(21)22)15(9)24-3)8-25-17-19-12-5-4-10(23-2)6-13(12)20-17/h4-7H,8H2,1-3H3,(H,19,20)(H,21,22)
Instrument: TripleTOF 5600 SCIEX
Instrument type: LC-ESI-QTOF
Ms type: MS2
Ion mode: POSITIVE
Collision energy: 130
Fragmentation mode: CID
Ionization: ESI
Column name: Zorbax Eclipse Plus C18 2.1 mm x 150 mm, 3.5 um, Agilent
Retention time: 5.75 min
Precursor m/z: 360.1013
Precursor type: [M+H]+
m/z	relative intensity
42.0434	90
43.0275	53
50.0233	63
52.0266	26
52.0389	234
53.0099	67
53.048	130
54.0419	23
62.0227	26
63.0294	113
64.0238	13
64.0362	30
65.0453	258
66.0401	207
67.0486	73
68.056	16
68.9847	67
69.9924	36
75.0263	20
76.0276	23
77.0439	432
78.0385	328
79.0217	16
79.0472	817
80.0179	67
80.0536	244
81.9919	20
82.9992	63
83.9956	16
89.0417	33
90.036	20
91.0442	60
92.0524	164
93.0484	244
94.0685	40
94.9985	30
96.0055	43
97.0135	97
104.0548	46
105.0476	137
106.0323	26
106.0648	999
107.0755	80
108.0453	16
108.0843	30
110.0093	93
111.0157	13
122.0071	43
123.0171	20
124.0222	23
134.0076	36
134.0496	80
136.0271	13
137.0177	221
152.0165	23
165.0146	13
166.054	13
167.0655	23
178.0018	13
194.069	20
