Mass spectrum: Pencycuron; LC-ESI-QTOF; MS2; 120 V
Name: Pencycuron
Class: Fungicide
Formula: C19H21ClN2O
Exact mass: 328.1342
SMILES: C1CCC(C1)N(CC2=CC=C(C=C2)Cl)C(=O)NC3=CC=CC=C3
InChI: InChI=1S/C19H21ClN2O/c20-16-12-10-15(11-13-16)14-22(18-8-4-5-9-18)19(23)21-17-6-2-1-3-7-17/h1-3,6-7,10-13,18H,4-5,8-9,14H2,(H,21,23)
Instrument: TripleTOF 6600 SCIEX
Instrument type: LC-ESI-QTOF
Ms type: MS2
Ion mode: POSITIVE
Collision energy: 120
Fragmentation mode: CID
Ionization: ESI
Column name: Zorbax Eclipse Plus C18 2.1 mm x 150 mm, 3.5 um, Agilent
Retention time: 14.496 min
Precursor m/z: 329.1415
Precursor type: [M+H]+
m/z	relative intensity
37.0074	29
38.0152	29
39.0227	114
48.9835	54
51.0226	44
61.0067	69
62.0147	154
63.0223	521
64.0303	39
65.0373	34
72.9833	367
74.0143	24
74.9988	39
75.022	34
77.0377	39
89.0379	999
90.0452	159
98.9984	308
125.0143	84
