Mass spectrum: N-(1,3-Dimethylbutyl)-N`-phenyl-p-phenylenediamine; LC-ESI-QTOF; MS2; 80 V
Name: N-(1,3-Dimethylbutyl)-N`-phenyl-p-phenylenediamine
Class: Industrial_process
Formula: C18H24N2
Exact mass: 268.1939
SMILES: CC(C)CC(C)NC1=CC=C(C=C1)NC2=CC=CC=C2
InChI: InChI=1S/C18H24N2/c1-14(2)13-15(3)19-17-9-11-18(12-10-17)20-16-7-5-4-6-8-16/h4-12,14-15,19-20H,13H2,1-3H3
Instrument: TripleTOF 6600 SCIEX
Instrument type: LC-ESI-QTOF
Ms type: MS2
Ion mode: POSITIVE
Collision energy: 80
Fragmentation mode: CID
Ionization: ESI
Column name: Zorbax Eclipse Plus C18 2.1 mm x 150 mm, 3.5 um, Agilent
Retention time: 9.189 min
Precursor m/z: 269.2012
Precursor type: [M+H]+
m/z	relative intensity
39.0222	16
41.0379	13
51.0219	21
53.0378	117
63.0221	42
65.0376	61
66.0456	86
67.0406	9
77.0376	54
78.0331	18
79.0407	15
80.0491	999
81.056	31
89.038	11
90.0328	31
91.0404	42
92.0485	29
93.0564	148
105.0437	19
106.0645	9
107.0598	697
108.067	23
115.0531	53
117.0567	18
118.0521	43
127.0534	17
128.06	39
129.0688	23
130.0639	34
139.0536	117
140.0498	82
143.0715	17
154.0646	28
155.0693	15
156.0795	43
166.0645	215
167.0721	168
168.0701	39
169.0791	15
181.0759	53
182.0832	74
183.0911	51
184.0995	26
