Mass spectrum: Cladribine; LC-ESI-QTOF; MS2; 90 V
Name: Cladribine
Class: Pharmaceutical
Formula: C10H12ClN5O3
Exact mass: 285.0629
SMILES: Nc1nc(Cl)nc2n(cnc12)[C@H]3C[C@H](O)[C@@H](CO)O3
InChI: InChI=1S/C10H12ClN5O3/c11-10-14-8(12)7-9(15-10)16(3-13-7)6-1-4(18)5(2-17)19-6/h3-6,17-18H,1-2H2,(H2,12,14,15)/t4-,5+,6+/m0/s1
Instrument: TripleTOF 5600 SCIEX
Instrument type: LC-ESI-QTOF
Ms type: MS2
Ion mode: NEGATIVE
Collision energy: 90
Fragmentation mode: CID
Ionization: ESI
Column name: Zorbax Eclipse Plus C18 2.1 mm x 150 mm, 3.5 um, Agilent
Retention time: 5.112 min
Precursor m/z: 284.0556
Precursor type: [M-H]-
m/z	relative intensity
34.9703	66
66.01	999
67.0089	66
90.0082	66
131.0192	199
132.0378	66
