Mass spectrum: Dronabinol; LC-ESI-QTOF; MS2; 30 V
Name: Dronabinol
Class: Pharmaceutical
Formula: C21H30O2
Exact mass: 314.2246
SMILES: CCCCCC1=CC(=C2C3C=C(CCC3C(OC2=C1)(C)C)C)O
InChI: InChI=1S/C21H30O2/c1-5-6-7-8-15-12-18(22)20-16-11-14(2)9-10-17(16)21(3,4)23-19(20)13-15/h11-13,16-17,22H,5-10H2,1-4H3
Instrument: TripleTOF 6600 SCIEX
Instrument type: LC-ESI-QTOF
Ms type: MS2
Ion mode: POSITIVE
Collision energy: 30
Fragmentation mode: CID
Ionization: ESI
Column name: Zorbax Eclipse Plus C18 2.1 mm x 150 mm, 3.5 um, Agilent
Retention time: 17.589 min
Precursor m/z: 315.2319
Precursor type: [M+H]+
m/z	relative intensity
43.0537	18
67.0536	18
69.069	35
71.0839	13
77.0376	19
79.053	36
81.0689	180
91.0532	23
93.0688	184
95.0847	12
105.0694	11
107.084	107
109.0644	10
109.1	84
111.0429	23
119.0844	13
121.0637	16
123.0432	151
123.1161	28
135.1155	214
137.0592	39
149.0591	14
151.0734	25
159.0774	12
163.0737	19
165.0903	45
177.0895	18
177.1263	35
181.121	77
189.089	21
193.122	999
205.1197	13
207.1378	130
217.1205	81
219.1368	31
221.1536	121
227.1419	16
231.1368	142
233.153	171
235.169	169
241.1577	19
245.1537	52
247.169	121
259.1696	478
273.1852	48
315.2321	418
