Mass spectrum: Tiamulin; LC-ESI-QTOF; MS2; 40 V
Name: Tiamulin
Class: Antimicrobial; Pharmaceutical
Formula: C28H47NO4S
Exact mass: 493.3226
SMILES: CCN(CC)CCSCC(=O)OC1CC(C(C(C23CCC(C1(C2C(=O)CC3)C)C)C)O)(C)C=C
InChI: InChI=1S/C28H47NO4S/c1-8-26(6)17-22(33-23(31)18-34-16-15-29(9-2)10-3)27(7)19(4)11-13-28(20(5)25(26)32)14-12-21(30)24(27)28/h8,19-20,22,24-25,32H,1,9-18H2,2-7H3
Instrument: TripleTOF 6600 SCIEX
Instrument type: LC-ESI-QTOF
Ms type: MS2
Ion mode: POSITIVE
Collision energy: 40
Fragmentation mode: CID
Ionization: ESI
Column name: Zorbax Eclipse Plus C18 2.1 mm x 150 mm, 3.5 um, Agilent
Retention time: 8.661 min
Precursor m/z: 494.3299
Precursor type: [M+H]+
m/z	relative intensity
73.0099	27
74.0954	38
81.069	22
93.0688	11
95.0844	18
105.0687	12
107.0841	17
109.0999	15
119.0152	259
121.1003	19
133.0997	26
135.1148	10
145.0993	15
147.1155	23
149.0947	21
149.1299	10
157.1	10
159.1148	20
161.1308	13
163.1105	69
171.1158	13
173.1316	18
175.1106	16
175.1462	15
177.1258	25
185.1312	13
187.1473	15
192.1045	999
197.1308	11
201.162	11
203.1412	12
211.1461	14
221.1521	10
227.1781	16
229.1939	12
245.1898	26
257.2267	10
267.2115	24
285.2203	36
303.2308	13
494.3315	74
