Mass spectrum: Methyl-tris(4-fluorophenyl)phosphonium; LC-ESI-QTOF; MS2; 130 V
Name: Methyl-tris(4-fluorophenyl)phosphonium
Class: Industrial_process
Formula: [C19H15F3P]+
Exact mass: 331.0858
SMILES: C[P+](c1ccc(F)cc1)(c2ccc(F)cc2)c3ccc(F)cc3
InChI: InChI=1S/C19H15F3P/c1-23(17-8-2-14(20)3-9-17,18-10-4-15(21)5-11-18)19-12-6-16(22)7-13-19/h2-13H,1H3/q+1
Instrument: TripleTOF 5600 SCIEX
Instrument type: LC-ESI-QTOF
Ms type: MS2
Ion mode: POSITIVE
Collision energy: 130
Fragmentation mode: CID
Ionization: ESI
Column name: Zorbax Eclipse Plus C18 2.1 mm x 150 mm, 3.5 um, Agilent
Retention time: 7.52 min
Precursor m/z: 331.0858
Precursor type: [M]+
m/z	relative intensity
57.0184	58
68.9743	70
74.0184	316
74.9818	312
75.0251	175
76.0323	74
78.9744	97
79.9823	202
83.0311	78
87.0236	66
91.9811	54
98.0156	382
98.9801	351
99.0243	152
100.0313	66
103.9802	74
107.0045	58
107.0296	101
110.0145	62
111.0239	62
120.0367	66
122.0163	183
122.9804	89
123.0227	222
124.0308	101
124.9947	999
133.048	50
144.0374	128
149.0395	230
150.0457	589
151.0379	54
155.0264	50
157.0455	58
167.0276	74
168.0363	636
169.0449	265
170.0512	152
175.0124	78
179.0042	159
180.0126	58
187.0365	85
188.0436	202
196.9947	117
198.0037	105
199.0101	308
217.0014	74
219.0168	54
