Mass spectrum: 4-Methoxycinnamaldehyde; LC-ESI-QTOF; MS2; 70 V
Name: 4-Methoxycinnamaldehyde
Formula: C10H10O2
Exact mass: 162.0681
SMILES: COC1=CC=C(C=C1)C=CC=O
InChI: InChI=1S/C10H10O2/c1-12-10-6-4-9(5-7-10)3-2-8-11/h2-8H,1H3
Instrument: TripleTOF 6600 SCIEX
Instrument type: LC-ESI-QTOF
Ms type: MS2
Ion mode: POSITIVE
Collision energy: 70
Fragmentation mode: CID
Ionization: ESI
Column name: Zorbax Eclipse Plus C18 2.1 mm x 150 mm, 3.5 um, Agilent
Retention time: 9.471 min
Precursor m/z: 163.0754
Precursor type: [M+H]+
m/z	relative intensity
37.007	68
38.0154	48
39.023	421
40.0276	48
50.0153	176
51.0236	352
52.0284	58
61.0072	48
62.0155	78
63.023	244
64.028	58
65.0387	999
66.0433	137
74.0154	58
75.0206	58
76.0314	117
77.0401	274
78.0453	117
89.04	166
90.0417	78
91.055	910
92.0586	244
102.0472	146
