Mass spectrum: 2,2,4-Trimethyl-1,2-dihydroquinoline; LC-ESI-QTOF; MS2; 90 V
Name: 2,2,4-Trimethyl-1,2-dihydroquinoline
Class: Industrial_process
Formula: C12H15N
Exact mass: 173.1204
SMILES: CC1=CC(NC2=CC=CC=C12)(C)C
InChI: InChI=1S/C12H15N/c1-9-8-12(2,3)13-11-7-5-4-6-10(9)11/h4-8,13H,1-3H3
Instrument: TripleTOF 6600 SCIEX
Instrument type: LC-ESI-QTOF
Ms type: MS2
Ion mode: POSITIVE
Collision energy: 90
Fragmentation mode: CID
Ionization: ESI
Column name: Zorbax Eclipse Plus C18 2.1 mm x 150 mm, 3.5 um, Agilent
Retention time: 12.497 min
Precursor m/z: 174.1277
Precursor type: [M+H]+
m/z	relative intensity
35.9988	23
37.0067	153
38.002	13
38.0143	129
39.0225	785
41.0376	41
42.0329	15
49.0062	33
50.0144	400
51.0223	999
52.0291	20
53.0372	10
61.006	31
62.0139	126
63.022	419
64.0297	27
65.0375	330
74.0139	140
75.0216	132
76.0294	36
77.0375	462
78.0449	12
86.0129	17
87.0206	17
89.0374	588
90.0448	52
91.0526	81
98.0127	10
101.0367	18
102.0448	48
103.0527	27
113.0363	10
115.0527	374
116.048	16
117.0558	23
126.0446	22
127.0515	18
128.0486	13
128.0601	15
130.0629	10
140.047	10
143.0711	11
