Mass spectrum: Noramidopyrine; LC-ESI-QTOF; MS2; 90 V
Name: Noramidopyrine
Class: Pharmaceutical; Transformation_product-Metabolite
Formula: C12H15N3O
Exact mass: 217.1215
SMILES: CC1=C(C(=O)N(N1C)C2=CC=CC=C2)NC
InChI: InChI=1S/C12H15N3O/c1-9-11(13-2)12(16)15(14(9)3)10-7-5-4-6-8-10/h4-8,13H,1-3H3
Instrument: TripleTOF 6600 SCIEX
Instrument type: LC-ESI-QTOF
Ms type: MS2
Ion mode: POSITIVE
Collision energy: 90
Fragmentation mode: CID
Ionization: ESI
Column name: Zorbax Eclipse Plus C18 2.1 mm x 150 mm, 3.5 um, Agilent
Retention time: 4.819 min
Precursor m/z: 218.1288
Precursor type: [M+H]+
m/z	relative intensity
37.0079	14
38.015	17
39.0231	59
40.0178	13
41.0261	129
41.0383	13
42.034	180
43.0419	14
44.0496	21
50.0152	75
51.0231	190
52.0183	11
54.0335	27
56.0498	999
65.0383	26
74.0134	10
77.0386	74
83.0599	47
89.0385	13
