Mass spectrum: Celiprolol; LC-ESI-QTOF; MS2; 90 V
Name: Celiprolol
Class: Pharmaceutical
Formula: C20H33N3O4
Exact mass: 379.2471
SMILES: CCN(CC)C(=O)NC1=CC(=C(C=C1)OCC(CNC(C)(C)C)O)C(=O)C
InChI: InChI=1S/C20H33N3O4/c1-7-23(8-2)19(26)22-15-9-10-18(17(11-15)14(3)24)27-13-16(25)12-21-20(4,5)6/h9-11,16,21,25H,7-8,12-13H2,1-6H3,(H,22,26)
Instrument: TripleTOF 5600 SCIEX
Instrument type: LC-ESI-QTOF
Ms type: MS2
Ion mode: NEGATIVE
Collision energy: 90
Fragmentation mode: CID
Ionization: ESI
Column name: Zorbax Eclipse Plus C18 2.1 mm x 150 mm, 3.5 um, Agilent
Retention time: 6.532 min
Precursor m/z: 378.2398
Precursor type: [M-H]-
m/z	relative intensity
42.0003	55
59.018	111
78.0362	333
93.0351	388
106.0303	333
106.0439	55
118.0302	888
134.0235	610
134.0607	721
135.0472	55
148.0782	111
160.0407	999
161.0598	55
174.0585	388
176.0324	333
176.068	111
176.0755	166
