Mass spectrum: Triphenylphosphine sulfide; LC-ESI-QTOF; MS2; 90 V
Name: Triphenylphosphine sulfide
Class: Industrial_process
Formula: C18H15PS
Exact mass: 294.0632
SMILES: S=[P](c1ccccc1)(c2ccccc2)c3ccccc3
InChI: InChI=1S/C18H15PS/c20-19(16-10-4-1-5-11-16,17-12-6-2-7-13-17)18-14-8-3-9-15-18/h1-15H
Instrument: TripleTOF 5600 SCIEX
Instrument type: LC-ESI-QTOF
Ms type: MS2
Ion mode: POSITIVE
Collision energy: 90
Fragmentation mode: CID
Ionization: ESI
Column name: Zorbax Eclipse Plus C18 2.1 mm x 150 mm, 3.5 um, Agilent
Retention time: 14.508 min
Precursor m/z: 295.0705
Precursor type: [M+H]+
m/z	relative intensity
51.0303	139
56.9939	23
62.95	999
62.9855	16
67.9858	16
77.0408	169
77.0643	19
79.9822	26
80.9917	53
89.0399	36
95.0048	43
102.0479	26
107.0052	833
108.0127	36
113.0376	16
115.0539	255
126.0462	46
131.0032	13
133.0199	66
138.976	106
139.0544	209
150.0508	13
151.0546	119
152.0619	882
153.0706	19
156.0128	19
157.0202	368
170.0276	29
181.0198	129
182.0289	26
183.0347	531
