Mass spectrum: Crotamiton; LC-ESI-QTOF; MS2; 120 V
Name: Crotamiton
Formula: C13H17NO
Exact mass: 203.131
SMILES: CCN(C1=CC=CC=C1C)C(=O)C=CC
InChI: InChI=1S/C13H17NO/c1-4-8-13(15)14(5-2)12-10-7-6-9-11(12)3/h4,6-10H,5H2,1-3H3
Instrument: TripleTOF 6600 SCIEX
Instrument type: LC-ESI-QTOF
Ms type: MS2
Ion mode: POSITIVE
Collision energy: 120
Fragmentation mode: CID
Ionization: ESI
Column name: Zorbax Eclipse Plus C18 2.1 mm x 150 mm, 3.5 um, Agilent
Retention time: 11.073 min
Precursor m/z: 204.1383
Precursor type: [M+H]+
m/z	relative intensity
35.9994	63
37.0075	355
38.0048	11
38.0152	299
39.0233	999
41.0385	42
49.007	13
50.0149	128
51.023	184
61.007	38
62.0148	65
63.0225	85
65.0386	51
74.0146	39
75.0226	17
77.0378	72
89.0376	36
