Mass spectrum: Miconazole; LC-ESI-QTOF; MS2; 140 V
Name: Miconazole
Class: Fungicide
Formula: C18H14Cl4N2O
Exact mass: 413.986
SMILES: Clc1ccc(COC(Cn2ccnc2)c3ccc(Cl)cc3Cl)c(Cl)c1
InChI: InChI=1S/C18H14Cl4N2O/c19-13-2-1-12(16(21)7-13)10-25-18(9-24-6-5-23-11-24)15-4-3-14(20)8-17(15)22/h1-8,11,18H,9-10H2
Instrument: TripleTOF 5600 SCIEX
Instrument type: LC-ESI-QTOF
Ms type: MS2
Ion mode: POSITIVE
Collision energy: 140
Fragmentation mode: CID
Ionization: ESI
Column name: Zorbax Eclipse Plus C18 2.1 mm x 150 mm, 3.5 um, Agilent
Retention time: 10.658 min
Precursor m/z: 414.9933
Precursor type: [M+H]+
m/z	relative intensity
48.9897	11
69.0477	16
72.9874	446
75.0262	16
81.0469	46
82.9466	48
87.0246	23
88.0319	79
89.0408	999
96.9849	144
99	185
102.046	16
106.9443	20
122.9992	288
124.0066	75
132.9599	96
158.9763	69
