Mass spectrum: Losartan carboxylic acid; LC-ESI-QTOF; MS2; 120 V
Name: Losartan carboxylic acid
Class: Pharmaceutical
Formula: C22H21ClN6O2
Exact mass: 436.1415
SMILES: CCCCc1nc(Cl)c(n1Cc2ccc(cc2)c3ccccc3c4n[nH]nn4)C(O)=O
InChI: InChI=1S/C22H21ClN6O2/c1-2-3-8-18-24-20(23)19(22(30)31)29(18)13-14-9-11-15(12-10-14)16-6-4-5-7-17(16)21-25-27-28-26-21/h4-7,9-12H,2-3,8,13H2,1H3,(H,30,31)(H,25,26,27,28)
Instrument: TripleTOF 5600 SCIEX
Instrument type: LC-ESI-QTOF
Ms type: MS2
Ion mode: POSITIVE
Collision energy: 120
Fragmentation mode: CID
Ionization: ESI
Column name: Zorbax Eclipse Plus C18 2.1 mm x 150 mm, 3.5 um, Agilent
Retention time: 10.786 min
Precursor m/z: 437.1487
Precursor type: [M+H]+
m/z	relative intensity
75.0262	18
77.0417	122
87.0252	12
89.0407	32
99.024	11
101.0393	21
102.0338	11
102.0474	24
113.0388	59
114.0337	12
114.0463	23
115.0551	72
125.039	43
126.0465	71
127.0548	154
128.0484	17
128.0625	56
137.0388	41
138.047	64
139.0548	92
140.0502	136
141.0583	14
149.0392	23
150.047	195
151.055	735
152.0628	999
153.064	82
161.039	20
162.0469	74
163.0551	377
164.052	399
165.0694	141
166.065	33
175.0557	12
176.0627	291
177.0624	241
178.0671	314
179.0731	41
180.0818	25
188.0493	107
189.0581	71
190.0657	283
191.0603	42
192.0685	20
203.0603	11
204.0689	16
205.0769	226
