Mass spectrum: Roxithromycine; LC-ESI-QTOF; MS2; 110 V
Name: Roxithromycine
Class: Pharmaceutical
Formula: C41H76N2O15
Exact mass: 836.5246
SMILES: CC[C@@H]1[C@@]([C@@H]([C@H](/C(=N/OCOCCOC)/[C@@H](C[C@@]([C@@H]([C@H]([C@@H]([C@H](C(=O)O1)C)O[C@H]2C[C@@]([C@H]([C@@H](O2)C)O)(C)OC)C)O[C@H]3[C@@H]([C@H](C[C@H](O3)C)N(C)C)O)(C)O)C)C)O)(C)O
InChI: InChI=1S/C41H76N2O15/c1-15-29-41(10,49)34(45)24(4)31(42-53-21-52-17-16-50-13)22(2)19-39(8,48)36(58-38-32(44)28(43(11)12)18-23(3)54-38)25(5)33(26(6)37(47)56-29)57-30-20-40(9,51-14)35(46)27(7)55-30/h22-30,32-36,38,44-46,48-49H,15-21H2,1-14H3/b42-31+/t22-,23-,24+,25+,26-,27+,28+,29-,30+,32-,33+,34-,35+,36-,38+,39-,40-,41-/m1/s1
Instrument: TripleTOF 5600 SCIEX
Instrument type: LC-ESI-QTOF
Ms type: MS2
Ion mode: POSITIVE
Collision energy: 110
Fragmentation mode: CID
Ionization: ESI
Column name: Zorbax Eclipse Plus C18 2.1 mm x 150 mm, 3.5 um, Agilent
Retention time: 8.911 min
Precursor m/z: 837.5318
Precursor type: [M+H]+
m/z	relative intensity
44.0573	20
45.0404	20
55.0579	99
59.0525	54
59.0602	16
72.0832	432
81.0716	24
83.0507	999
83.0794	45
84.0817	91
85.0304	20
87.0444	149
87.0581	16
87.0683	20
88.0763	129
88.0908	29
98.059	20
98.0961	536
99.1041	37
100.0747	37
109.0678	24
113.0581	33
114.0907	24
116.0686	237
116.1053	237
158.1161	124
