Mass spectrum: 4-Carboxy-9-acridanone; LC-ESI-QTOF; MS2; 80 V
Name: 4-Carboxy-9-acridanone
Class: Pharmaceutical; Antimicrobial
Formula: C14H9NO3
Exact mass: 239.0582
SMILES: c1ccc2c(c1)c(=O)c3cccc(c3[nH]2)C(=O)O
InChI: InChI=1S/C14H9NO3/c16-13-8-4-1-2-7-11(8)15-12-9(13)5-3-6-10(12)14(17)18/h1-7H,(H,15,16)(H,17,18)
Instrument: TripleTOF 5600 SCIEX
Instrument type: LC-ESI-QTOF
Ms type: MS2
Ion mode: NEGATIVE
Collision energy: 80
Fragmentation mode: CID
Ionization: ESI
Column name: Zorbax Eclipse Plus C18 2.1 mm x 150 mm, 3.5 um, Agilent
Retention time: 8.816 min
Precursor m/z: 238.051
Precursor type: [M-H]-
m/z	relative intensity
41.0052	55
42.0006	111
50.0082	111
65.004	166
65.9992	444
88.0195	277
89.0297	111
90.0413	111
116.053	55
138.0378	166
140.056	277
144.0446	222
163.0459	111
164.0507	999
165.0592	277
166.064	111
168.0464	555
192.0472	721
193.0532	222
194.0645	555
195.0667	111
