Mass spectrum: Carbofuran; LC-ESI-QTOF; MS2; 40 V
Name: Carbofuran
Class: Insecticide; Transformation_product; Acaricide
Formula: C12H15NO3
Exact mass: 221.1052
SMILES: CNC(=O)Oc1cccc2CC(C)(C)Oc12
InChI: InChI=1S/C12H15NO3/c1-12(2)7-8-5-4-6-9(10(8)16-12)15-11(14)13-3/h4-6H,7H2,1-3H3,(H,13,14)
Instrument: TripleTOF 5600 SCIEX
Instrument type: LC-ESI-QTOF
Ms type: MS2
Ion mode: POSITIVE
Collision energy: 40
Fragmentation mode: CID
Ionization: ESI
Column name: Zorbax Eclipse Plus C18 2.1 mm x 150 mm, 3.5 um, Agilent
Retention time: 9.746 min
Precursor m/z: 222.1125
Precursor type: [M+H]+
m/z	relative intensity
58.0339	18
65.0432	14
67.0591	37
77.0421	84
91.0567	124
95.051	73
105.0344	32
107.0491	10
119.0494	16
119.0856	29
123.0451	999
137.0597	50
147.0803	12
165.091	15
