Mass spectrum: Hydroxychloroquine; LC-ESI-QTOF; MS2; 70 V
Name: Hydroxychloroquine
Class: Pharmaceutical
Formula: C18H26ClN3O
Exact mass: 335.1764
SMILES: CCN(CCCC(C)NC1=C2C=CC(=CC2=NC=C1)Cl)CCO
InChI: InChI=1S/C18H26ClN3O/c1-3-22(11-12-23)10-4-5-14(2)21-17-8-9-20-18-13-15(19)6-7-16(17)18/h6-9,13-14,23H,3-5,10-12H2,1-2H3,(H,20,21)
Instrument: TripleTOF 5600 SCIEX
Instrument type: LC-ESI-QTOF
Ms type: MS2
Ion mode: POSITIVE
Collision energy: 70
Fragmentation mode: CID
Ionization: ESI
Column name: Zorbax Eclipse Plus C18 2.1 mm x 150 mm, 3.5 um, Agilent
Retention time: 4.747 min
Precursor m/z: 336.1837
Precursor type: [M+H]+
m/z	relative intensity
39.0218	35
41.0386	35
44.0487	35
45.0329	71
56.0507	35
58.0652	71
69.0666	35
72.0803	71
98.0982	35
99.0233	35
102.09	249
110.9994	35
116.0482	107
117.051	71
117.0628	35
128.0475	71
129.0577	214
135.0002	35
135.0057	35
138.0139	35
143.0536	71
144.0688	321
151.015	71
155.0605	214
156.0654	214
156.0807	35
162.011	142
163.0166	214
164.0241	142
169.087	35
178.0296	142
179.0368	999
190.0339	71
191.0386	214
203.0329	249
203.0482	35
205.0556	71
