Mass spectrum: Citalopram; LC-ESI-QTOF; MS2; 70 V
Name: Citalopram
Class: Pharmaceutical
Formula: C20H21FN2O
Exact mass: 324.1638
SMILES: CN(C)CCCC1(OCc2cc(ccc12)C#N)c3ccc(F)cc3
InChI: InChI=1S/C20H21FN2O/c1-23(2)11-3-10-20(17-5-7-18(21)8-6-17)19-9-4-15(13-22)12-16(19)14-24-20/h4-9,12H,3,10-11,14H2,1-2H3
Instrument: TripleTOF 5600 SCIEX
Instrument type: LC-ESI-QTOF
Ms type: MS2
Ion mode: POSITIVE
Collision energy: 70
Fragmentation mode: CID
Ionization: ESI
Column name: Zorbax Eclipse Plus C18 2.1 mm x 150 mm, 3.5 um, Agilent
Retention time: 7.757 min
Precursor m/z: 325.1711
Precursor type: [M+H]+
m/z	relative intensity
57.0185	16
58.0706	53
75.0259	10
77.042	17
83.0324	268
89.041	128
95.0309	16
101.039	20
103.0551	16
109.0461	999
113.0386	16
115.0545	34
116.05	135
127.0544	37
128.062	26
129.0695	10
133.0454	32
139.0545	44
140.05	199
146.0531	15
163.0535	13
166.0651	37
170.0528	10
175.0543	22
181.0445	10
183.0605	40
187.0549	12
189.0692	25
190.0651	81
193.0436	15
194.0519	34
195.0596	26
196.0682	16
199.0535	18
200.0572	62
201.0601	22
202.0753	28
203.0727	12
206.0521	12
207.0608	124
208.0563	177
213.07	35
214.0653	91
215.0854	43
218.0538	36
219.0595	142
220.0671	135
221.0643	201
222.0725	13
225.0576	18
226.0656	99
227.0733	205
228.0803	12
232.0562	84
233.0756	78
234.0721	87
235.0786	22
240.0812	119
241.0873	14
244.0663	35
245.0639	296
246.0718	267
247.079	65
258.0714	25
259.0788	27
260.0877	23
