Mass spectrum: Nadolol; LC-ESI-QTOF; MS2; 40 V
Name: Nadolol
Class: Pharmaceutical
Formula: C17H27NO4
Exact mass: 309.194
SMILES: CC(C)(C)NCC(COC1=CC=CC2=C1CC(C(C2)O)O)O
InChI: InChI=1S/C17H27NO4/c1-17(2,3)18-9-12(19)10-22-16-6-4-5-11-7-14(20)15(21)8-13(11)16/h4-6,12,14-15,18-21H,7-10H2,1-3H3
Instrument: TripleTOF 5600 SCIEX
Instrument type: LC-ESI-QTOF
Ms type: MS2
Ion mode: POSITIVE
Collision energy: 40
Fragmentation mode: CID
Ionization: ESI
Column name: Zorbax Eclipse Plus C18 2.1 mm x 150 mm, 3.5 um, Agilent
Retention time: 5.13 min
Precursor m/z: 310.2013
Precursor type: [M+H]+
m/z	relative intensity
56.0557	357
57.0748	121
58.0686	9
72.0472	14
74.0642	488
74.0966	11
91.0567	54
103.0558	9
107.0488	23
115.0552	49
117.0702	86
119.0872	14
127.0538	44
128.0633	59
129.0701	79
131.05	38
131.0859	30
132.0593	15
133.0653	76
141.0705	36
143.0851	126
144.0571	28
145.0653	529
145.0998	35
147.0813	245
153.0709	71
154.0801	20
155.0858	196
157.0648	165
158.0747	19
159.0446	14
159.081	398
160.0525	12
161.0591	31
161.0974	15
163.076	25
165.07	73
168.057	19
170.0767	11
171.0803	611
172.0856	12
173.0566	12
173.0958	138
174.0911	28
175.0748	87
183.0804	563
189.09	23
201.0913	999
218.117	39
219.1013	19
236.1278	248
