Mass spectrum: Trimethoprim; LC-ESI-QTOF; MS2; 40 V
Name: Trimethoprim
Class: Pharmaceutical
Formula: C14H18N4O3
Exact mass: 290.1379
SMILES: COC1=CC(=CC(=C1OC)OC)CC2=CN=C(N=C2N)N
InChI: InChI=1S/C14H18N4O3/c1-19-10-5-8(6-11(20-2)12(10)21-3)4-9-7-17-14(16)18-13(9)15/h5-7H,4H2,1-3H3,(H4,15,16,17,18)
Instrument: TripleTOF 5600 SCIEX
Instrument type: LC-ESI-QTOF
Ms type: MS2
Ion mode: POSITIVE
Collision energy: 40
Fragmentation mode: CID
Ionization: ESI
Column name: Zorbax Eclipse Plus C18 2.1 mm x 150 mm, 3.5 um, Agilent
Retention time: 5.112 min
Precursor m/z: 291.1452
Precursor type: [M+H]+
m/z	relative intensity
68.037	10
81.0448	108
109.0511	16
110.0592	308
111.0664	76
120.0575	15
123.0669	598
124.0747	48
137.0599	30
146.0691	12
148.0525	11
149.0751	34
151.0397	45
161.0824	35
162.0904	18
165.0546	14
170.0639	17
173.0795	17
174.066	64
181.0864	38
185.0823	16
186.0553	12
187.0985	135
188.0953	12
190.0848	21
191.0935	45
199.0986	28
200.1052	35
201.0768	16
201.1145	231
202.0494	10
202.1228	72
203.0927	20
213.1148	12
214.0859	13
215.0942	61
216.0755	14
216.0994	36
217.0658	12
217.1095	34
219.0774	17
228.0982	10
229.1096	421
230.1171	790
231.0887	43
232.0963	179
233.1039	294
242.0554	13
243.0899	12
244.0745	32
245.1043	272
246.1114	48
247.1198	121
257.1049	620
258.1115	40
259.0839	95
259.1152	24
261.0994	999
275.1154	714
276.1219	14
291.1463	157
