Mass spectrum: Di(2-ethylhexyl)amine; LC-ESI-QTOF; MS2; 80 V
Name: Di(2-ethylhexyl)amine
Formula: C16H35N
Exact mass: 241.277
SMILES: CCCCC(CC)CNCC(CC)CCCC
InChI: InChI=1S/C16H35N/c1-5-9-11-15(7-3)13-17-14-16(8-4)12-10-6-2/h15-17H,5-14H2,1-4H3
Instrument: TripleTOF 6600 SCIEX
Instrument type: LC-ESI-QTOF
Ms type: MS2
Ion mode: POSITIVE
Collision energy: 80
Fragmentation mode: CID
Ionization: ESI
Column name: Zorbax Eclipse Plus C18 2.1 mm x 150 mm, 3.5 um, Agilent
Retention time: 10.947 min
Precursor m/z: 242.2842
Precursor type: [M+H]+
m/z	relative intensity
37.0082	88
38.0037	58
38.015	58
39.0237	734
41.0399	999
43.0546	499
55.0515	29
55.0585	29
57.0663	58
