Mass spectrum: Fenbendazole; LC-ESI-QTOF; MS2; 130 V
Name: Fenbendazole
Class: Pharmaceutical
Formula: C15H13N3O2S
Exact mass: 299.0728
SMILES: COC(=O)Nc1[nH]c2cc(Sc3ccccc3)ccc2n1
InChI: InChI=1S/C15H13N3O2S/c1-20-15(19)18-14-16-12-8-7-11(9-13(12)17-14)21-10-5-3-2-4-6-10/h2-9H,1H3,(H2,16,17,18,19)
Instrument: TripleTOF 5600 SCIEX
Instrument type: LC-ESI-QTOF
Ms type: MS2
Ion mode: POSITIVE
Collision energy: 130
Fragmentation mode: CID
Ionization: ESI
Column name: Zorbax Eclipse Plus C18 2.1 mm x 150 mm, 3.5 um, Agilent
Retention time: 9.947 min
Precursor m/z: 300.0801
Precursor type: [M+H]+
m/z	relative intensity
39.0306	54
51.0277	246
52.024	89
52.0338	87
53.031	44
60.0076	14
63.0131	14
64.0483	14
65.028	29
65.0422	49
66.0249	9
66.0373	47
67.9764	27
68.9825	284
69.0108	99
69.9889	24
74.0196	47
75.0145	199
75.0392	14
76.0209	971
77.0293	999
78.036	179
79.0426	27
80.9802	19
81.9894	99
82.9843	22
83.9927	14
86.0171	19
87.0238	17
88.0271	39
89.0249	14
89.0385	77
90.0353	22
91.0415	42
92.0373	52
92.9802	102
93.0437	22
93.9764	14
93.9869	19
94.9955	69
95.9898	14
96.0035	14
98.0159	14
99.0235	22
99.0311	9
101.039	42
102.0466	44
103.0285	62
103.0444	9
104.0363	107
105.0441	59
107.9992	14
108.9972	27
109.0099	9
113.039	69
114.0329	14
114.0456	27
115.0537	72
119.9876	24
122.0064	24
123.0104	12
125.0375	29
126.0456	134
127.0527	134
128.06	24
130.0391	29
131.0459	9
137.037	12
139.0535	62
140.0486	67
145.0085	19
151.0387	12
152.0496	29
153.0557	19
158.0164	12
164.0477	14
169.0089	39
170.0179	27
171.0258	49
183.0102	14
196.0209	37
