Mass spectrum: N,N-Dimethyldecanamide; LC-ESI-QTOF; MS2; 40 V
Name: N,N-Dimethyldecanamide
Class: Industrial_process
Formula: C12H25NO
Exact mass: 199.1936
SMILES: CCCCCCCCCC(=O)N(C)C
InChI: InChI=1S/C12H25NO/c1-4-5-6-7-8-9-10-11-12(14)13(2)3/h4-11H2,1-3H3
Instrument: TripleTOF 6600 SCIEX
Instrument type: LC-ESI-QTOF
Ms type: MS2
Ion mode: POSITIVE
Collision energy: 40
Fragmentation mode: CID
Ionization: ESI
Column name: Zorbax Eclipse Plus C18 2.1 mm x 150 mm, 3.5 um, Agilent
Retention time: 13.577 min
Precursor m/z: 200.2009
Precursor type: [M+H]+
m/z	relative intensity
39.0226	48
41.0384	203
43.054	305
44.0491	77
45.0568	29
46.0649	448
55.0174	11
55.0531	19
57.0693	211
67.0533	12
69.0689	16
71.0847	60
72.0438	283
81.0688	16
85.0999	23
87.0665	22
95.0843	21
100.0747	57
102.0903	87
116.1061	126
130.1213	40
200.201	999
