Mass spectrum: Telmisartan; LC-ESI-QTOF; MS2; 110 V
Name: Telmisartan
Class: Pharmaceutical
Formula: C33H30N4O2
Exact mass: 514.2369
SMILES: CCCc1nc2c(C)cc(cc2n1Cc3ccc(cc3)c4ccccc4C(O)=O)c5nc6ccccc6n5C
InChI: InChI=1S/C33H30N4O2/c1-4-9-30-35-31-21(2)18-24(32-34-27-12-7-8-13-28(27)36(32)3)19-29(31)37(30)20-22-14-16-23(17-15-22)25-10-5-6-11-26(25)33(38)39/h5-8,10-19H,4,9,20H2,1-3H3,(H,38,39)
Instrument: TripleTOF 5600 SCIEX
Instrument type: LC-ESI-QTOF
Ms type: MS2
Ion mode: POSITIVE
Collision energy: 110
Fragmentation mode: CID
Ionization: ESI
Column name: Zorbax Eclipse Plus C18 2.1 mm x 150 mm, 3.5 um, Agilent
Retention time: 8.861 min
Precursor m/z: 515.2442
Precursor type: [M+H]+
m/z	relative intensity
77.0412	131
92.051	113
115.0555	150
131.0607	94
133.0743	94
143.0635	169
152.0622	226
153.0705	113
164.0644	94
165.0685	546
168.0576	75
169.079	94
193.0784	150
206.0813	207
207.0915	188
218.0725	131
219.0795	226
220.0862	169
231.0818	113
232.0884	188
233.0942	150
234.1009	245
244.086	75
245.0804	75
245.0932	131
246.0974	226
258.0897	75
259.1002	320
260.1047	546
261.1132	999
271.0956	150
273.1141	433
274.121	207
275.1303	395
276.133	131
287.1281	150
289.148	150
301.1421	75
423.1625	94
