Mass spectrum: Metconazole; LC-ESI-QTOF; MS2; 120 V
Name: Metconazole
Class: Fungicide
Formula: C17H22ClN3O
Exact mass: 319.1451
SMILES: CC1(CCC(C1(CN2C=NC=N2)O)CC3=CC=C(C=C3)Cl)C
InChI: InChI=1S/C17H22ClN3O/c1-16(2)8-7-14(9-13-3-5-15(18)6-4-13)17(16,22)10-21-12-19-11-20-21/h3-6,11-12,14,22H,7-10H2,1-2H3
Instrument: TripleTOF 6600 SCIEX
Instrument type: LC-ESI-QTOF
Ms type: MS2
Ion mode: POSITIVE
Collision energy: 120
Fragmentation mode: CID
Ionization: ESI
Column name: Zorbax Eclipse Plus C18 2.1 mm x 150 mm, 3.5 um, Agilent
Retention time: 13.024 min
Precursor m/z: 320.1524
Precursor type: [M+H]+
m/z	relative intensity
37.0071	12
38.0152	10
39.023	50
41.0385	11
42.0211	30
43.0293	501
46.9681	10
48.9837	23
50.0147	18
51.0226	27
61.0069	24
62.015	69
63.0227	229
64.0304	14
65.0383	29
70.0401	999
72.9838	139
74.0148	13
74.9997	13
75.0223	15
77.0382	34
78.0459	11
89.0381	372
90.0458	65
91.053	12
98.999	108
102.0454	12
115.0536	110
125.0146	29
127.0531	16
128.0616	21
