Mass spectrum: Dimethyl (p-methoxybenzylidene)malonate; LC-ESI-QTOF; MS2; 40 V
Name: Dimethyl (p-methoxybenzylidene)malonate
Class: Industrial_process
Formula: C13H14O5
Exact mass: 250.0841
SMILES: COC1=CC=C(C=C1)C=C(C(=O)OC)C(=O)OC
InChI: InChI=1S/C13H14O5/c1-16-10-6-4-9(5-7-10)8-11(12(14)17-2)13(15)18-3/h4-8H,1-3H3
Instrument: TripleTOF 5600 SCIEX
Instrument type: LC-ESI-QTOF
Ms type: MS2
Ion mode: POSITIVE
Collision energy: 40
Fragmentation mode: CID
Ionization: ESI
Column name: Zorbax Eclipse Plus C18 2.1 mm x 150 mm, 3.5 um, Agilent
Retention time: 10.987 min
Precursor m/z: 251.0914
Precursor type: [M+H]+
m/z	relative intensity
59.0494	111
133.0646	416
135.0416	444
136.053	249
151.076	999
161.0595	860
