Mass spectrum: Sethoxydim; LC-ESI-QTOF; MS2; 20 V
Name: Sethoxydim
Class: Herbicide
Formula: C17H29NO3S
Exact mass: 327.1868
SMILES: CCCC(=C1C(=O)CC(CC1=O)CC(C)SCC)NOCC
InChI: InChI=1S/C17H29NO3S/c1-5-8-14(18-21-6-2)17-15(19)10-13(11-16(17)20)9-12(4)22-7-3/h12-13,18H,5-11H2,1-4H3
Instrument: TripleTOF 5600 SCIEX
Instrument type: LC-ESI-QTOF
Ms type: MS2
Ion mode: POSITIVE
Collision energy: 20
Fragmentation mode: CID
Ionization: ESI
Column name: Zorbax Eclipse Plus C18 2.1 mm x 150 mm, 3.5 um, Agilent
Retention time: 16.132 min
Precursor m/z: 328.1941
Precursor type: [M+H]+
m/z	relative intensity
110.0585	32
112.0758	44
134.0562	38
150.0874	32
161.0593	32
176.103	70
178.0843	762
178.1182	64
180.0994	288
192.1373	76
203.1063	83
220.1316	608
222.1466	179
223.151	83
254.1164	224
282.1502	999
284.1619	38
328.1913	781
328.2197	44
