Mass spectrum: Tryptamine; LC-ESI-QTOF; MS2; 90 V
Name: Tryptamine
Class: Metabolite
Formula: C10H12N2
Exact mass: 160.1
SMILES: C1=CC=C2C(=C1)C(=CN2)CCN
InChI: InChI=1S/C10H12N2/c11-6-5-8-7-12-10-4-2-1-3-9(8)10/h1-4,7,12H,5-6,11H2
Instrument: TripleTOF 5600 SCIEX
Instrument type: LC-ESI-QTOF
Ms type: MS2
Ion mode: POSITIVE
Collision energy: 90
Fragmentation mode: CID
Ionization: ESI
Column name: Zorbax Eclipse Plus C18 2.1 mm x 150 mm, 3.5 um, Agilent
Retention time: 4.966 min
Precursor m/z: 161.1073
Precursor type: [M+H]+
m/z	relative intensity
37.0077	57
38.0158	57
39.0227	185
50.0156	228
51.0236	342
61.0085	114
62.0156	228
63.0233	970
64.0307	71
65.0386	199
74.0153	228
75.023	171
77.0386	114
86.0141	71
89.0388	999
90.0453	85
91.0526	85
115.0555	242
