Mass spectrum: Iprovalicarb; LC-ESI-QTOF; MS2; 80 V
Name: Iprovalicarb
Class: Fungicide
Formula: C18H28N2O3
Exact mass: 320.21
SMILES: CC1=CC=C(C=C1)C(C)NC(=O)C(C(C)C)NC(=O)OC(C)C
InChI: InChI=1S/C18H28N2O3/c1-11(2)16(20-18(22)23-12(3)4)17(21)19-14(6)15-9-7-13(5)8-10-15/h7-12,14,16H,1-6H3,(H,19,21)(H,20,22)
Instrument: TripleTOF 6600 SCIEX
Instrument type: LC-ESI-QTOF
Ms type: MS2
Ion mode: POSITIVE
Collision energy: 80
Fragmentation mode: CID
Ionization: ESI
Column name: Zorbax Eclipse Plus C18 2.1 mm x 150 mm, 3.5 um, Agilent
Retention time: 11.936 min
Precursor m/z: 321.2173
Precursor type: [M+H]+
m/z	relative intensity
39.023	31
41.0388	22
50.0152	17
51.023	54
55.0545	78
57.0573	15
63.0229	10
65.0387	223
72.0806	30
77.0387	456
78.0464	99
79.0541	37
91.0545	999
93.0694	45
102.0465	23
103.0542	236
104.062	173
105.0449	13
115.0541	173
116.0618	11
117.0698	200
119.0852	92
