Mass spectrum: Triethyl phosphate; LC-ESI-QTOF; MS2; 100 V
Name: Triethyl phosphate
Class: Industrial_process
Formula: C6H15O4P
Exact mass: 182.0708
SMILES: CCOP(=O)(OCC)OCC
InChI: InChI=1S/C6H15O4P/c1-4-8-11(7,9-5-2)10-6-3/h4-6H2,1-3H3
Instrument: TripleTOF 6600 SCIEX
Instrument type: LC-ESI-QTOF
Ms type: MS2
Ion mode: POSITIVE
Collision energy: 100
Fragmentation mode: CID
Ionization: ESI
Column name: Zorbax Eclipse Plus C18 2.1 mm x 150 mm, 3.5 um, Agilent
Retention time: 7.406 min
Precursor m/z: 183.0781
Precursor type: [M+H]+
m/z	relative intensity
46.9671	340
62.9621	999
63.9691	12
64.9772	12
80.9721	125
