Mass spectrum: Flufenacet OA; LC-ESI-QTOF; MS2; 40 V
Name: Flufenacet OA
Class: Transformation_product; Herbicide; Metabolite; Transformation_product-Metabolite
Formula: C11H12FNO3
Exact mass: 225.0801
SMILES: CC(C)N(C(=O)C(O)=O)C1=CC=C(F)C=C1
InChI: InChI=1S/C11H12FNO3/c1-7(2)13(10(14)11(15)16)9-5-3-8(12)4-6-9/h3-7H,1-2H3,(H,15,16)
Instrument: TripleTOF 6600 SCIEX
Instrument type: LC-ESI-QTOF
Ms type: MS2
Ion mode: NEGATIVE
Collision energy: 40
Fragmentation mode: CID
Ionization: ESI
Column name: Zorbax Eclipse Plus C18 2.1 mm x 150 mm, 3.5 um, Agilent
Retention time: 6.924 min
Precursor m/z: 224.0721
Precursor type: [M-H]-
m/z	relative intensity
90.0329	24
95.0301	470
110.0407	322
116.0497	60
134.0399	370
136.0556	999
148.0551	18
150.0701	54
152.0869	220
