Mass spectrum: Azo Rubin S; LC-ESI-QTOF; MS2; 130 V
Name: Azo Rubin S
Formula: C20H14N2O7S2
Exact mass: 458.0242
SMILES: C1=CC=C2C(=C1)C(=CC=C2S(=O)(=O)O)N=NC3=C(C4=CC=CC=C4C(=C3)S(=O)(=O)O)O
InChI: InChI=1S/C20H14N2O7S2/c23-20-15-8-4-3-7-14(15)19(31(27,28)29)11-17(20)22-21-16-9-10-18(30(24,25)26)13-6-2-1-5-12(13)16/h1-11,23H,(H,24,25,26)(H,27,28,29)
Instrument: TripleTOF 6600 SCIEX
Instrument type: LC-ESI-QTOF
Ms type: MS2
Ion mode: POSITIVE
Collision energy: 130
Fragmentation mode: CID
Ionization: ESI
Column name: Zorbax Eclipse Plus C18 2.1 mm x 150 mm, 3.5 um, Agilent
Retention time: 7.286 min
Precursor m/z: 459.0315
Precursor type: [M+H]+
m/z	relative intensity
39.0234	12
51.0228	83
52.0178	144
62.0143	14
63.0224	81
64.9684	51
65.0378	39
75.0225	38
77.0386	999
80.0129	59
87.0232	11
88.0303	21
89.038	400
91.0534	19
99.0214	13
100.018	20
101.0371	29
102.0456	96
103.0539	611
104.0497	61
105.0432	18
113.0374	88
114.0455	43
115.0538	748
116.0481	165
126.0456	25
127.0548	13
128.0512	13
130.0642	334
140.0495	193
142.0636	11
213.0701	14
223.0538	10
224.0615	25
225.059	10
238.0669	29
240.0818	16
249.0619	23
250.0641	11
251.0719	41
252.0713	11
265.0781	16
266.0828	17
277.0767	25
278.0843	15
