Mass spectrum: Thiamine Disulfide; LC-ESI-QTOF; MS2; 110 V
Name: Thiamine Disulfide
Class: Pharmaceutical
Formula: C24H34N8O4S2
Exact mass: 562.2144
SMILES: CC1=NC=C(C(=N1)N)CN(C=O)C(=C(CCO)SSC(=C(C)N(CC2=CN=C(N=C2N)C)C=O)CCO)C
InChI: InChI=1S/C24H34N8O4S2/c1-15(31(13-35)11-19-9-27-17(3)29-23(19)25)21(5-7-33)37-38-22(6-8-34)16(2)32(14-36)12-20-10-28-18(4)30-24(20)26/h9-10,13-14,33-34H,5-8,11-12H2,1-4H3,(H2,25,27,29)(H2,26,28,30)
Instrument: TripleTOF 6600 SCIEX
Instrument type: LC-ESI-QTOF
Ms type: MS2
Ion mode: POSITIVE
Collision energy: 110
Fragmentation mode: CID
Ionization: ESI
Column name: Zorbax Eclipse Plus C18 2.1 mm x 150 mm, 3.5 um, Agilent
Retention time: 4.48 min
Precursor m/z: 563.2217
Precursor type: [M+H]+
m/z	relative intensity
39.0227	35
42.0329	176
43.0162	20
52.0171	17
54.0325	368
55.0407	517
56.0479	12
58.9941	12
65.0374	23
66.0324	189
68.0478	15
69.0435	394
77.0369	17
79.0404	17
80.0487	43
81.0435	540
82.0514	607
83.0591	92
83.9896	12
84.0813	10
85.0086	12
85.0631	15
87.0242	15
91.053	12
92.0481	23
93.0433	140
94.0515	20
94.063	15
95.0594	51
96.0545	84
96.0658	23
97.0748	15
98.0046	12
99.0255	15
102.0347	20
104.049	17
105.0439	20
105.0563	15
106.0585	25
107.0591	210
108.0545	76
109.0622	71
110.0703	999
111.0015	17
112.0201	40
113.0277	215
114.0353	56
115.0219	17
116.0503	23
117.0418	30
117.0564	10
118.0628	25
119.0597	33
120.0547	23
121.0753	23
122.0702	181
123.0781	965
124.0858	409
126.0359	166
131.0591	33
132.0673	38
133.0757	33
134.0707	48
135.0647	35
135.0863	12
136.0854	30
137.0807	35
138.0372	17
143.0589	12
144.0461	251
145.0746	69
146.0689	25
147.0658	10
147.0781	33
148.0844	61
149.0805	20
154.0426	12
156.066	10
158.071	25
160.0859	71
161.0807	61
162.0911	66
163.0935	35
165.048	17
170.0697	12
172.086	43
173.0929	87
174.1018	33
175.0304	23
175.098	28
186.1001	23
189.112	53
192.0585	12
199.0976	35
204.1146	10
206.0756	15
207.0695	12
232.0786	10
