Mass spectrum: Thymidine; LC-ESI-QTOF; MS2; 80 V
Name: Thymidine
Class: Metabolite
Formula: C10H14N2O5
Exact mass: 242.0903
InChI: InChI=1S/C10H14N2O5/c1-5-3-12(10(16)11-9(5)15)8-2-6(14)7(4-13)17-8/h3,6-8,13-14H,2,4H2,1H3,(H,11,15,16)
Instrument: TripleTOF 5600 SCIEX
Instrument type: LC-ESI-QTOF
Ms type: CID
Ion mode: POSITIVE
Collision energy: 80
Ionization: ESI
Column name: Zorbax Eclipse Plus C18 2.1 mm x 150 mm, 3.5 um, Agilent
Retention time: 4.533 min
Precursor m/z: 243.0976
Precursor type: [M+H]+
m/z	relative intensity
39.0232	81
41.0384	507
43.0186	147
43.0549	196
45.034	507
53.0385	229
54.034	999
56.0486	409
57.0341	81
69.0332	638
71.0484	114
73.0288	491
81.0346	114
81.045	163
82.0287	327
84.0445	327
99.0436	65
109.0391	327
110.0233	867
127.0506	196
