Mass spectrum: Allethrin; LC-ESI-QTOF; MS2; 100 V
Name: Allethrin
Class: Insecticide
Formula: C19H26O3
Exact mass: 302.1882
SMILES: CC(C)=CC1C(C(=O)OC2CC(=O)C(=C2C)CC=C)C1(C)C
InChI: InChI=1S/C19H26O3/c1-7-8-13-12(4)16(10-15(13)20)22-18(21)17-14(9-11(2)3)19(17,5)6/h7,9,14,16-17H,1,8,10H2,2-6H3
Instrument: TripleTOF 5600 SCIEX
Instrument type: LC-ESI-QTOF
Ms type: MS2
Ion mode: POSITIVE
Collision energy: 100
Fragmentation mode: CID
Ionization: ESI
Column name: Zorbax Eclipse Plus C18 2.1 mm x 150 mm, 3.5 um, Agilent
Retention time: 16.132 min
Precursor m/z: 303.1955
Precursor type: [M+H]+
m/z	relative intensity
51.0276	185
55.0603	55
65.0426	610
67.0577	80
77.041	968
77.0699	43
78.0483	37
79.0568	363
81.071	55
89.0406	55
91.0554	999
91.0854	24
92.0636	24
93.0704	55
94.0417	30
103.0541	61
105.0688	80
115.0539	351
116.0633	49
128.0612	61
141.0698	30
165.0702	30
