Mass spectrum: Benalaxyl; LC-ESI-QTOF; MS2; 40 V
Name: Benalaxyl
Class: Fungicide
Formula: C20H23NO3
Exact mass: 325.1678
SMILES: CC1=C(C(=CC=C1)C)N(C(C)C(=O)OC)C(=O)CC2=CC=CC=C2
InChI: InChI=1S/C20H23NO3/c1-14-9-8-10-15(2)19(14)21(16(3)20(23)24-4)18(22)13-17-11-6-5-7-12-17/h5-12,16H,13H2,1-4H3
Instrument: TripleTOF 6600 SCIEX
Instrument type: LC-ESI-QTOF
Ms type: MS2
Ion mode: POSITIVE
Collision energy: 40
Fragmentation mode: CID
Ionization: ESI
Column name: Zorbax Eclipse Plus C18 2.1 mm x 150 mm, 3.5 um, Agilent
Retention time: 13.881 min
Precursor m/z: 326.1751
Precursor type: [M+H]+
m/z	relative intensity
65.0377	22
91.0537	667
105.0689	25
106.0639	49
118.064	11
120.0789	28
121.0879	439
122.0953	25
133.087	29
148.1117	999
208.1327	76
