Mass spectrum: Ethofumesate; LC-ESI-QTOF; MS2; 60 V
Name: Ethofumesate
Class: Herbicide
Formula: C13H18O5S
Exact mass: 286.0875
SMILES: CCOC1C(c2cc(ccc2O1)OS(=O)(=O)C)(C)C
InChI: InChI=1S/C13H18O5S/c1-5-16-12-13(2,3)10-8-9(18-19(4,14)15)6-7-11(10)17-12/h6-8,12H,5H2,1-4H3
Instrument: TripleTOF 6600 SCIEX
Instrument type: LC-ESI-QTOF
Ms type: MS2
Ion mode: POSITIVE
Collision energy: 60
Fragmentation mode: CID
Ionization: ESI
Column name: Zorbax Eclipse Plus C18 2.1 mm x 150 mm, 3.5 um, Agilent
Retention time: 12.56 min
Precursor m/z: 287.0948
Precursor type: [M+H]+
m/z	relative intensity
39.0225	55
43.0179	222
51.0223	166
55.0178	55
65.0379	333
77.0377	999
79.0535	444
81.0705	55
89.0392	55
91.0528	999
93.0687	111
95.0494	55
103.0531	555
105.0698	277
106.0738	55
106.0821	55
107.0485	166
115.0543	444
116.0601	111
123.0432	55
133.0648	55
134.0695	55
135.0782	55
143.0504	55
