Mass spectrum: Methadone; LC-ESI-QTOF; MS2; 40 V
Name: Methadone
Class: Pharmaceutical
Formula: C21H27NO
Exact mass: 309.2093
SMILES: CCC(=O)C(CC(C)N(C)C)(C1=CC=CC=C1)C2=CC=CC=C2
InChI: InChI=1S/C21H27NO/c1-5-20(23)21(16-17(2)22(3)4,18-12-8-6-9-13-18)19-14-10-7-11-15-19/h6-15,17H,5,16H2,1-4H3
Instrument: TripleTOF 6600 SCIEX
Instrument type: LC-ESI-QTOF
Ms type: MS2
Ion mode: POSITIVE
Collision energy: 40
Fragmentation mode: CID
Ionization: ESI
Column name: Zorbax Eclipse Plus C18 2.1 mm x 150 mm, 3.5 um, Agilent
Retention time: 8.79 min
Precursor m/z: 310.2166
Precursor type: [M+H]+
m/z	relative intensity
57.0329	83
77.0376	213
91.0531	250
105.0332	999
115.0527	30
117.0685	147
128.0604	18
129.0682	52
131.084	16
141.068	13
143.084	12
145.0628	22
159.1148	38
165.0676	17
167.0838	56
169.0993	10
178.0757	17
179.0828	13
187.1105	15
191.0839	23
194.0705	36
195.1151	101
202.0756	14
203.0838	54
204.0919	153
205.0986	45
207.1143	12
217.1001	41
218.1074	77
219.1156	192
223.1106	127
232.1224	17
236.1178	18
247.1472	36
265.1576	195
