Mass spectrum: Dexamethasone; LC-ESI-QTOF; MS2; 100 V
Name: Dexamethasone
Class: Pharmaceutical
Formula: C22H29FO5
Exact mass: 392.1999
SMILES: C[C@@H]1C[C@H]2[C@@H]3CCC4=CC(=O)C=C[C@@]4([C@]3([C@H](C[C@@]2([C@]1(C(=O)CO)O)C)O)F)C
InChI: InChI=1S/C22H29FO5/c1-12-8-16-15-5-4-13-9-14(25)6-7-19(13,2)21(15,23)17(26)10-20(16,3)22(12,28)18(27)11-24/h6-7,9,12,15-17,24,26,28H,4-5,8,10-11H2,1-3H3/t12-,15+,16+,17+,19+,20+,21+,22+/m1/s1
Instrument: TripleTOF 5600 SCIEX
Instrument type: LC-ESI-QTOF
Ms type: MS2
Ion mode: POSITIVE
Collision energy: 100
Fragmentation mode: CID
Ionization: ESI
Column name: Zorbax Eclipse Plus C18 2.1 mm x 150 mm, 3.5 um, Agilent
Retention time: 9.089 min
Precursor m/z: 393.2072
Precursor type: [M+H]+
m/z	relative intensity
43.0299	54
43.0407	13
51.0324	48
55.0269	21
65.0459	151
67.0599	75
69.0417	10
69.0738	10
75.0312	13
77.0442	806
78.0515	54
79.0598	213
81.0748	21
89.0453	35
91.0587	999
93.0727	73
95.0524	18
95.0915	21
101.0414	16
102.0504	56
103.0584	243
104.0647	54
105.0369	16
105.0729	203
107.0531	78
107.0879	29
108.0604	13
109.0468	29
115.0573	847
116.0637	121
117.0725	138
119.0876	92
121.0678	349
126.0492	29
127.0559	249
128.0646	755
129.0719	181
130.0802	40
131.0517	235
131.09	27
132.0584	148
133.0494	16
133.067	13
135.0824	24
139.0571	70
140.064	35
141.0717	324
142.078	64
143.0874	32
144.0591	62
145.0655	67
146.0545	32
146.0745	13
147.0801	37
150.0477	27
151.0553	127
152.0638	433
153.0718	224
154.0791	32
155.0504	48
155.0875	51
156.057	13
156.0964	10
157.0658	70
158.0728	40
159.0701	13
163.0554	32
164.0626	46
165.0713	703
166.079	94
167.0867	73
168.058	51
169.0659	40
170.0703	18
171.082	27
175.0544	13
176.063	105
177.0711	97
178.0788	712
179.0853	289
180.0923	24
181.0653	192
181.1003	24
182.0757	46
183.0609	13
183.0801	18
187.0551	10
188.0638	24
189.0711	522
190.078	205
191.0866	227
192.0536	13
192.0976	51
193.0713	21
193.1024	35
194.0725	73
195.082	92
196.0879	13
200.0651	13
201.0743	67
202.0781	495
203.0852	235
204.0946	56
205.0653	97
205.1028	40
206.073	29
207.0807	100
208.0777	21
208.0902	21
209.0937	35
210.0766	13
213.0686	56
214.0755	16
215.0856	335
216.0928	59
217.1007	37
218.0756	108
219.0806	70
219.1089	13
220.0826	18
221.0986	67
226.0748	127
227.0863	92
228.0926	140
229.1041	75
231.0787	132
231.1129	10
232.0823	18
233.0941	54
239.0863	37
240.0895	16
241.0998	24
242.0707	16
242.1021	16
244.0875	24
245.0981	51
246.1134	10
247.1051	13
247.1173	24
252.0991	18
255.0797	13
256.0844	27
257.0999	13
261.1281	16
