Mass spectrum: 4,4`-Methylenebis(2-chloroaniline); LC-ESI-QTOF; MS2; 40 V
Name: 4,4`-Methylenebis(2-chloroaniline)
Formula: C13H12Cl2N2
Exact mass: 266.0378
SMILES: C1=CC(=C(C=C1CC2=CC(=C(C=C2)N)Cl)Cl)N
InChI: InChI=1S/C13H12Cl2N2/c14-10-6-8(1-3-12(10)16)5-9-2-4-13(17)11(15)7-9/h1-4,6-7H,5,16-17H2
Instrument: TripleTOF 6600 SCIEX
Instrument type: LC-ESI-QTOF
Ms type: MS2
Ion mode: POSITIVE
Collision energy: 40
Fragmentation mode: CID
Ionization: ESI
Column name: Zorbax Eclipse Plus C18 2.1 mm x 150 mm, 3.5 um, Agilent
Retention time: 11.747 min
Precursor m/z: 267.045
Precursor type: [M+H]+
m/z	relative intensity
77.0381	48
104.0499	334
115.0549	14
128.0271	11
140.0258	696
141.07	39
143.0727	23
151.0548	104
152.0622	35
153.0232	10
153.0581	10
154.0654	21
164.0257	10
167.0736	166
168.0806	332
169.089	30
177.0571	18
178.0651	125
179.0718	97
180.0805	228
190.0433	18
193.0755	18
194.0844	58
195.0917	999
196.1004	237
214.0426	168
216.0441	30
229.0523	17
231.0678	337
267.0451	81
