Mass spectrum: 1-Butyl-1-methylpyrrolidinium; LC-ESI-QTOF; MS2; 60 V
Name: 1-Butyl-1-methylpyrrolidinium
Class: Industrial_process
Formula: [C9H20N]+
Exact mass: 142.159
SMILES: CCCC[N+]1(CCCC1)C
InChI: InChI=1S/C9H20N/c1-3-4-7-10(2)8-5-6-9-10/h3-9H2,1-2H3/q+1
Instrument: TripleTOF 6600 SCIEX
Instrument type: LC-ESI-QTOF
Ms type: MS2
Ion mode: POSITIVE
Collision energy: 60
Fragmentation mode: CID
Ionization: ESI
Column name: Zorbax Eclipse Plus C18 2.1 mm x 150 mm, 3.5 um, Agilent
Retention time: 4.267 min
Precursor m/z: 142.159
Precursor type: [M]+
m/z	relative intensity
39.0217	264
41.0375	117
42.0324	528
44.0479	470
84.0774	999
