Mass spectrum: N-Isopropyl-N'-phenyl-p-phenylenediamine; LC-ESI-QTOF; MS2; 40 V
Name: N-Isopropyl-N'-phenyl-p-phenylenediamine
Class: Industrial_process
Formula: C15H18N2
Exact mass: 226.147
SMILES: CC(C)Nc1ccc(cc1)Nc2ccccc2
InChI: InChI=1S/C15H18N2/c1-12(2)16-14-8-10-15(11-9-14)17-13-6-4-3-5-7-13/h3-12,16-17H,1-2H3
Instrument: TripleTOF 6600 SCIEX
Instrument type: LC-ESI-QTOF
Ms type: MS2
Ion mode: POSITIVE
Collision energy: 40
Fragmentation mode: CID
Ionization: ESI
Column name: Zorbax Eclipse Plus C18 2.1 mm x 150 mm, 3.5 um, Agilent
Retention time: 7.24 min
Precursor m/z: 227.1543
Precursor type: [M+H]+
m/z	relative intensity
80.0484	13
81.0562	11
93.056	19
107.0592	104
118.0511	18
166.0632	30
167.0712	13
168.0784	12
169.0754	11
183.0906	125
184.0984	999
