Mass spectrum: Iprovalicarb; LC-ESI-QTOF; MS2; 90 V
Name: Iprovalicarb
Class: Fungicide
Formula: C18H28N2O3
Exact mass: 320.21
SMILES: CC1=CC=C(C=C1)C(C)NC(=O)C(C(C)C)NC(=O)OC(C)C
InChI: InChI=1S/C18H28N2O3/c1-11(2)16(20-18(22)23-12(3)4)17(21)19-14(6)15-9-7-13(5)8-10-15/h7-12,14,16H,1-6H3,(H,19,21)(H,20,22)
Instrument: TripleTOF 6600 SCIEX
Instrument type: LC-ESI-QTOF
Ms type: MS2
Ion mode: POSITIVE
Collision energy: 90
Fragmentation mode: CID
Ionization: ESI
Column name: Zorbax Eclipse Plus C18 2.1 mm x 150 mm, 3.5 um, Agilent
Retention time: 11.936 min
Precursor m/z: 321.2173
Precursor type: [M+H]+
m/z	relative intensity
39.0231	52
41.0388	31
50.0155	33
51.0233	109
55.0542	63
57.057	29
62.0151	10
63.0232	26
65.0388	384
72.0805	17
77.0388	644
78.0463	175
79.0541	33
89.0374	10
91.0545	999
93.0702	32
102.0471	40
103.0543	246
104.062	172
105.0446	19
115.0543	198
116.0616	12
117.0697	148
119.0854	42
