Mass spectrum: 2-Butoxyethyl hydrogensulphate; LC-ESI-QTOF; MS2; 100 V
Name: 2-Butoxyethyl hydrogensulphate
Formula: C6H14O5S
Exact mass: 198.0562
SMILES: CCCCOCCOS(=O)(=O)O
InChI: InChI=1S/C6H14O5S/c1-2-3-4-10-5-6-11-12(7,8)9/h2-6H2,1H3,(H,7,8,9)
Instrument: TripleTOF 6600 SCIEX
Instrument type: LC-ESI-QTOF
Ms type: MS2
Ion mode: NEGATIVE
Collision energy: 100
Fragmentation mode: CID
Ionization: ESI
Column name: Zorbax Eclipse Plus C18 2.1 mm x 150 mm, 3.5 um, Agilent
Retention time: 6.141 min
Precursor m/z: 197.0489
Precursor type: [M-H]-
m/z	relative intensity
63.9615	31
79.9558	999
95.9505	84
96.959	10
