Mass spectrum: Fluxapyroxad; LC-ESI-QTOF; MS2; 90 V
Name: Fluxapyroxad
Class: Fungicide
Formula: C18H12F5N3O
Exact mass: 381.0901
SMILES: Cn1cc(c(n1)C(F)F)C(=O)Nc2ccccc2c3cc(c(c(c3)F)F)F
InChI: InChI=1S/C18H12F5N3O/c1-26-8-11(16(25-26)17(22)23)18(27)24-14-5-3-2-4-10(14)9-6-12(19)15(21)13(20)7-9/h2-8,17H,1H3,(H,24,27)
Instrument: TripleTOF 6600 SCIEX
Instrument type: LC-ESI-QTOF
Ms type: MS2
Ion mode: POSITIVE
Collision energy: 90
Fragmentation mode: CID
Ionization: ESI
Column name: Zorbax Eclipse Plus C18 2.1 mm x 150 mm, 3.5 um, Agilent
Retention time: 12.239 min
Precursor m/z: 382.0973
Precursor type: [M+H]+
m/z	relative intensity
42.0335	18
57.0127	16
109.0379	21
119.0208	13
125.0184	11
131.0396	11
135.0218	26
137.0364	16
139.0286	15
141.0129	23
145.0239	15
146.0142	21
147.0217	40
149.0367	15
155.0277	15
156.035	20
157.0435	47
159.0359	18
161.0191	18
162.0277	15
165.0122	11
166.0139	13
167.0272	84
168.0362	45
169.0241	16
169.0436	13
171.01	11
172.0175	23
175.0339	16
176.0288	11
179.0258	11
180.0167	23
181.0299	13
181.0426	11
182.0388	37
185.019	95
186.0271	361
187.0345	144
188.0422	111
192.0238	60
193.0281	35
194.0441	21
195.0462	15
198.0266	13
199.0353	45
200.0304	11
200.0448	16
201.0498	30
204.0178	109
205.026	137
206.0338	999
207.0421	28
208.0533	18
210.0187	20
211.0248	70
212.0303	58
213.0374	58
214.0465	18
215.0419	23
217.026	52
218.0336	50
219.0409	74
222.026	13
223.035	43
224.0343	55
225.0493	124
226.046	104
230.033	28
231.0287	195
232.0384	25
232.0563	11
233.0383	11
233.0555	11
234.0532	33
235.0225	11
236.0367	15
237.0395	23
238.0492	31
239.0522	13
240.0363	15
240.0594	31
241.0259	15
242.0342	15
243.0414	253
244.0362	92
245.0466	18
249.0386	11
250.0453	52
251.0428	33
252.052	31
253.0569	11
256.0464	18
257.0442	16
258.0521	26
264.0604	18
265.0558	15
268.0363	18
269.046	11
270.0505	74
271.0572	16
285.0651	10
