Mass spectrum: Ketoprofen; LC-ESI-QTOF; MS2; 50 V
Name: Ketoprofen
Class: Pharmaceutical
Formula: C16H14O3
Exact mass: 254.0943
SMILES: CC(C(O)=O)c1cccc(c1)C(=O)c2ccccc2
InChI: InChI=1S/C16H14O3/c1-11(16(18)19)13-8-5-9-14(10-13)15(17)12-6-3-2-4-7-12/h2-11H,1H3,(H,18,19)
Instrument: TripleTOF 5600 SCIEX
Instrument type: LC-ESI-QTOF
Ms type: MS2
Ion mode: POSITIVE
Collision energy: 50
Fragmentation mode: CID
Ionization: ESI
Column name: Zorbax Eclipse Plus C18 2.1 mm x 150 mm, 3.5 um, Agilent
Retention time: 10.877 min
Precursor m/z: 255.1016
Precursor type: [M+H]+
m/z	relative intensity
51.0286	36
77.0428	999
91.0564	29
93.0722	18
103.0554	202
105.0348	459
131.0501	22
165.0705	91
166.0788	15
177.0555	12
194.0732	59
