Mass spectrum: Epirubicin; LC-ESI-QTOF; MS2; 100 V
Name: Epirubicin
Class: Pharmaceutical
Formula: C27H29NO11
Exact mass: 543.1741
SMILES: CC1C(C(CC(O1)OC2CC(CC3=C(C4=C(C(=C23)O)C(=O)C5=C(C4=O)C=CC=C5OC)O)(C(=O)CO)O)N)O
InChI: InChI=1S/C27H29NO11/c1-10-22(31)13(28)6-17(38-10)39-15-8-27(36,16(30)9-29)7-12-19(15)26(35)21-20(24(12)33)23(32)11-4-3-5-14(37-2)18(11)25(21)34/h3-5,10,13,15,17,22,29,31,33,35-36H,6-9,28H2,1-2H3
Instrument: TripleTOF 5600 SCIEX
Instrument type: LC-ESI-QTOF
Ms type: MS2
Ion mode: NEGATIVE
Collision energy: 100
Fragmentation mode: CID
Ionization: ESI
Column name: Zorbax Eclipse Plus C18 2.1 mm x 150 mm, 3.5 um, Agilent
Retention time: 7.492 min
Precursor m/z: 542.1668
Precursor type: [M-H]-
m/z	relative intensity
145.0297	98
173.0288	118
207.0479	118
208.0564	108
209.0636	98
219.0469	227
220.0562	98
221.0639	118
232.0523	128
233.0624	89
235.0414	178
237.0561	207
239.0352	49
247.0402	296
248.0462	474
249.0557	118
251.0402	148
252.0405	79
260.0472	49
261.0574	98
263.0336	207
264.0453	257
265.051	365
266.0515	59
266.0645	59
275.0408	118
276.0448	326
277.0509	217
279.0304	168
288.0401	49
289.0467	59
289.0576	69
291.0336	128
292.0378	544
293.0471	999
304.0405	178
305.0461	197
308.039	79
317.0483	59
320.0354	168
321.0454	168
321.0622	59
