Mass spectrum: N-[2-[(2-Bromo-4,6-dinitrophenyl)azo]-5-(diethylamino)phenyl]acetamide; LC-ESI-QTOF; MS2; 70 V
Name: N-[2-[(2-Bromo-4,6-dinitrophenyl)azo]-5-(diethylamino)phenyl]acetamide
Formula: C18H19BrN6O5
Exact mass: 478.06
SMILES: CCN(CC)C1=CC(=C(C=C1)N=NC2=C(C=C(C=C2Br)[N+](=O)[O-])[N+](=O)[O-])NC(=O)C
InChI: InChI=1S/C18H19BrN6O5/c1-4-23(5-2)12-6-7-15(16(9-12)20-11(3)26)21-22-18-14(19)8-13(24(27)28)10-17(18)25(29)30/h6-10H,4-5H2,1-3H3,(H,20,26)
Instrument: TripleTOF 6600 SCIEX
Instrument type: LC-ESI-QTOF
Ms type: MS2
Ion mode: POSITIVE
Collision energy: 70
Fragmentation mode: CID
Ionization: ESI
Column name: Zorbax Eclipse Plus C18 2.1 mm x 150 mm, 3.5 um, Agilent
Retention time: 16.579 min
Precursor m/z: 479.0673
Precursor type: [M+H]+
m/z	relative intensity
43.0171	20
80.0481	59
93.0563	52
94.0633	24
106.0641	15
107.0344	11
107.0601	79
108.0423	77
108.0777	24
109.0743	46
119.0584	18
120.0555	79
121.0747	425
122.0587	10
123.0902	14
131.0593	12
132.076	11
133.0617	59
134.0698	271
135.0899	97
136.0731	109
145.0757	12
146.0698	12
147.0549	23
147.0773	48
148.0625	195
148.0859	180
149.068	13
149.1053	175
150.0898	14
161.0688	37
161.0999	11
162.076	17
162.1019	251
163.0854	464
163.1206	113
175.0707	27
177.1013	260
191.1168	999
193.075	16
194.0724	18
204.111	24
237.1148	11
250.1333	24
265.143	61
271.9936	12
272.9893	42
284.9861	15
300.0148	13
300.985	10
316.0317	17
328.0374	33
329.0493	19
330.0184	11
344.064	31
