Mass spectrum: Prednisone; LC-ESI-QTOF; MS2; 30 V
Name: Prednisone
Class: Pharmaceutical
Formula: C21H26O5
Exact mass: 358.178
SMILES: C[C@]12CC(=O)[C@H]3[C@@H](CCC4=CC(=O)C=C[C@]34C)[C@@H]1CC[C@]2(O)C(=O)CO
InChI: InChI=1S/C21H26O5/c1-19-7-5-13(23)9-12(19)3-4-14-15-6-8-21(26,17(25)11-22)20(15,2)10-16(24)18(14)19/h5,7,9,14-15,18,22,26H,3-4,6,8,10-11H2,1-2H3/t14-,15-,18+,19-,20-,21-/m0/s1
Instrument: TripleTOF 5600 SCIEX
Instrument type: LC-ESI-QTOF
Ms type: MS2
Ion mode: POSITIVE
Collision energy: 30
Fragmentation mode: CID
Ionization: ESI
Column name: Zorbax Eclipse Plus C18 2.1 mm x 150 mm, 3.5 um, Agilent
Retention time: 8.469 min
Precursor m/z: 359.1853
Precursor type: [M+H]+
m/z	relative intensity
43.0252	25
67.0591	13
69.037	12
71.0527	10
77.04	17
79.0571	29
81.0369	12
81.0716	46
83.0514	24
85.0658	19
91.0562	29
93.0712	114
95.0497	67
95.0862	119
97.0655	38
99.0448	27
101.0596	38
105.0703	50
107.0855	112
109.0654	129
109.1006	31
111.0458	12
111.08	84
117.0702	43
119.0859	82
121.065	202
121.1003	13
123.0807	77
125.0601	19
125.0959	38
129.0702	15
131.0865	36
133.0656	27
133.1011	25
135.0811	269
137.0589	25
137.095	41
139.0749	70
141.0713	10
143.0828	12
145.0649	57
145.1028	15
147.0809	999
149.0961	24
151.0762	17
153.0705	17
153.0911	91
155.0844	10
157.1001	15
158.0722	34
159.0809	375
159.1115	12
160.0885	19
161.0963	216
163.075	110
165.0909	27
167.0723	15
167.0831	10
169.0658	15
169.1006	24
171.0809	617
172.0907	13
173.0968	418
175.0766	22
175.1112	15
177.0918	38
179.0861	39
181.0902	65
182.0723	24
183.079	82
183.1025	74
185.0604	34
185.0971	153
186.1067	22
187.0767	115
187.1113	209
189.0903	58
191.0853	13
193.1	20
195.0807	81
196.0898	25
197.0969	482
198.1031	10
199.1119	274
201.0905	15
201.1269	31
203.1072	25
205.1017	15
207.1142	20
208.0874	50
209.0965	245
209.1333	24
210.1048	39
211.083	12
211.112	224
212.1187	44
213.093	53
213.1286	198
215.1075	89
215.1434	15
219.1164	41
220.0924	22
221.097	174
221.1325	15
222.1047	143
223.1117	297
224.1185	38
225.0918	31
225.128	228
226.1355	15
227.1092	58
227.1435	205
233.0962	25
233.1327	13
234.1045	48
235.1122	254
235.1491	17
236.1193	25
237.0958	20
237.1282	957
238.1	29
238.1356	29
239.1113	60
239.1431	314
240.1144	24
241.1233	46
242.131	10
243.1156	17
245.094	19
245.1325	24
246.1034	53
247.1142	72
247.1473	24
248.1198	103
249.0879	13
249.1286	281
250.1374	25
251.1085	20
251.1431	165
252.1504	32
253.123	333
253.1576	171
255.1041	12
255.1385	354
255.1713	20
257.1268	12
258.1018	20
259.1146	24
259.1451	34
260.1207	32
261.1279	241
262.1363	150
263.1071	27
263.1437	508
264.1142	22
264.1513	198
265.1218	32
265.1596	717
267.1096	13
267.1388	497
267.1733	103
269.1535	17
272.1209	74
275.1045	19
275.1453	136
276.115	31
277.1224	39
277.1594	532
279.1395	62
280.147	32
281.1541	214
282.1613	22
283.1362	22
283.1689	55
285.1516	10
287.1437	167
290.131	39
292.146	62
293.1553	250
295.1297	10
295.1439	10
295.1704	463
297.1497	119
305.1538	300
311.1652	98
313.1822	300
323.1644	383
341.1752	247
