Mass spectrum: 6-Methylthioguanine; LC-ESI-QTOF; MS2; 50 V
Name: 6-Methylthioguanine
Class: Metabolite; Pharmaceutical
Formula: C6H7N5S
Exact mass: 181.0422
SMILES: CSc1nc(N)nc2nc[nH]c12
InChI: InChI=1S/C6H7N5S/c1-12-5-3-4(9-2-8-3)10-6(7)11-5/h2H,1H3,(H3,7,8,9,10,11)
Instrument: TripleTOF 5600 SCIEX
Instrument type: LC-ESI-QTOF
Ms type: MS2
Ion mode: POSITIVE
Collision energy: 50
Fragmentation mode: CID
Ionization: ESI
Column name: Zorbax Eclipse Plus C18 2.1 mm x 150 mm, 3.5 um, Agilent
Retention time: 4.912 min
Precursor m/z: 182.0495
Precursor type: [M+H]+
m/z	relative intensity
53.0185	145
54.0272	22
55.0343	91
65.0171	176
66.0264	20
67.0327	66
68.0281	186
69.9787	12
70.9857	247
71.994	12
74.0095	17
80.0272	533
80.0665	12
81.034	91
81.9767	15
82.0442	33
82.9844	143
83.0081	12
83.9917	17
92.0259	306
93.034	30
95.9789	10
97.9941	224
99.0013	40
107.0355	999
107.0583	12
108.0435	194
109.0503	117
121.052	45
122.988	76
125.0044	347
126.0117	148
134.0464	832
149.9995	183
165.0241	17
167.0258	86
