Mass spectrum: Cybutryne-N-descyclopropyl; LC-ESI-QTOF; MS2; 30 V
Name: Cybutryne-N-descyclopropyl
Class: Fungicide; Metabolite; Transformation_product; Herbicide
Formula: C8H15N5S
Exact mass: 213.1048
SMILES: CC(C)(C)Nc1[nH]c(nc(=N)n1)SC
InChI: InChI=1S/C8H15N5S/c1-8(2,3)13-6-10-5(9)11-7(12-6)14-4/h1-4H3,(H3,9,10,11,12,13)
Instrument: TripleTOF 5600 SCIEX
Instrument type: LC-ESI-QTOF
Ms type: MS2
Ion mode: POSITIVE
Collision energy: 30
Fragmentation mode: CID
Ionization: ESI
Column name: Zorbax Eclipse Plus C18 2.1 mm x 150 mm, 3.5 um, Agilent
Retention time: 7.502 min
Precursor m/z: 214.1121
Precursor type: [M+H]+
m/z	relative intensity
43.0371	13
68.0287	42
74.0084	13
77.0426	814
85.0525	89
91.0346	11
110.0461	67
116.0275	56
140.9999	194
158.0498	999
214.1089	18
