Mass spectrum: Clonidine; LC-ESI-QTOF; MS2; 90 V
Name: Clonidine
Class: Pharmaceutical
Formula: C9H9Cl2N3
Exact mass: 229.0174
SMILES: C1CN=C(N1)NC2=C(C=CC=C2Cl)Cl
InChI: InChI=1S/C9H9Cl2N3/c10-6-2-1-3-7(11)8(6)14-9-12-4-5-13-9/h1-3H,4-5H2,(H2,12,13,14)
Instrument: TripleTOF 6600 SCIEX
Instrument type: LC-ESI-QTOF
Ms type: MS2
Ion mode: POSITIVE
Collision energy: 90
Fragmentation mode: CID
Ionization: ESI
Column name: Zorbax Eclipse Plus C18 2.1 mm x 150 mm, 3.5 um, Agilent
Retention time: 5.408 min
Precursor m/z: 230.0246
Precursor type: [M+H]+
m/z	relative intensity
41.0259	53
42.0207	53
42.0331	148
43.0289	53
44.0493	127
46.9675	116
48.9832	191
50.0142	85
51.0223	106
55.0277	42
61.0071	106
62.0145	159
63.0224	340
64.0176	159
72.9832	701
73.0067	106
74.0139	999
75.0223	403
76.0171	116
77.0378	127
78.034	42
82.9434	180
84.9829	42
88.0177	106
89.0373	53
90.0333	180
91.04	53
96.9827	159
97.9786	170
99.0011	85
99.0102	53
100.0178	85
102.0313	85
105.0437	53
106.9433	106
108.9824	212
123.9933	95
125.0018	85
132.9601	95
