Mass spectrum: Tetraconazole; LC-ESI-QTOF; MS2; 90 V
Name: Tetraconazole
Class: Fungicide
Formula: C13H11Cl2F4N3O
Exact mass: 371.0215
SMILES: C1=CC(=C(C=C1Cl)Cl)C(CN2C=NC=N2)COC(C(F)F)(F)F
InChI: InChI=1S/C13H11Cl2F4N3O/c14-9-1-2-10(11(15)3-9)8(4-22-7-20-6-21-22)5-23-13(18,19)12(16)17/h1-3,6-8,12H,4-5H2
Instrument: TripleTOF 6600 SCIEX
Instrument type: LC-ESI-QTOF
Ms type: MS2
Ion mode: POSITIVE
Collision energy: 90
Fragmentation mode: CID
Ionization: ESI
Column name: Zorbax Eclipse Plus C18 2.1 mm x 150 mm, 3.5 um, Agilent
Retention time: 12.382 min
Precursor m/z: 372.0288
Precursor type: [M+H]+
m/z	relative intensity
43.0288	63
51.0035	59
61.0066	14
62.0141	28
63.0223	75
70.0395	376
72.9836	201
82.9444	10
87.0218	11
88.0299	45
89.0384	999
96.9832	66
98.9991	293
107.0282	16
113.0375	14
114.0454	29
115.0536	329
122.9995	911
124.0069	253
132.9602	139
133.0436	16
149.0144	26
158.9761	616
176.9658	11
