Mass spectrum: Dichlorvos; LC-ESI-QTOF; MS2; 50 V
Name: Dichlorvos
Class: Insecticide; Transformation_product; Pharmaceutical
Formula: C4H7Cl2O4P
Exact mass: 219.9459
SMILES: CO[P](=O)(OC)OC=C(Cl)Cl
InChI: InChI=1S/C4H7Cl2O4P/c1-8-11(7,9-2)10-3-4(5)6/h3H,1-2H3
Instrument: TripleTOF 5600 SCIEX
Instrument type: LC-ESI-QTOF
Ms type: MS2
Ion mode: POSITIVE
Collision energy: 50
Fragmentation mode: CID
Ionization: ESI
Column name: Zorbax Eclipse Plus C18 2.1 mm x 150 mm, 3.5 um, Agilent
Retention time: 9.126 min
Precursor m/z: 220.9532
Precursor type: [M+H]+
m/z	relative intensity
55.0601	199
59.9798	241
59.9992	27
65.0424	124
77.0404	372
78.9964	668
79.0565	213
91.0553	585
92.9731	41
94.946	633
94.9897	234
95.0503	34
96.9607	96
103.0536	62
107.0481	34
109.0046	999
111.9475	55
112.9571	62
115.0519	41
123.0431	34
127.0143	165
