Mass spectrum: 6alpha-Methylprednisolone; LC-ESI-QTOF; MS2; 130 V
Name: 6alpha-Methylprednisolone
Class: Pharmaceutical
Formula: C22H30O5
Exact mass: 374.2093
SMILES: C[C@H]1C[C@H]2[C@@H]3CC[C@](O)(C(=O)CO)[C@@]3(C)C[C@H](O)[C@@H]2[C@@]4(C)C=CC(=O)C=C14
InChI: InChI=1S/C22H30O5/c1-12-8-14-15-5-7-22(27,18(26)11-23)21(15,3)10-17(25)19(14)20(2)6-4-13(24)9-16(12)20/h4,6,9,12,14-15,17,19,23,25,27H,5,7-8,10-11H2,1-3H3/t12-,14-,15-,17-,19+,20-,21-,22-/m0/s1
Instrument: TripleTOF 5600 SCIEX
Instrument type: LC-ESI-QTOF
Ms type: MS2
Ion mode: POSITIVE
Collision energy: 130
Fragmentation mode: CID
Ionization: ESI
Column name: Zorbax Eclipse Plus C18 2.1 mm x 150 mm, 3.5 um, Agilent
Retention time: 9.016 min
Precursor m/z: 375.2166
Precursor type: [M+H]+
m/z	relative intensity
43.028	37
51.0278	68
65.0421	302
77.0417	749
78.0486	68
79.0568	105
89.0415	113
91.0553	771
102.0473	113
103.0546	113
105.0684	98
107.0495	37
115.0542	999
116.0623	45
117.0697	52
121.0629	30
126.0453	75
127.0543	295
128.0621	567
128.0952	37
129.0691	68
131.0492	121
139.0525	151
141.0688	143
150.0469	52
151.0552	257
152.0619	658
153.0704	90
157.0661	52
163.0549	105
164.0634	113
165.0688	575
176.0613	151
177.0687	75
178.0785	272
179.0865	37
181.0656	45
189.0692	385
190.0786	30
191.0858	37
200.0625	68
201.068	90
202.0782	287
213.0705	37
215.0901	60
