Mass spectrum: Flazasulfuron; LC-ESI-QTOF; MS2; 40 V
Name: Flazasulfuron
Class: Herbicide
Formula: C13H12F3N5O5S
Exact mass: 407.0511
SMILES: COC1=CC(=NC(=N1)NC(=O)NS(=O)(=O)C2=C(C=CC=N2)C(F)(F)F)OC
InChI: InChI=1S/C13H12F3N5O5S/c1-25-8-6-9(26-2)19-11(18-8)20-12(22)21-27(23,24)10-7(13(14,15)16)4-3-5-17-10/h3-6H,1-2H3,(H2,18,19,20,21,22)
Instrument: TripleTOF 6600 SCIEX
Instrument type: LC-ESI-QTOF
Ms type: MS2
Ion mode: NEGATIVE
Collision energy: 40
Fragmentation mode: CID
Ionization: ESI
Column name: Zorbax Eclipse Plus C18 2.1 mm x 150 mm, 3.5 um, Agilent
Retention time: 11.145 min
Precursor m/z: 406.0438
Precursor type: [M-H]-
m/z	relative intensity
41.9972	58
65.0127	34
65.9966	28
105.9583	30
107.0106	35
111.0656	10
121.0193	23
122.0343	100
124.0487	21
139.0122	17
139.037	71
141.0258	10
142.0099	11
154.0611	999
159.0163	49
161.0318	246
162.0172	165
164.0315	37
179.0553	96
187.0131	28
224.9915	10
250.9727	107
