Mass spectrum: 4-chloro-2-hydroxy-4-methoxybenzophenone; LC-ESI-QTOF; MS2; 30 V
Name: 4-chloro-2-hydroxy-4-methoxybenzophenone
Formula: C14H11ClO3
Exact mass: 262.0397
SMILES: COC1=CC(=C(C=C1)C(=O)C2=CC=C(C=C2)Cl)O
InChI: InChI=1S/C14H11ClO3/c1-18-11-6-7-12(13(16)8-11)14(17)9-2-4-10(15)5-3-9/h2-8,16H,1H3
Instrument: TripleTOF 5600 SCIEX
Instrument type: LC-ESI-QTOF
Ms type: CID
Ion mode: POSITIVE
Collision energy: 30
Ionization: ESI
Column name: Zorbax Eclipse Plus C18 2.1 mm x 150 mm, 3.5 um, Agilent
Retention time: 14.544 min
Precursor m/z: 263.0469
Precursor type: [M+H]+
m/z	relative intensity
95.0532	30
111.0025	85
138.9964	729
151.0404	999
263.0467	132
