Mass spectrum: Dienogest Impurity G; LC-ESI-QTOF; MS2; 140 V
Name: Dienogest Impurity G
Class: Pharmaceutical
Formula: C20H23NO2
Exact mass: 309.1729
SMILES: CC12CC=C3C(C1CCC2(CC#N)O)CCC4=C3C=CC(=C4)O
InChI: InChI=1S/C20H23NO2/c1-19-8-6-16-15-5-3-14(22)12-13(15)2-4-17(16)18(19)7-9-20(19,23)10-11-21/h3,5-6,12,17-18,22-23H,2,4,7-10H2,1H3
Instrument: TripleTOF 6600 SCIEX
Instrument type: LC-ESI-QTOF
Ms type: MS2
Ion mode: POSITIVE
Collision energy: 140
Fragmentation mode: CID
Ionization: ESI
Column name: Zorbax Eclipse Plus C18 2.1 mm x 150 mm, 3.5 um, Agilent
Retention time: 9.956 min
Precursor m/z: 310.1802
Precursor type: [M+H]+
m/z	relative intensity
37.0067	76
38.0148	64
39.022	256
41.0375	76
49.0067	102
50.014	422
51.0221	883
61.006	76
62.0138	179
63.0216	333
65.0372	320
74.0137	140
75.0219	115
76.0298	89
77.0374	999
78.0448	128
79.0523	64
87.022	89
89.0374	473
91.0529	140
102.0454	179
103.0527	102
115.0529	870
126.0444	153
127.0512	140
128.0598	153
139.0527	102
150.0441	64
151.0523	128
152.0603	153
163.051	128
164.0601	89
165.0668	128
176.0598	64
187.053	76
189.0689	51
