Mass spectrum: Methiocarb; LC-ESI-QTOF; MS2; 50 V
Name: Methiocarb
Class: Acaricide; Insecticide
Formula: C11H15NO2S
Exact mass: 225.0823
SMILES: Cc1cc(cc(c1SC)C)OC(=O)NC
InChI: InChI=1S/C11H15NO2S/c1-7-5-9(14-11(13)12-3)6-8(2)10(7)15-4/h5-6H,1-4H3,(H,12,13)
Instrument: TripleTOF 6600 SCIEX
Instrument type: LC-ESI-QTOF
Ms type: MS2
Ion mode: POSITIVE
Collision energy: 50
Fragmentation mode: CID
Ionization: ESI
Column name: Zorbax Eclipse Plus C18 2.1 mm x 150 mm, 3.5 um, Agilent
Retention time: 11.34614 min
Precursor m/z: 226.0896
Precursor type: [M+H]+
m/z	relative intensity
44.9767	12
51.0205	63
53.0366	11
65.036	51
67.0519	19
77.0359	999
78.0435	44
79.0512	131
91.0513	505
93.0668	144
94.0749	13
103.0511	38
104.0585	22
105.0413	31
107.0462	860
111.0235	25
121.0619	339
122.0697	177
135.0231	10
139.0172	11
154.0412	16
