Mass spectrum: Quinmerac; LC-ESI-QTOF; MS2; 80 V
Name: Quinmerac
Class: Herbicide
Formula: C11H8ClNO2
Exact mass: 221.0244
SMILES: Cc1cc2ccc(c(c2nc1)C(=O)O)Cl
InChI: InChI=1S/C11H8ClNO2/c1-6-4-7-2-3-8(12)9(11(14)15)10(7)13-5-6/h2-5H,1H3,(H,14,15)
Instrument: TripleTOF 6600 SCIEX
Instrument type: LC-ESI-QTOF
Ms type: MS2
Ion mode: POSITIVE
Collision energy: 80
Fragmentation mode: CID
Ionization: ESI
Column name: Zorbax Eclipse Plus C18 2.1 mm x 150 mm, 3.5 um, Agilent
Retention time: 7.013 min
Precursor m/z: 222.0316
Precursor type: [M+H]+
m/z	relative intensity
37.0076	11
38.0148	10
39.023	34
46.9675	10
48.984	19
50.0148	19
51.0228	20
61.0073	62
62.015	160
63.0231	263
64.0181	32
64.0311	11
65.0385	38
72.984	73
74.0151	80
75.0233	40
76.0304	28
77.0372	13
85.0072	17
86.0152	88
87.0231	200
88.0304	518
89.0381	79
90.0337	43
96.9836	31
98.0153	17
98.9994	34
99.0219	22
102.0457	25
107.9761	10
112.0184	14
113.0387	999
114.0457	726
115.0412	16
115.0536	37
123.0005	74
123.9948	11
138.0348	11
139.0425	22
140.0497	670
141.0573	43
149.016	76
