Mass spectrum: 4-Formylaminoantipyrine; LC-ESI-QTOF; MS2; 50 V
Name: 4-Formylaminoantipyrine
Class: Pharmaceutical; Metabolite; Transformation_product
Formula: C12H13N3O2
Exact mass: 231.1008
SMILES: CN1N(C(=O)C(=C1C)NC=O)c2ccccc2
InChI: InChI=1S/C12H13N3O2/c1-9-11(13-8-16)12(17)15(14(9)2)10-6-4-3-5-7-10/h3-8H,1-2H3,(H,13,16)
Instrument: TripleTOF 5600 SCIEX
Instrument type: LC-ESI-QTOF
Ms type: MS2
Ion mode: POSITIVE
Collision energy: 50
Fragmentation mode: CID
Ionization: ESI
Column name: Zorbax Eclipse Plus C18 2.1 mm x 150 mm, 3.5 um, Agilent
Retention time: 5.623 min
Precursor m/z: 232.1081
Precursor type: [M+H]+
m/z	relative intensity
42.0414	15
51.0285	43
56.0553	741
68.0512	11
77.0416	999
77.0756	21
81.0464	15
83.0624	425
91.0548	12
93.0577	9
94.066	119
103.0529	11
104.0492	186
115.0513	14
117.0557	15
118.0656	14
128.0489	29
130.0638	22
131.0706	9
132.0792	23
145.0754	12
159.0894	12
