Mass spectrum: 5-Aminofluorescein; LC-ESI-QTOF; MS2; 60 V
Name: 5-Aminofluorescein
Class: Pharmaceutical
Formula: C20H13NO5
Exact mass: 347.0794
SMILES: Nc1ccc2c(c1)C(=O)OC23c4ccc(O)cc4Oc5cc(O)ccc35
InChI: InChI=1S/C20H13NO5/c21-10-1-4-14-13(7-10)19(24)26-20(14)15-5-2-11(22)8-17(15)25-18-9-12(23)3-6-16(18)20/h1-9,22-23H,21H2
Instrument: TripleTOF 5600 SCIEX
Instrument type: LC-ESI-QTOF
Ms type: MS2
Ion mode: POSITIVE
Collision energy: 60
Fragmentation mode: CID
Ionization: ESI
Column name: Zorbax Eclipse Plus C18 2.1 mm x 150 mm, 3.5 um, Agilent
Retention time: 8.159 min
Precursor m/z: 348.0866
Precursor type: [M+H]+
m/z	relative intensity
65.0418	38
68.9992	10
92.0516	56
115.0543	23
117.0675	10
120.0426	33
127.0543	23
130.0661	12
131.0469	12
152.0649	12
154.0647	54
155.0482	49
155.0718	10
156.0787	12
165.0693	43
166.0651	15
167.0734	18
173.0577	10
176.0615	18
177.0687	31
178.0744	33
179.0837	10
180.0775	20
181.063	18
182.0599	25
183.0664	38
184.0517	20
189.0678	95
190.0742	38
191.0785	46
192.0811	15
193.0867	31
199.0393	18
200.0597	59
201.0672	191
202.0765	326
203.0843	75
204.0812	82
205.0644	23
205.0859	36
206.095	41
207.0778	23
211.0447	18
211.0601	18
212.0685	28
213.0694	49
214.052	12
214.0792	18
215.0794	25
216.0796	49
217.0666	20
217.0872	186
218.0712	72
218.0955	106
219.0778	31
219.1018	15
220.0734	38
220.1121	15
221.0591	25
222.072	12
222.0903	10
227.0388	10
227.0677	43
228.0351	12
228.0794	100
229.0503	383
230.0713	43
230.0945	77
231.0787	163
232.0753	46
233.0828	87
234.0657	43
234.0914	36
235.0707	12
237.0515	28
240.0821	25
241.0656	23
242.0693	41
244.074	87
245.0568	28
245.0832	64
246.0593	18
246.0895	289
247.0731	72
248.0771	28
248.1032	56
249.0793	43
250.0592	12
256.0756	54
257.0593	80
257.0822	144
258.068	349
259.0738	207
260.0722	100
261.0801	33
262.0835	56
263.0699	18
264.0624	15
269.0559	54
270.0666	23
271.0724	90
272.0693	43
273.0778	230
274.084	318
275.0703	69
275.091	80
276.1044	82
284.0688	41
285.0551	155
286.0841	398
287.0691	527
288.0649	56
289.0726	43
300.0647	23
301.0701	124
302.0802	999
303.0563	10
303.0885	33
304.096	411
313.0509	31
314.0772	10
330.0753	87
331.0583	20
348.0839	214
