Mass spectrum: Thiamethoxam; LC-ESI-QTOF; MS2; 40 V
Name: Thiamethoxam
Class: Insecticide
Formula: C8H10ClN5O3S
Exact mass: 291.0193
SMILES: CN1COCN(Cc2sc(Cl)nc2)/C1=N/[N+]([O-])=O
InChI: InChI=1S/C8H10ClN5O3S/c1-12-4-17-5-13(8(12)11-14(15)16)3-6-2-10-7(9)18-6/h2H,3-5H2,1H3/b11-8+
Instrument: TripleTOF 5600 SCIEX
Instrument type: LC-ESI-QTOF
Ms type: MS2
Ion mode: POSITIVE
Collision energy: 40
Fragmentation mode: CID
Ionization: ESI
Column name: Zorbax Eclipse Plus C18 2.1 mm x 150 mm, 3.5 um, Agilent
Retention time: 6.188 min
Precursor m/z: 292.0266
Precursor type: [M+H]+
m/z	relative intensity
67.0463	37
69.0479	146
69.0649	23
70.9976	65
81.0473	23
83.9944	18
87.9974	18
94.0543	23
95.0598	18
98.0085	51
99.0029	47
108.0542	306
112.0207	28
113.0163	18
122.0693	306
123.0764	23
123.0859	18
124.0091	18
125.0168	136
131.9665	999
138.0116	47
139.0333	32
147.0669	37
151.0184	113
152.0279	452
152.0617	18
154.0424	28
165.0243	37
174.972	42
180.0449	108
180.0584	28
181.0537	951
210.0547	56
211.0629	537
