Mass spectrum: Hydrocortisone; LC-ESI-QTOF; MS2; 50 V
Name: Hydrocortisone
Class: Pharmaceutical
Formula: C21H30O5
Exact mass: 362.2093
SMILES: C[C@]12CCC(=O)C=C1CC[C@H]3[C@@H]4CC[C@](O)(C(=O)CO)[C@@]4(C)C[C@H](O)[C@H]23
InChI: InChI=1S/C21H30O5/c1-19-7-5-13(23)9-12(19)3-4-14-15-6-8-21(26,17(25)11-22)20(15,2)10-16(24)18(14)19/h9,14-16,18,22,24,26H,3-8,10-11H2,1-2H3/t14-,15-,16-,18+,19-,20-,21-/m0/s1
Instrument: TripleTOF 5600 SCIEX
Instrument type: LC-ESI-QTOF
Ms type: MS2
Ion mode: POSITIVE
Collision energy: 50
Fragmentation mode: CID
Ionization: ESI
Column name: Zorbax Eclipse Plus C18 2.1 mm x 150 mm, 3.5 um, Agilent
Retention time: 8.323 min
Precursor m/z: 363.2166
Precursor type: [M+H]+
m/z	relative intensity
43.0251	24
55.0608	19
65.0431	14
67.0585	47
69.0369	22
69.0739	14
71.0524	12
77.0415	146
79.0566	163
81.0364	14
81.0714	118
83.0514	84
91.0556	366
93.0706	245
95.0492	12
95.0587	9
95.0866	123
97.0657	312
99.0463	24
103.054	29
105.0708	406
105.0988	19
107.0502	47
107.0857	143
109.0649	213
109.0992	27
111.0438	12
111.0795	17
115.0542	89
116.0629	27
117.07	210
119.0505	12
119.086	287
119.1094	14
121.0652	999
121.0977	69
123.0806	240
125.0584	14
127.0536	22
128.0619	146
128.0904	12
129.0698	193
130.0777	54
131.0851	282
132.0595	12
133.0651	49
133.1012	136
135.0808	96
135.1153	19
137.0612	17
137.0965	17
139.0757	14
141.0703	161
142.0782	116
143.085	275
144.0941	37
145.0639	54
145.101	334
146.0759	14
146.1088	19
147.0802	86
147.1172	218
148.0871	24
149.0953	39
149.1305	17
151.0775	12
152.0619	24
153.0711	76
154.077	59
155.0853	223
156.0933	42
157.0643	27
157.1011	230
158.0725	37
159.0801	89
159.1155	141
160.0866	9
161.0956	71
161.1307	24
163.0751	12
163.1126	151
165.0704	71
166.0776	39
167.0854	96
168.0946	54
169.068	12
169.1002	225
170.1094	29
171.0793	59
171.1166	146
172.0879	12
172.1243	27
173.0967	74
173.1325	57
174.1039	27
175.112	81
178.0758	29
179.0855	69
180.0927	34
181.1003	106
182.11	37
183.0813	24
183.1167	131
184.0902	14
184.1234	24
185.095	52
185.1332	84
187.1108	37
187.1463	12
189.0846	14
189.1265	32
191.0875	12
192.094	34
193.1018	69
194.1091	52
195.085	9
195.117	94
196.0869	12
196.1219	12
197.0952	57
197.1326	76
198.1041	14
199.1107	34
199.1479	42
200.1191	14
201.1259	14
205.1021	27
206.1073	24
207.1178	71
208.1237	22
209.0955	12
209.1303	91
210.1395	14
211.1112	42
211.1467	71
212.1171	19
213.1282	42
213.167	12
214.1346	14
215.1409	37
217.099	17
218.1062	19
219.1163	34
220.124	34
221.0972	12
221.1307	39
222.1076	9
223.1115	29
223.1474	44
224.12	14
225.1269	74
225.1649	37
226.1366	27
226.1579	9
227.1419	34
227.1791	14
228.1507	32
229.1635	14
233.0994	12
233.1299	17
234.1392	17
235.1106	14
235.1488	27
236.141	14
237.1246	9
238.1281	12
239.1428	52
239.1805	14
241.1596	42
242.163	19
243.1182	12
243.1685	12
247.11	12
249.1651	17
251.1414	39
252.1511	12
253.1584	116
254.1654	14
255.1707	12
263.1437	12
265.1616	22
266.1613	14
267.1734	37
268.1789	29
269.1539	14
286.1952	12
291.1725	12
297.1856	17
309.1851	12
312.1722	12
