Mass spectrum: Metaflumizone; LC-ESI-QTOF; MS2; 80 V
Name: Metaflumizone
Class: Insecticide; Pharmaceutical
Formula: C24H16F6N4O2
Exact mass: 506.1177
SMILES: C1=CC(=CC(=C1)C(F)(F)F)C(=NNC(=O)NC2=CC=C(C=C2)OC(F)(F)F)CC3=CC=C(C=C3)C#N
InChI: InChI=1S/C24H16F6N4O2/c25-23(26,27)18-3-1-2-17(13-18)21(12-15-4-6-16(14-31)7-5-15)33-34-22(35)32-19-8-10-20(11-9-19)36-24(28,29)30/h1-11,13H,12H2,(H2,32,34,35)
Instrument: TripleTOF 6600 SCIEX
Instrument type: LC-ESI-QTOF
Ms type: MS2
Ion mode: NEGATIVE
Collision energy: 80
Fragmentation mode: CID
Ionization: ESI
Column name: Zorbax Eclipse Plus C18 2.1 mm x 150 mm, 3.5 um, Agilent
Retention time: 15.496 min
Precursor m/z: 505.1105
Precursor type: [M-H]-
m/z	relative intensity
41.9973	10
84.989	14
102.0339	180
115.0294	115
116.0385	100
116.0483	64
117.0455	392
126.034	13
137.0202	19
141.046	566
145.0262	22
169.0269	13
179.0417	21
199.0489	18
212.0519	12
214.0657	36
215.0619	12
225.0444	15
232.0555	23
234.0723	12
240.0522	12
242.0724	29
245.0513	19
258.0537	12
272.0689	13
285.0645	999
300.0768	12
