Mass spectrum: Dodecyl sulfate; LC-ESI-QTOF; MS2; 60 V
Name: Dodecyl sulfate
Formula: C12H26O4S
Exact mass: 266.1552
SMILES: CCCCCCCCCCCCOS(=O)(=O)O
InChI: InChI=1S/C12H26O4S/c1-2-3-4-5-6-7-8-9-10-11-12-16-17(13,14)15/h2-12H2,1H3,(H,13,14,15)
Instrument: TripleTOF 6600 SCIEX
Instrument type: LC-ESI-QTOF
Ms type: MS2
Ion mode: NEGATIVE
Collision energy: 60
Fragmentation mode: CID
Ionization: ESI
Column name: Zorbax Eclipse Plus C18 2.1 mm x 150 mm, 3.5 um, Agilent
Retention time: 14.914 min
Precursor m/z: 265.1479
Precursor type: [M-H]-
m/z	relative intensity
79.9567	449
95.9514	98
96.9598	999
