Mass spectrum: Cyclohexyldiethanolamine; LC-ESI-QTOF; MS2; 50 V
Name: Cyclohexyldiethanolamine
Formula: C10H21NO2
Exact mass: 187.1572
SMILES: C1CCC(CC1)N(CCO)CCO
InChI: InChI=1S/C10H21NO2/c12-8-6-11(7-9-13)10-4-2-1-3-5-10/h10,12-13H,1-9H2
Instrument: TripleTOF 6600 SCIEX
Instrument type: LC-ESI-QTOF
Ms type: MS2
Ion mode: POSITIVE
Collision energy: 50
Fragmentation mode: CID
Ionization: ESI
Column name: Zorbax Eclipse Plus C18 2.1 mm x 150 mm, 3.5 um, Agilent
Retention time: 4.323 min
Precursor m/z: 188.1645
Precursor type: [M+H]+
m/z	relative intensity
37.0064	16
38.0143	18
39.0224	162
41.0385	217
42.0336	215
43.0538	16
44.0489	241
45.0333	213
53.0388	29
55.0541	999
56.0567	18
68.0479	20
70.0649	299
83.085	27
88.0749	52
