Mass spectrum: Fluorescent brightener 363; LC-ESI-QTOF; MS2; 140 V
Name: Fluorescent brightener 363
Class: Pigment
Formula: [C19H19N2O4S]+
Exact mass: 371.106
SMILES: COC1=CC(OC(C2=[N+](C)C(C=C(S(=O)(C)=O)C=C3)=C3N2C)=C4)=C4C=C1
InChI: InChI=1S/C19H19N2O4S/c1-20-15-8-7-14(26(4,22)23)11-16(15)21(2)19(20)18-9-12-5-6-13(24-3)10-17(12)25-18/h5-11H,1-4H3/q+1
Instrument: TripleTOF 6600 SCIEX
Instrument type: LC-ESI-QTOF
Ms type: MS2
Ion mode: POSITIVE
Collision energy: 140
Fragmentation mode: CID
Ionization: ESI
Column name: Zorbax Eclipse Plus C18 2.1 mm x 150 mm, 3.5 um, Agilent
Retention time: 8.155 min
Precursor m/z: 371.106
Precursor type: [M]+
m/z	relative intensity
50.0155	946
51.0238	946
62.0169	525
63.0232	630
65.0378	315
74.0147	420
75.0227	841
76.0292	736
77.0377	946
89.0364	946
90.0461	262
91.0515	368
101.0378	315
102.0329	368
103.0404	315
104.0484	210
113.0361	315
114.0334	473
115.0394	262
125.0377	473
126.0449	210
137.0373	210
140.0491	315
149.037	262
150.0451	999
151.0529	788
152.0474	262
155.0598	210
163.0417	262
164.0494	999
164.0629	315
166.0605	210
176.0514	262
177.0573	999
179.0601	368
190.0657	788
191.0657	420
203.0595	683
216.0658	368
217.0767	630
218.0848	473
