Mass spectrum: Amisulbrom; LC-ESI-QTOF; MS2; 150 V
Name: Amisulbrom
Formula: C13H13BrFN5O4S2
Exact mass: 464.9576
SMILES: CC1=C(C2=C(N1S(=O)(=O)C3=NN(C=N3)S(=O)(=O)N(C)C)C=C(C=C2)F)Br
InChI: InChI=1S/C13H13BrFN5O4S2/c1-8-12(14)10-5-4-9(15)6-11(10)20(8)25(21,22)13-16-7-19(17-13)26(23,24)18(2)3/h4-7H,1-3H3
Instrument: TripleTOF 6600 SCIEX
Instrument type: LC-ESI-QTOF
Ms type: MS2
Ion mode: POSITIVE
Collision energy: 150
Fragmentation mode: CID
Ionization: ESI
Column name: Zorbax Eclipse Plus C18 2.1 mm x 150 mm, 3.5 um, Agilent
Retention time: 14.781 min
Precursor m/z: 465.9649
Precursor type: [M+H]+
m/z	relative intensity
42.033	76
51.0208	33
70.0196	50
74.0149	414
75.0216	956
77.0382	33
83.0287	50
87.0217	42
93.013	42
94.0215	152
95.0295	203
96.0367	135
98.0132	143
99.0221	397
100.017	194
100.0281	126
101.0362	304
106.017	33
107.028	220
119.0254	33
120.0364	999
121.0344	50
126.0345	110
127.038	33
128.0508	50
129.0445	84
132.0198	42
146.0358	203
147.0401	93
147.0531	67
148.054	50
154.0376	101
