Mass spectrum: Omeprazole 4-desmethylthioether; LC-ESI-QTOF; MS2; 100 V
Name: Omeprazole 4-desmethylthioether
Class: Metabolite; Pharmaceutical
Formula: C16H17N3O2S
Exact mass: 315.1041
SMILES: Cc1cnc(c(c1O)C)CSc2[nH]c3ccc(cc3n2)OC
InChI: InChI=1S/C16H17N3O2S/c1-9-7-17-14(10(2)15(9)20)8-22-16-18-12-5-4-11(21-3)6-13(12)19-16/h4-7H,8H2,1-3H3,(H,17,20)(H,18,19)
Instrument: TripleTOF 5600 SCIEX
Instrument type: LC-ESI-QTOF
Ms type: MS2
Ion mode: POSITIVE
Collision energy: 100
Fragmentation mode: CID
Ionization: ESI
Column name: Zorbax Eclipse Plus C18 2.1 mm x 150 mm, 3.5 um, Agilent
Retention time: 6.17 min
Precursor m/z: 316.1114
Precursor type: [M+H]+
m/z	relative intensity
43.0249	33
52.0365	67
53.0439	50
65.0432	296
66.0501	101
67.0453	93
67.0568	194
77.0413	313
77.0658	42
78.0383	101
79.0476	541
80.0532	211
81.06	76
91.0568	135
92.0503	169
93.0582	491
94.0663	533
95.0523	50
95.0746	42
96.0841	67
105.0444	67
106.0536	609
107.0764	118
108.0458	42
108.0811	999
109.0531	59
109.0861	42
117.0546	50
123.067	59
124.0763	42
134.0494	237
136.0754	50
137.0162	42
138.03	33
166.0324	152
