Mass spectrum: Metformin; LC-ESI-QTOF; MS2; 50 V
Name: Metformin
Class: Pharmaceutical
Formula: C4H11N5
Exact mass: 129.1014
SMILES: CN(C)C(=N)N=C(N)N
InChI: InChI=1S/C4H11N5/c1-9(2)4(7)8-3(5)6/h1-2H3,(H5,5,6,7,8)
Instrument: TripleTOF 6600 SCIEX
Instrument type: LC-ESI-QTOF
Ms type: MS2
Ion mode: POSITIVE
Collision energy: 50
Fragmentation mode: CID
Ionization: ESI
Column name: Zorbax Eclipse Plus C18 2.1 mm x 150 mm, 3.5 um, Agilent
Retention time: 1.521 min
Precursor m/z: 130.1087
Precursor type: [M+H]+
m/z	relative intensity
30.0333	35
41.0128	25
42.021	15
42.033	66
43.0288	999
44.0491	105
46.0643	157
55.0284	433
56.0362	289
57.0438	25
60.0545	17
68.0236	407
71.0596	513
