Mass spectrum: Propranolol; LC-ESI-QTOF; MS2; 60 V
Name: Propranolol
Class: Pharmaceutical
Formula: C16H21NO2
Exact mass: 259.1572
SMILES: CC(C)NCC(O)COc1cccc2ccccc12
InChI: InChI=1S/C16H21NO2/c1-12(2)17-10-14(18)11-19-16-9-5-7-13-6-3-4-8-15(13)16/h3-9,12,14,17-18H,10-11H2,1-2H3
Instrument: TripleTOF 5600 SCIEX
Instrument type: LC-ESI-QTOF
Ms type: MS2
Ion mode: POSITIVE
Collision energy: 60
Fragmentation mode: CID
Ionization: ESI
Column name: Zorbax Eclipse Plus C18 2.1 mm x 150 mm, 3.5 um, Agilent
Retention time: 7.356 min
Precursor m/z: 260.1645
Precursor type: [M+H]+
m/z	relative intensity
56.0564	325
58.0709	197
72.0845	71
74.064	116
77.0423	118
84.0834	21
89.0408	12
91.0569	43
100.1136	47
101.0394	17
102.0486	11
115.0557	408
116.0625	21
116.1085	12
117.0713	41
126.0478	51
127.0561	999
128.0638	707
129.0707	270
139.055	39
140.0642	26
141.0706	39
144.0568	17
145.0658	26
151.0553	23
152.0635	148
153.0713	311
154.0789	103
155.0621	26
155.0865	64
157.0664	24
163.0553	10
164.0637	39
165.0712	211
168.0585	51
181.0681	22
