Mass spectrum: 2-[(Dimethylamino)methyl]benzonitrile; LC-ESI-QTOF; MS2; 60 V
Name: 2-[(Dimethylamino)methyl]benzonitrile
Formula: C10H12N2
Exact mass: 160.1
SMILES: CN(C)CC1=CC=CC=C1C#N
InChI: InChI=1S/C10H12N2/c1-12(2)8-10-6-4-3-5-9(10)7-11/h3-6H,8H2,1-2H3
Instrument: TripleTOF X500R SCIEX
Instrument type: LC-ESI-QTOF
Ms type: MS2
Ion mode: POSITIVE
Collision energy: 60
Fragmentation mode: CID
Ionization: ESI
Column name: Zorbax Eclipse Plus C18 2.1 mm x 150 mm, 3.5 um, Agilent
Retention time: 4.371 min
Precursor m/z: 161.1073
Precursor type: [M+H]+
m/z	relative intensity
37.0073	31
38.0153	28
39.0229	320
41.0386	33
44.0494	84
61.0073	21
62.0151	60
63.0226	839
64.0183	120
65.0388	75
66.0346	13
88.0184	35
89.0385	999
90.0343	138
91.0546	12
116.05	105
117.0579	23
