Mass spectrum: Meperidine; LC-ESI-QTOF; MS2; 10 V
Name: Meperidine
Class: Pharmaceutical
Formula: C15H21NO2
Exact mass: 247.1572
SMILES: CCOC(=O)C1(CCN(CC1)C)C2=CC=CC=C2
InChI: InChI=1S/C15H21NO2/c1-3-18-14(17)15(9-11-16(2)12-10-15)13-7-5-4-6-8-13/h4-8H,3,9-12H2,1-2H3
Instrument: TripleTOF 6600 SCIEX
Instrument type: LC-ESI-QTOF
Ms type: MS2
Ion mode: POSITIVE
Collision energy: 10
Fragmentation mode: CID
Ionization: ESI
Column name: Zorbax Eclipse Plus C18 2.1 mm x 150 mm, 3.5 um, Agilent
Retention time: 6.573 min
Precursor m/z: 248.1645
Precursor type: [M+H]+
m/z	relative intensity
248.1768	999
