Mass spectrum: 2-Piperidin-3-yl-benzothiazole; LC-ESI-QTOF; MS2; 50 V
Name: 2-Piperidin-3-yl-benzothiazole
Formula: C12H14N2S
Exact mass: 218.0878
SMILES: C1CC(CNC1)C2=NC3=CC=CC=C3S2
InChI: InChI=1S/C12H14N2S/c1-2-6-11-10(5-1)14-12(15-11)9-4-3-7-13-8-9/h1-2,5-6,9,13H,3-4,7-8H2
Instrument: TripleTOF 5600 SCIEX
Instrument type: LC-ESI-QTOF
Ms type: MS2
Ion mode: POSITIVE
Collision energy: 50
Fragmentation mode: CID
Ionization: ESI
Column name: Zorbax Eclipse Plus C18 2.1 mm x 150 mm, 3.5 um, Agilent
Retention time: 5.623 min
Precursor m/z: 219.095
Precursor type: [M+H]+
m/z	relative intensity
44.0496	32
44.9794	55
65.0384	20
68.9793	10
70.0651	54
77.0393	15
81.9872	12
104.0497	128
108.0031	77
109.0105	190
116.0504	14
117.058	43
121.0109	52
122.0184	10
130.0647	15
136.0213	40
148.0221	873
149.0296	999
150.0357	18
160.023	16
162.0386	198
173.0314	23
174.0379	122
175.0462	116
176.0533	48
186.0366	14
190.0692	286
