Mass spectrum: Anagrelide; LC-ESI-QTOF; MS2; 110 V
Name: Anagrelide
Class: Pharmaceutical
Formula: C10H7Cl2N3O
Exact mass: 254.9966
SMILES: c1cc(c(c2c1NC3=NC(=O)CN3C2)Cl)Cl
InChI: InChI=1S/C10H7Cl2N3O/c11-6-1-2-7-5(9(6)12)3-15-4-8(16)14-10(15)13-7/h1-2H,3-4H2,(H,13,14,16)
Instrument: TripleTOF 5600 SCIEX
Instrument type: LC-ESI-QTOF
Ms type: MS2
Ion mode: POSITIVE
Collision energy: 110
Fragmentation mode: CID
Ionization: ESI
Column name: Zorbax Eclipse Plus C18 2.1 mm x 150 mm, 3.5 um, Agilent
Retention time: 7.666 min
Precursor m/z: 256.0039
Precursor type: [M+H]+
m/z	relative intensity
52.0256	38
61.9836	83
71.9828	25
72.9858	44
73.0099	172
73.0215	38
74.0184	999
74.0452	44
75.0245	633
76.0201	204
83.9763	32
84.9856	51
89.0402	32
99.0104	819
99.0447	51
100.0176	653
101.0272	44
102.0335	307
108.9845	128
109.9895	25
129.0455	32
135.993	25
137.0027	44
