Mass spectrum: Sildenafil; LC-ESI-QTOF; MS2; 130 V
Name: Sildenafil
Class: Pharmaceutical
Formula: C22H30N6O4S
Exact mass: 474.2049
SMILES: CCCC1=NN(C2=C1NC(=NC2=O)C3=C(C=CC(=C3)S(=O)(=O)N4CCN(CC4)C)OCC)C
InChI: InChI=1S/C22H30N6O4S/c1-5-7-17-19-20(27(4)25-17)22(29)24-21(23-19)16-14-15(8-9-18(16)32-6-2)33(30,31)28-12-10-26(3)11-13-28/h8-9,14H,5-7,10-13H2,1-4H3,(H,23,24,29)
Instrument: TripleTOF 5600 SCIEX
Instrument type: LC-ESI-QTOF
Ms type: MS2
Ion mode: POSITIVE
Collision energy: 130
Fragmentation mode: CID
Ionization: ESI
Column name: Zorbax Eclipse Plus C18 2.1 mm x 150 mm, 3.5 um, Agilent
Retention time: 7.283 min
Precursor m/z: 475.2122
Precursor type: [M+H]+
m/z	relative intensity
42.0478	96
43.0545	35
44.0618	22
53.0271	11
56.0585	110
58.0743	999
67.036	16
68.0474	33
69.0501	13
70.0707	49
75.0281	16
76.0393	16
77.0464	55
78.0383	22
79.0444	11
80.0553	13
81.0491	13
83.0636	19
88.0213	11
89.0436	30
90.0386	47
91.0466	24
91.0587	13
92.0547	22
93.045	11
101.0426	33
102.0368	55
103.044	58
104.0516	33
105.0468	22
106.0315	16
107.0484	11
109.0753	11
114.037	27
115.0536	19
116.0384	11
116.0477	44
117.0449	27
118.0413	13
119.0502	19
120.043	22
127.0443	33
128.0498	74
129.0441	102
130.0459	13
130.0622	13
131.0592	30
132.0515	16
136.0553	19
140.0516	27
141.0487	33
142.0526	33
143.0619	35
144.051	16
145.0372	16
154.0609	27
155.0578	74
156.0564	77
157.0679	16
158.0475	19
158.0743	16
167.057	16
168.0522	22
168.0685	19
170.069	58
171.0614	13
171.0786	16
172.058	13
180.0569	22
181.0649	30
182.0698	19
183.0515	22
183.0659	30
184.0471	16
184.0859	19
193.0681	16
195.0641	16
196.0754	13
197.0853	19
198.0624	16
208.0779	11
209.0813	24
210.065	11
225.065	16
225.0794	33
