Mass spectrum: Diprogulic acid; LC-ESI-QTOF; MS2; 40 V
Name: Diprogulic acid
Formula: C12H18O7
Exact mass: 274.1053
SMILES: CC1(C)OCC2C(C3C(OC(C)(C)O3)(C(O)=O)O2)O1
InChI: InChI=1S/C12H18O7/c1-10(2)15-5-6-7(17-10)8-12(16-6,9(13)14)19-11(3,4)18-8/h6-8H,5H2,1-4H3,(H,13,14)
Instrument: TripleTOF 6600 SCIEX
Instrument type: LC-ESI-QTOF
Ms type: MS2
Ion mode: POSITIVE
Collision energy: 40
Fragmentation mode: CID
Ionization: ESI
Column name: Zorbax Eclipse Plus C18 2.1 mm x 150 mm, 3.5 um, Agilent
Retention time: 7.352 min
Precursor m/z: 275.1125
Precursor type: [M+H]+
m/z	relative intensity
31.0175	15
39.0231	31
41.0389	79
43.0179	63
45.0339	31
55.0184	39
57.0338	91
59.0122	43
59.0491	999
68.9969	55
69.0338	222
71.0123	87
73.029	31
85.028	99
87.0069	99
95.0124	214
97.0284	99
113.0226	71
115.0021	103
127.04	27
129.0192	23
141.0176	51
