Mass spectrum: Flurtamone; LC-ESI-QTOF; MS2; 40 V
Name: Flurtamone
Class: Herbicide
Formula: C18H14F3NO2
Exact mass: 333.0977
SMILES: CNC1=C(C(=O)C(O1)C2=CC=CC=C2)C3=CC(=CC=C3)C(F)(F)F
InChI: InChI=1S/C18H14F3NO2/c1-22-17-14(12-8-5-9-13(10-12)18(19,20)21)15(23)16(24-17)11-6-3-2-4-7-11/h2-10,16,22H,1H3
Instrument: TripleTOF 6600 SCIEX
Instrument type: LC-ESI-QTOF
Ms type: MS2
Ion mode: POSITIVE
Collision energy: 40
Fragmentation mode: CID
Ionization: ESI
Column name: Zorbax Eclipse Plus C18 2.1 mm x 150 mm, 3.5 um, Agilent
Retention time: 11.864 min
Precursor m/z: 334.105
Precursor type: [M+H]+
m/z	relative intensity
58.0289	28
77.0388	29
103.0543	20
105.0341	198
120.0811	50
171.0423	21
178.0788	275
197.022	17
207.062	52
209.077	19
225.0173	25
227.0683	258
229.0834	12
246.0668	11
247.0757	999
257.0787	20
275.0699	67
288.1012	11
303.065	22
306.1121	16
