Mass spectrum: Zoxamide; LC-ESI-QTOF; MS2; 60 V
Name: Zoxamide
Class: Fungicide
Formula: C14H16Cl3NO2
Exact mass: 335.0247
SMILES: CCC(C)(C(=O)CCl)NC(=O)C1=CC(=C(C(=C1)Cl)C)Cl
InChI: InChI=1S/C14H16Cl3NO2/c1-4-14(3,12(19)7-15)18-13(20)9-5-10(16)8(2)11(17)6-9/h5-6H,4,7H2,1-3H3,(H,18,20)
Instrument: TripleTOF 6600 SCIEX
Instrument type: LC-ESI-QTOF
Ms type: MS2
Ion mode: POSITIVE
Collision energy: 60
Fragmentation mode: CID
Ionization: ESI
Column name: Zorbax Eclipse Plus C18 2.1 mm x 150 mm, 3.5 um, Agilent
Retention time: 14.13 min
Precursor m/z: 336.032
Precursor type: [M+H]+
m/z	relative intensity
72.9832	12
89.0383	56
98.9993	42
122.9987	314
124.0062	76
132.9598	45
158.9758	999
186.9733	292
