Mass spectrum: 2-Amino-5-methyl-1,3,4-thiadiazole; LC-ESI-QTOF; MS2; 40 V
Name: 2-Amino-5-methyl-1,3,4-thiadiazole
Class: Industrial_process
Formula: C3H5N3S
Exact mass: 115.0204
SMILES: CC1=NN=C(S1)N
InChI: InChI=1S/C3H5N3S/c1-2-5-6-3(4)7-2/h1H3,(H2,4,6)
Instrument: TripleTOF 6600 SCIEX
Instrument type: LC-ESI-QTOF
Ms type: MS2
Ion mode: POSITIVE
Collision energy: 40
Fragmentation mode: CID
Ionization: ESI
Column name: Zorbax Eclipse Plus C18 2.1 mm x 150 mm, 3.5 um, Agilent
Retention time: 2.467 min
Precursor m/z: 116.0277
Precursor type: [M+H]+
m/z	relative intensity
42.0331	81
43.0287	999
46.9812	11
47.9896	207
57.0439	15
57.9738	38
59.9894	66
75.0001	102
