Mass spectrum: 2-Phenylbenzimidazole; LC-ESI-QTOF; MS2; 110 V
Name: 2-Phenylbenzimidazole
Class: Industrial_process
Formula: C13H10N2
Exact mass: 194.0844
SMILES: [nH]1c2ccccc2nc1c3ccccc3
InChI: InChI=1S/C13H10N2/c1-2-6-10(7-3-1)13-14-11-8-4-5-9-12(11)15-13/h1-9H,(H,14,15)
Instrument: TripleTOF 5600 SCIEX
Instrument type: LC-ESI-QTOF
Ms type: MS2
Ion mode: POSITIVE
Collision energy: 110
Fragmentation mode: CID
Ionization: ESI
Column name: Zorbax Eclipse Plus C18 2.1 mm x 150 mm, 3.5 um, Agilent
Retention time: 5.903 min
Precursor m/z: 195.0917
Precursor type: [M+H]+
m/z	relative intensity
35.9998	108
37.0073	458
38.0159	188
39.023	999
50.0148	242
51.0228	242
62.0159	242
63.0236	377
65.0386	567
