Mass spectrum: Quinoxyfen; LC-ESI-QTOF; MS2; 40 V
Name: Quinoxyfen
Class: Fungicide
Formula: C15H8Cl2FNO
Exact mass: 306.9967
SMILES: C1=CC(=CC=C1OC2=C3C(=CC(=CC3=NC=C2)Cl)Cl)F
InChI: InChI=1S/C15H8Cl2FNO/c16-9-7-12(17)15-13(8-9)19-6-5-14(15)20-11-3-1-10(18)2-4-11/h1-8H
Instrument: TripleTOF 6600 SCIEX
Instrument type: LC-ESI-QTOF
Ms type: MS2
Ion mode: POSITIVE
Collision energy: 40
Fragmentation mode: CID
Ionization: ESI
Column name: Zorbax Eclipse Plus C18 2.1 mm x 150 mm, 3.5 um, Agilent
Retention time: 15.195 min
Precursor m/z: 308.004
Precursor type: [M+H]+
m/z	relative intensity
75.0218	18
95.0279	45
122.9981	12
123.0342	13
150.0092	85
162.0093	125
183.9702	14
184.9782	25
196.9788	923
209.0623	23
210.0702	17
212.9735	14
213.9816	419
217.0209	10
225.0328	22
237.0578	66
238.065	11
244.032	100
245.0401	145
253.0287	18
254.0363	15
272.0276	498
280.0093	53
287.9975	37
308.0051	999
