Mass spectrum: 6`-Hydroxymethyl Simvastatin; LC-ESI-QTOF; MS2; 90 V
Name: 6`-Hydroxymethyl Simvastatin
Class: Metabolite; Pharmaceutical
Formula: C25H38O6
Exact mass: 434.2668
SMILES: CCC(C)(C)C(=O)OC1CC(C=C2C1C(C(C=C2)C)CCC3CC(CC(=O)O3)O)CO
InChI: InChI=1S/C25H38O6/c1-5-25(3,4)24(29)31-21-11-16(14-26)10-17-7-6-15(2)20(23(17)21)9-8-19-12-18(27)13-22(28)30-19/h6-7,10,15-16,18-21,23,26-27H,5,8-9,11-14H2,1-4H3
Instrument: TripleTOF 5600 SCIEX
Instrument type: LC-ESI-QTOF
Ms type: MS2
Ion mode: POSITIVE
Collision energy: 90
Fragmentation mode: CID
Ionization: ESI
Column name: Zorbax Eclipse Plus C18 2.1 mm x 150 mm, 3.5 um, Agilent
Retention time: 10.786 min
Precursor m/z: 435.2741
Precursor type: [M+H]+
m/z	relative intensity
77.0432	137
79.0587	97
91.0591	235
105.0733	156
115.0579	254
127.0534	176
128.0642	568
129.0716	293
141.0709	999
142.0774	548
143.0879	254
152.0676	137
153.073	470
154.0793	313
155.0857	450
156.0944	391
157.0999	78
165.0694	666
166.0776	176
167.0865	450
168.0952	97
169.1044	235
171.1183	97
178.0774	215
179.0861	352
180.0951	254
181.1038	156
189.0767	97
191.0834	195
193.1009	215
