Mass spectrum: Amitrole; LC-ESI-QTOF; MS2; 40 V
Name: Amitrole
Class: Herbicide
Formula: C2H4N4
Exact mass: 84.0436
SMILES: C1=NNC(=N1)N
InChI: InChI=1S/C2H4N4/c3-2-4-1-5-6-2/h1H,(H3,3,4,5,6)
Instrument: TripleTOF 6600 SCIEX
Instrument type: LC-ESI-QTOF
Ms type: MS2
Ion mode: POSITIVE
Collision energy: 40
Fragmentation mode: CID
Ionization: ESI
Column name: Zorbax Eclipse Plus C18 2.1 mm x 150 mm, 3.5 um, Agilent
Retention time: 1.218 min
Precursor m/z: 85.0509
Precursor type: [M+H]+
m/z	relative intensity
28.0179	15
29.0133	24
30.0336	18
31.0288	28
41.013	11
42.0209	102
43.0289	999
57.0442	60
58.0396	82
85.0504	140
