Mass spectrum: 1-Methyl-3-octylimidazolium; LC-ESI-QTOF; MS2; 130 V
Name: 1-Methyl-3-octylimidazolium
Formula: [C12H23N2]+
Exact mass: 195.1856
SMILES: CCCCCCCCN1C=C[N+](=C1)C
InChI: InChI=1S/C12H23N2/c1-3-4-5-6-7-8-9-14-11-10-13(2)12-14/h10-12H,3-9H2,1-2H3/q+1
Instrument: TripleTOF 5600 SCIEX
Instrument type: LC-ESI-QTOF
Ms type: MS2
Ion mode: POSITIVE
Collision energy: 130
Fragmentation mode: CID
Ionization: ESI
Column name: Zorbax Eclipse Plus C18 2.1 mm x 150 mm, 3.5 um, Agilent
Retention time: 7.538 min
Precursor m/z: 195.1856
Precursor type: [M]+
m/z	relative intensity
37.0078	416
38.0171	208
39.0238	999
40.0194	249
41.0266	291
41.0396	457
42.0351	499
54.035	166
67.0276	249
