Mass spectrum: 5-Chlorobenzotriazole; LC-ESI-QTOF; MS2; 60 V
Name: 5-Chlorobenzotriazole
Class: Industrial_process
Formula: C6H4ClN3
Exact mass: 153.0094
SMILES: Clc1ccc2n[nH]nc2c1
InChI: InChI=1S/C6H4ClN3/c7-4-1-2-5-6(3-4)9-10-8-5/h1-3H,(H,8,9,10)
Instrument: TripleTOF 5600 SCIEX
Instrument type: LC-ESI-QTOF
Ms type: MS2
Ion mode: POSITIVE
Collision energy: 60
Fragmentation mode: CID
Ionization: ESI
Column name: Zorbax Eclipse Plus C18 2.1 mm x 150 mm, 3.5 um, Agilent
Retention time: 7.635 min
Precursor m/z: 154.0167
Precursor type: [M+H]+
m/z	relative intensity
41.0349	28
52.0252	132
60.0045	28
61.9837	45
65.0305	97
72.9878	999
74.0169	13
75.0133	92
76.021	145
89.0278	25
90.0356	175
91.0435	204
97.9919	16
99.0005	683
119.048	97
125.0023	25
