Mass spectrum: 2-(2-Methoxyphenyl)-1H-Benzimidazole; LC-ESI-QTOF; MS2; 100 V
Name: 2-(2-Methoxyphenyl)-1H-Benzimidazole
Class: Pharmaceutical
Formula: C14H12N2O
Exact mass: 224.095
SMILES: COc1ccccc1c2[nH]c3ccccc3n2
InChI: InChI=1S/C14H12N2O/c1-17-13-9-5-2-6-10(13)14-15-11-7-3-4-8-12(11)16-14/h2-9H,1H3,(H,15,16)
Instrument: TripleTOF 5600 SCIEX
Instrument type: LC-ESI-QTOF
Ms type: MS2
Ion mode: POSITIVE
Collision energy: 100
Fragmentation mode: CID
Ionization: ESI
Column name: Zorbax Eclipse Plus C18 2.1 mm x 150 mm, 3.5 um, Agilent
Retention time: 6.225 min
Precursor m/z: 225.1022
Precursor type: [M+H]+
m/z	relative intensity
52.0239	27
52.0362	16
64.0344	57
65.0297	13
65.0436	999
66.039	16
73.0121	19
74.0189	106
75.0126	21
75.0266	292
76.0214	62
76.034	249
77.0422	769
78.0361	21
78.0508	35
88.0337	10
89.0398	52
90.0349	19
90.0465	13
91.0429	123
92.051	183
99.0229	19
101.0397	153
102.035	347
103.0424	273
104.0496	57
113.0384	21
114.0382	24
115.0408	32
116.0519	19
118.0542	27
119.0619	16
125.0379	35
126.0459	120
127.0537	161
128.0511	150
129.0465	145
130.0402	38
131.0602	43
140.0499	24
142.0521	38
143.0596	46
151.0381	13
152.0503	84
153.0548	82
154.0636	65
155.0603	117
156.0681	30
168.0671	10
179.0602	172
180.0693	65
181.0753	54
