Mass spectrum: Azacyclonol; LC-ESI-QTOF; MS2; 100 V
Name: Azacyclonol
Class: Pharmaceutical
Formula: C18H21NO
Exact mass: 267.1623
SMILES: OC(C1CCNCC1)(C2=CC=CC=C2)C3=CC=CC=C3
InChI: InChI=1S/C18H21NO/c20-18(15-7-3-1-4-8-15,16-9-5-2-6-10-16)17-11-13-19-14-12-17/h1-10,17,19-20H,11-14H2
Instrument: TripleTOF 5600 SCIEX
Instrument type: LC-ESI-QTOF
Ms type: MS2
Ion mode: POSITIVE
Collision energy: 100
Fragmentation mode: CID
Ionization: ESI
Column name: Zorbax Eclipse Plus C18 2.1 mm x 150 mm, 3.5 um, Agilent
Retention time: 6.644 min
Precursor m/z: 268.1696
Precursor type: [M+H]+
m/z	relative intensity
37.0071	21
39.023	142
41.0384	25
42.0335	56
44.0496	38
50.0154	38
51.0228	194
56.0489	38
61.0071	17
62.0145	43
63.0226	138
65.0387	817
67.0412	38
68.0498	25
74.015	43
75.0228	38
76.0286	69
77.0387	614
78.0461	160
79.0542	69
80.0492	21
82.0651	51
84.0802	56
89.0386	198
91.0545	999
101.0383	43
102.0461	358
103.0532	77
105.0685	34
115.0542	583
117.0697	17
126.0454	116
127.0553	350
128.0617	743
129.0684	17
139.0553	73
141.0701	30
150.0455	73
151.0553	125
152.0632	160
163.0544	90
164.0624	116
165.0713	250
176.061	86
177.0655	21
178.0789	34
189.0694	116
200.0621	47
201.069	30
202.0765	95
