Mass spectrum: Isopropyltriphenylphosphonium; LC-ESI-QTOF; MS2; 120 V
Name: Isopropyltriphenylphosphonium
Formula: [C21H22P]+
Exact mass: 305.1454
SMILES: CC(C)[P+](C1=CC=CC=C1)(C2=CC=CC=C2)C3=CC=CC=C3
InChI: InChI=1S/C21H22P/c1-18(2)22(19-12-6-3-7-13-19,20-14-8-4-9-15-20)21-16-10-5-11-17-21/h3-18H,1-2H3/q+1
Instrument: TripleTOF 5600 SCIEX
Instrument type: LC-ESI-QTOF
Ms type: MS2
Ion mode: POSITIVE
Collision energy: 120
Fragmentation mode: CID
Ionization: ESI
Column name: Zorbax Eclipse Plus C18 2.1 mm x 150 mm, 3.5 um, Agilent
Retention time: 7.721 min
Precursor m/z: 305.1454
Precursor type: [M]+
m/z	relative intensity
56.9886	51
63.0224	91
65.038	57
79.9797	115
80.9875	177
89.0369	259
102.0441	121
107.0028	887
113.0367	91
115.0528	456
126.0446	286
131.0037	102
133.0184	87
139.0525	334
150.0457	211
151.0534	577
152.0612	999
155.0031	57
156.0107	106
157.0191	519
180.0106	67
181.02	484
183.0349	110
