Mass spectrum: Prednisone; LC-ESI-QTOF; MS2; 100 V
Name: Prednisone
Class: Pharmaceutical
Formula: C21H26O5
Exact mass: 358.178
SMILES: C[C@]12CC(=O)[C@H]3[C@@H](CCC4=CC(=O)C=C[C@]34C)[C@@H]1CC[C@]2(O)C(=O)CO
InChI: InChI=1S/C21H26O5/c1-19-7-5-13(23)9-12(19)3-4-14-15-6-8-21(26,17(25)11-22)20(15,2)10-16(24)18(14)19/h5,7,9,14-15,18,22,26H,3-4,6,8,10-11H2,1-2H3/t14-,15-,18+,19-,20-,21-/m0/s1
Instrument: TripleTOF 5600 SCIEX
Instrument type: LC-ESI-QTOF
Ms type: MS2
Ion mode: POSITIVE
Collision energy: 100
Fragmentation mode: CID
Ionization: ESI
Column name: Zorbax Eclipse Plus C18 2.1 mm x 150 mm, 3.5 um, Agilent
Retention time: 8.469 min
Precursor m/z: 359.1853
Precursor type: [M+H]+
m/z	relative intensity
53.0433	24
55.0594	31
65.0422	177
67.0575	71
77.0413	707
78.0492	67
79.0568	142
81.0715	24
89.0393	31
91.0554	764
93.0702	46
95.0503	31
95.0872	28
102.0476	60
103.054	213
104.064	39
105.0318	14
105.0695	78
107.0503	78
115.0543	999
116.0625	131
117.0702	113
119.085	46
121.0645	81
126.0489	35
127.054	316
128.0618	643
129.0696	231
130.0777	21
131.0494	312
131.091	14
132.0579	145
139.0538	95
140.0617	31
141.07	263
142.0813	35
144.0568	124
145.0658	95
145.0888	17
147.081	42
150.0455	24
151.0544	145
152.0622	682
153.0705	295
154.0773	31
155.0558	24
155.0859	24
157.065	149
158.0733	56
163.0537	35
164.063	85
165.0702	682
166.0772	88
167.0858	31
168.0574	42
169.0643	71
170.0746	21
171.0815	46
176.0627	149
177.0708	95
178.0773	625
179.0851	152
181.0643	266
182.0747	31
188.0614	14
189.0704	455
190.0775	142
191.0856	156
193.102	21
194.0735	85
195.0822	53
200.0613	31
201.0713	92
202.0783	405
203.0849	99
204.0933	24
205.0645	99
205.1002	17
206.0735	60
207.0814	67
208.0884	24
213.0694	39
214.0769	24
215.0865	231
216.0926	28
217.1001	17
218.0714	71
219.0792	56
220.0877	21
221.0955	39
226.0779	67
227.0868	28
228.0883	28
228.0993	31
229.102	24
231.082	92
232.0882	24
233.0967	24
237.0718	17
239.0837	17
245.1002	24
