Mass spectrum: Fluopyram; LC-ESI-QTOF; MS2; 130 V
Name: Fluopyram
Class: Fungicide
Formula: C16H11ClF6N2O
Exact mass: 396.0464
SMILES: C1=CC=C(C(=C1)C(=O)NCCC2=C(C=C(C=N2)C(F)(F)F)Cl)C(F)(F)F
InChI: InChI=1S/C16H11ClF6N2O/c17-12-7-9(15(18,19)20)8-25-13(12)5-6-24-14(26)10-3-1-2-4-11(10)16(21,22)23/h1-4,7-8H,5-6H2,(H,24,26)
Instrument: TripleTOF 6600 SCIEX
Instrument type: LC-ESI-QTOF
Ms type: MS2
Ion mode: POSITIVE
Collision energy: 130
Fragmentation mode: CID
Ionization: ESI
Column name: Zorbax Eclipse Plus C18 2.1 mm x 150 mm, 3.5 um, Agilent
Retention time: 12.765 min
Precursor m/z: 397.0537
Precursor type: [M+H]+
m/z	relative intensity
50.0145	16
51.0046	47
51.0209	16
57.013	33
68.9947	120
69.0108	17
73.0071	31
74.015	372
75.0209	999
76.018	15
81.0133	28
95.0289	313
99.0039	68
102.0335	13
105.012	10
109.9775	11
119.0095	35
123.0349	50
125.0191	130
126.0153	18
145.0252	144
