Mass spectrum: Flusilazole; LC-ESI-QTOF; MS2; 130 V
Name: Flusilazole
Class: Fungicide
Formula: C16H15F2N3Si
Exact mass: 315.1003
SMILES: C[Si](CN1C=NC=N1)(C2=CC=C(C=C2)F)C3=CC=C(C=C3)F
InChI: InChI=1S/C16H15F2N3Si/c1-22(12-21-11-19-10-20-21,15-6-2-13(17)3-7-15)16-8-4-14(18)5-9-16/h2-11H,12H2,1H3
Instrument: TripleTOF 6600 SCIEX
Instrument type: LC-ESI-QTOF
Ms type: MS2
Ion mode: POSITIVE
Collision energy: 130
Fragmentation mode: CID
Ionization: ESI
Column name: Zorbax Eclipse Plus C18 2.1 mm x 150 mm, 3.5 um, Agilent
Retention time: 12.729 min
Precursor m/z: 316.1076
Precursor type: [M+H]+
m/z	relative intensity
30.9983	28
33.013	26
35.9991	10
37.0071	58
38.0151	33
39.0224	177
42.999	13
46.9745	999
49.0065	21
50.0145	198
51.0224	352
52.9835	23
57.0129	365
59.0283	38
59.9981	27
61.0063	122
62.0145	211
63.0221	373
65.0379	78
69.0125	12
70.021	12
73.0058	40
74.0145	381
75.0217	214
76.0304	47
77.0378	141
78.0448	12
80.9954	12
81.0123	68
83.0281	446
83.9992	10
85.0066	67
86.014	130
87.0214	151
88.0303	13
89.0371	203
90.9807	13
94.0191	26
95.028	11
96.035	11
97.0068	19
98.0144	203
99.0217	96
100.0292	20
102.0452	23
105.012	22
106.0197	10
107.0287	84
109.0051	31
109.044	72
110.0136	69
111.0216	48
113.0377	76
115.0535	86
120.0356	27
122.0137	73
123.0216	48
124.0302	11
125.0381	23
126.044	48
129.0145	10
131.0283	37
133.0434	83
134.0133	13
137.0366	67
138.0448	18
139.0541	78
144.037	33
149.037	41
150.0446	173
151.0526	42
152.0634	22
155.0292	26
157.0437	54
161.0378	122
162.0451	193
163.0533	561
164.0618	32
168.0365	45
169.0448	20
170.0525	14
176.0594	17
179.0265	42
180.0349	65
181.0436	262
182.049	40
183.0622	27
199.0337	29
