Mass spectrum: Estrone; LC-ESI-QTOF; MS2; 20 V
Name: Estrone
Class: Pharmaceutical
Formula: C18H22O2
Exact mass: 270.162
SMILES: CC12CCC3C(C1CCC2=O)CCC4=C3C=CC(=C4)O
InChI: InChI=1S/C18H22O2/c1-18-9-8-14-13-5-3-12(19)10-11(13)2-4-15(14)16(18)6-7-17(18)20/h3,5,10,14-16,19H,2,4,6-9H2,1H3
Instrument: TripleTOF 5600 SCIEX
Instrument type: LC-ESI-QTOF
Ms type: MS2
Ion mode: POSITIVE
Collision energy: 20
Fragmentation mode: CID
Ionization: ESI
Column name: Zorbax Eclipse Plus C18 2.1 mm x 150 mm, 3.5 um, Agilent
Retention time: 11.224 min
Precursor m/z: 271.1693
Precursor type: [M+H]+
m/z	relative intensity
71.0489	18
81.0697	49
85.0645	16
93.0696	32
95.0849	12
105.07	10
107.0849	55
109.1008	18
111.0803	13
121.0644	21
133.0643	621
145.0649	52
147.0795	15
157.0643	718
159.0799	647
161.0961	15
171.0802	34
173.0957	59
183.0806	91
185.0959	37
197.0956	546
198.1045	25
201.127	376
211.1118	102
213.1271	383
225.1272	34
253.1584	999
271.1686	981
