Mass spectrum: 3-Phenylpyridine; LC-ESI-QTOF; MS2; 50 V
Name: 3-Phenylpyridine
Formula: C11H9N
Exact mass: 155.0735
SMILES: C1=CC=C(C=C1)C2=CN=CC=C2
InChI: InChI=1S/C11H9N/c1-2-5-10(6-3-1)11-7-4-8-12-9-11/h1-9H
Instrument: TripleTOF X500R SCIEX
Instrument type: LC-ESI-QTOF
Ms type: MS2
Ion mode: POSITIVE
Collision energy: 50
Fragmentation mode: CID
Ionization: ESI
Column name: Zorbax Eclipse Plus C18 2.1 mm x 150 mm, 3.5 um, Agilent
Retention time: 5.684 min
Precursor m/z: 156.0808
Precursor type: [M+H]+
m/z	relative intensity
50.0152	27
51.023	252
52.0307	20
53.0389	12
77.0387	187
78.0343	170
79.0419	32
89.039	17
101.0392	45
102.047	128
103.0547	33
104.0497	54
115.0542	24
116.05	10
117.0582	31
126.0471	89
127.0545	425
128.062	999
129.0707	17
130.0651	10
153.0576	11
154.0655	119
155.0669	27
156.0812	62
