Mass spectrum: Rifaximin; LC-ESI-QTOF; MS2; 40 V
Name: Rifaximin
Class: Pharmaceutical
Formula: C43H51N3O11
Exact mass: 785.3524
SMILES: CC1C=CC=C(C(=O)NC2=C(C3=C(C4=C(C(=C3O)C)OC(C4=O)(OC=CC(C(C(C(C(C(C1O)C)O)C)OC(=O)C)C)OC)C)C5=C2N6C=CC(=CC6=N5)C)O)C
InChI: InChI=1S/C43H51N3O11/c1-19-14-16-46-28(18-19)44-32-29-30-37(50)25(7)40-31(29)41(52)43(9,57-40)55-17-15-27(54-10)22(4)39(56-26(8)47)24(6)36(49)23(5)35(48)20(2)12-11-13-21(3)42(53)45-33(34(32)46)38(30)51/h11-18,20,22-24,27,35-36,39,48-51H,1-10H3,(H,45,53)
Instrument: TripleTOF 6600 SCIEX
Instrument type: LC-ESI-QTOF
Ms type: MS2
Ion mode: POSITIVE
Collision energy: 40
Fragmentation mode: CID
Ionization: ESI
Column name: Zorbax Eclipse Plus C18 2.1 mm x 150 mm, 3.5 um, Agilent
Retention time: 11.765 min
Precursor m/z: 786.3597
Precursor type: [M+H]+
m/z	relative intensity
95.0483	11
95.0844	22
107.0846	26
109.0648	11
121.0998	11
123.0794	38
135.0794	17
137.095	16
145.1006	12
147.1164	16
151.0745	127
153.0899	24
159.1159	12
161.0952	23
163.1113	75
165.1267	13
173.0951	19
173.1319	10
175.1105	22
179.1058	46
191.1063	54
193.122	16
201.1266	15
203.1426	11
209.1171	27
219.1374	15
231.137	11
269.1905	12
271.1699	10
279.1753	19
297.1844	32
315.1953	29
347.1024	17
361.1064	14
362.1146	103
676.3039	33
694.3177	69
708.331	13
718.3158	15
726.3383	10
736.328	180
754.3398	999
755.3394	16
768.3538	64
786.3626	75
