Mass spectrum: 4-Acetamidoantipyrine; LC-ESI-QTOF; MS2; 40 V
Name: 4-Acetamidoantipyrine
Class: Pharmaceutical; Metabolite; Transformation_product
Formula: C13H15N3O2
Exact mass: 245.1164
SMILES: CN1N(C(=O)C(=C1C)NC(C)=O)c2ccccc2
InChI: InChI=1S/C13H15N3O2/c1-9-12(14-10(2)17)13(18)16(15(9)3)11-7-5-4-6-8-11/h4-8H,1-3H3,(H,14,17)
Instrument: TripleTOF 5600 SCIEX
Instrument type: LC-ESI-QTOF
Ms type: MS2
Ion mode: POSITIVE
Collision energy: 40
Fragmentation mode: CID
Ionization: ESI
Column name: Zorbax Eclipse Plus C18 2.1 mm x 150 mm, 3.5 um, Agilent
Retention time: 5.586 min
Precursor m/z: 246.1237
Precursor type: [M+H]+
m/z	relative intensity
43.0264	23
56.0565	324
77.0428	256
81.0478	14
83.0642	999
85.0785	24
92.052	10
94.0669	99
104.051	544
111.0552	12
118.0659	18
119.0615	20
128.051	25
130.0656	21
131.0605	36
132.0442	13
132.0807	20
143.0602	14
144.0778	39
145.0777	56
146.0601	21
158.0573	13
159.0565	13
159.092	156
171.0557	32
172.063	46
173.0717	36
185.0714	30
186.0783	21
187.0865	58
189.0905	21
204.114	138
213.0896	32
226.0987	20
228.1141	235
246.1223	13
