Mass spectrum: Metolachlor; LC-ESI-QTOF; MS2; 60 V
Name: Metolachlor
Class: Herbicide
Formula: C15H22ClNO2
Exact mass: 283.1339
SMILES: CCc1cccc(C)c1N(C(C)COC)C(=O)CCl
InChI: InChI=1S/C15H22ClNO2/c1-5-13-8-6-7-11(2)15(13)17(14(18)9-16)12(3)10-19-4/h6-8,12H,5,9-10H2,1-4H3
Instrument: TripleTOF 5600 SCIEX
Instrument type: LC-ESI-QTOF
Ms type: MS2
Ion mode: POSITIVE
Collision energy: 60
Fragmentation mode: CID
Ionization: ESI
Column name: Zorbax Eclipse Plus C18 2.1 mm x 150 mm, 3.5 um, Agilent
Retention time: 13.304 min
Precursor m/z: 284.1412
Precursor type: [M+H]+
m/z	relative intensity
45.041	99
48.9904	115
65.0421	100
73.067	85
76.9807	56
77.0412	227
78.0488	36
79.0569	79
89.0398	10
91.0561	999
92.0626	14
93.0601	285
102.0467	15
103.0542	145
104.0617	87
105.0697	111
106.0648	125
107.0505	21
107.0726	99
108.0809	282
109.0637	63
115.0542	347
116.0621	63
117.0666	450
118.0649	348
119.0734	621
120.0801	270
127.0536	20
128.0604	35
129.0703	48
130.0652	418
131.0733	475
132.0809	742
133.0531	22
133.0884	586
134.0602	14
134.0963	391
141.0681	18
142.0644	22
142.0787	10
143.0727	255
144.0804	558
145.0883	297
146.0608	37
146.0963	394
147.0676	30
147.1033	26
148.0739	11
148.1125	40
156.0808	15
157.0901	40
158.0959	186
159.1042	77
160.1109	225
161.1184	13
162.0912	33
166.0422	18
174.1277	14
176.1432	129
178.0412	17
184.0506	52
