Mass spectrum: 4-Methyl-5-thiazoleethanol; LC-ESI-QTOF; MS2; 40 V
Name: 4-Methyl-5-thiazoleethanol
Class: Food_additive; Metabolite; Pharmaceutical
Formula: C6H9NOS
Exact mass: 143.0405
SMILES: CC1=C(SC=N1)CCO
InChI: InChI=1S/C6H9NOS/c1-5-6(2-3-8)9-4-7-5/h4,8H,2-3H2,1H3
Instrument: TripleTOF 6600 SCIEX
Instrument type: LC-ESI-QTOF
Ms type: MS2
Ion mode: POSITIVE
Collision energy: 40
Fragmentation mode: CID
Ionization: ESI
Column name: Zorbax Eclipse Plus C18 2.1 mm x 150 mm, 3.5 um, Agilent
Retention time: 4.251 min
Precursor m/z: 144.0478
Precursor type: [M+H]+
m/z	relative intensity
39.023	29
41.0382	10
42.0337	77
44.9793	79
53.0382	42
54.0336	24
55.0412	35
55.0539	22
58.9941	40
65.0381	87
68.0494	19
69.0575	17
70.9945	263
72.0025	79
78.0334	21
80.0492	119
81.057	10
85.0102	124
86.0178	51
97.0108	14
98.0045	28
99.0259	38
112.0209	802
113.0287	999
114.0382	15
126.0365	161
144.0466	98
