Mass spectrum: Isorhamnetin; LC-ESI-QTOF; MS2; 70 V
Name: Isorhamnetin
Class: Pharmaceutical; Metabolite
Formula: C16H12O7
Exact mass: 316.0583
SMILES: COc1cc(ccc1O)C2=C(O)C(=O)c3c(O)cc(O)cc3O2
InChI: InChI=1S/C16H12O7/c1-22-11-4-7(2-3-9(11)18)16-15(21)14(20)13-10(19)5-8(17)6-12(13)23-16/h2-6,17-19,21H,1H3
Instrument: TripleTOF 5600 SCIEX
Instrument type: LC-ESI-QTOF
Ms type: MS2
Ion mode: POSITIVE
Collision energy: 70
Fragmentation mode: CID
Ionization: ESI
Column name: Zorbax Eclipse Plus C18 2.1 mm x 150 mm, 3.5 um, Agilent
Retention time: 9.418 min
Precursor m/z: 317.0656
Precursor type: [M+H]+
m/z	relative intensity
65.0416	97
69.0009	313
77.0423	97
91.0559	97
92.027	235
93.035	137
103.0573	137
115.0552	293
121.0275	137
122.0359	97
124.0171	137
127.0607	215
137.0232	156
147.0422	137
153.0191	999
155.0477	176
161.0646	137
163.0378	117
171.041	137
175.0386	97
177.0513	78
187.0429	78
189.0548	117
203.034	548
217.0489	626
219.0304	156
227.0376	78
228.0391	117
229.0519	137
231.0285	78
245.0434	352
285.0424	97
