Mass spectrum: 3,5-Diiodothyronine; LC-ESI-QTOF; MS2; 110 V
Name: 3,5-Diiodothyronine
Class: Pharmaceutical
Formula: C15H13I2NO4
Exact mass: 524.8934
SMILES: NC(Cc1cc(I)c(Oc2ccc(O)cc2)c(I)c1)C(O)=O
InChI: InChI=1S/C15H13I2NO4/c16-11-5-8(7-13(18)15(20)21)6-12(17)14(11)22-10-3-1-9(19)2-4-10/h1-6,13,19H,7,18H2,(H,20,21)
Instrument: TripleTOF 5600 SCIEX
Instrument type: LC-ESI-QTOF
Ms type: MS2
Ion mode: POSITIVE
Collision energy: 110
Fragmentation mode: CID
Ionization: ESI
Column name: Zorbax Eclipse Plus C18 2.1 mm x 150 mm, 3.5 um, Agilent
Retention time: 7.539 min
Precursor m/z: 525.9007
Precursor type: [M+H]+
m/z	relative intensity
51.0289	41
64.0342	11
65.0424	172
66.0498	11
67.0453	11
75.0261	18
76.0341	20
77.0412	200
78.0373	13
78.0495	112
79.0428	64
81.0356	89
87.0238	11
88.0356	11
89.0401	243
90.012	11
90.0482	151
91.0195	27
91.0566	52
92.027	13
93.0342	34
94.0443	43
101.0385	18
102.0466	163
103.0549	34
104.0501	273
105.0337	62
105.0571	92
106.0411	32
107.0498	39
109.0275	27
114.0469	11
115.0541	467
116.0551	52
117.0577	158
118.0404	13
118.0647	13
119.0117	23
126.0464	64
127.0541	386
127.0883	11
128.0622	966
128.0912	13
129.0693	25
130.0392	13
131.0478	50
139.0543	264
140.0603	41
141.0693	575
142.0764	48
143.0719	9
144.0565	13
150.0463	36
151.0543	216
152.0617	999
153.0699	204
154.0649	62
155.0487	154
156.056	73
157.0653	41
162.0438	20
163.0533	73
164.0601	36
165.0699	92
167.0433	11
167.0721	46
168.0571	131
168.0814	52
169.0644	211
170.0712	50
178.066	23
179.0489	39
180.0594	16
180.0803	29
181.0647	310
182.0587	11
183.045	27
184.0514	310
189.927	9
196.0767	82
197.0599	819
198.0662	27
207.0662	25
208.0526	18
208.082	11
209.059	25
210.0583	23
216.9485	16
217.9202	16
219.9377	27
223.0568	25
224.0696	103
232.9437	36
237.0581	16
242.9645	18
244.909	20
259.957	27
