Mass spectrum: Oxcarbazepine; LC-ESI-QTOF; MS2; 90 V
Name: Oxcarbazepine
Class: Pharmaceutical
Formula: C15H12N2O2
Exact mass: 252.0899
SMILES: NC(=O)N1c2ccccc2CC(=O)c3ccccc13
InChI: InChI=1S/C15H12N2O2/c16-15(19)17-12-7-3-1-5-10(12)9-14(18)11-6-2-4-8-13(11)17/h1-8H,9H2,(H2,16,19)
Instrument: TripleTOF 5600 SCIEX
Instrument type: LC-ESI-QTOF
Ms type: MS2
Ion mode: POSITIVE
Collision energy: 90
Fragmentation mode: CID
Ionization: ESI
Column name: Zorbax Eclipse Plus C18 2.1 mm x 150 mm, 3.5 um, Agilent
Retention time: 8.323 min
Precursor m/z: 253.0972
Precursor type: [M+H]+
m/z	relative intensity
65.0422	22
74.0176	45
75.0261	170
76.0334	17
77.0413	326
78.0359	11
78.0517	12
87.0241	17
88.0323	11
89.0407	107
90.0477	27
91.055	12
98.0159	11
99.0229	20
100.0301	10
101.0389	217
102.0339	31
102.0452	41
113.0379	63
114.0454	34
115.054	126
116.0493	18
117.0564	12
125.0396	60
126.0463	153
127.0542	157
128.0495	223
129.0452	17
129.0578	10
137.0398	20
138.0474	18
139.0551	348
140.049	219
141.0571	17
149.0383	15
150.0457	186
151.0541	627
152.0623	999
153.059	146
154.0649	48
163.0546	126
164.0579	104
165.0699	90
166.0654	204
167.0737	47
176.0507	24
177.0578	170
178.0652	730
179.0722	487
180.081	462
189.0577	12
190.0647	55
191.0738	44
