Mass spectrum: Haloxyfop; LC-ESI-QTOF; MS2; 30 V
Name: Haloxyfop
Class: Herbicide
Formula: C15H11ClF3NO4
Exact mass: 361.0329
SMILES: CC(C(=O)O)OC1=CC=C(C=C1)OC2=C(C=C(C=N2)C(F)(F)F)Cl
InChI: InChI=1S/C15H11ClF3NO4/c1-8(14(21)22)23-10-2-4-11(5-3-10)24-13-12(16)6-9(7-20-13)15(17,18)19/h2-8H,1H3,(H,21,22)
Instrument: TripleTOF 5600 SCIEX
Instrument type: LC-ESI-QTOF
Ms type: MS2
Ion mode: POSITIVE
Collision energy: 30
Fragmentation mode: CID
Ionization: ESI
Column name: Zorbax Eclipse Plus C18 2.1 mm x 150 mm, 3.5 um, Agilent
Retention time: 12.921 min
Precursor m/z: 362.0401
Precursor type: [M+H]+
m/z	relative intensity
91.0559	163
119.0491	33
121.0272	35
220.014	9
247.0382	20
260.0451	16
272.0084	90
288.0063	52
288.0403	311
289.0118	142
290.0196	37
315.0269	11
316.0359	999
362.0402	93
