Mass spectrum: Spirodiclofen-enol; LC-ESI-QTOF; MS2; 80 V
Name: Spirodiclofen-enol
Formula: C15H14Cl2O3
Exact mass: 312.032
SMILES: C1CCC2(CC1)C(=C(C(=O)O2)C3=C(C=C(C=C3)Cl)Cl)O
InChI: InChI=1S/C15H14Cl2O3/c16-9-4-5-10(11(17)8-9)12-13(18)15(20-14(12)19)6-2-1-3-7-15/h4-5,8,18H,1-3,6-7H2
Instrument: TripleTOF 6600 SCIEX
Instrument type: LC-ESI-QTOF
Ms type: MS2
Ion mode: POSITIVE
Collision energy: 80
Fragmentation mode: CID
Ionization: ESI
Column name: Zorbax Eclipse Plus C18 2.1 mm x 150 mm, 3.5 um, Agilent
Retention time: 12.261 min
Precursor m/z: 313.0393
Precursor type: [M+H]+
m/z	relative intensity
41.0397	15
63.0227	12
67.0543	16
72.9837	130
74.0144	40
75.023	96
77.0385	58
79.0527	13
82.9441	37
86.0145	13
87.0223	48
89.0385	83
96.9836	123
98.9997	35
99.0224	17
102.046	12
106.9444	123
108.9833	34
110.999	93
112.0063	11
113.038	26
114.0451	11
115.0535	91
121.9915	119
122.9991	84
124.0069	21
126.0464	16
127.0531	36
128.0606	18
130.9444	17
131.0469	11
132.9585	12
136.006	36
139.0044	43
139.0534	37
141.0684	27
144.9591	11
148.006	18
149.0139	26
151.0516	37
152.0616	91
153.0688	17
156.96	999
158.9752	85
162.022	22
163.0525	16
164.0614	13
165.069	62
172.9644	17
176.0611	40
177.0695	26
178.0771	231
179.0853	14
182.9749	14
186.0208	16
199.0307	15
