Mass spectrum: Carebastine; LC-ESI-QTOF; MS2; 90 V
Name: Carebastine
Class: Pharmaceutical
Formula: C32H37NO4
Exact mass: 499.2723
SMILES: CC(C)(C1=CC=C(C=C1)C(=O)CCCN2CCC(CC2)OC(C3=CC=CC=C3)C4=CC=CC=C4)C(=O)O
InChI: InChI=1S/C32H37NO4/c1-32(2,31(35)36)27-17-15-24(16-18-27)29(34)14-9-21-33-22-19-28(20-23-33)37-30(25-10-5-3-6-11-25)26-12-7-4-8-13-26/h3-8,10-13,15-18,28,30H,9,14,19-23H2,1-2H3,(H,35,36)
Instrument: TripleTOF 6600 SCIEX
Instrument type: LC-ESI-QTOF
Ms type: MS2
Ion mode: POSITIVE
Collision energy: 90
Fragmentation mode: CID
Ionization: ESI
Column name: Zorbax Eclipse Plus C18 2.1 mm x 150 mm, 3.5 um, Agilent
Retention time: 10.045 min
Precursor m/z: 500.2796
Precursor type: [M+H]+
m/z	relative intensity
77.0377	14
79.0539	13
90.0459	16
91.0539	155
103.0534	25
107.0485	20
115.0539	210
116.062	12
117.0697	318
118.0776	355
119.085	26
121.0281	67
128.0616	36
131.0486	43
132.0926	42
135.0801	17
141.0695	41
145.0649	19
146.0726	269
147.0807	16
148.0515	11
151.0537	62
152.0623	925
163.0756	12
164.0618	17
165.0702	999
166.0778	219
167.0854	278
173.0961	40
188.1203	17
191.0711	529
