Mass spectrum: Ethyldiphenylphosphine oxide; LC-ESI-QTOF; MS2; 110 V
Name: Ethyldiphenylphosphine oxide
Class: Industrial_process
Formula: C14H15OP
Exact mass: 230.0861
SMILES: CC[P](=O)(c1ccccc1)c2ccccc2
InChI: InChI=1S/C14H15OP/c1-2-16(15,13-9-5-3-6-10-13)14-11-7-4-8-12-14/h3-12H,2H2,1H3
Instrument: TripleTOF 5600 SCIEX
Instrument type: LC-ESI-QTOF
Ms type: MS2
Ion mode: POSITIVE
Collision energy: 110
Fragmentation mode: CID
Ionization: ESI
Column name: Zorbax Eclipse Plus C18 2.1 mm x 150 mm, 3.5 um, Agilent
Retention time: 8.816 min
Precursor m/z: 231.0933
Precursor type: [M+H]+
m/z	relative intensity
47.0132	620
51.03	999
52.036	137
56.9933	159
65.0435	225
74.0176	159
75.026	71
76.0333	153
77.0417	658
78.049	307
79.983	126
80.9906	142
87.0244	82
89.0401	236
102.0466	203
107.0051	340
113.0385	71
115.0539	208
125.0388	60
126.0466	515
127.0549	82
139.0546	164
150.0465	455
151.0543	817
152.0626	867
157.0198	109
163.055	71
164.0622	60
170.0278	93
180.0122	76
181.0213	214
