Mass spectrum: Valsartanic acid; LC-ESI-QTOF; MS2; 30 V
Name: Valsartanic acid
Class: Pharmaceutical; Transformation_product; Transformation_product-Metabolite
Formula: C14H10N4O2
Exact mass: 266.0804
SMILES: O=C(O)C(C=C1)=CC=C1C2=CC=CC=C2C3=NN=NN3
InChI: InChI=1S/C14H10N4O2/c19-14(20)10-7-5-9(6-8-10)11-3-1-2-4-12(11)13-15-17-18-16-13/h1-8H,(H,19,20)(H,15,16,17,18)
Instrument: TripleTOF 5600 SCIEX
Instrument type: LC-ESI-QTOF
Ms type: MS2
Ion mode: POSITIVE
Collision energy: 30
Fragmentation mode: CID
Ionization: ESI
Column name: Zorbax Eclipse Plus C18 2.1 mm x 150 mm, 3.5 um, Agilent
Retention time: 8.027 min
Precursor m/z: 267.0877
Precursor type: [M+H]+
m/z	relative intensity
151.054	34
166.0654	33
178.0654	157
180.0807	19
192.0681	18
193.0757	31
206.0608	999
221.0712	19
