Mass spectrum: Metoclopramide; LC-ESI-QTOF; MS2; 50 V
Name: Metoclopramide
Class: Pharmaceutical
Formula: C14H22ClN3O2
Exact mass: 299.1401
SMILES: CCN(CC)CCNC(=O)C1=CC(=C(C=C1OC)N)Cl
InChI: InChI=1S/C14H22ClN3O2/c1-4-18(5-2)7-6-17-14(19)10-8-11(15)12(16)9-13(10)20-3/h8-9H,4-7,16H2,1-3H3,(H,17,19)
Instrument: TripleTOF 5600 SCIEX
Instrument type: LC-ESI-QTOF
Ms type: MS2
Ion mode: POSITIVE
Collision energy: 50
Fragmentation mode: CID
Ionization: ESI
Column name: Zorbax Eclipse Plus C18 2.1 mm x 150 mm, 3.5 um, Agilent
Retention time: 5.459 min
Precursor m/z: 300.1473
Precursor type: [M+H]+
m/z	relative intensity
78.0393	24
90.0384	80
92.0534	17
93.0611	47
99.0023	11
100.1159	19
113.0058	103
120.0467	33
126.0125	131
128.0282	59
129.0125	31
140.9992	307
147.0566	15
148.0646	90
154.0064	57
156.0223	181
168.0093	301
168.9933	203
170.001	75
181.0161	16
182.0248	40
183.0325	337
184.0158	999
211.0267	46
212.0346	484
227.0582	273
