Mass spectrum: Neburon; LC-ESI-QTOF; MS2; 80 V
Name: Neburon
Class: Herbicide
Formula: C12H16Cl2N2O
Exact mass: 274.064
SMILES: CCCCN(C)C(=O)Nc1ccc(Cl)c(Cl)c1
InChI: InChI=1S/C12H16Cl2N2O/c1-3-4-7-16(2)12(17)15-9-5-6-10(13)11(14)8-9/h5-6,8H,3-4,7H2,1-2H3,(H,15,17)
Instrument: TripleTOF 5600 SCIEX
Instrument type: LC-ESI-QTOF
Ms type: MS2
Ion mode: POSITIVE
Collision energy: 80
Fragmentation mode: CID
Ionization: ESI
Column name: Zorbax Eclipse Plus C18 2.1 mm x 150 mm, 3.5 um, Agilent
Retention time: 13.559 min
Precursor m/z: 275.0712
Precursor type: [M+H]+
m/z	relative intensity
57.0747	455
58.033	399
58.0556	55
65.0427	166
72.9854	266
73.008	77
74.0179	277
74.0304	44
75.0252	55
82.9466	77
90.034	144
91.0475	66
92.0499	199
96.9861	66
100.008	133
106.9444	111
108.9834	310
123.9923	55
125.0009	699
127.0171	699
127.0408	55
132.9593	999
144.9581	66
159.9728	77
