Mass spectrum: 1-Oxo-ibuprofen; LC-ESI-QTOF; MS2; 110 V
Name: 1-Oxo-ibuprofen
Class: Pharmaceutical; Transformation_product
Formula: C13H16O3
Exact mass: 220.1099
SMILES: CC(C)C(=O)C1=CC=C(C=C1)C(C)C(=O)O
InChI: InChI=1S/C13H16O3/c1-8(2)12(14)11-6-4-10(5-7-11)9(3)13(15)16/h4-9H,1-3H3,(H,15,16)
Instrument: TripleTOF 5600 SCIEX
Instrument type: LC-ESI-QTOF
Ms type: MS2
Ion mode: POSITIVE
Collision energy: 110
Fragmentation mode: CID
Ionization: ESI
Column name: Zorbax Eclipse Plus C18 2.1 mm x 150 mm, 3.5 um, Agilent
Retention time: 10.239 min
Precursor m/z: 221.1172
Precursor type: [M+H]+
m/z	relative intensity
43.0259	287
51.029	597
65.0424	505
67.0579	45
74.0177	103
75.0256	68
76.0375	45
77.0409	999
77.0657	57
78.05	137
79.0572	91
89.0405	206
91.0549	287
102.0469	114
103.0542	45
115.0537	378
127.0536	91
128.0617	114
