Mass spectrum: Nadolol; LC-ESI-QTOF; MS2; 30 V
Name: Nadolol
Class: Pharmaceutical
Formula: C17H27NO4
Exact mass: 309.194
SMILES: CC(C)(C)NCC(COC1=CC=CC2=C1CC(C(C2)O)O)O
InChI: InChI=1S/C17H27NO4/c1-17(2,3)18-9-12(19)10-22-16-6-4-5-11-7-14(20)15(21)8-13(11)16/h4-6,12,14-15,18-21H,7-10H2,1-3H3
Instrument: TripleTOF 5600 SCIEX
Instrument type: LC-ESI-QTOF
Ms type: MS2
Ion mode: POSITIVE
Collision energy: 30
Fragmentation mode: CID
Ionization: ESI
Column name: Zorbax Eclipse Plus C18 2.1 mm x 150 mm, 3.5 um, Agilent
Retention time: 5.13 min
Precursor m/z: 310.2013
Precursor type: [M+H]+
m/z	relative intensity
56.0547	92
57.0747	38
72.0473	12
74.064	213
133.0658	18
145.0651	109
147.0805	39
155.0847	36
157.0645	50
159.0812	84
163.0767	9
171.0812	185
173.0961	48
174.0915	11
175.0748	45
183.0808	199
189.0914	23
200.1074	10
201.0918	999
206.1178	10
218.1168	90
219.1006	39
236.1287	877
