Mass spectrum: Amido Black 10B; LC-ESI-QTOF; MS2; 150 V
Name: Amido Black 10B
Formula: C22H16N6O9S2
Exact mass: 572.042
SMILES: C1=CC=C(C=C1)N=NC2=C(C3=C(C(=C(C=C3C=C2S(=O)(=O)O)S(=O)(=O)O)N=NC4=CC=C(C=C4)[N+](=O)[O-])N)O
InChI: InChI=1S/C22H16N6O9S2/c23-19-18-12(11-17(39(35,36)37)21(22(18)29)27-24-13-4-2-1-3-5-13)10-16(38(32,33)34)20(19)26-25-14-6-8-15(9-7-14)28(30)31/h1-11,29H,23H2,(H,32,33,34)(H,35,36,37)
Instrument: TripleTOF 6600 SCIEX
Instrument type: LC-ESI-QTOF
Ms type: MS2
Ion mode: POSITIVE
Collision energy: 150
Fragmentation mode: CID
Ionization: ESI
Column name: Zorbax Eclipse Plus C18 2.1 mm x 150 mm, 3.5 um, Agilent
Retention time: 9.552 min
Precursor m/z: 573.0493
Precursor type: [M+H]+
m/z	relative intensity
37.0071	27
38.0147	30
39.0227	261
40.031	10
50.0149	25
51.0228	88
61.0074	13
62.0156	18
63.0226	114
64.0167	13
65.0384	999
66.0459	436
67.0418	20
74.0148	104
75.0225	366
76.017	23
76.0314	44
77.0379	135
78.033	58
80.0491	23
87.0217	23
88.0172	61
89.0392	10
90.0333	73
92.0488	263
93.0566	728
100.0186	23
102.0339	92
103.0391	13
112.0175	25
114.033	102
115.0405	17
117.0434	13
125.0126	29
127.0278	11
129.0447	35
138.0324	27
139.0408	15
140.0468	20
149.0379	13
150.0323	18
150.0439	42
151.0475	49
152.0538	25
153.0421	11
153.0546	11
162.0325	49
163.0278	10
163.0471	27
164.0494	37
165.0439	37
175.0414	32
176.0471	53
177.0494	58
178.0505	15
179.0607	15
187.035	22
187.0534	10
188.0451	51
189.0434	90
190.0457	17
191.0601	20
192.0648	25
193.0627	10
201.0582	11
202.0553	10
203.0584	34
204.0504	18
204.0687	11
205.0749	15
213.043	13
214.0381	13
215.0413	11
215.0545	30
216.0537	23
217.0688	18
229.0589	15
230.0701	54
231.0751	18
241.0544	11
242.0635	17
262.0689	11
317.0841	10
