Mass spectrum: 2-Hydroxy-n-methyl-n-phenylpropanamide; LC-ESI-QTOF; MS2; 80 V
Name: 2-Hydroxy-n-methyl-n-phenylpropanamide
Formula: C10H13NO2
Exact mass: 179.0946
SMILES: CC(C(=O)N(C)C1=CC=CC=C1)O
InChI: InChI=1S/C10H13NO2/c1-8(12)10(13)11(2)9-6-4-3-5-7-9/h3-8,12H,1-2H3
Instrument: TripleTOF 5600 SCIEX
Instrument type: LC-ESI-QTOF
Ms type: MS2
Ion mode: POSITIVE
Collision energy: 80
Fragmentation mode: CID
Ionization: ESI
Column name: Zorbax Eclipse Plus C18 2.1 mm x 150 mm, 3.5 um, Agilent
Retention time: 6.763 min
Precursor m/z: 180.1019
Precursor type: [M+H]+
m/z	relative intensity
37.0084	21
38.0155	17
39.0231	84
42.0347	21
43.0186	14
45.0334	49
49.0066	35
50.0155	253
51.0231	999
52.0304	21
53.0388	14
56.0487	21
63.0238	45
65.0385	249
66.0464	105
75.0234	17
77.0386	974
78.0455	59
79.0546	56
89.0378	73
90.0478	38
91.0544	302
92.0501	63
93.0574	91
102.0435	17
103.0575	28
104.0478	31
106.0652	87
117.0581	94
118.0645	66
