Mass spectrum: Salbutamol; LC-ESI-QTOF; MS2; 70 V
Name: Salbutamol
Class: Pharmaceutical
Formula: C13H21NO3
Exact mass: 239.1521
SMILES: CC(C)(NCC(c1cc(CO)c(O)cc1)O)C
InChI: InChI=1S/C13H21NO3/c1-13(2,3)14-7-12(17)9-4-5-11(16)10(6-9)8-15/h4-6,12,14-17H,7-8H2,1-3H3
Instrument: TripleTOF 5600 SCIEX
Instrument type: LC-ESI-QTOF
Ms type: MS2
Ion mode: POSITIVE
Collision energy: 70
Fragmentation mode: CID
Ionization: ESI
Column name: Zorbax Eclipse Plus C18 2.1 mm x 150 mm, 3.5 um, Agilent
Retention time: 4.69 min
Precursor m/z: 240.1594
Precursor type: [M+H]+
m/z	relative intensity
53.0448	22
55.0228	54
57.0761	92
65.0428	183
77.0422	999
77.0755	27
78.0493	65
79.0565	113
80.0522	114
81.0354	14
81.0589	11
89.04	14
90.0478	22
91.0562	783
92.0507	19
92.0628	12
93.0588	25
93.0706	63
94.0655	17
102.0475	33
103.0547	177
104.0499	98
105.0338	28
105.0578	55
106.0424	11
106.0648	12
107.0499	67
117.0571	102
118.0641	87
119.0498	11
119.074	15
120.0456	12
120.0803	15
121.0647	63
130.0657	78
132.046	17
133.0519	95
134.0591	20
146.0625	20
