Mass spectrum: Icaridin acid; LC-ESI-QTOF; MS2; 120 V
Name: Icaridin acid
Formula: C12H21NO4
Exact mass: 243.1471
SMILES: CCC(C)OC(=O)N1CCCCC1CC(O)=O
InChI: InChI=1S/C12H21NO4/c1-3-9(2)17-12(16)13-7-5-4-6-10(13)8-11(14)15/h9-10H,3-8H2,1-2H3,(H,14,15)
Instrument: TripleTOF 6600 SCIEX
Instrument type: LC-ESI-QTOF
Ms type: MS2
Ion mode: POSITIVE
Collision energy: 120
Fragmentation mode: CID
Ionization: ESI
Column name: Zorbax Eclipse Plus C18 2.1 mm x 150 mm, 3.5 um, Agilent
Retention time: 9.741 min
Precursor m/z: 244.1543
Precursor type: [M+H]+
m/z	relative intensity
30.0319	123
35.9978	44
37.0056	247
38.0009	79
38.0129	207
39.0209	999
40.0039	29
41.024	19
41.0361	217
42.0316	173
43.0153	29
43.0389	39
44.9954	49
51.0203	24
53.0103	44
53.0362	19
54.0317	84
55.051	49
56.0467	351
65.0361	29
67.0402	29
67.0532	24
68.0469	133
69.0549	39
77.0369	19
84.0768	24
