Mass spectrum: Metolachlor; LC-ESI-QTOF; MS2; 50 V
Name: Metolachlor
Class: Herbicide
Formula: C15H22ClNO2
Exact mass: 283.1339
SMILES: CCc1cccc(C)c1N(C(C)COC)C(=O)CCl
InChI: InChI=1S/C15H22ClNO2/c1-5-13-8-6-7-11(2)15(13)17(14(18)9-16)12(3)10-19-4/h6-8,12H,5,9-10H2,1-4H3
Instrument: TripleTOF 5600 SCIEX
Instrument type: LC-ESI-QTOF
Ms type: MS2
Ion mode: POSITIVE
Collision energy: 50
Fragmentation mode: CID
Ionization: ESI
Column name: Zorbax Eclipse Plus C18 2.1 mm x 150 mm, 3.5 um, Agilent
Retention time: 13.304 min
Precursor m/z: 284.1412
Precursor type: [M+H]+
m/z	relative intensity
45.0409	78
48.9907	75
65.0426	27
73.0679	98
76.9811	98
77.041	77
79.0568	48
91.0561	566
93.0589	43
93.0694	67
103.0542	82
104.0623	44
105.0708	70
106.0655	59
107.0503	14
107.0779	82
108.0809	247
109.0649	93
115.0543	152
116.0621	24
117.0698	339
118.0652	244
119.0745	501
120.0809	266
128.0628	13
129.0701	25
130.0654	203
131.0733	341
132.081	475
133.0891	801
134.061	9
134.0969	999
135.0793	19
135.1047	12
141.0689	14
142.0653	16
143.0733	175
144.0811	397
145.0886	285
146.0621	29
146.0963	514
147.068	24
147.1038	85
148.0747	22
148.1113	101
156.0817	10
157.0891	29
158.0963	257
159.1047	159
160.1119	449
161.1209	38
162.0916	61
166.0417	27
174.1274	23
176.1439	931
178.0417	16
184.0522	190
188.1064	20
194.0725	27
202.1229	20
212.0828	26
252.1145	81
