Mass spectrum: Moxidectin; LC-ESI-QTOF; MS2; 40 V
Name: Moxidectin
Class: Pharmaceutical; Insecticide
Formula: C37H53NO8
Exact mass: 639.3771
SMILES: CO\N=C\1C[C@]2(C[C@@H]3C[C@@H](C\C=C(/C)C[C@@H](C)/C=C/C=C/4CO[C@@H]5[C@H](O)C(=C[C@@H](C(=O)O3)[C@]45O)C)O2)OC([C@H]1C)C(/C)=C/C(C)C
InChI: InChI=1S/C37H53NO8/c1-21(2)14-25(6)33-26(7)31(38-42-8)19-36(46-33)18-29-17-28(45-36)13-12-23(4)15-22(3)10-9-11-27-20-43-34-32(39)24(5)16-30(35(40)44-29)37(27,34)41/h9-12,14,16,21-22,26,28-30,32-34,39,41H,13,15,17-20H2,1-8H3/b10-9+,23-12+,25-14+,27-11+,38-31+/t22-,26-,28+,29-,30-,32+,33?,34+,36-,37+/m0/s1
Instrument: TripleTOF 5600 SCIEX
Instrument type: LC-ESI-QTOF
Ms type: MS2
Ion mode: POSITIVE
Collision energy: 40
Fragmentation mode: CID
Ionization: ESI
Column name: Zorbax Eclipse Plus C18 2.1 mm x 150 mm, 3.5 um, Agilent
Retention time: 18.457 min
Precursor m/z: 640.3844
Precursor type: [M+H]+
m/z	relative intensity
98.0595	386
107.0853	161
122.0942	225
127.1118	193
143.0829	322
145.0648	257
148.075	257
150.0923	128
159.0825	128
164.1423	257
166.1596	161
171.1163	580
190.118	128
199.1096	999
218.1533	612
219.1597	193
416.2614	676
418.2749	547
434.2656	257
448.2836	290
478.2569	418
496.2707	257
498.2777	322
560.3727	322
622.3813	290
