Mass spectrum: Azoxystrobin; LC-ESI-QTOF; MS2; 10 V
Name: Azoxystrobin
Class: Fungicide
Formula: C22H17N3O5
Exact mass: 403.1168
SMILES: COC=C(C1=CC=CC=C1OC2=NC=NC(=C2)OC3=CC=CC=C3C#N)C(=O)OC
InChI: InChI=1S/C22H17N3O5/c1-27-13-17(22(26)28-2)16-8-4-6-10-19(16)30-21-11-20(24-14-25-21)29-18-9-5-3-7-15(18)12-23/h3-11,13-14H,1-2H3
Instrument: TripleTOF 6600 SCIEX
Instrument type: LC-ESI-QTOF
Ms type: MS2
Ion mode: POSITIVE
Collision energy: 10
Fragmentation mode: CID
Ionization: ESI
Column name: Zorbax Eclipse Plus C18 2.1 mm x 150 mm, 3.5 um, Agilent
Retention time: 12.114 min
Precursor m/z: 404.1241
Precursor type: [M+H]+
m/z	relative intensity
372.1	268
404.127	999
