Mass spectrum: (1-Ethoxyvinyl)triphenylphosphonium; LC-ESI-QTOF; MS2; 140 V
Name: (1-Ethoxyvinyl)triphenylphosphonium
Class: Industrial_process
Formula: [C22H22OP]+
Exact mass: 333.1403
SMILES: CCOC(=C)[P+](C1=CC=CC=C1)(C2=CC=CC=C2)C3=CC=CC=C3
InChI: InChI=1S/C22H22OP/c1-3-23-19(2)24(20-13-7-4-8-14-20,21-15-9-5-10-16-21)22-17-11-6-12-18-22/h4-18H,2-3H2,1H3/q+1
Instrument: TripleTOF 6600 SCIEX
Instrument type: LC-ESI-QTOF
Ms type: MS2
Ion mode: POSITIVE
Collision energy: 140
Fragmentation mode: CID
Ionization: ESI
Column name: Zorbax Eclipse Plus C18 2.1 mm x 150 mm, 3.5 um, Agilent
Retention time: 9.296 min
Precursor m/z: 333.1403
Precursor type: [M]+
m/z	relative intensity
39.0233	112
43.0181	51
50.0151	114
51.0229	125
55.9804	84
56.9884	171
62.0145	97
63.0228	350
65.0378	125
74.0144	137
75.022	56
76.0296	112
77.0374	74
78.0457	61
78.9721	86
79.9797	263
80.9877	350
86.0139	68
87.021	97
89.0369	375
98.013	68
102.045	173
103.9793	97
104.9878	51
107.0029	999
113.0367	155
115.0531	342
125.0386	51
126.0452	401
131.0045	158
133.0192	61
139.0529	263
150.0463	380
151.0539	585
152.0612	572
155.0035	127
156.0113	117
157.0199	373
179.0034	79
180.012	143
181.0197	467
183.0344	51
