Mass spectrum: (2-Hydroxyethyl)triphenylphosphonium; LC-ESI-QTOF; MS2; 130 V
Name: (2-Hydroxyethyl)triphenylphosphonium
Class: Industrial_process
Formula: [C20H20OP]+
Exact mass: 307.1246
SMILES: OCC[P+](c1ccccc1)(c2ccccc2)c3ccccc3
InChI: InChI=1S/C20H20OP/c21-16-17-22(18-10-4-1-5-11-18,19-12-6-2-7-13-19)20-14-8-3-9-15-20/h1-15,21H,16-17H2/q+1
Instrument: TripleTOF 5600 SCIEX
Instrument type: LC-ESI-QTOF
Ms type: MS2
Ion mode: POSITIVE
Collision energy: 130
Fragmentation mode: CID
Ionization: ESI
Column name: Zorbax Eclipse Plus C18 2.1 mm x 150 mm, 3.5 um, Agilent
Retention time: 7.101 min
Precursor m/z: 307.1246
Precursor type: [M]+
m/z	relative intensity
51.0305	52
56.9941	53
65.0429	77
77.0416	79
78.975	57
79.9825	162
80.9903	253
89.0395	233
102.0464	102
107.0042	999
113.0388	91
115.0544	307
126.0454	256
131.0039	98
133.0192	74
139.0538	253
150.045	205
151.0539	480
152.0615	717
155.0038	52
156.0117	92
157.0193	406
180.0113	93
181.0194	377
183.0355	77
224.061	63
226.0764	75
255.0348	69
