Mass spectrum: Trinexapac-ethyl; LC-ESI-QTOF; MS2; 60 V
Name: Trinexapac-ethyl
Class: Pesticide
Formula: C13H16O5
Exact mass: 252.0998
SMILES: CCOC(=O)C1CC(=O)C(=C(C2CC2)O)C(=O)C1
InChI: InChI=1S/C13H16O5/c1-2-18-13(17)8-5-9(14)11(10(15)6-8)12(16)7-3-4-7/h7-8,16H,2-6H2,1H3
Instrument: TripleTOF 6600 SCIEX
Instrument type: LC-ESI-QTOF
Ms type: MS2
Ion mode: NEGATIVE
Collision energy: 60
Fragmentation mode: CID
Ionization: ESI
Column name: Zorbax Eclipse Plus C18 2.1 mm x 150 mm, 3.5 um, Agilent
Retention time: 11.11 min
Precursor m/z: 251.0925
Precursor type: [M-H]-
m/z	relative intensity
41.0032	999
43.0181	333
44.9967	166
65.0025	499
65.0359	166
67.0162	666
80.0251	166
83.0479	333
91.0174	166
93.0323	333
95.0131	166
105.0318	166
107.047	166
108.016	333
109.0285	666
111.0435	499
163.0322	333
