Mass spectrum: Flutamide; LC-ESI-QTOF; MS2; 130 V
Name: Flutamide
Class: Pharmaceutical
Formula: C11H11F3N2O3
Exact mass: 276.0722
SMILES: CC(C)C(=O)NC1=CC(=C(C=C1)[N+](=O)[O-])C(F)(F)F
InChI: InChI=1S/C11H11F3N2O3/c1-6(2)10(17)15-7-3-4-9(16(18)19)8(5-7)11(12,13)14/h3-6H,1-2H3,(H,15,17)
Instrument: TripleTOF 6600 SCIEX
Instrument type: LC-ESI-QTOF
Ms type: MS2
Ion mode: POSITIVE
Collision energy: 130
Fragmentation mode: CID
Ionization: ESI
Column name: Zorbax Eclipse Plus C18 2.1 mm x 150 mm, 3.5 um, Agilent
Retention time: 12.297 min
Precursor m/z: 277.0795
Precursor type: [M+H]+
m/z	relative intensity
30.9972	47
35.9994	47
37.0062	214
38.0022	118
38.0139	285
39.0221	999
40.0055	23
41.0139	23
41.0383	666
42.0331	23
43.0555	23
44.0149	23
46.0072	0
51.0021	23
51.0216	95
52.0055	23
52.0192	23
53.0137	47
53.0373	0
57.0125	95
65.0377	23
68.0046	47
68.9978	47
73.0059	23
74.0138	285
75.0042	190
75.0206	118
76.0164	23
83.0268	166
85.0076	71
87.0223	47
88.0116	47
89.0395	23
92.9942	23
93.0118	23
95.0282	95
98.0126	23
99.0036	71
105.007	23
125.0138	23
125.0185	47
