Mass spectrum: Mesotrione; LC-ESI-QTOF; MS2; 50 V
Name: Mesotrione
Class: Herbicide
Formula: C14H13NO7S
Exact mass: 339.0413
SMILES: CS(=O)(=O)C1=CC(=C(C=C1)C(=O)C2C(=O)CCCC2=O)[N+](=O)[O-]
InChI: InChI=1S/C14H13NO7S/c1-23(21,22)8-5-6-9(10(7-8)15(19)20)14(18)13-11(16)3-2-4-12(13)17/h5-7,13H,2-4H2,1H3
Instrument: TripleTOF 6600 SCIEX
Instrument type: LC-ESI-QTOF
Ms type: MS2
Ion mode: NEGATIVE
Collision energy: 50
Fragmentation mode: CID
Ionization: ESI
Column name: Zorbax Eclipse Plus C18 2.1 mm x 150 mm, 3.5 um, Agilent
Retention time: 9.26 min
Precursor m/z: 338.034
Precursor type: [M-H]-
m/z	relative intensity
45.9926	383
142.0082	15
142.0413	25
158.0355	19
159.0441	20
168.0569	42
170.0364	134
184.0514	30
211.0381	63
212.0473	999
221.026	24
223.0057	11
227.0348	16
249.0209	80
291.0318	29
