Mass spectrum: Epirubicin; LC-ESI-QTOF; MS2; 40 V
Name: Epirubicin
Class: Pharmaceutical
Formula: C27H29NO11
Exact mass: 543.1741
SMILES: CC1C(C(CC(O1)OC2CC(CC3=C(C4=C(C(=C23)O)C(=O)C5=C(C4=O)C=CC=C5OC)O)(C(=O)CO)O)N)O
InChI: InChI=1S/C27H29NO11/c1-10-22(31)13(28)6-17(38-10)39-15-8-27(36,16(30)9-29)7-12-19(15)26(35)21-20(24(12)33)23(32)11-4-3-5-14(37-2)18(11)25(21)34/h3-5,10,13,15,17,22,29,31,33,35-36H,6-9,28H2,1-2H3
Instrument: TripleTOF 5600 SCIEX
Instrument type: LC-ESI-QTOF
Ms type: MS2
Ion mode: POSITIVE
Collision energy: 40
Fragmentation mode: CID
Ionization: ESI
Column name: Zorbax Eclipse Plus C18 2.1 mm x 150 mm, 3.5 um, Agilent
Retention time: 7.492 min
Precursor m/z: 544.1813
Precursor type: [M+H]+
m/z	relative intensity
69.0367	31
72.0462	60
86.0618	188
95.0498	26
112.0748	76
113.0592	115
113.0765	18
130.0851	215
135.0443	13
148.0962	41
287.072	26
290.0612	13
303.065	15
305.0819	41
306.0518	107
315.0711	13
318.0443	23
320.0677	10
321.0773	810
333.076	107
337.0726	13
346.0493	374
351.0852	26
361.0718	999
361.135	15
364.0648	18
379.0827	403
397.0945	209
526.1738	52
544.1892	68
