Mass spectrum: 2-[(4-hydroxy-9,10-dioxoanthracen-1-yl)amino]-5-methylbenzenesulfonic acid; LC-ESI-QTOF; MS2; 40 V
Name: 2-[(4-hydroxy-9,10-dioxoanthracen-1-yl)amino]-5-methylbenzenesulfonic acid
Formula: C21H15NO6S
Exact mass: 409.062
SMILES: CC1=CC(=C(C=C1)NC2=C3C(=C(C=C2)O)C(=O)C4=CC=CC=C4C3=O)S(=O)(=O)O
InChI: InChI=1S/C21H15NO6S/c1-11-6-7-14(17(10-11)29(26,27)28)22-15-8-9-16(23)19-18(15)20(24)12-4-2-3-5-13(12)21(19)25/h2-10,22-23H,1H3,(H,26,27,28)
Instrument: TripleTOF X500R SCIEX
Instrument type: LC-ESI-QTOF
Ms type: MS2
Ion mode: POSITIVE
Collision energy: 40
Fragmentation mode: CID
Ionization: ESI
Column name: Zorbax Eclipse Plus C18 2.1 mm x 150 mm, 3.5 um, Agilent
Retention time: 11.683 min
Precursor m/z: 410.0693
Precursor type: [M+H]+
m/z	relative intensity
180.0813	40
228.0809	30
229.0859	30
241.0903	20
244.1134	37
252.0748	16
254.0982	70
255.1008	23
257.0867	33
272.1079	33
282.0912	118
283.1034	13
285.0786	134
299.0946	40
300.1023	401
310.0818	23
311.1007	23
312.0663	30
312.1005	30
313.0749	999
313.1436	16
326.0793	20
327.0885	57
328.0591	47
328.0984	917
328.1434	16
328.1571	27
329.104	128
330.1103	37
342.0781	23
343.0848	347
344.0927	80
392.0587	40
