Mass spectrum: Fenhexamid; LC-ESI-QTOF; MS2; 40 V
Name: Fenhexamid
Class: Fungicide
Formula: C14H17Cl2NO2
Exact mass: 301.0636
SMILES: CC1(CCCCC1)C(=O)Nc2ccc(c(c2Cl)Cl)O
InChI: InChI=1S/C14H17Cl2NO2/c1-14(7-3-2-4-8-14)13(19)17-9-5-6-10(18)12(16)11(9)15/h5-6,18H,2-4,7-8H2,1H3,(H,17,19)
Instrument: TripleTOF 6600 SCIEX
Instrument type: LC-ESI-QTOF
Ms type: MS2
Ion mode: NEGATIVE
Collision energy: 40
Fragmentation mode: CID
Ionization: ESI
Column name: Zorbax Eclipse Plus C18 2.1 mm x 150 mm, 3.5 um, Agilent
Retention time: 12.5 min
Precursor m/z: 300.0563
Precursor type: [M-H]-
m/z	relative intensity
34.9699	100
138.9834	36
155.9859	26
166.9772	28
167.9868	34
174.9605	22
180.9947	61
184.045	16
184.0792	12
185.0472	16
185.0877	75
192.9911	53
194.0011	24
195.0097	38
207.0133	10
208.0175	40
212.0742	36
213.0798	51
220.0182	85
221.025	202
228.1069	12
234.0372	16
248.0485	239
249.0571	400
264.0787	999
300.055	110
