Mass spectrum: 4'-O-Demethyl pantoprazole sulfide; LC-ESI-QTOF; MS2; 40 V
Name: 4'-O-Demethyl pantoprazole sulfide
Class: Pharmaceutical; Transformation_product-Metabolite
Formula: C15H13F2N3O3S
Exact mass: 353.0646
SMILES: COC1=C(NC=CC1=O)CSC2=NC3=C(N2)C=C(C=C3)OC(F)F
InChI: InChI=1S/C15H13F2N3O3S/c1-22-13-11(18-5-4-12(13)21)7-24-15-19-9-3-2-8(23-14(16)17)6-10(9)20-15/h2-6,14H,7H2,1H3,(H,18,21)(H,19,20)
Instrument: TripleTOF 6600 SCIEX
Instrument type: LC-ESI-QTOF
Ms type: MS2
Ion mode: POSITIVE
Collision energy: 40
Fragmentation mode: CID
Ionization: ESI
Column name: Zorbax Eclipse Plus C18 2.1 mm x 150 mm, 3.5 um, Agilent
Retention time: 7.57 min
Precursor m/z: 354.0719
Precursor type: [M+H]+
m/z	relative intensity
53.0376	34
80.0482	54
82.0643	18
90.0321	10
93.0561	10
108.0435	999
109.0505	13
110.0591	459
121.0505	43
124.0377	31
126.0532	39
135.0536	20
136.0382	45
138.0537	426
139.0612	21
140.0146	44
155.0017	23
170.0257	507
185.0507	288
216.0151	11
231.0387	21
278.0725	22
302.0726	23
303.0803	11
306.0672	102
320.0836	10
321.09	12
