Mass spectrum: 2-isopropyl-5,6-dimethyl-1H-benzimidazole; LC-ESI-QTOF; MS2; 130 V
Name: 2-isopropyl-5,6-dimethyl-1H-benzimidazole
Formula: C12H16N2
Exact mass: 188.1313
SMILES: CC1=CC2=C(C=C1C)N=C(N2)C(C)C
InChI: InChI=1S/C12H16N2/c1-7(2)12-13-10-5-8(3)9(4)6-11(10)14-12/h5-7H,1-4H3,(H,13,14)
Instrument: TripleTOF 6600 SCIEX
Instrument type: LC-ESI-QTOF
Ms type: MS2
Ion mode: POSITIVE
Collision energy: 130
Fragmentation mode: CID
Ionization: ESI
Column name: Zorbax Eclipse Plus C18 2.1 mm x 150 mm, 3.5 um, Agilent
Retention time: 6.482 min
Precursor m/z: 189.1386
Precursor type: [M+H]+
m/z	relative intensity
35.999	21
37.0069	140
38.0017	15
38.0145	95
39.0225	298
41.0379	18
49.0063	100
50.0146	775
51.0225	999
52.0173	53
52.0293	37
59.9984	11
61.0057	86
62.0141	155
63.0217	169
64.0166	11
65.0372	90
73.0062	12
74.0143	117
75.0104	17
75.0209	43
76.0173	30
77.0374	201
78.0321	20
78.0452	14
89.0372	67
91.0525	30
104.0465	22
