Mass spectrum: 19-Nortestosterone; LC-ESI-QTOF; MS2; 30 V
Name: 19-Nortestosterone
Class: Pharmaceutical
Formula: C18H26O2
Exact mass: 274.1933
SMILES: C[C@]12CC[C@H]3[C@@H](CCC4=CC(=O)CC[C@H]34)[C@@H]1CC[C@@H]2O
InChI: InChI=1S/C18H26O2/c1-18-9-8-14-13-5-3-12(19)10-11(13)2-4-15(14)16(18)6-7-17(18)20/h10,13-17,20H,2-9H2,1H3/t13-,14+,15+,16-,17-,18-/m0/s1
Instrument: TripleTOF 5600 SCIEX
Instrument type: LC-ESI-QTOF
Ms type: MS2
Ion mode: POSITIVE
Collision energy: 30
Fragmentation mode: CID
Ionization: ESI
Column name: Zorbax Eclipse Plus C18 2.1 mm x 150 mm, 3.5 um, Agilent
Retention time: 10.421 min
Precursor m/z: 275.2006
Precursor type: [M+H]+
m/z	relative intensity
67.0579	39
69.0764	13
77.0411	27
79.057	86
81.0722	177
83.0513	255
83.0838	24
91.0549	98
93.0707	182
95.086	137
97.0665	34
105.0694	121
107.0488	109
107.0851	109
109.0653	999
111.0801	16
117.0692	52
119.0852	142
121.067	11
121.1007	107
123.0796	37
129.0702	40
131.0848	100
133.0656	22
133.1006	107
135.0796	56
135.1164	227
137.0953	17
141.0698	22
143.0848	155
145.1006	386
147.0797	47
147.1158	231
149.0958	81
149.1317	119
155.0834	28
157.1005	122
159.1155	110
161.0957	144
161.1317	90
163.1109	149
169.1008	54
171.1147	102
173.1309	61
175.1097	93
175.1463	61
183.1159	155
185.1321	207
187.1114	45
187.147	236
188.1204	14
197.132	166
199.1471	291
201.1257	111
203.1421	100
211.1478	61
213.1624	100
215.1411	24
215.1785	40
217.1572	16
229.1599	9
229.1946	14
231.1731	117
239.1789	565
257.1896	531
275.1997	873
