Mass spectrum: Fludioxonil; LC-ESI-QTOF; MS2; 70 V
Name: Fludioxonil
Class: Fungicide
Formula: C12H6F2N2O2
Exact mass: 248.0397
SMILES: c1cc(c2c(c1)OC(O2)(F)F)c3c[nH]cc3C#N
InChI: InChI=1S/C12H6F2N2O2/c13-12(14)17-10-3-1-2-8(11(10)18-12)9-6-16-5-7(9)4-15/h1-3,5-6,16H
Instrument: TripleTOF 6600 SCIEX
Instrument type: LC-ESI-QTOF
Ms type: MS2
Ion mode: NEGATIVE
Collision energy: 70
Fragmentation mode: CID
Ionization: ESI
Column name: Zorbax Eclipse Plus C18 2.1 mm x 150 mm, 3.5 um, Agilent
Retention time: 11.757 min
Precursor m/z: 247.0324
Precursor type: [M-H]-
m/z	relative intensity
49.0081	90
50.0034	999
62.0029	52
64.0063	98
65.0137	234
70.993	98
73.0071	90
74.0025	121
75.0219	37
88.0165	30
89.0135	98
89.0388	98
98.0026	98
114.034	45
115.0294	189
124.0182	60
126.0347	136
127.0292	83
139.0299	75
140.037	68
141.0449	128
151.03	83
152.0371	635
169.039	90
180.0332	136
