Mass spectrum: Etoricoxib; LC-ESI-QTOF; MS2; 70 V
Name: Etoricoxib
Class: Pharmaceutical
Formula: C18H15ClN2O2S
Exact mass: 358.0543
SMILES: CC1=NC=C(C=C1)C2=NC=C(C=C2C3=CC=C(C=C3)S(=O)(=O)C)Cl
InChI: InChI=1S/C18H15ClN2O2S/c1-12-3-4-14(10-20-12)18-17(9-15(19)11-21-18)13-5-7-16(8-6-13)24(2,22)23/h3-11H,1-2H3
Instrument: TripleTOF 5600 SCIEX
Instrument type: LC-ESI-QTOF
Ms type: MS2
Ion mode: POSITIVE
Collision energy: 70
Fragmentation mode: CID
Ionization: ESI
Column name: Zorbax Eclipse Plus C18 2.1 mm x 150 mm, 3.5 um, Agilent
Retention time: 6.991 min
Precursor m/z: 359.0616
Precursor type: [M+H]+
m/z	relative intensity
151.0521	13
166.0651	14
167.0733	10
175.0539	36
176.0607	41
177.0578	21
188.0568	11
189.0687	65
190.0673	24
191.0728	20
192.0741	10
193.076	21
194.084	15
200.0487	29
201.0566	77
202.0647	109
203.0724	199
204.0778	34
213.0229	35
214.064	50
215.0721	50
216.08	255
217.0879	230
218.0866	54
225.0354	13
226.0512	41
227.0627	104
228.0676	104
229.0644	332
230.0816	28
236.0265	26
237.0329	69
238.0413	297
239.0373	34
241.0742	34
242.0833	170
243.0909	592
244.0992	583
250.0413	79
251.0486	188
252.0557	216
253.0517	63
262.0419	58
263.0367	326
264.0457	133
265.0527	50
276.0442	43
277.0523	206
278.0603	349
279.0676	999
280.0753	75
