Mass spectrum: Ethyltriphenylphosphonium; LC-ESI-QTOF; MS2; 150 V
Name: Ethyltriphenylphosphonium
Class: Industrial_process
Formula: [C20H20P]+
Exact mass: 291.1297
SMILES: CC[P+](C1=CC=CC=C1)(C2=CC=CC=C2)C3=CC=CC=C3
InChI: InChI=1S/C20H20P/c1-2-21(18-12-6-3-7-13-18,19-14-8-4-9-15-19)20-16-10-5-11-17-20/h3-17H,2H2,1H3/q+1
Instrument: TripleTOF 5600 SCIEX
Instrument type: LC-ESI-QTOF
Ms type: MS2
Ion mode: POSITIVE
Collision energy: 150
Fragmentation mode: CID
Ionization: ESI
Column name: Zorbax Eclipse Plus C18 2.1 mm x 150 mm, 3.5 um, Agilent
Retention time: 7.392 min
Precursor m/z: 291.1297
Precursor type: [M]+
m/z	relative intensity
39.023	132
50.0147	166
51.0226	150
55.9802	147
56.9885	281
61.0065	114
62.0144	244
63.0222	610
65.0375	151
67.9801	95
74.0138	264
75.0218	92
76.0296	142
77.0374	141
78.9715	130
79.9796	589
80.9873	678
87.021	203
89.0365	406
91.9788	105
98.0128	155
102.044	123
103.9792	180
104.9863	95
107.0024	999
113.0372	120
115.0526	155
126.0457	329
131.0038	113
139.0537	91
150.0456	472
151.0536	360
152.0621	192
155.0041	113
156.011	86
157.0191	122
179.0042	122
180.0122	98
181.0199	263
