Mass spectrum: Antipyrine; LC-ESI-QTOF; MS2; 40 V
Name: Antipyrine
Class: Pharmaceutical
Formula: C11H12N2O
Exact mass: 188.095
SMILES: CN1N(C(=O)C=C1C)c2ccccc2
InChI: InChI=1S/C11H12N2O/c1-9-8-11(14)13(12(9)2)10-6-4-3-5-7-10/h3-8H,1-2H3
Instrument: TripleTOF 5600 SCIEX
Instrument type: LC-ESI-QTOF
Ms type: MS2
Ion mode: POSITIVE
Collision energy: 40
Fragmentation mode: CID
Ionization: ESI
Column name: Zorbax Eclipse Plus C18 2.1 mm x 150 mm, 3.5 um, Agilent
Retention time: 6.261 min
Precursor m/z: 189.1022
Precursor type: [M+H]+
m/z	relative intensity
42.0495	15
51.0267	72
56.0549	689
58.0691	191
65.0415	168
66.0484	11
68.0514	18
69.0596	22
77.0407	999
78.0471	52
79.0553	116
81.0456	65
82.0306	11
89.0381	31
90.0457	22
91.0546	227
92.0494	40
93.0321	11
93.0561	22
93.07	13
94.0651	31
95.0592	81
96.0456	20
96.0673	116
98.0594	75
102.0459	34
103.0532	147
104.049	475
105.034	18
105.0553	20
105.0659	43
106.0642	423
115.0525	200
116.0581	20
117.0649	236
118.0635	236
119.0575	15
119.0711	15
120.0796	143
127.053	22
128.0461	79
129.0555	91
130.0636	434
131.0583	145
131.0696	270
131.0966	15
132.0432	22
132.0732	193
133.0519	38
133.0735	13
134.0446	15
134.0942	27
143.0727	38
144.0798	207
145.0732	243
146.0605	18
146.0832	197
147.0906	277
148.077	15
149.0715	29
157.0516	34
159.054	15
159.0886	29
160.0997	13
161.1066	93
172.0745	34
173.0716	29
174.0775	136
189.1024	698
