Mass spectrum: Ranitidine; LC-ESI-QTOF; MS2; 70 V
Name: Ranitidine
Class: Pharmaceutical
Formula: C13H22N4O3S
Exact mass: 314.1413
SMILES: CNC(=C[N+](=O)[O-])NCCSCC1=CC=C(O1)CN(C)C
InChI: InChI=1S/C13H22N4O3S/c1-14-13(9-17(18)19)15-6-7-21-10-12-5-4-11(20-12)8-16(2)3/h4-5,9,14-15H,6-8,10H2,1-3H3
Instrument: TripleTOF 5600 SCIEX
Instrument type: LC-ESI-QTOF
Ms type: MS2
Ion mode: POSITIVE
Collision energy: 70
Fragmentation mode: CID
Ionization: ESI
Column name: Zorbax Eclipse Plus C18 2.1 mm x 150 mm, 3.5 um, Agilent
Retention time: 4.832 min
Precursor m/z: 315.1485
Precursor type: [M+H]+
m/z	relative intensity
42.0426	42
44.0583	17
53.0438	92
54.0413	23
55.047	65
56.0538	115
57.0498	34
57.0607	11
58.0697	28
59.0011	25
60.0066	28
65.0422	21
67.0574	28
68.0532	50
68.0686	9
70.0686	17
71.0628	17
77.0412	173
78.0369	23
78.051	27
79.0567	100
80.0144	9
80.052	77
81.0362	919
82.0545	42
82.0665	19
83.0613	98
84.0701	23
85.043	19
88.0232	25
91.0557	65
92.0508	15
93.0585	54
94.0418	28
94.0661	129
95.0498	28
95.0716	34
96.0691	44
97.0103	52
97.077	600
98.0844	65
101.0289	11
102.0384	999
103.0569	13
104.0502	141
105.0568	15
106.0652	59
107.0499	347
108.056	17
108.0804	46
109.009	11
109.076	15
110.06	11
110.0695	13
110.0963	36
112.0212	13
114.0358	13
115.032	21
117.0535	61
118.0652	81
119.0599	19
120.0457	11
120.0686	38
120.0795	19
121.0753	106
122.0594	32
122.0841	17
123.0253	32
125.0057	270
126.0168	11
129.0482	63
130.0566	104
131.0674	32
132.0442	173
132.0806	17
133.0519	183
133.0755	27
134.0609	36
134.0827	11
135.0279	15
135.0913	75
136.0744	11
137.0105	11
139.0311	25
146.0603	21
147.0651	17
147.0912	19
148.0762	121
149.0733	15
150.0374	40
151.0194	25
159.0487	11
163.0865	28
167.0638	13
177.1011	25
178.0321	27
192.047	13
