Mass spectrum: 1-Benzothiazol-2-yl-ethylamine; LC-ESI-QTOF; MS2; 150 V
Name: 1-Benzothiazol-2-yl-ethylamine
Formula: C9H10N2S
Exact mass: 178.0565
SMILES: CC(C1=NC2=CC=CC=C2S1)N
InChI: InChI=1S/C9H10N2S/c1-6(10)9-11-7-4-2-3-5-8(7)12-9/h2-6H,10H2,1H3
Instrument: TripleTOF 6600 SCIEX
Instrument type: LC-ESI-QTOF
Ms type: MS2
Ion mode: POSITIVE
Collision energy: 150
Fragmentation mode: CID
Ionization: ESI
Column name: Zorbax Eclipse Plus C18 2.1 mm x 150 mm, 3.5 um, Agilent
Retention time: 5.162 min
Precursor m/z: 179.0638
Precursor type: [M+H]+
m/z	relative intensity
35.9989	303
37.0068	999
38.0027	88
38.0147	569
39.0223	328
42.033	101
43.971	189
44.9785	252
49.0068	202
50.0145	303
61.0064	227
62.0144	189
67.9706	265
68.9785	581
74.0148	50
