Mass spectrum: Norfloxacin; LC-ESI-QTOF; MS2; 70 V
Name: Norfloxacin
Class: Antimicrobial; Pharmaceutical
Formula: C16H18FN3O3
Exact mass: 319.1332
SMILES: CCN1C=C(C(=O)C2=CC(=C(C=C21)N3CCNCC3)F)C(=O)O
InChI: InChI=1S/C16H18FN3O3/c1-2-19-9-11(16(22)23)15(21)10-7-12(17)14(8-13(10)19)20-5-3-18-4-6-20/h7-9,18H,2-6H2,1H3,(H,22,23)
Instrument: TripleTOF 5600 SCIEX
Instrument type: LC-ESI-QTOF
Ms type: MS2
Ion mode: POSITIVE
Collision energy: 70
Fragmentation mode: CID
Ionization: ESI
Column name: Zorbax Eclipse Plus C18 2.1 mm x 150 mm, 3.5 um, Agilent
Retention time: 5.167 min
Precursor m/z: 320.1405
Precursor type: [M+H]+
m/z	relative intensity
101.0424	74
107.0286	99
109.0428	49
109.0508	62
115.0561	62
116.0497	99
122.0421	62
128.0501	187
130.0663	74
132.0259	112
133.0367	174
134.0398	249
135.0486	224
136.0568	112
140.0472	62
146.0428	112
147.0489	124
148.0558	586
149.0537	87
155.0606	224
156.0712	137
157.0749	112
160.0481	162
161.0276	87
161.0538	437
162.0382	149
163.041	99
163.0663	87
164.0532	74
169.063	87
170.0719	62
173.0502	187
174.0575	262
175.066	424
176.0752	449
183.0748	62
185.0738	62
187.0315	162
187.067	162
188.038	399
188.0778	49
189.0815	949
191.0629	74
196.0867	62
197.0984	62
203.0604	561
203.0963	87
204.1085	62
215.023	49
217.0347	49
217.0771	62
224.0386	112
225.0427	49
231.0556	999
