Mass spectrum: Tetraconazole; LC-ESI-QTOF; MS2; 100 V
Name: Tetraconazole
Class: Fungicide
Formula: C13H11Cl2F4N3O
Exact mass: 371.0215
SMILES: C1=CC(=C(C=C1Cl)Cl)C(CN2C=NC=N2)COC(C(F)F)(F)F
InChI: InChI=1S/C13H11Cl2F4N3O/c14-9-1-2-10(11(15)3-9)8(4-22-7-20-6-21-22)5-23-13(18,19)12(16)17/h1-3,6-8,12H,4-5H2
Instrument: TripleTOF 6600 SCIEX
Instrument type: LC-ESI-QTOF
Ms type: MS2
Ion mode: POSITIVE
Collision energy: 100
Fragmentation mode: CID
Ionization: ESI
Column name: Zorbax Eclipse Plus C18 2.1 mm x 150 mm, 3.5 um, Agilent
Retention time: 12.382 min
Precursor m/z: 372.0288
Precursor type: [M+H]+
m/z	relative intensity
43.0292	58
51.0042	73
61.0075	14
62.0152	48
63.0232	127
70.0403	254
72.9842	297
82.9448	22
87.023	17
88.031	69
89.039	999
96.984	111
98.9998	248
106.9459	14
107.0293	17
113.0383	17
114.0466	39
115.0545	277
123	576
124.0076	166
132.9609	130
133.0456	12
149.0151	19
158.9766	256
