Mass spectrum: Lisofylline; LC-ESI-QTOF; MS2; 70 V
Name: Lisofylline
Class: Pharmaceutical; Metabolite
Formula: C13H20N4O3
Exact mass: 280.1535
SMILES: CC(O)CCCCN1C(=O)N(C)c2ncn(C)c2C1=O
InChI: InChI=1S/C13H20N4O3/c1-9(18)6-4-5-7-17-12(19)10-11(14-8-15(10)2)16(3)13(17)20/h8-9,18H,4-7H2,1-3H3
Instrument: TripleTOF 5600 SCIEX
Instrument type: LC-ESI-QTOF
Ms type: MS2
Ion mode: POSITIVE
Collision energy: 70
Fragmentation mode: CID
Ionization: ESI
Column name: Zorbax Eclipse Plus C18 2.1 mm x 150 mm, 3.5 um, Agilent
Retention time: 6.425 min
Precursor m/z: 281.1608
Precursor type: [M+H]+
m/z	relative intensity
42.0444	666
53.0195	93
54.0393	59
56.02	264
56.0551	230
67.0329	999
67.059	59
68.0412	315
69.0488	520
69.0774	42
69.9981	51
79.0315	51
81.0465	350
82.0557	128
83.0617	367
85.0446	42
93.0443	59
94.0427	85
95.048	76
95.0605	76
107.0486	42
108.0557	580
109.0388	93
110.0723	426
113.0349	76
120.0558	93
121.064	145
122.0601	461
122.0832	34
123.0421	512
132.0551	34
135.0654	102
136.0518	59
137.0846	51
138.0664	273
148.0385	59
163.0591	179
165.0759	51
