Mass spectrum: Methyl-tris(4-fluorophenyl)phosphonium; LC-ESI-QTOF; MS2; 100 V
Name: Methyl-tris(4-fluorophenyl)phosphonium
Class: Industrial_process
Formula: [C19H15F3P]+
Exact mass: 331.0858
SMILES: C[P+](c1ccc(F)cc1)(c2ccc(F)cc2)c3ccc(F)cc3
InChI: InChI=1S/C19H15F3P/c1-23(17-8-2-14(20)3-9-17,18-10-4-15(21)5-11-18)19-12-6-16(22)7-13-19/h2-13H,1H3/q+1
Instrument: TripleTOF 5600 SCIEX
Instrument type: LC-ESI-QTOF
Ms type: MS2
Ion mode: POSITIVE
Collision energy: 100
Fragmentation mode: CID
Ionization: ESI
Column name: Zorbax Eclipse Plus C18 2.1 mm x 150 mm, 3.5 um, Agilent
Retention time: 7.52 min
Precursor m/z: 331.0858
Precursor type: [M]+
m/z	relative intensity
74.9811	81
79.9828	87
98.0151	55
98.9796	91
124.0313	63
124.9951	931
126.0028	95
133.0442	83
144.0371	69
149.0385	157
150.0463	999
151.0534	157
157.0446	75
168.0374	189
169.0454	305
170.0532	491
175.0108	173
179.004	85
181.0204	199
188.0438	445
193.0025	157
199.0112	611
201.0278	225
219.0172	985
