Mass spectrum: Amlodipine; LC-ESI-QTOF; MS2; 150 V
Name: Amlodipine
Class: Pharmaceutical
Formula: C20H25ClN2O5
Exact mass: 408.1452
SMILES: CCOC(=O)C1=C(COCCN)NC(=C(C1c2ccccc2Cl)C(=O)OC)C
InChI: InChI=1S/C20H25ClN2O5/c1-4-28-20(25)18-15(11-27-10-9-22)23-12(2)16(19(24)26-3)17(18)13-7-5-6-8-14(13)21/h5-8,17,23H,4,9-11,22H2,1-3H3
Instrument: TripleTOF 5600 SCIEX
Instrument type: LC-ESI-QTOF
Ms type: MS2
Ion mode: POSITIVE
Collision energy: 150
Fragmentation mode: CID
Ionization: ESI
Column name: Zorbax Eclipse Plus C18 2.1 mm x 150 mm, 3.5 um, Agilent
Retention time: 8.432 min
Precursor m/z: 409.1525
Precursor type: [M+H]+
m/z	relative intensity
42.047	35
44.0575	292
65.0414	146
67.0211	40
72.9863	46
73.0114	35
74.0188	385
75.0261	899
76.0339	186
77.0413	479
78.0352	29
78.05	93
80.0509	35
85.0097	29
86.0171	52
87.0241	128
88.0331	204
89.0404	403
90.0473	29
91.0544	35
92.051	35
94.0658	29
98.0141	46
98.9996	70
99.0231	87
100.0324	23
101.0399	262
101.0587	29
102.0474	438
103.0563	23
110.9996	58
113.0385	385
114.0464	350
115.0542	958
116.0622	40
117.0595	23
122.9998	35
125.0393	87
126.0474	333
127.0535	508
128.0618	315
137.0393	81
138.0449	70
138.9932	23
139.0539	812
140.0508	227
141.0699	64
143.0722	23
149.0157	81
149.0358	52
150.046	327
151.0546	595
152.0616	999
153.067	87
154.0652	134
163.0569	64
164.0484	40
164.0608	29
165.0674	29
166.0652	204
167.0735	175
168.0626	23
168.0822	40
177.0574	87
178.0636	151
179.0739	35
180.0793	64
