Mass spectrum: Diphenhydramine; LC-ESI-QTOF; MS2; 140 V
Name: Diphenhydramine
Class: Pharmaceutical
Formula: C17H21NO
Exact mass: 255.1623
SMILES: CN(C)CCOC(c1ccccc1)c2ccccc2
InChI: InChI=1S/C17H21NO/c1-18(2)13-14-19-17(15-9-5-3-6-10-15)16-11-7-4-8-12-16/h3-12,17H,13-14H2,1-2H3
Instrument: TripleTOF 5600 SCIEX
Instrument type: LC-ESI-QTOF
Ms type: MS2
Ion mode: POSITIVE
Collision energy: 140
Fragmentation mode: CID
Ionization: ESI
Column name: Zorbax Eclipse Plus C18 2.1 mm x 150 mm, 3.5 um, Agilent
Retention time: 7.721 min
Precursor m/z: 256.1696
Precursor type: [M+H]+
m/z	relative intensity
44.0577	27
52.036	36
60.0058	52
65.0436	185
73.0121	61
74.0188	472
75.0269	197
76.0338	178
77.0413	164
78.0486	53
84.0039	23
85.0094	144
86.0177	336
87.0248	317
88.0324	32
89.0409	474
91.0557	29
97.008	35
98.0165	286
99.0245	104
100.0315	35
101.039	19
102.0474	131
109.0081	39
110.0152	119
111.0219	104
112.0325	10
113.0389	174
114.0457	16
115.0548	329
122.014	55
123.0233	16
125.0383	32
126.0462	141
127.055	35
128.0639	18
134.016	12
137.0383	131
138.0477	53
139.0546	227
149.0395	27
150.0467	271
151.0535	50
152.0619	16
161.0395	139
162.047	302
163.0547	999
164.0625	130
165.0703	61
