Mass spectrum: Cortisone; LC-ESI-QTOF; MS2; 150 V
Name: Cortisone
Class: Pharmaceutical
Formula: C21H28O5
Exact mass: 360.1937
SMILES: C[C@]12CCC(=O)C=C1CC[C@H]3[C@@H]4CC[C@](O)(C(=O)CO)[C@@]4(C)CC(=O)[C@H]23
InChI: InChI=1S/C21H28O5/c1-19-7-5-13(23)9-12(19)3-4-14-15-6-8-21(26,17(25)11-22)20(15,2)10-16(24)18(14)19/h9,14-15,18,22,26H,3-8,10-11H2,1-2H3/t14-,15-,18+,19-,20-,21-/m0/s1
Instrument: TripleTOF 5600 SCIEX
Instrument type: LC-ESI-QTOF
Ms type: MS2
Ion mode: POSITIVE
Collision energy: 150
Fragmentation mode: CID
Ionization: ESI
Column name: Zorbax Eclipse Plus C18 2.1 mm x 150 mm, 3.5 um, Agilent
Retention time: 8.396 min
Precursor m/z: 361.201
Precursor type: [M+H]+
m/z	relative intensity
43.0261	22
65.0434	336
75.027	28
76.0364	22
77.0435	999
78.0504	72
79.0569	106
89.0412	106
91.0574	448
91.0824	44
102.0492	134
103.0555	101
107.0495	39
115.0567	634
115.0829	22
116.0639	22
117.0735	28
126.0485	67
127.0568	151
128.0642	370
131.0521	33
139.0592	56
141.0734	61
150.0483	67
151.0579	84
152.0649	218
153.0714	28
163.058	67
164.0665	56
165.0734	123
176.064	44
178.0812	44
189.0724	56
