Mass spectrum: Temazepam; LC-ESI-QTOF; MS2; 150 V
Name: Temazepam
Class: Pharmaceutical
Formula: C16H13ClN2O2
Exact mass: 300.0666
SMILES: CN1C2=C(C=C(C=C2)Cl)C(=NC(C1=O)O)C3=CC=CC=C3
InChI: InChI=1S/C16H13ClN2O2/c1-19-13-8-7-11(17)9-12(13)14(18-15(20)16(19)21)10-5-3-2-4-6-10/h2-9,15,20H,1H3
Instrument: TripleTOF 6600 SCIEX
Instrument type: LC-ESI-QTOF
Ms type: MS2
Ion mode: POSITIVE
Collision energy: 150
Fragmentation mode: CID
Ionization: ESI
Column name: Zorbax Eclipse Plus C18 2.1 mm x 150 mm, 3.5 um, Agilent
Retention time: 10.497 min
Precursor m/z: 301.0738
Precursor type: [M+H]+
m/z	relative intensity
35.9979	25
37.0061	123
38.0136	94
39.0215	258
46.9668	44
48.9824	36
49.0052	86
50.0138	482
51.0215	684
52.0162	19
52.0307	11
59.9969	69
61.0054	352
61.9761	11
62.0134	532
63.0212	727
64.0152	50
64.0282	25
65.0365	119
66.0439	15
72.982	208
73.0051	196
74.013	999
75.0077	42
75.0208	358
76.0153	38
76.0281	113
77.0364	252
78.0438	21
83.9733	15
83.9974	23
84.9809	21
85.005	138
86.0128	244
87.0086	15
87.0208	217
88.0147	61
88.0282	46
89.0367	430
90.0443	13
91.052	11
96.9814	13
97.0032	65
98.0128	545
99.0085	256
99.0195	167
100.0161	73
100.0264	71
101.0342	17
102.0321	11
102.043	34
104.0464	17
109.0039	44
110.0139	154
111.006	13
111.0202	82
112.0148	15
113.0359	177
114.0344	54
115.0525	148
121.0036	23
122.013	194
123.0097	108
123.0211	84
124.017	27
124.0279	40
125.0374	44
126.0439	94
127.0384	17
135.0186	15
137.0362	102
138.0447	55
139.0527	187
140.046	102
146.0158	11
147.0076	25
148.0294	15
149.0369	129
150.0437	360
151.05	100
152.0588	42
161.0361	77
162.0424	154
163.0522	393
164.0498	135
165.0525	17
166.0638	13
175.0407	102
176.048	28
177.0583	40
178.0599	19
188.0481	34
189.0515	13
191.0622	23
