Mass spectrum: Drometrizole; LC-ESI-QTOF; MS2; 40 V
Name: Drometrizole
Class: Industrial_process
Formula: C13H11N3O
Exact mass: 225.0902
SMILES: CC1=CC(=C(C=C1)O)N2N=C3C=CC=CC3=N2
InChI: InChI=1S/C13H11N3O/c1-9-6-7-13(17)12(8-9)16-14-10-4-2-3-5-11(10)15-16/h2-8,17H,1H3
Instrument: TripleTOF 5600 SCIEX
Instrument type: LC-ESI-QTOF
Ms type: MS2
Ion mode: POSITIVE
Collision energy: 40
Fragmentation mode: CID
Ionization: ESI
Column name: Zorbax Eclipse Plus C18 2.1 mm x 150 mm, 3.5 um, Agilent
Retention time: 15.201 min
Precursor m/z: 226.0975
Precursor type: [M+H]+
m/z	relative intensity
65.0456	120
77.0444	999
79.0592	700
91.0471	16
92.0536	109
94.066	12
105.0463	62
106.0556	56
107.0512	435
115.0556	19
120.0574	578
127.0536	35
128.0616	61
129.0608	17
130.067	22
143.075	14
151.0578	17
152.0644	62
153.0681	20
154.0659	360
155.0731	106
156.0668	27
164.0491	9
165.0584	16
167.0727	16
168.0826	49
171.088	12
179.0715	30
180.081	82
181.0749	132
182.0621	45
182.0824	114
183.0703	191
196.0774	33
197.0856	32
226.0965	24
