Mass spectrum: Iopromide; LC-ESI-QTOF; MS2; 130 V
Name: Iopromide
Class: Pharmaceutical
Formula: C18H24I3N3O8
Exact mass: 790.8698
SMILES: COCC(=O)Nc1c(I)c(C(=O)NCC(O)CO)c(I)c(c1I)C(=O)N(C)CC(O)CO
InChI: InChI=1S/C18H24I3N3O8/c1-24(4-9(28)6-26)18(31)12-13(19)11(17(30)22-3-8(27)5-25)14(20)16(15(12)21)23-10(29)7-32-2/h8-9,25-28H,3-7H2,1-2H3,(H,22,30)(H,23,29)
Instrument: TripleTOF 5600 SCIEX
Instrument type: LC-ESI-QTOF
Ms type: MS2
Ion mode: POSITIVE
Collision energy: 130
Fragmentation mode: CID
Ionization: ESI
Column name: Zorbax Eclipse Plus C18 2.1 mm x 150 mm, 3.5 um, Agilent
Retention time: 4.895 min
Precursor m/z: 791.877
Precursor type: [M+H]+
m/z	relative intensity
45.0414	97
67.0215	97
77.0048	117
88.0194	254
89.028	450
100.0172	176
101.0255	254
101.9971	117
102.0363	137
103.0413	97
113.9964	215
115.0437	117
116.0116	195
116.0334	78
117.0197	999
126.9089	97
128.0133	215
129.0181	117
129.042	137
130.0255	117
131.0355	78
141.9915	274
143.0626	117
144.0057	97
145.0164	333
152.9192	176
157.0156	97
171.0543	97
172.0023	156
172.0331	117
173.0086	195
177.914	293
186.9007	97
188.9165	176
200.9069	274
203.9301	235
212.9053	156
215.9334	137
226.9226	137
227.9307	274
228.9221	137
240.9016	97
243.9251	607
255.9234	352
269.9019	117
271.9192	450
282.9089	97
282.9271	117
285.9366	78
298.9282	156
299.9157	979
313.9321	117
339.8099	137
381.8232	156
