Mass spectrum: Cocamidopropyl betaine; LC-ESI-QTOF; MS2; 60 V
Name: Cocamidopropyl betaine
Formula: C19H38N2O3
Exact mass: 342.2882
SMILES: CCCCCCCCCCCC(=O)NCCC[N+](C)(C)CC(=O)[O-]
InChI: InChI=1S/C19H38N2O3/c1-4-5-6-7-8-9-10-11-12-14-18(22)20-15-13-16-21(2,3)17-19(23)24/h4-17H2,1-3H3,(H-,20,22,23,24)
Instrument: TripleTOF 6600 SCIEX
Instrument type: LC-ESI-QTOF
Ms type: MS2
Ion mode: POSITIVE
Collision energy: 60
Fragmentation mode: CID
Ionization: ESI
Column name: Zorbax Eclipse Plus C18 2.1 mm x 150 mm, 3.5 um, Agilent
Retention time: 10.623 min
Precursor m/z: 343.2955
Precursor type: [M+H]+
m/z	relative intensity
30.034	46
39.0226	76
41.0388	355
43.0544	753
55.0536	114
57.0699	999
58.0645	124
67.0539	237
69.0691	52
71.0853	339
79.053	22
81.0694	168
83.084	42
85.1007	130
93.0689	10
95.0844	309
97.0995	16
109.1008	86
123.1138	12
183.1727	38
240.2294	64
