Mass spectrum: Loratadine; LC-ESI-QTOF; MS2; 30 V
Name: Loratadine
Class: Pharmaceutical
Formula: C22H23ClN2O2
Exact mass: 382.1448
SMILES: CCOC(=O)N1CCC(=C2C3=C(CCC4=C2N=CC=C4)C=C(C=C3)Cl)CC1
InChI: InChI=1S/C22H23ClN2O2/c1-2-27-22(26)25-12-9-15(10-13-25)20-19-8-7-18(23)14-17(19)6-5-16-4-3-11-24-21(16)20/h3-4,7-8,11,14H,2,5-6,9-10,12-13H2,1H3
Instrument: TripleTOF 6600 SCIEX
Instrument type: LC-ESI-QTOF
Ms type: MS2
Ion mode: POSITIVE
Collision energy: 30
Fragmentation mode: CID
Ionization: ESI
Column name: Zorbax Eclipse Plus C18 2.1 mm x 150 mm, 3.5 um, Agilent
Retention time: 9.41 min
Precursor m/z: 383.1521
Precursor type: [M+H]+
m/z	relative intensity
258.1258	10
259.1348	59
266.0716	11
267.0802	72
280.087	11
281.0958	33
282.1033	35
294.1035	69
337.1099	999
339.1613	22
355.1198	14
383.1514	879
