Mass spectrum: Dimethenamid; LC-ESI-QTOF; MS2; 50 V
Name: Dimethenamid
Class: Herbicide
Formula: C12H18ClNO2S
Exact mass: 275.0747
SMILES: CC1=CSC(=C1N(C(C)COC)C(=O)CCl)C
InChI: InChI=1S/C12H18ClNO2S/c1-8-7-17-10(3)12(8)14(11(15)5-13)9(2)6-16-4/h7,9H,5-6H2,1-4H3
Instrument: TripleTOF 6600 SCIEX
Instrument type: LC-ESI-QTOF
Ms type: MS2
Ion mode: POSITIVE
Collision energy: 50
Fragmentation mode: CID
Ionization: ESI
Column name: Zorbax Eclipse Plus C18 2.1 mm x 150 mm, 3.5 um, Agilent
Retention time: 11.971 min
Precursor m/z: 276.082
Precursor type: [M+H]+
m/z	relative intensity
39.0241	29
41.0394	60
42.0347	14
43.0548	10
44.9798	20
45.0343	87
48.9845	142
56.0504	21
58.9953	62
65.0393	30
66.0462	10
67.0547	68
70.9952	26
73.0105	10
73.0659	49
75.9958	18
76.9793	78
77.0393	90
78.0471	33
79.055	47
80.0502	24
81.0577	13
82.0651	21
85.0111	23
91.0547	45
92.0496	11
93.0586	45
93.0699	46
94.0658	132
95.0736	194
96.0577	10
97.0105	52
99.0267	66
101.0427	31
104.0498	29
105.0581	65
106.0648	33
107.0741	21
107.0853	11
108.0812	68
109.0106	24
110.018	27
111.027	999
112.0211	14
112.0347	91
113.0296	27
113.0415	76
114.0368	15
115.0545	23
117.0584	30
117.0704	39
118.0663	68
119.0735	72
120.0811	105
122.0966	24
123.0264	45
124.0219	33
124.0336	63
125.0299	43
125.0427	136
126.0375	801
127.0208	33
127.0483	91
128.0533	162
129.0368	37
132.0797	13
133.0887	15
134.017	13
134.0973	117
135.0263	33
135.1052	121
136.0226	97
137.0302	142
138.0009	26
138.0375	363
139.0457	14
139.0565	26
140.054	50
144.9885	11
149.0363	30
150.0383	187
151.0216	17
151.057	104
152.0179	232
152.0529	360
153.0249	133
153.0604	117
154.0326	42
154.0681	29
158.0356	17
159.0023	13
166.0322	58
166.0687	46
167.0758	39
168.047	26
168.0842	421
186.0142	45
203.0164	24
244.0562	47
