Mass spectrum: Dibutyl phosphate; LC-ESI-QTOF; MS2; 20 V
Name: Dibutyl phosphate
Class: Industrial_process
Formula: C8H19O4P
Exact mass: 210.1021
SMILES: CCCCOP(=O)(O)OCCCC
InChI: InChI=1S/C8H19O4P/c1-3-5-7-11-13(9,10)12-8-6-4-2/h3-8H2,1-2H3,(H,9,10)
Instrument: TripleTOF 5600 SCIEX
Instrument type: LC-ESI-QTOF
Ms type: MS2
Ion mode: NEGATIVE
Collision energy: 20
Fragmentation mode: CID
Ionization: ESI
Column name: Zorbax Eclipse Plus C18 2.1 mm x 150 mm, 3.5 um, Agilent
Retention time: 8.013 min
Precursor m/z: 209.0948
Precursor type: [M-H]-
m/z	relative intensity
78.9586	597
153.0334	673
209.0962	999
