Mass spectrum: Trimethoprim; LC-ESI-QTOF; MS2; 140 V
Name: Trimethoprim
Class: Pharmaceutical
Formula: C14H18N4O3
Exact mass: 290.1379
SMILES: COC1=CC(=CC(=C1OC)OC)CC2=CN=C(N=C2N)N
InChI: InChI=1S/C14H18N4O3/c1-19-10-5-8(6-11(20-2)12(10)21-3)4-9-7-17-14(16)18-13(9)15/h5-7H,4H2,1-3H3,(H4,15,16,17,18)
Instrument: TripleTOF 5600 SCIEX
Instrument type: LC-ESI-QTOF
Ms type: MS2
Ion mode: POSITIVE
Collision energy: 140
Fragmentation mode: CID
Ionization: ESI
Column name: Zorbax Eclipse Plus C18 2.1 mm x 150 mm, 3.5 um, Agilent
Retention time: 5.112 min
Precursor m/z: 291.1452
Precursor type: [M+H]+
m/z	relative intensity
37.0064	109
38.0151	78
39.0232	296
41.0256	218
43.0294	561
49.0072	124
50.0153	483
51.023	999
52.0183	437
53.0022	62
53.0143	62
53.0388	140
54.0337	530
61.0064	140
62.0151	390
63.023	967
64.0179	327
64.0301	78
65.0385	546
66.034	124
66.0456	78
67.0294	78
67.0409	109
68.0255	93
74.0148	483
75.0107	156
75.0229	749
76.0181	437
76.0306	124
77.039	967
78.0338	280
78.0471	78
79.0294	202
80.0492	218
81.0449	249
86.0134	62
87.0217	62
88.0196	124
88.031	78
89.0388	624
90.0344	483
91.029	187
91.0541	78
92.0402	93
92.0509	109
93.046	124
96.0554	78
98.0163	62
100.0171	93
101.0448	78
102.0339	374
103.0296	93
103.0527	78
104.0495	156
105.0455	187
106.0417	78
114.0345	187
116.0501	93
117.0434	171
118.0405	249
119.0639	78
120.0554	78
130.0421	93
144.0568	78
155.0615	62
