Mass spectrum: Fingolimod; LC-ESI-QTOF; MS2; 140 V
Name: Fingolimod
Class: Pharmaceutical
Formula: C19H33NO2
Exact mass: 307.2511
SMILES: CCCCCCCCC1=CC=C(C=C1)CCC(CO)(CO)N
InChI: InChI=1S/C19H33NO2/c1-2-3-4-5-6-7-8-17-9-11-18(12-10-17)13-14-19(20,15-21)16-22/h9-12,21-22H,2-8,13-16,20H2,1H3
Instrument: TripleTOF 6600 SCIEX
Instrument type: LC-ESI-QTOF
Ms type: MS2
Ion mode: POSITIVE
Collision energy: 140
Fragmentation mode: CID
Ionization: ESI
Column name: Zorbax Eclipse Plus C18 2.1 mm x 150 mm, 3.5 um, Agilent
Retention time: 10.17 min
Precursor m/z: 308.2584
Precursor type: [M+H]+
m/z	relative intensity
37.0063	285
38.0142	190
39.0222	903
41.0379	261
49.0067	118
50.0142	475
51.0222	999
52.0289	95
61.0063	118
62.0146	190
63.0218	428
65.0377	594
74.0139	142
76.0292	118
77.0375	689
78.0461	214
89.0375	261
91.053	309
102.046	214
115.0533	451
127.0519	142
128.06	214
