Mass spectrum: Betamethasone; LC-ESI-QTOF; MS2; 150 V
Name: Betamethasone
Class: Pharmaceutical
Formula: C22H29FO5
Exact mass: 392.1999
SMILES: C[C@H]1C[C@H]2[C@@H]3CCC4=CC(=O)C=C[C@@]4([C@]3([C@H](C[C@@]2([C@]1(C(=O)CO)O)C)O)F)C
InChI: InChI=1S/C22H29FO5/c1-12-8-16-15-5-4-13-9-14(25)6-7-19(13,2)21(15,23)17(26)10-20(16,3)22(12,28)18(27)11-24/h6-7,9,12,15-17,24,26,28H,4-5,8,10-11H2,1-3H3/t12-,15-,16-,17-,19-,20-,21-,22-/m0/s1
Instrument: TripleTOF 5600 SCIEX
Instrument type: LC-ESI-QTOF
Ms type: MS2
Ion mode: POSITIVE
Collision energy: 150
Fragmentation mode: CID
Ionization: ESI
Column name: Zorbax Eclipse Plus C18 2.1 mm x 150 mm, 3.5 um, Agilent
Retention time: 9.016 min
Precursor m/z: 393.2072
Precursor type: [M+H]+
m/z	relative intensity
43.0376	18
51.0341	278
55.0231	18
65.0453	342
67.0603	41
75.0271	45
76.0372	31
77.0429	999
78.0508	150
79.0587	77
89.0412	177
91.0564	547
101.039	31
102.0468	173
103.056	164
104.0631	22
105.0719	22
107.0476	31
114.045	18
115.0549	857
116.0633	41
117.0697	18
121.0646	31
125.0391	18
126.0471	91
127.0533	182
128.062	415
129.0691	36
131.0495	109
132.0568	18
133.0455	36
139.0548	164
141.0704	63
146.0519	18
150.0468	114
151.0529	305
152.0619	506
153.0733	68
163.0541	200
164.0599	136
165.0696	383
168.0566	22
175.0601	36
176.0604	269
177.068	91
178.0804	177
181.0546	18
187.0525	100
188.0632	72
189.0693	456
190.0707	18
191.0828	18
200.0615	173
201.0686	114
202.0771	291
203.0881	18
211.0518	41
213.0693	150
214.0752	18
215.085	100
224.0605	59
225.0617	22
226.0791	114
231.0881	18
237.0665	31
239.0832	31
