Mass spectrum: Ametryn; LC-ESI-QTOF; MS2; 40 V
Name: Ametryn
Class: Herbicide
Formula: C9H17N5S
Exact mass: 227.1205
SMILES: CCNc1nc(NC(C)C)nc(SC)n1
InChI: InChI=1S/C9H17N5S/c1-5-10-7-12-8(11-6(2)3)14-9(13-7)15-4/h6H,5H2,1-4H3,(H2,10,11,12,13,14)
Instrument: TripleTOF 5600 SCIEX
Instrument type: LC-ESI-QTOF
Ms type: MS2
Ion mode: POSITIVE
Collision energy: 40
Fragmentation mode: CID
Ionization: ESI
Column name: Zorbax Eclipse Plus C18 2.1 mm x 150 mm, 3.5 um, Agilent
Retention time: 8.651 min
Precursor m/z: 228.1277
Precursor type: [M+H]+
m/z	relative intensity
43.0384	217
68.0295	999
71.0644	486
74.0096	375
85.0527	126
85.075	19
91.0343	532
96.0574	839
102.0375	36
110.0462	98
110.0694	12
113.0823	96
116.0281	604
138.0775	308
138.1017	34
144.0588	267
158.0495	275
180.1237	19
186.0806	890
228.1278	407
