Mass spectrum: Candesartan; LC-ESI-QTOF; MS2; 60 V
Name: Candesartan
Class: Pharmaceutical
Formula: C24H20N6O3
Exact mass: 440.1597
SMILES: CCOc1nc2cccc(C(O)=O)c2n1Cc3ccc(cc3)c4ccccc4c5n[nH]nn5
InChI: InChI=1S/C24H20N6O3/c1-2-33-24-25-20-9-5-8-19(23(31)32)21(20)30(24)14-15-10-12-16(13-11-15)17-6-3-4-7-18(17)22-26-28-29-27-22/h3-13H,2,14H2,1H3,(H,31,32)(H,26,27,28,29)
Instrument: TripleTOF 5600 SCIEX
Instrument type: LC-ESI-QTOF
Ms type: MS2
Ion mode: POSITIVE
Collision energy: 60
Fragmentation mode: CID
Ionization: ESI
Column name: Zorbax Eclipse Plus C18 2.1 mm x 150 mm, 3.5 um, Agilent
Retention time: 10.001 min
Precursor m/z: 441.167
Precursor type: [M+H]+
m/z	relative intensity
77.04	38
80.0507	16
91.0556	10
105.045	24
115.0538	24
116.0497	11
117.0445	19
127.0547	10
129.044	14
133.0386	34
140.0493	63
141.069	12
145.0398	23
147.0559	10
151.0542	74
152.0619	298
153.0697	341
154.0656	13
161.0342	252
163.0543	92
164.0612	59
165.0699	836
166.0718	76
167.0807	147
168.0685	18
173.0354	54
176.0606	30
177.0609	197
178.0772	710
179.0734	201
180.0806	788
181.075	18
189.0646	113
190.0654	999
191.0729	435
192.0777	931
193.0879	286
194.096	209
203.0721	25
204.0804	10
205.076	468
206.0842	516
207.0915	567
208.1111	44
216.0796	15
217.0886	52
218.0952	51
219.0912	159
220.1006	44
232.099	21
233.1059	70
234.115	103
235.1212	30
254.0992	18
266.0956	13
267.0995	24
279.0928	26
280.1019	16
281.1067	37
282.0919	59
292.1002	13
293.094	46
294.079	45
294.1027	24
295.0846	18
295.1076	22
296.1189	26
297.1022	38
304.0878	10
306.102	23
307.0857	33
307.1116	18
308.1135	152
309.1015	147
310.1102	50
320.0855	11
320.1034	14
321.0924	60
322.098	69
323.1038	15
324.1126	61
333.0908	19
334.0975	38
335.086	13
335.1079	11
336.0888	16
337.0999	74
348.1014	65
349.0896	117
