Mass spectrum: Tryptamine; LC-ESI-QTOF; MS2; 80 V
Name: Tryptamine
Class: Metabolite
Formula: C10H12N2
Exact mass: 160.1
SMILES: C1=CC=C2C(=C1)C(=CN2)CCN
InChI: InChI=1S/C10H12N2/c11-6-5-8-7-12-10-4-2-1-3-9(8)10/h1-4,7,12H,5-6,11H2
Instrument: TripleTOF 5600 SCIEX
Instrument type: LC-ESI-QTOF
Ms type: MS2
Ion mode: POSITIVE
Collision energy: 80
Fragmentation mode: CID
Ionization: ESI
Column name: Zorbax Eclipse Plus C18 2.1 mm x 150 mm, 3.5 um, Agilent
Retention time: 4.966 min
Precursor m/z: 161.1073
Precursor type: [M+H]+
m/z	relative intensity
39.0232	104
50.0153	118
51.0233	188
61.0078	69
62.0154	125
63.023	419
64.0314	48
65.0385	293
74.0148	118
75.0235	160
76.0317	34
77.0387	146
89.0389	999
90.0465	104
91.0554	97
102.0462	27
114.0479	27
115.0541	356
116.0541	34
117.0559	48
140.0457	27
141.056	48
