Mass spectrum: 1-Cyclohexyl-3-ethylurea; LC-ESI-QTOF; MS2; 60 V
Name: 1-Cyclohexyl-3-ethylurea
Formula: C9H18N2O
Exact mass: 170.1419
SMILES: CCNC(=O)NC1CCCCC1
InChI: InChI=1S/C9H18N2O/c1-2-10-9(12)11-8-6-4-3-5-7-8/h8H,2-7H2,1H3,(H2,10,11,12)
Instrument: TripleTOF 6600 SCIEX
Instrument type: LC-ESI-QTOF
Ms type: MS2
Ion mode: POSITIVE
Collision energy: 60
Fragmentation mode: CID
Ionization: ESI
Column name: Zorbax Eclipse Plus C18 2.1 mm x 150 mm, 3.5 um, Agilent
Retention time: 7.696 min
Precursor m/z: 171.1492
Precursor type: [M+H]+
m/z	relative intensity
37.0067	61
38.0032	33
38.0142	66
39.0225	722
41.0381	366
44.0125	285
46.0644	28
53.0126	12
53.0375	70
55.0536	999
