Mass spectrum: Cocamidopropyl betaine; LC-ESI-QTOF; MS2; 40 V
Name: Cocamidopropyl betaine
Formula: C19H38N2O3
Exact mass: 342.2882
SMILES: CCCCCCCCCCCC(=O)NCCC[N+](C)(C)CC(=O)[O-]
InChI: InChI=1S/C19H38N2O3/c1-4-5-6-7-8-9-10-11-12-14-18(22)20-15-13-16-21(2,3)17-19(23)24/h4-17H2,1-3H3,(H-,20,22,23,24)
Instrument: TripleTOF 6600 SCIEX
Instrument type: LC-ESI-QTOF
Ms type: MS2
Ion mode: POSITIVE
Collision energy: 40
Fragmentation mode: CID
Ionization: ESI
Column name: Zorbax Eclipse Plus C18 2.1 mm x 150 mm, 3.5 um, Agilent
Retention time: 10.623 min
Precursor m/z: 343.2955
Precursor type: [M+H]+
m/z	relative intensity
43.0545	20
57.0704	67
58.0657	14
67.0537	13
71.0853	47
81.0692	15
83.0854	12
85.1006	35
95.0853	51
109.0999	31
183.173	61
240.232	999
