Mass spectrum: 4-chloro-2-hydroxy-4-methoxybenzophenone; LC-ESI-QTOF; MS2; 70 V
Name: 4-chloro-2-hydroxy-4-methoxybenzophenone
Formula: C14H11ClO3
Exact mass: 262.0397
SMILES: COC1=CC(=C(C=C1)C(=O)C2=CC=C(C=C2)Cl)O
InChI: InChI=1S/C14H11ClO3/c1-18-11-6-7-12(13(16)8-11)14(17)9-2-4-10(15)5-3-9/h2-8,16H,1H3
Instrument: TripleTOF 5600 SCIEX
Instrument type: LC-ESI-QTOF
Ms type: MS2
Ion mode: POSITIVE
Collision energy: 70
Fragmentation mode: CID
Ionization: ESI
Column name: Zorbax Eclipse Plus C18 2.1 mm x 150 mm, 3.5 um, Agilent
Retention time: 14.544 min
Precursor m/z: 263.0469
Precursor type: [M+H]+
m/z	relative intensity
65.0457	100
67.0608	20
69.0039	23
73.0114	9
74.0206	114
75.0291	637
76.035	10
77.046	12
79.0242	10
80.0304	105
84.9879	54
95.0528	155
108.0236	156
111.0024	999
123.0456	10
139.0041	111
139.0553	110
151.0391	51
152.065	17
