Mass spectrum: Isopyrazam; LC-ESI-QTOF; MS2; 140 V
Name: Isopyrazam
Class: Fungicide
Formula: C20H23F2N3O
Exact mass: 359.1809
SMILES: CC(C)C1C2CCC1C3=C2C=CC=C3NC(=O)C4=CN(N=C4C(F)F)C
InChI: InChI=1S/C20H23F2N3O/c1-10(2)16-12-7-8-13(16)17-11(12)5-4-6-15(17)23-20(26)14-9-25(3)24-18(14)19(21)22/h4-6,9-10,12-13,16,19H,7-8H2,1-3H3,(H,23,26)
Instrument: TripleTOF 6600 SCIEX
Instrument type: LC-ESI-QTOF
Ms type: MS2
Ion mode: POSITIVE
Collision energy: 140
Fragmentation mode: CID
Ionization: ESI
Column name: Zorbax Eclipse Plus C18 2.1 mm x 150 mm, 3.5 um, Agilent
Retention time: 14.619 min
Precursor m/z: 360.1882
Precursor type: [M+H]+
m/z	relative intensity
30.9981	19
35.9995	29
37.0068	154
38.0029	24
38.0149	179
39.023	574
41.0387	139
42.0343	184
43.0291	54
49.0066	29
50.0146	244
51.0038	79
51.0223	359
52.0199	54
52.03	24
53.0014	59
53.0394	24
57.0126	124
59.9983	49
61.006	174
62.0147	234
63.023	489
64.0189	29
65.0381	209
67.0524	24
68.004	39
69.0146	44
70.0083	19
73.0061	79
74.0142	449
75.0104	34
75.0224	599
76.0184	54
76.0298	189
77.0378	819
77.9985	24
78.0462	129
79.0541	19
80.0113	24
81.0107	49
83.0304	19
85.0065	59
86.0144	204
87.0227	174
88.0155	79
88.03	149
89.0388	584
90.0329	29
90.043	34
91.0537	89
94.0201	29
95.0274	24
97.0058	24
98.0137	214
99.0215	379
100.0183	104
100.0286	69
101.0375	179
102.0453	379
103.0512	39
105.0134	29
106.0205	24
107.029	59
109.0068	24
109.0401	34
110.0141	69
111.0093	29
111.0203	64
112.0184	59
112.0314	19
113.0373	444
114.0326	134
114.0437	94
115.0531	999
116.0484	59
117.0553	29
120.0368	34
122.0141	59
123.02	84
124.0187	39
124.0286	44
125.0376	289
126.0443	489
127.0525	464
128.061	344
129.0465	84
130.0631	24
131.0295	34
132.0222	24
133.0458	39
136.0191	24
137.0383	179
138.0391	154
139.0546	614
140.0477	384
141.0551	39
141.0666	59
142.0632	24
144.0333	34
145.0479	19
147.0338	19
149.037	114
150.0461	559
151.0532	459
152.0584	494
153.0427	24
153.0573	104
154.0383	44
154.0639	84
155.0251	39
155.0577	54
156.0241	34
157.0444	29
158.0372	24
161.0348	24
162.043	159
163.0532	379
164.0484	449
165.0516	99
165.0662	154
166.0642	154
167.0728	34
174.0406	79
175.0498	124
176.0553	229
177.0542	194
178.0624	154
179.0606	104
180.0611	44
181.037	19
187.0518	84
188.0525	154
189.0551	74
189.0687	54
190.0638	189
191.0699	139
192.0692	89
200.0576	29
201.057	59
202.0648	99
203.0723	54
204.0519	24
204.071	34
205.0736	29
214.0655	49
215.0663	54
216.0702	104
217.0678	24
218.0746	19
