Mass spectrum: Medroxyprogesterone; LC-ESI-QTOF; MS2; 40 V
Name: Medroxyprogesterone
Class: Pharmaceutical
Formula: C22H32O3
Exact mass: 344.2351
SMILES: CC1CC2C(CCC3(C2CCC3(C(=O)C)O)C)C4(C1=CC(=O)CC4)C
InChI: InChI=1S/C22H32O3/c1-13-11-16-17(20(3)8-5-15(24)12-19(13)20)6-9-21(4)18(16)7-10-22(21,25)14(2)23/h12-13,16-18,25H,5-11H2,1-4H3
Instrument: TripleTOF 6600 SCIEX
Instrument type: LC-ESI-QTOF
Ms type: MS2
Ion mode: POSITIVE
Collision energy: 40
Fragmentation mode: CID
Ionization: ESI
Column name: Zorbax Eclipse Plus C18 2.1 mm x 150 mm, 3.5 um, Agilent
Retention time: 12.524 min
Precursor m/z: 345.2424
Precursor type: [M+H]+
m/z	relative intensity
43.0181	24
67.0543	31
77.0386	15
79.054	21
81.0699	14
83.0491	23
91.0541	18
93.0701	33
95.0491	9
95.0857	44
97.0652	386
105.0699	39
107.0855	24
109.0645	13
109.1019	11
119.0859	36
121.1011	16
123.0812	999
131.0853	18
133.1013	27
137.0964	64
143.0852	16
145.1011	36
147.1169	19
157.1009	20
159.1174	25
161.1324	21
163.1117	13
169.1007	13
171.1168	24
173.1331	36
175.1116	10
175.1483	20
177.1275	17
183.1165	10
185.1329	17
187.1484	17
189.128	15
191.1425	12
197.1322	20
199.1484	18
203.1426	12
211.1491	14
214.1354	22
215.1435	20
225.1643	12
227.1804	15
239.1442	12
251.1799	15
257.154	23
267.2112	35
269.1918	10
275.1661	19
284.2139	10
285.2221	23
309.2233	23
327.2326	31
345.2436	102
