Mass spectrum: Omeprazole sulfide 5-carboxylic acid; LC-ESI-QTOF; MS2; 40 V
Name: Omeprazole sulfide 5-carboxylic acid
Class: Metabolite; Pharmaceutical
Formula: C17H17N3O4S
Exact mass: 359.094
SMILES: CC1=C(C(=CN=C1CSC2=NC3=C(N2)C=C(C=C3)OC)C(=O)O)OC
InChI: InChI=1S/C17H17N3O4S/c1-9-14(18-7-11(16(21)22)15(9)24-3)8-25-17-19-12-5-4-10(23-2)6-13(12)20-17/h4-7H,8H2,1-3H3,(H,19,20)(H,21,22)
Instrument: TripleTOF 5600 SCIEX
Instrument type: LC-ESI-QTOF
Ms type: MS2
Ion mode: POSITIVE
Collision energy: 40
Fragmentation mode: CID
Ionization: ESI
Column name: Zorbax Eclipse Plus C18 2.1 mm x 150 mm, 3.5 um, Agilent
Retention time: 5.75 min
Precursor m/z: 360.1013
Precursor type: [M+H]+
m/z	relative intensity
106.0641	46
107.0754	218
120.0462	12
122.0614	110
124.0232	15
134.049	189
135.0689	276
136.0229	28
136.0773	15
137.0841	11
148.0398	35
149.0716	999
150.0554	234
151.063	14
152.0163	42
152.0719	15
161.0721	28
162.0555	16
162.0796	30
163.0632	65
165.0123	80
166.0493	12
168.0468	19
180.0212	468
180.0644	49
181.0734	98
182.0266	11
212.0372	960
237.0903	49
238.0973	75
252.1114	14
253.1203	196
265.0831	56
266.0908	20
268.1057	57
281.1141	42
282.1254	11
284.1016	25
294.09	18
298.1159	14
308.1001	15
309.1067	14
312.0971	133
326.1121	58
327.1212	274
328.0779	22
360.0984	50
