Mass spectrum: Azoxystrobin; LC-ESI-QTOF; MS2; 110 V
Name: Azoxystrobin
Class: Fungicide
Formula: C22H17N3O5
Exact mass: 403.1168
SMILES: COC=C(C1=CC=CC=C1OC2=NC=NC(=C2)OC3=CC=CC=C3C#N)C(=O)OC
InChI: InChI=1S/C22H17N3O5/c1-27-13-17(22(26)28-2)16-8-4-6-10-19(16)30-21-11-20(24-14-25-21)29-18-9-5-3-7-15(18)12-23/h3-11,13-14H,1-2H3
Instrument: TripleTOF 6600 SCIEX
Instrument type: LC-ESI-QTOF
Ms type: MS2
Ion mode: POSITIVE
Collision energy: 110
Fragmentation mode: CID
Ionization: ESI
Column name: Zorbax Eclipse Plus C18 2.1 mm x 150 mm, 3.5 um, Agilent
Retention time: 12.114 min
Precursor m/z: 404.1241
Precursor type: [M+H]+
m/z	relative intensity
39.0216	22
49.0061	22
50.014	108
51.022	378
52.0169	50
52.0296	11
53.001	44
61.0055	13
62.0134	37
63.0217	145
64.0172	11
64.0302	15
65.0373	118
68.9961	50
74.0139	81
75.0218	361
76.0169	71
76.0291	110
77.0376	999
78.0327	15
78.0448	50
87.0217	11
88.0178	30
88.029	33
89.0373	841
90.0325	35
90.045	28
91.0398	62
91.0526	20
92.024	11
92.0484	11
93.0319	16
99.0207	13
100.0291	28
101.0375	171
102.0328	408
103.0407	69
103.0519	15
104.0239	50
104.0479	206
105.0321	49
105.0429	16
113.0373	13
114.0325	120
115.0401	44
115.0513	16
116.048	256
117.0563	16
118.0321	13
119.0347	22
120.0431	47
126.0312	15
127.0403	98
128.048	79
129.0428	100
130.0378	274
132.0428	15
134.0583	10
140.0483	32
144.0431	405
145.0262	15
151.0523	16
153.043	13
154.0507	10
156.0429	110
163.0519	28
164.0489	18
171.0545	13
172.0378	254
175.0546	11
176.0497	16
176.0605	10
177.0545	15
181.0377	15
188.0494	16
189.0554	20
190.0646	62
202.0626	11
203.0696	10
215.0605	16
216.0671	22
217.0774	10
229.0744	18
