Mass spectrum: Torasemide; LC-ESI-QTOF; MS2; 30 V
Name: Torasemide
Class: Pharmaceutical
Formula: C16H20N4O3S
Exact mass: 348.1256
SMILES: CC(C)NC(=O)N[S](=O)(=O)c1cnccc1Nc2cccc(C)c2
InChI: InChI=1S/C16H20N4O3S/c1-11(2)18-16(21)20-24(22,23)15-10-17-8-7-14(15)19-13-6-4-5-12(3)9-13/h4-11H,1-3H3,(H,17,19)(H2,18,20,21)
Instrument: TripleTOF 5600 SCIEX
Instrument type: LC-ESI-QTOF
Ms type: MS2
Ion mode: POSITIVE
Collision energy: 30
Fragmentation mode: CID
Ionization: ESI
Column name: Zorbax Eclipse Plus C18 2.1 mm x 150 mm, 3.5 um, Agilent
Retention time: 7.633 min
Precursor m/z: 349.1329
Precursor type: [M+H]+
m/z	relative intensity
125.0162	36
168.0673	32
182.0824	11
183.0913	144
191.0625	11
198.0775	20
199.0855	25
201.0466	20
219.058	76
230.0498	49
247.0525	75
264.079	999
290.0584	469
