Mass spectrum: Reserpine; LC-ESI-QTOF; MS2; 70 V
Name: Reserpine
Class: Natural_product; Pharmaceutical
Formula: C33H40N2O9
Exact mass: 608.2734
SMILES: COC1C(CC2CN3CCC4=C(C3CC2C1C(=O)OC)NC5=C4C=CC(=C5)OC)OC(=O)C6=CC(=C(C(=C6)OC)OC)OC
InChI: InChI=1S/C33H40N2O9/c1-38-19-7-8-20-21-9-10-35-16-18-13-27(44-32(36)17-11-25(39-2)30(41-4)26(12-17)40-3)31(42-5)28(33(37)43-6)22(18)15-24(35)29(21)34-23(20)14-19/h7-8,11-12,14,18,22,24,27-28,31,34H,9-10,13,15-16H2,1-6H3
Instrument: TripleTOF 5600 SCIEX
Instrument type: LC-ESI-QTOF
Ms type: MS2
Ion mode: POSITIVE
Collision energy: 70
Fragmentation mode: CID
Ionization: ESI
Column name: Zorbax Eclipse Plus C18 2.1 mm x 150 mm, 3.5 um, Agilent
Retention time: 8.6 min
Precursor m/z: 609.2807
Precursor type: [M+H]+
m/z	relative intensity
77.0433	11
79.0599	16
91.0582	21
94.0679	11
96.0597	15
108.059	10
109.0676	24
111.0469	14
115.0563	21
117.0708	15
118.0675	14
120.0832	13
121.068	10
122.0374	26
124.0541	38
130.0664	45
131.0744	95
132.0819	28
137.0247	12
139.0767	80
142.0662	23
143.0735	84
144.0811	40
145.0904	11
146.0607	14
147.0797	38
148.0764	31
151.0393	14
152.0475	120
158.0603	17
159.0685	211
160.0765	75
161.0839	32
162.0923	17
167.0712	129
172.0759	17
173.0846	31
174.0916	963
176.1075	10
184.0745	13
185.0844	16
186.0899	39
187.0984	12
188.1074	36
192.1026	51
195.0649	999
197.0837	14
198.0897	27
199.0921	31
200.1058	48
201.1037	14
204.1001	35
210.0922	20
211.0965	10
212.1054	22
213.0963	12
214.1107	18
215.1164	20
222.0912	19
223.1002	16
224.1087	37
226.1214	10
227.1182	26
234.0893	12
235.0979	12
236.1264	69
237.1134	25
238.1202	31
239.1195	20
247.0972	12
248.1043	27
249.1111	25
250.1181	28
251.1179	50
252.1327	12
253.1315	22
260.106	20
261.114	23
262.1227	40
263.1237	13
264.1305	17
265.1309	38
266.1377	10
273.1117	16
274.1214	25
275.1263	10
276.1358	40
277.1341	18
288.1368	24
290.118	12
291.1446	12
304.1315	22
333.1558	18
336.1566	20
348.1561	13
350.1607	21
365.1852	77
382.1853	10
397.2108	23
448.1969	10
