Mass spectrum: 3-Desmethyl-trimethoprim; LC-ESI-QTOF; MS2; 90 V
Name: 3-Desmethyl-trimethoprim
Class: Pharmaceutical; Transformation_product; Transformation_product-Metabolite
Formula: C13H16N4O3
Exact mass: 276.1222
SMILES: OC1=CC(CC2=CN=C(N=C2N)N)=CC(OC)=C1OC
InChI: InChI=1S/C13H16N4O3/c1-19-10-5-7(4-9(18)11(10)20-2)3-8-6-16-13(15)17-12(8)14/h4-6,18H,3H2,1-2H3,(H4,14,15,16,17)
Instrument: TripleTOF 5600 SCIEX
Instrument type: LC-ESI-QTOF
Ms type: MS2
Ion mode: POSITIVE
Collision energy: 90
Fragmentation mode: CID
Ionization: ESI
Column name: Zorbax Eclipse Plus C18 2.1 mm x 150 mm, 3.5 um, Agilent
Retention time: 5.021 min
Precursor m/z: 277.1295
Precursor type: [M+H]+
m/z	relative intensity
41.0389	75
43.0415	196
52.0269	164
53.0108	32
53.0195	28
53.0329	28
54.0427	347
55.028	23
55.0501	28
65.0443	276
66.0399	18
66.0509	32
67.0344	18
67.047	65
67.0594	51
68.0295	32
68.0421	121
69.0533	42
70.0452	18
74.0196	32
75.0273	145
76.0277	98
77.0433	999
78.0381	267
79.0331	145
79.0444	103
80.0191	23
80.039	18
80.0527	107
81.049	792
82.0416	28
82.0542	23
83.0535	98
87.0253	32
88.0201	18
88.0314	28
89.0416	318
90.0381	145
91.0448	56
91.0568	178
92.0512	215
93.0531	140
94.0584	314
96.0569	65
101.0405	196
102.0356	314
103.0315	79
103.0431	46
103.0551	75
104.0502	459
105.0445	328
106.0409	75
106.0529	178
107.0509	56
107.0627	37
109.0518	93
110.0593	75
114.0349	131
115.0408	65
116.0505	281
117.0508	253
118.0498	93
118.0641	89
119.0612	154
120.0552	267
121.0293	51
121.0661	42
121.0764	23
122.0676	37
123.0443	51
123.0681	150
124.0742	37
126.0344	70
127.0407	32
128.0502	234
129.0446	234
130.0408	154
131.06	173
132.0524	121
133.0666	60
134.0475	37
135.0646	42
141.0456	51
142.0365	23
142.0523	93
143.0602	98
144.0555	154
145.0785	56
146.0688	103
147.0661	464
148.0731	187
149.0227	42
149.0814	65
153.0459	56
154.037	32
156.0499	42
156.0623	18
157.0436	37
157.0631	23
158.0469	18
158.069	23
159.0604	84
160.072	18
161.082	70
170.0697	75
171.0629	37
172.0768	46
173.0836	32
174.0689	18
185.0825	28
187.0958	42
189.0764	18
197.0924	28
201.0748	23
229.0745	28
