Mass spectrum: 4-(4-Chloro-2-methylphenoxy)butanoic acid; LC-ESI-QTOF; MS2; 20 V
Name: 4-(4-Chloro-2-methylphenoxy)butanoic acid
Class: Herbicide
Formula: C11H13ClO3
Exact mass: 228.0553
SMILES: CC1=C(C=CC(=C1)Cl)OCCCC(=O)O
InChI: InChI=1S/C11H13ClO3/c1-8-7-9(12)4-5-10(8)15-6-2-3-11(13)14/h4-5,7H,2-3,6H2,1H3,(H,13,14)
Instrument: TripleTOF 6600 SCIEX
Instrument type: LC-ESI-QTOF
Ms type: MS2
Ion mode: POSITIVE
Collision energy: 20
Fragmentation mode: CID
Ionization: ESI
Column name: Zorbax Eclipse Plus C18 2.1 mm x 150 mm, 3.5 um, Agilent
Retention time: 11.775 min
Precursor m/z: 229.0626
Precursor type: [M+H]+
m/z	relative intensity
39.0227	18
41.0379	42
43.0175	95
45.034	67
69.033	536
71.0857	16
87.0432	999
113.0586	28
129.0682	37
139.0305	13
143.0265	24
147.0786	19
155.0252	577
157.064	42
158.0725	66
165.0459	87
167.0246	56
169.0005	11
169.0426	51
183.0557	77
193.041	383
211.0527	350
