Mass spectrum: Etrimfos; LC-ESI-QTOF; MS2; 80 V
Name: Etrimfos
Class: Insecticide
Formula: C10H17N2O4PS
Exact mass: 292.0647
SMILES: CCC1=NC(=CC(=N1)OP(=S)(OC)OC)OCC
InChI: InChI=1S/C10H17N2O4PS/c1-5-8-11-9(15-6-2)7-10(12-8)16-17(18,13-3)14-4/h7H,5-6H2,1-4H3
Instrument: TripleTOF 6600 SCIEX
Instrument type: LC-ESI-QTOF
Ms type: MS2
Ion mode: POSITIVE
Collision energy: 80
Fragmentation mode: CID
Ionization: ESI
Column name: Zorbax Eclipse Plus C18 2.1 mm x 150 mm, 3.5 um, Agilent
Retention time: 14.241 min
Precursor m/z: 293.072
Precursor type: [M+H]+
m/z	relative intensity
40.0176	34
42.0332	11
43.9707	14
44.979	751
45.9862	26
46.9722	141
46.9909	999
48.9828	14
56.049	124
62.0177	31
62.9436	15
62.998	71
64.9771	23
68.0123	226
68.996	11
70.0636	10
78.9934	494
93.0086	79
94.0033	16
109.0038	71
110.9648	127
124.9807	85
