Mass spectrum: Methiocarb; LC-ESI-QTOF; MS2; 80 V
Name: Methiocarb
Formula: C11H15NO2S
Exact mass: 225.0823
SMILES: Cc1cc(cc(c1SC)C)OC(=O)NC
InChI: InChI=1S/C11H15NO2S/c1-7-5-9(14-11(13)12-3)6-8(2)10(7)15-4/h5-6H,1-4H3,(H,12,13)
Instrument: TripleTOF 6600 SCIEX
Instrument type: LC-ESI-QTOF
Ms type: MS2
Ion mode: POSITIVE
Collision energy: 80
Fragmentation mode: CID
Ionization: ESI
Column name: Zorbax Eclipse Plus C18 2.1 mm x 150 mm, 3.5 um, Agilent
Retention time: 11.34614 min
Precursor m/z: 226.0896
Precursor type: [M+H]+
m/z	relative intensity
37.0049	11
38.0132	13
39.0208	93
41.0368	22
44.977	33
50.0131	72
51.0209	382
52.0283	13
53.0359	35
55.0156	16
58.0269	14
63.0203	23
65.0359	140
67.0514	15
77.0361	999
78.0436	79
79.052	119
81.0311	20
89.0361	11
91.0517	247
103.0515	42
105.0408	27
107.046	205
111.0232	10
121.0095	10
121.0619	63
134.0173	11
135.0236	13
