Mass spectrum: Phenothiazine; LC-ESI-QTOF; MS2; 130 V
Name: Phenothiazine
Class: Pharmaceutical
Formula: C12H9NS
Exact mass: 199.0456
SMILES: C1=CC=C2C(=C1)NC3=CC=CC=C3S2
InChI: InChI=1S/C12H9NS/c1-3-7-11-9(5-1)13-10-6-2-4-8-12(10)14-11/h1-8,13H
Instrument: TripleTOF 6600 SCIEX
Instrument type: LC-ESI-QTOF
Ms type: MS2
Ion mode: POSITIVE
Collision energy: 130
Fragmentation mode: CID
Ionization: ESI
Column name: Zorbax Eclipse Plus C18 2.1 mm x 150 mm, 3.5 um, Agilent
Retention time: 13.113 min
Precursor m/z: 200.0529
Precursor type: [M+H]+
m/z	relative intensity
35.9989	34
37.0062	167
38.0143	132
39.0221	259
43.9704	40
44.9781	144
49.0064	236
50.0141	999
51.0217	640
52.0171	34
52.0292	23
57.9855	28
59.9982	75
61.006	594
62.0138	779
63.0216	716
64.0166	34
64.0254	28
65.0371	34
67.9698	98
68.9782	785
73.0056	92
74.0137	600
75.0097	23
75.0209	219
76.0288	28
77.0364	69
80.9779	23
81.9848	23
83.998	46
85.0054	265
86.0134	409
87.0212	179
88.0203	69
89.0375	103
90.0423	34
91.9694	46
92.9775	57
97.0055	40
98.0129	173
99.0085	28
99.021	34
109.0047	69
110.0134	40
113.0365	57
114.0318	28
137.0359	28
