Mass spectrum: Prochloraz; LC-ESI-QTOF; MS2; 110 V
Name: Prochloraz
Class: Fungicide
Formula: C15H16Cl3N3O2
Exact mass: 375.0308
SMILES: CCCN(CCOc1c(cc(cc1Cl)Cl)Cl)C(=O)n2ccnc2
InChI: InChI=1S/C15H16Cl3N3O2/c1-2-4-20(15(22)21-5-3-19-10-21)6-7-23-14-12(17)8-11(16)9-13(14)18/h3,5,8-10H,2,4,6-7H2,1H3
Instrument: TripleTOF 6600 SCIEX
Instrument type: LC-ESI-QTOF
Ms type: MS2
Ion mode: POSITIVE
Collision energy: 110
Fragmentation mode: CID
Ionization: ESI
Column name: Zorbax Eclipse Plus C18 2.1 mm x 150 mm, 3.5 um, Agilent
Retention time: 11.258 min
Precursor m/z: 376.0381
Precursor type: [M+H]+
m/z	relative intensity
38.0022	73
38.0152	102
39.0231	455
41.0388	587
42.0339	499
43.0542	176
44.0504	73
56.0495	205
62.0149	117
63.0227	235
70.0287	176
70.0651	235
71.9767	102
72.9838	617
73.0066	102
74.0156	176
75.0226	73
82.9447	999
89.039	396
90.0462	73
95.9759	73
96.9834	337
97.9917	88
98.9996	176
106.9439	808
107.976	954
108.9846	426
122.9985	132
125.0156	205
130.9444	73
132.9594	190
142.9448	161
144.9602	88
158.9755	88
161.9617	161
166.9217	426
