Mass spectrum: Iobitridol; LC-ESI-QTOF; MS2; 90 V
Name: Iobitridol
Class: Pharmaceutical
Formula: C20H28I3N3O9
Exact mass: 834.896
SMILES: CN(CC(O)CO)C(=O)c1c(I)c(NC(=O)C(CO)CO)c(I)c(c1I)C(=O)N(C)CC(O)CO
InChI: InChI=1S/C20H28I3N3O9/c1-25(3-10(31)7-29)19(34)12-14(21)13(20(35)26(2)4-11(32)8-30)16(23)17(15(12)22)24-18(33)9(5-27)6-28/h9-11,27-32H,3-8H2,1-2H3,(H,24,33)
Instrument: TripleTOF 6600 SCIEX
Instrument type: LC-ESI-QTOF
Ms type: MS2
Ion mode: POSITIVE
Collision energy: 90
Fragmentation mode: CID
Ionization: ESI
Column name: Zorbax Eclipse Plus C18 2.1 mm x 150 mm, 3.5 um, Agilent
Retention time: 4.58 min
Precursor m/z: 835.9033
Precursor type: [M+H]+
m/z	relative intensity
170.024	499
187.0238	249
218.0442	299
285.9429	499
296.927	699
297.9232	399
313.9261	499
317.9622	399
325.9305	299
339.9022	399
343.9205	299
343.9399	599
355.8081	299
369.9263	299
383.7968	449
395.8288	249
400.9922	649
401.0071	249
413.8282	449
423.8306	749
431.0105	449
439.7886	999
439.817	399
497.8274	249
554.8887	499
554.903	449
