Mass spectrum: O-tolidine; LC-ESI-QTOF; MS2; 40 V
Name: O-tolidine
Formula: C14H16N2
Exact mass: 212.1313
SMILES: CC1=C(C=CC(=C1)C2=CC(=C(C=C2)N)C)N
InChI: InChI=1S/C14H16N2/c1-9-7-11(3-5-13(9)15)12-4-6-14(16)10(2)8-12/h3-8H,15-16H2,1-2H3
Instrument: TripleTOF 6600 SCIEX
Instrument type: LC-ESI-QTOF
Ms type: MS2
Ion mode: POSITIVE
Collision energy: 40
Fragmentation mode: CID
Ionization: ESI
Column name: Zorbax Eclipse Plus C18 2.1 mm x 150 mm, 3.5 um, Agilent
Retention time: 5.073 min
Precursor m/z: 213.1386
Precursor type: [M+H]+
m/z	relative intensity
106.0662	21
107.0745	15
152.0636	13
153.072	22
164.0652	15
165.0724	70
169.0866	11
170.098	10
178.0763	89
179.0865	21
180.0818	999
181.0887	554
182.0955	37
183.0923	27
194.0988	25
195.1034	23
196.1147	175
197.1076	271
198.1169	326
212.1306	90
213.1358	27
