Mass spectrum: Kresoxim-methyl; LC-ESI-QTOF; MS2; 70 V
Name: Kresoxim-methyl
Class: Fungicide
Formula: C18H19NO4
Exact mass: 313.1314
SMILES: CC1=CC=CC=C1OCC2=CC=CC=C2C(=NOC)C(=O)OC
InChI: InChI=1S/C18H19NO4/c1-13-8-4-7-11-16(13)23-12-14-9-5-6-10-15(14)17(19-22-3)18(20)21-2/h4-11H,12H2,1-3H3
Instrument: TripleTOF 6600 SCIEX
Instrument type: LC-ESI-QTOF
Ms type: MS2
Ion mode: POSITIVE
Collision energy: 70
Fragmentation mode: CID
Ionization: ESI
Column name: Zorbax Eclipse Plus C18 2.1 mm x 150 mm, 3.5 um, Agilent
Retention time: 13.809 min
Precursor m/z: 314.1387
Precursor type: [M+H]+
m/z	relative intensity
39.0228	22
51.0218	24
62.0136	11
63.0225	74
65.0376	102
77.0376	276
78.0449	15
79.0528	27
89.0376	531
90.0458	158
91.053	265
101.039	11
102.0313	18
102.0418	11
103.0529	59
104.0486	18
105.0341	11
107.0498	15
113.037	18
114.0304	13
115.0409	20
115.0542	70
116.0481	304
117.0562	95
118.0388	15
118.0647	97
119.0481	13
121.0635	15
125.0367	13
126.0448	20
127.052	61
128.06	63
129.0633	13
130.0334	13
130.0646	179
131.0737	49
132.0428	38
139.0541	81
140.0495	72
141.0695	29
150.044	63
151.0529	456
152.0606	606
153.0675	152
154.0637	36
155.0653	13
163.0533	49
164.0602	86
165.069	703
166.0629	54
166.0746	43
167.0722	140
168.0779	15
169.0615	11
175.0505	36
176.0611	338
177.0626	270
178.0746	999
179.081	177
180.0562	27
180.0796	329
181.0631	74
188.0501	34
189.0676	104
190.0613	145
191.072	102
192.0529	15
192.0791	145
193.0637	13
193.0881	161
194.0728	27
194.0949	147
195.0777	47
201.0577	18
202.0638	59
203.0708	149
204.0827	63
205.0842	11
206.0603	340
207.0745	59
208.0829	15
219.0654	15
220.074	29
221.0819	15
222.0948	18
235.0756	15
