Mass spectrum: Betamethasone; LC-ESI-QTOF; MS2; 130 V
Name: Betamethasone
Class: Pharmaceutical
Formula: C22H29FO5
Exact mass: 392.1999
SMILES: C[C@H]1C[C@H]2[C@@H]3CCC4=CC(=O)C=C[C@@]4([C@]3([C@H](C[C@@]2([C@]1(C(=O)CO)O)C)O)F)C
InChI: InChI=1S/C22H29FO5/c1-12-8-16-15-5-4-13-9-14(25)6-7-19(13,2)21(15,23)17(26)10-20(16,3)22(12,28)18(27)11-24/h6-7,9,12,15-17,24,26,28H,4-5,8,10-11H2,1-3H3/t12-,15-,16-,17-,19-,20-,21-,22-/m0/s1
Instrument: TripleTOF 5600 SCIEX
Instrument type: LC-ESI-QTOF
Ms type: MS2
Ion mode: POSITIVE
Collision energy: 130
Fragmentation mode: CID
Ionization: ESI
Column name: Zorbax Eclipse Plus C18 2.1 mm x 150 mm, 3.5 um, Agilent
Retention time: 9.016 min
Precursor m/z: 393.2072
Precursor type: [M+H]+
m/z	relative intensity
43.0311	46
51.0326	154
55.028	19
65.0443	290
67.0603	23
75.0305	42
77.0438	999
78.05	158
79.0593	120
81.0735	19
89.0438	100
91.0574	704
93.0736	30
94.0416	15
101.0404	27
102.048	143
103.056	205
104.0636	42
105.0722	46
107.0497	46
109.0486	34
115.055	999
116.0636	50
117.0723	38
121.0656	108
126.0471	73
127.0549	294
128.0624	658
129.0708	81
131.051	162
132.059	34
133.0411	19
133.0479	34
139.0568	120
140.0656	15
141.0711	197
144.0565	34
145.0634	27
146.055	27
150.0495	46
151.0552	212
152.0631	561
153.0725	116
157.066	38
163.0556	100
164.0617	108
165.0704	619
166.0712	15
168.0566	42
175.0549	19
176.0618	197
177.0697	116
178.0784	363
179.0864	46
181.0675	69
187.056	38
188.0624	69
189.0707	530
190.0808	58
191.0868	65
194.0699	30
199.0502	15
200.0637	104
201.0737	92
202.0778	437
203.0899	27
205.0689	42
207.0805	30
213.0702	112
214.0762	19
215.0863	216
218.0799	30
219.0811	23
226.0754	139
227.0871	38
228.0906	42
229.1098	27
231.0783	42
239.0843	46
242.0762	23
