Mass spectrum: N-Benzyldimethylstearyl ammonium; LC-ESI-QTOF; MS2; 10 V
Name: N-Benzyldimethylstearyl ammonium
Class: Industrial_process; Biocide
Formula: [C27H50N]+
Exact mass: 388.3938
SMILES: CCCCCCCCCCCCCCCCCC[N+](C)(C)Cc1ccccc1
InChI: InChI=1S/C27H50N/c1-4-5-6-7-8-9-10-11-12-13-14-15-16-17-18-22-25-28(2,3)26-27-23-20-19-21-24-27/h19-21,23-24H,4-18,22,25-26H2,1-3H3/q+1
Instrument: TripleTOF 5600 SCIEX
Instrument type: LC-ESI-QTOF
Ms type: MS2
Ion mode: POSITIVE
Collision energy: 10
Fragmentation mode: CID
Ionization: ESI
Column name: Zorbax Eclipse Plus C18 2.1 mm x 150 mm, 3.5 um, Agilent
Retention time: 14.946 min
Precursor m/z: 388.3938
Precursor type: [M]+
m/z	relative intensity
388.3943	999
