Mass spectrum: Oleyltrimethylammonium; LC-ESI-QTOF; MS2; 80 V
Name: Oleyltrimethylammonium
Formula: [C21H44N]+
Exact mass: 310.3468
SMILES: CCCCCCCCC=CCCCCCCCC[N+](C)(C)C
InChI: InChI=1S/C21H44N/c1-5-6-7-8-9-10-11-12-13-14-15-16-17-18-19-20-21-22(2,3)4/h12-13H,5-11,14-21H2,1-4H3/q+1
Instrument: TripleTOF 6600 SCIEX
Instrument type: LC-ESI-QTOF
Ms type: MS2
Ion mode: POSITIVE
Collision energy: 80
Fragmentation mode: CID
Ionization: ESI
Column name: Zorbax Eclipse Plus C18 2.1 mm x 150 mm, 3.5 um, Agilent
Retention time: 13.666 min
Precursor m/z: 310.3468
Precursor type: [M]+
m/z	relative intensity
39.0239	462
41.0389	407
43.0549	92
44.0497	999
45.0577	425
53.0384	74
55.0539	777
58.0647	758
59.072	74
60.08	869
