Mass spectrum: 6-Bromo-2-benzothiazolinone; LC-ESI-QTOF; MS2; 150 V
Name: 6-Bromo-2-benzothiazolinone
Class: Industrial_process; Pharmaceutical
Formula: C7H4BrNOS
Exact mass: 228.9197
SMILES: C1=CC2=C(C=C1Br)SC(=O)N2
InChI: InChI=1S/C7H4BrNOS/c8-4-1-2-5-6(3-4)11-7(10)9-5/h1-3H,(H,9,10)
Instrument: TripleTOF 5600 SCIEX
Instrument type: LC-ESI-QTOF
Ms type: CID
Ion mode: NEGATIVE
Collision energy: 150
Ionization: ESI
Column name: Zorbax Eclipse Plus C18 2.1 mm x 150 mm, 3.5 um, Agilent
Retention time: 10.02 min
Precursor m/z: 227.9124
Precursor type: [M-H]-
m/z	relative intensity
78.9187	999
