Mass spectrum: Flunixin; LC-ESI-QTOF; MS2; 110 V
Name: Flunixin
Class: Pharmaceutical
Formula: C14H11F3N2O2
Exact mass: 296.0773
SMILES: CC1=C(C=CC=C1NC2=C(C=CC=N2)C(=O)O)C(F)(F)F
InChI: InChI=1S/C14H11F3N2O2/c1-8-10(14(15,16)17)5-2-6-11(8)19-12-9(13(20)21)4-3-7-18-12/h2-7H,1H3,(H,18,19)(H,20,21)
Instrument: TripleTOF 5600 SCIEX
Instrument type: LC-ESI-QTOF
Ms type: MS2
Ion mode: POSITIVE
Collision energy: 110
Fragmentation mode: CID
Ionization: ESI
Column name: Zorbax Eclipse Plus C18 2.1 mm x 150 mm, 3.5 um, Agilent
Retention time: 11.023 min
Precursor m/z: 297.0845
Precursor type: [M+H]+
m/z	relative intensity
51.0337	132
52.0279	19
57.0234	350
59.0385	65
65.0457	24
66.0425	16
69.0018	17
69.019	17
73.0148	20
74.0208	199
75.0071	21
75.029	236
76.023	47
76.035	20
77.0446	276
78.0395	142
79.0521	29
81.0182	96
83.0345	999
85.0104	26
86.0194	95
87.0274	177
88.0296	127
89.0428	281
90.0409	37
92.0096	29
92.0397	14
93.0173	188
93.046	13
94.025	26
95.032	50
97.0101	40
98.0182	918
99.0257	614
100.0212	81
101.0217	12
101.0417	117
102.0386	78
104.051	16
105.0152	40
106.0235	67
106.0674	19
107.0308	204
108.0311	12
108.038	31
109.0468	373
110.0175	20
111.0247	79
112.0162	74
112.0332	25
113.0158	11
113.0405	434
114.0351	210
115.0463	45
116.0537	17
117.0139	26
117.0573	13
118.0218	26
119.0295	49
120.0266	28
122.0158	47
123.0213	112
124.0195	74
125.0198	32
125.0409	118
126.0478	194
127.0557	383
128.0508	125
129.0499	35
131.0303	219
132.0366	152
133.041	71
134.0408	12
135.0196	13
135.0456	11
136.0357	17
137.0393	96
138.0337	197
139.0429	159
140.0504	428
141.0168	31
141.0527	32
142.0201	14
142.0558	14
143.0242	89
144.0282	35
145.0289	45
146.0169	18
146.0409	10
147.011	43
147.0326	20
148.0193	82
149.0209	21
150.0346	48
151.037	70
152.0499	138
153.0574	157
154.0662	101
155.0295	78
155.0606	48
156.0291	78
157.046	130
158.0414	290
159.0477	24
160.0437	13
161.0203	40
162.0309	129
163.0347	78
164.0501	125
165.047	72
166.0539	129
167.0389	11
167.0596	31
168.0263	73
169.0328	35
170.0245	25
170.04	25
171.0448	13
175.0349	34
176.0313	47
177.0407	11
178.0514	17
179.0616	281
180.0236	11
180.0675	51
181.0292	29
181.078	35
182.0397	171
183.0405	37
184.0497	24
185.0534	13
186.0293	32
186.0618	14
187.026	13
188.0314	35
189.042	53
190.05	28
191.0451	16
195.037	18
197.0522	33
200.0324	17
207.0366	25
208.0391	17
209.0524	22
210.0577	14
215.0421	22
217.0584	25
235.0468	10
