Mass spectrum: Opipramol; LC-ESI-QTOF; MS2; 90 V
Name: Opipramol
Class: Pharmaceutical
Formula: C23H29N3O
Exact mass: 363.2311
SMILES: OCCN1CCN(CCCN2c3ccccc3C=Cc4ccccc24)CC1
InChI: InChI=1S/C23H29N3O/c27-19-18-25-16-14-24(15-17-25)12-5-13-26-22-8-3-1-6-20(22)10-11-21-7-2-4-9-23(21)26/h1-4,6-11,27H,5,12-19H2
Instrument: TripleTOF 5600 SCIEX
Instrument type: LC-ESI-QTOF
Ms type: MS2
Ion mode: POSITIVE
Collision energy: 90
Fragmentation mode: CID
Ionization: ESI
Column name: Zorbax Eclipse Plus C18 2.1 mm x 150 mm, 3.5 um, Agilent
Retention time: 7.242 min
Precursor m/z: 364.2383
Precursor type: [M+H]+
m/z	relative intensity
42.0431	145
45.041	70
56.0542	111
58.0692	33
68.0532	24
69.0495	12
70.0686	402
72.049	26
72.0838	26
74.0201	9
75.0262	21
77.0405	89
82.0669	60
83.0628	135
84.083	14
86.0627	16
97.0762	278
98.0846	441
100.0762	341
101.0392	77
102.0343	12
103.0548	14
111.0916	16
112.1002	29
115.0533	12
127.0543	12
128.05	145
128.094	14
129.0416	14
139.0526	16
143.117	41
150.0462	16
151.0546	92
152.0616	123
163.0539	26
164.0627	31
165.0699	75
166.0646	21
167.0717	33
175.054	12
176.0624	174
177.0708	186
178.0776	999
179.0847	55
180.0798	31
189.0684	19
190.065	53
191.0733	104
192.0801	60
193.0885	31
202.0651	12
203.0721	72
204.0808	974
205.0878	72
206.0948	70
217.0885	31
