Mass spectrum: Azo Rubin S; LC-ESI-QTOF; MS2; 150 V
Name: Azo Rubin S
Formula: C20H14N2O7S2
Exact mass: 458.0242
SMILES: C1=CC=C2C(=C1)C(=CC=C2S(=O)(=O)O)N=NC3=C(C4=CC=CC=C4C(=C3)S(=O)(=O)O)O
InChI: InChI=1S/C20H14N2O7S2/c23-20-15-8-4-3-7-14(15)19(31(27,28)29)11-17(20)22-21-16-9-10-18(30(24,25)26)13-6-2-1-5-12(13)16/h1-11,23H,(H,24,25,26)(H,27,28,29)
Instrument: TripleTOF 6600 SCIEX
Instrument type: LC-ESI-QTOF
Ms type: MS2
Ion mode: POSITIVE
Collision energy: 150
Fragmentation mode: CID
Ionization: ESI
Column name: Zorbax Eclipse Plus C18 2.1 mm x 150 mm, 3.5 um, Agilent
Retention time: 7.286 min
Precursor m/z: 459.0315
Precursor type: [M+H]+
m/z	relative intensity
39.0229	33
50.015	21
51.0227	205
52.018	150
62.0151	31
63.0223	155
64.9689	39
65.0382	52
74.0147	36
75.0226	39
76.0301	26
77.0381	999
80.0129	18
87.0211	25
88.0301	31
89.0381	422
90.0327	16
91.0553	12
99.0224	12
100.0181	25
101.0377	15
102.0457	86
103.0534	277
104.0484	34
105.0427	19
113.038	99
114.0329	13
114.0455	45
115.0537	471
116.0497	71
130.064	79
140.0483	79
223.05	10
224.0633	22
225.0579	11
238.065	25
249.0563	20
251.0709	14
277.0777	10
