Mass spectrum: 2-(Thiocyanomethylthio)benzothiazole; LC-ESI-QTOF; MS2; 70 V
Name: 2-(Thiocyanomethylthio)benzothiazole
Class: Antimicrobial; Fungicide
Formula: C9H6N2S3
Exact mass: 237.9693
SMILES: C1=CC=C2C(=C1)N=C(S2)SCSC#N
InChI: InChI=1S/C9H6N2S3/c10-5-12-6-13-9-11-7-3-1-2-4-8(7)14-9/h1-4H,6H2
Instrument: TripleTOF 6600 SCIEX
Instrument type: LC-ESI-QTOF
Ms type: MS2
Ion mode: POSITIVE
Collision energy: 70
Fragmentation mode: CID
Ionization: ESI
Column name: Zorbax Eclipse Plus C18 2.1 mm x 150 mm, 3.5 um, Agilent
Retention time: 12.417 min
Precursor m/z: 238.9766
Precursor type: [M+H]+
m/z	relative intensity
39.0234	56
43.9716	27
44.9796	531
45.975	16
49.007	13
50.0153	61
51.0233	244
57.9868	12
62.0157	10
63.0232	97
63.9431	23
64.0304	33
65.039	742
68.9796	184
69.9868	26
71.9902	41
75.0228	18
76.0312	32
77.0389	587
78.0466	51
81.9874	27
82.9949	15
89.0386	154
90.0338	36
91.0418	45
94.9947	30
96.0028	118
102.0332	16
103.0427	24
104.0493	12
105.045	18
108.0024	129
109.011	999
116.0504	22
121.0111	126
122.0054	34
123.0137	86
134.0059	12
135.0135	71
136.0219	290
139.9756	16
146.0058	10
148.0216	15
166.9856	26
