Mass spectrum: Oxymetazoline; LC-ESI-QTOF; MS2; 60 V
Name: Oxymetazoline
Class: Pharmaceutical
Formula: C16H24N2O
Exact mass: 260.1889
SMILES: Cc1cc(c(c(c1CC2=NCCN2)C)O)C(C)(C)C
InChI: InChI=1S/C16H24N2O/c1-10-8-13(16(3,4)5)15(19)11(2)12(10)9-14-17-6-7-18-14/h8,19H,6-7,9H2,1-5H3,(H,17,18)
Instrument: TripleTOF 5600 SCIEX
Instrument type: LC-ESI-QTOF
Ms type: MS2
Ion mode: POSITIVE
Collision energy: 60
Fragmentation mode: CID
Ionization: ESI
Column name: Zorbax Eclipse Plus C18 2.1 mm x 150 mm, 3.5 um, Agilent
Retention time: 7.429 min
Precursor m/z: 261.1961
Precursor type: [M+H]+
m/z	relative intensity
42.0439	13
43.0262	35
44.0584	236
55.0468	13
55.0606	46
57.0749	160
65.043	70
67.0596	26
69.0369	25
69.0723	11
71.0633	71
77.042	366
78.0487	16
79.0576	353
81.0726	18
84.0708	146
85.0778	71
91.0563	999
92.0642	15
93.0716	223
97.0757	13
103.0547	145
104.0626	28
105.0705	953
106.077	38
107.0488	41
107.0847	198
109.1013	15
115.0539	250
116.0628	56
117.0696	213
118.0771	45
119.0855	408
120.0934	33
121.0645	418
121.1003	128
122.0728	58
127.0542	60
128.0617	255
129.0693	115
130.0673	25
130.0774	33
131.0471	46
131.0698	18
131.085	120
132.0554	21
132.0925	20
133.064	43
133.1012	503
134.0747	13
134.1057	18
135.0799	578
135.1112	33
136.0877	91
137.0956	46
141.0694	65
142.0776	31
143.0848	293
144.0805	53
145.0645	131
145.094	66
146.073	83
146.0943	21
147.0806	163
147.1153	68
148.0889	48
148.1243	45
149.0956	181
149.1294	16
155.0853	15
156.08	15
157.0742	10
157.0993	35
158.0705	11
158.1068	90
159.0796	80
159.1155	18
160.0846	135
160.1088	33
161.0961	675
162.0883	11
162.1071	11
163.1193	33
170.0912	13
171.0908	61
172.0774	16
172.0996	51
173.0794	15
173.0989	46
173.1297	11
174.0747	16
174.0911	86
175.1117	115
176.1186	55
177.126	11
185.107	98
186.0903	15
186.114	85
187.0864	85
187.1229	35
188.1005	265
189.1086	88
189.1364	21
197.1077	21
198.1173	21
199.1196	25
200.1085	11
201.1046	68
201.1382	113
202.1174	33
203.117	85
205.1343	50
211.1221	81
212.1316	18
213.1399	35
215.1155	45
216.1317	16
217.1308	60
218.1387	11
225.1387	65
227.153	121
229.1322	20
231.1471	235
245.1613	95
