Mass spectrum: Hydroxytorasemide; LC-ESI-QTOF; MS2; 40 V
Name: Hydroxytorasemide
Class: Pharmaceutical; Transformation_product; Transformation_product-Metabolite
Formula: C16H20N4O4S
Exact mass: 364.1205
SMILES: CC(C)NC(=O)NS(=O)(=O)c1cnccc1Nc2cccc(c2)CO
InChI: InChI=1S/C16H20N4O4S/c1-11(2)18-16(22)20-25(23,24)15-9-17-7-6-14(15)19-13-5-3-4-12(8-13)10-21/h3-9,11,21H,10H2,1-2H3,(H,17,19)(H2,18,20,22)
Instrument: TripleTOF 5600 SCIEX
Instrument type: LC-ESI-QTOF
Ms type: MS2
Ion mode: POSITIVE
Collision energy: 40
Fragmentation mode: CID
Ionization: ESI
Column name: Zorbax Eclipse Plus C18 2.1 mm x 150 mm, 3.5 um, Agilent
Retention time: 5.824 min
Precursor m/z: 365.1278
Precursor type: [M+H]+
m/z	relative intensity
115.0538	40
125.0163	72
137.0153	17
138.0547	10
142.0649	26
152.0028	43
153.0097	15
154.0636	21
156.0677	13
168.0676	109
169.0756	464
181.0757	297
182.0828	78
184.0624	14
185.0717	24
187.0317	30
188.0389	10
189.0474	67
197.0705	105
199.0857	99
200.0464	11
201.0487	27
205.042	13
214.0741	60
215.0811	56
216.0355	51
217.0417	94
228.0336	24
233.0379	185
245.037	211
246.0448	13
262.061	16
263.0481	57
279.1919	23
280.0743	999
306.0538	297
