Mass spectrum: Beclomethasone; LC-ESI-QTOF; MS2; 100 V
Name: Beclomethasone
Class: Pharmaceutical
Formula: C22H29ClO5
Exact mass: 408.1704
SMILES: CC1CC2C3CCC4=CC(=O)C=CC4(C3(C(CC2(C1(C(=O)CO)O)C)O)Cl)C
InChI: InChI=1S/C22H29ClO5/c1-12-8-16-15-5-4-13-9-14(25)6-7-19(13,2)21(15,23)17(26)10-20(16,3)22(12,28)18(27)11-24/h6-7,9,12,15-17,24,26,28H,4-5,8,10-11H2,1-3H3
Instrument: TripleTOF 5600 SCIEX
Instrument type: LC-ESI-QTOF
Ms type: MS2
Ion mode: POSITIVE
Collision energy: 100
Fragmentation mode: CID
Ionization: ESI
Column name: Zorbax Eclipse Plus C18 2.1 mm x 150 mm, 3.5 um, Agilent
Retention time: 9.326 min
Precursor m/z: 409.1776
Precursor type: [M+H]+
m/z	relative intensity
65.04	116
77.0378	720
79.0536	92
91.054	999
93.0706	92
103.0538	209
105.068	209
107.0473	116
115.0538	696
116.0637	116
117.0682	162
121.0639	580
127.0532	325
128.0624	696
129.0686	232
131.0464	232
132.0605	92
141.0691	557
145.0664	116
152.0608	394
153.067	325
157.0639	162
165.0686	789
166.076	185
169.0628	92
176.0626	139
178.0776	557
179.0815	162
181.0679	278
189.069	580
190.0757	185
191.0847	185
194.0703	232
195.08	139
202.0767	348
203.0901	116
204.0869	116
205.0667	116
205.0971	139
207.079	139
215.0851	464
216.0932	116
218.071	209
219.079	139
226.0764	116
228.0861	162
231.0863	116
243.0745	116
