Mass spectrum: Nitrazepam; LC-ESI-QTOF; MS2; 40 V
Name: Nitrazepam
Class: Pharmaceutical
Formula: C15H11N3O3
Exact mass: 281.08
SMILES: C1C(=O)NC2=C(C=C(C=C2)[N+](=O)[O-])C(=N1)C3=CC=CC=C3
InChI: InChI=1S/C15H11N3O3/c19-14-9-16-15(10-4-2-1-3-5-10)12-8-11(18(20)21)6-7-13(12)17-14/h1-8H,9H2,(H,17,19)
Instrument: TripleTOF 6600 SCIEX
Instrument type: LC-ESI-QTOF
Ms type: MS2
Ion mode: NEGATIVE
Collision energy: 40
Fragmentation mode: CID
Ionization: ESI
Column name: Zorbax Eclipse Plus C18 2.1 mm x 150 mm, 3.5 um, Agilent
Retention time: 9.435 min
Precursor m/z: 280.0727
Precursor type: [M-H]-
m/z	relative intensity
45.9934	24
166.0673	188
194.0618	461
195.0566	22
205.0537	15
206.0613	77
207.0676	11
222.0568	750
223.0635	23
251.0458	26
252.0547	999
253.0616	54
278.0555	11
