Mass spectrum: Temazepam; LC-ESI-QTOF; MS2; 90 V
Name: Temazepam
Class: Pharmaceutical
Formula: C16H13ClN2O2
Exact mass: 300.0666
SMILES: CN1C2=C(C=C(C=C2)Cl)C(=NC(C1=O)O)C3=CC=CC=C3
InChI: InChI=1S/C16H13ClN2O2/c1-19-13-8-7-11(17)9-12(13)14(18-15(20)16(19)21)10-5-3-2-4-6-10/h2-9,15,20H,1H3
Instrument: TripleTOF 6600 SCIEX
Instrument type: LC-ESI-QTOF
Ms type: MS2
Ion mode: POSITIVE
Collision energy: 90
Fragmentation mode: CID
Ionization: ESI
Column name: Zorbax Eclipse Plus C18 2.1 mm x 150 mm, 3.5 um, Agilent
Retention time: 10.497 min
Precursor m/z: 301.0738
Precursor type: [M+H]+
m/z	relative intensity
39.0215	46
48.9829	11
50.0132	32
51.0216	186
61.0051	28
61.9774	11
62.0138	62
63.0215	220
64.0289	20
65.0371	74
66.0445	40
72.982	170
73.0049	18
74.0132	121
75.0211	235
77.0369	480
78.0457	12
84.9832	17
87.0206	19
88.0163	20
88.0284	36
89.0369	813
90.0444	215
91.0523	42
92.0474	26
96.9828	25
98.0118	10
98.9996	310
100.0162	456
101.037	12
102.0329	15
102.0449	12
104.0475	83
105.0482	13
106.0628	43
108.982	23
109.9922	14
110.9972	100
113.0364	15
114.0319	78
115.0513	138
116.0351	15
116.0466	33
117.055	73
122.9975	157
123.9937	108
125.0132	56
125.0365	44
126.0438	44
127.0164	49
127.0394	11
127.052	40
128.0592	35
131.0597	11
132.0667	14
135.9919	80
138.0096	11
139.0043	18
139.0532	139
140.0485	68
142.051	21
149.037	134
150.0108	34
150.0443	524
151.0027	16
151.0532	782
152.0596	315
153.063	58
154.0619	11
163.0543	178
163.9991	58
164.0605	233
165.0689	889
166.0635	215
167.0708	51
168.0681	22
175.0403	86
176.048	395
177.0219	13
177.0562	999
178.0643	211
179.0671	96
180.0786	111
185.0136	25
186.0198	11
190.0642	112
191.0729	138
192.0711	142
193.0759	190
194.0822	86
199.0292	12
200.0286	11
201.0515	13
202.0503	111
203.0593	138
204.0634	184
205.0742	146
211.0182	30
213.032	12
214.0411	19
217.074	10
218.0835	17
219.093	15
227.0343	23
228.0431	73
229.0518	11
239.0368	277
