Mass spectrum: Tenamfetamine; LC-ESI-QTOF; MS2; 60 V
Name: Tenamfetamine
Class: Pharmaceutical
Formula: C10H13NO2
Exact mass: 179.0946
SMILES: CC(CC1=CC2=C(C=C1)OCO2)N
InChI: InChI=1S/C10H13NO2/c1-7(11)4-8-2-3-9-10(5-8)13-6-12-9/h2-3,5,7H,4,6,11H2,1H3
Instrument: TripleTOF 6600 SCIEX
Instrument type: LC-ESI-QTOF
Ms type: MS2
Ion mode: POSITIVE
Collision energy: 60
Fragmentation mode: CID
Ionization: ESI
Column name: Zorbax Eclipse Plus C18 2.1 mm x 150 mm, 3.5 um, Agilent
Retention time: 5.295 min
Precursor m/z: 180.1019
Precursor type: [M+H]+
m/z	relative intensity
37.0065	10
39.0224	54
50.0148	52
51.0228	330
53.038	13
60.9851	16
63.0218	14
65.038	88
77.0379	999
78.0417	35
79.0532	161
89.0381	46
91.0533	30
103.0532	118
105.0388	36
105.0679	19
121.0271	34
135.0434	11
147.0432	38
