Mass spectrum: Carbadox; LC-ESI-QTOF; MS2; 50 V
Name: Carbadox
Class: Antimicrobial; Pharmaceutical
Formula: C11H10N4O4
Exact mass: 262.0702
SMILES: COC(=O)N=NC=C1C=[N+]([O-])c2ccccc2N1O
InChI: InChI=1S/C11H10N4O4/c1-19-11(16)13-12-6-8-7-14(17)9-4-2-3-5-10(9)15(8)18/h2-7,18H,1H3
Instrument: TripleTOF 5600 SCIEX
Instrument type: LC-ESI-QTOF
Ms type: MS2
Ion mode: POSITIVE
Collision energy: 50
Fragmentation mode: CID
Ionization: ESI
Column name: Zorbax Eclipse Plus C18 2.1 mm x 150 mm, 3.5 um, Agilent
Retention time: 5.823 min
Precursor m/z: 263.0775
Precursor type: [M+H]+
m/z	relative intensity
51.0287	48
64.0333	19
65.0312	9
65.0414	45
74.0167	12
75.0254	61
76.0196	11
76.0332	92
77.0409	305
78.0356	84
79.0453	11
89.0393	27
90.0353	753
90.073	14
91.0427	111
92.0506	19
101.0383	17
102.0344	530
102.0732	12
103.0418	526
104.0496	142
105.044	29
114.0325	9
115.0416	24
116.0366	214
117.0434	22
118.0529	24
118.0638	12
128.049	45
129.0447	999
130.0397	101
130.0505	210
131.0592	74
142.0521	53
143.0474	213
144.0323	16
144.0674	17
144.0836	11
145.0384	103
145.0778	14
146.0466	14
155.0471	90
159.0533	11
170.0615	11
171.043	155
172.0508	35
197.0445	30
