Mass spectrum: Repaglinide; LC-ESI-QTOF; MS2; 90 V
Name: Repaglinide
Class: Pharmaceutical
Formula: C27H36N2O4
Exact mass: 452.2675
SMILES: CCOc1cc(CC(=O)N[C@@H](CC(C)C)c2ccccc2N3CCCCC3)ccc1C(O)=O
InChI: InChI=1S/C27H36N2O4/c1-4-33-25-17-20(12-13-22(25)27(31)32)18-26(30)28-23(16-19(2)3)21-10-6-7-11-24(21)29-14-8-5-9-15-29/h6-7,10-13,17,19,23H,4-5,8-9,14-16,18H2,1-3H3,(H,28,30)(H,31,32)/t23-/m0/s1
Instrument: TripleTOF 5600 SCIEX
Instrument type: LC-ESI-QTOF
Ms type: MS2
Ion mode: POSITIVE
Collision energy: 90
Fragmentation mode: CID
Ionization: ESI
Column name: Zorbax Eclipse Plus C18 2.1 mm x 150 mm, 3.5 um, Agilent
Retention time: 10.348 min
Precursor m/z: 453.2748
Precursor type: [M+H]+
m/z	relative intensity
44.0587	35
55.0595	15
65.0424	32
67.0574	14
69.074	17
77.0413	70
79.0566	30
86.098	73
89.0393	16
90.0472	23
91.0561	378
103.054	29
104.0499	21
105.0333	67
105.0697	38
106.0655	250
115.0538	41
117.0577	433
118.0654	694
119.073	13
120.0807	91
123.0437	11
127.0535	12
128.0604	13
129.0696	29
130.0656	999
131.0731	415
132.0806	265
133.0878	12
143.0724	76
144.0809	724
145.0879	94
146.0964	425
156.0816	16
157.089	28
158.0971	418
159.104	87
160.1123	39
162.1274	45
170.0949	23
171.1043	11
172.1128	905
173.1199	19
174.128	261
184.1123	20
186.1281	146
230.1902	68
