Mass spectrum: Citalopram; LC-ESI-QTOF; MS2; 50 V
Name: Citalopram
Class: Pharmaceutical
Formula: C20H21FN2O
Exact mass: 324.1638
SMILES: CN(C)CCCC1(OCc2cc(ccc12)C#N)c3ccc(F)cc3
InChI: InChI=1S/C20H21FN2O/c1-23(2)11-3-10-20(17-5-7-18(21)8-6-17)19-9-4-15(13-22)12-16(19)14-24-20/h4-9,12H,3,10-11,14H2,1-2H3
Instrument: TripleTOF 5600 SCIEX
Instrument type: LC-ESI-QTOF
Ms type: MS2
Ion mode: POSITIVE
Collision energy: 50
Fragmentation mode: CID
Ionization: ESI
Column name: Zorbax Eclipse Plus C18 2.1 mm x 150 mm, 3.5 um, Agilent
Retention time: 7.757 min
Precursor m/z: 325.1711
Precursor type: [M+H]+
m/z	relative intensity
58.0709	50
83.0322	78
84.0829	14
89.0408	34
103.0553	12
109.0461	999
116.0505	210
121.0446	15
123.0245	15
127.0547	19
128.062	15
129.0702	30
130.0658	11
133.0448	15
139.0544	18
140.0497	78
142.0648	10
144.0442	12
154.0649	17
156.0805	22
166.0656	137
183.0619	14
190.0653	36
195.0592	19
202.0746	25
203.0745	13
207.0609	40
208.0561	50
209.0739	10
214.0661	26
215.0855	82
218.0594	43
219.0598	20
220.0663	131
221.0642	198
222.0717	69
226.0655	22
227.0734	254
232.0555	19
233.0751	68
234.0718	411
235.0824	73
236.0872	11
237.0592	14
238.0676	19
240.0811	87
241.0887	58
242.0961	31
244.068	19
245.0656	41
246.0725	314
247.0795	340
250.1024	22
259.0797	11
260.0876	38
261.0948	50
262.1026	72
