Mass spectrum: Coumaphos; LC-ESI-QTOF; MS2; 50 V
Name: Coumaphos
Class: Insecticide
Formula: C14H16ClO5PS
Exact mass: 362.0145
SMILES: CCOP(=S)(OCC)OC1=CC2=C(C=C1)C(=C(C(=O)O2)Cl)C
InChI: InChI=1S/C14H16ClO5PS/c1-4-17-21(22,18-5-2)20-10-6-7-11-9(3)13(15)14(16)19-12(11)8-10/h6-8H,4-5H2,1-3H3
Instrument: TripleTOF 6600 SCIEX
Instrument type: LC-ESI-QTOF
Ms type: MS2
Ion mode: POSITIVE
Collision energy: 50
Fragmentation mode: CID
Ionization: ESI
Column name: Zorbax Eclipse Plus C18 2.1 mm x 150 mm, 3.5 um, Agilent
Retention time: 14.049 min
Precursor m/z: 363.0218
Precursor type: [M+H]+
m/z	relative intensity
91.0536	19
96.9498	89
102.0455	11
103.0533	31
115.0534	86
119.0484	10
131.0484	92
132.0562	46
135.0254	37
137.0142	11
147.0261	122
148.034	19
148.0509	27
149.014	24
150.0226	49
155.0247	15
159.0434	19
163.0204	64
164.0284	72
165.0102	28
166.0172	42
171.0016	22
175.0377	13
181.005	12
182.0124	19
191.0152	43
192.0243	10
193.0043	14
194.0126	115
196.9816	25
208.9993	14
210.0079	22
211.0157	281
224.9768	32
225.9853	288
226.9935	999
256.977	43
270.9404	22
272.9716	45
288.9494	128
