Mass spectrum: Thiabendazole; LC-ESI-QTOF; MS2; 120 V
Name: Thiabendazole
Class: Fungicide; Pharmaceutical
Formula: C10H7N3S
Exact mass: 201.0361
SMILES: [nH]1c2ccccc2nc1c3cscn3
InChI: InChI=1S/C10H7N3S/c1-2-4-8-7(3-1)12-10(13-8)9-5-14-6-11-9/h1-6H,(H,12,13)
Instrument: TripleTOF 5600 SCIEX
Instrument type: LC-ESI-QTOF
Ms type: MS2
Ion mode: POSITIVE
Collision energy: 120
Fragmentation mode: CID
Ionization: ESI
Column name: Zorbax Eclipse Plus C18 2.1 mm x 150 mm, 3.5 um, Agilent
Retention time: 5.203 min
Precursor m/z: 202.0433
Precursor type: [M+H]+
m/z	relative intensity
51.0295	960
52.0231	192
60.0084	153
64.0362	307
65.0287	153
65.0426	999
68.9814	384
73.0114	192
74.018	768
75.0124	153
75.0251	192
76.0207	307
77.0411	230
90.037	192
