Mass spectrum: 3-Alizarinsulfonic acid; LC-ESI-QTOF; MS2; 80 V
Name: 3-Alizarinsulfonic acid
Formula: C14H8O7S
Exact mass: 319.9991
SMILES: C1=CC=C2C(=C1)C(=O)C3=CC(=C(C(=C3C2=O)O)O)S(=O)(=O)O
InChI: InChI=1S/C14H8O7S/c15-11-6-3-1-2-4-7(6)12(16)10-8(11)5-9(22(19,20)21)13(17)14(10)18/h1-5,17-18H,(H,19,20,21)
Instrument: TripleTOF 6600 SCIEX
Instrument type: LC-ESI-QTOF
Ms type: MS2
Ion mode: POSITIVE
Collision energy: 80
Fragmentation mode: CID
Ionization: ESI
Column name: Zorbax Eclipse Plus C18 2.1 mm x 150 mm, 3.5 um, Agilent
Retention time: 8.229 min
Precursor m/z: 321.0064
Precursor type: [M+H]+
m/z	relative intensity
51.0222	52
74.0135	8
75.0224	69
77.0369	764
79.0202	17
87.0228	34
101.0365	112
105.0345	52
115.0528	17
125.036	26
126.0453	330
127.0513	999
129.0416	34
137.0329	17
139.0519	17
155.0489	95
155.0642	52
183.0465	17
