Mass spectrum: Dimethenamid-ESA; LC-ESI-QTOF; MS2; 40 V
Name: Dimethenamid-ESA
Class: Transformation_product; Herbicide; Metabolite
Formula: C12H19NO5S2
Exact mass: 321.0705
SMILES: CC1=CSC(=C1N(C(C)COC)C(=O)CS(=O)(=O)O)C
InChI: InChI=1S/C12H19NO5S2/c1-8-6-19-10(3)12(8)13(9(2)5-18-4)11(14)7-20(15,16)17/h6,9H,5,7H2,1-4H3,(H,15,16,17)
Instrument: TripleTOF 6600 SCIEX
Instrument type: LC-ESI-QTOF
Ms type: MS2
Ion mode: POSITIVE
Collision energy: 40
Fragmentation mode: CID
Ionization: ESI
Column name: Zorbax Eclipse Plus C18 2.1 mm x 150 mm, 3.5 um, Agilent
Retention time: 7.036 min
Precursor m/z: 322.0778
Precursor type: [M+H]+
m/z	relative intensity
39.0234	9
41.0393	20
42.0346	12
43.0183	11
45.0339	36
58.9955	13
67.0544	9
73.0651	79
77.0395	12
79.0545	14
82.0655	73
91.054	18
93.0699	17
94.0652	29
95.0736	40
97.0114	28
99.0262	19
108.0809	22
111.0268	247
112.0341	63
113.0301	18
113.0419	29
114.0373	18
117.0686	14
118.0652	33
119.0733	57
120.081	28
122.0967	14
123.0265	12
124.0335	13
125.0419	156
126.0375	287
127.0216	30
127.0447	46
127.0574	14
128.053	77
132.0802	18
133.0886	49
134.0964	260
135.0266	71
135.1046	45
136.1116	17
137.0292	28
138.037	214
139.046	18
140.0538	28
148.1119	11
149.0415	68
150.0376	76
150.0496	116
151.0446	109
152.019	79
152.053	825
153.0606	24
154.0702	17
162.092	18
164.1064	11
166.0332	31
166.0684	999
167.0413	20
167.0761	295
168.0494	102
168.0839	450
169.0577	13
176.1071	63
194.0639	99
208.0779	23
209.0867	79
210.0948	815
226.0906	25
290.0515	340
