Mass spectrum: 4-Carboxy-9-acridanone; LC-ESI-QTOF; MS2; 70 V
Name: 4-Carboxy-9-acridanone
Class: Pharmaceutical; Antimicrobial
Formula: C14H9NO3
Exact mass: 239.0582
SMILES: c1ccc2c(c1)c(=O)c3cccc(c3[nH]2)C(=O)O
InChI: InChI=1S/C14H9NO3/c16-13-8-4-1-2-7-11(8)15-12-9(13)5-3-6-10(12)14(17)18/h1-7H,(H,15,16)(H,17,18)
Instrument: TripleTOF 5600 SCIEX
Instrument type: LC-ESI-QTOF
Ms type: MS2
Ion mode: POSITIVE
Collision energy: 70
Fragmentation mode: CID
Ionization: ESI
Column name: Zorbax Eclipse Plus C18 2.1 mm x 150 mm, 3.5 um, Agilent
Retention time: 8.816 min
Precursor m/z: 240.0655
Precursor type: [M+H]+
m/z	relative intensity
65.0434	10
76.0328	107
87.0241	24
89.0398	104
90.0349	17
104.025	17
113.0379	234
114.0327	39
115.0533	192
116.0491	66
126.0468	10
138.0457	28
139.0539	657
140.0491	999
164.0474	47
165.0564	22
166.0633	130
