Mass spectrum: Temazepam; LC-ESI-QTOF; MS2; 120 V
Name: Temazepam
Class: Pharmaceutical
Formula: C16H13ClN2O2
Exact mass: 300.0666
SMILES: CN1C2=C(C=C(C=C2)Cl)C(=NC(C1=O)O)C3=CC=CC=C3
InChI: InChI=1S/C16H13ClN2O2/c1-19-13-8-7-11(17)9-12(13)14(18-15(20)16(19)21)10-5-3-2-4-6-10/h2-9,15,20H,1H3
Instrument: TripleTOF 6600 SCIEX
Instrument type: LC-ESI-QTOF
Ms type: MS2
Ion mode: POSITIVE
Collision energy: 120
Fragmentation mode: CID
Ionization: ESI
Column name: Zorbax Eclipse Plus C18 2.1 mm x 150 mm, 3.5 um, Agilent
Retention time: 10.497 min
Precursor m/z: 301.0738
Precursor type: [M+H]+
m/z	relative intensity
37.0058	45
38.0143	45
39.0217	124
46.9661	15
48.9821	30
49.0058	17
50.0135	157
51.0216	353
59.9975	26
61.0055	125
61.9771	10
62.0134	202
63.0211	418
64.0172	16
64.0299	31
65.0369	119
66.0446	25
72.9821	222
73.0047	73
74.0132	368
75.0071	15
75.021	287
76.0284	81
77.0372	354
78.0448	24
84.9814	22
85.0051	25
86.0137	53
87.0214	88
88.0161	31
88.0279	52
89.0367	531
90.0323	16
90.0449	30
91.0396	10
91.0522	13
96.9827	31
97.9779	11
98.0134	153
99.0081	222
99.0194	118
100.0162	196
101.037	34
102.0451	58
104.0482	37
108.9824	10
110.0133	28
110.9999	16
111.0209	28
113.0374	120
114.0333	40
114.0449	11
115.052	245
116.0425	25
122.0135	67
123.0207	101
123.9915	38
124.0266	49
125.0369	101
126.0442	147
127.0403	56
128.0531	19
137.0367	62
138.0434	62
139.0528	334
140.0474	171
141.0573	12
148.0287	21
149.0363	227
150.0447	999
151.0518	343
152.0602	129
153.0563	17
161.0376	20
162.0446	56
163.0522	531
164.0582	286
165.0674	223
166.0622	77
167.0673	27
174.0365	24
175.0393	207
176.0479	170
177.0555	312
178.0618	37
179.0707	11
188.0492	17
189.0559	21
190.0654	57
191.0624	46
192.0667	68
193.0751	13
202.0556	39
203.0602	23
204.0558	29
211.0159	13
