Mass spectrum: N,N`-bis(2-methoxyethoxycarbonyl)-4-methyl-1,3-phenylenediamine; LC-ESI-QTOF; MS2; 110 V
Name: N,N`-bis(2-methoxyethoxycarbonyl)-4-methyl-1,3-phenylenediamine
Formula: C15H22N2O6
Exact mass: 326.1478
SMILES: CC1=C(C=C(C=C1)NC(=O)OCCOC)NC(=O)OCCOC
InChI: InChI=1S/C15H22N2O6/c1-11-4-5-12(16-14(18)22-8-6-20-2)10-13(11)17-15(19)23-9-7-21-3/h4-5,10H,6-9H2,1-3H3,(H,16,18)(H,17,19)
Instrument: TripleTOF 5600 SCIEX
Instrument type: LC-ESI-QTOF
Ms type: MS2
Ion mode: POSITIVE
Collision energy: 110
Fragmentation mode: CID
Ionization: ESI
Column name: Zorbax Eclipse Plus C18 2.1 mm x 150 mm, 3.5 um, Agilent
Retention time: 8.323 min
Precursor m/z: 327.1551
Precursor type: [M+H]+
m/z	relative intensity
43.0312	86
45.0477	173
59.0584	999
65.046	173
77.0432	999
78.0389	130
79.0566	86
92.0527	115
102.0361	72
104.0532	57
105.0476	86
106.0612	72
