Mass spectrum: Monolinuron; LC-ESI-QTOF; MS2; 70 V
Name: Monolinuron
Class: Herbicide
Formula: C9H11ClN2O2
Exact mass: 214.0509
SMILES: CN(C(=O)NC1=CC=C(C=C1)Cl)OC
InChI: InChI=1S/C9H11ClN2O2/c1-12(14-2)9(13)11-8-5-3-7(10)4-6-8/h3-6H,1-2H3,(H,11,13)
Instrument: TripleTOF 5600 SCIEX
Instrument type: LC-ESI-QTOF
Ms type: MS2
Ion mode: POSITIVE
Collision energy: 70
Fragmentation mode: CID
Ionization: ESI
Column name: Zorbax Eclipse Plus C18 2.1 mm x 150 mm, 3.5 um, Agilent
Retention time: 10.275 min
Precursor m/z: 215.0582
Precursor type: [M+H]+
m/z	relative intensity
65.0388	517
72.9839	731
91.041	142
92.0474	214
98.9987	999
100.0078	196
119.0609	160
127.0197	142
