Mass spectrum: Flurtamone; LC-ESI-QTOF; MS2; 110 V
Name: Flurtamone
Class: Herbicide
Formula: C18H14F3NO2
Exact mass: 333.0977
SMILES: CNC1=C(C(=O)C(O1)C2=CC=CC=C2)C3=CC(=CC=C3)C(F)(F)F
InChI: InChI=1S/C18H14F3NO2/c1-22-17-14(12-8-5-9-13(10-12)18(19,20)21)15(23)16(24-17)11-6-3-2-4-7-11/h2-10,16,22H,1H3
Instrument: TripleTOF 6600 SCIEX
Instrument type: LC-ESI-QTOF
Ms type: MS2
Ion mode: POSITIVE
Collision energy: 110
Fragmentation mode: CID
Ionization: ESI
Column name: Zorbax Eclipse Plus C18 2.1 mm x 150 mm, 3.5 um, Agilent
Retention time: 11.864 min
Precursor m/z: 334.105
Precursor type: [M+H]+
m/z	relative intensity
42.0338	15
49.007	10
50.0151	60
51.0228	173
58.0285	15
63.0227	16
65.0383	11
74.0149	29
75.0221	47
76.0304	20
77.0387	230
78.0457	10
87.0223	14
89.0386	39
98.0149	27
99.0222	25
102.0464	53
113.0386	12
115.0542	31
125.0382	36
126.0467	108
127.0542	30
128.0622	61
137.0384	14
138.0464	10
139.0545	55
149.0386	36
150.0471	343
151.0547	671
152.0626	387
157.0452	12
161.0389	16
162.0464	14
163.0546	46
165.0702	13
168.0371	10
169.0452	15
170.0528	26
174.0472	37
175.0543	101
176.0633	999
177.0704	117
178.078	67
179.0604	19
180.0371	16
181.0455	72
186.047	12
187.0547	52
194.0532	29
195.0609	11
196.0688	24
199.0364	23
201.0517	23
205.046	164
206.0534	48
207.0615	71
223.0357	17
224.0446	14
225.0521	85
