Mass spectrum: Acetonyltriphenylphosphonium; LC-ESI-QTOF; MS2; 40 V
Name: Acetonyltriphenylphosphonium
Formula: C21H20OP
Exact mass: 319.1246
SMILES: CC(=O)C[P+](C1=CC=CC=C1)(C2=CC=CC=C2)C3=CC=CC=C3
InChI: InChI=1S/C21H20OP/c1-18(22)17-23(19-11-5-2-6-12-19,20-13-7-3-8-14-20)21-15-9-4-10-16-21/h2-16H,17H2,1H3/q+1
Instrument: TripleTOF 5600 SCIEX
Instrument type: LC-ESI-QTOF
Ms type: CID
Ion mode: POSITIVE
Collision energy: 40
Ionization: ESI
Column name: Zorbax Eclipse Plus C18 2.1 mm x 150 mm, 3.5 um, Agilent
Retention time: 7.28 min
Precursor m/z: 319.1246
Precursor type: [M]+
m/z	relative intensity
107.003	51
108.0106	154
183.0354	361
184.0437	73
185.0519	182
201.0463	600
259.0679	70
260.0752	75
261.0827	247
262.0909	302
275.0978	999
277.1136	327
279.0931	509
319.1244	669
