Mass spectrum: Beclomethasone; LC-ESI-QTOF; MS2; 50 V
Name: Beclomethasone
Class: Pharmaceutical
Formula: C22H29ClO5
Exact mass: 408.1704
SMILES: CC1CC2C3CCC4=CC(=O)C=CC4(C3(C(CC2(C1(C(=O)CO)O)C)O)Cl)C
InChI: InChI=1S/C22H29ClO5/c1-12-8-16-15-5-4-13-9-14(25)6-7-19(13,2)21(15,23)17(26)10-20(16,3)22(12,28)18(27)11-24/h6-7,9,12,15-17,24,26,28H,4-5,8,10-11H2,1-3H3
Instrument: TripleTOF 5600 SCIEX
Instrument type: LC-ESI-QTOF
Ms type: MS2
Ion mode: POSITIVE
Collision energy: 50
Fragmentation mode: CID
Ionization: ESI
Column name: Zorbax Eclipse Plus C18 2.1 mm x 150 mm, 3.5 um, Agilent
Retention time: 9.326 min
Precursor m/z: 409.1776
Precursor type: [M+H]+
m/z	relative intensity
79.0523	124
91.0538	249
93.0697	145
95.085	124
101.057	104
103.0562	83
105.0689	249
107.0859	208
115.0531	124
117.0666	83
119.0862	353
121.0646	749
121.1002	104
123.0819	83
129.0717	83
131.0845	124
132.054	83
133.0668	83
133.1028	145
135.0794	353
137.0955	83
141.069	83
143.0863	145
145.0633	208
145.1017	187
147.0804	999
151.0754	187
155.0839	145
158.068	83
159.0803	270
161.0969	291
167.0849	124
169.0989	145
171.0805	541
173.0962	228
178.0788	83
179.0871	187
182.071	145
185.0913	208
187.1129	83
193.1013	208
195.0806	312
196.0883	166
197.0946	249
207.0782	104
208.0887	166
209.0978	416
210.1049	187
211.1126	333
217.0974	166
219.1193	124
221.0929	353
222.105	374
223.1106	374
224.1189	187
225.088	104
225.1322	124
229.1168	83
230.1082	104
231.1153	124
232.085	145
233.0952	145
234.1042	145
235.1117	374
237.1265	333
239.1403	270
243.1131	83
247.1127	228
248.1223	249
249.1279	291
251.145	187
259.1132	145
260.1191	187
261.1286	228
262.1374	208
263.1431	582
264.1524	228
271.106	124
274.1374	83
276.1556	166
277.1222	83
277.1544	83
