Mass spectrum: Diphenyl(2,4,6-trimethylbenzoyl)phosphine oxide; LC-ESI-QTOF; MS2; 150 V
Name: Diphenyl(2,4,6-trimethylbenzoyl)phosphine oxide
Class: Industrial_process
Formula: C22H21O2P
Exact mass: 348.1279
SMILES: Cc1cc(C)c(c(C)c1)C(=O)[P](=O)(c2ccccc2)c3ccccc3
InChI: InChI=1S/C22H21O2P/c1-16-14-17(2)21(18(3)15-16)22(23)25(24,19-10-6-4-7-11-19)20-12-8-5-9-13-20/h4-15H,1-3H3
Instrument: TripleTOF 5600 SCIEX
Instrument type: LC-ESI-QTOF
Ms type: CID
Ion mode: POSITIVE
Collision energy: 150
Ionization: ESI
Column name: Zorbax Eclipse Plus C18 2.1 mm x 150 mm, 3.5 um, Agilent
Retention time: 14.088 min
Precursor m/z: 349.1352
Precursor type: [M+H]+
m/z	relative intensity
51.0303	398
52.0364	29
65.0434	591
75.0256	15
76.0339	19
77.042	999
78.0494	315
79.0573	36
89.0406	35
91.0562	501
102.0466	48
103.0549	256
104.0627	56
115.0546	146
116.0645	10
117.071	13
