Mass spectrum: Aminophenazone; LC-ESI-QTOF; MS2; 50 V
Name: Aminophenazone
Class: Pharmaceutical
Formula: C13H17N3O
Exact mass: 231.1372
SMILES: CC1=C(C(=O)N(N1C)C2=CC=CC=C2)N(C)C
InChI: InChI=1S/C13H17N3O/c1-10-12(14(2)3)13(17)16(15(10)4)11-8-6-5-7-9-11/h5-9H,1-4H3
Instrument: TripleTOF 5600 SCIEX
Instrument type: LC-ESI-QTOF
Ms type: MS2
Ion mode: POSITIVE
Collision energy: 50
Fragmentation mode: CID
Ionization: ESI
Column name: Zorbax Eclipse Plus C18 2.1 mm x 150 mm, 3.5 um, Agilent
Retention time: 4.71 min
Precursor m/z: 232.1444
Precursor type: [M+H]+
m/z	relative intensity
42.0471	54
44.0597	13
56.0589	502
57.0674	15
58.0742	424
68.06	10
70.0716	234
72.087	147
77.0443	119
79.0597	27
82.0701	26
83.0645	54
84.0875	29
91.0598	15
96.072	12
97.0799	999
98.0876	128
104.0517	19
106.0678	120
111.0942	92
113.1092	13
117.0596	10
118.0683	35
123.0576	29
128.051	13
132.0455	17
132.0826	20
159.0953	10
