Mass spectrum: Flunixin; LC-ESI-QTOF; MS2; 60 V
Name: Flunixin
Class: Pharmaceutical
Formula: C14H11F3N2O2
Exact mass: 296.0773
SMILES: CC1=C(C=CC=C1NC2=C(C=CC=N2)C(=O)O)C(F)(F)F
InChI: InChI=1S/C14H11F3N2O2/c1-8-10(14(15,16)17)5-2-6-11(8)19-12-9(13(20)21)4-3-7-18-12/h2-7H,1H3,(H,18,19)(H,20,21)
Instrument: TripleTOF 5600 SCIEX
Instrument type: LC-ESI-QTOF
Ms type: MS2
Ion mode: POSITIVE
Collision energy: 60
Fragmentation mode: CID
Ionization: ESI
Column name: Zorbax Eclipse Plus C18 2.1 mm x 150 mm, 3.5 um, Agilent
Retention time: 11.023 min
Precursor m/z: 297.0845
Precursor type: [M+H]+
m/z	relative intensity
78.0391	53
83.0343	55
89.0427	12
93.0477	11
98.0185	11
99.0258	81
106.0676	17
109.0471	654
119.0311	145
127.0556	16
139.0368	61
140.0507	149
142.0525	12
145.0269	13
147.0364	47
154.0664	56
155.0673	22
157.0458	31
158.0389	34
159.0435	151
164.0512	66
165.0466	29
166.056	25
167.062	111
174.0513	11
176.0322	11
177.0521	10
179.0602	21
180.069	56
181.0768	406
182.0354	14
182.0847	74
183.0479	27
184.0563	265
185.0479	39
186.0591	185
187.0364	24
189.0389	63
190.0468	27
191.0609	86
192.0683	56
194.0401	22
195.0561	47
196.0421	20
197.0523	33
202.0479	13
203.0535	23
204.0631	20
208.0376	22
208.061	14
209.0695	270
210.0649	233
211.0671	170
212.0482	24
213.0412	10
214.0508	33
215.0423	64
216.0507	100
217.0577	157
219.0543	20
221.0503	21
222.0516	11
229.0575	41
230.0661	30
231.073	69
232.0587	11
234.0522	29
235.0481	151
236.0557	884
237.0416	83
238.0511	21
239.062	97
241.0574	66
244.0463	12
245.0527	10
248.0584	12
249.0639	82
250.0706	16
257.0544	31
258.06	36
259.0683	104
263.043	123
264.0509	999
277.0596	41
278.0674	12
279.075	80
