Mass spectrum: Medroxyprogesterone-17-acetate; LC-ESI-QTOF; MS2; 20 V
Name: Medroxyprogesterone-17-acetate
Class: Pharmaceutical
Formula: C24H34O4
Exact mass: 386.2457
SMILES: CC1CC2C(CCC3(C2CCC3(C(=O)C)OC(=O)C)C)C4(C1=CC(=O)CC4)C
InChI: InChI=1S/C24H34O4/c1-14-12-18-19(22(4)9-6-17(27)13-21(14)22)7-10-23(5)20(18)8-11-24(23,15(2)25)28-16(3)26/h13-14,18-20H,6-12H2,1-5H3
Instrument: TripleTOF 5600 SCIEX
Instrument type: LC-ESI-QTOF
Ms type: MS2
Ion mode: POSITIVE
Collision energy: 20
Fragmentation mode: CID
Ionization: ESI
Column name: Zorbax Eclipse Plus C18 2.1 mm x 150 mm, 3.5 um, Agilent
Retention time: 13.723 min
Precursor m/z: 387.253
Precursor type: [M+H]+
m/z	relative intensity
97.065	17
123.0804	57
175.1479	10
205.1597	27
245.1917	10
257.1549	23
267.2109	53
283.2066	33
285.2221	233
291.2108	12
309.2218	92
327.2319	810
387.253	999
