Mass spectrum: O-Desmethyl amisulpride; LC-ESI-QTOF; MS2; 140 V
Name: O-Desmethyl amisulpride
Class: Pharmaceutical; Transformation_product
Formula: C16H25N3O4S
Exact mass: 355.1566
SMILES: CCN1CCCC1CNC(=O)c2cc(c(cc2O)N)S(=O)(=O)CC
InChI: InChI=1S/C16H25N3O4S/c1-3-19-7-5-6-11(19)10-18-16(21)12-8-15(24(22,23)4-2)13(17)9-14(12)20/h8-9,11,20H,3-7,10,17H2,1-2H3,(H,18,21)
Instrument: TripleTOF 5600 SCIEX
Instrument type: LC-ESI-QTOF
Ms type: MS2
Ion mode: POSITIVE
Collision energy: 140
Fragmentation mode: CID
Ionization: ESI
Column name: Zorbax Eclipse Plus C18 2.1 mm x 150 mm, 3.5 um, Agilent
Retention time: 5.619 min
Precursor m/z: 356.1639
Precursor type: [M+H]+
m/z	relative intensity
40.027	68
42.0416	167
42.0498	76
44.0199	251
51.0285	358
52.0358	999
53.0092	129
53.0461	83
54.0392	83
55.0597	198
56.0546	480
56.9838	53
56.991	45
57.992	38
58.0692	213
58.9995	53
60.0068	38
62.0546	45
63.0137	61
65.0306	205
65.0418	76
66.0151	137
66.0378	53
67.0215	45
67.0455	61
67.0557	83
68.0169	930
68.0546	83
68.0689	38
68.9839	175
69.0608	45
70.0374	38
70.0685	396
70.9983	61
75.0168	30
76.0222	144
77.0039	53
77.0304	38
78.0367	427
79.0212	53
79.0434	106
80.0273	30
80.0522	137
80.9813	45
81.9899	45
82.068	175
83.994	38
84.0831	480
84.9764	83
88.0203	327
89.0278	526
91.0193	38
94.0301	457
96.082	30
98.0965	106
99.9848	61
107.0362	152
107.9897	45
108.0205	38
112.1131	99
