Mass spectrum: Tramadol-N-oxide; LC-ESI-QTOF; MS2; 60 V
Name: Tramadol-N-oxide
Class: Pharmaceutical
Formula: C16H25NO3
Exact mass: 279.1834
SMILES: [O-][N+](C)(C)C[C@H]2CCCC[C@]2(O)c1cc(OC)ccc1
InChI: InChI=1S/C16H25NO3/c1-17(2,19)12-14-7-4-5-10-16(14,18)13-8-6-9-15(11-13)20-3/h6,8-9,11,14,18H,4-5,7,10,12H2,1-3H3/t14-,16+/m1/s1
Instrument: TripleTOF 5600 SCIEX
Instrument type: LC-ESI-QTOF
Ms type: MS2
Ion mode: POSITIVE
Collision energy: 60
Fragmentation mode: CID
Ionization: ESI
Column name: Zorbax Eclipse Plus C18 2.1 mm x 150 mm, 3.5 um, Agilent
Retention time: 6.334 min
Precursor m/z: 280.1907
Precursor type: [M+H]+
m/z	relative intensity
42.0437	31
43.0255	10
44.0593	19
55.0231	10
55.0606	44
56.0561	22
58.0712	408
64.0351	54
65.044	84
67.0581	25
69.0747	13
70.069	23
71.0762	14
77.0416	999
78.0493	76
79.0572	120
80.0525	12
81.0649	21
82.0676	27
83.0869	14
84.082	67
91.0557	514
92.027	472
93.0705	30
94.0451	49
94.0657	28
95.0741	20
102.0451	16
103.0551	55
104.06	10
105.0432	15
105.0688	40
106.041	32
107.0494	502
108.0823	16
109.0642	39
115.0541	206
116.0611	104
117.0685	65
121.0642	477
127.0535	121
128.0616	144
129.069	117
130.0402	12
130.0773	12
131.0481	51
132.0566	22
135.044	252
135.079	36
141.0694	42
143.0836	15
144.0565	222
145.0636	97
146.0725	21
147.0801	34
153.0703	12
157.0659	22
158.0715	85
159.0804	160
160.0859	39
171.0804	26
172.0868	16
173.0993	19
