Mass spectrum: Benodanil; LC-ESI-QTOF; MS2; 40 V
Name: Benodanil
Class: Fungicide
Formula: C13H10INO
Exact mass: 322.9807
SMILES: C1=CC=C(C=C1)NC(=O)C2=CC=CC=C2I
InChI: InChI=1S/C13H10INO/c14-12-9-5-4-8-11(12)13(16)15-10-6-2-1-3-7-10/h1-9H,(H,15,16)
Instrument: TripleTOF 6600 SCIEX
Instrument type: LC-ESI-QTOF
Ms type: MS2
Ion mode: POSITIVE
Collision energy: 40
Fragmentation mode: CID
Ionization: ESI
Column name: Zorbax Eclipse Plus C18 2.1 mm x 150 mm, 3.5 um, Agilent
Retention time: 11.052 min
Precursor m/z: 323.988
Precursor type: [M+H]+
m/z	relative intensity
76.0295	32
77.0373	11
104.0244	19
105.0321	39
202.9344	494
230.93	999
323.9861	11
