Mass spectrum: Chloridazone-methyl-desphenyl; LC-ESI-QTOF; MS2; 40 V
Name: Chloridazone-methyl-desphenyl
Class: Herbicide; Transformation_product; Transformation_product-Metabolite
Formula: C5H6ClN3O
Exact mass: 159.0199
SMILES: CN1C(=O)C(=C(C=N1)N)Cl
InChI: InChI=1S/C5H6ClN3O/c1-9-5(10)4(6)3(7)2-8-9/h2H,7H2,1H3
Instrument: TripleTOF 6600 SCIEX
Instrument type: LC-ESI-QTOF
Ms type: MS2
Ion mode: POSITIVE
Collision energy: 40
Fragmentation mode: CID
Ionization: ESI
Column name: Zorbax Eclipse Plus C18 2.1 mm x 150 mm, 3.5 um, Agilent
Retention time: 4.787 min
Precursor m/z: 160.0272
Precursor type: [M+H]+
m/z	relative intensity
42.0335	62
48.983	124
52.0166	124
53.0248	187
54.0339	249
55.0257	62
58.0273	62
60.9831	62
69.0412	62
74.9864	62
75.9938	124
76.9977	62
82.0259	62
82.0348	62
85.9917	62
87.9936	999
88.9964	437
97.0425	124
100.9874	62
103.9895	62
116.9938	187
117.9972	312
130.0031	312
131.0075	312
145.001	62
146.0093	62
160.0254	62
161.0288	62
