Mass spectrum: Disperse orange 3; LC-ESI-QTOF; MS2; 100 V
Name: Disperse orange 3
Formula: C12H10N4O2
Exact mass: 242.0804
SMILES: C1=CC(=CC=C1N)N=NC2=CC=C(C=C2)[N+](=O)[O-]
InChI: InChI=1S/C12H10N4O2/c13-9-1-3-10(4-2-9)14-15-11-5-7-12(8-6-11)16(17)18/h1-8H,13H2
Instrument: TripleTOF 6600 SCIEX
Instrument type: LC-ESI-QTOF
Ms type: MS2
Ion mode: POSITIVE
Collision energy: 100
Fragmentation mode: CID
Ionization: ESI
Column name: Zorbax Eclipse Plus C18 2.1 mm x 150 mm, 3.5 um, Agilent
Retention time: 12.729 min
Precursor m/z: 243.0877
Precursor type: [M+H]+
m/z	relative intensity
37.0064	41
38.0136	29
39.0221	77
49.0061	117
50.0143	999
51.0216	84
52.0176	17
52.0292	58
53.0376	12
54.0324	10
61.006	17
62.0136	48
63.0215	130
65.037	116
66.0454	46
73.0059	106
74.0136	859
75.0215	393
76.0294	144
78.0325	77
79.0389	11
80.0484	23
92.0483	18
93.056	10
105.0417	67
