Mass spectrum: Myclobutanil; LC-ESI-QTOF; MS2; 100 V
Name: Myclobutanil
Class: Fungicide
Formula: C15H17ClN4
Exact mass: 288.1142
SMILES: CCCCC(Cn1cncn1)(C#N)c2ccc(Cl)cc2
InChI: InChI=1S/C15H17ClN4/c1-2-3-8-15(9-17,10-20-12-18-11-19-20)13-4-6-14(16)7-5-13/h4-7,11-12H,2-3,8,10H2,1H3
Instrument: TripleTOF 6600 SCIEX
Instrument type: LC-ESI-QTOF
Ms type: MS2
Ion mode: POSITIVE
Collision energy: 100
Fragmentation mode: CID
Ionization: ESI
Column name: Zorbax Eclipse Plus C18 2.1 mm x 150 mm, 3.5 um, Agilent
Retention time: 12.025 min
Precursor m/z: 289.1215
Precursor type: [M+H]+
m/z	relative intensity
37.007	23
38.015	26
39.0234	97
41.0388	33
42.0221	28
43.0296	390
46.9683	18
48.9837	54
49.0073	14
50.0151	49
51.0228	71
59.9994	9
61.0071	49
62.0152	149
63.023	520
64.0311	40
65.0384	80
70.0403	667
72.9842	357
74.0151	80
74.9992	40
75.0233	205
76.0309	40
77.0385	89
82.0402	28
87.0226	16
88.0196	14
88.0309	18
89.039	999
90.0462	253
96.9837	26
98.9995	352
101.0396	40
102.0338	9
102.047	89
103.0541	18
113.0378	14
114.0344	11
114.0472	16
115.0547	402
116.0621	33
123.0002	26
125.0156	132
126.0469	26
127.0412	11
127.0548	23
128.0622	59
129.0455	21
130.0406	9
130.0659	14
152.0602	11
