Mass spectrum: Codeine; LC-ESI-QTOF; MS2; 50 V
Name: Codeine
Formula: C18H21NO3
Exact mass: 299.1521
SMILES: CN1CCC23C4C1CC5=C2C(=C(C=C5)OC)OC3C(C=C4)O
InChI: InChI=1S/C18H21NO3/c1-19-8-7-18-11-4-5-13(20)17(18)22-16-14(21-2)6-3-10(15(16)18)9-12(11)19/h3-6,11-13,17,20H,7-9H2,1-2H3
Instrument: TripleTOF 6600 SCIEX
Instrument type: LC-ESI-QTOF
Ms type: MS2
Ion mode: POSITIVE
Collision energy: 50
Fragmentation mode: CID
Ionization: ESI
Column name: Zorbax Eclipse Plus C18 2.1 mm x 150 mm, 3.5 um, Agilent
Retention time: 5.043 min
Precursor m/z: 300.1594
Precursor type: [M+H]+
m/z	relative intensity
42.0332	12
44.0487	96
55.0173	32
57.0328	19
58.0642	89
69.0324	21
77.0377	47
79.0524	14
91.0526	50
103.0519	41
105.0686	11
107.047	13
115.0522	142
116.0605	23
117.0671	12
121.064	48
122.0351	15
127.0519	55
128.0608	181
129.0688	97
131.0476	39
132.0775	15
137.0586	127
139.056	20
140.061	11
141.0682	257
142.0758	32
143.0486	41
143.0843	20
144.0556	231
145.0638	38
146.0343	19
146.067	23
151.0534	28
152.0602	226
153.0684	624
154.0752	135
155.0495	72
155.0839	353
156.0558	137
157.0634	93
158.0715	139
159.043	39
159.0791	128
160.0522	12
160.0745	31
161.0583	292
164.0645	39
165.0684	999
166.0758	122
167.084	84
168.055	214
169.0638	124
170.0349	14
170.0716	89
171.0446	66
171.0792	524
172.0507	73
172.0863	113
173.095	27
174.0667	44
175.0746	68
176.0639	28
177.0686	48
178.0763	105
179.0848	99
180.056	55
180.0942	18
181.0639	593
181.0948	21
182.071	243
183.0455	123
183.0792	304
184.0517	82
184.0852	45
185.0582	213
185.0938	60
186.065	96
187.0734	132
187.1094	47
189.0683	61
190.0773	74
191.085	133
192.0553	12
192.0984	19
193.0648	208
193.1005	20
194.0712	259
195.0785	105
196.0483	11
197.0578	178
197.0943	63
198.0664	275
199.0744	494
200.0816	105
201.068	53
201.0921	34
202.0774	36
203.0859	20
205.0626	50
207.0792	65
208.0509	41
208.0871	52
209.0574	138
209.091	32
210.0675	207
211.0752	111
212.0818	92
213.0532	21
213.0905	149
214.0904	23
215.1056	209
218.0725	28
219.0783	55
220.0874	38
220.1112	48
221.0605	62
221.095	32
223.0737	186
224.0811	20
225.0588	10
225.0897	259
226.0616	22
226.0875	21
227.0696	18
228.0794	14
234.092	14
235.0735	24
236.0794	42
237.0861	19
238.0945	21
238.1194	14
239.0723	14
239.0996	16
241.0844	145
243.1015	49
248.1053	36
250.122	32
251.1003	37
252.1016	35
266.1166	111
267.1257	25
282.1482	29
300.1587	158
