Mass spectrum: 1,5-Naphthalenediamine; LC-ESI-QTOF; MS2; 40 V
Name: 1,5-Naphthalenediamine
Formula: C10H10N2
Exact mass: 158.0844
SMILES: C1=CC2=C(C=CC=C2N)C(=C1)N
InChI: InChI=1S/C10H10N2/c11-9-5-1-3-7-8(9)4-2-6-10(7)12/h1-6H,11-12H2
Instrument: TripleTOF X500R SCIEX
Instrument type: LC-ESI-QTOF
Ms type: MS2
Ion mode: POSITIVE
Collision energy: 40
Fragmentation mode: CID
Ionization: ESI
Column name: Zorbax Eclipse Plus C18 2.1 mm x 150 mm, 3.5 um, Agilent
Retention time: 2.752 min
Precursor m/z: 159.0917
Precursor type: [M+H]+
m/z	relative intensity
89.0427	43
91.0592	17
93.0563	17
103.0547	43
114.045	52
115.0552	999
116.0622	182
117.0577	78
118.0608	17
126.0493	17
130.065	165
131.0735	60
132.0805	26
140.0492	26
141.0572	104
142.0466	17
142.0658	130
143.0745	443
157.0762	130
158.0839	286
159.0997	26
