Mass spectrum: Prochloraz; LC-ESI-QTOF; MS2; 60 V
Name: Prochloraz
Class: Fungicide
Formula: C15H16Cl3N3O2
Exact mass: 375.0308
SMILES: CCCN(CCOc1c(cc(cc1Cl)Cl)Cl)C(=O)n2ccnc2
InChI: InChI=1S/C15H16Cl3N3O2/c1-2-4-20(15(22)21-5-3-19-10-21)6-7-23-14-12(17)8-11(16)9-13(14)18/h3,5,8-10H,2,4,6-7H2,1H3
Instrument: TripleTOF 6600 SCIEX
Instrument type: LC-ESI-QTOF
Ms type: MS2
Ion mode: POSITIVE
Collision energy: 60
Fragmentation mode: CID
Ionization: ESI
Column name: Zorbax Eclipse Plus C18 2.1 mm x 150 mm, 3.5 um, Agilent
Retention time: 11.258 min
Precursor m/z: 376.0381
Precursor type: [M+H]+
m/z	relative intensity
39.0228	82
41.0386	360
42.0337	282
43.0544	489
44.0497	31
56.0496	391
57.0572	74
70.0288	999
70.0429	23
70.0476	19
70.0653	642
72.0432	50
84.0799	19
85.0889	31
98.0595	31
110.9974	15
112.0745	19
122.9994	39
124.0069	19
125.0148	78
132.9608	215
138.0102	23
139.0169	19
142.9442	62
153.0088	27
158.9761	148
159.9832	50
160.9546	117
161.9638	383
166.921	571
167.0139	39
169.9688	19
173.9865	35
174.9702	66
178.9222	31
179.9293	113
180.0189	19
186.9702	19
187.979	70
192.936	23
194.9158	313
194.951	31
196.9319	152
206.9293	39
215.9969	19
222.9453	43
