Mass spectrum: Cyanazine; LC-ESI-QTOF; MS2; 20 V
Name: Cyanazine
Class: Herbicide
Formula: C9H13ClN6
Exact mass: 240.089
SMILES: CCNc1nc(Cl)nc(NC(C)(C)C#N)n1
InChI: InChI=1S/C9H13ClN6/c1-4-12-7-13-6(10)14-8(15-7)16-9(2,3)5-11/h4H2,1-3H3,(H2,12,13,14,15,16)
Instrument: TripleTOF 5600 SCIEX
Instrument type: LC-ESI-QTOF
Ms type: MS2
Ion mode: POSITIVE
Collision energy: 20
Fragmentation mode: CID
Ionization: ESI
Column name: Zorbax Eclipse Plus C18 2.1 mm x 150 mm, 3.5 um, Agilent
Retention time: 9.107 min
Precursor m/z: 241.0963
Precursor type: [M+H]+
m/z	relative intensity
96.0568	19
104.001	15
132.0321	13
163.0971	17
174.0533	36
205.1193	58
214.0859	828
241.0966	999
