Mass spectrum: Haloxyfop; LC-ESI-QTOF; MS2; 40 V
Name: Haloxyfop
Class: Herbicide
Formula: C15H11ClF3NO4
Exact mass: 361.0329
SMILES: CC(C(=O)O)OC1=CC=C(C=C1)OC2=C(C=C(C=N2)C(F)(F)F)Cl
InChI: InChI=1S/C15H11ClF3NO4/c1-8(14(21)22)23-10-2-4-11(5-3-10)24-13-12(16)6-9(7-20-13)15(17,18)19/h2-8H,1H3,(H,21,22)
Instrument: TripleTOF 5600 SCIEX
Instrument type: LC-ESI-QTOF
Ms type: MS2
Ion mode: POSITIVE
Collision energy: 40
Fragmentation mode: CID
Ionization: ESI
Column name: Zorbax Eclipse Plus C18 2.1 mm x 150 mm, 3.5 um, Agilent
Retention time: 12.921 min
Precursor m/z: 362.0401
Precursor type: [M+H]+
m/z	relative intensity
65.0413	70
91.0557	999
119.0469	127
121.0275	77
197.9905	49
209.0439	63
216.0197	35
219.0047	42
220.0169	35
226.0446	113
232.0118	63
237.0355	35
247.0371	70
248.0293	28
252.0626	49
254.0389	42
260.042	99
261.011	85
270.027	56
272.0076	935
288.0007	793
288.0385	588
289.0106	340
290.0207	113
298.0252	49
316.033	488
