Mass spectrum: Sildenafil; LC-ESI-QTOF; MS2; 150 V
Name: Sildenafil
Class: Pharmaceutical
Formula: C22H30N6O4S
Exact mass: 474.2049
SMILES: CCCC1=NN(C2=C1NC(=NC2=O)C3=C(C=CC(=C3)S(=O)(=O)N4CCN(CC4)C)OCC)C
InChI: InChI=1S/C22H30N6O4S/c1-5-7-17-19-20(27(4)25-17)22(29)24-21(23-19)16-14-15(8-9-18(16)32-6-2)33(30,31)28-12-10-26(3)11-13-28/h8-9,14H,5-7,10-13H2,1-4H3,(H,23,24,29)
Instrument: TripleTOF 5600 SCIEX
Instrument type: LC-ESI-QTOF
Ms type: MS2
Ion mode: POSITIVE
Collision energy: 150
Fragmentation mode: CID
Ionization: ESI
Column name: Zorbax Eclipse Plus C18 2.1 mm x 150 mm, 3.5 um, Agilent
Retention time: 7.283 min
Precursor m/z: 475.2122
Precursor type: [M+H]+
m/z	relative intensity
42.0481	228
43.0533	67
44.0617	43
51.0324	30
53.0204	30
53.0275	37
56.058	148
58.0739	999
65.0456	30
67.0396	37
70.0717	37
75.0259	98
76.0365	49
77.0437	117
78.0381	74
80.0551	24
81.0488	37
89.0443	55
90.0389	92
91.0476	37
95.063	37
101.0386	37
102.0363	98
103.0401	86
104.0513	43
105.0459	61
114.0343	37
115.0442	49
116.049	67
117.0433	49
127.0371	43
128.0488	111
129.0465	129
130.0409	49
131.0615	24
136.0482	24
140.0538	43
141.0475	43
142.0541	80
143.0558	43
152.0501	24
153.0439	43
155.0612	55
156.0582	55
167.0596	37
168.0595	49
170.0715	61
195.068	30
