Mass spectrum: Ranitidine; LC-ESI-QTOF; MS2; 60 V
Name: Ranitidine
Class: Pharmaceutical
Formula: C13H22N4O3S
Exact mass: 314.1413
SMILES: CNC(=C[N+](=O)[O-])NCCSCC1=CC=C(O1)CN(C)C
InChI: InChI=1S/C13H22N4O3S/c1-14-13(9-17(18)19)15-6-7-21-10-12-5-4-11(20-12)8-16(2)3/h4-5,9,14-15H,6-8,10H2,1-3H3
Instrument: TripleTOF 5600 SCIEX
Instrument type: LC-ESI-QTOF
Ms type: MS2
Ion mode: POSITIVE
Collision energy: 60
Fragmentation mode: CID
Ionization: ESI
Column name: Zorbax Eclipse Plus C18 2.1 mm x 150 mm, 3.5 um, Agilent
Retention time: 4.832 min
Precursor m/z: 315.1485
Precursor type: [M+H]+
m/z	relative intensity
42.0435	34
53.0443	33
55.0466	33
56.0539	79
57.0497	15
58.0693	15
60.0064	12
68.0525	32
71.0629	27
77.0421	61
78.0488	15
79.0561	30
80.0504	32
81.036	737
82.0557	11
82.0655	15
83.0619	75
84.0703	39
88.0232	27
91.0543	29
93.0569	13
93.0702	12
94.0442	22
94.0661	83
95.0505	48
95.0735	16
96.0695	20
97.0117	32
97.0769	460
98.0843	121
101.0298	19
102.0381	999
104.0497	55
105.0572	12
106.0659	26
107.0495	239
108.0563	22
108.0802	23
109.0759	18
110.063	23
110.0961	43
115.034	27
117.0516	43
118.065	58
119.0578	15
120.0696	11
120.0804	30
121.0759	124
122.0592	19
122.0849	12
123.0264	19
124.0754	20
125.0056	422
129.0473	62
130.0552	184
131.0257	12
131.0617	16
132.0437	121
132.0781	18
133.052	99
133.0754	26
134.06	25
134.0823	15
135.0257	22
135.0914	132
136.0731	12
137.1065	16
139.0325	25
140.0529	13
144.0679	11
145.0758	12
146.0611	23
147.0908	22
148.0757	144
148.0949	9
149.0699	47
150.0366	23
151.022	22
159.046	15
160.0783	16
163.0876	48
165.1024	19
167.0634	19
177.1028	51
178.0317	40
192.0468	32
