Mass spectrum: Nifedipine; LC-ESI-QTOF; MS2; 140 V
Name: Nifedipine
Class: Pharmaceutical
Formula: C17H18N2O6
Exact mass: 346.1165
SMILES: CC1=C(C(C(=C(N1)C)C(=O)OC)C2=CC=CC=C2[N+](=O)[O-])C(=O)OC
InChI: InChI=1S/C17H18N2O6/c1-9-13(16(20)24-3)15(14(10(2)18-9)17(21)25-4)11-7-5-6-8-12(11)19(22)23/h5-8,15,18H,1-4H3
Instrument: TripleTOF 5600 SCIEX
Instrument type: LC-ESI-QTOF
Ms type: MS2
Ion mode: POSITIVE
Collision energy: 140
Fragmentation mode: CID
Ionization: ESI
Column name: Zorbax Eclipse Plus C18 2.1 mm x 150 mm, 3.5 um, Agilent
Retention time: 10.896 min
Precursor m/z: 347.1238
Precursor type: [M+H]+
m/z	relative intensity
42.046	30
43.0309	12
50.0251	75
52.0284	13
61.0152	48
62.0223	118
63.0302	280
64.0246	13
65.0459	124
67.0237	28
73.0134	25
74.0208	284
75.0287	439
76.036	150
77.0446	585
78.0418	22
78.0524	60
85.0125	34
86.02	109
87.0272	180
88.0344	181
89.0433	630
90.0369	24
90.0496	48
91.0576	37
92.0546	18
98.0188	198
99.0264	256
100.0283	101
101.0417	219
102.0495	250
103.0472	10
103.0589	13
104.0544	13
106.0676	13
110.0184	19
111.0251	28
112.0296	36
113.0417	506
114.0448	207
115.0573	616
116.0526	65
117.0602	31
123.0139	21
124.0339	22
125.041	142
126.0485	404
127.0561	391
128.0578	271
129.0469	22
129.0601	15
130.0673	15
137.0406	107
138.0477	147
139.0561	999
140.0518	610
141.0629	54
149.0411	22
150.0467	171
151.0542	245
152.0606	319
153.0583	80
154.0666	74
155.0624	15
163.0531	42
164.0504	330
165.0531	112
166.0662	328
167.0747	139
168.0732	22
177.0591	27
178.0663	28
179.0623	39
180.0601	10
180.0809	13
181.0803	10
191.0609	86
192.0674	74
193.0738	12
