Mass spectrum: Nitrendipine; LC-ESI-QTOF; MS2; 130 V
Name: Nitrendipine
Class: Pharmaceutical
Formula: C18H20N2O6
Exact mass: 360.1321
SMILES: CCOC(=O)C1=C(NC(=C(C1C2=CC(=CC=C2)[N+](=O)[O-])C(=O)OC)C)C
InChI: InChI=1S/C18H20N2O6/c1-5-26-18(22)15-11(3)19-10(2)14(17(21)25-4)16(15)12-7-6-8-13(9-12)20(23)24/h6-9,16,19H,5H2,1-4H3
Instrument: TripleTOF 5600 SCIEX
Instrument type: LC-ESI-QTOF
Ms type: MS2
Ion mode: POSITIVE
Collision energy: 130
Fragmentation mode: CID
Ionization: ESI
Column name: Zorbax Eclipse Plus C18 2.1 mm x 150 mm, 3.5 um, Agilent
Retention time: 12.373 min
Precursor m/z: 361.1394
Precursor type: [M+H]+
m/z	relative intensity
65.0447	82
67.0244	335
74.0195	82
75.0301	109
76.0368	82
77.0434	492
78.0379	41
78.0529	82
85.012	34
87.0268	61
88.0349	68
89.0404	287
91.0561	47
93.0589	41
98.0162	41
99.0261	61
101.0394	95
102.0455	184
103.0563	27
104.0509	82
106.065	54
113.0404	253
114.0473	102
115.0549	608
125.0397	68
126.0462	239
127.0544	403
128.063	260
137.0383	75
138.0508	75
139.0542	999
140.052	266
141.063	54
150.0464	218
151.0556	492
152.0626	944
153.0582	54
153.0715	68
154.0668	130
162.0471	75
163.0535	95
164.0531	116
165.0646	95
166.064	218
167.075	109
168.0817	61
177.0589	68
178.0675	143
179.0739	34
180.0814	109
181.098	34
