Mass spectrum: Metalaxyl; LC-ESI-QTOF; MS2; 60 V
Name: Metalaxyl
Class: Fungicide
Formula: C15H21NO4
Exact mass: 279.1471
SMILES: CC1=C(C(=CC=C1)C)N(C(C)C(=O)OC)C(=O)COC
InChI: InChI=1S/C15H21NO4/c1-10-7-6-8-11(2)14(10)16(13(17)9-19-4)12(3)15(18)20-5/h6-8,12H,9H2,1-5H3
Instrument: TripleTOF 6600 SCIEX
Instrument type: LC-ESI-QTOF
Ms type: MS2
Ion mode: POSITIVE
Collision energy: 60
Fragmentation mode: CID
Ionization: ESI
Column name: Zorbax Eclipse Plus C18 2.1 mm x 150 mm, 3.5 um, Agilent
Retention time: 10.17 min
Precursor m/z: 280.1543
Precursor type: [M+H]+
m/z	relative intensity
45.0336	905
51.0228	24
65.0382	24
77.0385	267
79.0542	267
89.0379	17
90.0467	20
91.0542	353
93.0691	20
103.0539	194
104.0612	27
105.0695	502
106.064	76
106.0774	62
107.0726	13
107.0854	27
115.0538	114
116.0484	17
116.0611	13
117.0574	676
118.0647	225
119.0725	76
119.0834	48
120.0796	124
121.0877	34
127.0534	17
128.061	58
130.0648	801
131.0727	131
132.0809	999
133.0879	176
134.0618	41
134.0962	631
135.067	41
142.0641	27
143.0725	52
144.0805	613
145.0879	353
146.0956	76
147.1108	13
148.0744	58
148.1114	204
149.0846	41
150.0908	48
158.0963	27
160.1112	215
162.1269	31
164.1078	27
