Mass spectrum: Diphenyl phosphate; LC-ESI-QTOF; MS2; 40 V
Name: Diphenyl phosphate
Class: Industrial_process
Formula: C12H11O4P
Exact mass: 250.0395
InChI: InChI=1S/C12H11O4P/c13-17(14,15-11-7-3-1-4-8-11)16-12-9-5-2-6-10-12/h1-10H,(H,13,14)
Instrument: TripleTOF 5600 SCIEX
Instrument type: LC-ESI-QTOF
Ms type: CID
Ion mode: POSITIVE
Collision energy: 40
Ionization: ESI
Column name: Zorbax Eclipse Plus C18 2.1 mm x 150 mm, 3.5 um, Agilent
Retention time: 8.14 min
Precursor m/z: 251.0468
Precursor type: [M+H]+
m/z	relative intensity
51.0232	111
77.0384	999
95.0487	79
151.0565	95
152.0621	531
153.0674	134
157.0078	47
168.0591	103
175.0156	150
187.0294	39
215.0293	150
233.0373	95
251.0462	293
