Mass spectrum: Tributyltetradecylphosphonium; LC-ESI-QTOF; MS2; 90 V
Name: Tributyltetradecylphosphonium
Formula: [C26H56P]+
Exact mass: 399.4114
SMILES: CCCCCCCCCCCCCC[P+](CCCC)(CCCC)CCCC
InChI: InChI=1S/C26H56P/c1-5-9-13-14-15-16-17-18-19-20-21-22-26-27(23-10-6-2,24-11-7-3)25-12-8-4/h5-26H2,1-4H3/q+1
Instrument: TripleTOF 5600 SCIEX
Instrument type: LC-ESI-QTOF
Ms type: MS2
Ion mode: POSITIVE
Collision energy: 90
Fragmentation mode: CID
Ionization: ESI
Column name: Zorbax Eclipse Plus C18 2.1 mm x 150 mm, 3.5 um, Agilent
Retention time: 14.891 min
Precursor m/z: 399.4114
Precursor type: [M]+
m/z	relative intensity
41.0391	50
45.9972	72
56.989	88
59.0046	126
61.0203	361
62.0279	371
75.0355	373
76.0433	999
89.05	151
90.0582	275
103.0655	115
115.0659	66
117.0819	151
131.0977	286
145.1143	157
159.1292	91
173.146	315
187.1617	147
201.1768	69
215.1925	145
229.2086	244
