Mass spectrum: 3-Alizarinsulfonic acid; LC-ESI-QTOF; MS2; 100 V
Name: 3-Alizarinsulfonic acid
Formula: C14H8O7S
Exact mass: 319.9991
SMILES: C1=CC=C2C(=C1)C(=O)C3=CC(=C(C(=C3C2=O)O)O)S(=O)(=O)O
InChI: InChI=1S/C14H8O7S/c15-11-6-3-1-2-4-7(6)12(16)10-8(11)5-9(22(19,20)21)13(17)14(10)18/h1-5,17-18H,(H,19,20,21)
Instrument: TripleTOF 6600 SCIEX
Instrument type: LC-ESI-QTOF
Ms type: MS2
Ion mode: POSITIVE
Collision energy: 100
Fragmentation mode: CID
Ionization: ESI
Column name: Zorbax Eclipse Plus C18 2.1 mm x 150 mm, 3.5 um, Agilent
Retention time: 8.229 min
Precursor m/z: 321.0064
Precursor type: [M+H]+
m/z	relative intensity
51.023	194
74.0139	27
75.0219	333
76.0306	27
77.0379	999
79.017	27
86.0136	83
87.02	83
89.0372	27
100.0292	55
101.0376	277
105.0345	55
126.0445	333
127.0505	166
127.0592	111
129.0437	111
137.0351	27
