Mass spectrum: Fluazifop-P-butyl; LC-ESI-QTOF; MS2; 40 V
Name: Fluazifop-P-butyl
Class: Herbicide
Formula: C19H20F3NO4
Exact mass: 383.1344
SMILES: CCCCOC(=O)C(C)OC1=CC=C(C=C1)OC2=NC=C(C=C2)C(F)(F)F
InChI: InChI=1S/C19H20F3NO4/c1-3-4-11-25-18(24)13(2)26-15-6-8-16(9-7-15)27-17-10-5-14(12-23-17)19(20,21)22/h5-10,12-13H,3-4,11H2,1-2H3
Instrument: TripleTOF 6600 SCIEX
Instrument type: LC-ESI-QTOF
Ms type: MS2
Ion mode: POSITIVE
Collision energy: 40
Fragmentation mode: CID
Ionization: ESI
Column name: Zorbax Eclipse Plus C18 2.1 mm x 150 mm, 3.5 um, Agilent
Retention time: 15.933 min
Precursor m/z: 384.1417
Precursor type: [M+H]+
m/z	relative intensity
41.0384	11
57.0693	13
65.0378	13
91.0537	326
119.0484	64
121.0275	16
147.027	12
164.0304	21
213.0767	13
226.0818	22
227.0538	76
236.0673	19
238.0465	311
254.0699	733
255.0494	163
256.0568	127
264.0607	17
282.073	999
328.0775	48
