Mass spectrum: 6alpha-Methylprednisolone; LC-ESI-QTOF; MS2; 70 V
Name: 6alpha-Methylprednisolone
Class: Pharmaceutical
Formula: C22H30O5
Exact mass: 374.2093
SMILES: C[C@H]1C[C@H]2[C@@H]3CC[C@](O)(C(=O)CO)[C@@]3(C)C[C@H](O)[C@@H]2[C@@]4(C)C=CC(=O)C=C14
InChI: InChI=1S/C22H30O5/c1-12-8-14-15-5-7-22(27,18(26)11-23)21(15,3)10-17(25)19(14)20(2)6-4-13(24)9-16(12)20/h4,6,9,12,14-15,17,19,23,25,27H,5,7-8,10-11H2,1-3H3/t12-,14-,15-,17-,19+,20-,21-,22-/m0/s1
Instrument: TripleTOF 5600 SCIEX
Instrument type: LC-ESI-QTOF
Ms type: MS2
Ion mode: POSITIVE
Collision energy: 70
Fragmentation mode: CID
Ionization: ESI
Column name: Zorbax Eclipse Plus C18 2.1 mm x 150 mm, 3.5 um, Agilent
Retention time: 9.016 min
Precursor m/z: 375.2166
Precursor type: [M+H]+
m/z	relative intensity
65.0425	41
67.0582	69
77.0404	388
79.0546	242
81.071	90
91.0551	999
91.0778	41
93.0701	180
95.0856	41
103.0558	104
104.0647	34
105.0695	679
105.101	34
107.0478	55
107.0843	173
111.0813	27
115.0534	631
116.0616	138
117.0691	249
117.0924	34
119.0837	124
121.0637	603
123.079	27
127.0539	104
128.0608	388
129.0676	353
130.0778	69
131.0469	111
131.0842	173
132.0543	34
133.0673	41
133.0996	111
135.0797	485
137.0571	41
141.0691	388
142.0756	374
143.0827	90
144.0566	152
145.064	381
145.0922	41
146.0714	326
147.0792	55
152.0613	159
153.0682	159
154.0761	111
155.0828	131
157.0639	194
157.1007	62
158.071	339
159.0787	166
159.117	27
161.0951	208
165.0684	437
166.0762	152
167.0852	131
168.0906	69
169.0635	111
169.1	55
170.071	97
171.0795	208
172.0886	187
173.0953	62
177.068	48
178.0767	339
179.0835	222
180.0945	83
181.0631	409
181.101	97
182.0705	111
183.0784	111
185.0954	235
187.1125	48
189.0694	131
190.0774	117
191.0839	180
192.0918	152
193.1	222
194.0698	166
194.1087	55
195.0795	409
196.086	159
197.0955	83
201.0669	41
202.0771	173
203.0851	152
204.0906	55
205.062	34
205.1001	166
206.0735	41
206.1061	55
207.0781	159
207.1166	41
208.0865	228
209.0945	450
210.1001	83
211.1097	83
215.084	97
216.0942	76
217.1009	55
218.0723	55
218.106	41
219.0789	111
219.1151	48
220.0885	76
221.094	201
222.102	152
223.1102	194
224.1229	48
228.0931	27
229.1014	27
231.0805	41
231.1192	27
232.0847	41
233.097	62
233.1406	27
234.1027	62
235.1118	145
236.1197	76
237.122	48
244.0857	34
245.0951	117
246.0981	34
249.1246	41
250.1356	62
259.1122	55
265.1593	76
