Mass spectrum: Thioridazine; LC-ESI-QTOF; MS2; 150 V
Name: Thioridazine
Class: Pharmaceutical
Formula: C21H26N2S2
Exact mass: 370.1537
SMILES: CN1CCCCC1CCN2C3=CC=CC=C3SC4=C2C=C(C=C4)SC
InChI: InChI=1S/C21H26N2S2/c1-22-13-6-5-7-16(22)12-14-23-18-8-3-4-9-20(18)25-21-11-10-17(24-2)15-19(21)23/h3-4,8-11,15-16H,5-7,12-14H2,1-2H3
Instrument: TripleTOF 5600 SCIEX
Instrument type: LC-ESI-QTOF
Ms type: MS2
Ion mode: POSITIVE
Collision energy: 150
Fragmentation mode: CID
Ionization: ESI
Column name: Zorbax Eclipse Plus C18 2.1 mm x 150 mm, 3.5 um, Agilent
Retention time: 9.472 min
Precursor m/z: 371.161
Precursor type: [M+H]+
m/z	relative intensity
42.0439	398
44.0584	38
51.0281	17
55.0603	35
56.0557	31
57.0616	15
58.0697	45
65.0443	24
67.0544	19
68.0534	224
68.9833	51
70.0695	589
74.0193	44
75.0253	44
76.0343	33
77.0412	139
78.0487	12
80.0521	15
82.0676	81
83.0746	21
84.0841	14
86.0173	22
87.027	47
88.0329	31
89.0411	155
90.0482	10
92.9802	12
96.0802	24
98.0168	45
98.0971	331
99.0229	61
101.0395	40
102.0468	45
108.0029	10
113.0386	167
114.0458	67
115.0546	135
116.05	22
117.0577	14
125.0379	100
126.0466	162
127.0528	102
128.0491	60
134.0177	10
137.0381	61
138.0462	77
139.0548	999
140.05	462
141.0579	12
149.0395	37
150.0466	361
151.0545	317
152.0554	165
153.057	67
154.064	22
158.02	15
163.0561	28
164.0484	114
165.0562	28
165.0711	10
166.0652	465
167.0731	245
175.0421	15
176.053	26
177.0571	104
178.0648	52
182.0174	10
183.0261	19
184.0263	10
190.0634	17
196.023	22
197.0294	12
202.0653	15
208.024	17
209.0305	33
210.0343	10
