Mass spectrum: Trimethoprim; LC-ESI-QTOF; MS2; 60 V
Name: Trimethoprim
Class: Pharmaceutical
Formula: C14H18N4O3
Exact mass: 290.1379
SMILES: COC1=CC(=CC(=C1OC)OC)CC2=CN=C(N=C2N)N
InChI: InChI=1S/C14H18N4O3/c1-19-10-5-8(6-11(20-2)12(10)21-3)4-9-7-17-14(16)18-13(9)15/h5-7H,4H2,1-3H3,(H4,15,16,17,18)
Instrument: TripleTOF 5600 SCIEX
Instrument type: LC-ESI-QTOF
Ms type: MS2
Ion mode: POSITIVE
Collision energy: 60
Fragmentation mode: CID
Ionization: ESI
Column name: Zorbax Eclipse Plus C18 2.1 mm x 150 mm, 3.5 um, Agilent
Retention time: 5.112 min
Precursor m/z: 291.1452
Precursor type: [M+H]+
m/z	relative intensity
43.0292	28
54.0335	63
60.0556	14
65.0385	27
67.0552	20
68.0369	123
68.9969	11
69.0459	12
77.038	54
79.0296	21
79.0544	17
81.045	646
82.0523	12
83.0478	96
89.0379	21
91.0551	73
92.0499	11
94.0425	15
94.065	20
95.0491	30
96.0564	25
97.063	11
101.0387	12
103.0543	30
104.0499	43
105.0329	11
106.0402	69
106.0656	18
107.0487	69
108.0558	12
109.0514	109
110.059	557
111.0671	107
115.0545	130
116.0499	60
117.0469	18
117.058	38
118.0606	41
119.0577	74
120.0549	28
121.0283	14
121.0759	57
123.0666	999
124.0743	136
128.0488	92
129.0452	43
130.0653	71
131.0593	132
132.0443	54
132.0792	31
133.0608	10
133.0727	30
134.0607	20
135.0461	24
135.0668	175
137.0606	71
140.05	64
141.0473	15
141.0594	10
142.0657	118
143.06	64
144.0555	96
145.0753	136
146.0713	234
147.0445	46
147.0663	80
148.0564	37
148.0742	97
149.0219	34
149.0757	211
151.0398	34
152.0513	14
153.0456	23
155.0599	33
156.0445	99
157.0387	15
157.0789	82
158.0632	100
159.0522	11
159.0722	34
159.0914	71
160.0762	67
161.0822	614
162.0613	18
162.0904	215
163.098	35
165.0547	20
167.0603	37
168.0533	30
169.0678	24
170.0673	162
171.0619	51
172.0418	54
172.076	87
173.0234	14
173.0804	151
174.0659	223
175.0406	18
175.0626	86
175.0981	90
176.0699	57
181.0702	10
182.072	38
183.0548	14
183.0786	20
184.0845	118
185.0826	162
186.0632	53
186.09	87
187.0541	21
187.0979	315
188.0724	25
188.1037	11
189.0752	146
190.0577	11
190.0834	106
191.0916	56
194.0714	11
196.0458	21
197.0816	34
198.0645	40
198.0897	17
199.0989	138
200.0344	12
200.0777	31
200.1083	18
201.0772	46
201.1137	321
202.0523	10
202.0845	14
203.0931	143
204.0955	12
205.1075	17
211.0994	50
212.0799	34
213.0775	67
214.0656	50
214.0864	38
215.0697	34
215.0922	119
216.079	25
217.068	57
218.08	12
227.0916	37
228.0969	35
229.0723	20
229.1094	322
230.0783	15
230.0914	12
231.0884	479
232.0949	270
233.1045	159
239.0912	14
242.0541	18
243.0877	40
245.1049	139
255.0882	25
257.1023	132
259.0851	63
261.1001	54
275.1145	37
