Mass spectrum: Nitenpyram; LC-ESI-QTOF; MS2; 60 V
Name: Nitenpyram
Class: Pharmaceutical; Insecticide
Formula: C11H15ClN4O2
Exact mass: 270.0884
SMILES: CCN(CC1=CN=C(C=C1)Cl)/C(=C/[N+](=O)[O-])/NC
InChI: InChI=1S/C11H15ClN4O2/c1-3-15(11(13-2)8-16(17)18)7-9-4-5-10(12)14-6-9/h4-6,8,13H,3,7H2,1-2H3/b11-8+
Instrument: TripleTOF 5600 SCIEX
Instrument type: LC-ESI-QTOF
Ms type: MS2
Ion mode: POSITIVE
Collision energy: 60
Fragmentation mode: CID
Ionization: ESI
Column name: Zorbax Eclipse Plus C18 2.1 mm x 150 mm, 3.5 um, Agilent
Retention time: 5.386 min
Precursor m/z: 271.0956
Precursor type: [M+H]+
m/z	relative intensity
42.0435	40
55.0385	11
56.0562	999
57.0495	14
58.0698	33
63.0513	11
70.0687	9
71.0636	16
72.9872	85
78.038	33
78.0569	11
83.057	9
85.078	11
90.0354	195
91.0429	40
91.0575	9
92.0501	19
98.0735	14
99.0007	181
99.0913	26
102.0344	28
104.0492	21
105.0539	14
106.0646	21
111.9924	9
112.0843	11
114.0128	16
116.0495	26
117.056	28
118.0502	11
118.0669	11
119.06	21
125.0029	11
126.0106	402
126.0343	11
129.0448	16
131.0595	28
132.0702	23
133.075	16
138.0096	64
139.0066	52
140.0234	11
141.0214	61
144.0628	26
145.0691	40
146.0725	19
150.0101	38
151.0129	42
152.0248	40
153.0222	28
155.0342	14
160.0858	42
165.023	45
166.0191	9
167.0373	19
169.0536	33
179.0359	69
180.0316	19
193.0541	11
194.047	26
