Mass spectrum: Beclomethasone; LC-ESI-QTOF; MS2; 40 V
Name: Beclomethasone
Class: Pharmaceutical
Formula: C22H29ClO5
Exact mass: 408.1704
SMILES: CC1CC2C3CCC4=CC(=O)C=CC4(C3(C(CC2(C1(C(=O)CO)O)C)O)Cl)C
InChI: InChI=1S/C22H29ClO5/c1-12-8-16-15-5-4-13-9-14(25)6-7-19(13,2)21(15,23)17(26)10-20(16,3)22(12,28)18(27)11-24/h6-7,9,12,15-17,24,26,28H,4-5,8,10-11H2,1-3H3
Instrument: TripleTOF 5600 SCIEX
Instrument type: LC-ESI-QTOF
Ms type: MS2
Ion mode: POSITIVE
Collision energy: 40
Fragmentation mode: CID
Ionization: ESI
Column name: Zorbax Eclipse Plus C18 2.1 mm x 150 mm, 3.5 um, Agilent
Retention time: 9.326 min
Precursor m/z: 409.1776
Precursor type: [M+H]+
m/z	relative intensity
91.054	79
93.0724	79
95.0857	63
101.0582	126
105.0684	79
107.0845	174
109.1023	126
119.0866	158
121.064	618
123.0795	63
133.0633	111
133.1023	111
135.081	333
137.0963	63
143.0764	79
145.0634	158
146.0706	63
147.0818	999
151.075	222
157.1006	63
159.083	174
161.095	269
171.0797	586
171.1184	79
173.097	348
179.0862	95
183.0814	111
185.0962	237
187.1089	126
195.0823	79
196.0938	142
197.0963	285
199.1123	126
205.1031	79
207.057	79
208.0898	126
209.0963	222
209.1348	63
210.1078	126
211.1116	428
213.1299	126
215.1087	126
219.1126	95
219.1185	79
221.0923	237
222.1009	206
223.1093	317
224.1228	206
233.1008	63
235.1138	317
236.1148	142
237.128	555
239.1065	95
239.1422	713
243.1199	79
246.1415	79
247.115	79
248.1097	95
248.12	142
249.1293	333
251.1455	111
251.1778	63
255.125	63
259.1151	111
260.1202	126
261.1252	174
261.164	95
262.1334	285
263.1431	824
264.1475	142
271.1379	63
274.1362	111
276.1568	253
277.1601	539
278.172	237
279.1446	142
279.176	808
286.136	158
289.1563	158
291.1407	111
291.1765	301
295.1735	95
307.1715	158
309.1819	79
319.1731	126
337.1839	63
