Mass spectrum: Fluconazole; LC-ESI-QTOF; MS2; 80 V
Name: Fluconazole
Class: Pharmaceutical
Formula: C13H12F2N6O
Exact mass: 306.1041
SMILES: OC(Cn1cncn1)(Cn2cncn2)c3ccc(F)cc3F
InChI: InChI=1S/C13H12F2N6O/c14-10-1-2-11(12(15)3-10)13(22,4-20-8-16-6-18-20)5-21-9-17-7-19-21/h1-3,6-9,22H,4-5H2
Instrument: TripleTOF 5600 SCIEX
Instrument type: LC-ESI-QTOF
Ms type: MS2
Ion mode: POSITIVE
Collision energy: 80
Fragmentation mode: CID
Ionization: ESI
Column name: Zorbax Eclipse Plus C18 2.1 mm x 150 mm, 3.5 um, Agilent
Retention time: 6.343 min
Precursor m/z: 307.1113
Precursor type: [M+H]+
m/z	relative intensity
51.0284	27
55.0225	27
57.0177	32
70.0432	846
74.0169	119
75.0082	38
75.0257	814
75.0567	21
77.0222	27
77.0398	48
81.0141	21
82.0415	54
91.0535	27
93.0147	59
95.0302	244
98.0158	146
99.0235	792
101.0385	999
107.0295	173
107.0457	21
113.0192	168
115.0357	54
119.0286	814
120.038	43
121.045	119
125.0201	114
126.0346	81
127.0352	765
129.0444	141
131.0286	97
138.0296	21
139.0348	152
141.0176	108
141.0496	27
147.0349	195
150.0308	48
151.0353	863
164.0407	27
