Mass spectrum: 1-Methyladenine; LC-ESI-QTOF; MS2; 40 V
Name: 1-Methyladenine
Class: Metabolite
Formula: C6H7N5
Exact mass: 149.0701
SMILES: CN1C=NC2=NC=NC2=C1N
InChI: InChI=1S/C6H7N5/c1-11-3-10-6-4(5(11)7)8-2-9-6/h2-3H,7H2,1H3
Instrument: TripleTOF 5600 SCIEX
Instrument type: LC-ESI-QTOF
Ms type: MS2
Ion mode: NEGATIVE
Collision energy: 40
Fragmentation mode: CID
Ionization: ESI
Column name: Zorbax Eclipse Plus C18 2.1 mm x 150 mm, 3.5 um, Agilent
Retention time: 2.36 min
Precursor m/z: 148.0626
Precursor type: [M-H]-
m/z	relative intensity
65.0179	44
66.0103	120
79.0178	29
90.0081	48
92.0278	31
106.0288	134
117.0196	94
132.0305	647
133.0393	999
146.0445	83
148.062	202
