Mass spectrum: Metachrome Yellow free acid; LC-ESI-QTOF; MS2; 130 V
Name: Metachrome Yellow free acid
Formula: C13H9N3O5
Exact mass: 287.0542
SMILES: C1=CC(=CC(=C1)[N+](=O)[O-])N=NC2=CC(=C(C=C2)O)C(=O)O
InChI: InChI=1S/C13H9N3O5/c17-12-5-4-9(7-11(12)13(18)19)15-14-8-2-1-3-10(6-8)16(20)21/h1-7,17H,(H,18,19)
Instrument: TripleTOF 6600 SCIEX
Instrument type: LC-ESI-QTOF
Ms type: MS2
Ion mode: POSITIVE
Collision energy: 130
Fragmentation mode: CID
Ionization: ESI
Column name: Zorbax Eclipse Plus C18 2.1 mm x 150 mm, 3.5 um, Agilent
Retention time: 11.919 min
Precursor m/z: 288.0615
Precursor type: [M+H]+
m/z	relative intensity
37.0062	74
38.015	106
39.0222	85
49.0066	53
50.0144	523
51.0091	26
51.0221	170
52.0175	170
53.0012	101
59.9989	37
61.0062	208
62.014	502
63.0216	795
64.0169	26
64.0286	21
73.0067	117
74.0137	999
75.0217	347
76.0169	32
76.0304	26
85.0065	21
86.013	53
87.0225	58
88.0163	21
88.0306	26
89.0375	48
113.0377	42
114.0333	26
