Mass spectrum: Isopyrazam; LC-ESI-QTOF; MS2; 80 V
Name: Isopyrazam
Class: Fungicide
Formula: C20H23F2N3O
Exact mass: 359.1809
SMILES: CC(C)C1C2CCC1C3=C2C=CC=C3NC(=O)C4=CN(N=C4C(F)F)C
InChI: InChI=1S/C20H23F2N3O/c1-10(2)16-12-7-8-13(16)17-11(12)5-4-6-15(17)23-20(26)14-9-25(3)24-18(14)19(21)22/h4-6,9-10,12-13,16,19H,7-8H2,1-3H3,(H,23,26)
Instrument: TripleTOF 6600 SCIEX
Instrument type: LC-ESI-QTOF
Ms type: MS2
Ion mode: POSITIVE
Collision energy: 80
Fragmentation mode: CID
Ionization: ESI
Column name: Zorbax Eclipse Plus C18 2.1 mm x 150 mm, 3.5 um, Agilent
Retention time: 14.619 min
Precursor m/z: 360.1882
Precursor type: [M+H]+
m/z	relative intensity
37.0076	23
38.015	23
39.0234	191
41.0386	230
42.034	149
43.0293	40
43.0544	17
51.0047	10
51.023	42
52.0184	10
53.0385	21
54.0329	14
55.0543	78
57.0129	57
62.0141	10
63.0228	48
65.0378	91
66.0334	12
67.0539	117
68.0111	10
69.0693	36
74.0136	17
75.0227	57
76.0311	10
77.02	12
77.0381	355
78.0327	36
78.0464	21
79.054	44
81.0446	19
81.0685	19
82.0278	44
83.0299	80
84.0234	46
88.0136	17
88.0311	10
89.038	166
90.0454	19
91.0538	112
93.0677	12
94.0514	12
95.0597	48
95.0855	12
97.0086	14
98.0034	31
99.0236	19
101.0379	144
102.0453	115
103.0414	10
103.0536	44
104.048	38
105.0412	31
105.0689	12
106.0204	10
106.0666	10
107.0273	29
109.0395	159
111.034	55
113.0367	80
114.0451	95
115.0533	990
116.0483	102
117.056	70
119.0238	38
119.0574	12
120.0353	14
120.0565	10
121.0436	25
123.0525	10
125.0402	91
126.0452	112
127.0535	481
128.0604	999
129.0433	83
129.0676	68
130.0418	21
130.0643	108
131.0394	85
131.0573	17
132.0428	63
133.0428	85
134.0361	83
135.0439	12
136.0504	17
137.0339	10
138.0341	48
139.0306	238
139.0516	168
140.0486	379
141.0691	355
142.0637	144
142.0763	53
143.0593	36
143.0719	29
144.041	19
144.0787	19
145.0443	38
146.0464	70
147.0537	34
148.0546	59
149.035	10
150.0435	42
151.0545	221
152.0563	396
153.0591	274
154.0624	396
155.0321	25
155.059	289
155.0812	44
156.0413	78
156.0746	70
157.0418	85
157.0704	23
158.0382	119
159.0353	553
160.0513	29
161.0606	10
162.072	10
163.0513	36
164.0503	155
165.068	285
166.0638	398
167.0717	466
168.0721	293
169.0505	12
169.0747	215
170.0567	95
170.0883	14
171.0512	34
172.0549	102
173.0515	68
174.0575	25
175.0373	12
175.064	21
176.0563	87
177.0584	155
178.0648	396
179.0605	487
180.0737	434
181.0366	17
181.0756	219
182.0737	142
183.0555	25
183.0808	29
184.0425	27
184.0653	14
184.0852	36
185.0648	63
186.0648	42
187.065	25
188.0499	21
189.0657	83
190.0642	159
191.0693	306
192.0718	357
193.0751	251
193.0904	46
194.0689	206
195.0561	36
195.0877	119
196.0615	38
196.0864	83
196.1082	14
197.0496	14
197.0675	46
197.0877	19
197.0998	17
198.065	19
199.0686	34
200.0535	12
200.0668	12
201.0605	25
201.0767	12
202.0689	66
203.0683	87
204.0796	234
205.0771	255
206.0713	394
207.0689	102
207.0888	129
208.0628	53
208.0833	155
209.0581	97
210.0643	36
210.1012	34
211.052	14
211.0711	27
212.0797	95
213.0826	10
214.064	23
215.0668	25
215.0843	25
216.0606	36
216.0741	42
217.0705	138
218.0824	106
219.0882	181
220.0848	257
221.0703	51
221.0941	251
222.0782	112
222.1026	51
223.0738	121
224.0807	61
225.0879	27
226.0732	17
226.0908	17
227.0598	57
228.0562	36
228.0795	14
229.0768	44
230.0719	59
231.0827	57
231.0975	14
232.0882	85
232.1118	17
233.0625	51
233.0939	80
234.0684	87
234.1012	159
235.0792	102
236.0816	232
237.0896	38
238.0933	89
241.1003	10
242.0642	12
242.074	21
243.0834	46
244.0832	23
244.1002	10
245.0926	25
245.1088	12
246.0636	14
246.101	51
247.0817	38
247.1063	38
248.0816	117
248.1165	102
249.0886	334
250.0994	176
258.1021	51
259.0847	12
260.0804	51
260.1165	29
261.0958	59
262.0965	274
264.1099	14
271.1222	12
272.0902	12
273.0981	14
274.1016	29
275.1026	46
276.1135	202
277.1235	19
278.1276	27
288.1088	25
290.122	10
