Mass spectrum: Emtricitabine carboxylic acid; LC-ESI-QTOF; MS2; 30 V
Name: Emtricitabine carboxylic acid
Class: Pharmaceutical; Metabolite; Transformation_product; Transformation_product-Metabolite
Formula: C8H8FN3O4S
Exact mass: 261.022
SMILES: C1C(OC(S1)C(=O)O)N2C=C(C(=NC2=O)N)F
InChI: InChI=1S/C8H8FN3O4S/c9-3-1-12(8(15)11-5(3)10)4-2-17-7(16-4)6(13)14/h1,4,7H,2H2,(H,13,14)(H2,10,11,15)
Instrument: TripleTOF 5600 SCIEX
Instrument type: LC-ESI-QTOF
Ms type: MS2
Ion mode: NEGATIVE
Collision energy: 30
Fragmentation mode: CID
Ionization: ESI
Column name: Zorbax Eclipse Plus C18 2.1 mm x 150 mm, 3.5 um, Agilent
Retention time: 4.486 min
Precursor m/z: 260.0147
Precursor type: [M-H]-
m/z	relative intensity
60.9761	168
72.9937	126
85.0209	295
119.0251	84
123.0017	140
128.0254	999
152.025	98
186.0146	211
