Mass spectrum: Meclofenamic acid; LC-ESI-QTOF; MS2; 90 V
Name: Meclofenamic acid
Class: Pharmaceutical
Formula: C14H11Cl2NO2
Exact mass: 295.0167
SMILES: Cc1ccc(c(c1Cl)Nc2ccccc2C(=O)O)Cl
InChI: InChI=1S/C14H11Cl2NO2/c1-8-6-7-10(15)13(12(8)16)17-11-5-3-2-4-9(11)14(18)19/h2-7,17H,1H3,(H,18,19)
Instrument: TripleTOF 5600 SCIEX
Instrument type: LC-ESI-QTOF
Ms type: MS2
Ion mode: POSITIVE
Collision energy: 90
Fragmentation mode: CID
Ionization: ESI
Column name: Zorbax Eclipse Plus C18 2.1 mm x 150 mm, 3.5 um, Agilent
Retention time: 13.705 min
Precursor m/z: 296.024
Precursor type: [M+H]+
m/z	relative intensity
51.0282	11
74.0155	11
75.025	37
76.0326	19
77.041	127
89.0389	26
99.0222	21
101.0378	56
102.0455	39
113.0377	23
115.0525	13
125.0375	87
126.0447	118
127.0524	102
128.0489	112
129.0575	16
137.037	21
138.0461	13
139.053	26
140.0479	41
149.038	29
150.0452	335
150.0806	11
151.0536	870
151.0799	13
152.0604	728
153.058	158
154.0631	26
164.0486	61
165.0551	13
176.0487	56
177.056	435
178.0642	999
179.0722	444
180.0569	9
180.0791	163
207.0673	13
213.0313	82
214.0407	52
242.0388	13
