Mass spectrum: 2-Cyano-3,3-diphenylacrylic acid; LC-ESI-QTOF; MS2; 40 V
Name: 2-Cyano-3,3-diphenylacrylic acid
Formula: C16H11NO2
Exact mass: 249.079
SMILES: C1=CC=C(C=C1)C(=C(C#N)C(=O)O)C2=CC=CC=C2
InChI: InChI=1S/C16H11NO2/c17-11-14(16(18)19)15(12-7-3-1-4-8-12)13-9-5-2-6-10-13/h1-10H,(H,18,19)
Instrument: TripleTOF 5600 SCIEX
Instrument type: LC-ESI-QTOF
Ms type: MS2
Ion mode: POSITIVE
Collision energy: 40
Fragmentation mode: CID
Ionization: ESI
Column name: Zorbax Eclipse Plus C18 2.1 mm x 150 mm, 3.5 um, Agilent
Retention time: 13.705 min
Precursor m/z: 250.0863
Precursor type: [M+H]+
m/z	relative intensity
77.0382	181
105.0342	272
176.061	681
177.0718	590
203.0742	999
204.0784	681
232.069	272
