Mass spectrum: Metolachlor ESA; LC-ESI-QTOF; MS2; 140 V
Name: Metolachlor ESA
Class: Herbicide; Transformation_product-Metabolite
Formula: C15H23NO5S
Exact mass: 329.1297
SMILES: CCC1=CC=CC(=C1N(C(C)COC)C(=O)CS(=O)(=O)O)C
InChI: InChI=1S/C15H23NO5S/c1-5-13-8-6-7-11(2)15(13)16(12(3)9-21-4)14(17)10-22(18,19)20/h6-8,12H,5,9-10H2,1-4H3,(H,18,19,20)
Instrument: TripleTOF 5600 SCIEX
Instrument type: LC-ESI-QTOF
Ms type: MS2
Ion mode: POSITIVE
Collision energy: 140
Fragmentation mode: CID
Ionization: ESI
Column name: Zorbax Eclipse Plus C18 2.1 mm x 150 mm, 3.5 um, Agilent
Retention time: 8.247 min
Precursor m/z: 330.137
Precursor type: [M+H]+
m/z	relative intensity
45.0429	74
51.0319	203
65.0408	296
77.0411	999
78.0455	111
79.0576	74
89.0394	388
90.0475	129
91.056	647
102.0488	148
103.0533	314
103.0656	148
104.0508	92
106.0645	92
115.0533	592
116.0514	92
117.0573	333
118.0621	92
127.0555	92
128.0547	222
129.0576	92
130.0655	832
141.061	74
142.0659	185
143.0727	296
144.0786	277
