Mass spectrum: Bis(2,4,4-trimethylpentyl)phosphinic acid; LC-ESI-QTOF; MS2; 70 V
Name: Bis(2,4,4-trimethylpentyl)phosphinic acid
Class: Industrial_process
Formula: C16H35O2P
Exact mass: 290.2375
SMILES: CC(CC(C)(C)C)CP(=O)(CC(C)CC(C)(C)C)O
InChI: InChI=1S/C16H35O2P/c1-13(9-15(3,4)5)11-19(17,18)12-14(2)10-16(6,7)8/h13-14H,9-12H2,1-8H3,(H,17,18)
Instrument: TripleTOF 6600 SCIEX
Instrument type: LC-ESI-QTOF
Ms type: MS2
Ion mode: POSITIVE
Collision energy: 70
Fragmentation mode: CID
Ionization: ESI
Column name: Zorbax Eclipse Plus C18 2.1 mm x 150 mm, 3.5 um, Agilent
Retention time: 14.45 min
Precursor m/z: 291.2448
Precursor type: [M+H]+
m/z	relative intensity
37.0066	35
38.0018	16
38.0145	26
39.0224	226
41.0383	512
43.0539	129
44.9882	21
46.9675	320
47.9752	20
48.9829	25
53.0123	11
53.0387	13
55.0536	154
56.988	11
57.0694	612
59.0044	15
60.9828	16
62.9988	255
64.978	456
69.069	102
71.004	15
71.0847	10
73.0191	36
76.0071	25
77.014	124
78.9937	999
80.0014	221
81.0088	40
83.0029	15
85.0194	50
87.0354	43
89.0144	73
94.0171	325
97.0042	28
103.03	52
105.0474	15
107.0245	75
117.0451	13
121.0405	40
135.0538	16
145.0771	20
163.0883	21
