Mass spectrum: Icaridin; LC-ESI-QTOF; MS2; 50 V
Name: Icaridin
Class: Insecticide; Biocide; Personal_care_product
Formula: C12H23NO3
Exact mass: 229.1678
SMILES: CCC(C)OC(=O)N1CCCCC1CCO
InChI: InChI=1S/C12H23NO3/c1-3-10(2)16-12(15)13-8-5-4-6-11(13)7-9-14/h10-11,14H,3-9H2,1-2H3
Instrument: TripleTOF 6600 SCIEX
Instrument type: LC-ESI-QTOF
Ms type: MS2
Ion mode: POSITIVE
Collision energy: 50
Fragmentation mode: CID
Ionization: ESI
Column name: Zorbax Eclipse Plus C18 2.1 mm x 150 mm, 3.5 um, Agilent
Retention time: 10.188 min
Precursor m/z: 230.1751
Precursor type: [M+H]+
m/z	relative intensity
30.0328	40
39.0216	85
41.0375	207
43.0529	48
44.0479	57
53.0374	40
55.0529	448
56.0482	269
57.0328	20
57.0678	24
65.0373	85
67.0527	999
69.068	89
70.0635	142
71.0477	183
77.0367	73
79.0518	36
80.0596	24
82.0641	28
84.0789	432
91.052	53
93.0684	138
95.0835	277
112.11	97
128.0685	73
130.1203	118
