Mass spectrum: Michler`s ketone; LC-ESI-QTOF; MS2; 70 V
Name: Michler`s ketone
Formula: C17H20N2O
Exact mass: 268.1576
SMILES: CN(C)C1=CC=C(C=C1)C(=O)C2=CC=C(C=C2)N(C)C
InChI: InChI=1S/C17H20N2O/c1-18(2)15-9-5-13(6-10-15)17(20)14-7-11-16(12-8-14)19(3)4/h5-12H,1-4H3
Instrument: TripleTOF X500R SCIEX
Instrument type: LC-ESI-QTOF
Ms type: MS2
Ion mode: POSITIVE
Collision energy: 70
Fragmentation mode: CID
Ionization: ESI
Column name: Zorbax Eclipse Plus C18 2.1 mm x 150 mm, 3.5 um, Agilent
Retention time: 12.383 min
Precursor m/z: 269.1649
Precursor type: [M+H]+
m/z	relative intensity
39.0232	51
42.0338	337
44.0495	12
51.0229	114
53.0388	24
65.0386	125
77.0387	999
78.0465	124
79.0544	359
80.0495	46
81.0581	19
90.0336	17
91.0547	474
92.0577	99
93.0617	70
94.0649	27
103.0551	61
104.0496	734
105.0577	595
106.066	121
115.0546	27
117.0579	29
118.0654	198
119.0734	73
120.0807	155
132.0461	19
134.0599	189
139.0549	54
140.064	23
141.0701	20
148.0761	241
151.0556	32
152.0622	132
153.0688	51
154.0667	10
165.0699	38
166.0641	58
167.0736	85
168.0576	51
168.0802	13
178.0657	16
179.0724	24
180.0578	29
180.0809	49
181.0882	44
182.0694	13
182.098	17
192.0802	20
193.0877	34
194.0641	13
194.0982	50
195.0681	46
195.095	21
196.0735	9
206.083	35
207.0899	21
208.0769	53
209.0836	40
210.0913	50
210.1152	10
211.0995	31
221.1071	81
222.0815	39
222.1164	13
237.1029	125
238.1102	35
