Mass spectrum: Clodinafop-Propargyl; LC-ESI-QTOF; MS2; 40 V
Name: Clodinafop-Propargyl
Class: Herbicide
Formula: C17H13ClFNO4
Exact mass: 349.0517
SMILES: CC(C(=O)OCC#C)OC1=CC=C(C=C1)OC2=C(C=C(C=N2)Cl)F
InChI: InChI=1S/C17H13ClFNO4/c1-3-8-22-17(21)11(2)23-13-4-6-14(7-5-13)24-16-15(19)9-12(18)10-20-16/h1,4-7,9-11H,8H2,2H3
Instrument: TripleTOF 6600 SCIEX
Instrument type: LC-ESI-QTOF
Ms type: MS2
Ion mode: POSITIVE
Collision energy: 40
Fragmentation mode: CID
Ionization: ESI
Column name: Zorbax Eclipse Plus C18 2.1 mm x 150 mm, 3.5 um, Agilent
Retention time: 13.951 min
Precursor m/z: 350.059
Precursor type: [M+H]+
m/z	relative intensity
65.0369	37
77.0364	10
91.0525	999
92.0603	37
94.0384	12
103.0532	10
119.0464	96
120.0546	86
121.0264	27
121.0627	27
128.0594	14
129.0664	12
129.9831	25
131.047	29
143.9992	12
147.994	35
158.0142	12
158.0375	14
159.0455	52
169.0068	14
176.0493	75
182.0146	16
183.0626	14
184.0526	12
185.0617	31
187.0404	31
194.0136	18
202.0633	21
203.0715	56
204.0444	12
210.0101	25
210.0458	23
216.0421	10
219.0224	12
220.0301	31
222.0104	761
222.0379	12
223.0162	21
230.058	16
231.0679	31
238.006	237
238.0411	382
239.0124	128
266.0358	185
276.0203	60
