Mass spectrum: 2-Aminobenzothiazole; LC-ESI-QTOF; MS2; 40 V
Name: 2-Aminobenzothiazole
Formula: C7H6N2S
Exact mass: 150.0252
SMILES: C1=CC=C2C(=C1)N=C(S2)N
InChI: InChI=1S/C7H6N2S/c8-7-9-5-3-1-2-4-6(5)10-7/h1-4H,(H2,8,9)
Instrument: TripleTOF X500R SCIEX
Instrument type: LC-ESI-QTOF
Ms type: MS2
Ion mode: POSITIVE
Collision energy: 40
Fragmentation mode: CID
Ionization: ESI
Column name: Zorbax Eclipse Plus C18 2.1 mm x 150 mm, 3.5 um, Agilent
Retention time: 4.985 min
Precursor m/z: 151.0325
Precursor type: [M+H]+
m/z	relative intensity
39.023	72
43.0296	12
51.0232	14
53.0385	29
59.9903	10
63.0232	28
65.0383	217
68.9796	85
77.0389	61
80.0492	234
82.9947	11
90.0341	67
91.0419	86
92.0496	202
93.0576	35
96.003	18
97.0112	83
106.9945	20
108.0031	117
109.01	999
110.0181	13
118.0526	304
119.0609	15
123.0145	12
124.0212	473
134.0062	40
150.0251	30
151.0318	396
