Mass spectrum: 2-(Methylthio)benzothiazole; LC-ESI-QTOF; MS2; 40 V
Name: 2-(Methylthio)benzothiazole
Class: Industrial_process; Fungicide
Formula: C8H7NS2
Exact mass: 181.002
InChI: InChI=1S/C8H7NS2/c1-10-8-9-6-4-2-3-5-7(6)11-8/h2-5H,1H3
Instrument: TripleTOF 5600 SCIEX
Instrument type: LC-ESI-QTOF
Ms type: CID
Ion mode: POSITIVE
Collision energy: 40
Ionization: ESI
Column name: Zorbax Eclipse Plus C18 2.1 mm x 150 mm, 3.5 um, Agilent
Retention time: 12.209 min
Precursor m/z: 182.0093
Precursor type: [M+H]+
m/z	relative intensity
63.9464	21
65.0416	23
91.0428	82
96.0029	34
103.0413	17
107.9992	17
109.0105	133
123.0132	183
135.0126	102
139.9732	41
165.9771	10
166.9855	999
182.009	32
