Mass spectrum: Cyclohexyldiethanolamine; LC-ESI-QTOF; MS2; 110 V
Name: Cyclohexyldiethanolamine
Formula: C10H21NO2
Exact mass: 187.1572
SMILES: C1CCC(CC1)N(CCO)CCO
InChI: InChI=1S/C10H21NO2/c12-8-6-11(7-9-13)10-4-2-1-3-5-10/h10,12-13H,1-9H2
Instrument: TripleTOF 6600 SCIEX
Instrument type: LC-ESI-QTOF
Ms type: MS2
Ion mode: POSITIVE
Collision energy: 110
Fragmentation mode: CID
Ionization: ESI
Column name: Zorbax Eclipse Plus C18 2.1 mm x 150 mm, 3.5 um, Agilent
Retention time: 4.323 min
Precursor m/z: 188.1645
Precursor type: [M+H]+
m/z	relative intensity
35.9991	38
37.0069	294
38.0025	46
38.0149	255
39.0228	999
41.0384	92
42.0323	46
43.0179	46
45.0333	30
53.0373	30
