Mass spectrum: Triadimefon; LC-ESI-QTOF; MS2; 70 V
Name: Triadimefon
Class: Fungicide; Transformation_product
Formula: C14H16ClN3O2
Exact mass: 293.0931
SMILES: CC(C)(C)C(=O)C(N1C=NC=N1)OC2=CC=C(C=C2)Cl
InChI: InChI=1S/C14H16ClN3O2/c1-14(2,3)12(19)13(18-9-16-8-17-18)20-11-6-4-10(15)5-7-11/h4-9,13H,1-3H3
Instrument: TripleTOF 5600 SCIEX
Instrument type: LC-ESI-QTOF
Ms type: MS2
Ion mode: POSITIVE
Collision energy: 70
Fragmentation mode: CID
Ionization: ESI
Column name: Zorbax Eclipse Plus C18 2.1 mm x 150 mm, 3.5 um, Agilent
Retention time: 12.319 min
Precursor m/z: 294.1004
Precursor type: [M+H]+
m/z	relative intensity
37.0079	22
38.0151	27
39.0232	203
41.039	331
42.0468	12
51.0234	20
55.0549	184
57.0707	376
63.0238	33
65.039	78
67.0545	12
69.0702	91
70.0408	17
70.0785	52
72.9843	254
74.0156	59
75.0235	476
77.0392	197
78.0469	24
82.041	14
84.9853	36
91.0546	102
93.0348	35
94.0412	101
99.0002	999
101.0383	16
102.0477	28
107.0485	11
110.0346	12
111.0002	711
113.0148	54
119.0505	11
120.057	25
125.0161	22
126.9948	110
128.0026	24
128.0634	12
129.0109	22
131.0499	14
139.0063	84
141.0105	57
155.0263	9
