Mass spectrum: Trioctylphosphine oxide; LC-ESI-QTOF; MS2; 20 V
Name: Trioctylphosphine oxide
Class: Industrial_process
Formula: C24H51OP
Exact mass: 386.3678
SMILES: CCCCCCCCP(=O)(CCCCCCCC)CCCCCCCC
InChI: InChI=1S/C24H51OP/c1-4-7-10-13-16-19-22-26(25,23-20-17-14-11-8-5-2)24-21-18-15-12-9-6-3/h4-24H2,1-3H3
Instrument: TripleTOF 5600 SCIEX
Instrument type: LC-ESI-QTOF
Ms type: MS2
Ion mode: POSITIVE
Collision energy: 20
Fragmentation mode: CID
Ionization: ESI
Column name: Zorbax Eclipse Plus C18 2.1 mm x 150 mm, 3.5 um, Agilent
Retention time: 22.9 min
Precursor m/z: 387.375
Precursor type: [M+H]+
m/z	relative intensity
386.1514	47
387.3731	999
388.3788	226
389.1185	14
