Mass spectrum: Losartan carboxylic acid; LC-ESI-QTOF; MS2; 70 V
Name: Losartan carboxylic acid
Class: Pharmaceutical
Formula: C22H21ClN6O2
Exact mass: 436.1415
SMILES: CCCCc1nc(Cl)c(n1Cc2ccc(cc2)c3ccccc3c4n[nH]nn4)C(O)=O
InChI: InChI=1S/C22H21ClN6O2/c1-2-3-8-18-24-20(23)19(22(30)31)29(18)13-14-9-11-15(12-10-14)16-6-4-5-7-17(16)21-25-27-28-26-21/h4-7,9-12H,2-3,8,13H2,1H3,(H,30,31)(H,25,26,27,28)
Instrument: TripleTOF 5600 SCIEX
Instrument type: LC-ESI-QTOF
Ms type: MS2
Ion mode: POSITIVE
Collision energy: 70
Fragmentation mode: CID
Ionization: ESI
Column name: Zorbax Eclipse Plus C18 2.1 mm x 150 mm, 3.5 um, Agilent
Retention time: 10.786 min
Precursor m/z: 437.1487
Precursor type: [M+H]+
m/z	relative intensity
77.0414	65
80.0517	18
115.0546	30
127.0542	41
128.0584	15
129.0459	17
139.0541	14
140.0501	119
141.0689	24
151.055	165
152.063	485
153.0704	560
154.0656	28
157.0533	20
163.0552	204
164.0584	108
165.0663	134
166.0648	49
167.0734	66
168.0688	29
176.0625	36
177.0681	85
178.0777	739
179.0737	229
180.0817	706
181.0782	20
185.0482	78
188.052	12
189.0587	49
190.0665	999
191.0735	216
192.069	450
205.0771	730
206.0843	424
207.0923	144
