Mass spectrum: Prednisolone; LC-ESI-QTOF; MS2; 100 V
Name: Prednisolone
Class: Pharmaceutical
Formula: C21H28O5
Exact mass: 360.1937
SMILES: C[C@]12C[C@H](O)[C@H]3[C@@H](CCC4=CC(=O)C=C[C@]34C)[C@@H]1CC[C@]2(O)C(=O)CO
InChI: InChI=1S/C21H28O5/c1-19-7-5-13(23)9-12(19)3-4-14-15-6-8-21(26,17(25)11-22)20(15,2)10-16(24)18(14)19/h5,7,9,14-16,18,22,24,26H,3-4,6,8,10-11H2,1-2H3/t14-,15-,16-,18+,19-,20-,21-/m0/s1
Instrument: TripleTOF 5600 SCIEX
Instrument type: LC-ESI-QTOF
Ms type: MS2
Ion mode: POSITIVE
Collision energy: 100
Fragmentation mode: CID
Ionization: ESI
Column name: Zorbax Eclipse Plus C18 2.1 mm x 150 mm, 3.5 um, Agilent
Retention time: 8.432 min
Precursor m/z: 361.201
Precursor type: [M+H]+
m/z	relative intensity
43.0269	31
51.0286	94
65.0436	235
67.0581	62
77.0418	999
78.0486	67
79.0564	203
81.073	26
89.0427	36
91.0563	951
93.0697	52
102.0481	62
103.0545	256
104.0633	41
105.0696	183
107.0496	88
115.0547	763
116.0616	94
117.0696	125
119.0857	67
121.0642	271
126.0485	31
127.0549	251
128.0624	695
129.0699	219
130.0766	67
131.0489	277
132.0566	162
139.0547	57
140.0614	31
141.0706	235
142.078	36
143.0866	20
144.0585	52
145.0642	78
151.0536	99
152.0613	402
153.0708	188
155.0841	31
157.0649	156
158.0707	57
163.0543	36
164.0611	36
165.0689	575
165.0997	26
166.0767	52
167.0866	41
168.0609	31
169.0663	41
171.0801	26
176.0628	67
177.071	73
178.0783	350
178.1077	20
179.0862	99
181.0645	167
189.0687	271
190.0781	52
191.0846	83
192.0939	36
194.0715	47
195.0809	62
201.07	31
202.078	203
203.0832	73
205.0654	41
207.0804	57
213.0684	31
215.086	146
218.0713	31
221.0941	26
226.0752	20
228.0943	36
229.1023	20
231.081	41
233.0965	20
239.0878	31
241.1001	20
