Mass spectrum: 2-[(4-hydroxy-9,10-dioxoanthracen-1-yl)amino]-5-methylbenzenesulfonic acid; LC-ESI-QTOF; MS2; 50 V
Name: 2-[(4-hydroxy-9,10-dioxoanthracen-1-yl)amino]-5-methylbenzenesulfonic acid
Formula: C21H15NO6S
Exact mass: 409.062
SMILES: CC1=CC(=C(C=C1)NC2=C3C(=C(C=C2)O)C(=O)C4=CC=CC=C4C3=O)S(=O)(=O)O
InChI: InChI=1S/C21H15NO6S/c1-11-6-7-14(17(10-11)29(26,27)28)22-15-8-9-16(23)19-18(15)20(24)12-4-2-3-5-13(12)21(19)25/h2-10,22-23H,1H3,(H,26,27,28)
Instrument: TripleTOF X500R SCIEX
Instrument type: LC-ESI-QTOF
Ms type: MS2
Ion mode: POSITIVE
Collision energy: 50
Fragmentation mode: CID
Ionization: ESI
Column name: Zorbax Eclipse Plus C18 2.1 mm x 150 mm, 3.5 um, Agilent
Retention time: 11.683 min
Precursor m/z: 410.0693
Precursor type: [M+H]+
m/z	relative intensity
153.0697	20
180.0835	47
202.078	10
226.0791	10
228.0832	37
229.0911	60
241.0901	30
242.0975	10
244.1139	75
253.0911	37
254.0963	118
254.1456	12
255.0791	10
255.1053	15
256.0757	42
256.1124	17
257.0826	75
270.0916	12
271.0969	22
272.1092	42
281.0837	32
282.0913	156
283.1017	25
284.0759	20
284.1051	12
285.053	22
285.0773	224
298.0884	20
299.1	27
300.0682	10
300.1042	199
310.0881	25
312.0663	63
312.0942	32
313.0744	999
313.1404	15
314.0814	12
316.1029	22
326.0829	42
327.0905	58
328.0978	123
329.1061	68
342.0792	35
342.0975	12
343.0535	20
343.0851	151
344.0912	27
