Mass spectrum: Febantel; LC-ESI-QTOF; MS2; 30 V
Name: Febantel
Class: Pharmaceutical
Formula: C20H22N4O6S
Exact mass: 446.126
SMILES: COCC(=O)Nc1cc(Sc2ccccc2)ccc1NC(NC(=O)OC)=NC(=O)OC
InChI: InChI=1S/C20H22N4O6S/c1-28-12-17(25)21-16-11-14(31-13-7-5-4-6-8-13)9-10-15(16)22-18(23-19(26)29-2)24-20(27)30-3/h4-11H,12H2,1-3H3,(H,21,25)(H2,22,23,24,26,27)
Instrument: TripleTOF 5600 SCIEX
Instrument type: LC-ESI-QTOF
Ms type: MS2
Ion mode: POSITIVE
Collision energy: 30
Fragmentation mode: CID
Ionization: ESI
Column name: Zorbax Eclipse Plus C18 2.1 mm x 150 mm, 3.5 um, Agilent
Retention time: 13.085 min
Precursor m/z: 447.1333
Precursor type: [M+H]+
m/z	relative intensity
45.0429	13
214.0471	12
227.0631	79
229.0349	14
239.0627	10
246.0728	10
255.0559	12
261.0607	48
267.045	33
268.0542	73
280.0536	376
282.069	77
294.0319	22
297.0687	58
300.0789	13
308.0481	31
311.0594	22
312.0803	999
321.0791	13
323.0597	390
325.0754	58
339.0915	27
340.0744	158
344.1053	31
