Mass spectrum: 1-Hydroxybenzotriazol; LC-ESI-QTOF; MS2; 40 V
Name: 1-Hydroxybenzotriazol
Class: Pharmaceutical; Industrial_process; Transformation_product
Formula: C6H5N3O
Exact mass: 135.0433
SMILES: c1ccc2c(c1)nnn2O
InChI: InChI=1S/C6H5N3O/c10-9-6-4-2-1-3-5(6)7-8-9/h1-4,10H
Instrument: TripleTOF 5600 SCIEX
Instrument type: LC-ESI-QTOF
Ms type: MS2
Ion mode: POSITIVE
Collision energy: 40
Fragmentation mode: CID
Ionization: ESI
Column name: Zorbax Eclipse Plus C18 2.1 mm x 150 mm, 3.5 um, Agilent
Retention time: 5.24 min
Precursor m/z: 136.0505
Precursor type: [M+H]+
m/z	relative intensity
41.0361	45
52.0255	165
61.0109	32
62.0202	92
63.0279	836
64.035	738
65.03	237
76.0205	58
77.0421	122
78.049	69
80.0522	11
90.0357	24
91.0436	999
119.0472	109
136.0487	25
