Mass spectrum: 6alpha-Methylprednisolone; LC-ESI-QTOF; MS2; 80 V
Name: 6alpha-Methylprednisolone
Class: Pharmaceutical
Formula: C22H30O5
Exact mass: 374.2093
SMILES: C[C@H]1C[C@H]2[C@@H]3CC[C@](O)(C(=O)CO)[C@@]3(C)C[C@H](O)[C@@H]2[C@@]4(C)C=CC(=O)C=C14
InChI: InChI=1S/C22H30O5/c1-12-8-14-15-5-7-22(27,18(26)11-23)21(15,3)10-17(25)19(14)20(2)6-4-13(24)9-16(12)20/h4,6,9,12,14-15,17,19,23,25,27H,5,7-8,10-11H2,1-3H3/t12-,14-,15-,17-,19+,20-,21-,22-/m0/s1
Instrument: TripleTOF 5600 SCIEX
Instrument type: LC-ESI-QTOF
Ms type: MS2
Ion mode: POSITIVE
Collision energy: 80
Fragmentation mode: CID
Ionization: ESI
Column name: Zorbax Eclipse Plus C18 2.1 mm x 150 mm, 3.5 um, Agilent
Retention time: 9.016 min
Precursor m/z: 375.2166
Precursor type: [M+H]+
m/z	relative intensity
55.058	39
65.0424	105
67.0576	46
77.0406	489
79.056	231
81.0711	59
89.0401	26
91.0549	999
91.0834	59
93.071	125
95.0885	39
103.0538	92
105.0696	456
107.0505	39
107.0854	132
115.0536	721
116.0615	145
117.0687	198
119.0852	92
121.0629	416
127.0543	105
128.0618	443
129.0689	297
130.0753	66
131.0479	178
131.0849	125
132.0578	39
133.1013	39
135.0797	198
139.0578	33
141.0689	383
142.0765	165
143.0836	59
144.0555	119
144.0968	33
145.0643	271
145.0997	26
146.0711	158
147.0804	39
152.0611	291
153.0698	284
154.0754	72
155.0859	112
157.0647	218
158.0716	198
159.0793	86
161.0943	79
164.0594	33
165.0692	555
166.0763	145
167.0831	119
168.0588	46
168.092	39
169.0625	105
169.1011	46
170.0714	59
171.0783	138
172.0872	99
177.0683	72
178.076	357
179.0836	264
180.0949	39
181.0633	357
181.0991	52
182.0715	86
183.0774	72
185.0959	72
189.0683	178
190.0759	152
191.0842	178
192.093	86
193.099	112
194.0717	152
195.0794	291
195.1136	26
196.086	92
197.0975	59
201.0658	46
202.0753	205
203.0834	132
204.0917	39
205.0647	39
205.1008	119
206.0722	46
206.1077	33
207.0792	152
208.0869	185
209.0952	205
210.1058	52
215.0839	138
217.0982	66
218.0688	59
218.1092	46
219.0799	125
220.0885	52
221.0956	145
222.1033	52
223.1104	66
227.0919	39
229.1031	52
231.0789	72
232.0861	46
233.0925	52
235.1105	72
239.0814	39
245.0942	46
