Mass spectrum: Crotamiton; LC-ESI-QTOF; MS2; 150 V
Name: Crotamiton
Formula: C13H17NO
Exact mass: 203.131
SMILES: CCN(C1=CC=CC=C1C)C(=O)C=CC
InChI: InChI=1S/C13H17NO/c1-4-8-13(15)14(5-2)12-10-7-6-9-11(12)3/h4,6-10H,5H2,1-3H3
Instrument: TripleTOF 6600 SCIEX
Instrument type: LC-ESI-QTOF
Ms type: MS2
Ion mode: POSITIVE
Collision energy: 150
Fragmentation mode: CID
Ionization: ESI
Column name: Zorbax Eclipse Plus C18 2.1 mm x 150 mm, 3.5 um, Agilent
Retention time: 11.073 min
Precursor m/z: 204.1383
Precursor type: [M+H]+
m/z	relative intensity
35.9995	134
37.0076	811
38.0029	10
38.0151	661
39.0231	999
49.0071	86
50.015	373
51.0227	193
59.9992	21
61.0072	134
62.0148	156
63.0227	99
65.0385	10
73.0071	27
74.0149	119
75.0224	16
89.0376	10
