Mass spectrum: 2-Benzylimidazole; LC-ESI-QTOF; MS2; 40 V
Name: 2-Benzylimidazole
Class: Pharmaceutical
Formula: C10H12N2
Exact mass: 160.1
SMILES: C1CN=C(N1)CC2=CC=CC=C2
InChI: InChI=1S/C10H12N2/c1-2-4-9(5-3-1)8-10-11-6-7-12-10/h1-5H,6-8H2,(H,11,12)
Instrument: TripleTOF 5600 SCIEX
Instrument type: LC-ESI-QTOF
Ms type: MS2
Ion mode: POSITIVE
Collision energy: 40
Fragmentation mode: CID
Ionization: ESI
Column name: Zorbax Eclipse Plus C18 2.1 mm x 150 mm, 3.5 um, Agilent
Retention time: 4.619 min
Precursor m/z: 161.1073
Precursor type: [M+H]+
m/z	relative intensity
44.0496	74
65.0389	122
77.0386	11
84.0683	13
91.0545	999
103.0543	44
105.0703	10
106.0652	12
115.0556	13
116.0507	13
117.058	15
130.0661	11
132.0828	13
160.0996	16
161.1081	157
