Mass spectrum: 2-(5-Chloro-2-methoxyphenyl)-1H-benzimidazole; LC-ESI-QTOF; MS2; 120 V
Name: 2-(5-Chloro-2-methoxyphenyl)-1H-benzimidazole
Class: Pharmaceutical
Formula: C14H11ClN2O
Exact mass: 258.056
SMILES: COc1ccc(cc1c2[nH]c3ccccc3n2)Cl
InChI: InChI=1S/C14H11ClN2O/c1-18-13-7-6-9(15)8-10(13)14-16-11-4-2-3-5-12(11)17-14/h2-8H,1H3,(H,16,17)
Instrument: TripleTOF 5600 SCIEX
Instrument type: LC-ESI-QTOF
Ms type: MS2
Ion mode: POSITIVE
Collision energy: 120
Fragmentation mode: CID
Ionization: ESI
Column name: Zorbax Eclipse Plus C18 2.1 mm x 150 mm, 3.5 um, Agilent
Retention time: 7.374 min
Precursor m/z: 259.0633
Precursor type: [M+H]+
m/z	relative intensity
52.0243	100
62.0496	33
64.0323	117
65.029	83
65.0428	780
72.9882	41
73.0091	58
74.0185	789
75.0124	83
75.0261	906
76.0205	251
76.0317	159
77.0411	999
78.0369	67
86.0147	41
87.0234	50
88.0321	117
89.0402	75
90.0335	100
90.0478	50
91.0425	92
92.0491	41
98.017	92
99.0229	151
100.0187	50
100.031	50
101.0391	201
102.0339	386
102.0508	109
103.0414	109
104.0496	33
113.0387	50
114.0343	50
115.0407	58
118.0526	58
125.0386	201
126.0449	428
127.0398	58
127.0543	167
128.0523	134
129.0464	92
130.0427	50
151.0437	75
152.0492	235
153.0441	50
153.0576	67
154.0597	50
179.06	201
