Mass spectrum: 17alpha-Methyltestosterone; LC-ESI-QTOF; MS2; 90 V
Name: 17alpha-Methyltestosterone
Class: Pharmaceutical
Formula: C20H30O2
Exact mass: 302.2246
SMILES: C[C@]1(O)CC[C@H]2[C@@H]3CCC4=CC(=O)CC[C@]4(C)[C@H]3CC[C@]12C
InChI: InChI=1S/C20H30O2/c1-18-9-6-14(21)12-13(18)4-5-15-16(18)7-10-19(2)17(15)8-11-20(19,3)22/h12,15-17,22H,4-11H2,1-3H3/t15-,16+,17+,18+,19+,20+/m1/s1
Instrument: TripleTOF 5600 SCIEX
Instrument type: LC-ESI-QTOF
Ms type: MS2
Ion mode: POSITIVE
Collision energy: 90
Fragmentation mode: CID
Ionization: ESI
Column name: Zorbax Eclipse Plus C18 2.1 mm x 150 mm, 3.5 um, Agilent
Retention time: 11.57 min
Precursor m/z: 303.2319
Precursor type: [M+H]+
m/z	relative intensity
43.0263	104
43.034	37
53.0443	99
55.0243	47
55.0589	75
65.0425	198
66.0498	18
67.0581	151
69.072	42
77.0416	999
78.0494	28
79.0565	771
81.0368	28
81.0711	179
83.0499	18
91.0554	582
91.0841	33
93.0707	66
94.0423	42
95.0874	66
97.0656	402
97.0917	23
103.055	85
105.0702	123
107.0518	47
107.0834	23
108.0577	23
109.0639	284
115.0548	208
116.061	37
117.0712	66
121.0646	28
123.0814	52
127.0559	71
128.0619	170
129.0696	89
131.0856	28
141.0698	85
142.0777	23
152.0649	18
153.0719	37
165.0697	56
