Mass spectrum: 6`-Hydroxymethyl Simvastatin; LC-ESI-QTOF; MS2; 120 V
Name: 6`-Hydroxymethyl Simvastatin
Class: Metabolite; Pharmaceutical
Formula: C25H38O6
Exact mass: 434.2668
SMILES: CCC(C)(C)C(=O)OC1CC(C=C2C1C(C(C=C2)C)CCC3CC(CC(=O)O3)O)CO
InChI: InChI=1S/C25H38O6/c1-5-25(3,4)24(29)31-21-11-16(14-26)10-17-7-6-15(2)20(23(17)21)9-8-19-12-18(27)13-22(28)30-19/h6-7,10,15-16,18-21,23,26-27H,5,8-9,11-14H2,1-4H3
Instrument: TripleTOF 5600 SCIEX
Instrument type: LC-ESI-QTOF
Ms type: MS2
Ion mode: POSITIVE
Collision energy: 120
Fragmentation mode: CID
Ionization: ESI
Column name: Zorbax Eclipse Plus C18 2.1 mm x 150 mm, 3.5 um, Agilent
Retention time: 10.786 min
Precursor m/z: 435.2741
Precursor type: [M+H]+
m/z	relative intensity
77.0433	142
79.0583	71
91.058	171
105.0746	71
115.0564	627
116.0661	71
127.0559	214
128.0642	756
129.0712	156
139.0563	57
141.0705	999
142.0796	156
151.0561	71
152.0622	499
153.0711	456
154.0792	99
155.0885	114
164.0636	57
165.0709	685
166.0855	71
167.085	142
178.0788	328
179.0883	99
191.0861	71
202.0824	85
