Mass spectrum: Trazodone; LC-ESI-QTOF; MS2; 110 V
Name: Trazodone
Class: Pharmaceutical
Formula: C19H22ClN5O
Exact mass: 371.1513
SMILES: C1CN(CCN1CCCN2C(=O)N3C=CC=CC3=N2)C4=CC(=CC=C4)Cl
InChI: InChI=1S/C19H22ClN5O/c20-16-5-3-6-17(15-16)23-13-11-22(12-14-23)8-4-10-25-19(26)24-9-2-1-7-18(24)21-25/h1-3,5-7,9,15H,4,8,10-14H2
Instrument: TripleTOF 6600 SCIEX
Instrument type: LC-ESI-QTOF
Ms type: MS2
Ion mode: POSITIVE
Collision energy: 110
Fragmentation mode: CID
Ionization: ESI
Column name: Zorbax Eclipse Plus C18 2.1 mm x 150 mm, 3.5 um, Agilent
Retention time: 7.095 min
Precursor m/z: 372.1586
Precursor type: [M+H]+
m/z	relative intensity
37.0063	11
38.0136	23
39.0218	53
41.0248	23
41.0367	11
42.0324	17
50.0136	39
51.0218	223
52.0172	17
64.0164	17
65.0244	83
66.0204	11
66.0325	53
67.0397	23
74.0132	15
75.0209	45
77.0375	22
78.0326	999
79.0399	79
80.0482	24
89.0355	15
91.0521	27
92.0352	190
93.0427	58
104.0472	11
105.0429	10
110.9978	71
117.0555	22
118.0631	47
119.0581	85
120.0307	48
120.0531	13
130.0639	14
131.0588	21
138.008	13
139.0054	17
