Mass spectrum: Sotalol; LC-ESI-QTOF; MS2; 80 V
Name: Sotalol
Class: Pharmaceutical
Formula: C12H20N2O3S
Exact mass: 272.1195
SMILES: CC(C)NCC(C1=CC=C(C=C1)NS(=O)(=O)C)O
InChI: InChI=1S/C12H20N2O3S/c1-9(2)13-8-12(15)10-4-6-11(7-5-10)14-18(3,16)17/h4-7,9,12-15H,8H2,1-3H3
Instrument: TripleTOF 5600 SCIEX
Instrument type: LC-ESI-QTOF
Ms type: MS2
Ion mode: POSITIVE
Collision energy: 80
Fragmentation mode: CID
Ionization: ESI
Column name: Zorbax Eclipse Plus C18 2.1 mm x 150 mm, 3.5 um, Agilent
Retention time: 4.583 min
Precursor m/z: 273.1267
Precursor type: [M+H]+
m/z	relative intensity
51.0315	22
65.046	54
66.0515	12
67.0485	37
77.0436	482
78.0388	34
78.0488	19
79.0586	407
80.0544	168
81.0614	32
89.0416	178
90.0506	49
91.0565	96
92.0525	34
93.0586	37
104.0519	54
105.0613	24
106.0668	999
107.0754	77
116.0511	193
117.058	201
118.05	19
118.0645	59
119.0608	57
131.0605	52
132.0692	144
133.0765	233
