Mass spectrum: 2-Phenyl-1,3-indandione; LC-ESI-QTOF; MS2; 40 V
Name: 2-Phenyl-1,3-indandione
Class: Pharmaceutical
Formula: C15H10O2
Exact mass: 222.0681
SMILES: C1=CC=C(C=C1)C2C(=O)C3=CC=CC=C3C2=O
InChI: InChI=1S/C15H10O2/c16-14-11-8-4-5-9-12(11)15(17)13(14)10-6-2-1-3-7-10/h1-9,13H
Instrument: TripleTOF 5600 SCIEX
Instrument type: LC-ESI-QTOF
Ms type: MS2
Ion mode: NEGATIVE
Collision energy: 40
Fragmentation mode: CID
Ionization: ESI
Column name: Zorbax Eclipse Plus C18 2.1 mm x 150 mm, 3.5 um, Agilent
Retention time: 14.18 min
Precursor m/z: 221.061
Precursor type: [M-H]-
m/z	relative intensity
101.0351	16
117.033	39
123.9007	9
145.0287	48
165.0682	34
193.0675	77
221.0602	999
222.0623	62
