Mass spectrum: Diaveridine; LC-ESI-QTOF; MS2; 130 V
Name: Diaveridine
Class: Pharmaceutical
Formula: C13H16N4O2
Exact mass: 260.1273
SMILES: COC1=C(C=C(C=C1)CC2=CN=C(N=C2N)N)OC
InChI: InChI=1S/C13H16N4O2/c1-18-10-4-3-8(6-11(10)19-2)5-9-7-16-13(15)17-12(9)14/h3-4,6-7H,5H2,1-2H3,(H4,14,15,16,17)
Instrument: TripleTOF 5600 SCIEX
Instrument type: LC-ESI-QTOF
Ms type: MS2
Ion mode: POSITIVE
Collision energy: 130
Fragmentation mode: CID
Ionization: ESI
Column name: Zorbax Eclipse Plus C18 2.1 mm x 150 mm, 3.5 um, Agilent
Retention time: 4.966 min
Precursor m/z: 261.1346
Precursor type: [M+H]+
m/z	relative intensity
41.0389	105
43.0434	385
52.0274	393
53.0219	60
54.0445	340
55.0407	30
65.046	166
67.0381	60
68.0334	83
74.0205	234
75.016	37
75.0284	348
76.0264	166
77.0444	999
78.0386	60
78.0517	45
79.0329	68
79.046	30
81.0508	90
86.0203	52
87.0265	90
88.0227	75
88.0363	45
89.0429	438
90.044	128
91.0566	75
98.0186	37
100.0221	60
101.0414	37
102.0469	83
103.0557	45
104.0521	37
105.0356	105
107.0518	30
114.0364	75
115.0521	37
116.0525	37
117.0519	37
129.0447	30
