Mass spectrum: Chloroquine; LC-ESI-QTOF; MS2; 90 V
Name: Chloroquine
Class: Pharmaceutical
Formula: C18H26ClN3
Exact mass: 319.1815
SMILES: CCN(CC)CCCC(C)NC1=C2C=CC(=CC2=NC=C1)Cl
InChI: InChI=1S/C18H26ClN3/c1-4-22(5-2)12-6-7-14(3)21-17-10-11-20-18-13-15(19)8-9-16(17)18/h8-11,13-14H,4-7,12H2,1-3H3,(H,20,21)
Instrument: TripleTOF 6600 SCIEX
Instrument type: LC-ESI-QTOF
Ms type: MS2
Ion mode: POSITIVE
Collision energy: 90
Fragmentation mode: CID
Ionization: ESI
Column name: Zorbax Eclipse Plus C18 2.1 mm x 150 mm, 3.5 um, Agilent
Retention time: 4.84 min
Precursor m/z: 320.1888
Precursor type: [M+H]+
m/z	relative intensity
30.0337	37
37.0076	23
39.023	240
41.0387	383
42.0342	23
44.0503	37
56.0492	69
58.0649	235
63.0229	27
70.0648	78
74.0146	55
75.0228	282
77.0382	138
78.046	27
86.096	296
89.0382	425
90.0459	226
98.0152	27
98.0957	268
99.0223	203
100.0172	64
100.0305	18
101.0382	203
102.0324	18
102.0457	157
104.0484	83
110.9993	411
112.0062	27
115.041	18
115.0535	74
116.049	541
117.0566	994
118.0531	106
124.0064	55
126.0331	115
127.018	18
127.0411	226
128.0491	999
129.0572	980
135.0003	74
136.007	240
138.0101	124
139.0054	78
140.0495	18
141.0574	27
142.0513	50
142.0643	50
143.0601	675
144.0677	892
150.0098	27
151.0182	300
154.0396	64
155.06	499
156.0676	342
162.0098	328
163.0182	647
164.0251	69
167.0599	55
168.0672	296
169.0743	32
177.0337	92
178.038	101
179.0373	351
189.0212	41
190.0279	231
191.0366	166
203.0366	166
205.0522	92
