Mass spectrum: 2,6-Dimethylquinoline; LC-ESI-QTOF; MS2; 140 V
Name: 2,6-Dimethylquinoline
Formula: C11H11N
Exact mass: 157.0891
SMILES: CC1=CC2=C(C=C1)N=C(C=C2)C
InChI: InChI=1S/C11H11N/c1-8-3-6-11-10(7-8)5-4-9(2)12-11/h3-7H,1-2H3
Instrument: TripleTOF 6600 SCIEX
Instrument type: LC-ESI-QTOF
Ms type: MS2
Ion mode: POSITIVE
Collision energy: 140
Fragmentation mode: CID
Ionization: ESI
Column name: Zorbax Eclipse Plus C18 2.1 mm x 150 mm, 3.5 um, Agilent
Retention time: 5.162 min
Precursor m/z: 158.0964
Precursor type: [M+H]+
m/z	relative intensity
35.999	219
37.0072	929
38.0027	56
38.0147	358
39.0228	345
49.0071	565
50.0146	999
51.0091	37
51.022	131
52.0175	31
59.999	150
61.0068	810
62.0144	502
63.0218	119
73.0065	232
74.0145	452
75.0213	31
77.0134	31
83.9986	56
85.0061	100
86.0134	69
