Mass spectrum: Amisulpride; LC-ESI-QTOF; MS2; 100 V
Name: Amisulpride
Class: Pharmaceutical
Formula: C17H27N3O4S
Exact mass: 369.1722
SMILES: CCN1CCCC1CNC(=O)c2cc(c(N)cc2OC)[S](=O)(=O)CC
InChI: InChI=1S/C17H27N3O4S/c1-4-20-8-6-7-12(20)11-19-17(21)13-9-16(25(22,23)5-2)14(18)10-15(13)24-3/h9-10,12H,4-8,11,18H2,1-3H3,(H,19,21)
Instrument: TripleTOF 5600 SCIEX
Instrument type: LC-ESI-QTOF
Ms type: MS2
Ion mode: POSITIVE
Collision energy: 100
Fragmentation mode: CID
Ionization: ESI
Column name: Zorbax Eclipse Plus C18 2.1 mm x 150 mm, 3.5 um, Agilent
Retention time: 5.568 min
Precursor m/z: 370.1795
Precursor type: [M+H]+
m/z	relative intensity
41.0346	12
42.0419	19
51.0293	75
52.0257	112
53.0087	63
53.0442	69
54.0394	59
55.0242	16
56.0552	75
57.9919	12
58.0701	35
59.0001	19
64.0345	154
65.0433	377
66.0513	770
67.0458	72
67.0577	17
68.0168	100
68.0529	39
68.983	131
69.9908	54
70.0678	41
70.9985	25
74.993	15
75.0243	16
76.0213	76
77.0287	44
77.0396	45
78.0371	248
79.0204	14
79.0437	100
80.0154	67
80.0511	40
80.9819	14
81.036	69
81.9887	16
82.0673	30
82.9974	93
83.9929	12
84.0053	14
84.0832	227
84.9778	23
85.0123	32
89.0283	33
90.0346	32
91.0438	304
92.0274	12
92.0512	266
92.9814	10
93.0226	11
93.034	9
93.0587	94
94.0306	102
94.0416	73
94.0649	15
94.9958	39
96.0452	17
96.9994	97
97.9829	47
98.0064	16
98.0971	70
98.9889	13
104.0139	181
104.0502	19
106.0078	10
106.0296	369
106.9826	25
107.0139	423
107.0349	104
107.9908	126
108.0445	37
110.0064	98
112.0235	11
112.1124	93
113.0056	17
117.0206	22
119.9899	16
120.0449	266
121.0006	10
121.0523	257
122.0057	24
122.036	152
124.9933	98
125.9771	11
132.0088	999
133.016	32
135.9851	15
138.0003	25
139.0087	14
140.0163	50
147.0311	92
148.0022	34
148.0392	32
149.0229	20
149.0478	160
150.001	59
152.9882	16
168.0121	54
177.9966	21
196.0067	25
