Mass spectrum: Linezolid; LC-ESI-QTOF; MS2; 40 V
Name: Linezolid
Class: Pharmaceutical
Formula: C16H20FN3O4
Exact mass: 337.1438
SMILES: CC(=O)NCC1CN(C(=O)O1)C2=CC(=C(C=C2)N3CCOCC3)F
InChI: InChI=1S/C16H20FN3O4/c1-11(21)18-9-13-10-20(16(22)24-13)12-2-3-15(14(17)8-12)19-4-6-23-7-5-19/h2-3,8,13H,4-7,9-10H2,1H3,(H,18,21)
Instrument: TripleTOF 5600 SCIEX
Instrument type: LC-ESI-QTOF
Ms type: MS2
Ion mode: POSITIVE
Collision energy: 40
Fragmentation mode: CID
Ionization: ESI
Column name: Zorbax Eclipse Plus C18 2.1 mm x 150 mm, 3.5 um, Agilent
Retention time: 6.936 min
Precursor m/z: 338.1511
Precursor type: [M+H]+
m/z	relative intensity
43.018	13
44.049	16
56.05	223
72.0443	16
84.0456	25
85.0518	16
98.0598	47
108.0372	11
109.0444	19
111.0461	19
115.0558	30
116.0501	30
116.068	11
117.0586	27
122.0404	19
123.0482	19
123.0608	11
124.0569	95
125.0533	36
128.053	11
130.0648	25
131.0608	41
131.0719	13
133.0785	25
134.0406	16
135.0486	240
136.056	142
137.0601	187
138.0689	55
139.0682	53
142.0652	53
143.0685	67
144.0821	41
145.0785	16
146.04	16
147.0524	22
147.0914	19
148.0567	819
149.0632	523
150.0698	204
151.0669	324
152.0566	16
152.0752	139
153.083	226
154.0642	22
154.0909	13
155.0697	13
156.0687	58
157.0768	47
158.0881	19
159.093	30
160.0555	13
161.0612	75
162.0724	324
163.0681	705
164.0768	81
165.0831	416
166.0899	16
167.0975	55
168.0782	25
169.0771	475
170.0863	53
171.0932	120
172.0561	83
173.0674	13
174.0604	408
175.0662	86
176.0756	111
177.0472	69
177.0842	263
178.0912	30
179.0651	55
179.1001	204
180.0887	58
181.0882	296
182.0849	27
185.1088	92
186.0927	27
187.0694	173
187.1231	13
188.0767	33
189.0836	537
190.0904	254
191.099	749
192.0775	19
192.1059	47
194.0857	30
195.0589	44
195.0932	999
196.0735	11
196.1021	296
197.0742	131
197.1093	173
200.0876	19
201.0845	25
202.0932	16
203.118	27
205.0812	41
205.1141	27
206.0818	16
206.1064	16
207.0942	30
208.1157	30
209.1107	456
215.1192	307
217.1156	100
221.1097	83
222.1055	128
223.091	47
223.1224	142
233.1099	13
235.0881	27
235.1256	727
236.1153	19
238.0999	64
239.118	25
241.0992	327
244.1479	47
246.1194	16
249.1257	86
250.1006	58
250.132	16
251.1095	44
252.1148	249
252.1522	13
253.1331	19
278.1348	89
279.1099	25
294.1603	100
296.1422	652
297.1244	16
338.1502	232
