Mass spectrum: Rifaximin; LC-ESI-QTOF; MS2; 150 V
Name: Rifaximin
Class: Pharmaceutical
Formula: C43H51N3O11
Exact mass: 785.3524
SMILES: CC1C=CC=C(C(=O)NC2=C(C3=C(C4=C(C(=C3O)C)OC(C4=O)(OC=CC(C(C(C(C(C(C1O)C)O)C)OC(=O)C)C)OC)C)C5=C2N6C=CC(=CC6=N5)C)O)C
InChI: InChI=1S/C43H51N3O11/c1-19-14-16-46-28(18-19)44-32-29-30-37(50)25(7)40-31(29)41(52)43(9,57-40)55-17-15-27(54-10)22(4)39(56-26(8)47)24(6)36(49)23(5)35(48)20(2)12-11-13-21(3)42(53)45-33(34(32)46)38(30)51/h11-18,20,22-24,27,35-36,39,48-51H,1-10H3,(H,45,53)
Instrument: TripleTOF 6600 SCIEX
Instrument type: LC-ESI-QTOF
Ms type: MS2
Ion mode: POSITIVE
Collision energy: 150
Fragmentation mode: CID
Ionization: ESI
Column name: Zorbax Eclipse Plus C18 2.1 mm x 150 mm, 3.5 um, Agilent
Retention time: 11.765 min
Precursor m/z: 786.3597
Precursor type: [M+H]+
m/z	relative intensity
39.0222	122
41.0377	201
43.0172	315
43.0532	35
53.0373	52
55.053	271
57.0322	43
65.0375	254
67.0524	517
69.0321	52
69.0684	87
71.0484	35
77.0374	692
78.0449	43
79.0532	517
80.0601	52
81.0688	227
83.0486	43
91.0528	999
92.0481	245
93.0562	35
93.0684	245
95.048	254
95.084	403
97.0636	52
103.052	140
104.0624	43
105.0457	35
105.0686	578
107.0476	105
107.0834	122
108.0553	140
109.0633	201
115.0526	245
116.0589	61
117.0683	166
119.0833	219
121.0643	87
123.0791	78
127.0529	96
128.0606	192
129.0683	210
130.0763	105
131.0849	52
133.0638	105
133.0993	43
135.0796	35
141.0684	175
142.0752	70
143.0842	113
144.0917	52
145.0645	70
145.0991	35
147.0785	61
152.0621	43
153.0683	87
155.0842	122
156.0899	61
159.0795	43
163.1105	96
165.0696	78
167.0855	35
178.0756	43
179.0823	78
191.072	61
192.0674	113
203.0717	43
204.0802	52
205.0751	201
206.0823	140
207.0923	105
208.0847	52
208.0987	35
209.1032	52
216.0708	87
217.0752	148
218.0837	315
219.0896	604
220.0984	376
221.0717	43
221.0939	35
221.1066	105
222.1005	43
229.0736	105
230.0776	96
231.0907	192
232.0989	289
233.0691	35
233.1052	254
234.0779	78
234.1021	438
235.0847	166
235.1092	78
236.0861	131
237.1005	35
241.0831	52
242.0823	78
243.091	201
244.0856	113
244.0982	70
245.1019	201
246.0786	35
246.0983	70
246.1113	43
247.0855	280
247.1105	70
248.0926	245
248.1139	87
249.1005	306
250.072	43
250.0962	105
251.0768	52
257.1017	61
258.0782	96
258.1004	87
259.0845	157
259.1039	43
260.0897	96
260.1155	96
261.1008	236
262.0974	341
263.0828	78
263.1093	113
264.0797	43
264.0919	52
264.1112	78
265.0915	113
266.0901	43
269.0946	52
270.0781	43
270.1029	35
271.0855	113
272.0925	175
273.0993	131
274.0717	35
274.0964	113
275.0817	122
275.1124	52
276.0868	140
276.1104	122
277.0978	166
278.0916	43
279.1071	52
286.095	148
287.0792	43
288.0864	140
288.1089	70
289.0956	184
290.0917	359
291.0755	52
291.0999	219
292.1081	184
293.0915	35
299.0802	61
300.0901	43
300.1149	61
301.0593	35
301.0943	157
302.0915	131
303.101	70
304.1085	87
305.0906	61
306.0878	35
306.1279	52
307.1142	122
308.1074	61
314.0906	105
315.1056	87
316.0754	43
316.107	201
317.0902	262
318.0866	70
318.1004	52
319.1094	96
320.1099	70
322.1267	61
323.1049	70
323.1402	43
328.1149	52
330.0866	96
331.0944	52
332.0768	70
332.1022	262
333.0894	61
333.1264	35
334.1374	96
335.1396	43
336.1497	43
337.1182	43
343.1012	52
344.1018	96
345.0862	245
346.0841	148
346.127	43
347.0913	43
347.1106	43
348.1091	61
350.1311	61
352.1091	52
353.1204	78
355.1008	52
358.1073	35
360.0976	403
361.0985	87
362.115	157
363.1345	61
364.1187	52
365.1155	43
366.1228	113
370.0822	52
371.1007	52
372.0997	70
396.1449	113
398.1164	87
404.1439	78
408.135	43
410.1214	43
421.109	35
424.1435	35
432.1363	78
435.1192	70
436.1296	122
446.1541	52
448.1312	43
450.1417	70
