Mass spectrum: 4,4`-Methylenebis(2-methylaniline); LC-ESI-QTOF; MS2; 20 V
Name: 4,4`-Methylenebis(2-methylaniline)
Formula: C15H18N2
Exact mass: 226.147
SMILES: CC1=C(C=CC(=C1)CC2=CC(=C(C=C2)N)C)N
InChI: InChI=1S/C15H18N2/c1-10-7-12(3-5-14(10)16)9-13-4-6-15(17)11(2)8-13/h3-8H,9,16-17H2,1-2H3
Instrument: TripleTOF 6600 SCIEX
Instrument type: LC-ESI-QTOF
Ms type: MS2
Ion mode: POSITIVE
Collision energy: 20
Fragmentation mode: CID
Ionization: ESI
Column name: Zorbax Eclipse Plus C18 2.1 mm x 150 mm, 3.5 um, Agilent
Retention time: 5.215 min
Precursor m/z: 227.1543
Precursor type: [M+H]+
m/z	relative intensity
120.0796	93
193.0995	10
210.1273	10
212.1227	15
227.154	999
