Mass spectrum: Tetraconazole; LC-ESI-QTOF; MS2; 130 V
Name: Tetraconazole
Class: Fungicide
Formula: C13H11Cl2F4N3O
Exact mass: 371.0215
SMILES: C1=CC(=C(C=C1Cl)Cl)C(CN2C=NC=N2)COC(C(F)F)(F)F
InChI: InChI=1S/C13H11Cl2F4N3O/c14-9-1-2-10(11(15)3-9)8(4-22-7-20-6-21-22)5-23-13(18,19)12(16)17/h1-3,6-8,12H,4-5H2
Instrument: TripleTOF 6600 SCIEX
Instrument type: LC-ESI-QTOF
Ms type: MS2
Ion mode: POSITIVE
Collision energy: 130
Fragmentation mode: CID
Ionization: ESI
Column name: Zorbax Eclipse Plus C18 2.1 mm x 150 mm, 3.5 um, Agilent
Retention time: 12.382 min
Precursor m/z: 372.0288
Precursor type: [M+H]+
m/z	relative intensity
38.0151	13
39.0231	31
43.0291	98
46.9682	29
48.984	39
51.0043	118
61.0073	64
62.0153	198
63.0233	385
65.0386	23
70.0399	139
72.9843	513
74.0154	21
75.0226	22
82.9452	48
86.0152	24
87.0227	40
88.0308	90
89.039	999
96.984	131
98.9997	116
102.0453	11
106.9448	19
107.029	16
113.0382	26
114.0464	18
115.0548	144
122.9997	139
124.0077	28
132.9611	45
133.0442	15
158.9755	11
