Mass spectrum: C-desmethyl-metoprolol; LC-ESI-QTOF; MS2; 60 V
Name: C-desmethyl-metoprolol
Formula: C14H23NO3
Exact mass: 253.1678
SMILES: CCNCC(COC1=CC=C(C=C1)CCOC)O
InChI: InChI=1S/C14H23NO3/c1-3-15-10-13(16)11-18-14-6-4-12(5-7-14)8-9-17-2/h4-7,13,15-16H,3,8-11H2,1-2H3
Instrument: TripleTOF 5600 SCIEX
Instrument type: LC-ESI-QTOF
Ms type: MS2
Ion mode: POSITIVE
Collision energy: 60
Fragmentation mode: CID
Ionization: ESI
Column name: Zorbax Eclipse Plus C18 2.1 mm x 150 mm, 3.5 um, Agilent
Retention time: 5.422 min
Precursor m/z: 254.1751
Precursor type: [M+H]+
m/z	relative intensity
41.0392	12
42.0338	21
44.0504	33
45.034	28
51.023	41
55.0175	12
56.0496	96
57.071	19
58.0656	485
65.0381	48
67.0538	26
70.0658	36
77.039	999
78.0475	14
79.0543	265
84.0806	125
86.0952	45
90.0475	14
91.0549	333
92.0632	12
93.0701	16
102.0456	48
102.091	48
103.0548	470
104.0614	24
105.0339	21
105.07	142
107.0485	21
115.0539	142
116.063	60
119.0504	24
120.0566	14
121.0641	24
127.0556	12
128.0608	36
129.0717	21
131.0497	16
133.0646	31
144.0589	24
