Mass spectrum: Edetol; LC-ESI-QTOF; MS2; 40 V
Name: Edetol
Formula: C14H32N2O4
Exact mass: 292.2362
SMILES: CC(CN(CCN(CC(C)O)CC(C)O)CC(C)O)O
InChI: InChI=1S/C14H32N2O4/c1-11(17)7-15(8-12(2)18)5-6-16(9-13(3)19)10-14(4)20/h11-14,17-20H,5-10H2,1-4H3
Instrument: TripleTOF 6600 SCIEX
Instrument type: LC-ESI-QTOF
Ms type: MS2
Ion mode: POSITIVE
Collision energy: 40
Fragmentation mode: CID
Ionization: ESI
Column name: Zorbax Eclipse Plus C18 2.1 mm x 150 mm, 3.5 um, Agilent
Retention time: 2.645 min
Precursor m/z: 293.2435
Precursor type: [M+H]+
m/z	relative intensity
41.038	29
42.0335	13
55.0541	12
56.0493	30
59.0485	69
67.0548	11
70.0647	13
81.0691	12
82.0647	26
84.08	343
86.0958	10
96.0799	12
98.0953	84
100.0745	46
102.0904	185
112.1108	37
116.105	10
124.1106	22
127.0975	12
142.1221	471
160.1327	999
