Mass spectrum: 2-Azaspiro[4.5]decane-1,3-dione; LC-ESI-QTOF; MS2; 40 V
Name: 2-Azaspiro[4.5]decane-1,3-dione
Class: Pharmaceutical
Formula: C9H13NO2
Exact mass: 167.0946
SMILES: C1CCC2(CC1)CC(=O)NC2=O
InChI: InChI=1S/C9H13NO2/c11-7-6-9(8(12)10-7)4-2-1-3-5-9/h1-6H2,(H,10,11,12)
Instrument: TripleTOF 5600 SCIEX
Instrument type: LC-ESI-QTOF
Ms type: MS2
Ion mode: POSITIVE
Collision energy: 40
Fragmentation mode: CID
Ionization: ESI
Column name: Zorbax Eclipse Plus C18 2.1 mm x 150 mm, 3.5 um, Agilent
Retention time: 7.402 min
Precursor m/z: 168.1019
Precursor type: [M+H]+
m/z	relative intensity
44.0214	24
44.0278	37
67.0614	154
77.0425	67
79.059	407
81.0744	999
93.0712	24
95.0881	333
98.0994	141
105.0712	55
123.0796	86
140.1086	61
168.0985	49
