Mass spectrum: Cocaine; LC-ESI-QTOF; MS2; 60 V
Name: Cocaine
Class: Pharmaceutical
Formula: C17H21NO4
Exact mass: 303.1471
SMILES: CN1C2CCC1C(C(C2)OC(=O)C3=CC=CC=C3)C(=O)OC
InChI: InChI=1S/C17H21NO4/c1-18-12-8-9-13(18)15(17(20)21-2)14(10-12)22-16(19)11-6-4-3-5-7-11/h3-7,12-15H,8-10H2,1-2H3
Instrument: TripleTOF 6600 SCIEX
Instrument type: LC-ESI-QTOF
Ms type: MS2
Ion mode: POSITIVE
Collision energy: 60
Fragmentation mode: CID
Ionization: ESI
Column name: Zorbax Eclipse Plus C18 2.1 mm x 150 mm, 3.5 um, Agilent
Retention time: 6.407 min
Precursor m/z: 304.1543
Precursor type: [M+H]+
m/z	relative intensity
42.0339	43
44.0499	24
50.015	43
51.0226	80
53.0387	24
65.0382	173
67.0417	74
67.0534	49
68.0498	148
70.0648	37
77.0387	999
79.0538	86
80.0492	31
81.0697	43
82.0651	769
83.0725	130
91.0537	384
93.0332	80
94.0646	124
97.0643	68
105.0333	434
105.0454	37
108.0792	68
119.0478	68
122.0968	49
135.0676	31
154.0851	37
182.1159	31
