Mass spectrum: Nadolol; LC-ESI-QTOF; MS2; 40 V
Name: Nadolol
Class: Pharmaceutical
Formula: C17H27NO4
Exact mass: 309.194
SMILES: CC(C)(C)NCC(COC1=CC=CC2=C1CC(C(C2)O)O)O
InChI: InChI=1S/C17H27NO4/c1-17(2,3)18-9-12(19)10-22-16-6-4-5-11-7-14(20)15(21)8-13(11)16/h4-6,12,14-15,18-21H,7-10H2,1-3H3
Instrument: TripleTOF 5600 SCIEX
Instrument type: LC-ESI-QTOF
Ms type: MS2
Ion mode: POSITIVE
Collision energy: 40
Fragmentation mode: CID
Ionization: ESI
Column name: Zorbax Eclipse Plus C18 2.1 mm x 150 mm, 3.5 um, Agilent
Retention time: 5.13 min
Precursor m/z: 310.2013
Precursor type: [M+H]+
m/z	relative intensity
56.0541	318
57.0741	123
72.0481	30
74.0637	457
74.0959	13
77.0416	10
91.0557	99
103.0565	15
105.0693	28
105.0896	13
107.0504	30
115.054	101
116.0616	13
117.07	99
119.0844	19
127.0539	78
128.0619	127
129.069	88
131.0477	58
131.0848	43
132.0557	23
133.0653	73
135.0793	15
141.0705	41
143.085	132
144.0551	32
145.0644	509
147.0794	210
153.0696	99
154.0771	21
155.0547	13
155.0627	10
155.0848	184
156.053	10
157.0632	160
159.0802	301
160.0513	15
161.0595	23
161.0967	17
163.0766	21
165.0681	69
168.0561	28
169.0651	13
170.0736	28
171.0798	481
173.0582	10
173.095	125
174.0896	34
175.0744	78
183.0798	468
189.0903	32
200.1043	15
201.0905	999
206.1149	10
218.1162	97
219.1011	45
236.1269	667
