Mass spectrum: Omeprazole; LC-ESI-QTOF; MS2; 20 V
Name: Omeprazole
Class: Pharmaceutical
Formula: C17H19N3O3S
Exact mass: 345.1147
SMILES: COc1ccc2nc([nH]c2c1)[S](=O)Cc3ncc(C)c(OC)c3C
InChI: InChI=1S/C17H19N3O3S/c1-10-8-18-15(11(2)16(10)23-4)9-24(21)17-19-13-6-5-12(22-3)7-14(13)20-17/h5-8H,9H2,1-4H3,(H,19,20)
Instrument: TripleTOF 5600 SCIEX
Instrument type: LC-ESI-QTOF
Ms type: MS2
Ion mode: POSITIVE
Collision energy: 20
Fragmentation mode: CID
Ionization: ESI
Column name: Zorbax Eclipse Plus C18 2.1 mm x 150 mm, 3.5 um, Agilent
Retention time: 6.462 min
Precursor m/z: 346.122
Precursor type: [M+H]+
m/z	relative intensity
136.0755	51
149.0712	135
150.0915	15
151.0993	352
166.0857	16
168.1019	213
179.0276	49
180.0474	70
198.0576	999
328.1109	33
346.1229	58
