Mass spectrum: 6-Methylthioinosin; LC-ESI-QTOF; MS2; 80 V
Name: 6-Methylthioinosin
Class: Pharmaceutical
Formula: C11H14N4O4S
Exact mass: 298.0736
SMILES: CSc1ncnc2n(cnc12)C3OC(CO)C(O)C3O
InChI: InChI=1S/C11H14N4O4S/c1-20-10-6-9(12-3-13-10)15(4-14-6)11-8(18)7(17)5(2-16)19-11/h3-5,7-8,11,16-18H,2H2,1H3
Instrument: TripleTOF 5600 SCIEX
Instrument type: LC-ESI-QTOF
Ms type: MS2
Ion mode: POSITIVE
Collision energy: 80
Fragmentation mode: CID
Ionization: ESI
Column name: Zorbax Eclipse Plus C18 2.1 mm x 150 mm, 3.5 um, Agilent
Retention time: 5.666 min
Precursor m/z: 299.0809
Precursor type: [M+H]+
m/z	relative intensity
45.042	15
55.0246	18
57.0385	27
57.0488	12
65.0171	116
67.0329	128
69.0366	21
69.0474	12
70.0429	33
70.9859	119
71.0144	39
71.0334	12
71.9932	36
73.0325	21
77.015	24
79.0303	33
81.0343	27
82.9841	36
85.0296	15
92.0252	352
93.0338	21
94.0409	49
97.9943	183
99.0018	91
106.0408	91
107.048	52
119.0351	999
119.0636	12
120.0418	15
121.0498	52
125.0042	732
125.0269	24
126.0122	300
133.0513	42
134.0585	208
140.0279	33
152.0151	818
167.0386	260
