Mass spectrum: Thioxanthen-9-one; LC-ESI-QTOF; MS2; 150 V
Name: Thioxanthen-9-one
Formula: C13H8OS
Exact mass: 212.0296
SMILES: C1=CC=C2C(=C1)C(=O)C3=CC=CC=C3S2
InChI: InChI=1S/C13H8OS/c14-13-9-5-1-3-7-11(9)15-12-8-4-2-6-10(12)13/h1-8H
Instrument: TripleTOF 6600 SCIEX
Instrument type: LC-ESI-QTOF
Ms type: MS2
Ion mode: POSITIVE
Collision energy: 150
Fragmentation mode: CID
Ionization: ESI
Column name: Zorbax Eclipse Plus C18 2.1 mm x 150 mm, 3.5 um, Agilent
Retention time: 13.479 min
Precursor m/z: 213.0369
Precursor type: [M+H]+
m/z	relative intensity
35.9992	47
37.0077	321
38.0161	178
39.023	196
43.9715	53
44.9792	124
49.0073	321
50.0153	933
51.0233	315
59.9997	166
61.007	654
62.0151	660
63.0227	481
67.9716	327
68.9791	903
73.0069	309
74.015	999
75.0233	77
80.9792	35
83.9997	184
85.007	701
86.0149	666
87.0233	178
88.0298	29
89.0391	41
91.9708	107
92.9791	130
97.0083	225
98.0146	434
108.0027	41
109.0069	190
110.0169	89
122.0143	23
137.038	23
