Mass spectrum: Trinexapac-ethyl; LC-ESI-QTOF; MS2; 40 V
Name: Trinexapac-ethyl
Class: Pesticide
Formula: C13H16O5
Exact mass: 252.0998
SMILES: CCOC(=O)C1CC(=O)C(=C(C2CC2)O)C(=O)C1
InChI: InChI=1S/C13H16O5/c1-2-18-13(17)8-5-9(14)11(10(15)6-8)12(16)7-3-4-7/h7-8,16H,2-6H2,1H3
Instrument: TripleTOF 6600 SCIEX
Instrument type: LC-ESI-QTOF
Ms type: MS2
Ion mode: POSITIVE
Collision energy: 40
Fragmentation mode: CID
Ionization: ESI
Column name: Zorbax Eclipse Plus C18 2.1 mm x 150 mm, 3.5 um, Agilent
Retention time: 11.11 min
Precursor m/z: 253.1071
Precursor type: [M+H]+
m/z	relative intensity
37.0074	19
38.0154	15
39.0232	192
41.0391	444
43.0182	12
53.0389	14
65.0377	20
67.0172	6
67.0541	7
68.9974	256
69.0333	999
71.0125	27
77.0376	16
79.0535	12
81.0334	53
81.0698	7
83.049	30
85.0277	81
91.0534	12
93.0329	30
95.0117	52
95.0485	8
97.028	26
99.0066	41
103.0524	6
105.0696	25
107.0505	18
109.028	72
111.0435	222
113.023	54
123.0065	75
123.0424	17
133.0626	15
137.0227	209
139.0385	152
151.0374	6
151.074	11
161.0589	7
165.0174	100
179.07	64
185.0805	6
207.0642	13
