Mass spectrum: Norethynodrel; LC-ESI-QTOF; MS2; 60 V
Name: Norethynodrel
Class: Pharmaceutical
Formula: C20H26O2
Exact mass: 298.1933
SMILES: C[C@]12CC[C@H]3[C@@H](CCC4=C3CCC(=O)C4)[C@@H]1CC[C@@]2(O)C#C
InChI: InChI=1S/C20H26O2/c1-3-20(22)11-9-18-17-6-4-13-12-14(21)5-7-15(13)16(17)8-10-19(18,20)2/h1,16-18,22H,4-12H2,2H3/t16-,17-,18+,19+,20+/m1/s1
Instrument: TripleTOF 5600 SCIEX
Instrument type: LC-ESI-QTOF
Ms type: MS2
Ion mode: POSITIVE
Collision energy: 60
Fragmentation mode: CID
Ionization: ESI
Column name: Zorbax Eclipse Plus C18 2.1 mm x 150 mm, 3.5 um, Agilent
Retention time: 11.133 min
Precursor m/z: 299.2006
Precursor type: [M+H]+
m/z	relative intensity
43.0244	10
53.0439	15
55.0236	37
55.0594	95
65.0421	115
67.058	163
77.0414	538
78.0482	13
79.057	645
81.0371	18
81.0724	317
83.0508	340
89.0407	10
91.0561	999
93.0711	172
94.042	17
95.0497	18
95.0856	43
97.0643	15
103.0542	125
104.0615	22
105.0695	354
107.049	143
107.085	46
109.0646	452
109.0995	24
115.0541	396
116.0618	97
117.0691	223
119.0851	160
121.0629	17
121.1005	19
123.0808	21
127.0533	91
128.0618	454
129.0691	287
130.0778	66
131.0488	15
131.0854	130
133.0637	33
133.1006	13
135.0791	54
141.0691	229
142.0771	122
143.0852	104
144.0923	13
145.0639	17
145.1006	49
147.0799	17
149.0963	15
152.0608	46
153.0691	103
154.0782	53
155.0842	93
156.0943	35
157.0988	27
159.0795	10
161.097	29
165.0691	103
166.0778	31
167.085	61
168.0924	16
169.0998	33
171.1151	16
178.0783	61
179.0858	44
181.0994	24
183.1171	16
190.0779	16
191.0848	43
192.0954	19
193.1008	25
203.0861	12
205.0988	11
