Mass spectrum: Carazolol; LC-ESI-QTOF; MS2; 50 V
Name: Carazolol
Class: Pharmaceutical
Formula: C18H22N2O2
Exact mass: 298.1681
SMILES: CC(C)NCC(O)COc1cccc2[nH]c3ccccc3c12
InChI: InChI=1S/C18H22N2O2/c1-12(2)19-10-13(21)11-22-17-9-5-8-16-18(17)14-6-3-4-7-15(14)20-16/h3-9,12-13,19-21H,10-11H2,1-2H3
Instrument: TripleTOF 5600 SCIEX
Instrument type: LC-ESI-QTOF
Ms type: MS2
Ion mode: POSITIVE
Collision energy: 50
Fragmentation mode: CID
Ionization: ESI
Column name: Zorbax Eclipse Plus C18 2.1 mm x 150 mm, 3.5 um, Agilent
Retention time: 6.882 min
Precursor m/z: 299.1754
Precursor type: [M+H]+
m/z	relative intensity
56.0559	515
58.0706	97
72.0844	220
74.0641	431
98.097	72
100.1127	40
115.0536	12
116.0489	17
116.1075	456
117.0565	10
127.0543	17
128.0499	13
128.0615	54
129.0699	273
130.0648	46
139.0539	98
140.0494	15
141.0696	40
151.0544	14
152.0616	50
153.0647	10
154.0651	151
155.0732	53
156.0815	406
165.0695	56
166.0655	524
167.0742	540
168.0812	422
176.0631	13
177.07	52
178.0681	30
179.0732	75
180.0817	99
182.0946	30
183.0677	69
184.0758	465
191.0723	32
192.0813	108
193.0891	424
194.0968	999
196.0759	100
203.0742	13
204.0815	131
205.0888	25
207.0677	69
210.0913	17
220.0751	40
221.0823	36
222.0915	83
