Mass spectrum: Malachite green cation; LC-ESI-QTOF; MS2; 140 V
Name: Malachite green cation
Class: Industrial_process; Pigment; Antimicrobial; Fungicide
Formula: [C23H25N2]+
Exact mass: 329.2012
SMILES: CN(C)C1=CC=C(C=C1)C(=C2C=CC(=[N+](C)C)C=C2)C3=CC=CC=C3
InChI: InChI=1S/C23H25N2/c1-24(2)21-14-10-19(11-15-21)23(18-8-6-5-7-9-18)20-12-16-22(17-13-20)25(3)4/h5-17H,1-4H3/q+1
Instrument: TripleTOF 5600 SCIEX
Instrument type: LC-ESI-QTOF
Ms type: MS2
Ion mode: POSITIVE
Collision energy: 140
Fragmentation mode: CID
Ionization: ESI
Column name: Zorbax Eclipse Plus C18 2.1 mm x 150 mm, 3.5 um, Agilent
Retention time: 9.29 min
Precursor m/z: 329.2012
Precursor type: [M]+
m/z	relative intensity
115.0517	188
139.0518	101
150.0401	72
151.0557	101
152.0646	86
162.0485	86
163.0531	579
164.0615	202
165.0734	159
176.0643	72
187.0545	101
188.0652	57
189.0741	144
200.0625	202
201.0691	72
202.079	72
211.0559	130
212.0648	86
213.0697	260
224.0594	376
225.0741	217
226.0797	260
235.0553	115
236.0685	202
237.0695	999
238.077	260
239.0847	593
251.0719	86
