Mass spectrum: Dinoterb; LC-ESI-QTOF; MS2; 40 V
Name: Dinoterb
Class: Herbicide
Formula: C10H12N2O5
Exact mass: 240.0746
SMILES: CC(C)(C)C1=C(C(=CC(=C1)[N+](=O)[O-])[N+](=O)[O-])O
InChI: InChI=1S/C10H12N2O5/c1-10(2,3)7-4-6(11(14)15)5-8(9(7)13)12(16)17/h4-5,13H,1-3H3
Instrument: TripleTOF 6600 SCIEX
Instrument type: LC-ESI-QTOF
Ms type: MS2
Ion mode: NEGATIVE
Collision energy: 40
Fragmentation mode: CID
Ionization: ESI
Column name: Zorbax Eclipse Plus C18 2.1 mm x 150 mm, 3.5 um, Agilent
Retention time: 13.854 min
Precursor m/z: 239.0673
Precursor type: [M-H]-
m/z	relative intensity
45.9916	35
107.0836	22
123.0302	61
134.0218	20
136.0497	25
148.0374	66
149.0456	160
150.0539	87
151.0243	23
151.0739	96
162.0164	65
164.0683	82
176.0326	300
177.0402	281
178.0475	73
179.0681	65
193.0697	19
194.0421	51
207.0385	999
208.0578	24
209.0655	37
223.0305	12
224.0412	27
239.0642	510
