Mass spectrum: Kresoxim-methyl; LC-ESI-QTOF; MS2; 60 V
Name: Kresoxim-methyl
Class: Fungicide
Formula: C18H19NO4
Exact mass: 313.1314
SMILES: CC1=CC=CC=C1OCC2=CC=CC=C2C(=NOC)C(=O)OC
InChI: InChI=1S/C18H19NO4/c1-13-8-4-7-11-16(13)23-12-14-9-5-6-10-15(14)17(19-22-3)18(20)21-2/h4-11H,12H2,1-3H3
Instrument: TripleTOF 6600 SCIEX
Instrument type: LC-ESI-QTOF
Ms type: MS2
Ion mode: POSITIVE
Collision energy: 60
Fragmentation mode: CID
Ionization: ESI
Column name: Zorbax Eclipse Plus C18 2.1 mm x 150 mm, 3.5 um, Agilent
Retention time: 13.809 min
Precursor m/z: 314.1387
Precursor type: [M+H]+
m/z	relative intensity
63.0229	28
65.0378	67
77.0373	139
78.045	15
79.0529	46
89.0379	465
90.0446	97
91.0529	299
103.0527	38
104.0504	19
105.0704	13
107.048	17
115.0513	40
116.0479	368
117.0567	138
118.0389	15
118.0641	99
119.0477	32
121.0648	21
127.0542	32
128.0463	11
128.0568	36
130.0635	199
131.0708	107
132.0428	44
132.079	13
139.0521	42
140.0472	44
141.0689	23
146.0587	30
150.046	19
151.0525	239
152.0601	410
153.0682	113
154.0619	23
163.052	17
164.0593	36
165.0691	556
166.0715	118
167.0754	153
168.0794	32
175.0542	13
176.0606	207
177.0688	182
178.0758	999
179.0796	370
180.0796	582
181.0638	95
188.0489	17
189.0656	97
190.0663	166
191.0704	49
191.0826	30
192.0556	21
192.0798	111
193.089	285
194.0696	46
194.0948	429
195.0793	67
196.072	13
201.0544	17
202.0624	38
203.0728	209
204.0809	95
205.0699	24
205.0896	15
206.0597	465
206.0927	40
207.0715	168
208.0806	93
209.0761	19
210.0909	17
219.0679	17
220.0766	69
221.0824	34
222.0892	105
223.0967	34
224.1039	13
235.0702	38
236.1069	15
