Mass spectrum: Oseltamivir; LC-ESI-QTOF; MS2; 140 V
Name: Oseltamivir
Class: Pharmaceutical
Formula: C16H28N2O4
Exact mass: 312.2049
SMILES: CCC(CC)O[C@@H]1C=C(C[C@@H]([C@H]1/N=C(\C)/O)N)C(=O)OCC
InChI: InChI=1S/C16H28N2O4/c1-5-12(6-2)22-14-9-11(16(20)21-7-3)8-13(17)15(14)18-10(4)19/h9,12-15H,5-8,17H2,1-4H3,(H,18,19)/t13-,14+,15+/m0/s1
Instrument: TripleTOF 5600 SCIEX
Instrument type: LC-ESI-QTOF
Ms type: MS2
Ion mode: POSITIVE
Collision energy: 140
Fragmentation mode: CID
Ionization: ESI
Column name: Zorbax Eclipse Plus C18 2.1 mm x 150 mm, 3.5 um, Agilent
Retention time: 6.973 min
Precursor m/z: 313.2122
Precursor type: [M+H]+
m/z	relative intensity
41.0339	23
43.0246	169
51.0281	499
52.0238	18
53.0438	89
54.0379	28
65.0424	999
66.0352	23
66.0498	240
67.0444	329
68.0542	32
75.0229	28
77.0404	461
78.0352	51
80.0513	518
82.0682	42
91.0425	28
92.0496	202
93.0576	146
94.0653	32
