Mass spectrum: Etofibrate; LC-ESI-QTOF; MS2; 110 V
Name: Etofibrate
Class: Pharmaceutical
Formula: C18H18ClNO5
Exact mass: 363.0874
SMILES: CC(C)(C(=O)OCCOC(=O)C1=CN=CC=C1)OC2=CC=C(C=C2)Cl
InChI: InChI=1S/C18H18ClNO5/c1-18(2,25-15-7-5-14(19)6-8-15)17(22)24-11-10-23-16(21)13-4-3-9-20-12-13/h3-9,12H,10-11H2,1-2H3
Instrument: TripleTOF 6600 SCIEX
Instrument type: LC-ESI-QTOF
Ms type: MS2
Ion mode: POSITIVE
Collision energy: 110
Fragmentation mode: CID
Ionization: ESI
Column name: Zorbax Eclipse Plus C18 2.1 mm x 150 mm, 3.5 um, Agilent
Retention time: 12.631 min
Precursor m/z: 364.0946
Precursor type: [M+H]+
m/z	relative intensity
37.0063	17
38.014	15
39.0221	123
41.0379	180
42.0458	25
43.0169	13
45.0327	20
49.0064	16
50.0138	78
51.022	230
52.0174	74
52.0289	43
53.0376	205
55.017	547
65.0373	30
69.0319	72
70.0396	12
73.027	16
74.0139	67
75.0218	175
77.0373	50
78.0328	999
79.0406	105
80.0483	644
84.9824	16
91.0531	10
92.0479	11
93.0555	27
94.0399	28
99.0427	330
106.0273	21
106.0633	20
110.998	45
113.0576	36
122.0223	10
124.0374	132
139.0031	10
