Mass spectrum: Metrafenone; LC-ESI-QTOF; MS2; 90 V
Name: Metrafenone
Class: Fungicide
Formula: C19H21BrO5
Exact mass: 408.0572
SMILES: CC1=CC(=C(C(=C1C(=O)C2=C(C=CC(=C2C)Br)OC)OC)OC)OC
InChI: InChI=1S/C19H21BrO5/c1-10-9-14(23-4)18(24-5)19(25-6)15(10)17(21)16-11(2)12(20)7-8-13(16)22-3/h7-9H,1-6H3
Instrument: TripleTOF 6600 SCIEX
Instrument type: LC-ESI-QTOF
Ms type: MS2
Ion mode: POSITIVE
Collision energy: 90
Fragmentation mode: CID
Ionization: ESI
Column name: Zorbax Eclipse Plus C18 2.1 mm x 150 mm, 3.5 um, Agilent
Retention time: 15.123 min
Precursor m/z: 409.0645
Precursor type: [M+H]+
m/z	relative intensity
39.0267	23
41.042	17
50.0185	22
51.0267	105
52.0346	31
53.0424	11
61.0102	13
62.0177	18
63.0263	66
64.0347	21
65.0426	120
66.0495	43
67.0212	16
67.058	51
74.0186	12
75.0275	32
76.0341	43
77.0423	999
78.0493	70
79.0573	128
80.029	51
81.0365	11
81.0731	20
89.0424	682
90.0499	597
91.0577	630
92.0651	27
93.0005	16
93.0374	21
94.0441	94
95.0524	61
105.0369	408
106.0436	65
107.0525	123
108.0232	85
108.0592	25
109.0682	38
118.044	27
119.0519	65
120.0596	18
121.0315	63
121.0673	20
122.0394	78
123.0467	166
133.031	25
134.0381	30
135.046	96
136.0548	24
137.0619	31
142.9499	14
147.0449	16
148.0531	23
149.0266	16
150.032	57
151.042	114
154.9513	338
155.957	61
163.0404	46
165.0553	128
166.0653	15
168.9667	131
182.9454	563
183.9523	186
191.0364	42
193.0507	15
196.9646	13
211.9479	42
226.9704	22
