Mass spectrum: Meptazinol; LC-ESI-QTOF; MS2; 60 V
Name: Meptazinol
Class: Pharmaceutical
Formula: C15H23NO
Exact mass: 233.178
SMILES: CCC1(CCCCN(C1)C)C2=CC(=CC=C2)O
InChI: InChI=1S/C15H23NO/c1-3-15(9-4-5-10-16(2)12-15)13-7-6-8-14(17)11-13/h6-8,11,17H,3-5,9-10,12H2,1-2H3
Instrument: TripleTOF 5600 SCIEX
Instrument type: LC-ESI-QTOF
Ms type: MS2
Ion mode: POSITIVE
Collision energy: 60
Fragmentation mode: CID
Ionization: ESI
Column name: Zorbax Eclipse Plus C18 2.1 mm x 150 mm, 3.5 um, Agilent
Retention time: 5.641 min
Precursor m/z: 234.1852
Precursor type: [M+H]+
m/z	relative intensity
39.0227	15
41.0382	14
44.0493	65
51.0228	43
55.0175	29
55.0538	31
65.0381	23
67.0538	31
70.0648	22
77.0387	999
79.0543	290
91.0542	128
93.0698	11
103.0542	120
105.0696	146
107.0493	797
115.0544	74
116.0635	11
117.0692	26
121.0655	21
127.0544	34
128.0622	41
131.0489	119
132.057	36
133.0659	41
145.0646	46
146.0729	13
