Mass spectrum: Metazachlor; LC-ESI-QTOF; MS2; 60 V
Name: Metazachlor
Class: Herbicide
Formula: C14H16ClN3O
Exact mass: 277.0982
SMILES: Cc1cccc(C)c1N(Cn2cccn2)C(=O)CCl
InChI: InChI=1S/C14H16ClN3O/c1-11-5-3-6-12(2)14(11)18(13(19)9-15)10-17-8-4-7-16-17/h3-8H,9-10H2,1-2H3
Instrument: TripleTOF 5600 SCIEX
Instrument type: LC-ESI-QTOF
Ms type: MS2
Ion mode: POSITIVE
Collision energy: 60
Fragmentation mode: CID
Ionization: ESI
Column name: Zorbax Eclipse Plus C18 2.1 mm x 150 mm, 3.5 um, Agilent
Retention time: 11.114 min
Precursor m/z: 278.1055
Precursor type: [M+H]+
m/z	relative intensity
76.9821	16
77.0421	98
79.0578	146
91.0559	29
103.0554	171
105.0707	745
106.0771	18
107.0865	27
117.0583	24
118.065	16
119.0728	22
132.0807	36
134.0966	999
