Mass spectrum: Fenbendazole; LC-ESI-QTOF; MS2; 120 V
Name: Fenbendazole
Class: Pharmaceutical
Formula: C15H13N3O2S
Exact mass: 299.0728
SMILES: COC(=O)Nc1[nH]c2cc(Sc3ccccc3)ccc2n1
InChI: InChI=1S/C15H13N3O2S/c1-20-15(19)18-14-16-12-8-7-11(9-13(12)17-14)21-10-5-3-2-4-6-10/h2-9H,1H3,(H2,16,17,18,19)
Instrument: TripleTOF 5600 SCIEX
Instrument type: LC-ESI-QTOF
Ms type: MS2
Ion mode: POSITIVE
Collision energy: 120
Fragmentation mode: CID
Ionization: ESI
Column name: Zorbax Eclipse Plus C18 2.1 mm x 150 mm, 3.5 um, Agilent
Retention time: 9.947 min
Precursor m/z: 300.0801
Precursor type: [M+H]+
m/z	relative intensity
51.0303	119
52.0245	43
52.0342	32
53.0301	32
60.0039	11
64.0547	10
65.0303	23
65.0413	57
66.0379	26
67.9744	11
68.9828	198
69.0118	48
69.9899	16
74.0166	18
75.0149	136
75.0363	10
76.0213	704
77.0293	999
78.0359	168
79.0442	11
81.989	62
82.9841	23
83.9924	15
87.0229	13
88.0187	15
88.0319	13
89.0393	40
90.035	42
91.043	26
92.0368	77
92.9787	53
92.9906	11
93.0455	23
93.9884	16
94.9956	62
95.9904	13
99.0254	25
101.0393	25
102.0455	21
103.0284	89
103.0607	10
104.037	217
105.0451	84
108.0018	15
108.998	26
110.0069	11
113.0376	43
114.0446	13
115.0533	72
118.0509	13
119.0484	15
119.99	25
121.0089	13
122.0051	37
123.013	11
125.0382	26
126.046	90
127.054	153
128.06	35
130.0407	43
131.0489	25
135.0017	13
137.0404	16
138.0464	13
139.0532	80
140.0483	55
145.0093	25
152.0492	33
153.058	18
154.0651	15
158.0187	13
159.0432	11
164.05	16
169.0103	32
170.0193	20
171.0261	75
183.0092	10
196.021	40
