Mass spectrum: Albendazole; LC-ESI-QTOF; MS2; 150 V
Name: Albendazole
Class: Pharmaceutical
Formula: C12H15N3O2S
Exact mass: 265.0885
SMILES: CCCSc1ccc2nc(NC(=O)OC)[nH]c2c1
InChI: InChI=1S/C12H15N3O2S/c1-3-6-18-8-4-5-9-10(7-8)14-11(13-9)15-12(16)17-2/h4-5,7H,3,6H2,1-2H3,(H2,13,14,15,16)
Instrument: TripleTOF 5600 SCIEX
Instrument type: LC-ESI-QTOF
Ms type: MS2
Ion mode: POSITIVE
Collision energy: 150
Fragmentation mode: CID
Ionization: ESI
Column name: Zorbax Eclipse Plus C18 2.1 mm x 150 mm, 3.5 um, Agilent
Retention time: 8.546 min
Precursor m/z: 266.0958
Precursor type: [M+H]+
m/z	relative intensity
51.029	272
52.0249	214
52.0368	118
53.0192	19
53.0327	19
54.0069	16
54.0392	19
56.984	105
57.9804	22
57.9922	44
59.9943	12
60.0034	32
61.0341	12
65.0296	92
65.042	22
66.0354	80
67.0447	16
67.9753	96
68.983	999
69.0123	166
69.9912	73
70.9982	12
74.0071	19
75.0132	432
75.0402	32
76.0211	883
76.0477	28
77.0162	35
77.0284	124
78.036	121
79.042	22
80.9808	86
81.9768	22
81.9887	176
82.002	19
82.9844	73
83.9911	35
90.0345	19
91.9736	25
92.039	38
92.9807	304
93.9753	80
94.9963	60
103.0301	28
105.0439	28
110.0043	12
117.976	12
119.9902	16
