Mass spectrum: Hydroxy-DEET; LC-ESI-QTOF; MS2; 40 V
Name: Hydroxy-DEET
Class: Metabolite; Biocide; Personal_care_product; Transformation_product-Metabolite
Formula: C12H17NO2
Exact mass: 207.1259
SMILES: CCN(CC)C(=O)C1=CC(=CC=C1)CO
InChI: InChI=1S/C12H17NO2/c1-3-13(4-2)12(15)11-7-5-6-10(8-11)9-14/h5-8,14H,3-4,9H2,1-2H3
Instrument: TripleTOF 5600 SCIEX
Instrument type: LC-ESI-QTOF
Ms type: MS2
Ion mode: POSITIVE
Collision energy: 40
Fragmentation mode: CID
Ionization: ESI
Column name: Zorbax Eclipse Plus C18 2.1 mm x 150 mm, 3.5 um, Agilent
Retention time: 6.973 min
Precursor m/z: 208.1332
Precursor type: [M+H]+
m/z	relative intensity
44.0257	23
63.0308	46
72.0506	60
77.0447	111
79.06	31
89.0431	999
91.0586	76
105.0369	83
107.0524	245
119.0516	27
134.0617	33
135.0462	530
