Mass spectrum: Flufenacet; LC-ESI-QTOF; MS2; 70 V
Name: Flufenacet
Class: Herbicide
Formula: C14H13F4N3O2S
Exact mass: 363.0665
SMILES: CC(C)N(C1=CC=C(C=C1)F)C(=O)COC2=NN=C(S2)C(F)(F)F
InChI: InChI=1S/C14H13F4N3O2S/c1-8(2)21(10-5-3-9(15)4-6-10)11(22)7-23-13-20-19-12(24-13)14(16,17)18/h3-6,8H,7H2,1-2H3
Instrument: TripleTOF 6600 SCIEX
Instrument type: LC-ESI-QTOF
Ms type: MS2
Ion mode: POSITIVE
Collision energy: 70
Fragmentation mode: CID
Ionization: ESI
Column name: Zorbax Eclipse Plus C18 2.1 mm x 150 mm, 3.5 um, Agilent
Retention time: 13.345 min
Precursor m/z: 364.0738
Precursor type: [M+H]+
m/z	relative intensity
41.0385	10
51.0227	15
75.0228	31
77.0386	215
78.0334	12
83.029	91
95.0293	156
96.0362	94
97.0451	523
104.0494	59
107.0288	46
109.045	383
110.0398	35
112.0555	13
115.0538	19
122.0397	17
123.0264	165
124.0561	999
134.04	43
135.0479	20
136.0561	38
137.0633	15
151.0427	12
152.0514	41
152.0864	34
