Mass spectrum: 4-Hydroxytrimethoprim; LC-ESI-QTOF; MS2; 80 V
Name: 4-Hydroxytrimethoprim
Class: Pharmaceutical; Transformation_product
Formula: C14H18N4O4
Exact mass: 306.1328
SMILES: COc1cc(cc(c1OC)OC)Cc2c(nc(nc2O)N)N
InChI: InChI=1S/C14H18N4O4/c1-20-9-5-7(6-10(21-2)11(9)22-3)4-8-12(15)17-14(16)18-13(8)19/h5-6H,4H2,1-3H3,(H5,15,16,17,18,19)
Instrument: TripleTOF 5600 SCIEX
Instrument type: LC-ESI-QTOF
Ms type: MS2
Ion mode: POSITIVE
Collision energy: 80
Fragmentation mode: CID
Ionization: ESI
Column name: Zorbax Eclipse Plus C18 2.1 mm x 150 mm, 3.5 um, Agilent
Retention time: 5.43 min
Precursor m/z: 307.1401
Precursor type: [M+H]+
m/z	relative intensity
43.0369	291
52.0237	331
54.039	190
55.0229	358
60.0595	39
64.0355	35
65.0413	88
68.0269	48
69.0118	66
69.0266	22
69.0482	300
77.0417	190
78.0477	79
79.057	79
80.0161	676
86.0371	26
89.0404	265
90.0469	61
91.0556	203
93.0352	35
94.0419	66
95.0513	30
97.0408	999
102.0359	30
105.0344	39
106.0395	22
107.0494	66
109.067	26
116.0511	22
118.0415	22
121.0286	39
122.0358	110
123.0416	35
130.0294	26
136.0524	44
137.0594	128
138.0707	26
139.0617	256
144.0481	17
148.0526	119
149.0233	17
151.0364	35
158.0237	17
