Mass spectrum: Metolachlor; LC-ESI-QTOF; MS2; 70 V
Name: Metolachlor
Class: Herbicide
Formula: C15H22ClNO2
Exact mass: 283.1339
SMILES: CCc1cccc(C)c1N(C(C)COC)C(=O)CCl
InChI: InChI=1S/C15H22ClNO2/c1-5-13-8-6-7-11(2)15(13)17(14(18)9-16)12(3)10-19-4/h6-8,12H,5,9-10H2,1-4H3
Instrument: TripleTOF 5600 SCIEX
Instrument type: LC-ESI-QTOF
Ms type: MS2
Ion mode: POSITIVE
Collision energy: 70
Fragmentation mode: CID
Ionization: ESI
Column name: Zorbax Eclipse Plus C18 2.1 mm x 150 mm, 3.5 um, Agilent
Retention time: 13.304 min
Precursor m/z: 284.1412
Precursor type: [M+H]+
m/z	relative intensity
45.0415	128
48.99	88
65.0426	185
73.0683	73
76.9817	30
77.0414	323
78.0483	57
79.0566	91
89.0402	22
90.0477	17
91.0564	999
92.0607	26
93.0589	308
94.0414	14
102.0465	22
103.0541	143
104.0622	116
105.0706	111
106.065	141
107.0728	80
108.0803	159
109.0653	22
115.0547	393
116.0616	74
117.0619	443
118.0651	381
119.0734	413
120.0807	140
127.0544	28
128.0493	14
128.0615	28
129.069	30
130.0651	571
131.073	420
132.0807	550
133.0506	17
133.0882	225
134.0961	92
141.067	10
142.0645	37
143.0731	149
144.0808	565
145.0884	181
146.0612	39
146.0966	166
147.0685	21
156.0814	25
157.0883	22
158.0966	110
159.1041	20
160.1122	50
176.1438	12
