Mass spectrum: Metachrome Yellow free acid; LC-ESI-QTOF; MS2; 90 V
Name: Metachrome Yellow free acid
Formula: C13H9N3O5
Exact mass: 287.0542
SMILES: C1=CC(=CC(=C1)[N+](=O)[O-])N=NC2=CC(=C(C=C2)O)C(=O)O
InChI: InChI=1S/C13H9N3O5/c17-12-5-4-9(7-11(12)13(18)19)15-14-8-2-1-3-10(6-8)16(20)21/h1-7,17H,(H,18,19)
Instrument: TripleTOF 6600 SCIEX
Instrument type: LC-ESI-QTOF
Ms type: MS2
Ion mode: POSITIVE
Collision energy: 90
Fragmentation mode: CID
Ionization: ESI
Column name: Zorbax Eclipse Plus C18 2.1 mm x 150 mm, 3.5 um, Agilent
Retention time: 11.919 min
Precursor m/z: 288.0615
Precursor type: [M+H]+
m/z	relative intensity
37.0061	18
38.014	46
39.0221	74
50.0141	180
51.0218	105
52.017	113
53.001	64
61.0061	85
62.0137	203
63.0221	999
64.0294	193
65.0371	10
73.0062	20
74.0134	291
75.0214	880
76.0173	28
76.0298	131
77.025	15
77.0375	28
78.0328	80
79.0156	18
80.0126	108
82.0277	15
86.0135	10
87.0211	46
88.0291	82
89.0368	129
90.0334	12
90.045	18
91.0158	12
91.0383	15
92.0239	18
101.0376	12
102.0336	15
113.0366	191
114.0323	95
114.0449	41
115.0395	38
115.053	18
128.0507	15
138.035	25
139.0517	118
140.0465	201
141.0536	30
142.0559	23
165.0426	18
166.0512	74
