Mass spectrum: Anagrelide; LC-ESI-QTOF; MS2; 40 V
Name: Anagrelide
Class: Pharmaceutical
Formula: C10H7Cl2N3O
Exact mass: 254.9966
SMILES: c1cc(c(c2c1NC3=NC(=O)CN3C2)Cl)Cl
InChI: InChI=1S/C10H7Cl2N3O/c11-6-1-2-7-5(9(6)12)3-15-4-8(16)14-10(15)13-7/h1-2H,3-4H2,(H,13,14,16)
Instrument: TripleTOF 5600 SCIEX
Instrument type: LC-ESI-QTOF
Ms type: MS2
Ion mode: POSITIVE
Collision energy: 40
Fragmentation mode: CID
Ionization: ESI
Column name: Zorbax Eclipse Plus C18 2.1 mm x 150 mm, 3.5 um, Agilent
Retention time: 7.666 min
Precursor m/z: 256.0039
Precursor type: [M+H]+
m/z	relative intensity
100.0163	19
135.9937	53
137.0023	36
144.9593	48
151.0178	81
163.006	15
164.0021	42
171.9708	176
185.986	24
198.9828	999
228.0085	318
256.0037	143
