Mass spectrum: Phenylbutazone; LC-ESI-QTOF; MS2; 80 V
Name: Phenylbutazone
Class: Pharmaceutical
Formula: C19H20N2O2
Exact mass: 308.1525
SMILES: CCCCC1C(=O)N(N(C1=O)C2=CC=CC=C2)C3=CC=CC=C3
InChI: InChI=1S/C19H20N2O2/c1-2-3-14-17-18(22)20(15-10-6-4-7-11-15)21(19(17)23)16-12-8-5-9-13-16/h4-13,17H,2-3,14H2,1H3
Instrument: TripleTOF 5600 SCIEX
Instrument type: LC-ESI-QTOF
Ms type: MS2
Ion mode: POSITIVE
Collision energy: 80
Fragmentation mode: CID
Ionization: ESI
Column name: Zorbax Eclipse Plus C18 2.1 mm x 150 mm, 3.5 um, Agilent
Retention time: 13.103 min
Precursor m/z: 309.1598
Precursor type: [M+H]+
m/z	relative intensity
55.027	23
66.0536	26
67.061	10
77.0451	999
78.0398	17
78.051	21
79.0596	28
89.0443	16
90.0498	11
91.0575	53
92.054	215
93.036	16
93.0615	81
94.0457	17
94.0692	117
103.0551	11
104.0521	61
105.0504	35
106.0673	63
115.0558	21
116.0523	10
117.059	33
118.0676	72
120.0452	18
128.0515	23
130.0666	35
132.0453	19
133.0542	41
139.0552	12
140.0523	15
144.0817	10
146.0614	13
166.0657	14
167.0731	27
168.0828	10
181.0763	70
182.0841	16
206.0851	12
