Mass spectrum: 3-(Diethylcarbamoyl)benzoic acid; LC-ESI-QTOF; MS2; 50 V
Name: 3-(Diethylcarbamoyl)benzoic acid
Class: Biocide; Personal_care_product; Transformation_product-Metabolite
Formula: C12H15NO3
Exact mass: 221.1052
SMILES: CCN(CC)C(=O)C1=CC(=CC=C1)C(=O)O
InChI: InChI=1S/C12H15NO3/c1-3-13(4-2)11(14)9-6-5-7-10(8-9)12(15)16/h5-8H,3-4H2,1-2H3,(H,15,16)
Instrument: TripleTOF 5600 SCIEX
Instrument type: LC-ESI-QTOF
Ms type: MS2
Ion mode: POSITIVE
Collision energy: 50
Fragmentation mode: CID
Ionization: ESI
Column name: Zorbax Eclipse Plus C18 2.1 mm x 150 mm, 3.5 um, Agilent
Retention time: 7.356 min
Precursor m/z: 222.1125
Precursor type: [M+H]+
m/z	relative intensity
39.0227	32
44.0127	19
65.0384	999
72.0445	10
75.0223	76
77.0381	44
79.0535	22
93.0329	110
102.0331	22
103.0172	59
121.0282	567
148.0389	74
149.0236	232
