Mass spectrum: Triphenyl phosphate; LC-ESI-QTOF; MS2; 90 V
Name: Triphenyl phosphate
Class: Industrial_process
Formula: C18H15O4P
Exact mass: 326.0708
SMILES: C1=CC=C(C=C1)OP(=O)(OC2=CC=CC=C2)OC3=CC=CC=C3
InChI: InChI=1S/C18H15O4P/c19-23(20-16-10-4-1-5-11-16,21-17-12-6-2-7-13-17)22-18-14-8-3-9-15-18/h1-15H
Instrument: TripleTOF 5600 SCIEX
Instrument type: LC-ESI-QTOF
Ms type: MS2
Ion mode: POSITIVE
Collision energy: 90
Fragmentation mode: CID
Ionization: ESI
Column name: Zorbax Eclipse Plus C18 2.1 mm x 150 mm, 3.5 um, Agilent
Retention time: 14.07 min
Precursor m/z: 327.0781
Precursor type: [M+H]+
m/z	relative intensity
50.0151	126
51.0233	613
65.0378	25
74.0152	15
75.0223	25
77.0389	869
78.0468	25
80.9741	15
92.0265	18
99.0226	18
101.0382	18
102.0474	49
114.0448	20
115.0538	54
125.0384	36
126.0459	175
127.0543	85
133.0198	25
139.0538	263
140.0602	20
141.0676	15
149.0391	15
150.047	170
151.0549	559
152.0627	999
157.0181	15
168.0563	134
176.0543	12
186.0276	18
200.0608	33
201.0675	25
202.0763	25
224.0571	36
225.0725	49
226.0788	214
