Mass spectrum: Cyprodinil; LC-ESI-QTOF; MS2; 40 V
Name: Cyprodinil
Class: Fungicide
Formula: C14H15N3
Exact mass: 225.1266
SMILES: CC1=CC(=NC(=N1)NC2=CC=CC=C2)C3CC3
InChI: InChI=1S/C14H15N3/c1-10-9-13(11-7-8-11)17-14(15-10)16-12-5-3-2-4-6-12/h2-6,9,11H,7-8H2,1H3,(H,15,16,17)
Instrument: TripleTOF 6600 SCIEX
Instrument type: LC-ESI-QTOF
Ms type: MS2
Ion mode: POSITIVE
Collision energy: 40
Fragmentation mode: CID
Ionization: ESI
Column name: Zorbax Eclipse Plus C18 2.1 mm x 150 mm, 3.5 um, Agilent
Retention time: 10.83 min
Precursor m/z: 226.1339
Precursor type: [M+H]+
m/z	relative intensity
42.0339	18
51.0227	12
65.0385	76
66.0462	18
67.0419	10
67.0541	14
68.0492	16
77.0387	140
79.0541	63
80.0492	29
81.0697	29
82.0649	14
89.0382	15
91.0539	134
92.0497	90
93.0574	354
94.0649	17
104.049	18
106.065	98
108.0798	179
109.0766	13
115.0533	11
116.049	42
117.0566	36
118.0541	151
119.0603	90
131.0601	50
132.0682	50
133.0757	76
142.0648	12
143.0608	43
144.0805	43
145.0753	20
159.0911	18
167.072	38
168.0774	32
169.076	22
181.0773	15
182.0833	24
183.0855	32
184.087	38
185.1071	30
193.0758	47
194.0837	47
197.0953	12
198.1027	16
207.0917	31
208.0987	17
209.1071	37
210.1027	104
211.1104	15
224.1175	22
226.1347	999
