Mass spectrum: Ecgonine ethyl ester; LC-ESI-QTOF; MS2; 90 V
Name: Ecgonine ethyl ester
Formula: C11H19NO3
Exact mass: 213.1365
SMILES: CCOC(=O)C1C2CCC(N2C)CC1O
InChI: InChI=1S/C11H19NO3/c1-3-15-11(14)10-8-5-4-7(12(8)2)6-9(10)13/h7-10,13H,3-6H2,1-2H3
Instrument: TripleTOF 6600 SCIEX
Instrument type: LC-ESI-QTOF
Ms type: MS2
Ion mode: POSITIVE
Collision energy: 90
Fragmentation mode: CID
Ionization: ESI
Column name: Zorbax Eclipse Plus C18 2.1 mm x 150 mm, 3.5 um, Agilent
Retention time: 2.108 min
Precursor m/z: 214.1438
Precursor type: [M+H]+
m/z	relative intensity
36.0003	62
37.0083	187
38.0039	62
38.0157	187
39.0237	999
40.0207	62
41.0268	124
41.0395	374
42.0352	437
43.0182	124
44.0495	62
51.0234	312
52.018	62
52.0336	62
53.0401	124
54.0347	62
55.0545	124
56.0511	62
65.0383	312
66.0493	62
67.0425	749
67.0543	62
68.0501	624
77.0386	249
78.035	124
79.0425	187
80.0506	374
82.066	624
89.0373	62
91.0547	124
93.0594	62
94.0661	374
106.0645	62
