Mass spectrum: Desmetryn; LC-ESI-QTOF; MS2; 130 V
Name: Desmetryn
Class: Herbicide
Formula: C8H15N5S
Exact mass: 213.1048
SMILES: CC(C)NC1=NC(=NC(=N1)NC)SC
InChI: InChI=1S/C8H15N5S/c1-5(2)10-7-11-6(9-3)12-8(13-7)14-4/h5H,1-4H3,(H2,9,10,11,12,13)
Instrument: TripleTOF 6600 SCIEX
Instrument type: LC-ESI-QTOF
Ms type: MS2
Ion mode: POSITIVE
Collision energy: 130
Fragmentation mode: CID
Ionization: ESI
Column name: Zorbax Eclipse Plus C18 2.1 mm x 150 mm, 3.5 um, Agilent
Retention time: 7.281 min
Precursor m/z: 214.1121
Precursor type: [M+H]+
m/z	relative intensity
37.0065	73
38.0014	33
38.0135	73
39.0218	141
41.0118	129
41.0375	28
42.0199	214
42.0321	50
43.0278	999
43.9707	45
44.9779	293
45.9732	39
46.9934	67
53.0119	90
55.0275	95
57.0431	158
57.9729	174
58.9806	95
59.9886	141
68.0225	270
84.9834	62
