Mass spectrum: Doxorubicin; LC-ESI-QTOF; MS2; 100 V
Name: Doxorubicin
Class: Pharmaceutical
Formula: C27H29NO11
Exact mass: 543.1741
SMILES: C[C@H]1[C@H]([C@H](C[C@@H](O1)O[C@H]2C[C@@](Cc3c2c(c4c(c3O)C(=O)c5cccc(c5C4=O)OC)O)(C(=O)CO)O)N)O
InChI: InChI=1S/C27H29NO11/c1-10-22(31)13(28)6-17(38-10)39-15-8-27(36,16(30)9-29)7-12-19(15)26(35)21-20(24(12)33)23(32)11-4-3-5-14(37-2)18(11)25(21)34/h3-5,10,13,15,17,22,29,31,33,35-36H,6-9,28H2,1-2H3/t10-,13-,15-,17-,22+,27-/m0/s1
Instrument: TripleTOF 5600 SCIEX
Instrument type: LC-ESI-QTOF
Ms type: MS2
Ion mode: POSITIVE
Collision energy: 100
Fragmentation mode: CID
Ionization: ESI
Column name: Zorbax Eclipse Plus C18 2.1 mm x 150 mm, 3.5 um, Agilent
Retention time: 7.064 min
Precursor m/z: 544.1813
Precursor type: [M+H]+
m/z	relative intensity
69.0371	178
72.0472	285
77.0411	249
86.0616	999
91.056	142
113.0626	178
115.0534	178
118.0427	214
130.0853	214
145.029	285
176.0595	392
177.0666	178
178.0765	249
189.0701	428
191.0888	178
200.0639	178
201.0675	178
202.0746	570
203.0833	249
204.0565	642
205.0616	499
206.0707	214
218.0684	178
219.0782	178
221.0568	214
231.0802	178
232.0545	606
233.056	321
234.0662	356
244.0541	285
245.0648	214
247.0745	249
249.0529	428
261.0512	214
262.064	463
272.0447	249
273.0552	428
277.0465	142
278.0588	178
289.0481	927
290.0543	142
305.0379	178
306.0511	677
317.0413	321
318.049	285
329.0426	321
346.0479	713
