Mass spectrum: 2-Hydroxy-n-methyl-n-phenylpropanamide; LC-ESI-QTOF; MS2; 30 V
Name: 2-Hydroxy-n-methyl-n-phenylpropanamide
Formula: C10H13NO2
Exact mass: 179.0946
SMILES: CC(C(=O)N(C)C1=CC=CC=C1)O
InChI: InChI=1S/C10H13NO2/c1-8(12)10(13)11(2)9-6-4-3-5-7-9/h3-8,12H,1-2H3
Instrument: TripleTOF 5600 SCIEX
Instrument type: LC-ESI-QTOF
Ms type: MS2
Ion mode: POSITIVE
Collision energy: 30
Fragmentation mode: CID
Ionization: ESI
Column name: Zorbax Eclipse Plus C18 2.1 mm x 150 mm, 3.5 um, Agilent
Retention time: 6.763 min
Precursor m/z: 180.1019
Precursor type: [M+H]+
m/z	relative intensity
45.0331	22
55.0175	12
56.0496	78
77.0382	106
79.0544	68
91.0537	38
93.0574	149
94.0651	17
103.0547	88
104.0495	54
105.0699	603
106.0652	250
107.074	28
108.081	233
115.0558	18
117.0648	24
118.0651	123
119.0731	459
120.0803	22
132.0806	61
133.0879	22
134.0592	12
134.0969	999
146.0593	12
147.0661	23
162.0919	237
