Mass spectrum: 3-Hydroxycarbamazepine; LC-ESI-QTOF; MS2; 110 V
Name: 3-Hydroxycarbamazepine
Class: Pharmaceutical; Transformation_product-Metabolite
Formula: C15H12N2O2
Exact mass: 252.0899
SMILES: NC(=O)N1c2ccccc2C=Cc3ccc(O)cc13
InChI: InChI=1S/C15H12N2O2/c16-15(19)17-13-4-2-1-3-10(13)5-6-11-7-8-12(18)9-14(11)17/h1-9,18H,(H2,16,19)
Instrument: TripleTOF 5600 SCIEX
Instrument type: LC-ESI-QTOF
Ms type: MS2
Ion mode: NEGATIVE
Collision energy: 110
Fragmentation mode: CID
Ionization: ESI
Column name: Zorbax Eclipse Plus C18 2.1 mm x 150 mm, 3.5 um, Agilent
Retention time: 7.917 min
Precursor m/z: 251.0826
Precursor type: [M-H]-
m/z	relative intensity
40.0232	199
41.0072	999
41.0381	199
42.0005	399
50.0045	99
50.0114	99
66.0021	599
74.004	99
89.0262	99
90.032	99
90.0423	99
113.0385	99
114.0344	99
114.0502	199
115.053	99
116.0503	99
138.0311	199
140.0498	99
