Mass spectrum: Benzoylecgonine; LC-ESI-QTOF; MS2; 60 V
Name: Benzoylecgonine
Class: Pharmaceutical; Metabolite; Transformation_product
Formula: C16H19NO4
Exact mass: 289.1314
SMILES: CN1C2CCC1[C@H]([C@H](C2)OC(=O)c3ccccc3)C(O)=O
InChI: InChI=1S/C16H19NO4/c1-17-11-7-8-12(17)14(15(18)19)13(9-11)21-16(20)10-5-3-2-4-6-10/h2-6,11-14H,7-9H2,1H3,(H,18,19)/t11?,12?,13-,14+/m0/s1
Instrument: TripleTOF 5600 SCIEX
Instrument type: LC-ESI-QTOF
Ms type: MS2
Ion mode: POSITIVE
Collision energy: 60
Fragmentation mode: CID
Ionization: ESI
Column name: Zorbax Eclipse Plus C18 2.1 mm x 150 mm, 3.5 um, Agilent
Retention time: 5.641 min
Precursor m/z: 290.1387
Precursor type: [M+H]+
m/z	relative intensity
42.0418	10
57.0631	17
65.0433	58
67.0457	22
67.0582	84
68.0529	117
70.0697	13
77.0429	999
79.0579	22
80.0521	13
81.0722	19
82.0681	304
83.0522	18
83.0758	92
84.0852	17
91.0563	284
93.0366	15
93.0713	31
94.0666	75
96.0825	35
100.0762	15
105.0348	578
107.0737	19
108.0816	31
117.0567	23
119.0489	48
122.0961	30
124.1109	17
132.0804	10
135.0674	21
150.0913	11
168.1028	18
