Mass spectrum: Aripiprazole; LC-ESI-QTOF; MS2; 60 V
Name: Aripiprazole
Class: Pharmaceutical
Formula: C23H27Cl2N3O2
Exact mass: 447.148
SMILES: Clc1cccc(N2CCN(CCCCOc3ccc4CCC(=O)Nc4c3)CC2)c1Cl
InChI: InChI=1S/C23H27Cl2N3O2/c24-19-4-3-5-21(23(19)25)28-13-11-27(12-14-28)10-1-2-15-30-18-8-6-17-7-9-22(29)26-20(17)16-18/h3-6,8,16H,1-2,7,9-15H2,(H,26,29)
Instrument: TripleTOF 5600 SCIEX
Instrument type: LC-ESI-QTOF
Ms type: MS2
Ion mode: POSITIVE
Collision energy: 60
Fragmentation mode: CID
Ionization: ESI
Column name: Zorbax Eclipse Plus C18 2.1 mm x 150 mm, 3.5 um, Agilent
Retention time: 8.305 min
Precursor m/z: 448.1553
Precursor type: [M+H]+
m/z	relative intensity
42.0432	19
44.0576	13
55.0226	53
55.0586	63
56.0529	83
56.0664	26
69.074	39
70.0684	176
77.0418	16
84.0829	143
91.0559	83
92.0546	13
93.0736	23
94.0653	19
96.0818	39
98.0977	975
103.0584	23
104.0492	23
105.0716	13
106.0651	29
110.0609	23
112.1142	16
116.0498	19
117.0577	183
118.0654	416
120.0446	29
120.0801	123
120.0981	13
122.0598	123
125.0162	16
126.0212	13
130.0665	19
131.0468	13
133.0607	23
134.0597	83
138.01	23
144.9587	19
146.0603	999
148.0762	449
152.026	269
153.0338	456
158.0587	23
160.9774	16
164.0256	26
164.0703	253
165.0332	19
166.0436	16
171.9707	253
173.9873	63
174.0546	26
174.0663	23
176.0708	759
176.1068	19
188.0031	539
188.0304	16
190.0856	33
193.0536	29
195.0685	26
200.0039	362
202.0182	33
207.0704	23
212.9984	19
215.0137	46
216.0322	29
218.1159	19
227.017	16
228.021	296
243.0456	216
285.0921	546
