Mass spectrum: Isopyrazam; LC-ESI-QTOF; MS2; 100 V
Name: Isopyrazam
Class: Fungicide
Formula: C20H23F2N3O
Exact mass: 359.1809
SMILES: CC(C)C1C2CCC1C3=C2C=CC=C3NC(=O)C4=CN(N=C4C(F)F)C
InChI: InChI=1S/C20H23F2N3O/c1-10(2)16-12-7-8-13(16)17-11(12)5-4-6-15(17)23-20(26)14-9-25(3)24-18(14)19(21)22/h4-6,9-10,12-13,16,19H,7-8H2,1-3H3,(H,23,26)
Instrument: TripleTOF 6600 SCIEX
Instrument type: LC-ESI-QTOF
Ms type: MS2
Ion mode: POSITIVE
Collision energy: 100
Fragmentation mode: CID
Ionization: ESI
Column name: Zorbax Eclipse Plus C18 2.1 mm x 150 mm, 3.5 um, Agilent
Retention time: 14.619 min
Precursor m/z: 360.1882
Precursor type: [M+H]+
m/z	relative intensity
37.0066	51
38.0152	43
39.0231	237
41.0387	205
42.0337	186
43.0291	53
43.0545	16
50.0157	14
51.004	22
51.0231	94
52.0198	12
53.002	12
53.0382	22
54.0339	26
55.0538	49
57.0135	77
61.0063	16
62.0152	30
63.0229	77
64.0171	12
65.0384	114
66.0337	18
67.0542	69
68.0113	16
69.0127	14
69.0699	10
70.0088	12
74.0148	45
75.0046	10
75.0224	116
76.0302	34
77.021	20
77.0385	490
78.0355	34
78.0457	65
79.0529	43
82.028	43
83.0286	71
84.0237	43
86.0135	12
87.0226	30
88.0158	43
88.0303	36
89.0376	311
90.0342	14
90.0463	24
91.0305	12
91.0549	125
95.059	26
97.0083	18
98.0057	41
99.0212	65
100.018	10
100.0299	22
101.0381	176
102.0463	205
103.0408	14
103.0538	49
104.0505	28
105.0429	20
106.0213	20
107.0275	49
109.0396	102
111.0326	41
113.0386	168
114.0328	47
114.0457	110
115.0538	999
116.0501	110
117.0569	43
119.024	24
120.0381	32
125.0377	157
126.0459	227
127.0527	576
128.061	818
129.0442	73
129.0552	26
129.0685	24
130.0427	12
130.0626	55
131.0296	51
131.041	59
131.0693	10
132.038	24
133.0445	82
134.038	36
136.0492	10
137.0367	26
138.0332	34
138.0449	59
139.0318	90
139.0524	379
140.049	459
141.0513	51
141.0684	293
142.0624	104
143.0313	10
143.0603	30
143.0768	12
144.0331	12
145.0424	34
146.0445	55
147.0475	14
148.0543	24
149.039	26
150.0448	182
151.0536	361
152.0554	590
153.0572	311
154.0641	334
155.029	26
155.0598	203
156.0387	51
156.0769	32
157.042	71
158.0386	69
159.0354	168
161.0594	12
162.0382	16
163.0536	114
164.0506	211
165.0671	334
166.064	342
167.0708	266
168.0728	166
169.0753	69
170.0528	57
170.0941	10
171.0454	30
172.0544	45
173.0502	63
175.0402	10
175.0536	14
176.0571	139
177.0562	213
178.0663	451
179.0597	404
180.0548	98
180.0772	205
181.0764	123
182.0415	12
182.0671	32
182.0937	12
183.0368	30
183.0784	20
184.0444	20
184.0911	10
185.0676	28
186.0596	36
187.0568	24
188.0508	28
189.0425	18
189.0677	106
190.0644	252
191.0683	330
192.0687	336
193.0754	227
194.0692	69
195.0567	22
195.0889	26
196.0521	20
197.061	12
198.0529	10
200.0598	24
200.0757	14
201.0572	20
201.0708	16
202.0658	73
202.0869	10
203.0662	116
204.062	51
204.0797	162
205.0754	192
206.0715	168
206.0891	51
207.0588	30
207.0781	34
207.0914	20
208.0594	18
208.0884	43
209.0598	22
210.0678	12
212.0836	12
214.0652	10
215.0632	36
216.0535	14
216.0705	57
217.0692	73
217.0881	41
218.0793	94
219.0875	104
220.0879	100
221.0772	28
221.0938	47
222.0605	12
223.0929	12
228.072	20
229.0744	41
230.0744	14
230.0909	22
231.0813	36
232.0843	32
232.0963	22
233.0664	30
233.0922	43
234.0651	20
234.1029	28
235.0875	14
236.0808	53
238.1044	12
242.0754	14
243.0837	30
244.0854	34
245.0975	14
246.0641	16
246.1012	24
247.0816	20
248.0819	24
248.1186	12
249.087	34
250.0994	28
256.0938	10
258.1036	20
260.0822	24
262.0964	32
274.0982	20
276.1088	32
288.1104	10
