Mass spectrum: Sulfamethazine; LC-ESI-QTOF; MS2; 140 V
Name: Sulfamethazine
Class: Antimicrobial; Pharmaceutical
Formula: C12H14N4O2S
Exact mass: 278.0837
SMILES: CC1=CC(=NC(=N1)NS(=O)(=O)C2=CC=C(C=C2)N)C
InChI: InChI=1S/C12H14N4O2S/c1-8-7-9(2)15-12(14-8)16-19(17,18)11-5-3-10(13)4-6-11/h3-7H,13H2,1-2H3,(H,14,15,16)
Instrument: TripleTOF 5600 SCIEX
Instrument type: LC-ESI-QTOF
Ms type: MS2
Ion mode: POSITIVE
Collision energy: 140
Fragmentation mode: CID
Ionization: ESI
Column name: Zorbax Eclipse Plus C18 2.1 mm x 150 mm, 3.5 um, Agilent
Retention time: 6.115 min
Precursor m/z: 279.091
Precursor type: [M+H]+
m/z	relative intensity
40.0353	56
42.0471	193
43.0418	48
51.029	40
52.0317	104
53.0474	281
54.0435	96
65.0461	999
66.0408	112
67.0369	330
67.0504	72
68.0566	96
74.0224	88
77.0441	40
78.0383	56
80.0551	290
95.0647	209
