Mass spectrum: Nitrazepam; LC-ESI-QTOF; MS2; 130 V
Name: Nitrazepam
Class: Pharmaceutical
Formula: C15H11N3O3
Exact mass: 281.08
SMILES: C1C(=O)NC2=C(C=C(C=C2)[N+](=O)[O-])C(=N1)C3=CC=CC=C3
InChI: InChI=1S/C15H11N3O3/c19-14-9-16-15(10-4-2-1-3-5-10)12-8-11(18(20)21)6-7-13(12)17-14/h1-8H,9H2,(H,17,19)
Instrument: TripleTOF 6600 SCIEX
Instrument type: LC-ESI-QTOF
Ms type: MS2
Ion mode: POSITIVE
Collision energy: 130
Fragmentation mode: CID
Ionization: ESI
Column name: Zorbax Eclipse Plus C18 2.1 mm x 150 mm, 3.5 um, Agilent
Retention time: 9.435 min
Precursor m/z: 282.0873
Precursor type: [M+H]+
m/z	relative intensity
35.998	14
37.0068	37
38.0141	31
39.0224	111
49.0058	27
50.0145	282
51.0227	532
52.0176	22
52.0305	29
59.9975	18
61.0068	117
62.0148	145
63.0221	303
65.0381	59
73.006	53
74.0146	496
75.0092	29
75.0216	325
76.0172	46
76.0297	204
77.0373	396
78.0325	11
78.046	63
83.9972	20
85.0067	72
86.0136	159
87.0217	208
88.0166	37
88.0283	37
89.0372	193
97.0064	20
98.0137	258
99.0075	11
99.0222	206
100.0165	11
100.0293	72
101.0386	53
102.044	163
109.0061	27
110.0134	96
111.0207	93
112.0171	14
113.0371	133
114.0334	35
115.0542	59
121.0067	9
122.0141	55
123.0185	39
124.0279	39
125.0372	135
126.045	340
127.0528	102
128.0493	9
128.0593	16
129.0445	20
135.014	14
136.031	11
137.0379	106
138.0318	18
138.0451	16
139.0537	191
140.047	57
149.0387	113
150.0457	999
151.0525	626
152.0603	318
153.0563	26
155.0601	13
161.0362	126
162.0442	128
163.053	230
164.0518	96
175.0405	46
176.0488	48
177.0555	152
178.0628	26
179.0621	14
187.0441	16
188.0499	66
190.0581	13
191.0683	11
