Mass spectrum: Lapatinib; LC-ESI-QTOF; MS2; 110 V
Name: Lapatinib
Class: Pharmaceutical
Formula: C29H26ClFN4O4S
Exact mass: 580.1347
SMILES: CS(=O)(CCNCC1=CC=C(C2=CC3=C(N=CN=C3NC4=CC(Cl)=C(OCC5=CC(F)=CC=C5)C=C4)C=C2)O1)=O
InChI: InChI=1S/C29H26ClFN4O4S/c1-40(36,37)12-11-32-16-23-7-10-27(39-23)20-5-8-26-24(14-20)29(34-18-33-26)35-22-6-9-28(25(30)15-22)38-17-19-3-2-4-21(31)13-19/h2-10,13-15,18,32H,11-12,16-17H2,1H3,(H,33,34,35)
Instrument: TripleTOF 5600 SCIEX
Instrument type: LC-ESI-QTOF
Ms type: MS2
Ion mode: NEGATIVE
Collision energy: 110
Fragmentation mode: CID
Ionization: ESI
Column name: Zorbax Eclipse Plus C18 2.1 mm x 150 mm, 3.5 um, Agilent
Retention time: 8.263 min
Precursor m/z: 579.1275
Precursor type: [M-H]-
m/z	relative intensity
165.0424	43
165.9963	86
192.0324	86
192.0543	43
193.0431	130
220.0539	999
244.0532	86
270.0747	130
281.0615	217
282.0669	130
283.0788	130
284.0863	86
310.0599	130
318.0449	260
346.0388	347
347.0322	86
361.0381	86
