Mass spectrum: Bis(2-ethylhexyl)phosphate; LC-ESI-QTOF; MS2; 120 V
Name: Bis(2-ethylhexyl)phosphate
Class: Industrial_process
Formula: C16H35O4P
Exact mass: 322.2273
InChI: InChI=1S/C16H35O4P/c1-5-9-11-15(7-3)13-19-21(17,18)20-14-16(8-4)12-10-6-2/h15-16H,5-14H2,1-4H3,(H,17,18)
Instrument: TripleTOF 6600 SCIEX
Instrument type: LC-ESI-QTOF
Ms type: CID
Ion mode: NEGATIVE
Collision energy: 120
Ionization: ESI
Column name: Zorbax Eclipse Plus C18 2.1 mm x 150 mm, 3.5 um, Agilent
Retention time: 17.941 min
Precursor m/z: 321.22
Precursor type: [M-H]-
m/z	relative intensity
62.9614	170
78.9559	999
