Mass spectrum: Haloxyfop-methyl; LC-ESI-QTOF; MS2; 60 V
Name: Haloxyfop-methyl
Class: Herbicide
Formula: C16H13ClF3NO4
Exact mass: 375.0485
SMILES: COC(=O)C(C)Oc1ccc(Oc2ncc(cc2Cl)C(F)(F)F)cc1
InChI: InChI=1S/C16H13ClF3NO4/c1-9(15(22)23-2)24-11-3-5-12(6-4-11)25-14-13(17)7-10(8-21-14)16(18,19)20/h3-9H,1-2H3
Instrument: TripleTOF 5600 SCIEX
Instrument type: LC-ESI-QTOF
Ms type: MS2
Ion mode: POSITIVE
Collision energy: 60
Fragmentation mode: CID
Ionization: ESI
Column name: Zorbax Eclipse Plus C18 2.1 mm x 150 mm, 3.5 um, Agilent
Retention time: 14.891 min
Precursor m/z: 376.0558
Precursor type: [M+H]+
m/z	relative intensity
65.0416	255
74.0178	33
75.0248	99
91.0557	999
103.0531	33
119.0458	41
121.029	41
140.0503	41
158.037	33
159.9741	33
175.0179	66
179.9808	165
187.0505	33
188.0353	33
189.0378	66
190.0477	49
197.9919	57
203.0126	74
208.0364	115
209.0419	421
216.0237	255
216.0585	33
218.0421	41
219.0075	66
224.0091	74
226.0413	82
232.0114	90
235.0624	49
237.0379	198
246.0338	41
251.9995	99
252.0603	41
269.0202	33
272.0073	974
288.0045	338
288.035	41
