Mass spectrum: Spinosad A; LC-ESI-QTOF; MS2; 100 V
Name: Spinosad A
Class: Insecticide
Formula: C41H65NO10
Exact mass: 731.4608
SMILES: CCC1CCCC(C(C(=O)C2=CC3C4CC(CC4C=CC3C2CC(=O)O1)OC5C(C(C(C(O5)C)OC)OC)OC)C)OC6CCC(C(O6)C)N(C)C
InChI: InChI=1S/C41H65NO10/c1-10-26-12-11-13-34(52-36-17-16-33(42(5)6)23(3)48-36)22(2)37(44)32-20-30-28(31(32)21-35(43)50-26)15-14-25-18-27(19-29(25)30)51-41-40(47-9)39(46-8)38(45-7)24(4)49-41/h14-15,20,22-31,33-34,36,38-41H,10-13,16-19,21H2,1-9H3
Instrument: TripleTOF 6600 SCIEX
Instrument type: LC-ESI-QTOF
Ms type: MS2
Ion mode: POSITIVE
Collision energy: 100
Fragmentation mode: CID
Ionization: ESI
Column name: Zorbax Eclipse Plus C18 2.1 mm x 150 mm, 3.5 um, Agilent
Retention time: 10.391 min
Precursor m/z: 732.4681
Precursor type: [M+H]+
m/z	relative intensity
39.0225	32
41.038	72
42.0333	10
43.0171	49
44.0487	23
45.0327	27
46.0646	21
47.0481	13
53.0377	13
55.017	13
55.0534	61
56.0487	48
57.0326	31
59.0483	49
65.0376	13
67.0533	68
69.0689	112
70.0642	41
71.0481	76
72.0432	48
72.0798	42
73.0639	14
74.0351	23
75.0429	78
77.0377	32
79.0531	63
81.0322	21
81.0691	27
82.0403	23
83.048	14
83.0845	24
84.0796	30
85.0634	32
85.0875	38
86.0953	13
89.0591	25
91.0528	17
93.0683	9
95.0843	28
97.0639	250
98.035	13
98.0957	999
99.0431	98
99.0796	68
101.0584	124
112.1117	11
113.0586	23
115.053	30
115.0735	20
117.0691	20
124.1108	41
125.0583	50
127.0527	15
128.0604	41
129.0687	75
129.0899	13
131.0846	13
141.0682	79
142.0773	13
142.1218	412
143.0846	15
145.0858	13
152.0614	23
153.0692	102
154.077	49
155.059	9
155.0844	170
157.1001	18
160.1316	12
165.0687	25
166.0763	13
167.0844	37
169.1003	63
171.0793	18
178.076	15
179.0844	21
181.0638	9
181.0998	13
183.08	31
193.0999	13
197.0959	35
199.0757	15
203.0847	12
205.0991	11
