Mass spectrum: Oxibendazole; LC-ESI-QTOF; MS2; 110 V
Name: Oxibendazole
Class: Pharmaceutical
Formula: C12H15N3O3
Exact mass: 249.1113
SMILES: CCCOC1=CC2=C(C=C1)N=C(N2)NC(=O)OC
InChI: InChI=1S/C12H15N3O3/c1-3-6-18-8-4-5-9-10(7-8)14-11(13-9)15-12(16)17-2/h4-5,7H,3,6H2,1-2H3,(H2,13,14,15,16)
Instrument: TripleTOF 5600 SCIEX
Instrument type: LC-ESI-QTOF
Ms type: MS2
Ion mode: POSITIVE
Collision energy: 110
Fragmentation mode: CID
Ionization: ESI
Column name: Zorbax Eclipse Plus C18 2.1 mm x 150 mm, 3.5 um, Agilent
Retention time: 6.663 min
Precursor m/z: 250.1186
Precursor type: [M+H]+
m/z	relative intensity
37.0074	85
38.0154	128
39.0227	356
40.0179	114
41.026	114
43.0295	99
49.0062	71
50.015	442
51.0229	713
52.0186	413
52.0304	328
53.0031	85
53.0387	513
62.0158	71
63.0235	156
64.0178	214
65.0141	85
65.0263	442
66.0212	199
66.0339	642
67.029	99
67.0416	171
68.0134	256
69.0086	214
75.0105	285
76.0188	999
77.0255	128
78.0346	399
79.042	199
80.0129	85
80.0488	185
81.0338	513
92.0365	413
93.0083	99
93.0444	128
94.0304	99
96.0451	71
103.0318	185
105.0461	114
106.029	99
121.0391	85
