Mass spectrum: 10,11-Dihydrocarbamazepine; LC-ESI-QTOF; MS2; 70 V
Name: 10,11-Dihydrocarbamazepine
Class: Pharmaceutical; Metabolite
Formula: C15H14N2O
Exact mass: 238.1106
SMILES: NC(=O)N1c2ccccc2CCc3ccccc13
InChI: InChI=1S/C15H14N2O/c16-15(18)17-13-7-3-1-5-11(13)9-10-12-6-2-4-8-14(12)17/h1-8H,9-10H2,(H2,16,18)
Instrument: TripleTOF 5600 SCIEX
Instrument type: LC-ESI-QTOF
Ms type: MS2
Ion mode: POSITIVE
Collision energy: 70
Fragmentation mode: CID
Ionization: ESI
Column name: Zorbax Eclipse Plus C18 2.1 mm x 150 mm, 3.5 um, Agilent
Retention time: 9.235 min
Precursor m/z: 239.1179
Precursor type: [M+H]+
m/z	relative intensity
65.0434	193
77.0414	104
89.0409	57
90.0477	25
91.0564	488
93.0593	17
101.0382	25
103.0548	15
115.0542	50
116.0493	20
117.0578	53
118.0652	73
127.0547	32
128.0493	70
139.0542	49
140.0503	45
141.068	12
150.0469	16
151.0547	131
152.0626	331
153.0685	66
154.0651	26
163.054	10
164.0602	19
165.0701	129
166.0656	81
167.0733	169
176.0622	44
177.0623	61
178.0662	235
179.0735	311
180.0811	999
190.066	22
191.0726	134
192.0809	235
193.0887	140
194.0967	51
