Mass spectrum: Nevirapine; LC-ESI-QTOF; MS2; 60 V
Name: Nevirapine
Class: Pharmaceutical
Formula: C15H14N4O
Exact mass: 266.1168
SMILES: Cc1ccnc2N(C3CC3)c4ncccc4C(=O)Nc12
InChI: InChI=1S/C15H14N4O/c1-9-6-8-17-14-12(9)18-15(20)11-3-2-7-16-13(11)19(14)10-4-5-10/h2-3,6-8,10H,4-5H2,1H3,(H,18,20)
Instrument: TripleTOF 5600 SCIEX
Instrument type: LC-ESI-QTOF
Ms type: MS2
Ion mode: POSITIVE
Collision energy: 60
Fragmentation mode: CID
Ionization: ESI
Column name: Zorbax Eclipse Plus C18 2.1 mm x 150 mm, 3.5 um, Agilent
Retention time: 7.301 min
Precursor m/z: 267.124
Precursor type: [M+H]+
m/z	relative intensity
51.0281	27
52.0345	12
65.0428	34
66.0372	34
67.0455	52
68.0525	16
77.0408	28
78.0369	304
79.0441	124
80.0525	547
89.0396	25
90.0354	40
91.0435	13
91.0551	16
92.0382	52
92.0493	45
93.0464	155
94.0534	46
95.0608	13
101.039	9
103.0289	41
104.0351	11
104.0496	40
105.0448	168
106.0514	37
107.0607	186
108.0675	15
116.0492	56
117.0455	115
118.0525	68
119.0469	24
119.059	22
120.0547	30
121.0398	35
127.0402	13
128.0493	46
129.0458	37
130.0575	54
131.0607	162
132.0673	34
133.0619	13
133.0753	18
134.0701	34
140.0489	17
141.0452	21
142.0517	40
143.0603	79
144.0653	71
145.0526	15
145.0751	46
146.0711	52
153.0446	20
154.0526	53
155.0604	204
156.0576	68
157.0632	118
158.0703	97
159.057	50
160.0861	20
161.071	20
167.0572	36
168.056	107
169.0649	114
170.0713	419
171.0782	140
172.0858	46
179.0613	15
180.056	60
181.0639	112
182.071	388
183.0754	211
184.0866	350
185.0589	63
187.0618	23
192.0612	11
193.0644	13
194.0721	34
195.0688	51
196.0531	12
196.0847	97
197.0828	999
198.0708	82
198.0886	295
199.075	18
199.098	23
200.0817	13
206.0717	52
207.0771	49
208.0745	123
209.0581	12
209.082	49
210.0659	140
210.0952	13
211.0691	45
211.0975	15
212.0741	40
220.0865	27
221.0838	53
222.091	42
223.0675	11
223.0986	81
224.0799	24
225.0772	206
226.0847	99
227.0928	149
233.0825	21
235.0733	15
235.096	12
236.0712	52
237.0761	73
247.0982	15
249.0844	13
250.0897	17
251.0929	153
