Mass spectrum: Metolachlor; LC-ESI-QTOF; MS2; 40 V
Name: Metolachlor
Class: Herbicide
Formula: C15H22ClNO2
Exact mass: 283.1339
SMILES: CCc1cccc(C)c1N(C(C)COC)C(=O)CCl
InChI: InChI=1S/C15H22ClNO2/c1-5-13-8-6-7-11(2)15(13)17(14(18)9-16)12(3)10-19-4/h6-8,12H,5,9-10H2,1-4H3
Instrument: TripleTOF 5600 SCIEX
Instrument type: LC-ESI-QTOF
Ms type: MS2
Ion mode: POSITIVE
Collision energy: 40
Fragmentation mode: CID
Ionization: ESI
Column name: Zorbax Eclipse Plus C18 2.1 mm x 150 mm, 3.5 um, Agilent
Retention time: 13.304 min
Precursor m/z: 284.1412
Precursor type: [M+H]+
m/z	relative intensity
45.0427	27
48.9904	29
73.0683	75
76.9815	40
77.0417	19
79.0571	15
91.0566	154
93.059	14
93.0712	28
103.0551	24
104.0623	13
105.0708	27
106.0657	18
107.0735	10
107.0839	18
108.0815	71
109.065	30
115.0544	43
117.0704	102
118.0658	64
119.0779	171
120.0817	93
129.0705	11
130.0653	66
131.074	109
132.0815	137
133.0893	248
134.0973	411
135.0806	11
143.0735	74
144.0814	118
145.0886	95
146.0614	11
146.097	215
147.0672	10
147.1042	35
148.0764	12
148.1121	58
158.0972	129
159.1048	79
160.1126	192
161.1217	12
162.0919	36
166.0424	11
174.1286	25
176.1441	999
184.0532	147
188.1082	14
194.0733	44
202.1241	14
212.084	83
252.1157	739
