Mass spectrum: Estradiol; LC-ESI-QTOF; MS2; 50 V
Name: Estradiol
Class: Pharmaceutical
Formula: C18H24O2
Exact mass: 272.1776
SMILES: CC12CCC3C(C1CCC2O)CCC4=C3C=CC(=C4)O
InChI: InChI=1S/C18H24O2/c1-18-9-8-14-13-5-3-12(19)10-11(13)2-4-15(14)16(18)6-7-17(18)20/h3,5,10,14-17,19-20H,2,4,6-9H2,1H3
Instrument: TripleTOF 5600 SCIEX
Instrument type: LC-ESI-QTOF
Ms type: MS2
Ion mode: POSITIVE
Collision energy: 50
Fragmentation mode: CID
Ionization: ESI
Column name: Zorbax Eclipse Plus C18 2.1 mm x 150 mm, 3.5 um, Agilent
Retention time: 10.403 min
Precursor m/z: 273.1849
Precursor type: [M+H]+
m/z	relative intensity
55.0542	24
65.038	12
67.054	94
69.0692	10
77.0385	284
79.0542	214
81.0699	92
91.0542	139
93.0697	140
95.0856	45
103.0528	36
105.0699	138
107.0493	999
107.085	24
109.1014	43
115.0538	37
116.0613	17
117.0686	25
119.0857	39
121.065	36
127.0538	24
128.0613	12
129.071	21
131.0495	36
131.0852	29
132.0571	17
133.0647	91
135.1158	48
141.0702	58
144.0569	104
145.0637	50
147.0786	18
147.1178	11
157.0639	54
158.0703	18
159.0794	61
171.0782	10
185.1007	16
