Mass spectrum: Drometrizole; LC-ESI-QTOF; MS2; 50 V
Name: Drometrizole
Class: Industrial_process
Formula: C13H11N3O
Exact mass: 225.0902
SMILES: CC1=CC(=C(C=C1)O)N2N=C3C=CC=CC3=N2
InChI: InChI=1S/C13H11N3O/c1-9-6-7-13(17)12(8-9)16-14-10-4-2-3-5-11(10)15-16/h2-8,17H,1H3
Instrument: TripleTOF 5600 SCIEX
Instrument type: LC-ESI-QTOF
Ms type: MS2
Ion mode: POSITIVE
Collision energy: 50
Fragmentation mode: CID
Ionization: ESI
Column name: Zorbax Eclipse Plus C18 2.1 mm x 150 mm, 3.5 um, Agilent
Retention time: 15.201 min
Precursor m/z: 226.0975
Precursor type: [M+H]+
m/z	relative intensity
65.0461	179
77.0446	999
78.0512	15
79.0592	339
92.0532	92
94.0689	18
103.0516	10
105.0476	106
106.0547	53
107.0518	123
115.0572	15
120.0577	189
127.0556	78
128.0608	101
129.0585	21
130.0688	15
141.0705	12
151.0581	14
152.063	43
153.066	21
154.0663	333
155.0734	37
156.0665	10
164.0486	23
167.0722	32
168.0824	34
178.0635	14
179.0674	17
180.0791	54
181.077	176
182.0793	71
183.0703	31
196.077	39
