Mass spectrum: Flurtamone; LC-ESI-QTOF; MS2; 70 V
Name: Flurtamone
Class: Herbicide
Formula: C18H14F3NO2
Exact mass: 333.0977
SMILES: CNC1=C(C(=O)C(O1)C2=CC=CC=C2)C3=CC(=CC=C3)C(F)(F)F
InChI: InChI=1S/C18H14F3NO2/c1-22-17-14(12-8-5-9-13(10-12)18(19,20)21)15(23)16(24-17)11-6-3-2-4-7-11/h2-10,16,22H,1H3
Instrument: TripleTOF 6600 SCIEX
Instrument type: LC-ESI-QTOF
Ms type: MS2
Ion mode: POSITIVE
Collision energy: 70
Fragmentation mode: CID
Ionization: ESI
Column name: Zorbax Eclipse Plus C18 2.1 mm x 150 mm, 3.5 um, Agilent
Retention time: 11.864 min
Precursor m/z: 334.105
Precursor type: [M+H]+
m/z	relative intensity
42.034	10
51.0229	19
58.0288	21
77.0388	159
105.0342	43
120.0809	10
151.0506	61
152.0628	158
165.0703	11
169.0267	31
176.0632	136
177.0709	157
178.079	999
183.0613	10
189.0708	11
196.0692	42
201.0522	40
206.053	14
207.0621	310
225.0523	52
227.0684	279
245.0592	17
246.067	53
