Mass spectrum: Iohexol; LC-ESI-QTOF; MS2; 140 V
Name: Iohexol
Class: Pharmaceutical
Formula: C19H26I3N3O9
Exact mass: 820.8803
SMILES: CC(=O)N(CC(O)CO)c1c(I)c(C(=O)NCC(O)CO)c(I)c(C(=O)NCC(O)CO)c1I
InChI: InChI=1S/C19H26I3N3O9/c1-8(29)25(4-11(32)7-28)17-15(21)12(18(33)23-2-9(30)5-26)14(20)13(16(17)22)19(34)24-3-10(31)6-27/h9-11,26-28,30-32H,2-7H2,1H3,(H,23,33)(H,24,34)
Instrument: TripleTOF 5600 SCIEX
Instrument type: LC-ESI-QTOF
Ms type: MS2
Ion mode: POSITIVE
Collision energy: 140
Fragmentation mode: CID
Ionization: ESI
Column name: Zorbax Eclipse Plus C18 2.1 mm x 150 mm, 3.5 um, Agilent
Retention time: 4.533 min
Precursor m/z: 821.8876
Precursor type: [M+H]+
m/z	relative intensity
91.0425	279
102.0337	479
103.0424	239
104.0153	239
104.0497	359
114.0339	399
115.0407	359
116.0352	239
116.0471	319
117.0439	199
118.0274	159
118.0562	199
119.0366	279
128.0471	159
129.0434	199
130.0284	159
131.0368	479
132.0434	279
142.028	279
142.0547	279
143.058	239
144.0069	239
145.0417	639
147.031	359
149.0514	199
158.0231	199
159.0582	199
160.0377	199
175.0263	279
186.0546	159
188.9222	279
200.9214	319
204.9143	199
227.9261	199
228.9349	279
229.9445	199
231.9234	439
240.9462	199
242.9381	159
243.924	159
245.9425	639
253.9461	199
255.9277	199
257.9407	999
270.9405	279
273.9395	559
301.9272	239
