Mass spectrum: 1,2,3-trimethoxybenzene; LC-ESI-QTOF; MS2; 60 V
Name: 1,2,3-trimethoxybenzene
Class: Food_additive
Formula: C9H12O3
Exact mass: 168.0786
SMILES: COC1=C(C(=CC=C1)OC)OC
InChI: InChI=1S/C9H12O3/c1-10-7-5-4-6-8(11-2)9(7)12-3/h4-6H,1-3H3
Instrument: TripleTOF 5600 SCIEX
Instrument type: LC-ESI-QTOF
Ms type: MS2
Ion mode: POSITIVE
Collision energy: 60
Fragmentation mode: CID
Ionization: ESI
Column name: Zorbax Eclipse Plus C18 2.1 mm x 150 mm, 3.5 um, Agilent
Retention time: 9.034 min
Precursor m/z: 169.0859
Precursor type: [M+H]+
m/z	relative intensity
55.0294	166
65.0452	555
66.0529	138
67.0589	138
68.0312	999
77.0433	471
78.0523	138
79.0237	166
81.0364	222
94.0436	138
95.0513	277
96.0219	111
