Mass spectrum: (1-(4-Methoxybenzoyl)-undecyl)-trimethyl-ammonium; LC-ESI-QTOF; MS2; 150 V
Name: (1-(4-Methoxybenzoyl)-undecyl)-trimethyl-ammonium
Formula: [C22H38NO2]+
Exact mass: 348.2897
SMILES: CCCCCCCCCCC(C(=O)c1ccc(cc1)OC)[N+](C)(C)C
InChI: InChI=1S/C22H38NO2/c1-6-7-8-9-10-11-12-13-14-21(23(2,3)4)22(24)19-15-17-20(25-5)18-16-19/h15-18,21H,6-14H2,1-5H3/q+1
Instrument: TripleTOF 5600 SCIEX
Instrument type: LC-ESI-QTOF
Ms type: MS2
Ion mode: POSITIVE
Collision energy: 150
Fragmentation mode: CID
Ionization: ESI
Column name: Zorbax Eclipse Plus C18 2.1 mm x 150 mm, 3.5 um, Agilent
Retention time: 11.279 min
Precursor m/z: 348.2897
Precursor type: [M]+
m/z	relative intensity
44.0579	313
58.0703	298
60.0857	134
64.0351	816
77.0411	999
78.048	189
92.0265	754
