Mass spectrum: Oxytetracycline; LC-ESI-QTOF; MS2; 70 V
Name: Oxytetracycline
Class: Pharmaceutical
Formula: C22H24N2O9
Exact mass: 460.1482
SMILES: C[C@@]1([C@H]2[C@@H]([C@H]3[C@@H](C(=O)C(=C([C@]3(C(=O)C2=C(C4=C1C=CC=C4O)O)O)O)C(=O)N)N(C)C)O)O
InChI: InChI=1S/C22H24N2O9/c1-21(32)7-5-4-6-8(25)9(7)15(26)10-12(21)17(28)13-14(24(2)3)16(27)11(20(23)31)19(30)22(13,33)18(10)29/h4-6,12-14,17,25-26,28,30,32-33H,1-3H3,(H2,23,31)/t12-,13-,14+,17+,21-,22+/m1/s1
Instrument: TripleTOF 5600 SCIEX
Instrument type: LC-ESI-QTOF
Ms type: MS2
Ion mode: POSITIVE
Collision energy: 70
Fragmentation mode: CID
Ionization: ESI
Column name: Zorbax Eclipse Plus C18 2.1 mm x 150 mm, 3.5 um, Agilent
Retention time: 5.586 min
Precursor m/z: 461.1555
Precursor type: [M+H]+
m/z	relative intensity
58.0696	57
68.9994	16
70.0684	24
82.0673	16
83.0139	57
86.0621	32
97.0291	24
98.06	319
109.028	36
115.0546	49
117.07	53
123.0096	40
125.0225	16
126.0518	32
127.0537	298
128.0621	90
129.0697	106
137.0231	53
141.0691	36
144.0569	20
145.0641	327
152.0647	45
153.018	24
153.0686	28
154.0496	61
155.0497	298
155.0884	20
156.056	16
157.0639	90
159.0789	40
160.0512	28
165.0689	90
167.0862	20
168.0558	32
169.0642	28
171.0793	40
173.0576	65
174.0646	36
175.0748	32
177.0711	32
178.079	32
179.0859	28
181.0636	49
182.0753	20
183.0813	69
184.0511	290
185.059	81
186.0314	24
186.0636	16
187.0383	45
187.0721	45
189.0714	16
193.0644	61
195.0799	90
196.0501	53
197.0627	49
198.0668	45
199.0741	36
201.0547	999
205.0626	45
207.0793	28
208.0451	20
208.0624	28
209.0606	28
210.0693	36
211.0404	24
211.0754	270
212.046	605
213.0536	302
214.0643	24
221.0586	49
223.078	65
224.0482	49
225.0505	28
226.0627	69
227.0704	45
229.0479	16
233.0586	28
234.0655	20
235.0762	77
236.0452	36
237.0542	57
238.063	36
239.0333	28
239.07	151
240.0419	376
241.0516	24
242.0577	196
249.0558	28
250.066	16
251.0708	85
252.0433	122
253.0488	49
254.0573	266
255.0674	36
257.0804	24
258.0517	159
261.0554	28
263.0367	24
263.07	85
264.0437	24
265.0502	45
266.0575	77
267.0665	61
267.2044	40
268.036	953
270.0494	28
270.0573	40
273.0736	16
277.0543	28
279.0652	110
283.06	388
289.0508	28
291.0629	28
292.0362	61
294.0517	126
297.0991	45
307.0645	53
320.0328	40
321.0424	53
322.0471	208
335.0552	32
337.0657	20
347.0485	16
350.0443	438
365.0659	20
376.0893	20
