Mass spectrum: Dimethenamid; LC-ESI-QTOF; MS2; 100 V
Name: Dimethenamid
Class: Herbicide
Formula: C12H18ClNO2S
Exact mass: 275.0747
SMILES: CC1=CSC(=C1N(C(C)COC)C(=O)CCl)C
InChI: InChI=1S/C12H18ClNO2S/c1-8-7-17-10(3)12(8)14(11(15)5-13)9(2)6-16-4/h7,9H,5-6H2,1-4H3
Instrument: TripleTOF 6600 SCIEX
Instrument type: LC-ESI-QTOF
Ms type: MS2
Ion mode: POSITIVE
Collision energy: 100
Fragmentation mode: CID
Ionization: ESI
Column name: Zorbax Eclipse Plus C18 2.1 mm x 150 mm, 3.5 um, Agilent
Retention time: 11.971 min
Precursor m/z: 276.082
Precursor type: [M+H]+
m/z	relative intensity
37.008	138
38.0154	108
39.0235	593
41.0393	286
42.0349	69
43.018	59
44.98	514
45.0342	148
46.9688	128
46.9961	39
48.9844	603
50.0155	178
51.0234	484
52.0313	98
53.0392	296
54.0339	79
57.9872	118
58.9955	365
59.9909	217
63.024	89
64.0311	59
65.0389	534
66.0339	49
66.0462	168
67.0431	79
67.0546	276
68.052	39
68.9798	237
69.9876	49
70.995	296
77.0387	712
78.0345	158
78.0464	336
79.0411	79
79.0551	128
80.0496	633
82.9945	89
83.99	39
84.0027	69
85.0108	138
89.0389	89
90.0459	59
91.0416	79
91.0549	237
92.0497	178
93.0579	247
94.0654	999
94.996	118
95.072	49
96.0023	98
97.0108	563
99.0259	59
104.0497	286
105.0582	148
106.0651	98
109.0103	178
110.0064	79
110.0201	49
111.0265	405
112.0219	148
117.0574	128
118.066	158
120.0831	39
123.0138	118
124.0205	187
126.0367	108
134.0058	59
135.0222	69
136.0212	247
138.0009	59
150.0369	69
152.0167	187
