Mass spectrum: 2-Aminobenzothiazole; LC-ESI-QTOF; MS2; 30 V
Name: 2-Aminobenzothiazole
Formula: C7H6N2S
Exact mass: 150.0252
SMILES: C1=CC=C2C(=C1)N=C(S2)N
InChI: InChI=1S/C7H6N2S/c8-7-9-5-3-1-2-4-6(5)10-7/h1-4H,(H2,8,9)
Instrument: TripleTOF X500R SCIEX
Instrument type: LC-ESI-QTOF
Ms type: MS2
Ion mode: POSITIVE
Collision energy: 30
Fragmentation mode: CID
Ionization: ESI
Column name: Zorbax Eclipse Plus C18 2.1 mm x 150 mm, 3.5 um, Agilent
Retention time: 4.985 min
Precursor m/z: 151.0325
Precursor type: [M+H]+
m/z	relative intensity
65.0383	156
68.9798	10
80.0494	131
90.0344	15
91.0418	22
92.0491	329
93.0575	31
97.0108	42
108.0033	35
109.01	826
118.0524	282
119.0607	10
124.0209	908
134.0061	31
150.0252	26
151.0315	999
