Mass spectrum: Ranitidine-N-oxide; LC-ESI-QTOF; MS2; 140 V
Name: Ranitidine-N-oxide
Class: Pharmaceutical; Transformation_product; Transformation_product-Metabolite
Formula: C13H22N4O4S
Exact mass: 330.1362
SMILES: CNC(/NCCSCc1oc(C[N+](C)(C)[O-])cc1)=C\[N+]([O-])=O
InChI: InChI=1S/C13H22N4O4S/c1-14-13(8-16(18)19)15-6-7-22-10-12-5-4-11(21-12)9-17(2,3)20/h4-5,8,14-15H,6-7,9-10H2,1-3H3/b13-8+
Instrument: TripleTOF 5600 SCIEX
Instrument type: LC-ESI-QTOF
Ms type: MS2
Ion mode: POSITIVE
Collision energy: 140
Fragmentation mode: CID
Ionization: ESI
Column name: Zorbax Eclipse Plus C18 2.1 mm x 150 mm, 3.5 um, Agilent
Retention time: 4.879 min
Precursor m/z: 331.1435
Precursor type: [M+H]+
m/z	relative intensity
39.0308	83
51.028	549
53.044	466
54.0384	149
55.0352	66
56.0547	349
57.048	216
57.0628	83
58.9994	233
65.0415	266
66.0492	99
67.0451	99
68.0514	83
68.9834	116
70.072	83
70.9961	66
77.0403	999
78.0347	66
78.0476	83
79.0564	83
80.0511	183
81.0349	333
81.0456	149
82.0533	233
88.0223	66
89.0386	99
91.0565	133
96.0698	116
97.078	249
102.0376	166
104.0487	83
132.0445	83
