Mass spectrum: Myristyl sulfate; LC-ESI-QTOF; MS2; 70 V
Name: Myristyl sulfate
Formula: C14H30O4S
Exact mass: 294.1865
SMILES: CCCCCCCCCCCCCCOS(=O)(=O)O
InChI: InChI=1S/C14H30O4S/c1-2-3-4-5-6-7-8-9-10-11-12-13-14-18-19(15,16)17/h2-14H2,1H3,(H,15,16,17)
Instrument: TripleTOF 6600 SCIEX
Instrument type: LC-ESI-QTOF
Ms type: MS2
Ion mode: NEGATIVE
Collision energy: 70
Fragmentation mode: CID
Ionization: ESI
Column name: Zorbax Eclipse Plus C18 2.1 mm x 150 mm, 3.5 um, Agilent
Retention time: 17.463 min
Precursor m/z: 293.1792
Precursor type: [M-H]-
m/z	relative intensity
79.9561	561
95.9505	127
96.9608	999
