Mass spectrum: Sulcotrione; LC-ESI-QTOF; MS2; 140 V
Name: Sulcotrione
Class: Herbicide
Formula: C14H13ClO5S
Exact mass: 328.0172
SMILES: CS(=O)(=O)C1=CC(=C(C=C1)C(=O)C2C(=O)CCCC2=O)Cl
InChI: InChI=1S/C14H13ClO5S/c1-21(19,20)8-5-6-9(10(15)7-8)14(18)13-11(16)3-2-4-12(13)17/h5-7,13H,2-4H2,1H3
Instrument: TripleTOF 6600 SCIEX
Instrument type: LC-ESI-QTOF
Ms type: MS2
Ion mode: POSITIVE
Collision energy: 140
Fragmentation mode: CID
Ionization: ESI
Column name: Zorbax Eclipse Plus C18 2.1 mm x 150 mm, 3.5 um, Agilent
Retention time: 9.651 min
Precursor m/z: 329.0245
Precursor type: [M+H]+
m/z	relative intensity
37.0066	42
38.0147	36
39.0235	48
41.0025	481
49.0074	24
50.0159	54
51.0234	36
53.001	36
55.0186	30
61.0079	54
62.0161	84
63.0225	72
68.9974	999
72.9839	60
73.0074	90
74.0146	162
75.0228	108
77.0024	138
77.0372	24
83.9751	54
85.007	36
86.0145	78
87.0233	54
89.0408	42
97.0049	30
98.0157	198
99.0236	48
107.9767	72
