Mass spectrum: Metolachlor ESA; LC-ESI-QTOF; MS2; 100 V
Name: Metolachlor ESA
Class: Herbicide; Transformation_product-Metabolite
Formula: C15H23NO5S
Exact mass: 329.1297
SMILES: CCC1=CC=CC(=C1N(C(C)COC)C(=O)CS(=O)(=O)O)C
InChI: InChI=1S/C15H23NO5S/c1-5-13-8-6-7-11(2)15(13)16(12(3)9-21-4)14(17)10-22(18,19)20/h6-8,12H,5,9-10H2,1-4H3,(H,18,19,20)
Instrument: TripleTOF 5600 SCIEX
Instrument type: LC-ESI-QTOF
Ms type: MS2
Ion mode: POSITIVE
Collision energy: 100
Fragmentation mode: CID
Ionization: ESI
Column name: Zorbax Eclipse Plus C18 2.1 mm x 150 mm, 3.5 um, Agilent
Retention time: 8.247 min
Precursor m/z: 330.137
Precursor type: [M+H]+
m/z	relative intensity
65.0414	73
73.0672	33
77.0413	265
78.0476	50
79.0569	39
89.0418	50
90.048	95
91.056	491
93.0623	22
93.0731	28
102.0459	22
103.0546	129
104.0494	22
104.0616	39
105.0699	50
106.0651	67
107.0743	39
115.0541	327
115.0817	22
116.0618	62
117.0583	361
118.0649	112
119.0731	67
120.0802	73
127.0534	22
128.0578	141
130.0654	829
131.073	129
132.0824	101
141.068	39
142.0648	67
143.0733	197
144.0806	999
145.0869	129
157.0922	22
158.0954	152
