Mass spectrum: Amisulpride; LC-ESI-QTOF; MS2; 130 V
Name: Amisulpride
Class: Pharmaceutical
Formula: C17H27N3O4S
Exact mass: 369.1722
SMILES: CCN1CCCC1CNC(=O)c2cc(c(N)cc2OC)[S](=O)(=O)CC
InChI: InChI=1S/C17H27N3O4S/c1-4-20-8-6-7-12(20)11-19-17(21)13-9-16(25(22,23)5-2)14(18)10-15(13)24-3/h9-10,12H,4-8,11,18H2,1-3H3,(H,19,21)
Instrument: TripleTOF 5600 SCIEX
Instrument type: LC-ESI-QTOF
Ms type: MS2
Ion mode: POSITIVE
Collision energy: 130
Fragmentation mode: CID
Ionization: ESI
Column name: Zorbax Eclipse Plus C18 2.1 mm x 150 mm, 3.5 um, Agilent
Retention time: 5.568 min
Precursor m/z: 370.1795
Precursor type: [M+H]+
m/z	relative intensity
40.0273	16
41.0348	54
42.0427	41
44.0208	16
51.0157	14
51.0295	355
52.0254	562
53.0084	221
53.0442	121
54.0392	77
55.0228	56
55.0602	37
56.054	121
56.9833	22
57.992	22
58.0342	14
58.0706	52
58.999	10
64.0348	417
65.0431	999
66.0127	10
66.0508	708
67.0447	125
68.0172	319
68.0525	50
68.9832	257
68.9979	22
69.0056	12
69.9783	12
69.9904	110
70.0315	16
70.0679	125
70.9985	14
74.0188	43
75.0131	43
75.0258	48
76.021	328
77.0059	43
77.0281	83
77.0413	66
78.0127	27
78.0369	413
78.0639	12
79.02	73
79.0442	133
79.9772	14
80.0158	156
80.052	43
80.9816	27
81.0353	41
81.0652	10
81.9893	54
82.0335	10
82.0665	35
82.9972	41
83.9935	10
84.0828	140
84.9766	29
85.014	14
88.0198	25
89.0281	45
90.035	89
91.0431	275
92.0142	10
92.0508	219
92.9804	50
93.0359	14
93.0586	31
94.0297	165
94.9967	45
96.0064	10
96.999	64
97.9834	27
98.0094	12
98.0977	68
104.0131	200
104.0503	22
106.0073	31
106.0291	390
106.9833	43
107.0132	275
107.0351	56
107.9901	41
108.9751	12
110.0066	20
110.0977	10
112.1123	31
117.0244	10
119.9896	29
120.044	142
120.9974	12
121.0514	27
122.0061	33
122.0355	14
124.9943	27
132.008	307
133.0146	33
