Mass spectrum: Fipronil; LC-ESI-QTOF; MS2; 60 V
Name: Fipronil
Class: Insecticide
Formula: C12H4Cl2F6N4OS
Exact mass: 435.9387
SMILES: C1=C(C=C(C(=C1Cl)N2C(=C(C(=N2)C#N)S(=O)C(F)(F)F)N)Cl)C(F)(F)F
InChI: InChI=1S/C12H4Cl2F6N4OS/c13-5-1-4(11(15,16)17)2-6(14)8(5)24-10(22)9(7(3-21)23-24)26(25)12(18,19)20/h1-2H,22H2
Instrument: TripleTOF 6600 SCIEX
Instrument type: LC-ESI-QTOF
Ms type: MS2
Ion mode: POSITIVE
Collision energy: 60
Fragmentation mode: CID
Ionization: ESI
Column name: Zorbax Eclipse Plus C18 2.1 mm x 150 mm, 3.5 um, Agilent
Retention time: 13.577 min
Precursor m/z: 436.946
Precursor type: [M+H]+
m/z	relative intensity
185.03	272
191.9803	181
203.979	145
212.9461	108
220.0006	90
221.006	817
227.9565	454
228.9645	163
230.9902	72
238.9494	217
239.9572	454
246	127
246.9866	127
249.0018	363
252.9773	272
254.967	999
256.9168	127
258.0021	181
262.9627	762
264.9537	72
270.0019	145
270.9219	181
277.9606	236
280.9754	254
289.9728	181
305.9683	90
315.9758	145
