Mass spectrum: Difenoconazole; LC-ESI-QTOF; MS2; 130 V
Name: Difenoconazole
Class: Fungicide
Formula: C19H17Cl2N3O3
Exact mass: 405.0647
SMILES: CC1COC(Cn2cncn2)(O1)c3ccc(Oc4ccc(Cl)cc4)cc3Cl
InChI: InChI=1S/C19H17Cl2N3O3/c1-13-9-25-19(27-13,10-24-12-22-11-23-24)17-7-6-16(8-18(17)21)26-15-4-2-14(20)3-5-15/h2-8,11-13H,9-10H2,1H3
Instrument: TripleTOF 6600 SCIEX
Instrument type: LC-ESI-QTOF
Ms type: MS2
Ion mode: POSITIVE
Collision energy: 130
Fragmentation mode: CID
Ionization: ESI
Column name: Zorbax Eclipse Plus C18 2.1 mm x 150 mm, 3.5 um, Agilent
Retention time: 13.755 min
Precursor m/z: 406.072
Precursor type: [M+H]+
m/z	relative intensity
39.0228	20
49.007	16
50.0147	94
51.0229	105
60.9835	16
63.0226	37
72.9834	32
73.0066	39
74.0151	688
75.0231	999
76.03	43
77.0381	127
78.0461	40
84.9834	114
87.0234	13
88.0305	16
89.0379	45
98.9988	17
102.0463	27
110.9988	72
113.0379	39
114.0461	16
115.0548	16
125.0388	20
126.0463	75
127.0534	54
128.0614	21
137.0377	36
138.0458	41
139.0053	13
139.0537	206
141.0102	18
148.0073	10
149.0143	18
150.0462	82
151.0539	182
152.0617	470
153.0687	20
155.0598	14
173.0149	24
179.0583	16
