Mass spectrum: Triclabendazole; LC-ESI-QTOF; MS2; 110 V
Name: Triclabendazole
Class: Pharmaceutical
Formula: C14H9Cl3N2OS
Exact mass: 357.9501
SMILES: CSc1[nH]c2cc(Cl)c(Oc3cccc(Cl)c3Cl)cc2n1
InChI: InChI=1S/C14H9Cl3N2OS/c1-21-14-18-9-5-8(16)12(6-10(9)19-14)20-11-4-2-3-7(15)13(11)17/h2-6H,1H3,(H,18,19)
Instrument: TripleTOF 5600 SCIEX
Instrument type: LC-ESI-QTOF
Ms type: MS2
Ion mode: POSITIVE
Collision energy: 110
Fragmentation mode: CID
Ionization: ESI
Column name: Zorbax Eclipse Plus C18 2.1 mm x 150 mm, 3.5 um, Agilent
Retention time: 13.11 min
Precursor m/z: 358.9574
Precursor type: [M+H]+
m/z	relative intensity
44.9794	210
48.9843	85
50.0155	32
51.0234	59
52.0178	65
61.9797	157
62.0157	39
63.0228	157
64.0183	400
65.0263	52
68.9798	138
69.9891	32
72.9838	216
74.0153	111
75.0104	111
75.0238	177
76.0187	729
77.0263	59
77.0395	85
78.0338	308
78.9408	92
81.9875	52
84.9849	59
85.9787	223
88.0176	46
90.0342	157
91.0286	335
92.0369	236
92.9799	98
93.9873	111
96.0035	26
96.9831	92
98.0141	65
99.0027	26
99.0231	203
99.995	768
100.0301	39
101.0391	46
102.034	65
102.9374	39
103.0292	164
104.0382	72
104.0505	26
107.9902	269
108.984	39
108.9977	111
111.0007	105
111.9946	190
113.0027	59
113.0379	92
113.9733	46
114.0343	39
116.036	46
116.9567	32
117.0455	52
118.0553	39
119.9894	72
120.9982	177
122.0168	39
123.0225	118
123.9926	46
124.0254	118
125.0058	52
125.0388	630
126.0468	999
127.0057	946
127.0415	52
128.9564	210
129.0441	32
130.0516	39
135.0027	131
136.01	151
137.0378	32
138.0111	78
138.0298	52
139.0046	262
139.0416	111
139.9873	32
140.0494	374
143.9667	144
147.002	98
148.0093	887
150.0364	138
151.0423	683
152.05	624
153.0362	39
153.0568	282
155.9661	85
157.0124	32
159.0024	105
160.0072	532
161.0137	269
162.031	52
163.034	131
165.0483	32
166.0501	32
169.9706	39
170.9769	624
173.0165	26
174.0096	164
176.0056	65
177.0446	46
178.0527	52
179.0593	236
180.043	256
181.053	39
183.015	124
184.0194	39
185.0052	59
186.0075	105
187.0177	170
188.0242	118
189.0087	184
190.0073	39
193.9635	32
195.9912	32
198.9732	32
200.001	39
206.0426	39
207.0535	59
211.0307	105
212.0192	72
213.0218	52
214.0048	223
215.0149	111
218.9687	46
219.9659	65
242.0258	230
245.9776	78
