Mass spectrum: 1-Cyclohexyl-3-ethylurea; LC-ESI-QTOF; MS2; 140 V
Name: 1-Cyclohexyl-3-ethylurea
Formula: C9H18N2O
Exact mass: 170.1419
SMILES: CCNC(=O)NC1CCCCC1
InChI: InChI=1S/C9H18N2O/c1-2-10-9(12)11-8-6-4-3-5-7-8/h8H,2-7H2,1H3,(H2,10,11,12)
Instrument: TripleTOF 6600 SCIEX
Instrument type: LC-ESI-QTOF
Ms type: MS2
Ion mode: POSITIVE
Collision energy: 140
Fragmentation mode: CID
Ionization: ESI
Column name: Zorbax Eclipse Plus C18 2.1 mm x 150 mm, 3.5 um, Agilent
Retention time: 7.696 min
Precursor m/z: 171.1492
Precursor type: [M+H]+
m/z	relative intensity
35.9988	166
37.0068	999
38.0044	153
38.0143	745
39.0223	775
40.0044	23
43.0279	26
44.0123	163
50.0139	29
52.0044	19
53.0127	39
