Mass spectrum: Tetrahydroharman-3-carboxylic acid; LC-ESI-QTOF; MS2; 100 V
Name: Tetrahydroharman-3-carboxylic acid
Formula: C13H14N2O2
Exact mass: 230.1055
SMILES: CC1C2=C(CC(N1)C(=O)O)C3=CC=CC=C3N2
InChI: InChI=1S/C13H14N2O2/c1-7-12-9(6-11(14-7)13(16)17)8-4-2-3-5-10(8)15-12/h2-5,7,11,14-15H,6H2,1H3,(H,16,17)
Instrument: TripleTOF 6600 SCIEX
Instrument type: LC-ESI-QTOF
Ms type: MS2
Ion mode: POSITIVE
Collision energy: 100
Fragmentation mode: CID
Ionization: ESI
Column name: Zorbax Eclipse Plus C18 2.1 mm x 150 mm, 3.5 um, Agilent
Retention time: 5.62 min
Precursor m/z: 231.1128
Precursor type: [M+H]+
m/z	relative intensity
37.0067	37
38.0147	21
39.0223	129
50.0146	154
51.0228	505
52.0309	15
59.9986	21
61.0055	40
62.0144	141
63.0223	333
64.0297	15
65.0378	148
73.0059	18
74.0144	249
75.0219	339
76.0174	24
76.0298	80
77.0375	749
78.0457	43
85.0065	12
86.0142	24
87.0212	37
88.0286	33
89.0376	999
90.0328	15
90.0454	132
91.0531	52
101.037	104
102.0453	181
103.0533	64
105.043	21
113.0367	107
114.0436	74
115.0531	829
116.0481	58
117.056	61
126.0439	58
127.0522	138
128.049	86
128.0595	154
129.0426	67
130.0643	43
139.0529	200
140.0477	200
141.0555	61
142.0623	21
154.0632	70
155.0585	21
166.0628	77
167.07	49
