Mass spectrum: Carbamazepine; LC-ESI-QTOF; MS2; 130 V
Name: Carbamazepine
Class: Pharmaceutical
Formula: C15H12N2O
Exact mass: 236.095
SMILES: NC(=O)N1c2ccccc2C=Cc3ccccc13
InChI: InChI=1S/C15H12N2O/c16-15(18)17-13-7-3-1-5-11(13)9-10-12-6-2-4-8-14(12)17/h1-10H,(H2,16,18)
Instrument: TripleTOF 5600 SCIEX
Instrument type: LC-ESI-QTOF
Ms type: MS2
Ion mode: POSITIVE
Collision energy: 130
Fragmentation mode: CID
Ionization: ESI
Column name: Zorbax Eclipse Plus C18 2.1 mm x 150 mm, 3.5 um, Agilent
Retention time: 8.87 min
Precursor m/z: 237.1022
Precursor type: [M+H]+
m/z	relative intensity
44.0222	66
60.006	58
65.043	146
73.0103	102
74.0188	999
75.0121	44
75.026	514
76.0193	36
76.0349	183
77.0424	235
78.052	44
84.0006	58
85.009	242
86.017	550
87.0253	675
88.0209	51
88.0311	73
89.0406	793
97.01	80
98.0158	712
99.0099	29
99.0247	235
100.0297	80
101.0399	102
102.0354	29
102.0474	80
109.0077	102
110.0149	264
111.0223	220
113.0384	411
114.0361	88
115.0562	220
122.0138	124
123.0199	95
124.0317	44
125.0396	51
126.0475	110
127.0554	36
134.0122	36
137.0392	308
138.0427	95
139.0545	315
140.0501	161
150.0448	301
152.0584	36
161.0395	374
162.0477	433
163.0546	896
164.0502	176
175.0466	36
176.0538	58
187.0425	80
188.052	279
189.0577	198
190.0633	102
