Mass spectrum: Beclomethasone; LC-ESI-QTOF; MS2; 120 V
Name: Beclomethasone
Class: Pharmaceutical
Formula: C22H29ClO5
Exact mass: 408.1704
SMILES: CC1CC2C3CCC4=CC(=O)C=CC4(C3(C(CC2(C1(C(=O)CO)O)C)O)Cl)C
InChI: InChI=1S/C22H29ClO5/c1-12-8-16-15-5-4-13-9-14(25)6-7-19(13,2)21(15,23)17(26)10-20(16,3)22(12,28)18(27)11-24/h6-7,9,12,15-17,24,26,28H,4-5,8,10-11H2,1-3H3
Instrument: TripleTOF 5600 SCIEX
Instrument type: LC-ESI-QTOF
Ms type: MS2
Ion mode: POSITIVE
Collision energy: 120
Fragmentation mode: CID
Ionization: ESI
Column name: Zorbax Eclipse Plus C18 2.1 mm x 150 mm, 3.5 um, Agilent
Retention time: 9.326 min
Precursor m/z: 409.1776
Precursor type: [M+H]+
m/z	relative intensity
43.0175	134
51.0227	161
65.0383	269
77.0384	890
91.0543	999
102.0456	297
103.053	242
105.07	134
115.0538	837
117.0694	161
121.0638	216
127.0533	297
128.0621	647
129.0693	134
131.0504	216
139.0552	108
141.0701	269
144.0568	134
151.0541	269
152.0607	620
153.0707	269
164.0627	161
165.0695	809
176.0614	188
178.0769	513
179.0816	134
189.0679	702
190.0806	216
191.0879	188
202.0795	377
203.0862	134
205.0626	161
213.0736	161
215.0843	351
226.0704	161
229.1014	134
231.0808	161
