Mass spectrum: Pindolol; LC-ESI-QTOF; MS2; 100 V
Name: Pindolol
Class: Pharmaceutical
Formula: C14H20N2O2
Exact mass: 248.1525
SMILES: CC(C)NCC(COC1=CC=CC2=C1C=CN2)O
InChI: InChI=1S/C14H20N2O2/c1-10(2)16-8-11(17)9-18-14-5-3-4-13-12(14)6-7-15-13/h3-7,10-11,15-17H,8-9H2,1-2H3
Instrument: TripleTOF 5600 SCIEX
Instrument type: LC-ESI-QTOF
Ms type: MS2
Ion mode: POSITIVE
Collision energy: 100
Fragmentation mode: CID
Ionization: ESI
Column name: Zorbax Eclipse Plus C18 2.1 mm x 150 mm, 3.5 um, Agilent
Retention time: 5.148 min
Precursor m/z: 249.1598
Precursor type: [M+H]+
m/z	relative intensity
56.0584	122
58.0721	93
60.0099	20
64.0372	20
65.0461	269
67.0469	16
72.0875	20
74.0221	24
74.0651	20
75.0304	40
76.0369	44
77.0444	701
78.0411	154
79.0596	93
87.0291	16
88.0362	20
89.0433	999
90.0505	244
91.0592	269
92.056	24
101.0422	24
102.0351	16
102.0485	20
103.0498	20
104.0532	248
105.0594	24
107.0542	53
114.0452	20
115.0565	277
116.0529	126
117.0591	191
126.0472	24
128.0533	16
133.0537	24
141.059	20
142.067	28
