Mass spectrum: 3-Dimethylaminophenol; LC-ESI-QTOF; MS2; 80 V
Name: 3-Dimethylaminophenol
Formula: C8H11NO
Exact mass: 137.0841
SMILES: CN(C)C1=CC(=CC=C1)O
InChI: InChI=1S/C8H11NO/c1-9(2)7-4-3-5-8(10)6-7/h3-6,10H,1-2H3
Instrument: TripleTOF 6600 SCIEX
Instrument type: LC-ESI-QTOF
Ms type: MS2
Ion mode: POSITIVE
Collision energy: 80
Fragmentation mode: CID
Ionization: ESI
Column name: Zorbax Eclipse Plus C18 2.1 mm x 150 mm, 3.5 um, Agilent
Retention time: 4.073 min
Precursor m/z: 138.0914
Precursor type: [M+H]+
m/z	relative intensity
35.9987	58
37.0066	327
38.0144	280
39.0224	999
40.0297	13
44.0488	26
49.006	11
50.0142	63
51.0221	106
53.0012	37
53.0374	24
55.0168	14
62.0142	26
63.0219	36
65.0374	159
66.0451	33
74.0139	38
77.0375	18
94.0399	24
