Mass spectrum: Chlorothiazide; LC-ESI-QTOF; MS2; 60 V
Name: Chlorothiazide
Class: Pharmaceutical; Transformation_product-Metabolite
Formula: C7H6ClN3O4S2
Exact mass: 294.9488
SMILES: N[S](=O)(=O)c1cc2c(NC=N[S]2(=O)=O)cc1Cl
InChI: InChI=1S/C7H6ClN3O4S2/c8-4-1-5-7(2-6(4)16(9,12)13)17(14,15)11-3-10-5/h1-3H,(H,10,11)(H2,9,12,13)
Instrument: TripleTOF 5600 SCIEX
Instrument type: LC-ESI-QTOF
Ms type: MS2
Ion mode: POSITIVE
Collision energy: 60
Fragmentation mode: CID
Ionization: ESI
Column name: Zorbax Eclipse Plus C18 2.1 mm x 150 mm, 3.5 um, Agilent
Retention time: 5.43 min
Precursor m/z: 295.9561
Precursor type: [M+H]+
m/z	relative intensity
85.9817	178
89.0266	499
90.0346	249
93.046	142
96.9858	535
97.9804	749
99.9946	285
104.9568	178
106.981	677
111.994	285
113.9718	178
114.0114	214
117.0447	784
123.9942	999
125.0014	356
129.0212	428
130.0044	249
131.9645	178
139.9906	356
141.9512	178
152.0121	142
154.9995	606
155.9842	535
