Mass spectrum: N-[2-[(2-Bromo-4,6-dinitrophenyl)azo]-5-(diethylamino)phenyl]acetamide; LC-ESI-QTOF; MS2; 80 V
Name: N-[2-[(2-Bromo-4,6-dinitrophenyl)azo]-5-(diethylamino)phenyl]acetamide
Formula: C18H19BrN6O5
Exact mass: 478.06
SMILES: CCN(CC)C1=CC(=C(C=C1)N=NC2=C(C=C(C=C2Br)[N+](=O)[O-])[N+](=O)[O-])NC(=O)C
InChI: InChI=1S/C18H19BrN6O5/c1-4-23(5-2)12-6-7-15(16(9-12)20-11(3)26)21-22-18-14(19)8-13(24(27)28)10-17(18)25(29)30/h6-10H,4-5H2,1-3H3,(H,20,26)
Instrument: TripleTOF 6600 SCIEX
Instrument type: LC-ESI-QTOF
Ms type: MS2
Ion mode: POSITIVE
Collision energy: 80
Fragmentation mode: CID
Ionization: ESI
Column name: Zorbax Eclipse Plus C18 2.1 mm x 150 mm, 3.5 um, Agilent
Retention time: 16.579 min
Precursor m/z: 479.0673
Precursor type: [M+H]+
m/z	relative intensity
43.0171	52
69.0442	15
77.0375	12
79.0269	11
79.0528	13
80.0479	179
91.0534	15
92.0469	30
93.0555	193
94.063	77
95.0591	22
104.0476	18
105.0425	44
106.0534	11
106.0635	23
107.0359	51
107.0589	163
108.0433	136
108.0789	88
109.0746	94
117.055	26
118.0621	22
119.0586	83
120.0576	175
121.0748	999
122.0591	22
122.0931	16
123.0913	23
128.9286	13
131.0595	36
132.0773	23
133.0507	54
133.0621	109
134.0704	459
135.089	143
136.0738	136
145.0747	34
146.0712	59
147.0543	69
147.0762	70
147.0883	36
148.0614	332
148.0862	200
149.07	13
149.1049	309
160.0551	15
161.0672	61
161.0956	13
162.0767	36
162.101	209
163.0843	628
163.1191	94
165.0534	12
166.064	30
167.0723	16
168.0692	16
175.0727	40
175.0839	13
176.0834	11
176.1183	11
177.1011	202
179.0586	22
180.0653	12
190.0987	9
191.1167	684
193.072	54
194.071	72
195.0572	15
204.1135	29
206.0704	25
207.0898	22
220.0858	11
221.0806	40
222.0927	12
222.1088	13
234.1024	11
235.0967	19
237.1101	41
244.9868	13
250.1296	56
256.9691	11
260.9901	13
265.1439	86
271.9887	34
272.9914	38
283.973	13
284.9899	26
299.9951	11
300.0173	20
300.9801	44
301.0256	11
316.0366	11
328.0419	33
344.0579	34
