Mass spectrum: Flubendazole; LC-ESI-QTOF; MS2; 130 V
Name: Flubendazole
Class: Pharmaceutical
Formula: C16H12FN3O3
Exact mass: 313.0863
SMILES: COC(=O)Nc1[nH]c2cc(ccc2n1)C(=O)c3ccc(F)cc3
InChI: InChI=1S/C16H12FN3O3/c1-23-16(22)20-15-18-12-7-4-10(8-13(12)19-15)14(21)9-2-5-11(17)6-3-9/h2-8H,1H3,(H2,18,19,20,22)
Instrument: TripleTOF 5600 SCIEX
Instrument type: LC-ESI-QTOF
Ms type: MS2
Ion mode: POSITIVE
Collision energy: 130
Fragmentation mode: CID
Ionization: ESI
Column name: Zorbax Eclipse Plus C18 2.1 mm x 150 mm, 3.5 um, Agilent
Retention time: 9.113 min
Precursor m/z: 314.0935
Precursor type: [M+H]+
m/z	relative intensity
51.0288	61
52.0234	14
68.0104	14
69.0161	83
73.0103	89
74.0194	999
74.0479	9
75.0268	942
76.0214	153
77.0284	118
78.0361	97
83.0316	11
95.0303	175
99.0226	17
103.0301	12
104.0371	23
105.0451	54
107.0291	16
123.035	14
131.0291	16
157.0457	14
