Mass spectrum: 6-Acetylcodeine; LC-ESI-QTOF; MS2; 130 V
Name: 6-Acetylcodeine
Class: Pharmaceutical; Transformation_product
Formula: C20H23NO4
Exact mass: 341.1627
SMILES: CC(=O)OC1C=CC2C3CC4=C5C2(C1OC5=C(C=C4)OC)CCN3C
InChI: InChI=1S/C20H23NO4/c1-11(22)24-16-7-5-13-14-10-12-4-6-15(23-3)18-17(12)20(13,19(16)25-18)8-9-21(14)2/h4-7,13-14,16,19H,8-10H2,1-3H3
Instrument: TripleTOF 5600 SCIEX
Instrument type: LC-ESI-QTOF
Ms type: MS2
Ion mode: POSITIVE
Collision energy: 130
Fragmentation mode: CID
Ionization: ESI
Column name: Zorbax Eclipse Plus C18 2.1 mm x 150 mm, 3.5 um, Agilent
Retention time: 6.207 min
Precursor m/z: 342.17
Precursor type: [M+H]+
m/z	relative intensity
43.0277	163
44.0582	31
65.0434	71
74.0188	54
75.026	65
76.0337	58
77.042	325
78.0499	61
86.0169	15
87.0256	32
88.0328	23
89.0412	217
90.0501	12
91.0566	55
98.016	25
99.0239	21
101.0395	50
102.0476	188
103.0551	30
111.0247	13
113.0388	81
114.0467	42
115.0552	628
125.0383	46
126.047	281
127.0546	304
128.0624	229
131.0489	15
137.0398	15
138.0473	23
139.0554	384
140.0623	20
141.0695	46
149.0378	23
150.0472	341
151.0551	589
152.0629	999
153.0704	62
154.0665	10
155.0503	36
161.0382	10
162.0471	42
163.0548	385
164.0625	206
165.0706	230
168.0579	17
174.046	18
175.0553	24
176.0628	114
177.0714	23
178.0777	33
181.065	11
187.0558	58
188.0627	35
189.0711	115
190.0662	11
200.062	16
204.0811	10
