Mass spectrum: Cocaine; LC-ESI-QTOF; MS2; 70 V
Name: Cocaine
Class: Pharmaceutical
Formula: C17H21NO4
Exact mass: 303.1471
InChI: InChI=1S/C17H21NO4/c1-18-12-8-9-13(18)15(17(20)21-2)14(10-12)22-16(19)11-6-4-3-5-7-11/h3-7,12-15H,8-10H2,1-2H3
Instrument: TripleTOF 6600 SCIEX
Instrument type: LC-ESI-QTOF
Ms type: CID
Ion mode: POSITIVE
Collision energy: 70
Ionization: ESI
Column name: Zorbax Eclipse Plus C18 2.1 mm x 150 mm, 3.5 um, Agilent
Retention time: 6.407 min
Precursor m/z: 304.1543
Precursor type: [M+H]+
m/z	relative intensity
42.0337	37
50.015	21
51.0229	134
57.0563	21
59.0126	26
65.0382	161
67.0416	102
67.0542	21
68.0493	123
77.0386	999
79.054	53
82.0648	435
83.0721	53
91.054	257
93.0336	26
94.0642	150
105.0331	166
135.0678	21
