Mass spectrum: Propranolol; LC-ESI-QTOF; MS2; 140 V
Name: Propranolol
Class: Pharmaceutical
Formula: C16H21NO2
Exact mass: 259.1572
SMILES: CC(C)NCC(O)COc1cccc2ccccc12
InChI: InChI=1S/C16H21NO2/c1-12(2)17-10-14(18)11-19-16-9-5-7-13-6-3-4-8-15(13)16/h3-9,12,14,17-18H,10-11H2,1-2H3
Instrument: TripleTOF 5600 SCIEX
Instrument type: LC-ESI-QTOF
Ms type: MS2
Ion mode: POSITIVE
Collision energy: 140
Fragmentation mode: CID
Ionization: ESI
Column name: Zorbax Eclipse Plus C18 2.1 mm x 150 mm, 3.5 um, Agilent
Retention time: 7.356 min
Precursor m/z: 260.1645
Precursor type: [M+H]+
m/z	relative intensity
42.0422	71
44.0568	136
56.0548	79
56.0626	28
58.0692	86
60.0057	43
65.0426	136
73.01	107
74.0183	999
74.0579	35
75.0261	733
76.0335	294
77.0414	632
78.0491	165
85.008	79
86.0173	172
87.0245	129
89.0406	294
98.0164	150
99.0238	57
101.0391	64
102.0469	258
113.0369	35
115.0536	172
126.0462	251
127.0548	150
128.0618	79
139.056	35
150.0464	79
151.0525	71
152.0623	57
