Mass spectrum: Meptazinol; LC-ESI-QTOF; MS2; 20 V
Name: Meptazinol
Class: Pharmaceutical
Formula: C15H23NO
Exact mass: 233.178
SMILES: CCC1(CCCCN(C1)C)C2=CC(=CC=C2)O
InChI: InChI=1S/C15H23NO/c1-3-15(9-4-5-10-16(2)12-15)13-7-6-8-14(17)11-13/h6-8,11,17H,3-5,9-10,12H2,1-2H3
Instrument: TripleTOF 5600 SCIEX
Instrument type: LC-ESI-QTOF
Ms type: MS2
Ion mode: POSITIVE
Collision energy: 20
Fragmentation mode: CID
Ionization: ESI
Column name: Zorbax Eclipse Plus C18 2.1 mm x 150 mm, 3.5 um, Agilent
Retention time: 5.641 min
Precursor m/z: 234.1852
Precursor type: [M+H]+
m/z	relative intensity
107.0495	87
121.0646	18
126.1284	10
133.0651	22
135.0813	10
147.0807	21
161.0967	22
234.1861	999
