Mass spectrum: 4-Hydroxy-1-(2-hydroxyethyl)-2,2,6,6-tetramethylpiperidine; LC-ESI-QTOF; MS2; 50 V
Name: 4-Hydroxy-1-(2-hydroxyethyl)-2,2,6,6-tetramethylpiperidine
Formula: C11H23NO2
Exact mass: 201.1729
SMILES: CC1(CC(CC(N1CCO)(C)C)O)C
InChI: InChI=1S/C11H23NO2/c1-10(2)7-9(14)8-11(3,4)12(10)5-6-13/h9,13-14H,5-8H2,1-4H3
Instrument: TripleTOF 6600 SCIEX
Instrument type: LC-ESI-QTOF
Ms type: MS2
Ion mode: POSITIVE
Collision energy: 50
Fragmentation mode: CID
Ionization: ESI
Column name: Zorbax Eclipse Plus C18 2.1 mm x 150 mm, 3.5 um, Agilent
Retention time: 2.162 min
Precursor m/z: 202.1802
Precursor type: [M+H]+
m/z	relative intensity
39.0224	97
41.0384	319
42.0339	138
43.017	69
44.0493	804
45.033	360
55.0544	152
57.0695	319
58.0648	527
59.0479	97
62.0594	263
65.0372	97
67.0535	166
68.0495	69
69.0569	69
79.0539	152
81.0688	194
84.0802	999
85.0636	305
102.0906	652
