Mass spectrum: Dimethomorph; LC-ESI-QTOF; MS2; 120 V
Name: Dimethomorph
Class: Fungicide
Formula: C21H22ClNO4
Exact mass: 387.1237
SMILES: COC1=C(C=C(C=C1)/C(=C/C(=O)N2CCOCC2)/C3=CC=C(C=C3)Cl)OC
InChI: InChI=1S/C21H22ClNO4/c1-25-19-8-5-16(13-20(19)26-2)18(15-3-6-17(22)7-4-15)14-21(24)23-9-11-27-12-10-23/h3-8,13-14H,9-12H2,1-2H3/b18-14+
Instrument: TripleTOF 5600 SCIEX
Instrument type: LC-ESI-QTOF
Ms type: MS2
Ion mode: POSITIVE
Collision energy: 120
Fragmentation mode: CID
Ionization: ESI
Column name: Zorbax Eclipse Plus C18 2.1 mm x 150 mm, 3.5 um, Agilent
Retention time: 11.552 min
Precursor m/z: 388.131
Precursor type: [M+H]+
m/z	relative intensity
42.0421	23
51.0285	41
64.0351	18
65.0422	49
66.0498	46
70.0314	27
72.9875	11
74.0193	60
75.0263	161
76.034	17
77.0414	107
78.0492	10
79.0202	14
89.0397	80
90.0468	13
91.055	13
92.0278	30
93.0347	11
94.0413	13
98.0161	21
98.9996	26
99.0237	25
101.0405	11
102.0466	52
107.0137	29
111.0002	129
113.0382	13
114.0468	22
115.0544	115
121.0282	51
125.0161	17
125.0386	41
126.0462	188
127.054	18
128.0622	25
137.0382	34
138.0461	37
139.0049	10
139.0541	123
149.0153	54
149.0386	21
150.0467	174
151.0543	503
152.0623	930
160.0075	25
161.0381	15
162.0463	59
163.0547	999
164.0621	506
165.0701	604
166.0794	18
173.0139	42
174.0452	22
175.055	37
176.062	317
177.0691	35
178.0771	70
186.023	21
189.0706	10
194.0742	14
199.0309	112
