Mass spectrum: Pyridoxine; LC-ESI-QTOF; MS2; 70 V
Name: Pyridoxine
Formula: C8H11NO3
Exact mass: 169.0739
SMILES: OC1=C(C)N=CC(CO)=C1CO
InChI: InChI=1S/C8H11NO3/c1-5-8(12)7(4-11)6(3-10)2-9-5/h2,10-12H,3-4H2,1H3
Instrument: TripleTOF 5600 SCIEX
Instrument type: LC-ESI-QTOF
Ms type: MS2
Ion mode: POSITIVE
Collision energy: 70
Fragmentation mode: CID
Ionization: ESI
Column name: Zorbax Eclipse Plus C18 2.1 mm x 150 mm, 3.5 um, Agilent
Retention time: 2.11 min
Precursor m/z: 170.0812
Precursor type: [M+H]+
m/z	relative intensity
37.0074	60
38.0154	52
39.023	269
41.038	52
42.0339	112
50.0148	156
51.023	712
53.0384	243
63.0245	52
65.0391	156
66.0459	95
67.0413	95
67.0541	43
77.0386	912
78.0352	191
79.0546	78
80.0493	999
81.0566	52
91.0426	60
92.0489	52
93.057	69
94.0661	304
106.0647	182
