Mass spectrum: Bezafibrate; LC-ESI-QTOF; MS2; 100 V
Name: Bezafibrate
Class: Pharmaceutical
Formula: C19H20ClNO4
Exact mass: 361.1081
SMILES: CC(C)(Oc1ccc(CCNC(=O)c2ccc(Cl)cc2)cc1)C(O)=O
InChI: InChI=1S/C19H20ClNO4/c1-19(2,18(23)24)25-16-9-3-13(4-10-16)11-12-21-17(22)14-5-7-15(20)8-6-14/h3-10H,11-12H2,1-2H3,(H,21,22)(H,23,24)
Instrument: TripleTOF 5600 SCIEX
Instrument type: LC-ESI-QTOF
Ms type: MS2
Ion mode: POSITIVE
Collision energy: 100
Fragmentation mode: CID
Ionization: ESI
Column name: Zorbax Eclipse Plus C18 2.1 mm x 150 mm, 3.5 um, Agilent
Retention time: 11.033 min
Precursor m/z: 362.1154
Precursor type: [M+H]+
m/z	relative intensity
59.0534	11
65.0428	45
73.0121	21
74.0187	171
75.0269	572
77.0424	968
78.0497	12
84.9859	46
91.0558	340
93.0713	53
94.0431	24
102.0475	26
103.0544	241
111.0003	999
119.0505	18
120.0572	12
121.064	74
138.9974	156
