Mass spectrum: 19-Nortestosterone; LC-ESI-QTOF; MS2; 50 V
Name: 19-Nortestosterone
Class: Pharmaceutical
Formula: C18H26O2
Exact mass: 274.1933
SMILES: C[C@]12CC[C@H]3[C@@H](CCC4=CC(=O)CC[C@H]34)[C@@H]1CC[C@@H]2O
InChI: InChI=1S/C18H26O2/c1-18-9-8-14-13-5-3-12(19)10-11(13)2-4-15(14)16(18)6-7-17(18)20/h10,13-17,20H,2-9H2,1H3/t13-,14+,15+,16-,17-,18-/m0/s1
Instrument: TripleTOF 5600 SCIEX
Instrument type: LC-ESI-QTOF
Ms type: MS2
Ion mode: POSITIVE
Collision energy: 50
Fragmentation mode: CID
Ionization: ESI
Column name: Zorbax Eclipse Plus C18 2.1 mm x 150 mm, 3.5 um, Agilent
Retention time: 10.421 min
Precursor m/z: 275.2006
Precursor type: [M+H]+
m/z	relative intensity
43.0307	13
55.0226	13
65.0435	39
67.0594	237
69.0733	17
77.0415	328
79.0572	666
81.0726	491
83.0517	411
83.0856	19
91.0557	692
93.0708	352
94.043	15
95.05	10
95.0861	139
97.0656	34
103.0544	41
104.0618	13
105.0704	474
107.0494	174
107.0852	139
109.0652	999
109.1019	26
111.0806	15
115.0538	82
116.0608	21
117.0696	191
117.0999	10
119.0861	219
121.0649	13
121.1015	52
123.0798	28
127.0536	32
128.0615	145
129.0705	171
130.0772	52
131.0854	167
133.0643	19
133.1007	82
135.0792	54
135.1167	34
141.0688	87
142.0764	87
143.0849	152
145.1009	178
147.0805	30
147.1166	52
149.0947	28
153.0707	28
154.0771	26
155.0859	65
156.0916	23
157.1013	65
159.0782	10
159.1163	47
161.0942	47
161.1325	21
163.1112	23
167.0856	21
168.0933	26
169.1006	37
170.11	17
171.1174	28
173.1341	13
175.1135	10
181.0981	19
183.1163	34
185.1315	21
187.1099	10
187.1488	26
188.1194	15
197.1293	13
197.1418	13
199.1463	15
201.1257	17
