Mass spectrum: 2-Hydroxybenzothiazole; LC-ESI-QTOF; MS2; 140 V
Name: 2-Hydroxybenzothiazole
Class: Industrial_process
Formula: C7H5NOS
Exact mass: 151.0092
SMILES: C1=CC=C2C(=C1)NC(=O)S2
InChI: InChI=1S/C7H5NOS/c9-7-8-5-3-1-2-4-6(5)10-7/h1-4H,(H,8,9)
Instrument: TripleTOF 5600 SCIEX
Instrument type: LC-ESI-QTOF
Ms type: MS2
Ion mode: NEGATIVE
Collision energy: 140
Fragmentation mode: CID
Ionization: ESI
Column name: Zorbax Eclipse Plus C18 2.1 mm x 150 mm, 3.5 um, Agilent
Retention time: 7.776 min
Precursor m/z: 150.0019
Precursor type: [M-H]-
m/z	relative intensity
41.9975	999
