Mass spectrum: Flumioxazin; LC-ESI-QTOF; MS2; 60 V
Name: Flumioxazin
Class: Herbicide; Fungicide
Formula: C19H15FN2O4
Exact mass: 354.1016
SMILES: C#CCN1c2cc(c(cc2OCC1=O)F)N3C(=O)C4=C(C3=O)CCCC4
InChI: InChI=1S/C19H15FN2O4/c1-2-7-21-15-9-14(13(20)8-16(15)26-10-17(21)23)22-18(24)11-5-3-4-6-12(11)19(22)25/h1,8-9H,3-7,10H2
Instrument: TripleTOF 6600 SCIEX
Instrument type: LC-ESI-QTOF
Ms type: MS2
Ion mode: POSITIVE
Collision energy: 60
Fragmentation mode: CID
Ionization: ESI
Column name: Zorbax Eclipse Plus C18 2.1 mm x 150 mm, 3.5 um, Agilent
Retention time: 11.704 min
Precursor m/z: 355.1089
Precursor type: [M+H]+
m/z	relative intensity
39.021	90
51.0224	90
53.0365	90
53.0417	90
68.0488	90
75.0204	181
77.0375	817
79.0536	908
80.0613	90
81.0324	90
81.0699	272
83.0258	90
91.055	181
98.04	90
101.0372	272
105.0428	90
107.0297	90
107.0478	454
108.0232	90
108.0538	90
116.0461	90
121.0447	544
122.0394	181
124.0219	90
128.0484	454
128.0656	90
129.043	181
129.0721	90
132.0468	181
135.0452	90
138.0323	90
146.0399	90
147.0465	90
148.0546	999
149.0448	90
149.0611	181
151.0285	181
152.0138	90
152.0427	90
154.0602	90
156.0425	454
158.0407	90
160.0529	363
161.0427	90
161.057	90
162.034	90
162.0589	272
163.0356	181
164.0236	90
164.0484	90
168.0665	272
171.053	544
172.0587	272
173.0485	181
175.0438	181
176.0489	454
177.0568	363
179.0223	272
182.06	90
183.0529	363
185.0606	544
186.0678	272
187.0773	90
188.0508	90
189.0452	90
197.074	181
198.0716	90
199.0463	272
201.0789	90
202.0492	363
203.0589	90
204.0478	181
204.0761	181
205.0413	272
207.0531	90
209.0714	181
210.0731	90
212.0489	272
212.086	181
213.0502	817
215.0605	90
216.0723	181
219.0551	454
221.0685	181
223.0479	90
223.0672	181
223.0888	90
226.0669	90
229.0787	181
231.0553	272
232.0374	90
237.0658	90
239.0628	635
240.0815	544
242.0483	90
242.0575	181
243.0586	181
249.0819	363
253.0792	272
257.0723	181
258.0893	90
259.0508	999
271.0546	90
271.0869	544
279.0733	181
285.0666	363
287.082	635
297.0645	181
299.0849	454
