Mass spectrum: 1-(o-Tolyl)-biguanide; LC-ESI-QTOF; MS2; 80 V
Name: 1-(o-Tolyl)-biguanide
Class: Industrial_process
Formula: C9H13N5
Exact mass: 191.1171
SMILES: Cc1ccccc1N=C(N)N=C(N)N
InChI: InChI=1S/C9H13N5/c1-6-4-2-3-5-7(6)13-9(12)14-8(10)11/h2-5H,1H3,(H6,10,11,12,13,14)
Instrument: TripleTOF 5600 SCIEX
Instrument type: LC-ESI-QTOF
Ms type: MS2
Ion mode: POSITIVE
Collision energy: 80
Fragmentation mode: CID
Ionization: ESI
Column name: Zorbax Eclipse Plus C18 2.1 mm x 150 mm, 3.5 um, Agilent
Retention time: 4.675 min
Precursor m/z: 192.1244
Precursor type: [M+H]+
m/z	relative intensity
42.03	20
43.0388	991
53.0431	13
60.0605	224
64.0335	27
65.0435	999
66.0497	78
67.046	19
68.0282	170
77.0415	449
78.0385	50
79.0564	70
80.0517	23
85.0515	14
88.0193	11
89.0399	396
90.0396	61
91.0551	490
92.0503	60
93.0583	264
104.0489	86
105.0457	11
106.0641	92
116.0484	37
117.0547	22
118.0511	37
131.0594	35
