Mass spectrum: Fexofenadinone; LC-ESI-QTOF; MS2; 130 V
Name: Fexofenadinone
Class: Pharmaceutical
Formula: C32H37NO4
Exact mass: 499.2723
SMILES: O=C(C1=CC=C(C(C)(C(O)=O)C)C=C1)CCCN(CCC2)CC2C(C3=CC=CC=C3)(O)C4=CC=CC=C4
InChI: InChI=1S/C32H37NO4/c1-31(2,30(35)36)25-19-17-24(18-20-25)29(34)16-10-22-33-21-9-15-28(23-33)32(37,26-11-5-3-6-12-26)27-13-7-4-8-14-27/h3-8,11-14,17-20,28,37H,9-10,15-16,21-23H2,1-2H3,(H,35,36)
Instrument: TripleTOF 5600 SCIEX
Instrument type: LC-ESI-QTOF
Ms type: MS2
Ion mode: POSITIVE
Collision energy: 130
Fragmentation mode: CID
Ionization: ESI
Column name: Zorbax Eclipse Plus C18 2.1 mm x 150 mm, 3.5 um, Agilent
Retention time: 8.706 min
Precursor m/z: 500.2795
Precursor type: [M+H]+
m/z	relative intensity
39.0236	13
43.018	16
65.0384	92
77.0388	239
78.0445	37
79.0542	64
82.0648	11
89.0388	72
90.0464	178
91.0543	939
92.0619	11
93.0338	27
96.0832	15
102.0463	50
103.0544	381
104.0617	21
105.0334	27
105.0708	18
107.0499	52
115.0545	999
116.0623	80
117.0701	815
118.0779	730
119.0494	10
120.0593	15
121.0289	52
127.0535	32
128.0611	38
131.0493	199
131.0858	20
132.0923	21
145.0642	28
146.0717	67
147.045	25
148.0516	21
152.0622	11
165.0689	11
173.0943	15
191.0685	23
