Mass spectrum: 2-Cyano-3,3-diphenylacrylic acid; LC-ESI-QTOF; MS2; 40 V
Name: 2-Cyano-3,3-diphenylacrylic acid
Formula: C16H11NO2
Exact mass: 249.079
SMILES: C1=CC=C(C=C1)C(=C(C#N)C(=O)O)C2=CC=CC=C2
InChI: InChI=1S/C16H11NO2/c17-11-14(16(18)19)15(12-7-3-1-4-8-12)13-9-5-2-6-10-13/h1-10H,(H,18,19)
Instrument: TripleTOF 5600 SCIEX
Instrument type: LC-ESI-QTOF
Ms type: MS2
Ion mode: POSITIVE
Collision energy: 40
Fragmentation mode: CID
Ionization: ESI
Column name: Zorbax Eclipse Plus C18 2.1 mm x 150 mm, 3.5 um, Agilent
Retention time: 13.705 min
Precursor m/z: 250.0863
Precursor type: [M+H]+
m/z	relative intensity
77.0393	499
105.0345	399
151.0534	299
176.0458	99
176.0604	899
176.0774	99
177.0714	599
178.0744	399
203.0694	999
204.0821	999
232.0699	99
232.0814	499
