Mass spectrum: N,N`-bis(2-methoxyethoxycarbonyl)-4-methyl-1,3-phenylenediamine; LC-ESI-QTOF; MS2; 130 V
Name: N,N`-bis(2-methoxyethoxycarbonyl)-4-methyl-1,3-phenylenediamine
Class: Research
Formula: C15H22N2O6
Exact mass: 326.1478
SMILES: CC1=C(C=C(C=C1)NC(=O)OCCOC)NC(=O)OCCOC
InChI: InChI=1S/C15H22N2O6/c1-11-4-5-12(16-14(18)22-8-6-20-2)10-13(11)17-15(19)23-9-7-21-3/h4-5,10H,6-9H2,1-3H3,(H,16,18)(H,17,19)
Instrument: TripleTOF 5600 SCIEX
Instrument type: LC-ESI-QTOF
Ms type: MS2
Ion mode: POSITIVE
Collision energy: 130
Fragmentation mode: CID
Ionization: ESI
Column name: Zorbax Eclipse Plus C18 2.1 mm x 150 mm, 3.5 um, Agilent
Retention time: 8.323 min
Precursor m/z: 327.1551
Precursor type: [M+H]+
m/z	relative intensity
43.0288	108
45.045	130
59.0574	999
77.043	651
78.0365	152
79.0544	86
