Mass spectrum: Disperse orange 3; LC-ESI-QTOF; MS2; 140 V
Name: Disperse orange 3
Formula: C12H10N4O2
Exact mass: 242.0804
SMILES: C1=CC(=CC=C1N)N=NC2=CC=C(C=C2)[N+](=O)[O-]
InChI: InChI=1S/C12H10N4O2/c13-9-1-3-10(4-2-9)14-15-11-5-7-12(8-6-11)16(17)18/h1-8H,13H2
Instrument: TripleTOF 6600 SCIEX
Instrument type: LC-ESI-QTOF
Ms type: MS2
Ion mode: POSITIVE
Collision energy: 140
Fragmentation mode: CID
Ionization: ESI
Column name: Zorbax Eclipse Plus C18 2.1 mm x 150 mm, 3.5 um, Agilent
Retention time: 12.729 min
Precursor m/z: 243.0877
Precursor type: [M+H]+
m/z	relative intensity
35.9985	22
37.0064	117
38.0139	66
39.022	131
49.0063	366
50.0142	999
51.0096	13
51.0214	93
52.0172	77
52.0283	14
54.0337	10
61.0055	49
62.0142	86
63.0215	59
65.037	16
73.0055	263
74.0136	879
75.0212	80
78.0337	14
