Mass spectrum: (2-Aminobenzyl)triphenylphosphonium; LC-ESI-QTOF; MS2; 120 V
Name: (2-Aminobenzyl)triphenylphosphonium
Class: Industrial_process
Formula: [C25H23NP]+
Exact mass: 368.1563
SMILES: NC1=CC=CC=C1C[P+](C2=CC=CC=C2)(C3=CC=CC=C3)C4=CC=CC=C4
InChI: InChI=1S/C25H23NP/c26-25-19-11-10-12-21(25)20-27(22-13-4-1-5-14-22,23-15-6-2-7-16-23)24-17-8-3-9-18-24/h1-19H,20,26H2/q+1
Instrument: TripleTOF 5600 SCIEX
Instrument type: LC-ESI-QTOF
Ms type: MS2
Ion mode: POSITIVE
Collision energy: 120
Fragmentation mode: CID
Ionization: ESI
Column name: Zorbax Eclipse Plus C18 2.1 mm x 150 mm, 3.5 um, Agilent
Retention time: 8.432 min
Precursor m/z: 368.1563
Precursor type: [M]+
m/z	relative intensity
51.0233	104
77.0383	930
78.0333	134
79.0536	325
106.0642	999
107.0029	85
115.0535	74
139.0541	64
151.0547	50
152.0621	266
157.0207	133
183.0361	108
