Mass spectrum: Iopromide; LC-ESI-QTOF; MS2; 110 V
Name: Iopromide
Class: Pharmaceutical
Formula: C18H24I3N3O8
Exact mass: 790.8698
SMILES: COCC(=O)Nc1c(I)c(C(=O)NCC(O)CO)c(I)c(c1I)C(=O)N(C)CC(O)CO
InChI: InChI=1S/C18H24I3N3O8/c1-24(4-9(28)6-26)18(31)12-13(19)11(17(30)22-3-8(27)5-25)14(20)16(15(12)21)23-10(29)7-32-2/h8-9,25-28H,3-7H2,1-2H3,(H,22,30)(H,23,29)
Instrument: TripleTOF 5600 SCIEX
Instrument type: LC-ESI-QTOF
Ms type: MS2
Ion mode: POSITIVE
Collision energy: 110
Fragmentation mode: CID
Ionization: ESI
Column name: Zorbax Eclipse Plus C18 2.1 mm x 150 mm, 3.5 um, Agilent
Retention time: 4.895 min
Precursor m/z: 791.877
Precursor type: [M+H]+
m/z	relative intensity
77.0056	18
88.0203	36
89.0261	41
100.017	22
101.0263	41
101.9961	41
103.0408	31
104.047	22
113.997	36
116.0125	54
117.0204	209
128.0125	22
130.0549	22
131.0358	22
141.991	109
144.0067	41
145.0156	82
152.9157	22
154.8989	36
157.0155	36
158.024	27
159.0303	31
159.0538	18
172.001	100
173.0101	100
174.0172	22
177.9138	45
185.0388	18
188.918	18
200.9077	45
203.9293	27
215.9274	27
226.9226	22
227.931	86
228.9247	41
241.947	27
242.9152	31
243.9248	114
255.9254	196
256.9343	27
269.9048	22
270.9086	31
271.9192	287
282.9106	50
283.9198	68
284.9258	31
298.9057	54
298.9268	45
299.9143	999
312.9438	31
313.9269	82
326.9059	27
326.9602	22
327.8146	41
339.8113	63
341.8266	18
353.8216	18
354.8335	31
355.8085	50
367.8096	41
381.821	50
382.8284	72
398.8295	59
423.7965	82
