Mass spectrum: Betamethasone; LC-ESI-QTOF; MS2; 10 V
Name: Betamethasone
Class: Pharmaceutical
Formula: C22H29FO5
Exact mass: 392.1999
SMILES: C[C@H]1C[C@H]2[C@@H]3CCC4=CC(=O)C=C[C@@]4([C@]3([C@H](C[C@@]2([C@]1(C(=O)CO)O)C)O)F)C
InChI: InChI=1S/C22H29FO5/c1-12-8-16-15-5-4-13-9-14(25)6-7-19(13,2)21(15,23)17(26)10-20(16,3)22(12,28)18(27)11-24/h6-7,9,12,15-17,24,26,28H,4-5,8,10-11H2,1-3H3/t12-,15-,16-,17-,19-,20-,21-,22-/m0/s1
Instrument: TripleTOF 5600 SCIEX
Instrument type: LC-ESI-QTOF
Ms type: MS2
Ion mode: POSITIVE
Collision energy: 10
Fragmentation mode: CID
Ionization: ESI
Column name: Zorbax Eclipse Plus C18 2.1 mm x 150 mm, 3.5 um, Agilent
Retention time: 9.016 min
Precursor m/z: 393.2072
Precursor type: [M+H]+
m/z	relative intensity
279.1739	20
309.1852	14
311.1641	11
319.1678	20
337.1795	49
355.1906	141
373.2	570
393.2058	999
