Mass spectrum: Sulfasalazine; LC-ESI-QTOF; MS2; 40 V
Name: Sulfasalazine
Class: Pharmaceutical
Formula: C18H14N4O5S
Exact mass: 398.0685
SMILES: C1=CC=NC(=C1)NS(=O)(=O)C2=CC=C(C=C2)NN=C3C=CC(=O)C(=C3)C(=O)O
InChI: InChI=1S/C18H14N4O5S/c23-16-9-6-13(11-15(16)18(24)25)21-20-12-4-7-14(8-5-12)28(26,27)22-17-3-1-2-10-19-17/h1-11,20H,(H,19,22)(H,24,25)
Instrument: TripleTOF 5600 SCIEX
Instrument type: LC-ESI-QTOF
Ms type: MS2
Ion mode: POSITIVE
Collision energy: 40
Fragmentation mode: CID
Ionization: ESI
Column name: Zorbax Eclipse Plus C18 2.1 mm x 150 mm, 3.5 um, Agilent
Retention time: 9.217 min
Precursor m/z: 399.0758
Precursor type: [M+H]+
m/z	relative intensity
67.0493	29
77.0431	10
91.0226	84
93.0481	17
94.0565	200
95.0641	15
105.0472	11
119.0153	348
137.0255	56
139.055	109
140.0619	14
147.0201	286
155.0574	17
157.0082	23
157.077	31
165.0305	204
167.0581	38
168.0661	35
169.0767	58
170.084	16
183.071	11
185.0711	51
186.0554	18
195.0524	36
197.0707	21
211.0533	28
213.0654	392
223.0499	999
224.0564	100
225.0594	29
226.0597	44
231.0942	10
234.0449	24
239.0454	347
241.0659	115
259.0862	19
261.1066	22
287.0082	67
287.0811	71
289.106	47
315.0855	154
317.1006	390
333.0961	94
381.0646	645
