Mass spectrum: 2-Methylbenzimidazole; LC-ESI-QTOF; MS2; 70 V
Name: 2-Methylbenzimidazole
Formula: C8H8N2
Exact mass: 132.0687
SMILES: CC1=NC2=CC=CC=C2N1
InChI: InChI=1S/C8H8N2/c1-6-9-7-4-2-3-5-8(7)10-6/h2-5H,1H3,(H,9,10)
Instrument: TripleTOF 6600 SCIEX
Instrument type: LC-ESI-QTOF
Ms type: MS2
Ion mode: POSITIVE
Collision energy: 70
Fragmentation mode: CID
Ionization: ESI
Column name: Zorbax Eclipse Plus C18 2.1 mm x 150 mm, 3.5 um, Agilent
Retention time: 4.68 min
Precursor m/z: 133.076
Precursor type: [M+H]+
m/z	relative intensity
35.9995	52
37.0071	254
38.0149	248
39.023	999
40.0181	12
42.035	18
50.0148	34
51.0229	45
52.0179	52
61.0069	16
62.0148	41
63.0224	130
64.0304	31
65.0256	13
65.0382	224
76.0181	12
77.0388	15
91.0417	23
