Mass spectrum: Sulfamethoxazole hydroxylamine; LC-ESI-QTOF; MS2; 40 V
Name: Sulfamethoxazole hydroxylamine
Class: Metabolite
Formula: C10H11N3O4S
Exact mass: 269.047
SMILES: CC1=CC(=NO1)NS(=O)(=O)C2=CC=C(C=C2)NO
InChI: InChI=1S/C10H11N3O4S/c1-7-6-10(12-17-7)13-18(15,16)9-4-2-8(11-14)3-5-9/h2-6,11,14H,1H3,(H,12,13)
Instrument: TripleTOF 5600 SCIEX
Instrument type: LC-ESI-QTOF
Ms type: MS2
Ion mode: POSITIVE
Collision energy: 40
Fragmentation mode: CID
Ionization: ESI
Column name: Zorbax Eclipse Plus C18 2.1 mm x 150 mm, 3.5 um, Agilent
Retention time: 6.772 min
Precursor m/z: 270.0543
Precursor type: [M+H]+
m/z	relative intensity
63.0235	171
64.0318	114
78.0455	171
80.0134	256
90.0331	256
91.0418	656
92.0508	199
99.0546	827
108.0439	913
109.0503	228
124.0387	999
145.0059	199
172.0055	342
