Mass spectrum: Thiamethoxam; LC-ESI-QTOF; MS2; 90 V
Name: Thiamethoxam
Class: Insecticide
Formula: C8H10ClN5O3S
Exact mass: 291.0193
SMILES: CN1COCN(Cc2sc(Cl)nc2)/C1=N/[N+]([O-])=O
InChI: InChI=1S/C8H10ClN5O3S/c1-12-4-17-5-13(8(12)11-14(15)16)3-6-2-10-7(9)18-6/h2H,3-5H2,1H3/b11-8+
Instrument: TripleTOF 5600 SCIEX
Instrument type: LC-ESI-QTOF
Ms type: MS2
Ion mode: POSITIVE
Collision energy: 90
Fragmentation mode: CID
Ionization: ESI
Column name: Zorbax Eclipse Plus C18 2.1 mm x 150 mm, 3.5 um, Agilent
Retention time: 6.188 min
Precursor m/z: 292.0266
Precursor type: [M+H]+
m/z	relative intensity
54.039	299
61.9919	166
66.0381	166
67.0322	233
67.0446	199
69.0488	266
70.9991	999
71.0163	166
71.9943	199
78.9422	266
79.0329	199
81.0466	333
81.0561	133
83.9916	832
87.9988	199
93.0468	166
95.9922	266
98.0061	199
108.0546	299
108.0676	166
110.9996	166
118.9623	166
131.9672	865
