Mass spectrum: 2-(2-Methoxyphenyl)-1H-Benzimidazole; LC-ESI-QTOF; MS2; 110 V
Name: 2-(2-Methoxyphenyl)-1H-Benzimidazole
Class: Pharmaceutical
Formula: C14H12N2O
Exact mass: 224.095
SMILES: COc1ccccc1c2[nH]c3ccccc3n2
InChI: InChI=1S/C14H12N2O/c1-17-13-9-5-2-6-10(13)14-15-11-7-3-4-8-12(11)16-14/h2-9H,1H3,(H,15,16)
Instrument: TripleTOF 5600 SCIEX
Instrument type: LC-ESI-QTOF
Ms type: MS2
Ion mode: POSITIVE
Collision energy: 110
Fragmentation mode: CID
Ionization: ESI
Column name: Zorbax Eclipse Plus C18 2.1 mm x 150 mm, 3.5 um, Agilent
Retention time: 6.225 min
Precursor m/z: 225.1022
Precursor type: [M+H]+
m/z	relative intensity
52.0235	86
52.0366	32
60.0063	24
62.0404	32
63.0603	20
64.0351	111
65.0301	24
65.0438	999
66.0379	20
74.0176	316
75.0258	411
75.0485	24
76.0215	106
76.0336	213
76.0743	20
77.0417	657
77.0767	20
77.0913	20
78.0364	24
78.047	16
87.0241	24
88.032	28
89.041	53
90.0364	20
91.0431	90
92.0497	74
92.0626	28
98.0172	20
99.0244	37
100.0202	20
101.0392	119
102.0345	287
103.0414	172
104.0524	24
113.038	32
114.0342	32
115.0407	24
117.0503	16
118.0535	16
125.0376	61
126.0448	172
127.054	86
128.0491	82
129.0448	102
129.0695	16
130.0427	45
131.0599	37
142.053	16
143.0603	28
151.0438	20
152.0489	74
153.0554	45
154.0652	20
155.0603	32
179.0585	111
180.073	28
181.0717	16
