Mass spectrum: Tylosin; LC-ESI-QTOF; MS2; 100 V
Name: Tylosin
Class: Pharmaceutical
Formula: C46H77NO17
Exact mass: 915.5192
SMILES: CCC1C(C=C(C=CC(=O)C(CC(C(C(C(CC(=O)O1)O)C)OC2C(C(C(C(O2)C)OC3CC(C(C(O3)C)O)(C)O)N(C)C)O)CC=O)C)C)COC4C(C(C(C(O4)C)O)OC)OC
InChI: InChI=1S/C46H77NO17/c1-13-33-30(22-58-45-42(57-12)41(56-11)37(52)26(5)60-45)18-23(2)14-15-31(49)24(3)19-29(16-17-48)39(25(4)32(50)20-34(51)62-33)64-44-38(53)36(47(9)10)40(27(6)61-44)63-35-21-46(8,55)43(54)28(7)59-35/h14-15,17-18,24-30,32-33,35-45,50,52-55H,13,16,19-22H2,1-12H3
Instrument: TripleTOF 6600 SCIEX
Instrument type: LC-ESI-QTOF
Ms type: MS2
Ion mode: POSITIVE
Collision energy: 100
Fragmentation mode: CID
Ionization: ESI
Column name: Zorbax Eclipse Plus C18 2.1 mm x 150 mm, 3.5 um, Agilent
Retention time: 8.178 min
Precursor m/z: 916.5264
Precursor type: [M+H]+
m/z	relative intensity
41.039	83
43.0186	640
45.0341	32
55.0547	70
58.0657	102
59.0491	51
70.0642	44
71.05	32
72.0809	51
73.0516	211
81.0701	76
83.0493	710
84.0809	57
85.0293	44
85.0636	32
86.0602	38
87.0439	185
88.0758	999
98.0969	198
100.0753	89
101.0601	313
101.0839	64
109.0647	38
114.0919	121
115.0989	70
116.0712	262
126.0927	38
127.0754	64
132.1023	134
156.1025	89
174.1127	281
