Mass spectrum: Boscalid; LC-ESI-QTOF; MS2; 60 V
Name: Boscalid
Class: Fungicide
Formula: C18H12Cl2N2O
Exact mass: 342.0327
SMILES: C1=CC=C(C(=C1)C2=CC=C(C=C2)Cl)NC(=O)C3=C(N=CC=C3)Cl
InChI: InChI=1S/C18H12Cl2N2O/c19-13-9-7-12(8-10-13)14-4-1-2-6-16(14)22-18(23)15-5-3-11-21-17(15)20/h1-11H,(H,22,23)
Instrument: TripleTOF 6600 SCIEX
Instrument type: LC-ESI-QTOF
Ms type: MS2
Ion mode: POSITIVE
Collision energy: 60
Fragmentation mode: CID
Ionization: ESI
Column name: Zorbax Eclipse Plus C18 2.1 mm x 150 mm, 3.5 um, Agilent
Retention time: 12.31 min
Precursor m/z: 343.04
Precursor type: [M+H]+
m/z	relative intensity
50.0149	12
51.0229	47
61.9792	9
76.0179	120
78.0332	281
84.9825	15
111.9946	538
113.0026	13
114.0102	22
139.9891	98
140.0483	18
151.0532	9
152.061	59
166.0617	20
167.0669	11
168.0692	19
177.0555	52
179.0717	12
189.0694	27
190.0643	16
196.0609	15
199.0526	20
200.0604	15
201.0674	16
202.0739	42
203.0723	37
204.0814	24
212.0233	12
214.0625	18
215.072	40
216.0795	105
217.0871	55
218.0863	29
225.056	22
226.065	62
227.0723	131
228.0802	108
229.0844	47
238.0435	23
241.0757	34
242.0834	264
243.0911	415
244.0766	13
244.0989	117
245.076	20
252.0675	40
253.0756	250
254.083	119
255.0944	13
262.0406	12
263.0391	22
269.0712	29
270.0778	105
271.0865	999
272.0945	321
289.0525	63
305.0446	22
306.0538	19
307.0629	34
