Mass spectrum: Methylecgonidine; LC-ESI-QTOF; MS2; 40 V
Name: Methylecgonidine
Class: Metabolite
Formula: C10H15NO2
Exact mass: 181.1103
SMILES: CN1C2CCC1C(=CC2)C(=O)OC
InChI: InChI=1S/C10H15NO2/c1-11-7-3-5-8(10(12)13-2)9(11)6-4-7/h5,7,9H,3-4,6H2,1-2H3
Instrument: TripleTOF 6600 SCIEX
Instrument type: LC-ESI-QTOF
Ms type: MS2
Ion mode: POSITIVE
Collision energy: 40
Fragmentation mode: CID
Ionization: ESI
Column name: Zorbax Eclipse Plus C18 2.1 mm x 150 mm, 3.5 um, Agilent
Retention time: 4.43 min
Precursor m/z: 182.1176
Precursor type: [M+H]+
m/z	relative intensity
39.0231	45
41.0384	42
42.0338	52
44.0498	29
51.0233	26
53.0381	42
55.0542	13
56.0487	29
57.0563	32
59.0127	45
59.0487	35
65.0385	339
67.0537	22
68.0494	19
77.0383	150
79.0535	94
80.0486	22
81.0574	19
81.0691	52
82.0641	65
89.0386	62
90.0459	248
91.054	999
92.0519	13
93.0331	39
93.069	71
94.0644	65
97.0634	22
105.0695	65
106.0645	156
107.0725	208
108.0797	13
109.0641	19
118.0405	401
119.0473	48
120.0792	35
121.0878	16
122.0608	19
122.0954	228
123.0795	29
150.0901	58
151.0745	16
182.1171	97
