Mass spectrum: Amisulpride; LC-ESI-QTOF; MS2; 80 V
Name: Amisulpride
Class: Pharmaceutical
Formula: C17H27N3O4S
Exact mass: 369.1722
SMILES: CCN1CCCC1CNC(=O)c2cc(c(N)cc2OC)[S](=O)(=O)CC
InChI: InChI=1S/C17H27N3O4S/c1-4-20-8-6-7-12(20)11-19-17(21)13-9-16(25(22,23)5-2)14(18)10-15(13)24-3/h9-10,12H,4-8,11,18H2,1-3H3,(H,19,21)
Instrument: TripleTOF 5600 SCIEX
Instrument type: LC-ESI-QTOF
Ms type: MS2
Ion mode: POSITIVE
Collision energy: 80
Fragmentation mode: CID
Ionization: ESI
Column name: Zorbax Eclipse Plus C18 2.1 mm x 150 mm, 3.5 um, Agilent
Retention time: 5.568 min
Precursor m/z: 370.1795
Precursor type: [M+H]+
m/z	relative intensity
42.0423	16
51.0296	12
52.025	13
53.007	26
53.0449	24
54.0391	45
55.0598	25
56.0555	77
58.0703	55
58.9999	25
64.0346	21
65.0431	124
66.0513	551
67.0459	58
68.0165	36
68.0535	31
68.9834	53
69.9906	19
70.0688	27
70.9975	20
74.994	22
76.0203	27
77.0295	14
77.0419	21
78.0373	109
79.0197	17
79.0445	55
80.0159	26
80.0527	34
81.0362	55
82.0317	12
82.0678	33
82.9973	105
84.0837	337
84.9765	15
85.0128	63
86.9926	12
89.0285	11
90.0358	19
91.0437	181
92.0513	196
93.0238	17
93.0592	154
94.0313	34
94.0419	83
94.0656	17
94.9959	27
96.0455	43
96.9992	55
97.0112	23
97.9835	36
98.0058	17
98.0971	71
98.9907	27
104.0144	58
106.0297	207
107.0142	275
107.0361	107
107.991	188
108.0447	133
109.0274	10
110.0066	212
110.0968	17
111.9864	27
112.0225	30
112.1128	263
113.006	55
117.0217	10
119.0363	20
119.9912	21
120.0454	244
121.0532	601
122.0074	13
122.0367	479
124.0396	27
124.9939	152
132.0092	971
133.0222	17
134.0242	10
135.0317	27
135.9859	49
138.0019	82
139.0087	28
140.017	311
141.001	27
147.0324	540
148.0036	66
148.0391	34
149.048	999
150.0012	133
150.0333	17
150.055	40
152.9882	54
163.0273	34
168.0122	562
177.9963	217
196.0076	863
214.0169	25
242.0494	20
