Mass spectrum: Pantothenic acid; LC-ESI-QTOF; MS2; 40 V
Name: Pantothenic acid
Formula: C9H17NO5
Exact mass: 219.1107
SMILES: CC(C)(CO)C(C(=O)NCCC(=O)O)O
InChI: InChI=1S/C9H17NO5/c1-9(2,5-11)7(14)8(15)10-4-3-6(12)13/h7,11,14H,3-5H2,1-2H3,(H,10,15)(H,12,13)
Instrument: TripleTOF 6600 SCIEX
Instrument type: LC-ESI-QTOF
Ms type: MS2
Ion mode: POSITIVE
Collision energy: 40
Fragmentation mode: CID
Ionization: ESI
Column name: Zorbax Eclipse Plus C18 2.1 mm x 150 mm, 3.5 um, Agilent
Retention time: 4.792 min
Precursor m/z: 220.118
Precursor type: [M+H]+
m/z	relative intensity
30.0336	196
39.0222	107
41.0381	321
42.0333	115
43.0178	758
45.0345	142
55.0168	71
55.0537	115
56.0122	160
57.0689	249
59.0485	142
65.0372	115
67.0536	508
69.0688	71
70.0284	999
72.0436	437
73.0276	124
74.0222	53
80.048	44
81.0575	62
81.0683	44
83.0504	35
85.0641	258
90.0538	508
95.0477	285
96.0805	214
98.0231	454
113.0582	62
124.0754	624
142.0847	71
184.0988	44
202.1024	53
