Mass spectrum: Venlafaxine; LC-ESI-QTOF; MS2; 40 V
Name: Venlafaxine
Class: Pharmaceutical
Formula: C17H27NO2
Exact mass: 277.2042
SMILES: CN(C)CC(c1ccc(cc1)OC)C2(CCCCC2)O
InChI: InChI=1S/C17H27NO2/c1-18(2)13-16(17(19)11-5-4-6-12-17)14-7-9-15(20-3)10-8-14/h7-10,16,19H,4-6,11-13H2,1-3H3
Instrument: TripleTOF 5600 SCIEX
Instrument type: LC-ESI-QTOF
Ms type: MS2
Ion mode: POSITIVE
Collision energy: 40
Fragmentation mode: CID
Ionization: ESI
Column name: Zorbax Eclipse Plus C18 2.1 mm x 150 mm, 3.5 um, Agilent
Retention time: 6.626 min
Precursor m/z: 278.2115
Precursor type: [M+H]+
m/z	relative intensity
42.0432	12
58.0719	999
77.0406	13
79.057	28
81.0722	38
91.0556	118
93.0723	21
107.0496	11
107.0861	15
115.0542	11
117.0697	10
119.0853	12
121.0655	647
129.0682	11
132.0556	35
135.0809	37
141.071	10
144.0555	11
147.0802	255
158.0726	41
159.0802	80
162.0915	11
163.0988	14
173.0962	87
178.1223	11
215.1412	16
