Mass spectrum: Norfloxacin; LC-ESI-QTOF; MS2; 80 V
Name: Norfloxacin
Class: Antimicrobial; Pharmaceutical
Formula: C16H18FN3O3
Exact mass: 319.1332
SMILES: CCN1C=C(C(=O)C2=CC(=C(C=C21)N3CCNCC3)F)C(=O)O
InChI: InChI=1S/C16H18FN3O3/c1-2-19-9-11(16(22)23)15(21)10-7-12(17)14(8-13(10)19)20-5-3-18-4-6-20/h7-9,18H,2-6H2,1H3,(H,22,23)
Instrument: TripleTOF 5600 SCIEX
Instrument type: LC-ESI-QTOF
Ms type: MS2
Ion mode: POSITIVE
Collision energy: 80
Fragmentation mode: CID
Ionization: ESI
Column name: Zorbax Eclipse Plus C18 2.1 mm x 150 mm, 3.5 um, Agilent
Retention time: 5.167 min
Precursor m/z: 320.1405
Precursor type: [M+H]+
m/z	relative intensity
75.0292	108
89.0417	108
101.04	236
107.0306	272
108.0361	145
109.0439	108
114.0328	145
115.0564	145
116.0485	272
120.0411	72
121.0381	181
122.0382	145
128.0481	363
129.0573	163
130.0607	90
132.025	345
133.0357	490
134.0416	454
135.0483	345
136.0552	163
140.0489	181
142.0634	145
143.0611	90
146.0411	236
147.0501	199
148.0561	999
154.0448	90
155.0606	417
156.0707	108
158.04	127
160.0212	127
160.0461	581
161.0275	217
161.0553	762
162.0352	272
162.0651	127
163.0428	108
163.0681	127
167.021	72
169.0659	145
173.0513	326
174.0579	308
175.034	72
175.066	345
176.0746	272
183.0839	90
186.0604	108
187.0294	381
187.0643	199
188.0161	108
188.0362	708
189.0801	653
203.0621	363
215.0261	90
217.0423	90
231.0537	236
