Mass spectrum: 4-Methoxycinnamaldehyde; LC-ESI-QTOF; MS2; 130 V
Name: 4-Methoxycinnamaldehyde
Formula: C10H10O2
Exact mass: 162.0681
SMILES: COC1=CC=C(C=C1)C=CC=O
InChI: InChI=1S/C10H10O2/c1-12-10-6-4-9(5-7-10)3-2-8-11/h2-8H,1H3
Instrument: TripleTOF 6600 SCIEX
Instrument type: LC-ESI-QTOF
Ms type: MS2
Ion mode: POSITIVE
Collision energy: 130
Fragmentation mode: CID
Ionization: ESI
Column name: Zorbax Eclipse Plus C18 2.1 mm x 150 mm, 3.5 um, Agilent
Retention time: 9.471 min
Precursor m/z: 163.0754
Precursor type: [M+H]+
m/z	relative intensity
36.0002	176
37.0074	822
38.0156	763
39.023	528
49.0077	352
50.0159	999
51.0235	411
61.0076	411
62.0155	440
63.0204	264
74.0153	235
