Mass spectrum: Piroxicam; LC-ESI-QTOF; MS2; 20 V
Name: Piroxicam
Class: Pharmaceutical
Formula: C15H13N3O4S
Exact mass: 331.0627
SMILES: CN1C(=C(C2=CC=CC=C2S1(=O)=O)O)C(=O)NC3=CC=CC=N3
InChI: InChI=1S/C15H13N3O4S/c1-18-13(15(20)17-12-8-4-5-9-16-12)14(19)10-6-2-3-7-11(10)23(18,21)22/h2-9,19H,1H3,(H,16,17,20)
Instrument: TripleTOF 5600 SCIEX
Instrument type: LC-ESI-QTOF
Ms type: MS2
Ion mode: NEGATIVE
Collision energy: 20
Fragmentation mode: CID
Ionization: ESI
Column name: Zorbax Eclipse Plus C18 2.1 mm x 150 mm, 3.5 um, Agilent
Retention time: 9.527 min
Precursor m/z: 330.0554
Precursor type: [M-H]-
m/z	relative intensity
131.038	110
146.0621	540
162.0685	120
192.012	68
210.0242	188
266.0951	999
330.0575	500
