Mass spectrum: Foramsulfuron; LC-ESI-QTOF; MS2; 70 V
Name: Foramsulfuron
Class: Herbicide
Formula: C17H20N6O7S
Exact mass: 452.1114
SMILES: CN(C)C(=O)C1=C(C=C(C=C1)NC=O)S(=O)(=O)NC(=O)NC2=NC(=CC(=N2)OC)OC
InChI: InChI=1S/C17H20N6O7S/c1-23(2)15(25)11-6-5-10(18-9-24)7-12(11)31(27,28)22-17(26)21-16-19-13(29-3)8-14(20-16)30-4/h5-9H,1-4H3,(H,18,24)(H2,19,20,21,22,26)
Instrument: TripleTOF 6600 SCIEX
Instrument type: LC-ESI-QTOF
Ms type: MS2
Ion mode: NEGATIVE
Collision energy: 70
Fragmentation mode: CID
Ionization: ESI
Column name: Zorbax Eclipse Plus C18 2.1 mm x 150 mm, 3.5 um, Agilent
Retention time: 8.823 min
Precursor m/z: 451.1041
Precursor type: [M-H]-
m/z	relative intensity
41.0149	14
41.9992	999
61.9694	29
64.0076	10
65.0142	89
65.9982	197
77.9637	12
82.0169	21
89.0257	15
90.0117	14
90.036	20
92.0142	32
105.9608	83
107.0135	216
107.0625	12
108.0198	10
115.0311	25
116.0127	155
117.0236	17
117.0463	45
118.031	149
119.0397	10
120.0485	20
122.0368	262
124.0524	18
132.0321	28
133.0429	45
134.0274	32
135.0597	12
139.0385	155
143.0298	18
144.0346	17
144.056	26
145.0415	58
154.0623	267
159.0212	39
160.0018	59
161.0326	12
161.0482	12
161.0682	20
161.0785	12
172.0535	14
176.0827	15
195.9987	81
196.9985	18
197.0131	17
204.0735	14
205.067	25
209.0275	25
222.9856	64
224.0491	32
224.9992	83
225.038	9
236.0142	105
252.0409	43
268.0404	510
