Mass spectrum: Fluxapyroxad; LC-ESI-QTOF; MS2; 70 V
Name: Fluxapyroxad
Class: Fungicide
Formula: C18H12F5N3O
Exact mass: 381.0901
SMILES: Cn1cc(c(n1)C(F)F)C(=O)Nc2ccccc2c3cc(c(c(c3)F)F)F
InChI: InChI=1S/C18H12F5N3O/c1-26-8-11(16(25-26)17(22)23)18(27)24-14-5-3-2-4-10(14)9-6-12(19)15(21)13(20)7-9/h2-8,17H,1H3,(H,24,27)
Instrument: TripleTOF 6600 SCIEX
Instrument type: LC-ESI-QTOF
Ms type: MS2
Ion mode: POSITIVE
Collision energy: 70
Fragmentation mode: CID
Ionization: ESI
Column name: Zorbax Eclipse Plus C18 2.1 mm x 150 mm, 3.5 um, Agilent
Retention time: 12.239 min
Precursor m/z: 382.0973
Precursor type: [M+H]+
m/z	relative intensity
42.033	17
57.0128	10
83.0276	13
109.0382	42
139.0288	41
145.0247	26
157.0419	18
159.0355	106
167.0287	36
169.025	10
181.024	14
182.0385	30
185.0173	59
186.0268	73
187.0347	179
188.0423	96
192.0235	26
194.0373	12
195.0464	14
204.0176	12
205.0249	139
206.0336	999
207.0411	57
208.0519	14
211.0268	24
212.0301	165
213.0376	49
214.044	22
215.0408	25
218.0332	48
219.0409	80
220.0322	12
220.0538	16
221.0627	16
224.04	18
225.0501	92
226.0458	200
227.0546	18
230.035	13
231.0277	174
232.0372	170
233.0325	17
233.0476	24
234.0519	272
236.0302	12
237.0374	14
238.0535	33
239.0528	29
240.0362	45
240.0592	30
241.0569	13
243.0416	216
244.0372	87
245.0441	38
246.0531	29
246.07	10
247.0635	20
248.0497	12
250.0448	26
251.0399	18
251.0526	12
252.0592	83
253.0593	18
254.0669	10
255.0282	12
256.0413	17
257.0462	10
258.052	61
259.0527	25
260.0668	25
264.0602	30
265.0585	18
266.0751	18
267.0729	16
269.0515	12
270.0514	163
271.0601	175
272.0554	49
273.0646	22
277.0629	13
278.0553	13
279.0606	48
280.0654	13
282.0432	13
283.0491	25
284.0682	37
285.0632	41
286.0696	14
292.0646	12
293.0692	16
295.0583	10
298.0575	25
299.0777	24
312.0743	18
324.073	10
342.0834	13
