Mass spectrum: Oxytetracycline; LC-ESI-QTOF; MS2; 120 V
Name: Oxytetracycline
Class: Pharmaceutical
Formula: C22H24N2O9
Exact mass: 460.1482
SMILES: C[C@@]1([C@H]2[C@@H]([C@H]3[C@@H](C(=O)C(=C([C@]3(C(=O)C2=C(C4=C1C=CC=C4O)O)O)O)C(=O)N)N(C)C)O)O
InChI: InChI=1S/C22H24N2O9/c1-21(32)7-5-4-6-8(25)9(7)15(26)10-12(21)17(28)13-14(24(2)3)16(27)11(20(23)31)19(30)22(13,33)18(10)29/h4-6,12-14,17,25-26,28,30,32-33H,1-3H3,(H2,23,31)/t12-,13-,14+,17+,21-,22+/m1/s1
Instrument: TripleTOF 5600 SCIEX
Instrument type: LC-ESI-QTOF
Ms type: MS2
Ion mode: NEGATIVE
Collision energy: 120
Fragmentation mode: CID
Ionization: ESI
Column name: Zorbax Eclipse Plus C18 2.1 mm x 150 mm, 3.5 um, Agilent
Retention time: 5.586 min
Precursor m/z: 459.1409
Precursor type: [M-H]-
m/z	relative intensity
41.005	133
41.0266	66
42.0015	66
51.0262	66
55.0219	133
65.0052	266
65.0405	266
65.9998	333
66.0168	66
68.9997	133
79.0211	199
83.0229	66
84.0087	199
89.0396	266
91.0191	133
92.0278	999
92.0419	66
93.0336	532
95.0135	66
96.0072	133
101.0408	66
108.021	399
109.0283	199
111.0105	66
115.0534	133
117.0345	399
130.0405	66
130.0564	66
131.0494	266
134.0244	133
135.0461	532
139.0141	199
143.0487	732
144.0555	266
145.0283	199
151.0595	66
153.0317	66
154.0451	266
156.0586	66
158.0347	399
159.0474	266
162.0205	66
167.0446	266
168.055	199
169.0708	133
171.0454	865
172.0524	266
173.0266	466
173.0605	399
175.0388	133
178.0385	133
179.0507	66
180.0585	133
181.0609	199
182.0353	133
182.0439	66
183.0444	466
183.081	66
187.0411	532
191.0474	199
195.0464	466
196.0484	266
198.031	66
207.042	133
208.0482	133
209.065	333
211.0426	333
219.0378	66
219.0528	133
223.0489	66
224.0453	266
226.0239	199
227.0359	199
233.0572	66
237.0539	66
