Mass spectrum: Triphenylphosphine sulfide; LC-ESI-QTOF; MS2; 140 V
Name: Triphenylphosphine sulfide
Class: Industrial_process
Formula: C18H15PS
Exact mass: 294.0632
SMILES: S=[P](c1ccccc1)(c2ccccc2)c3ccccc3
InChI: InChI=1S/C18H15PS/c20-19(16-10-4-1-5-11-16,17-12-6-2-7-13-17)18-14-8-3-9-15-18/h1-15H
Instrument: TripleTOF 5600 SCIEX
Instrument type: LC-ESI-QTOF
Ms type: MS2
Ion mode: POSITIVE
Collision energy: 140
Fragmentation mode: CID
Ionization: ESI
Column name: Zorbax Eclipse Plus C18 2.1 mm x 150 mm, 3.5 um, Agilent
Retention time: 14.508 min
Precursor m/z: 295.0705
Precursor type: [M+H]+
m/z	relative intensity
51.029	225
51.0403	82
55.9874	47
56.9934	116
62.9498	999
62.9851	34
65.0443	54
67.9835	41
74.0174	61
76.0337	82
77.04	61
78.9741	68
79.9838	177
80.9902	307
86.0164	41
87.024	82
89.039	164
91.9827	47
98.0157	27
102.0462	68
103.9821	47
107.0043	520
113.0403	61
115.0528	102
126.0463	157
131.0016	47
138.0423	34
139.0539	47
150.0461	212
151.0528	205
152.0601	123
155.0025	61
156.0116	75
157.0193	82
179.0021	54
180.0108	88
181.0198	136
