Mass spectrum: 17alpha-Hydroxyprogesterone; LC-ESI-QTOF; MS2; 30 V
Name: 17alpha-Hydroxyprogesterone
Class: Pharmaceutical
Formula: C21H30O3
Exact mass: 330.2195
SMILES: CC(=O)[C@@]1(O)CC[C@H]2[C@@H]3CCC4=CC(=O)CC[C@]4(C)[C@H]3CC[C@]12C
InChI: InChI=1S/C21H30O3/c1-13(22)21(24)11-8-18-16-5-4-14-12-15(23)6-9-19(14,2)17(16)7-10-20(18,21)3/h12,16-18,24H,4-11H2,1-3H3/t16-,17+,18+,19+,20+,21+/m1/s1
Instrument: TripleTOF 5600 SCIEX
Instrument type: LC-ESI-QTOF
Ms type: MS2
Ion mode: POSITIVE
Collision energy: 30
Fragmentation mode: CID
Ionization: ESI
Column name: Zorbax Eclipse Plus C18 2.1 mm x 150 mm, 3.5 um, Agilent
Retention time: 11.808 min
Precursor m/z: 331.2268
Precursor type: [M+H]+
m/z	relative intensity
43.0266	26
79.0563	27
81.0716	42
83.0504	47
91.0554	10
93.0703	27
95.0856	41
97.0662	990
105.0693	28
107.0853	36
109.0652	999
111.0797	14
119.0846	39
121.0639	26
121.1007	31
123.0795	124
131.0848	28
133.1006	42
135.0807	23
135.116	25
137.0956	57
143.0845	32
145.1005	100
147.0788	10
147.1167	58
149.0953	29
149.1317	14
155.0866	13
157.1014	49
159.1167	81
161.0957	17
161.1317	53
163.1115	129
163.1453	19
169.1007	25
171.1166	86
173.0961	14
173.132	72
175.1108	10
175.1476	74
177.1269	86
183.1166	38
185.1317	56
187.1114	21
187.1472	48
189.1262	52
189.1644	19
191.1433	30
195.1164	21
197.1324	62
199.1475	74
201.1268	26
201.1624	15
203.1421	40
205.158	61
209.1314	21
211.1477	68
213.1294	18
213.1638	72
215.1422	31
217.1578	58
223.1464	24
225.1632	40
227.1415	17
227.1794	16
229.1575	39
231.1743	43
235.1488	17
237.1633	67
239.1436	24
241.1592	38
243.1726	23
251.1786	36
252.1869	25
253.159	10
253.1947	290
255.1732	78
259.168	30
267.172	10
267.2099	22
269.19	58
270.1976	32
271.205	294
277.1945	76
285.2195	17
289.2168	40
295.206	317
313.2159	453
331.2273	864
