Mass spectrum: 10,11-Dihydrocarbamazepine; LC-ESI-QTOF; MS2; 100 V
Name: 10,11-Dihydrocarbamazepine
Class: Pharmaceutical; Metabolite
Formula: C15H14N2O
Exact mass: 238.1106
SMILES: NC(=O)N1c2ccccc2CCc3ccccc13
InChI: InChI=1S/C15H14N2O/c16-15(18)17-13-7-3-1-5-11(13)9-10-12-6-2-4-8-14(12)17/h1-8H,9-10H2,(H2,16,18)
Instrument: TripleTOF 5600 SCIEX
Instrument type: LC-ESI-QTOF
Ms type: MS2
Ion mode: POSITIVE
Collision energy: 100
Fragmentation mode: CID
Ionization: ESI
Column name: Zorbax Eclipse Plus C18 2.1 mm x 150 mm, 3.5 um, Agilent
Retention time: 9.235 min
Precursor m/z: 239.1179
Precursor type: [M+H]+
m/z	relative intensity
44.0201	12
61.0268	15
63.0551	12
64.0359	21
65.0434	540
66.0491	21
74.0178	84
75.0265	207
76.0333	56
77.0419	442
77.0659	15
78.0489	43
87.0241	43
88.0336	18
89.0404	389
90.0475	56
91.0558	490
93.0584	28
98.0168	31
99.0235	43
100.031	12
101.0386	169
102.0345	18
102.0466	116
113.0383	113
114.0461	37
115.054	182
116.0503	34
117.0569	65
118.0652	47
124.0326	18
125.0387	100
126.0461	254
127.0537	213
128.0506	219
129.045	15
129.0582	21
137.0373	15
138.0456	31
139.0545	339
140.0497	241
141.0586	18
149.0381	31
150.0462	408
151.0548	829
152.0619	999
153.0567	147
154.065	15
162.0466	31
163.0539	216
164.06	144
165.0697	201
166.0647	157
167.074	50
174.0485	25
175.0524	59
176.0597	141
177.0579	238
178.0656	612
179.0728	232
179.0921	18
180.0812	122
188.0522	12
189.0569	50
190.0652	213
191.0738	270
192.0804	43
193.0881	18
