Mass spectrum: Simazine; LC-ESI-QTOF; MS2; 40 V
Name: Simazine
Class: Herbicide
Formula: C7H12ClN5
Exact mass: 201.0781
SMILES: CCNc1nc(Cl)nc(NCC)n1
InChI: InChI=1S/C7H12ClN5/c1-3-9-6-11-5(8)12-7(13-6)10-4-2/h3-4H2,1-2H3,(H2,9,10,11,12,13)
Instrument: TripleTOF 5600 SCIEX
Instrument type: LC-ESI-QTOF
Ms type: MS2
Ion mode: POSITIVE
Collision energy: 40
Fragmentation mode: CID
Ionization: ESI
Column name: Zorbax Eclipse Plus C18 2.1 mm x 150 mm, 3.5 um, Agilent
Retention time: 8.925 min
Precursor m/z: 202.0854
Precursor type: [M+H]+
m/z	relative intensity
43.0384	197
43.0553	21
61.9837	316
62.0052	21
68.0285	999
71.0632	353
79.008	40
79.0179	18
90.0113	25
96.056	476
104.0008	870
110.0445	12
110.0604	15
124.0864	372
124.1111	12
132.0315	501
138.0762	37
146.0207	21
166.1061	100
174.0515	93
202.0841	504
