Mass spectrum: Oxymetazoline; LC-ESI-QTOF; MS2; 70 V
Name: Oxymetazoline
Class: Pharmaceutical
Formula: C16H24N2O
Exact mass: 260.1889
SMILES: Cc1cc(c(c(c1CC2=NCCN2)C)O)C(C)(C)C
InChI: InChI=1S/C16H24N2O/c1-10-8-13(16(3,4)5)15(19)11(2)12(10)9-14-17-6-7-18-14/h8,19H,6-7,9H2,1-5H3,(H,17,18)
Instrument: TripleTOF 5600 SCIEX
Instrument type: LC-ESI-QTOF
Ms type: MS2
Ion mode: POSITIVE
Collision energy: 70
Fragmentation mode: CID
Ionization: ESI
Column name: Zorbax Eclipse Plus C18 2.1 mm x 150 mm, 3.5 um, Agilent
Retention time: 7.429 min
Precursor m/z: 261.1961
Precursor type: [M+H]+
m/z	relative intensity
43.0269	27
44.058	117
55.0472	11
55.0589	34
57.0757	45
65.0435	116
67.0597	26
69.0391	13
71.0641	47
77.0424	493
77.09	11
78.0495	19
79.0574	289
81.0715	11
83.0634	11
84.0698	90
85.078	30
91.057	999
91.0943	13
92.0639	22
93.0719	133
102.0475	19
103.0551	173
104.0622	26
105.0714	743
106.0781	23
107.0494	47
107.0864	73
115.0546	295
115.085	11
116.0625	62
117.0699	241
118.0779	45
119.0859	260
120.0941	15
121.0655	234
121.101	37
122.0725	30
127.0548	84
128.0624	400
129.0701	101
130.0712	67
131.0488	113
131.0847	91
132.0583	20
132.0929	30
133.0654	45
133.1014	316
135.0805	192
135.1118	12
136.0874	26
141.0701	62
142.0642	11
142.0782	37
143.0859	163
144.0603	15
144.0795	26
145.0649	173
145.0884	12
145.1	23
146.0731	134
147.0815	74
147.1154	37
148.0869	23
149.0984	33
155.0837	15
157.1008	15
158.0787	13
158.1072	20
159.0827	80
160.078	95
161.0973	259
163.1229	13
168.0798	13
170.0963	16
171.0938	51
172.0982	19
173.0851	24
173.108	29
174.0864	49
175.1114	31
185.1071	43
186.0922	13
186.1152	34
187.089	48
187.1251	16
188.0943	97
189.1144	11
197.108	23
198.1278	11
199.1234	12
201.1041	24
201.1389	13
203.1183	13
211.1215	62
215.1176	18
225.14	36
227.1551	12
231.1513	13
