Mass spectrum: Nitrendipine; LC-ESI-QTOF; MS2; 60 V
Name: Nitrendipine
Class: Pharmaceutical
Formula: C18H20N2O6
Exact mass: 360.1321
SMILES: CCOC(=O)C1=C(NC(=C(C1C2=CC(=CC=C2)[N+](=O)[O-])C(=O)OC)C)C
InChI: InChI=1S/C18H20N2O6/c1-5-26-18(22)15-11(3)19-10(2)14(17(21)25-4)16(15)12-7-6-8-13(9-12)20(23)24/h6-9,16,19H,5H2,1-4H3
Instrument: TripleTOF 5600 SCIEX
Instrument type: LC-ESI-QTOF
Ms type: MS2
Ion mode: POSITIVE
Collision energy: 60
Fragmentation mode: CID
Ionization: ESI
Column name: Zorbax Eclipse Plus C18 2.1 mm x 150 mm, 3.5 um, Agilent
Retention time: 12.373 min
Precursor m/z: 361.1394
Precursor type: [M+H]+
m/z	relative intensity
67.0252	292
77.0429	19
79.0586	11
89.0417	11
99.0464	13
101.0427	19
102.0501	33
104.0267	22
106.0665	38
115.0549	85
116.0569	13
118.0435	35
122.0609	19
126.046	27
127.0558	66
128.0618	93
129.034	38
129.0711	49
130.0437	19
132.0444	13
133.0519	16
134.0594	63
139.0546	132
140.0611	124
141.0694	171
142.0471	11
142.0715	35
143.0708	46
144.0819	27
145.089	24
148.0433	11
150.018	13
150.0544	85
151.0587	66
152.0616	182
153.0704	195
154.0438	68
154.066	85
155.0513	24
155.079	44
156.0608	22
156.0812	33
157.0634	19
157.0899	16
158.0662	13
163.0605	13
164.0642	35
165.0724	102
166.0653	187
167.0724	311
168.0814	507
169.0613	24
169.0861	27
170.0357	11
170.0961	85
171.0646	19
171.1061	38
172.0694	19
172.082	11
174.054	13
176.0346	60
178.0605	93
179.0721	77
180.0555	27
180.0804	720
181.0616	27
181.0878	367
182.0634	35
182.0958	433
183.0695	44
183.1046	77
184.0766	60
185.0661	11
186.0563	11
188.0678	13
189.0644	49
190.0693	13
191.0783	16
192.0583	22
192.0826	30
193.0632	16
193.0787	13
193.0901	35
194.0607	129
194.0931	44
195.0547	24
195.0707	52
196.0753	253
197.0827	85
198.0901	231
199.0782	16
200.0366	22
200.0713	44
202.0887	27
206.0601	33
207.0649	99
208.0759	963
209.0835	554
210.0491	22
210.0902	982
211.0633	33
211.0972	137
212.0695	96
214.0873	38
215.0902	16
217.0596	30
221.0675	82
222.0552	41
222.0862	16
223.0878	38
224.0674	60
225.0787	168
226.0863	999
227.0825	49
228.0657	35
235.0635	82
236.0692	367
237.0783	82
238.083	35
239.0584	30
239.0866	30
240.0678	85
240.1004	96
241.0644	16
242.0823	38
249.0588	16
249.0722	13
252.0628	38
253.0714	408
254.0816	648
255.0879	361
256.0954	35
267.0863	132
267.1053	19
268.0931	157
269.1045	96
281.0959	16
284.0822	22
301.082	13
