Mass spectrum: Tadalafil; LC-ESI-QTOF; MS2; 130 V
Name: Tadalafil
Class: Pharmaceutical; Personal_care_product
Formula: C22H19N3O4
Exact mass: 389.1376
SMILES: CN1CC(=O)N2C(C1=O)CC3=C(C2C4=CC5=C(C=C4)OCO5)NC6=CC=CC=C36
InChI: InChI=1S/C22H19N3O4/c1-24-10-19(26)25-16(22(24)27)9-14-13-4-2-3-5-15(13)23-20(14)21(25)12-6-7-17-18(8-12)29-11-28-17/h2-8,16,21,23H,9-11H2,1H3
Instrument: TripleTOF 5600 SCIEX
Instrument type: LC-ESI-QTOF
Ms type: MS2
Ion mode: POSITIVE
Collision energy: 130
Fragmentation mode: CID
Ionization: ESI
Column name: Zorbax Eclipse Plus C18 2.1 mm x 150 mm, 3.5 um, Agilent
Retention time: 9.801 min
Precursor m/z: 390.1448
Precursor type: [M+H]+
m/z	relative intensity
51.0222	124
63.0225	31
75.024	54
77.0385	265
89.0378	132
101.0391	54
103.0549	39
113.041	39
115.0547	468
116.0502	31
127.0554	62
128.0498	39
128.0623	31
130.0649	39
138.0474	46
139.0552	93
140.0499	101
141.055	46
149.0405	46
150.047	288
151.0551	632
152.062	187
153.0595	70
162.0482	31
163.053	202
164.0607	93
166.0648	54
167.0734	78
168.068	39
174.0506	70
175.0559	226
176.0634	874
177.0594	429
178.0656	70
186.0459	39
187.0545	171
188.0596	109
189.06	46
189.0723	70
190.0665	148
191.0736	109
201.0576	195
202.0658	546
203.0745	999
204.0796	538
214.067	101
