Mass spectrum: Penconazol; LC-ESI-QTOF; MS2; 110 V
Name: Penconazol
Class: Fungicide
Formula: C13H15Cl2N3
Exact mass: 283.0643
SMILES: CCCC(CN1C=NC=N1)C2=C(C=C(C=C2)Cl)Cl
InChI: InChI=1S/C13H15Cl2N3/c1-2-3-10(7-18-9-16-8-17-18)12-5-4-11(14)6-13(12)15/h4-6,8-10H,2-3,7H2,1H3
Instrument: TripleTOF 6600 SCIEX
Instrument type: LC-ESI-QTOF
Ms type: MS2
Ion mode: POSITIVE
Collision energy: 110
Fragmentation mode: CID
Ionization: ESI
Column name: Zorbax Eclipse Plus C18 2.1 mm x 150 mm, 3.5 um, Agilent
Retention time: 12.845 min
Precursor m/z: 284.0716
Precursor type: [M+H]+
m/z	relative intensity
37.0076	19
38.0153	19
39.0231	53
42.0215	17
43.0295	212
46.9682	55
48.984	59
49.0074	11
50.015	50
51.0231	54
59.9996	17
61.0072	114
62.0155	356
63.0233	610
70.04	265
71.9761	10
72.9842	663
74.015	140
75.023	170
76.0307	58
77.0383	28
82.9448	68
86.0152	36
87.0224	48
88.0306	83
89.0389	999
96.9842	166
98.9996	99
101.0379	12
102.046	61
106.9448	24
122.9996	99
124.0075	12
132.9603	37
