Mass spectrum: Tadalafil; LC-ESI-QTOF; MS2; 60 V
Name: Tadalafil
Class: Pharmaceutical
Formula: C22H19N3O4
Exact mass: 389.1376
SMILES: CN1CC(=O)N2C(C1=O)CC3=C(C2C4=CC5=C(C=C4)OCO5)NC6=CC=CC=C36
InChI: InChI=1S/C22H19N3O4/c1-24-10-19(26)25-16(22(24)27)9-14-13-4-2-3-5-15(13)23-20(14)21(25)12-6-7-17-18(8-12)29-11-28-17/h2-8,16,21,23H,9-11H2,1H3
Instrument: TripleTOF 5600 SCIEX
Instrument type: LC-ESI-QTOF
Ms type: MS2
Ion mode: POSITIVE
Collision energy: 60
Fragmentation mode: CID
Ionization: ESI
Column name: Zorbax Eclipse Plus C18 2.1 mm x 150 mm, 3.5 um, Agilent
Retention time: 9.801 min
Precursor m/z: 390.1448
Precursor type: [M+H]+
m/z	relative intensity
77.0384	55
79.0541	25
99.0549	17
105.0327	22
115.054	61
128.0483	10
130.0659	68
135.0441	388
142.0654	71
154.0666	22
165.0701	22
167.0639	40
168.0655	30
169.076	800
170.061	50
180.0814	20
183.0941	15
189.072	50
190.0658	12
191.0735	76
192.0811	78
193.0914	38
197.0709	83
202.0773	20
203.0707	20
204.081	999
205.0882	310
206.0971	127
214.0711	12
215.0653	10
215.077	22
216.0807	155
217.0906	53
218.0948	30
219.0767	17
220.0775	20
220.0869	12
232.077	246
233.0825	71
234.0924	43
240.1102	12
240.1197	12
244.0763	58
246.0962	25
250.0845	15
261.0791	25
262.0856	488
263.0951	20
264.1041	22
274.0822	149
