Mass spectrum: Sulfadoxine; LC-ESI-QTOF; MS2; 30 V
Name: Sulfadoxine
Class: Pharmaceutical
Formula: C12H14N4O4S
Exact mass: 310.0736
SMILES: COc1ncnc(N[S](=O)(=O)c2ccc(N)cc2)c1OC
InChI: InChI=1S/C12H14N4O4S/c1-19-10-11(14-7-15-12(10)20-2)16-21(17,18)9-5-3-8(13)4-6-9/h3-7H,13H2,1-2H3,(H,14,15,16)
Instrument: TripleTOF 5600 SCIEX
Instrument type: LC-ESI-QTOF
Ms type: MS2
Ion mode: POSITIVE
Collision energy: 30
Fragmentation mode: CID
Ionization: ESI
Column name: Zorbax Eclipse Plus C18 2.1 mm x 150 mm, 3.5 um, Agilent
Retention time: 7.083 min
Precursor m/z: 311.0809
Precursor type: [M+H]+
m/z	relative intensity
65.0419	22
80.0521	11
92.0507	385
93.0597	12
108.0442	489
113.0332	10
126.0642	18
138.0286	11
140.0442	272
141.0516	23
154.0604	206
155.0678	41
156.0109	999
156.0528	13
156.0763	253
201.0765	12
212.0675	22
218.0232	15
230.0781	47
245.1024	161
311.0799	203
