Mass spectrum: Chlorpropham; LC-ESI-QTOF; MS2; 50 V
Name: Chlorpropham
Class: Herbicide
Formula: C10H12ClNO2
Exact mass: 213.0557
SMILES: CC(C)OC(=O)NC1=CC(=CC=C1)Cl
InChI: InChI=1S/C10H12ClNO2/c1-7(2)14-10(13)12-9-5-3-4-8(11)6-9/h3-7H,1-2H3,(H,12,13)
Instrument: TripleTOF 5600 SCIEX
Instrument type: LC-ESI-QTOF
Ms type: MS2
Ion mode: POSITIVE
Collision energy: 50
Fragmentation mode: CID
Ionization: ESI
Column name: Zorbax Eclipse Plus C18 2.1 mm x 150 mm, 3.5 um, Agilent
Retention time: 12.592 min
Precursor m/z: 214.0629
Precursor type: [M+H]+
m/z	relative intensity
75.0214	263
77.0383	358
91.0423	113
93.0562	980
98.9992	565
110.9987	999
126.0106	810
139.0057	94
154.0046	75
