Mass spectrum: Tributyl(1,3-dioxolan-2-ylmethyl)phosphonium; LC-ESI-QTOF; MS2; 100 V
Name: Tributyl(1,3-dioxolan-2-ylmethyl)phosphonium
Class: Industrial_process
Formula: [C16H34O2P]+
Exact mass: 289.2291
SMILES: CCCC[P+](CCCC)(CCCC)CC1OCCO1
InChI: InChI=1S/C16H34O2P/c1-4-7-12-19(13-8-5-2,14-9-6-3)15-16-17-10-11-18-16/h16H,4-15H2,1-3H3/q+1
Instrument: TripleTOF 5600 SCIEX
Instrument type: LC-ESI-QTOF
Ms type: MS2
Ion mode: POSITIVE
Collision energy: 100
Fragmentation mode: CID
Ionization: ESI
Column name: Zorbax Eclipse Plus C18 2.1 mm x 150 mm, 3.5 um, Agilent
Retention time: 8.761 min
Precursor m/z: 289.2291
Precursor type: [M]+
m/z	relative intensity
43.9886	51
44.997	148
45.041	87
46.0044	79
47.0114	90
55.9855	54
56.9948	680
59.0101	645
61.0257	999
62.0323	203
73.0303	197
75.0387	551
76.0462	441
