Mass spectrum: Quinoxyfen; LC-ESI-QTOF; MS2; 60 V
Name: Quinoxyfen
Class: Fungicide
Formula: C15H8Cl2FNO
Exact mass: 306.9967
SMILES: C1=CC(=CC=C1OC2=C3C(=CC(=CC3=NC=C2)Cl)Cl)F
InChI: InChI=1S/C15H8Cl2FNO/c16-9-7-12(17)15-13(8-9)19-6-5-14(15)20-11-3-1-10(18)2-4-11/h1-8H
Instrument: TripleTOF 6600 SCIEX
Instrument type: LC-ESI-QTOF
Ms type: MS2
Ion mode: POSITIVE
Collision energy: 60
Fragmentation mode: CID
Ionization: ESI
Column name: Zorbax Eclipse Plus C18 2.1 mm x 150 mm, 3.5 um, Agilent
Retention time: 15.195 min
Precursor m/z: 308.004
Precursor type: [M+H]+
m/z	relative intensity
74.0138	68
75.0219	179
89.0373	11
95.0279	137
99.0216	20
114.0321	28
115.0403	54
122.9986	116
123.0322	25
126.0326	28
127.0402	59
134.9982	22
150.0091	162
151.0168	70
154.039	18
161.0011	19
162.0096	999
163.0057	11
169.9672	46
171.9692	13
178.0051	15
179.0118	77
181.0433	12
182.0522	21
183.0592	44
183.9725	11
184.9786	110
190.0641	37
195.9704	16
196.9784	413
208.0549	66
209.0626	77
210.0701	33
213.9816	429
217.0204	17
225.0338	24
237.0581	110
243.0232	22
244.0319	35
245.0384	31
253.029	12
272.0277	65
