Mass spectrum: Sulcotrione; LC-ESI-QTOF; MS2; 120 V
Name: Sulcotrione
Class: Herbicide
Formula: C14H13ClO5S
Exact mass: 328.0172
SMILES: CS(=O)(=O)C1=CC(=C(C=C1)C(=O)C2C(=O)CCCC2=O)Cl
InChI: InChI=1S/C14H13ClO5S/c1-21(19,20)8-5-6-9(10(15)7-8)14(18)13-11(16)3-2-4-12(13)17/h5-7,13H,2-4H2,1H3
Instrument: TripleTOF 6600 SCIEX
Instrument type: LC-ESI-QTOF
Ms type: MS2
Ion mode: POSITIVE
Collision energy: 120
Fragmentation mode: CID
Ionization: ESI
Column name: Zorbax Eclipse Plus C18 2.1 mm x 150 mm, 3.5 um, Agilent
Retention time: 9.651 min
Precursor m/z: 329.0245
Precursor type: [M+H]+
m/z	relative intensity
38.0163	18
39.0237	18
41.003	255
50.0155	16
51.0229	21
53.0019	13
55.018	37
61.0082	16
62.0152	21
63.0231	35
65.0389	10
68.9979	999
72.9843	48
73.0081	18
74.0156	59
75.0229	51
77.0028	56
77.0407	18
83.9772	24
86.016	32
87.0234	64
89.0388	26
96.9839	13
98.016	72
99.0219	43
102.0474	13
107.977	53
115.0557	24
127.0151	10
139.0575	26
