Mass spectrum: Torasemide; LC-ESI-QTOF; MS2; 130 V
Name: Torasemide
Class: Pharmaceutical
Formula: C16H20N4O3S
Exact mass: 348.1256
SMILES: CC(C)NC(=O)N[S](=O)(=O)c1cnccc1Nc2cccc(C)c2
InChI: InChI=1S/C16H20N4O3S/c1-11(2)18-16(21)20-24(22,23)15-10-17-8-7-14(15)19-13-6-4-5-12(3)9-13/h4-11H,1-3H3,(H,17,19)(H2,18,20,21)
Instrument: TripleTOF 5600 SCIEX
Instrument type: LC-ESI-QTOF
Ms type: MS2
Ion mode: POSITIVE
Collision energy: 130
Fragmentation mode: CID
Ionization: ESI
Column name: Zorbax Eclipse Plus C18 2.1 mm x 150 mm, 3.5 um, Agilent
Retention time: 7.633 min
Precursor m/z: 349.1329
Precursor type: [M+H]+
m/z	relative intensity
51.0295	45
52.0354	13
64.0353	17
65.0419	26
67.0454	9
74.0178	66
75.0252	110
76.0212	10
76.0321	24
77.0414	285
77.0635	13
78.0352	19
78.0475	19
79.0442	15
85.0087	10
86.0159	37
87.0242	68
88.0318	257
89.0402	424
90.0338	9
90.0471	141
91.0432	10
91.0549	13
98.015	12
99.0233	13
101.0388	157
102.0329	22
102.0457	100
103.0534	28
104.0494	17
112.0307	11
113.0383	526
114.0449	546
115.0482	212
116.0485	34
117.0563	152
118.0519	19
125.0375	23
126.0457	92
127.0537	334
128.0536	475
129.0455	53
130.0651	14
138.0328	16
139.0409	47
140.0489	999
141.0566	184
142.0513	65
152.0488	51
153.0562	91
154.0643	216
155.0601	72
156.0697	12
165.0437	17
166.0514	90
167.0596	112
168.0677	232
179.0593	98
180.0669	64
181.0748	364
182.0823	25
