Mass spectrum: Emamectin; LC-ESI-QTOF; MS2; 140 V
Name: Emamectin
Class: Pharmaceutical; Insecticide
Formula: C49H75NO13
Exact mass: 885.5238
SMILES: C/C([C@](O[C@H]1C[C@H](OC)[C@](O[C@@H]2O[C@H](C)[C@@H](NC)[C@H](OC)C2)([H])[C@H](C)O1)([H])[C@@H](C)/C=C/C=C(CO3)/[C@@]([C@@]3([H])[C@H](O)C(C)=C4)(O)[C@@H]4C(O5)=O)=C\C[C@@H]6C[C@H]5C[C@]7(C=C[C@H](C)[C@]([C@@H](C)CC)([H])O7)O6
InChI: InChI=1S/C49H75NO13/c1-12-26(2)44-29(5)18-19-48(63-44)24-35-21-34(62-48)17-16-28(4)43(27(3)14-13-15-33-25-56-46-42(51)30(6)20-36(47(52)59-35)49(33,46)53)60-40-23-38(55-11)45(32(8)58-40)61-39-22-37(54-10)41(50-9)31(7)57-39/h13-16,18-20,26-27,29,31-32,34-46,50-51,53H,12,17,21-25H2,1-11H3/b14-13+,28-16+,33-15+/t26-,27-,29-,31+,32-,34+,35-,36-,37+,38-,39-,40-,41+,42+,43-,44+,45-,46+,48+,49+/m0/s1
Instrument: TripleTOF 5600 SCIEX
Instrument type: LC-ESI-QTOF
Ms type: MS2
Ion mode: POSITIVE
Collision energy: 140
Fragmentation mode: CID
Ionization: ESI
Column name: Zorbax Eclipse Plus C18 2.1 mm x 150 mm, 3.5 um, Agilent
Retention time: 11.594 min
Precursor m/z: 886.5311
Precursor type: [M+H]+
m/z	relative intensity
43.0258	11
45.0418	18
55.0606	15
58.0715	86
67.0495	66
79.0576	17
80.0523	28
81.073	20
82.0694	999
84.0475	18
91.0564	37
93.0718	16
95.0509	15
95.0865	11
98.0611	15
99.0684	11
101.0602	13
105.0708	25
108.0818	50
114.0923	11
115.055	14
119.0863	12
126.0924	23
128.0621	16
129.0705	11
158.1181	105
