Mass spectrum: Atenolol; LC-ESI-QTOF; MS2; 80 V
Name: Atenolol
Class: Pharmaceutical
Formula: C14H22N2O3
Exact mass: 266.163
SMILES: CC(C)NCC(O)COc1ccc(CC(N)=O)cc1
InChI: InChI=1S/C14H22N2O3/c1-10(2)16-8-12(17)9-19-13-5-3-11(4-6-13)7-14(15)18/h3-6,10,12,16-17H,7-9H2,1-2H3,(H2,15,18)
Instrument: TripleTOF 5600 SCIEX
Instrument type: LC-ESI-QTOF
Ms type: MS2
Ion mode: POSITIVE
Collision energy: 80
Fragmentation mode: CID
Ionization: ESI
Column name: Zorbax Eclipse Plus C18 2.1 mm x 150 mm, 3.5 um, Agilent
Retention time: 4.619 min
Precursor m/z: 267.1703
Precursor type: [M+H]+
m/z	relative intensity
56.0541	131
56.0618	40
65.0413	222
77.0413	999
79.0569	232
89.0405	908
91.0559	746
91.0884	40
103.0545	50
107.0493	746
115.0541	666
117.0702	70
127.0551	80
144.0587	50
145.0666	70
