Mass spectrum: Fluorescent brightener 363; LC-ESI-QTOF; MS2; 80 V
Name: Fluorescent brightener 363
Class: Pigment
Formula: [C19H19N2O4S]+
Exact mass: 371.106
SMILES: COC1=CC(OC(C2=[N+](C)C(C=C(S(=O)(C)=O)C=C3)=C3N2C)=C4)=C4C=C1
InChI: InChI=1S/C19H19N2O4S/c1-20-15-8-7-14(26(4,22)23)11-16(15)21(2)19(20)18-9-12-5-6-13(24-3)10-17(12)25-18/h5-11H,1-4H3/q+1
Instrument: TripleTOF 6600 SCIEX
Instrument type: LC-ESI-QTOF
Ms type: MS2
Ion mode: POSITIVE
Collision energy: 80
Fragmentation mode: CID
Ionization: ESI
Column name: Zorbax Eclipse Plus C18 2.1 mm x 150 mm, 3.5 um, Agilent
Retention time: 8.155 min
Precursor m/z: 371.106
Precursor type: [M]+
m/z	relative intensity
76.0298	52
91.0524	58
159.0418	84
178.0633	63
180.0696	58
193.0762	79
205.0759	692
206.0832	248
218.0817	153
219.0918	576
220.0988	999
221.0481	89
221.1057	58
233.0723	132
234.0776	100
247.0525	52
247.0843	84
248.0944	158
249.1003	52
261.0662	126
262.0732	475
276.0866	52
277.0962	237
