Mass spectrum: Norethynodrel; LC-ESI-QTOF; MS2; 30 V
Name: Norethynodrel
Class: Pharmaceutical
Formula: C20H26O2
Exact mass: 298.1933
SMILES: C[C@]12CC[C@H]3[C@@H](CCC4=C3CCC(=O)C4)[C@@H]1CC[C@@]2(O)C#C
InChI: InChI=1S/C20H26O2/c1-3-20(22)11-9-18-17-6-4-13-12-14(21)5-7-15(13)16(17)8-10-19(18,20)2/h1,16-18,22H,4-12H2,2H3/t16-,17-,18+,19+,20+/m1/s1
Instrument: TripleTOF 5600 SCIEX
Instrument type: LC-ESI-QTOF
Ms type: MS2
Ion mode: POSITIVE
Collision energy: 30
Fragmentation mode: CID
Ionization: ESI
Column name: Zorbax Eclipse Plus C18 2.1 mm x 150 mm, 3.5 um, Agilent
Retention time: 11.133 min
Precursor m/z: 299.2006
Precursor type: [M+H]+
m/z	relative intensity
55.0593	17
67.0576	48
69.0739	12
77.0408	29
79.0563	115
81.0721	141
83.0514	267
91.0553	170
93.0708	139
95.0493	13
95.0861	84
97.0651	32
103.0543	12
105.0696	212
107.0491	125
107.0857	91
109.0654	765
109.0979	39
111.08	34
115.0541	33
117.0697	159
119.0853	308
121.0635	21
121.1004	104
123.0799	80
123.1163	28
128.0604	31
129.0688	119
130.0772	23
131.0848	269
133.0626	33
133.0998	122
135.0799	207
135.1144	42
137.0958	35
141.0685	40
142.076	29
143.085	228
144.0919	11
145.0647	12
145.1008	329
147.0805	30
147.1152	70
149.0952	118
149.1303	15
154.0762	11
155.0845	89
156.0926	24
157.0638	10
157.1009	189
159.0794	20
159.1155	125
161.0951	128
161.1318	66
163.1108	103
165.0677	17
166.076	11
167.0844	48
168.0932	13
169.1007	151
170.1086	12
171.1161	306
173.0951	14
173.1311	157
175.1097	80
177.127	14
179.0842	31
181.1007	96
182.1064	10
183.116	124
185.0972	28
185.1314	145
187.1106	53
187.1464	35
188.1185	11
189.1255	49
192.0919	12
193.1001	59
194.1071	13
195.1158	91
197.0949	13
197.1312	97
199.1106	30
199.1473	50
201.1275	48
202.1351	9
203.1416	15
205.0999	10
206.1072	18
207.1159	74
208.1239	19
209.1311	50
211.1107	27
211.1466	122
213.1279	21
213.1625	252
215.1418	22
219.1138	17
220.1234	18
221.1314	115
222.1427	15
223.1477	163
225.1262	39
225.1643	17
227.1408	22
229.1571	35
231.1738	569
233.1296	15
234.1391	17
235.1457	76
237.1623	60
239.143	33
239.1774	58
241.1583	28
248.1555	29
253.1577	43
263.1774	113
266.1662	18
281.1892	217
299.1998	999
