Mass spectrum: 4-(2,4-Dichlorophenoxy)butanoic acid; LC-ESI-QTOF; MS2; 40 V
Name: 4-(2,4-Dichlorophenoxy)butanoic acid
Class: Herbicide
Formula: C10H10Cl2O3
Exact mass: 248.0007
SMILES: C1=CC(=C(C=C1Cl)Cl)OCCCC(=O)O
InChI: InChI=1S/C10H10Cl2O3/c11-7-3-4-9(8(12)6-7)15-5-1-2-10(13)14/h3-4,6H,1-2,5H2,(H,13,14)
Instrument: TripleTOF 6600 SCIEX
Instrument type: LC-ESI-QTOF
Ms type: MS2
Ion mode: POSITIVE
Collision energy: 40
Fragmentation mode: CID
Ionization: ESI
Column name: Zorbax Eclipse Plus C18 2.1 mm x 150 mm, 3.5 um, Agilent
Retention time: 11.685 min
Precursor m/z: 249.008
Precursor type: [M+H]+
m/z	relative intensity
37.0074	56
38.0141	45
39.023	351
41.0386	794
43.0179	590
43.0568	11
44.9994	22
45.0336	999
69.0331	817
72.9828	22
75.0206	11
77.0373	11
87.043	635
89.0365	11
98.9995	45
103.0562	22
105.0704	11
108.9828	34
110.9981	181
112.0085	45
118.0403	11
125.0126	113
128.0026	34
132.9591	227
139.0013	68
144.958	136
145.9681	11
146.975	136
153.0138	34
154.0172	113
160.9536	113
160.9867	45
162.9694	68
172.965	113
174.9695	238
188.9858	45
