Mass spectrum: Laureth-5; LC-ESI-QTOF; MS2; 20 V
Name: Laureth-5
Formula: C22H46O6
Exact mass: 406.3294
SMILES: CCCCCCCCCCCCOCCOCCOCCOCCOCCO
InChI: InChI=1S/C22H46O6/c1-2-3-4-5-6-7-8-9-10-11-13-24-15-17-26-19-21-28-22-20-27-18-16-25-14-12-23/h23H,2-22H2,1H3
Instrument: TripleTOF 6600 SCIEX
Instrument type: LC-ESI-QTOF
Ms type: MS2
Ion mode: POSITIVE
Collision energy: 20
Fragmentation mode: CID
Ionization: ESI
Column name: Zorbax Eclipse Plus C18 2.1 mm x 150 mm, 3.5 um, Agilent
Retention time: 17.227 min
Precursor m/z: 407.3367
Precursor type: [M+H]+
m/z	relative intensity
45.0333	27
57.0695	15
71.085	35
85.1005	45
89.0594	338
97.1002	11
99.1158	33
111.1158	11
113.1315	28
117.0897	11
127.1467	13
133.0856	411
151.0955	35
169.1949	50
177.1118	146
195.1225	36
239.1493	406
407.3371	999
