Mass spectrum: O-Desmethyl amisulpride; LC-ESI-QTOF; MS2; 80 V
Name: O-Desmethyl amisulpride
Class: Pharmaceutical; Transformation_product; Transformation_product-Metabolite
Formula: C16H25N3O4S
Exact mass: 355.1566
SMILES: CCN1CCCC1CNC(=O)c2cc(c(cc2O)N)S(=O)(=O)CC
InChI: InChI=1S/C16H25N3O4S/c1-3-19-7-5-6-11(19)10-18-16(21)12-8-15(24(22,23)4-2)13(17)9-14(12)20/h8-9,11,20H,3-7,10,17H2,1-2H3,(H,18,21)
Instrument: TripleTOF 5600 SCIEX
Instrument type: LC-ESI-QTOF
Ms type: MS2
Ion mode: POSITIVE
Collision energy: 80
Fragmentation mode: CID
Ionization: ESI
Column name: Zorbax Eclipse Plus C18 2.1 mm x 150 mm, 3.5 um, Agilent
Retention time: 5.619 min
Precursor m/z: 356.1639
Precursor type: [M+H]+
m/z	relative intensity
42.0422	31
52.0357	35
54.0393	15
55.0593	82
56.0555	212
57.0745	10
58.07	135
58.9994	41
67.0218	10
67.0471	11
67.0575	46
68.0167	123
68.0523	16
68.9832	25
69.0714	10
70.0671	49
70.9983	61
78.0363	16
79.0443	76
80.0272	10
80.0512	55
82.067	72
82.9972	13
84.0835	980
84.9759	101
86.9912	58
89.0277	128
94.0294	125
97.0886	11
98.0066	30
98.0974	67
98.99	52
99.9854	271
105.0205	36
106.0284	13
107.0368	507
107.9899	176
108.0198	141
110.0958	48
112.1125	999
126.0006	271
126.9848	21
133.0155	40
135.0313	407
135.9842	78
136.0383	16
153.9954	236
163.9793	37
181.9903	426
200.0009	11
