Mass spectrum: Medroxyprogesterone-17-acetate; LC-ESI-QTOF; MS2; 70 V
Name: Medroxyprogesterone-17-acetate
Class: Pharmaceutical
Formula: C24H34O4
Exact mass: 386.2457
SMILES: CC1CC2C(CCC3(C2CCC3(C(=O)C)OC(=O)C)C)C4(C1=CC(=O)CC4)C
InChI: InChI=1S/C24H34O4/c1-14-12-18-19(22(4)9-6-17(27)13-21(14)22)7-10-23(5)20(18)8-11-24(23,15(2)25)28-16(3)26/h13-14,18-20H,6-12H2,1-5H3
Instrument: TripleTOF 5600 SCIEX
Instrument type: LC-ESI-QTOF
Ms type: MS2
Ion mode: POSITIVE
Collision energy: 70
Fragmentation mode: CID
Ionization: ESI
Column name: Zorbax Eclipse Plus C18 2.1 mm x 150 mm, 3.5 um, Agilent
Retention time: 13.723 min
Precursor m/z: 387.253
Precursor type: [M+H]+
m/z	relative intensity
39.0235	13
41.0385	36
43.018	154
55.0197	13
55.0543	60
65.0391	23
67.0547	253
69.0346	13
69.07	52
77.0386	247
79.0544	280
80.0629	11
81.0341	19
81.0699	127
82.0428	9
83.0493	125
91.0543	433
93.0699	269
95.0493	44
95.0854	247
97.0649	671
103.0547	56
104.064	15
105.0697	524
107.0495	50
107.0852	85
108.0561	65
109.0649	92
109.1023	30
111.0808	27
115.0551	79
116.0631	34
117.0699	154
119.086	272
121.0639	38
121.1016	25
122.0732	11
123.0805	999
127.0557	29
128.0619	110
129.0688	166
130.0778	71
131.0518	13
131.0855	243
133.0665	13
133.1019	116
135.0808	19
135.1188	17
137.0963	133
141.0701	75
142.0781	137
143.0861	162
144.0935	42
145.1012	181
147.0841	27
147.1172	131
152.0608	17
153.0699	52
154.0776	46
155.0861	102
156.0928	92
157.0672	17
157.1017	96
158.1078	17
159.0823	30
159.1168	71
161.0953	15
161.1323	48
165.0705	48
166.0789	30
167.0845	56
168.0941	29
169.1016	94
170.1081	25
171.0807	13
171.1174	75
173.0941	11
173.1324	50
175.114	13
175.1505	27
178.0772	15
179.0853	36
180.0929	27
181.1021	75
182.109	40
183.1172	79
185.1326	40
187.154	9
191.0871	13
192.0952	15
193.1014	42
194.1155	15
195.1185	63
196.1236	15
197.1325	48
199.1126	52
199.1484	30
205.1006	15
207.1176	25
209.1334	34
210.137	11
211.147	25
213.1262	50
214.1365	131
221.1338	23
223.1506	44
235.1444	11
251.1794	44
