Mass spectrum: Azo Rubin S; LC-ESI-QTOF; MS2; 30 V
Name: Azo Rubin S
Formula: C20H14N2O7S2
Exact mass: 458.0242
SMILES: C1=CC=C2C(=C1)C(=CC=C2S(=O)(=O)O)N=NC3=C(C4=CC=CC=C4C(=C3)S(=O)(=O)O)O
InChI: InChI=1S/C20H14N2O7S2/c23-20-15-8-4-3-7-14(15)19(31(27,28)29)11-17(20)22-21-16-9-10-18(30(24,25)26)13-6-2-1-5-12(13)16/h1-11,23H,(H,24,25,26)(H,27,28,29)
Instrument: TripleTOF 6600 SCIEX
Instrument type: LC-ESI-QTOF
Ms type: MS2
Ion mode: NEGATIVE
Collision energy: 30
Fragmentation mode: CID
Ionization: ESI
Column name: Zorbax Eclipse Plus C18 2.1 mm x 150 mm, 3.5 um, Agilent
Retention time: 7.286 min
Precursor m/z: 228.0053
Precursor type: [M-2H]2-
m/z	relative intensity
63.9624	20
65.9985	2
79.7098	0
79.9578	122
80.9648	0
101.0399	0
102.0353	3
115.0427	4
116.0271	0
126.035	2
129.0341	1
140.0503	14
141.057	0
142.0425	0
143.0497	1
145.0291	4
155.039	0
157.0534	30
158.0373	4
169.4907	4
170.0254	999
171.0296	8
171.8082	0
172.0407	7
172.6788	0
194.0032	4
206.0047	28
207.0117	1
220.0063	0
220.319	2
221.0155	637
221.8504	0
222.0005	0
222.017	2
236.0019	6
267.0818	0
282.0696	0
283.0769	3
347.0389	5
