Mass spectrum: Fingolimod; LC-ESI-QTOF; MS2; 30 V
Name: Fingolimod
Class: Pharmaceutical
Formula: C19H33NO2
Exact mass: 307.2511
SMILES: CCCCCCCCC1=CC=C(C=C1)CCC(CO)(CO)N
InChI: InChI=1S/C19H33NO2/c1-2-3-4-5-6-7-8-17-9-11-18(12-10-17)13-14-19(20,15-21)16-22/h9-12,21-22H,2-8,13-16,20H2,1H3
Instrument: TripleTOF 6600 SCIEX
Instrument type: LC-ESI-QTOF
Ms type: MS2
Ion mode: POSITIVE
Collision energy: 30
Fragmentation mode: CID
Ionization: ESI
Column name: Zorbax Eclipse Plus C18 2.1 mm x 150 mm, 3.5 um, Agilent
Retention time: 10.17 min
Precursor m/z: 308.2584
Precursor type: [M+H]+
m/z	relative intensity
41.0372	21
43.0533	57
55.0532	13
57.0687	222
69.0688	15
71.084	234
91.0528	39
105.0683	716
115.0527	12
117.0681	96
119.0835	39
128.0603	47
129.0679	105
131.0832	173
133.0998	11
141.0673	11
142.0755	20
143.0834	427
145.0988	82
157.0987	316
159.1129	11
161.0937	20
171.1161	27
203.1773	126
229.1925	52
243.2092	149
255.2087	999
273.2182	17
308.256	47
