Mass spectrum: (S)-N-methyl-pregabalin; LC-ESI-QTOF; MS2; 90 V
Name: (S)-N-methyl-pregabalin
Formula: C9H19NO2
Exact mass: 173.1416
SMILES: CC(C)CC(CC(=O)O)CNC
InChI: InChI=1S/C9H19NO2/c1-7(2)4-8(6-10-3)5-9(11)12/h7-8,10H,4-6H2,1-3H3,(H,11,12)
Instrument: TripleTOF 5600 SCIEX
Instrument type: LC-ESI-QTOF
Ms type: MS2
Ion mode: POSITIVE
Collision energy: 90
Fragmentation mode: CID
Ionization: ESI
Column name: Zorbax Eclipse Plus C18 2.1 mm x 150 mm, 3.5 um, Agilent
Retention time: 4.84 min
Precursor m/z: 174.1489
Precursor type: [M+H]+
m/z	relative intensity
35.9998	59
37.0077	257
38.0155	187
39.0234	999
41.0392	509
42.0343	54
43.0183	187
43.0548	98
44.0499	331
44.9977	34
45.0344	143
51.0228	39
53.0398	84
54.0346	69
55.0182	118
55.0545	306
56.0498	39
58.0289	34
59.0497	79
65.04	19
67.0545	24
70.0648	19
77.0386	24
80.0503	24
