Mass spectrum: 3,3`-Dimethoxybenzidine; LC-ESI-QTOF; MS2; 130 V
Name: 3,3`-Dimethoxybenzidine
Formula: C14H16N2O2
Exact mass: 244.1212
SMILES: COC1=C(C=CC(=C1)C2=CC(=C(C=C2)N)OC)N
InChI: InChI=1S/C14H16N2O2/c1-17-13-7-9(3-5-11(13)15)10-4-6-12(16)14(8-10)18-2/h3-8H,15-16H2,1-2H3
Instrument: TripleTOF 6600 SCIEX
Instrument type: LC-ESI-QTOF
Ms type: MS2
Ion mode: POSITIVE
Collision energy: 130
Fragmentation mode: CID
Ionization: ESI
Column name: Zorbax Eclipse Plus C18 2.1 mm x 150 mm, 3.5 um, Agilent
Retention time: 5.188 min
Precursor m/z: 245.1285
Precursor type: [M+H]+
m/z	relative intensity
39.023	421
50.0147	377
51.0225	621
52.019	155
53.0383	88
61.007	288
62.0152	532
63.0225	999
64.03	88
65.0393	177
74.0148	954
75.022	444
76.0298	111
77.0388	510
78.042	199
80.0516	111
86.0144	222
87.0226	266
88.0301	222
89.0372	843
90.0429	133
98.0139	244
99.023	111
113.0367	222
114.0435	177
115.054	199
126.0464	155
140.0485	177
