Mass spectrum: Parathion; LC-ESI-QTOF; MS2; 80 V
Name: Parathion
Class: Insecticide
Formula: C10H14NO5PS
Exact mass: 291.033
SMILES: CCOP(=S)(OCC)Oc1ccc(cc1)[N+](=O)[O-]
InChI: InChI=1S/C10H14NO5PS/c1-3-14-17(18,15-4-2)16-10-7-5-9(6-8-10)11(12)13/h5-8H,3-4H2,1-2H3
Instrument: TripleTOF 5600 SCIEX
Instrument type: LC-ESI-QTOF
Ms type: MS2
Ion mode: POSITIVE
Collision energy: 80
Fragmentation mode: CID
Ionization: ESI
Column name: Zorbax Eclipse Plus C18 2.1 mm x 150 mm, 3.5 um, Agilent
Retention time: 14.107 min
Precursor m/z: 292.0403
Precursor type: [M+H]+
m/z	relative intensity
64.9818	189
65.0419	723
66.0503	861
74.0194	137
75.0254	602
77.0419	137
78.9424	189
93.0337	258
94.0423	999
96.9506	447
97.0144	189
108.004	68
109.0099	137
109.0292	86
110.0172	189
123.0325	68
125.0082	68
154.98	68
