Mass spectrum: Acridone; LC-ESI-QTOF; MS2; 80 V
Name: Acridone
Class: Metabolite; Pharmaceutical; Transformation_product
Formula: C13H9NO
Exact mass: 195.0684
SMILES: O=C1c2ccccc2Nc3ccccc13
InChI: InChI=1S/C13H9NO/c15-13-9-5-1-3-7-11(9)14-12-8-4-2-6-10(12)13/h1-8H,(H,14,15)
Instrument: TripleTOF 5600 SCIEX
Instrument type: LC-ESI-QTOF
Ms type: MS2
Ion mode: POSITIVE
Collision energy: 80
Fragmentation mode: CID
Ionization: ESI
Column name: Zorbax Eclipse Plus C18 2.1 mm x 150 mm, 3.5 um, Agilent
Retention time: 8.5 min
Precursor m/z: 196.0757
Precursor type: [M+H]+
m/z	relative intensity
64.0349	15
65.0426	36
74.0182	25
75.0264	51
76.0327	14
77.0419	61
86.0171	16
87.0254	41
88.0327	45
89.041	210
90.0476	14
91.0548	23
98.0157	9
99.0235	10
101.0391	26
102.0466	16
113.0395	234
114.0454	64
115.0548	186
116.0499	50
117.0581	10
126.0473	26
127.0428	12
128.0496	20
137.0391	16
138.0471	41
139.0554	999
140.0505	559
150.0463	13
164.05	45
165.0574	31
166.0659	310
167.0734	80
