Mass spectrum: Tributylphosphine oxide; LC-ESI-QTOF; MS2; 50 V
Name: Tributylphosphine oxide
Class: Industrial_process
Formula: C12H27OP
Exact mass: 218.18
SMILES: CCCC[P](=O)(CCCC)CCCC
InChI: InChI=1S/C12H27OP/c1-4-7-10-14(13,11-8-5-2)12-9-6-3/h4-12H2,1-3H3
Instrument: TripleTOF 5600 SCIEX
Instrument type: LC-ESI-QTOF
Ms type: MS2
Ion mode: POSITIVE
Collision energy: 50
Fragmentation mode: CID
Ionization: ESI
Column name: Zorbax Eclipse Plus C18 2.1 mm x 150 mm, 3.5 um, Agilent
Retention time: 11.114 min
Precursor m/z: 219.1872
Precursor type: [M+H]+
m/z	relative intensity
44.9947	12
55.0603	22
56.9944	20
57.0749	48
59.0089	25
61.0245	56
63.0052	617
77.0184	405
78.0264	999
79.0561	11
89.052	22
91.0317	53
91.0544	31
92.0403	583
105.0466	72
105.0689	22
107.062	56
117.0694	11
119.0622	18
119.0837	10
133.0773	106
135.0925	15
147.0928	118
161.1085	43
163.1242	94
175.1236	56
191.1545	15
219.1861	71
