Mass spectrum: 3,3`-Dichlorobenzidine; LC-ESI-QTOF; MS2; 40 V
Name: 3,3`-Dichlorobenzidine
Formula: C12H10Cl2N2
Exact mass: 252.0221
SMILES: C1=CC(=C(C=C1C2=CC(=C(C=C2)N)Cl)Cl)N
InChI: InChI=1S/C12H10Cl2N2/c13-9-5-7(1-3-11(9)15)8-2-4-12(16)10(14)6-8/h1-6H,15-16H2
Instrument: TripleTOF 6600 SCIEX
Instrument type: LC-ESI-QTOF
Ms type: MS2
Ion mode: POSITIVE
Collision energy: 40
Fragmentation mode: CID
Ionization: ESI
Column name: Zorbax Eclipse Plus C18 2.1 mm x 150 mm, 3.5 um, Agilent
Retention time: 11.426 min
Precursor m/z: 253.0294
Precursor type: [M+H]+
m/z	relative intensity
127.0179	29
127.0545	44
128.0636	16
130.0646	46
131.073	19
154.0656	380
155.0721	110
156.0816	12
164.0272	37
165.0575	58
166.0644	18
181.0765	515
182.0843	999
190.0426	511
201.0332	66
216.0456	26
217.0533	564
218.0604	319
252.0244	60
253.0313	161
