Mass spectrum: 2-Phenylbenzimidazole; LC-ESI-QTOF; MS2; 150 V
Name: 2-Phenylbenzimidazole
Class: Industrial_process
Formula: C13H10N2
Exact mass: 194.0844
SMILES: [nH]1c2ccccc2nc1c3ccccc3
InChI: InChI=1S/C13H10N2/c1-2-6-10(7-3-1)13-14-11-8-4-5-9-12(11)15-13/h1-9H,(H,14,15)
Instrument: TripleTOF 5600 SCIEX
Instrument type: LC-ESI-QTOF
Ms type: MS2
Ion mode: NEGATIVE
Collision energy: 150
Fragmentation mode: CID
Ionization: ESI
Column name: Zorbax Eclipse Plus C18 2.1 mm x 150 mm, 3.5 um, Agilent
Retention time: 5.903 min
Precursor m/z: 193.0771
Precursor type: [M-H]-
m/z	relative intensity
40.0102	199
40.0303	199
48.0039	0
50.0064	999
72.0019	199
