Mass spectrum: Fenbendazole; LC-ESI-QTOF; MS2; 90 V
Name: Fenbendazole
Class: Pharmaceutical
Formula: C15H13N3O2S
Exact mass: 299.0728
SMILES: COC(=O)Nc1[nH]c2cc(Sc3ccccc3)ccc2n1
InChI: InChI=1S/C15H13N3O2S/c1-20-15(19)18-14-16-12-8-7-11(9-13(12)17-14)21-10-5-3-2-4-6-10/h2-9H,1H3,(H2,16,17,18,19)
Instrument: TripleTOF 5600 SCIEX
Instrument type: LC-ESI-QTOF
Ms type: MS2
Ion mode: POSITIVE
Collision energy: 90
Fragmentation mode: CID
Ionization: ESI
Column name: Zorbax Eclipse Plus C18 2.1 mm x 150 mm, 3.5 um, Agilent
Retention time: 9.947 min
Precursor m/z: 300.0801
Precursor type: [M+H]+
m/z	relative intensity
51.0292	20
52.0365	11
53.0322	14
64.0344	10
65.0422	49
68.9827	48
69.0108	14
75.0126	21
76.0216	237
77.0298	999
78.0362	101
79.0439	17
81.9899	11
90.035	20
91.0299	11
91.0423	20
92.0381	52
93.0456	15
93.9885	15
94.9958	46
102.0453	10
103.0297	48
103.0411	47
104.0377	937
105.0451	104
108.998	31
109.009	32
115.0536	35
116.0353	21
118.0518	20
119.0474	44
119.0606	10
119.9896	15
120.0548	13
120.998	25
122.0053	90
123.0131	16
126.0451	21
127.0536	83
128.0479	10
128.0605	17
130.0396	89
131.0471	371
134.9986	13
136.0082	33
139.0529	42
140.0485	32
145.0101	10
152.0484	14
153.0575	13
154.065	29
158.0342	18
159.0419	130
166.0651	16
170.0194	19
171.0256	193
172.0308	19
181.0749	12
186.0357	17
196.0208	39
198.037	20
211.0312	14
224.0394	28
