Mass spectrum: O-tolidine; LC-ESI-QTOF; MS2; 40 V
Name: O-tolidine
Formula: C14H16N2
Exact mass: 212.1313
SMILES: CC1=C(C=CC(=C1)C2=CC(=C(C=C2)N)C)N
InChI: InChI=1S/C14H16N2/c1-9-7-11(3-5-13(9)15)12-4-6-14(16)10(2)8-12/h3-8H,15-16H2,1-2H3
Instrument: TripleTOF 6600 SCIEX
Instrument type: LC-ESI-QTOF
Ms type: MS2
Ion mode: POSITIVE
Collision energy: 40
Fragmentation mode: CID
Ionization: ESI
Column name: Zorbax Eclipse Plus C18 2.1 mm x 150 mm, 3.5 um, Agilent
Retention time: 5.073 min
Precursor m/z: 213.1386
Precursor type: [M+H]+
m/z	relative intensity
106.0655	15
107.0743	13
129.0763	11
152.063	47
153.0697	59
156.0817	10
163.0525	11
164.065	20
165.0706	52
166.07	13
167.0759	10
169.0885	11
170.0971	13
178.0779	96
179.0861	33
180.083	999
181.0898	480
182.0943	38
183.0927	10
194.1034	16
195.099	38
196.1131	261
197.1076	199
198.1168	295
211.1284	15
212.1318	99
213.1383	108
