Mass spectrum: 9-Carboxymethoxymethylguanine; LC-ESI-QTOF; MS2; 80 V
Name: 9-Carboxymethoxymethylguanine
Class: Metabolite; Pharmaceutical
Formula: C8H9N5O4
Exact mass: 239.0655
SMILES: C1=NC2=C(N1COCC(=O)O)N=C(NC2=O)N
InChI: InChI=1S/C8H9N5O4/c9-8-11-6-5(7(16)12-8)10-2-13(6)3-17-1-4(14)15/h2H,1,3H2,(H,14,15)(H3,9,11,12,16)
Instrument: TripleTOF 5600 SCIEX
Instrument type: LC-ESI-QTOF
Ms type: MS2
Ion mode: NEGATIVE
Collision energy: 80
Fragmentation mode: CID
Ionization: ESI
Column name: Zorbax Eclipse Plus C18 2.1 mm x 150 mm, 3.5 um, Agilent
Retention time: 2.92 min
Precursor m/z: 238.0582
Precursor type: [M-H]-
m/z	relative intensity
65.9974	285
66.0091	999
80.022	142
