Mass spectrum: Methadone; LC-ESI-QTOF; MS2; 90 V
Name: Methadone
Class: Pharmaceutical
Formula: C21H27NO
Exact mass: 309.2093
SMILES: CCC(=O)C(CC(C)N(C)C)(C1=CC=CC=C1)C2=CC=CC=C2
InChI: InChI=1S/C21H27NO/c1-5-20(23)21(16-17(2)22(3)4,18-12-8-6-9-13-18)19-14-10-7-11-15-19/h6-15,17H,5,16H2,1-4H3
Instrument: TripleTOF 6600 SCIEX
Instrument type: LC-ESI-QTOF
Ms type: MS2
Ion mode: POSITIVE
Collision energy: 90
Fragmentation mode: CID
Ionization: ESI
Column name: Zorbax Eclipse Plus C18 2.1 mm x 150 mm, 3.5 um, Agilent
Retention time: 8.79 min
Precursor m/z: 310.2166
Precursor type: [M+H]+
m/z	relative intensity
39.0227	23
50.0147	25
51.0229	178
63.0224	10
65.0382	120
77.0383	999
79.054	19
89.0378	19
91.054	359
102.0459	16
103.0534	37
105.0356	51
115.054	257
116.0614	10
126.0458	11
127.0541	40
128.0617	115
129.0692	13
139.0536	20
141.0689	17
151.0533	20
152.0618	108
153.0697	9
163.0534	17
164.0619	48
165.0699	394
176.0617	22
177.0687	14
178.0776	66
189.0693	60
191.0853	14
200.0622	20
201.0688	43
202.0781	358
203.0851	55
215.0848	93
