Mass spectrum: 16alpha-hydroxyestrone; LC-ESI-QTOF; MS2; 50 V
Name: 16alpha-hydroxyestrone
Class: Pharmaceutical; Metabolite
Formula: C18H22O3
Exact mass: 286.1569
SMILES: C[C@]12CC[C@@H]3[C@H](CCc4cc(O)ccc34)[C@H]1C[C@@H](O)C2=O
InChI: InChI=1S/C18H22O3/c1-18-7-6-13-12-5-3-11(19)8-10(12)2-4-14(13)15(18)9-16(20)17(18)21/h3,5,8,13-16,19-20H,2,4,6-7,9H2,1H3/t13-,14-,15+,16+,18-/m0/s1
Instrument: TripleTOF 5600 SCIEX
Instrument type: LC-ESI-QTOF
Ms type: MS2
Ion mode: POSITIVE
Collision energy: 50
Fragmentation mode: CID
Ionization: ESI
Column name: Zorbax Eclipse Plus C18 2.1 mm x 150 mm, 3.5 um, Agilent
Retention time: 8.67 min
Precursor m/z: 287.1642
Precursor type: [M+H]+
m/z	relative intensity
43.0274	29
55.0228	12
55.0598	19
57.0399	27
65.043	16
67.0588	68
69.0742	10
77.0422	122
79.0577	138
81.0729	53
91.0566	181
93.0716	22
95.087	24
103.055	83
105.0713	464
107.0505	274
109.0652	21
115.0551	224
116.0626	80
117.07	50
119.0857	21
121.0654	45
127.055	132
128.0626	147
129.0706	153
131.0502	149
131.0841	123
132.0572	33
133.0656	960
141.0712	358
142.0773	15
143.0859	31
144.0581	514
145.0655	227
147.0803	49
151.0545	12
152.0627	65
153.0707	96
154.078	25
155.0856	41
157.0658	999
158.0732	86
159.0814	609
165.0706	181
166.0784	59
167.0863	109
169.0691	69
169.0994	16
170.0734	42
171.0815	168
171.1142	12
172.0891	33
173.0967	14
176.0631	23
177.0707	81
178.0784	113
179.0867	209
181.0659	205
181.0983	28
182.0731	159
183.0811	124
184.0889	105
185.0966	67
189.0702	17
190.0773	19
191.0864	46
193.1021	28
194.0732	152
195.0811	146
196.0895	96
197.0966	93
198.1044	20
199.1127	186
203.0869	19
205.1013	12
207.0809	67
208.089	48
209.0972	88
210.1035	13
211.1125	17
213.1277	26
219.0817	12
220.0893	14
221.0968	84
222.1056	32
223.113	19
235.1128	22
236.119	23
251.1436	11
