Mass spectrum: 5-Aminofluorescein; LC-ESI-QTOF; MS2; 90 V
Name: 5-Aminofluorescein
Class: Pharmaceutical
Formula: C20H13NO5
Exact mass: 347.0794
SMILES: Nc1ccc2c(c1)C(=O)OC23c4ccc(O)cc4Oc5cc(O)ccc35
InChI: InChI=1S/C20H13NO5/c21-10-1-4-14-13(7-10)19(24)26-20(14)15-5-2-11(22)8-17(15)25-18-9-12(23)3-6-16(18)20/h1-9,22-23H,21H2
Instrument: TripleTOF 5600 SCIEX
Instrument type: LC-ESI-QTOF
Ms type: MS2
Ion mode: NEGATIVE
Collision energy: 90
Fragmentation mode: CID
Ionization: ESI
Column name: Zorbax Eclipse Plus C18 2.1 mm x 150 mm, 3.5 um, Agilent
Retention time: 8.159 min
Precursor m/z: 346.0721
Precursor type: [M-H]-
m/z	relative intensity
41.0028	356
190.0652	142
203.0566	71
214.0699	142
215.0495	71
216.0656	356
218.0564	214
228.0568	214
229.0487	214
242.0587	356
243.0491	71
243.0695	142
244.0576	142
256.0664	285
258.0595	71
270.0569	356
272.0512	999
283.0331	71
299.0619	285
300.0688	356
