Mass spectrum: Fluazifop; LC-ESI-QTOF; MS2; 110 V
Name: Fluazifop
Class: Herbicide; Transformation_product
Formula: C15H12F3NO4
Exact mass: 327.0718
SMILES: CC(C(=O)O)Oc1ccc(cc1)Oc2ccc(cn2)C(F)(F)F
InChI: InChI=1S/C15H12F3NO4/c1-9(14(20)21)22-11-3-5-12(6-4-11)23-13-7-2-10(8-19-13)15(16,17)18/h2-9H,1H3,(H,20,21)
Instrument: TripleTOF 6600 SCIEX
Instrument type: LC-ESI-QTOF
Ms type: MS2
Ion mode: NEGATIVE
Collision energy: 110
Fragmentation mode: CID
Ionization: ESI
Column name: Zorbax Eclipse Plus C18 2.1 mm x 150 mm, 3.5 um, Agilent
Retention time: 11.668 min
Precursor m/z: 326.0646
Precursor type: [M-H]-
m/z	relative intensity
41.002	111
49.0075	148
50.0025	185
66.9973	999
73.0093	92
74.0024	758
78.9984	129
86.0008	92
87.003	111
88.0162	92
94.9922	296
97.0073	111
98.0023	92
108.0206	351
111.0111	148
112.0176	129
114.9993	259
138.0331	111
142.0104	92
