Mass spectrum: Propyzamid; LC-ESI-QTOF; MS2; 90 V
Name: Propyzamid
Class: Herbicide
Formula: C12H11Cl2NO
Exact mass: 255.0218
SMILES: CC(C)(C#C)NC(=O)c1cc(cc(c1)Cl)Cl
InChI: InChI=1S/C12H11Cl2NO/c1-4-12(2,3)15-11(16)8-5-9(13)7-10(14)6-8/h1,5-7H,2-3H3,(H,15,16)
Instrument: TripleTOF 6600 SCIEX
Instrument type: LC-ESI-QTOF
Ms type: MS2
Ion mode: POSITIVE
Collision energy: 90
Fragmentation mode: CID
Ionization: ESI
Column name: Zorbax Eclipse Plus C18 2.1 mm x 150 mm, 3.5 um, Agilent
Retention time: 12.435 min
Precursor m/z: 256.0291
Precursor type: [M+H]+
m/z	relative intensity
35.9999	12
37.008	47
38.0157	57
39.0233	255
41.0388	82
44.0133	223
49.0081	15
50.0154	82
51.0231	76
65.0391	22
73.0073	57
74.0152	999
75.0231	143
83.9758	19
84.9841	38
108.9842	430
109.9917	38
144.9615	28
172.9661	19
