Mass spectrum: 2-Phenyl-1H-benzimidazol-4-amine; LC-ESI-QTOF; MS2; 90 V
Name: 2-Phenyl-1H-benzimidazol-4-amine
Class: Pharmaceutical
Formula: C13H11N3
Exact mass: 209.0953
SMILES: C1=CC=C(C=C1)C2=NC3=C(N2)C=CC=C3N
InChI: InChI=1S/C13H11N3/c14-10-7-4-8-11-12(10)16-13(15-11)9-5-2-1-3-6-9/h1-8H,14H2,(H,15,16)
Instrument: TripleTOF 5600 SCIEX
Instrument type: LC-ESI-QTOF
Ms type: MS2
Ion mode: POSITIVE
Collision energy: 90
Fragmentation mode: CID
Ionization: ESI
Column name: Zorbax Eclipse Plus C18 2.1 mm x 150 mm, 3.5 um, Agilent
Retention time: 5.276 min
Precursor m/z: 210.1026
Precursor type: [M+H]+
m/z	relative intensity
41.0366	16
52.0287	33
54.0422	63
65.0358	13
65.0428	13
74.0214	23
75.0266	23
76.0228	16
77.0435	318
78.0397	175
79.0455	56
80.0544	999
86.0212	23
87.0256	46
88.0224	19
89.0431	139
90.0383	36
104.0536	39
105.0467	149
106.0555	26
111.0295	13
113.0407	66
114.0328	26
115.0529	29
127.0585	26
128.0599	19
137.0401	43
138.0454	19
139.056	56
140.0507	56
164.0494	59
