Mass spectrum: 3-Phenylpyridine; LC-ESI-QTOF; MS2; 40 V
Name: 3-Phenylpyridine
Formula: C11H9N
Exact mass: 155.0735
SMILES: C1=CC=C(C=C1)C2=CN=CC=C2
InChI: InChI=1S/C11H9N/c1-2-5-10(6-3-1)11-7-4-8-12-9-11/h1-9H
Instrument: TripleTOF X500R SCIEX
Instrument type: LC-ESI-QTOF
Ms type: MS2
Ion mode: POSITIVE
Collision energy: 40
Fragmentation mode: CID
Ionization: ESI
Column name: Zorbax Eclipse Plus C18 2.1 mm x 150 mm, 3.5 um, Agilent
Retention time: 5.684 min
Precursor m/z: 156.0808
Precursor type: [M+H]+
m/z	relative intensity
50.0154	18
51.0231	118
53.0387	21
77.0384	106
78.034	330
79.0422	18
101.0399	24
102.0469	75
103.0545	33
104.0498	102
115.055	24
116.0498	21
117.058	42
126.047	58
127.0545	435
128.062	999
129.0699	158
130.0656	28
141.0583	14
153.0573	10
154.0654	236
155.0722	87
156.0806	656
