Mass spectrum: Crotamiton; LC-ESI-QTOF; MS2; 40 V
Name: Crotamiton
Formula: C13H17NO
Exact mass: 203.131
SMILES: CCN(C1=CC=CC=C1C)C(=O)C=CC
InChI: InChI=1S/C13H17NO/c1-4-8-13(15)14(5-2)12-10-7-6-9-11(12)3/h4,6-10H,5H2,1-3H3
Instrument: TripleTOF 6600 SCIEX
Instrument type: LC-ESI-QTOF
Ms type: MS2
Ion mode: POSITIVE
Collision energy: 40
Fragmentation mode: CID
Ionization: ESI
Column name: Zorbax Eclipse Plus C18 2.1 mm x 150 mm, 3.5 um, Agilent
Retention time: 11.073 min
Precursor m/z: 204.1383
Precursor type: [M+H]+
m/z	relative intensity
37.007	11
38.0149	10
39.0233	131
41.0389	285
65.0383	28
68.0492	131
69.0337	999
77.038	27
79.0538	28
91.0539	326
93.057	122
105.0681	10
106.0651	453
107.0728	142
108.0807	148
116.0492	31
117.0579	25
118.0644	21
119.072	23
120.0805	14
121.088	146
130.0649	20
132.0434	18
132.0801	11
134.0605	85
134.0955	91
136.1117	127
143.0724	30
146.0597	10
158.0954	27
