Mass spectrum: Caffeine; LC-ESI-QTOF; MS2; 130 V
Name: Caffeine
Class: Food_additive; Natural_product; Personal_care_product
Formula: C8H10N4O2
Exact mass: 194.0804
SMILES: Cn1cnc2N(C)C(=O)N(C)C(=O)c12
InChI: InChI=1S/C8H10N4O2/c1-10-4-9-6-5(10)7(13)12(3)8(14)11(6)2/h4H,1-3H3
Instrument: TripleTOF 5600 SCIEX
Instrument type: LC-ESI-QTOF
Ms type: MS2
Ion mode: POSITIVE
Collision energy: 130
Fragmentation mode: CID
Ionization: ESI
Column name: Zorbax Eclipse Plus C18 2.1 mm x 150 mm, 3.5 um, Agilent
Retention time: 5.509 min
Precursor m/z: 195.0877
Precursor type: [M+H]+
m/z	relative intensity
40.0287	155
41.0357	111
42.044	333
53.02	999
