Mass spectrum: 4-Chlorobenzoic acid; LC-ESI-QTOF; MS2; 130 V
Name: 4-Chlorobenzoic acid
Class: Transformation_product; Antimicrobial
Formula: C7H5ClO2
Exact mass: 155.9978
SMILES: OC(=O)c1ccc(Cl)cc1
InChI: InChI=1S/C7H5ClO2/c8-6-3-1-5(2-4-6)7(9)10/h1-4H,(H,9,10)
Instrument: TripleTOF 5600 SCIEX
Instrument type: LC-ESI-QTOF
Ms type: MS2
Ion mode: NEGATIVE
Collision energy: 130
Fragmentation mode: CID
Ionization: ESI
Column name: Zorbax Eclipse Plus C18 2.1 mm x 150 mm, 3.5 um, Agilent
Retention time: 9.413 min
Precursor m/z: 154.9905
Precursor type: [M-H]-
m/z	relative intensity
34.9731	999
