Mass spectrum: o-Aminoazotoluene; LC-ESI-QTOF; MS2; 40 V
Name: o-Aminoazotoluene
Formula: C14H15N3
Exact mass: 225.1266
SMILES: CC1=CC=CC=C1N=NC2=CC(=C(C=C2)N)C
InChI: InChI=1S/C14H15N3/c1-10-5-3-4-6-14(10)17-16-12-7-8-13(15)11(2)9-12/h3-9H,15H2,1-2H3
Instrument: TripleTOF X500R SCIEX
Instrument type: LC-ESI-QTOF
Ms type: MS2
Ion mode: POSITIVE
Collision energy: 40
Fragmentation mode: CID
Ionization: ESI
Column name: Zorbax Eclipse Plus C18 2.1 mm x 150 mm, 3.5 um, Agilent
Retention time: 13.733 min
Precursor m/z: 226.1339
Precursor type: [M+H]+
m/z	relative intensity
39.0225	15
65.0385	185
77.039	66
78.0341	10
79.0541	94
89.0387	220
90.0463	127
91.0541	976
92.0493	20
93.0574	25
94.0653	142
104.0499	31
105.0456	18
106.0651	626
107.0728	999
118.0528	29
119.06	58
120.0807	52
121.0758	507
133.0763	40
165.0702	46
166.0675	12
167.0727	64
168.0702	21
180.0806	19
182.0934	22
192.0763	18
193.0764	67
194.0841	58
195.0908	15
196.0884	10
207.0921	19
208.0995	17
209.1061	34
210.1024	36
224.1195	15
