Mass spectrum: Bromacil; LC-ESI-QTOF; MS2; 50 V
Name: Bromacil
Class: Herbicide
Formula: C9H13BrN2O2
Exact mass: 260.016
SMILES: CCC(C)N1C(=O)C(=C(NC1=O)C)Br
InChI: InChI=1S/C9H13BrN2O2/c1-4-5(2)12-8(13)7(10)6(3)11-9(12)14/h5H,4H2,1-3H3,(H,11,14)
Instrument: TripleTOF 6600 SCIEX
Instrument type: LC-ESI-QTOF
Ms type: MS2
Ion mode: POSITIVE
Collision energy: 50
Fragmentation mode: CID
Ionization: ESI
Column name: Zorbax Eclipse Plus C18 2.1 mm x 150 mm, 3.5 um, Agilent
Retention time: 8.493 min
Precursor m/z: 261.0233
Precursor type: [M+H]+
m/z	relative intensity
44.0118	27
52.0163	55
54.0322	280
55.0395	50
69.0066	50
69.0429	32
69.9903	55
83.0345	69
92.931	59
97.0391	18
98.0447	36
104.9311	96
105.9251	32
106.91	32
106.9461	110
118.9459	23
131.9419	999
133.9575	124
143.9415	46
161.9522	441
186.9471	174
187.9315	626
204.9581	313
