Mass spectrum: Olmesartan-d6; LC-ESI-QTOF; MS2; 100 V
Name: Olmesartan-d6
Class: Surrogate_standard
Formula: C24H20N6O3 2H6
Exact mass: 452.2443
SMILES: [2H]C([2H])([2H])C(C1=C(N(C(=N1)CCC)CC2=CC=C(C=C2)C3=CC=CC=C3C4=NNN=N4)C(=O)O)(C([2H])([2H])[2H])O
InChI: InChI=1S/C24H26N6O3/c1-4-7-19-25-21(24(2,3)33)20(23(31)32)30(19)14-15-10-12-16(13-11-15)17-8-5-6-9-18(17)22-26-28-29-27-22/h5-6,8-13,33H,4,7,14H2,1-3H3,(H,31,32)(H,26,27,28,29)/i2D3,3D3
Instrument: TripleTOF 5600 SCIEX
Instrument type: LC-ESI-QTOF
Ms type: CID
Ion mode: POSITIVE
Collision energy: 100
Ionization: ESI
Column name: Zorbax Eclipse Plus C18 2.1 mm x 150 mm, 3.5 um, Agilent
Retention time: 7.306 min
Precursor m/z: 453.2527
Precursor type: [M+H]+
m/z	relative intensity
77.042	37
89.0418	12
102.035	10
113.0399	24
114.0467	15
115.057	39
116.053	11
125.0389	12
126.0473	22
127.0554	86
128.0616	51
137.0378	16
138.0466	34
139.0542	57
140.0501	146
141.0599	25
150.0467	88
151.0543	344
152.0621	864
153.0684	230
154.0666	36
162.047	24
163.0546	299
164.0569	286
165.0663	228
166.0671	49
167.0712	23
168.0682	18
176.0611	160
177.0668	262
178.0741	562
179.0733	163
180.081	138
181.0848	24
183.1393	18
188.0474	50
189.0575	105
190.0652	999
191.0708	213
192.0691	129
193.0745	15
205.0762	483
206.0815	117
207.09	14
