Mass spectrum: Dimethomorph; LC-ESI-QTOF; MS2; 70 V
Name: Dimethomorph
Class: Fungicide
Formula: C21H22ClNO4
Exact mass: 387.1237
SMILES: COc1ccc(cc1OC)/C(=C\C(=O)N2CCOCC2)/c3ccc(cc3)Cl
InChI: InChI=1S/C21H22ClNO4/c1-25-19-8-5-16(13-20(19)26-2)18(15-3-6-17(22)7-4-15)14-21(24)23-9-11-27-12-10-23/h3-8,13-14H,9-12H2,1-2H3/b18-14-
Instrument: TripleTOF 5600 SCIEX
Instrument type: LC-ESI-QTOF
Ms type: MS2
Ion mode: POSITIVE
Collision energy: 70
Fragmentation mode: CID
Ionization: ESI
Column name: Zorbax Eclipse Plus C18 2.1 mm x 150 mm, 3.5 um, Agilent
Retention time: 11.552 min
Precursor m/z: 388.131
Precursor type: [M+H]+
m/z	relative intensity
42.0419	30
65.0445	17
66.0501	52
70.0325	150
75.0263	40
77.042	252
79.0572	112
81.0723	16
89.0398	50
90.0487	14
92.0269	22
93.0355	11
94.0425	123
99.0002	18
102.0465	17
105.0345	20
107.0135	17
107.0481	12
109.0661	67
111.0002	386
114.0539	12
121.029	108
122.0363	238
125.0155	307
131.0488	13
137.0152	18
137.0601	248
138.995	385
141.0713	9
149.0166	19
150.0317	17
151.0543	82
152.0626	714
162.9941	27
163.0545	64
164.0618	131
165.0631	999
166.0785	169
167.0857	197
176.0625	169
177.0696	192
178.0775	237
179.0544	11
179.0844	49
180.0562	115
181.0661	17
186.0232	9
187.0313	162
192.0563	49
193.0657	52
194.0738	105
195.08	230
198.023	16
199.0312	663
201.0465	48
205.0647	54
206.0717	16
207.0803	41
208.0522	24
208.089	12
211.0323	19
212.0386	139
213.0463	20
215.0262	437
221.0596	17
222.0671	20
223.0751	161
226.0204	25
227.0259	714
228.034	125
229.0416	73
230.0521	16
235.0753	52
238.0978	52
239.0254	34
240.0356	16
241.0409	84
242.0494	353
243.021	416
243.0587	11
257.0371	60
258.0445	102
269.0357	13
273.0744	9
