Mass spectrum: Propyphenazone; LC-ESI-QTOF; MS2; 100 V
Name: Propyphenazone
Class: Pharmaceutical
Formula: C14H18N2O
Exact mass: 230.1419
SMILES: CC1=C(C(=O)N(N1C)C2=CC=CC=C2)C(C)C
InChI: InChI=1S/C14H18N2O/c1-10(2)13-11(3)15(4)16(14(13)17)12-8-6-5-7-9-12/h5-10H,1-4H3
Instrument: TripleTOF 5600 SCIEX
Instrument type: LC-ESI-QTOF
Ms type: MS2
Ion mode: POSITIVE
Collision energy: 100
Fragmentation mode: CID
Ionization: ESI
Column name: Zorbax Eclipse Plus C18 2.1 mm x 150 mm, 3.5 um, Agilent
Retention time: 9.545 min
Precursor m/z: 231.1492
Precursor type: [M+H]+
m/z	relative intensity
37.0072	45
38.0158	40
39.0227	176
41.026	85
41.0386	65
42.034	121
49.0075	25
50.0155	216
51.0232	999
52.0188	35
53.0387	131
54.0338	30
55.0546	40
56.0497	938
63.0236	50
65.0387	317
66.046	35
67.0167	25
67.0419	307
67.0536	35
75.0236	40
77.0387	898
78.0331	30
78.0456	35
79.0397	25
79.0551	30
80.0496	418
81.0581	70
82.0651	171
89.0383	181
90.047	30
91.0538	70
92.0504	35
93.0575	20
94.0662	111
96.0812	30
102.0476	30
103.0553	45
104.0509	40
115.0539	131
117.0575	30
127.0545	20
128.0471	30
130.0671	60
