Mass spectrum: Betaxolol; LC-ESI-QTOF; MS2; 90 V
Name: Betaxolol
Class: Pharmaceutical
Formula: C18H29NO3
Exact mass: 307.2147
SMILES: CC(C)NCC(COC1=CC=C(C=C1)CCOCC2CC2)O
InChI: InChI=1S/C18H29NO3/c1-14(2)19-11-17(20)13-22-18-7-5-15(6-8-18)9-10-21-12-16-3-4-16/h5-8,14,16-17,19-20H,3-4,9-13H2,1-2H3
Instrument: TripleTOF 5600 SCIEX
Instrument type: LC-ESI-QTOF
Ms type: MS2
Ion mode: POSITIVE
Collision energy: 90
Fragmentation mode: CID
Ionization: ESI
Column name: Zorbax Eclipse Plus C18 2.1 mm x 150 mm, 3.5 um, Agilent
Retention time: 7.064 min
Precursor m/z: 308.222
Precursor type: [M+H]+
m/z	relative intensity
42.0473	13
44.0634	21
56.0589	243
58.0731	105
65.0463	140
72.087	58
74.0654	66
77.0445	999
78.0517	63
79.0594	145
84.0864	26
89.0421	55
91.0581	515
93.0731	23
100.1126	13
102.0503	60
103.0572	259
104.0647	34
105.0723	52
107.0493	34
115.0564	510
116.0633	52
117.0734	31
121.0639	29
126.0492	10
127.0552	108
128.0639	240
129.0718	34
131.0515	37
133.0629	13
139.0508	15
141.071	89
144.0599	13
145.0612	10
152.0615	15
157.0634	15
165.0766	10
