Mass spectrum: Tolnaftate; LC-ESI-QTOF; MS2; 80 V
Name: Tolnaftate
Class: Fungicide; Pharmaceutical
Formula: C19H17NOS
Exact mass: 307.1031
SMILES: CC1=CC(=CC=C1)N(C)C(=S)OC2=CC3=CC=CC=C3C=C2
InChI: InChI=1S/C19H17NOS/c1-14-6-5-9-17(12-14)20(2)19(22)21-18-11-10-15-7-3-4-8-16(15)13-18/h3-13H,1-2H3
Instrument: TripleTOF 5600 SCIEX
Instrument type: LC-ESI-QTOF
Ms type: MS2
Ion mode: POSITIVE
Collision energy: 80
Fragmentation mode: CID
Ionization: ESI
Column name: Zorbax Eclipse Plus C18 2.1 mm x 150 mm, 3.5 um, Agilent
Retention time: 15.53 min
Precursor m/z: 308.1104
Precursor type: [M+H]+
m/z	relative intensity
39.0226	23
44.9793	32
51.0243	14
65.0386	499
77.0388	166
79.0547	81
91.0542	999
92.0616	37
93.0693	29
97.0105	11
104.0492	37
105.0584	14
115.0549	40
117.0573	35
120.0808	96
121.0084	11
123.0268	73
127.0544	17
132.0442	14
133.0545	17
136.0227	20
148.0201	29
149.0302	119
