Mass spectrum: Tetraconazole; LC-ESI-QTOF; MS2; 150 V
Name: Tetraconazole
Class: Fungicide
Formula: C13H11Cl2F4N3O
Exact mass: 371.0215
SMILES: C1=CC(=C(C=C1Cl)Cl)C(CN2C=NC=N2)COC(C(F)F)(F)F
InChI: InChI=1S/C13H11Cl2F4N3O/c14-9-1-2-10(11(15)3-9)8(4-22-7-20-6-21-22)5-23-13(18,19)12(16)17/h1-3,6-8,12H,4-5H2
Instrument: TripleTOF 6600 SCIEX
Instrument type: LC-ESI-QTOF
Ms type: MS2
Ion mode: POSITIVE
Collision energy: 150
Fragmentation mode: CID
Ionization: ESI
Column name: Zorbax Eclipse Plus C18 2.1 mm x 150 mm, 3.5 um, Agilent
Retention time: 12.382 min
Precursor m/z: 372.0288
Precursor type: [M+H]+
m/z	relative intensity
37.0076	36
38.0153	39
39.0231	99
42.0212	17
43.0292	168
46.9683	103
48.9839	94
50.0152	24
51.0042	255
57.0139	17
60.0003	35
61.0074	215
62.0154	586
63.0233	911
65.0385	35
70.04	148
71.9764	21
72.9842	738
74.015	76
75.0224	50
82.9446	91
85.0073	22
86.015	71
87.0228	84
88.0308	103
89.0388	999
96.9838	143
98.9995	70
102.0466	11
106.9446	29
107.0283	23
113.0379	29
114.0459	13
115.0545	102
122.9995	67
132.9622	24
133.0449	11
