Mass spectrum: Metazachlor ESA; LC-ESI-QTOF; MS2; 80 V
Name: Metazachlor ESA
Class: Transformation_product; Herbicide; Metabolite
Formula: C14H17N3O4S
Exact mass: 323.094
InChI: InChI=1S/C14H17N3O4S/c1-11-5-3-6-12(2)14(11)17(10-16-8-4-7-15-16)13(18)9-22(19,20)21/h3-8H,9-10H2,1-2H3,(H,19,20,21)
Instrument: TripleTOF 6600 SCIEX
Instrument type: LC-ESI-QTOF
Ms type: CID
Ion mode: NEGATIVE
Collision energy: 80
Ionization: ESI
Column name: Zorbax Eclipse Plus C18 2.1 mm x 150 mm, 3.5 um, Agilent
Retention time: 6.639 min
Precursor m/z: 322.0867
Precursor type: [M-H]-
m/z	relative intensity
41.0035	30
47.9672	85
63.9623	42
65.014	42
67.03	633
76.9697	286
79.9569	999
93.9725	170
130.0659	127
