Mass spectrum: Mirtazapine; LC-ESI-QTOF; MS2; 40 V
Name: Mirtazapine
Class: Pharmaceutical
Formula: C17H19N3
Exact mass: 265.1579
SMILES: CN1CCN2C(C1)C3=CC=CC=C3CC4=C2N=CC=C4
InChI: InChI=1S/C17H19N3/c1-19-9-10-20-16(12-19)15-7-3-2-5-13(15)11-14-6-4-8-18-17(14)20/h2-8,16H,9-12H2,1H3
Instrument: TripleTOF 5600 SCIEX
Instrument type: LC-ESI-QTOF
Ms type: MS2
Ion mode: POSITIVE
Collision energy: 40
Fragmentation mode: CID
Ionization: ESI
Column name: Zorbax Eclipse Plus C18 2.1 mm x 150 mm, 3.5 um, Agilent
Retention time: 5.459 min
Precursor m/z: 266.1652
Precursor type: [M+H]+
m/z	relative intensity
65.045	12
70.0706	14
72.0866	167
91.0583	12
92.0526	46
105.0718	10
115.0552	38
116.0506	11
117.0464	22
130.0659	14
131.0705	16
141.0698	10
144.0808	14
151.054	20
166.0671	10
167.0741	63
168.0805	49
178.0655	48
179.073	35
180.0812	55
181.0806	10
182.0958	23
192.0817	15
193.0768	31
194.084	289
195.0915	999
206.0861	11
207.092	25
209.1071	134
218.0896	16
219.0925	33
223.1238	26
235.1221	35
264.1503	12
266.1648	93
