Mass spectrum: Prallethrin; LC-ESI-QTOF; MS2; 90 V
Name: Prallethrin
Class: Insecticide
Formula: C19H24O3
Exact mass: 300.1725
SMILES: CC1=C(C(=O)CC1OC(=O)C2C(C2(C)C)C=C(C)C)CC#C
InChI: InChI=1S/C19H24O3/c1-7-8-13-12(4)16(10-15(13)20)22-18(21)17-14(9-11(2)3)19(17,5)6/h1,9,14,16-17H,8,10H2,2-6H3
Instrument: TripleTOF 6600 SCIEX
Instrument type: LC-ESI-QTOF
Ms type: MS2
Ion mode: POSITIVE
Collision energy: 90
Fragmentation mode: CID
Ionization: ESI
Column name: Zorbax Eclipse Plus C18 2.1 mm x 150 mm, 3.5 um, Agilent
Retention time: 14.861 min
Precursor m/z: 301.1798
Precursor type: [M+H]+
m/z	relative intensity
37.0078	18
38.0157	11
39.0234	100
41.0393	70
43.0184	21
43.0542	13
49.0078	21
50.0155	122
51.0235	470
53.039	47
55.0549	25
59.0488	11
63.023	21
65.0393	87
66.0471	16
67.0551	18
77.0393	999
78.0466	23
79.0548	147
81.0709	20
89.0388	60
91.0544	50
93.0689	13
102.0457	13
103.0551	58
105.0455	31
105.071	11
115.0543	53
128.0613	13
