Mass spectrum: Naproxen; LC-ESI-QTOF; MS2; 40 V
Name: Naproxen
Class: Pharmaceutical
Formula: C14H14O3
Exact mass: 230.0943
SMILES: COc1ccc2cc(ccc2c1)C(C)C(O)=O
InChI: InChI=1S/C14H14O3/c1-9(14(15)16)10-3-4-12-8-13(17-2)6-5-11(12)7-10/h3-9H,1-2H3,(H,15,16)
Instrument: TripleTOF 5600 SCIEX
Instrument type: LC-ESI-QTOF
Ms type: MS2
Ion mode: POSITIVE
Collision energy: 40
Fragmentation mode: CID
Ionization: ESI
Column name: Zorbax Eclipse Plus C18 2.1 mm x 150 mm, 3.5 um, Agilent
Retention time: 10.907 min
Precursor m/z: 231.1016
Precursor type: [M+H]+
m/z	relative intensity
77.0407	27
115.0537	203
127.0548	38
128.0614	62
129.0687	62
141.0691	216
142.0415	11
142.0769	185
143.0473	34
144.0546	14
151.0523	16
152.0616	238
153.0692	541
154.0769	372
155.0488	47
155.0847	167
156.0559	36
157.0655	22
158.0716	146
169.0637	236
170.0722	999
184.0885	42
185.0956	325
