Mass spectrum: Cyclophosphamide; LC-ESI-QTOF; MS2; 80 V
Name: Cyclophosphamide
Class: Pharmaceutical
Formula: C7H15Cl2N2O2P
Exact mass: 260.0248
InChI: InChI=1S/C7H15Cl2N2O2P/c8-2-5-11(6-3-9)14(12)10-4-1-7-13-14/h1-7H2,(H,10,12)
Instrument: TripleTOF 5600 SCIEX
Instrument type: LC-ESI-QTOF
Ms type: CID
Ion mode: POSITIVE
Collision energy: 80
Ionization: ESI
Column name: Zorbax Eclipse Plus C18 2.1 mm x 150 mm, 3.5 um, Agilent
Retention time: 7.465 min
Precursor m/z: 261.0321
Precursor type: [M+H]+
m/z	relative intensity
42.0454	155
43.0573	80
44.0631	54
54.0445	60
56.0588	371
57.066	40
58.0759	101
62.9738	33
63.0076	999
64.9891	155
78.0164	101
78.999	40
79.9941	94
91.9927	290
94.0094	80
97.9596	54
98.9427	67
