Mass spectrum: Dibenzyl phosphate; LC-ESI-QTOF; MS2; 150 V
Name: Dibenzyl phosphate
Class: Pharmaceutical
Formula: C14H15O4P
Exact mass: 278.0708
SMILES: C1=CC=C(C=C1)COP(=O)(O)OCC2=CC=CC=C2
InChI: InChI=1S/C14H15O4P/c15-19(16,17-11-13-7-3-1-4-8-13)18-12-14-9-5-2-6-10-14/h1-10H,11-12H2,(H,15,16)
Instrument: TripleTOF 5600 SCIEX
Instrument type: LC-ESI-QTOF
Ms type: MS2
Ion mode: NEGATIVE
Collision energy: 150
Fragmentation mode: CID
Ionization: ESI
Column name: Zorbax Eclipse Plus C18 2.1 mm x 150 mm, 3.5 um, Agilent
Retention time: 9.053 min
Precursor m/z: 277.0635
Precursor type: [M-H]-
m/z	relative intensity
62.9636	375
78.9585	999
