Mass spectrum: N-[2-[(2-Bromo-4,6-dinitrophenyl)azo]-5-(diethylamino)phenyl]acetamide; LC-ESI-QTOF; MS2; 90 V
Name: N-[2-[(2-Bromo-4,6-dinitrophenyl)azo]-5-(diethylamino)phenyl]acetamide
Formula: C18H19BrN6O5
Exact mass: 478.06
SMILES: CCN(CC)C1=CC(=C(C=C1)N=NC2=C(C=C(C=C2Br)[N+](=O)[O-])[N+](=O)[O-])NC(=O)C
InChI: InChI=1S/C18H19BrN6O5/c1-4-23(5-2)12-6-7-15(16(9-12)20-11(3)26)21-22-18-14(19)8-13(24(27)28)10-17(18)25(29)30/h6-10H,4-5H2,1-3H3,(H,20,26)
Instrument: TripleTOF 6600 SCIEX
Instrument type: LC-ESI-QTOF
Ms type: MS2
Ion mode: POSITIVE
Collision energy: 90
Fragmentation mode: CID
Ionization: ESI
Column name: Zorbax Eclipse Plus C18 2.1 mm x 150 mm, 3.5 um, Agilent
Retention time: 16.579 min
Precursor m/z: 479.0673
Precursor type: [M+H]+
m/z	relative intensity
42.0333	14
43.0171	48
65.0378	19
66.0465	10
69.0436	12
77.0365	53
78.0329	19
79.0277	19
79.0407	28
79.0519	12
80.0488	278
82.063	10
91.0518	21
92.0483	91
93.0431	16
93.0562	440
94.0638	120
95.0581	17
104.0492	28
105.0433	86
106.0628	64
107.0354	102
107.0594	194
108.043	98
108.079	55
109.0746	70
117.0445	28
117.0557	19
118.0615	43
119.0584	138
120.0557	97
120.0679	68
121.0534	16
121.0748	999
122.0584	25
122.0935	14
123.0934	17
125.0337	10
127.0506	14
128.9317	12
131.0614	39
132.0413	12
132.0803	16
133.0597	228
134.0701	429
135.0898	91
136.0732	55
139.0533	43
140.0473	19
145.0754	34
146.0699	95
147.0545	158
147.0767	93
148.0619	353
148.086	70
148.1006	17
149.068	12
149.1049	136
150.0904	12
154.0618	10
161.0708	95
162.0757	46
162.1001	80
163.0853	307
163.1217	21
164.0501	16
165.0557	28
166.0613	48
167.0669	32
175.0728	30
176.0776	10
177.0996	39
179.0575	30
180.0672	12
190.0599	10
191.1161	246
192.0639	19
193.0736	80
194.0705	111
195.0711	17
206.0683	55
207.0856	16
208.0746	12
220.0819	14
221.0769	43
221.0914	16
222.0657	21
222.0901	17
234.0856	10
235.0994	14
237.1092	25
243.9685	12
244.9861	10
245.9749	14
250.1327	10
256.9718	14
265.1445	89
271.9936	25
272.9859	30
283.9818	19
284.9855	26
299.996	21
300.9833	26
301.019	14
328.049	14
