Mass spectrum: Fenarimol; LC-ESI-QTOF; MS2; 120 V
Name: Fenarimol
Class: Fungicide
Formula: C17H12Cl2N2O
Exact mass: 330.0327
SMILES: C1=CC=C(C(=C1)C(C2=CC=C(C=C2)Cl)(C3=CN=CN=C3)O)Cl
InChI: InChI=1S/C17H12Cl2N2O/c18-14-7-5-12(6-8-14)17(22,13-9-20-11-21-10-13)15-3-1-2-4-16(15)19/h1-11,22H
Instrument: TripleTOF 6600 SCIEX
Instrument type: LC-ESI-QTOF
Ms type: MS2
Ion mode: POSITIVE
Collision energy: 120
Fragmentation mode: CID
Ionization: ESI
Column name: Zorbax Eclipse Plus C18 2.1 mm x 150 mm, 3.5 um, Agilent
Retention time: 11.9 min
Precursor m/z: 331.04
Precursor type: [M+H]+
m/z	relative intensity
49.0071	19
50.0146	123
51.0224	99
52.018	38
54.0334	109
62.0154	23
63.0221	47
73.007	52
74.0148	780
75.0229	999
76.0294	42
77.0388	66
81.0445	23
84.9836	95
87.0225	33
89.0376	57
98.0135	28
102.0462	33
110.0156	19
110.9993	166
113.038	42
115.0533	47
126.0453	38
137.0382	23
139.0045	61
139.0534	47
149.0376	28
150.0456	152
151.0536	90
152.0623	33
161.0381	90
162.0462	152
163.0544	237
164.053	38
174.0442	42
175.0537	33
176.0623	118
185.0379	95
186.0469	171
187.0546	794
188.0618	133
189.0697	42
202.0647	28
203.0704	19
212.0495	33
213.0587	23
214.0646	47
