Mass spectrum: Propranolol; LC-ESI-QTOF; MS2; 40 V
Name: Propranolol
Class: Pharmaceutical
Formula: C16H21NO2
Exact mass: 259.1572
SMILES: CC(C)NCC(O)COc1cccc2ccccc12
InChI: InChI=1S/C16H21NO2/c1-12(2)17-10-14(18)11-19-16-9-5-7-13-6-3-4-8-15(13)16/h3-9,12,14,17-18H,10-11H2,1-2H3
Instrument: TripleTOF 5600 SCIEX
Instrument type: LC-ESI-QTOF
Ms type: MS2
Ion mode: POSITIVE
Collision energy: 40
Fragmentation mode: CID
Ionization: ESI
Column name: Zorbax Eclipse Plus C18 2.1 mm x 150 mm, 3.5 um, Agilent
Retention time: 7.356 min
Precursor m/z: 260.1645
Precursor type: [M+H]+
m/z	relative intensity
44.0586	20
56.0564	612
58.0719	361
72.0855	391
74.0645	500
77.0404	23
84.0838	44
91.0561	17
98.0982	145
100.1137	167
115.0555	176
116.1082	338
117.0705	48
127.0556	324
128.0632	202
129.0714	609
141.0711	141
143.0512	35
144.0575	19
145.0661	135
152.0636	33
153.0713	403
154.0792	145
155.0587	13
155.0871	999
157.066	461
165.0713	417
168.0582	112
171.0826	20
181.0656	26
182.0738	22
183.0821	231
