Mass spectrum: Clozapine; LC-ESI-QTOF; MS2; 140 V
Name: Clozapine
Class: Pharmaceutical
Formula: C18H19ClN4
Exact mass: 326.1298
SMILES: CN1CCN(CC1)C2=NC3=C(C=CC(=C3)Cl)NC4=CC=CC=C42
InChI: InChI=1S/C18H19ClN4/c1-22-8-10-23(11-9-22)18-14-4-2-3-5-15(14)20-16-7-6-13(19)12-17(16)21-18/h2-7,12,20H,8-11H2,1H3
Instrument: TripleTOF 6600 SCIEX
Instrument type: LC-ESI-QTOF
Ms type: MS2
Ion mode: POSITIVE
Collision energy: 140
Fragmentation mode: CID
Ionization: ESI
Column name: Zorbax Eclipse Plus C18 2.1 mm x 150 mm, 3.5 um, Agilent
Retention time: 6.951 min
Precursor m/z: 327.1371
Precursor type: [M+H]+
m/z	relative intensity
37.0064	62
38.0143	37
39.0229	136
42.034	55
43.0412	11
46.9677	13
48.9842	20
50.0142	35
51.0235	84
52.018	13
59.9993	60
61.0072	257
62.0149	324
63.0227	489
64.0172	96
65.0379	53
72.9834	89
73.0057	22
74.0148	216
75.01	15
75.0225	149
76.0176	29
76.0297	24
77.0378	55
83.9991	37
85.0057	156
86.0004	11
86.0145	415
87.0226	567
88.0182	283
88.0298	172
89.0374	205
90.0358	49
97.0064	24
98.0139	154
99.0083	60
99.0221	71
100.0175	64
101.0397	17
102.0326	13
102.0457	17
109.0081	40
110.0005	13
110.0134	169
111.0216	281
112.0182	261
113.037	317
114.0334	348
115.0537	26
122.0155	22
123.0103	60
124.0193	31
125.0373	26
126.0316	11
126.0453	17
127.0455	24
135.01	15
136.0193	22
136.031	29
137.0378	929
138.0328	616
139.0305	22
139.0538	122
140.0488	138
149.0374	11
150.0441	87
151.0477	67
152.0501	20
153.0482	15
162.0348	122
163.0404	160
164.0487	999
165.0456	156
175.0411	24
177.0558	35
178.0633	17
188.0512	33
189.0438	51
190.0541	58
191.0591	46
192.0664	11
203.0604	17
