Mass spectrum: Doxycycline; LC-ESI-QTOF; MS2; 50 V
Name: Doxycycline
Class: Antimicrobial; Pharmaceutical
Formula: C22H24N2O8
Exact mass: 444.1533
SMILES: CC1C2C(C3C(C(=O)C(=C(C3(C(=O)C2=C(C4=C1C=CC=C4O)O)O)O)C(=O)N)N(C)C)O
InChI: InChI=1S/C22H24N2O8/c1-7-8-5-4-6-9(25)11(8)16(26)12-10(7)17(27)14-15(24(2)3)18(28)13(21(23)31)20(30)22(14,32)19(12)29/h4-7,10,14-15,17,25-27,30,32H,1-3H3,(H2,23,31)
Instrument: TripleTOF 5600 SCIEX
Instrument type: LC-ESI-QTOF
Ms type: MS2
Ion mode: POSITIVE
Collision energy: 50
Fragmentation mode: CID
Ionization: ESI
Column name: Zorbax Eclipse Plus C18 2.1 mm x 150 mm, 3.5 um, Agilent
Retention time: 6.499 min
Precursor m/z: 445.1605
Precursor type: [M+H]+
m/z	relative intensity
58.0743	52
84.0492	41
98.0641	397
126.057	177
129.0711	26
137.0247	47
139.0338	36
145.0645	52
147.08	41
152.0364	26
152.0605	20
154.0515	381
157.0668	36
159.0823	31
164.0687	20
165.0203	62
168.061	41
173.062	52
174.0685	73
175.0757	146
179.0871	26
180.0705	20
181.0665	20
182.0843	20
183.0797	26
185.0629	26
185.0992	31
187.0422	36
187.0763	125
192.0671	41
195.0839	67
198.0695	36
199.0804	83
201.0212	36
201.0548	648
207.0825	41
208.0621	47
210.0675	36
211.073	99
213.0577	26
213.091	141
215.0709	41
219.0844	26
221.0615	20
223.0777	104
225.0925	109
226.061	88
227.0696	52
227.0802	31
229.0501	36
232.0568	31
235.0763	78
236.0521	26
237.0569	26
237.0923	57
238.0608	36
239.0712	240
240.0763	36
241.0852	292
242.0591	52
243.0999	36
247.0723	83
249.0594	31
249.0887	36
250.0629	78
251.0708	130
252.0427	324
253.0862	193
254.0586	31
255.0682	104
257.0825	73
263.0733	67
265.0877	115
266.0554	36
267.0652	999
269.0821	339
275.0723	94
277.0867	52
278.0552	156
279.0646	146
281.0779	47
281.0943	83
283.0585	36
285.0723	141
291.0687	130
292.1379	31
292.1526	20
293.079	465
293.1087	20
295.0992	41
296.1283	115
297.0781	67
303.0648	135
306.0493	183
309.0744	67
311.1031	26
314.1401	41
319.0607	135
321.0277	26
321.0761	941
332.1503	47
334.0453	298
336.1145	20
336.1307	26
337.0789	109
339.0866	256
347.0519	57
349.0709	167
364.1074	31
364.1241	31
365.0758	47
367.0786	135
382.131	47
392.0993	41
410.1247	183
410.1504	31
428.129	271
