Mass spectrum: 3,5-Diiodothyronine; LC-ESI-QTOF; MS2; 130 V
Name: 3,5-Diiodothyronine
Class: Pharmaceutical
Formula: C15H13I2NO4
Exact mass: 524.8934
SMILES: NC(Cc1cc(I)c(Oc2ccc(O)cc2)c(I)c1)C(O)=O
InChI: InChI=1S/C15H13I2NO4/c16-11-5-8(7-13(18)15(20)21)6-12(17)14(11)22-10-3-1-9(19)2-4-10/h1-6,13,19H,7,18H2,(H,20,21)
Instrument: TripleTOF 5600 SCIEX
Instrument type: LC-ESI-QTOF
Ms type: MS2
Ion mode: POSITIVE
Collision energy: 130
Fragmentation mode: CID
Ionization: ESI
Column name: Zorbax Eclipse Plus C18 2.1 mm x 150 mm, 3.5 um, Agilent
Retention time: 7.539 min
Precursor m/z: 525.9007
Precursor type: [M+H]+
m/z	relative intensity
51.0274	47
64.0352	28
65.0417	160
66.0511	14
74.0175	25
75.0257	22
76.0332	30
76.0421	14
77.0416	284
77.0665	11
78.0374	14
78.0487	106
79.0445	50
79.0575	11
81.0356	90
87.0259	25
89.04	377
90.0114	14
90.0487	146
91.0166	11
91.0554	64
92.027	22
93.0376	19
94.0427	22
101.0383	19
102.0467	242
103.0538	33
104.0488	258
105.0334	92
105.0564	47
106.0406	19
107.0502	25
109.0281	11
113.0396	22
114.0448	19
115.0543	793
116.0497	11
116.0596	16
117.0569	75
118.0408	14
119.0122	14
119.0228	14
125.039	14
126.0453	92
127.0547	351
128.062	939
129.068	19
131.0496	30
132.0439	14
138.0476	11
139.0545	346
140.0603	16
140.0687	19
141.0691	475
142.0743	16
144.0564	19
149.0418	11
150.0457	81
151.0542	303
152.0622	999
153.0699	123
154.0667	50
155.0489	166
156.0565	28
157.0613	14
162.0459	25
163.0522	73
164.0616	53
165.0696	61
166.0648	16
167.0724	73
168.0565	98
168.0809	25
169.0641	160
170.0711	19
178.0638	22
179.0455	30
180.0581	14
180.0818	28
181.0637	177
183.0442	28
184.0523	84
196.0755	47
197.0598	438
206.0587	11
207.0665	14
208.0504	11
223.0609	36
224.0716	14
