Mass spectrum: Valsartanic acid; LC-ESI-QTOF; MS2; 130 V
Name: Valsartanic acid
Class: Pharmaceutical; Transformation_product; Transformation_product-Metabolite
Formula: C14H10N4O2
Exact mass: 266.0804
SMILES: O=C(O)C(C=C1)=CC=C1C2=CC=CC=C2C3=NN=NN3
InChI: InChI=1S/C14H10N4O2/c19-14(20)10-7-5-9(6-8-10)11-3-1-2-4-12(11)13-15-17-18-16-13/h1-8H,(H,19,20)(H,15,16,17,18)
Instrument: TripleTOF 5600 SCIEX
Instrument type: LC-ESI-QTOF
Ms type: MS2
Ion mode: POSITIVE
Collision energy: 130
Fragmentation mode: CID
Ionization: ESI
Column name: Zorbax Eclipse Plus C18 2.1 mm x 150 mm, 3.5 um, Agilent
Retention time: 8.027 min
Precursor m/z: 267.0877
Precursor type: [M+H]+
m/z	relative intensity
73.0109	74
74.0185	846
75.0259	489
76.0204	41
76.0325	127
77.0412	246
85.0093	78
86.0158	148
87.0237	160
89.0402	32
97.0082	69
98.0159	999
98.0429	24
99.0096	53
99.0229	378
100.0176	20
100.0303	82
101.0386	41
102.046	65
109.007	49
110.0149	172
111.0227	78
113.0379	28
121.0073	20
122.0145	226
123.0099	45
123.0219	69
124.0301	74
125.0388	65
126.0474	82
127.0405	20
137.0402	24
139.0559	24
148.032	37
149.0377	180
150.0455	579
151.0385	20
151.0511	74
152.0628	16
175.0412	61
