Mass spectrum: Dimethomorph; LC-ESI-QTOF; MS2; 150 V
Name: Dimethomorph
Class: Fungicide
Formula: C21H22ClNO4
Exact mass: 387.1237
SMILES: COC1=C(C=C(C=C1)/C(=C/C(=O)N2CCOCC2)/C3=CC=C(C=C3)Cl)OC
InChI: InChI=1S/C21H22ClNO4/c1-25-19-8-5-16(13-20(19)26-2)18(15-3-6-17(22)7-4-15)14-21(24)23-9-11-27-12-10-23/h3-8,13-14H,9-12H2,1-2H3/b18-14+
Instrument: TripleTOF 5600 SCIEX
Instrument type: LC-ESI-QTOF
Ms type: MS2
Ion mode: POSITIVE
Collision energy: 150
Fragmentation mode: CID
Ionization: ESI
Column name: Zorbax Eclipse Plus C18 2.1 mm x 150 mm, 3.5 um, Agilent
Retention time: 11.552 min
Precursor m/z: 388.131
Precursor type: [M+H]+
m/z	relative intensity
65.0416	35
66.0506	13
70.0321	14
72.987	19
74.0185	153
75.026	153
76.0334	53
77.041	81
78.0488	17
86.0164	31
87.0252	47
88.0325	19
89.0401	105
91.0557	10
92.0266	10
98.0159	69
99.0012	17
99.0232	61
100.0309	13
101.0403	13
102.0469	95
110.9988	23
111.0219	22
113.0388	61
114.047	34
115.0534	122
122.0141	10
123.0223	11
125.0141	10
125.0383	59
126.0458	253
127.0541	11
128.0628	14
137.0376	90
138.0453	58
139.0543	148
149.0153	34
149.0382	47
150.0463	379
151.0537	421
152.0619	279
160.0065	17
161.0379	50
162.0462	162
163.0539	999
164.061	215
165.0699	215
173.0149	19
174.0459	40
175.0528	43
176.0613	126
177.0676	10
