Mass spectrum: Dimoxystrobin; LC-ESI-QTOF; MS2; 150 V
Name: Dimoxystrobin
Class: Fungicide
Formula: C19H22N2O3
Exact mass: 326.163
SMILES: CC1=CC(=C(C=C1)C)OCC2=CC=CC=C2C(=NOC)C(=O)NC
InChI: InChI=1S/C19H22N2O3/c1-13-9-10-14(2)17(11-13)24-12-15-7-5-6-8-16(15)18(21-23-4)19(22)20-3/h5-11H,12H2,1-4H3,(H,20,22)
Instrument: TripleTOF 6600 SCIEX
Instrument type: LC-ESI-QTOF
Ms type: MS2
Ion mode: POSITIVE
Collision energy: 150
Fragmentation mode: CID
Ionization: ESI
Column name: Zorbax Eclipse Plus C18 2.1 mm x 150 mm, 3.5 um, Agilent
Retention time: 13.184 min
Precursor m/z: 327.1703
Precursor type: [M+H]+
m/z	relative intensity
36.0006	26
37.008	137
38.0158	81
39.0239	271
41.0391	10
49.0074	35
50.0158	121
51.0237	116
58.0298	102
60.0004	43
61.008	273
62.0157	582
63.0238	999
64.0189	217
64.0309	13
65.0384	43
74.0155	59
75.0103	27
75.0233	37
76.0194	14
76.031	10
77.039	61
86.0159	18
87.011	16
87.0228	21
88.0194	18
89.0391	343
90.0345	24
90.0467	13
102.0456	11
115.0552	16
126.0464	11
139.053	21
150.0466	35
151.0535	18
152.0631	14
163.0541	49
164.0615	10
165.0705	11
176.0608	23
