Mass spectrum: Losartan carboxylic acid; LC-ESI-QTOF; MS2; 100 V
Name: Losartan carboxylic acid
Class: Pharmaceutical
Formula: C22H21ClN6O2
Exact mass: 436.1415
SMILES: CCCCc1nc(Cl)c(n1Cc2ccc(cc2)c3ccccc3c4n[nH]nn4)C(O)=O
InChI: InChI=1S/C22H21ClN6O2/c1-2-3-8-18-24-20(23)19(22(30)31)29(18)13-14-9-11-15(12-10-14)16-6-4-5-7-17(16)21-25-27-28-26-21/h4-7,9-12H,2-3,8,13H2,1H3,(H,30,31)(H,25,26,27,28)
Instrument: TripleTOF 5600 SCIEX
Instrument type: LC-ESI-QTOF
Ms type: MS2
Ion mode: POSITIVE
Collision energy: 100
Fragmentation mode: CID
Ionization: ESI
Column name: Zorbax Eclipse Plus C18 2.1 mm x 150 mm, 3.5 um, Agilent
Retention time: 10.786 min
Precursor m/z: 437.1487
Precursor type: [M+H]+
m/z	relative intensity
77.0412	109
80.0525	17
89.0402	19
102.0343	10
113.0388	34
114.046	24
115.0544	54
125.0386	20
126.0472	27
127.0546	129
128.0497	16
128.0618	37
137.0386	12
138.0458	53
139.0537	77
140.0493	153
141.0582	13
150.0466	84
151.0546	448
152.0625	999
153.0698	186
154.0645	26
162.0463	23
163.0547	315
164.0525	287
165.0657	199
166.0652	44
167.0718	19
168.0686	21
176.0622	189
177.066	229
178.0721	497
179.0729	131
180.0811	92
181.0757	10
188.05	56
189.0564	99
190.0656	555
191.062	128
192.068	116
205.0768	543
206.0836	44
