Mass spectrum: Climbazole; LC-ESI-QTOF; MS2; 140 V
Name: Climbazole
Class: Pharmaceutical; Personal_care_product
Formula: C15H17ClN2O2
Exact mass: 292.0979
SMILES: CC(C)(C)C(=O)C(Oc1ccc(Cl)cc1)n2ccnc2
InChI: InChI=1S/C15H17ClN2O2/c1-15(2,3)13(19)14(18-9-8-17-10-18)20-12-6-4-11(16)5-7-12/h4-10,14H,1-3H3
Instrument: TripleTOF 5600 SCIEX
Instrument type: LC-ESI-QTOF
Ms type: MS2
Ion mode: POSITIVE
Collision energy: 140
Fragmentation mode: CID
Ionization: ESI
Column name: Zorbax Eclipse Plus C18 2.1 mm x 150 mm, 3.5 um, Agilent
Retention time: 8.761 min
Precursor m/z: 293.1051
Precursor type: [M+H]+
m/z	relative intensity
55.0584	14
57.0744	82
60.9879	14
65.0437	19
67.0321	27
68.0392	37
69.0472	126
72.9863	176
73.0097	91
74.0181	999
74.061	12
75.0259	377
75.0731	14
76.0334	12
77.0406	19
81.0463	12
84.9846	86
89.0392	17
98.9994	9
