Mass spectrum: 2,3,4-Trihydroxybenzophenone; LC-ESI-QTOF; MS2; 50 V
Name: 2,3,4-Trihydroxybenzophenone
Class: Industrial_process
Formula: C13H10O4
Exact mass: 230.0579
SMILES: Oc1ccc(c(O)c1O)C(=O)c2ccccc2
InChI: InChI=1S/C13H10O4/c14-10-7-6-9(12(16)13(10)17)11(15)8-4-2-1-3-5-8/h1-7,14,16-17H
Instrument: TripleTOF 5600 SCIEX
Instrument type: LC-ESI-QTOF
Ms type: MS2
Ion mode: POSITIVE
Collision energy: 50
Fragmentation mode: CID
Ionization: ESI
Column name: Zorbax Eclipse Plus C18 2.1 mm x 150 mm, 3.5 um, Agilent
Retention time: 9.396 min
Precursor m/z: 231.0652
Precursor type: [M+H]+
m/z	relative intensity
51.029	113
77.0413	999
79.0203	329
97.0294	72
105.0337	267
107.0133	72
125.0232	82
153.018	236
