Mass spectrum: Ethisterone; LC-ESI-QTOF; MS2; 60 V
Name: Ethisterone
Class: Pharmaceutical; Metabolite
Formula: C21H28O2
Exact mass: 312.2089
SMILES: C[C@]12CCC(=O)C=C1CC[C@@H]3[C@@H]2CC[C@@]4(C)[C@H]3CC[C@@]4(O)C#C
InChI: InChI=1S/C21H28O2/c1-4-21(23)12-9-18-16-6-5-14-13-15(22)7-10-19(14,2)17(16)8-11-20(18,21)3/h1,13,16-18,23H,5-12H2,2-3H3/t16-,17+,18+,19+,20+,21+/m1/s1
Instrument: TripleTOF 5600 SCIEX
Instrument type: LC-ESI-QTOF
Ms type: MS2
Ion mode: POSITIVE
Collision energy: 60
Fragmentation mode: CID
Ionization: ESI
Column name: Zorbax Eclipse Plus C18 2.1 mm x 150 mm, 3.5 um, Agilent
Retention time: 11.662 min
Precursor m/z: 313.2162
Precursor type: [M+H]+
m/z	relative intensity
43.0247	48
53.0446	35
55.0223	30
55.031	10
55.0589	23
65.0432	46
67.0582	128
69.0365	12
69.0733	64
77.0414	272
79.0573	562
81.0369	17
81.0722	354
82.0425	10
83.0502	67
91.0563	370
93.0721	80
94.0423	16
95.0528	14
95.0859	73
97.0665	999
103.055	39
105.0697	186
107.049	24
107.0842	21
108.0579	23
109.0658	913
115.0545	113
116.0623	39
117.0694	78
119.0855	62
121.065	21
121.1035	16
123.0805	119
127.0546	46
128.0612	178
129.0702	108
130.0766	40
131.0846	44
133.1003	12
141.0694	103
142.0772	69
143.0843	53
145.1024	28
152.0619	12
153.0704	40
154.0778	32
155.0846	49
156.0949	24
157.0999	19
165.0688	33
167.0823	23
168.0916	10
169.0993	24
178.0776	26
179.0842	23
181.1005	12
191.0889	17
