Mass spectrum: Baclofen; LC-ESI-QTOF; MS2; 100 V
Name: Baclofen
Class: Pharmaceutical
Formula: C10H12ClNO2
Exact mass: 213.0557
SMILES: NCC(CC(O)=O)c1ccc(Cl)cc1
InChI: InChI=1S/C10H12ClNO2/c11-9-3-1-7(2-4-9)8(6-12)5-10(13)14/h1-4,8H,5-6,12H2,(H,13,14)
Instrument: TripleTOF 5600 SCIEX
Instrument type: LC-ESI-QTOF
Ms type: MS2
Ion mode: POSITIVE
Collision energy: 100
Fragmentation mode: CID
Ionization: ESI
Column name: Zorbax Eclipse Plus C18 2.1 mm x 150 mm, 3.5 um, Agilent
Retention time: 5.336 min
Precursor m/z: 214.0629
Precursor type: [M+H]+
m/z	relative intensity
60.0057	16
64.0347	19
65.0427	179
72.9862	59
73.0094	13
74.0178	179
75.0256	159
76.0329	33
77.0412	156
86.0192	29
87.024	29
88.0321	19
89.0406	606
90.0488	36
91.0558	76
99.0004	53
102.0485	19
113.0397	19
114.0478	46
115.0546	999
116.0612	16
117.0576	13
118.0666	16
