Mass spectrum: Mesotrione; LC-ESI-QTOF; MS2; 60 V
Name: Mesotrione
Class: Herbicide
Formula: C14H13NO7S
Exact mass: 339.0413
SMILES: CS(=O)(=O)C1=CC(=C(C=C1)C(=O)C2C(=O)CCCC2=O)[N+](=O)[O-]
InChI: InChI=1S/C14H13NO7S/c1-23(21,22)8-5-6-9(10(7-8)15(19)20)14(18)13-11(16)3-2-4-12(13)17/h5-7,13H,2-4H2,1H3
Instrument: TripleTOF 6600 SCIEX
Instrument type: LC-ESI-QTOF
Ms type: MS2
Ion mode: POSITIVE
Collision energy: 60
Fragmentation mode: CID
Ionization: ESI
Column name: Zorbax Eclipse Plus C18 2.1 mm x 150 mm, 3.5 um, Agilent
Retention time: 9.26 min
Precursor m/z: 340.0486
Precursor type: [M+H]+
m/z	relative intensity
39.0226	57
50.0151	78
51.0226	41
53.0018	151
55.0174	130
62.9896	130
63.0225	36
66.0339	36
68.0116	26
68.9968	88
75.011	36
75.0224	67
76.0178	999
77.0256	460
78.0329	57
78.9847	88
79.0174	109
80.0129	26
91.0174	94
92.025	47
95.0124	26
103.0168	62
104.0126	795
107.0122	83
108.0192	47
111.043	36
115.0532	20
119.0123	41
120.0205	41
154.9793	125
166.0126	20
196.0509	36
214.0614	88
227.9941	36
