Mass spectrum: Desethylterbuthylazine; LC-ESI-QTOF; MS2; 70 V
Name: Desethylterbuthylazine
Class: Herbicide; Transformation_product; Metabolite; Transformation_product-Metabolite
Formula: C7H12ClN5
Exact mass: 201.0781
SMILES: CC(C)(C)NC1=NC(=NC(=N1)N)Cl
InChI: InChI=1S/C7H12ClN5/c1-7(2,3)13-6-11-4(8)10-5(9)12-6/h1-3H3,(H3,9,10,11,12,13)
Instrument: TripleTOF 6600 SCIEX
Instrument type: LC-ESI-QTOF
Ms type: MS2
Ion mode: POSITIVE
Collision energy: 70
Fragmentation mode: CID
Ionization: ESI
Column name: Zorbax Eclipse Plus C18 2.1 mm x 150 mm, 3.5 um, Agilent
Retention time: 9.136 min
Precursor m/z: 202.0854
Precursor type: [M+H]+
m/z	relative intensity
37.0072	11
38.0149	10
39.0231	62
41.014	21
41.0388	33
42.0213	17
43.0297	999
61.9798	931
68.0249	664
79.0059	77
104.0008	37
