Mass spectrum: Tetraoctylphosphonium; LC-ESI-QTOF; MS2; 120 V
Name: Tetraoctylphosphonium
Formula: [C32H68P]+
Exact mass: 483.5053
SMILES: CCCCCCCC[P+](CCCCCCCC)(CCCCCCCC)CCCCCCCC
InChI: InChI=1S/C32H68P/c1-5-9-13-17-21-25-29-33(30-26-22-18-14-10-6-2,31-27-23-19-15-11-7-3)32-28-24-20-16-12-8-4/h5-32H2,1-4H3/q+1
Instrument: TripleTOF 5600 SCIEX
Instrument type: LC-ESI-QTOF
Ms type: MS2
Ion mode: POSITIVE
Collision energy: 120
Fragmentation mode: CID
Ionization: ESI
Column name: Zorbax Eclipse Plus C18 2.1 mm x 150 mm, 3.5 um, Agilent
Retention time: 16.405 min
Precursor m/z: 483.5053
Precursor type: [M]+
m/z	relative intensity
39.0235	108
41.0388	272
43.0546	152
43.9813	106
44.989	152
45.997	239
47.005	68
48.0124	125
55.0542	206
56.9884	220
57.0705	62
59.0042	272
61.02	666
62.0276	745
69.0691	89
73.0188	160
74.0275	106
75.0349	658
76.0428	999
87.0342	78
88.0429	108
89.0493	291
90.0574	255
101.0497	198
102.0578	100
103.0653	231
115.0652	225
116.0722	51
117.0814	185
129.0816	133
131.0971	228
143.0969	106
145.1133	168
157.1138	106
159.1285	106
171.1298	73
173.1453	89
185.1458	65
187.1608	144
201.1762	100
213.1763	73
215.1927	54
229.2099	84
243.2256	54
