Mass spectrum: Parathion; LC-ESI-QTOF; MS2; 120 V
Name: Parathion
Class: Insecticide
Formula: C10H14NO5PS
Exact mass: 291.033
SMILES: CCOP(=S)(OCC)Oc1ccc(cc1)[N+](=O)[O-]
InChI: InChI=1S/C10H14NO5PS/c1-3-14-17(18,15-4-2)16-10-7-5-9(6-8-10)11(12)13/h5-8H,3-4H2,1-2H3
Instrument: TripleTOF 5600 SCIEX
Instrument type: LC-ESI-QTOF
Ms type: MS2
Ion mode: POSITIVE
Collision energy: 120
Fragmentation mode: CID
Ionization: ESI
Column name: Zorbax Eclipse Plus C18 2.1 mm x 150 mm, 3.5 um, Agilent
Retention time: 14.107 min
Precursor m/z: 292.0403
Precursor type: [M+H]+
m/z	relative intensity
65.0423	666
74.0176	999
75.0252	399
78.9421	266
