Mass spectrum: N-(1,3-Dimethylbutyl)-N`-phenyl-p-phenylenediamine; LC-ESI-QTOF; MS2; 150 V
Name: N-(1,3-Dimethylbutyl)-N`-phenyl-p-phenylenediamine
Class: Industrial_process
Formula: C18H24N2
Exact mass: 268.1939
SMILES: CC(C)CC(C)NC1=CC=C(C=C1)NC2=CC=CC=C2
InChI: InChI=1S/C18H24N2/c1-14(2)13-15(3)19-17-9-11-18(12-10-17)20-16-7-5-4-6-8-16/h4-12,14-15,19-20H,13H2,1-3H3
Instrument: TripleTOF 6600 SCIEX
Instrument type: LC-ESI-QTOF
Ms type: MS2
Ion mode: POSITIVE
Collision energy: 150
Fragmentation mode: CID
Ionization: ESI
Column name: Zorbax Eclipse Plus C18 2.1 mm x 150 mm, 3.5 um, Agilent
Retention time: 9.189 min
Precursor m/z: 269.2012
Precursor type: [M+H]+
m/z	relative intensity
35.9982	84
37.0065	361
38.0146	252
39.0225	890
41.0256	60
41.0381	60
49.0063	204
50.0143	734
51.0223	999
52.0172	204
52.0301	108
53.0377	830
54.0327	192
61.0067	337
62.0143	493
63.022	830
64.0174	144
65.0244	60
65.0384	168
66.046	60
74.014	300
75.022	240
76.0171	48
76.0308	72
77.0383	228
78.033	96
80.0488	469
86.0139	144
87.0218	156
88.0292	48
89.0376	264
98.0135	120
101.0388	48
113.0375	168
114.0348	72
115.0552	84
126.0456	84
127.0529	72
137.0372	96
139.0539	132
140.048	132
164.0488	72
