Mass spectrum: Tepraloxydim; LC-ESI-QTOF; MS2; 130 V
Name: Tepraloxydim
Class: Herbicide
Formula: C17H24ClNO4
Exact mass: 341.1394
SMILES: CCC(=NOCC=CCl)C1=C(CC(CC1=O)C2CCOCC2)O
InChI: InChI=1S/C17H24ClNO4/c1-2-14(19-23-7-3-6-18)17-15(20)10-13(11-16(17)21)12-4-8-22-9-5-12/h3,6,12-13,20H,2,4-5,7-11H2,1H3
Instrument: TripleTOF 6600 SCIEX
Instrument type: LC-ESI-QTOF
Ms type: MS2
Ion mode: POSITIVE
Collision energy: 130
Fragmentation mode: CID
Ionization: ESI
Column name: Zorbax Eclipse Plus C18 2.1 mm x 150 mm, 3.5 um, Agilent
Retention time: 12.248 min
Precursor m/z: 342.1467
Precursor type: [M+H]+
m/z	relative intensity
37.0065	127
38.0144	116
39.0221	545
41.0249	69
41.0375	185
42.0331	209
43.0171	139
44.0121	69
46.9669	92
48.9829	604
49.0065	81
50.0147	360
51.022	894
52.0301	69
53.0011	69
53.0376	162
54.0329	139
55.0173	58
55.053	69
56.048	92
62.0137	58
63.0223	139
65.0372	394
66.0324	151
66.0454	81
67.0409	92
67.0536	46
68.0122	92
68.0482	104
74.9978	127
75.0217	81
77.037	999
78.0322	46
78.0445	81
79.0527	139
80.0486	220
81.0559	58
82.064	46
89.0369	127
91.0532	313
92.0488	81
93.0562	139
94.064	58
96.0427	92
102.0455	81
103.0516	92
115.0526	197
127.0535	69
128.0611	116
130.0618	58
