Mass spectrum: Dimethachlor; LC-ESI-QTOF; MS2; 120 V
Name: Dimethachlor
Class: Herbicide
Formula: C13H18ClNO2
Exact mass: 255.1026
SMILES: CC1=C(C(=CC=C1)C)N(CCOC)C(=O)CCl
InChI: InChI=1S/C13H18ClNO2/c1-10-5-4-6-11(2)13(10)15(7-8-17-3)12(16)9-14/h4-6H,7-9H2,1-3H3
Instrument: TripleTOF 6600 SCIEX
Instrument type: LC-ESI-QTOF
Ms type: MS2
Ion mode: POSITIVE
Collision energy: 120
Fragmentation mode: CID
Ionization: ESI
Column name: Zorbax Eclipse Plus C18 2.1 mm x 150 mm, 3.5 um, Agilent
Retention time: 10.992 min
Precursor m/z: 256.1099
Precursor type: [M+H]+
m/z	relative intensity
37.008	27
38.0158	31
39.0232	114
46.9684	82
48.9843	273
49.0075	114
50.0156	492
51.0234	999
52.0305	18
53.0394	50
61.0077	36
62.0154	59
63.023	155
64.0316	31
65.0385	132
74.0153	36
75.0232	41
77.0386	675
78.0472	45
79.0538	31
89.0387	346
90.0464	100
91.0544	91
103.0541	54
105.0468	31
106.0653	27
115.0537	41
117.0578	59
130.0655	63
