Mass spectrum: Ethyltriphenylphosphonium; LC-ESI-QTOF; MS2; 130 V
Name: Ethyltriphenylphosphonium
Class: Industrial_process
Formula: [C20H20P]+
Exact mass: 291.1297
SMILES: CC[P+](C1=CC=CC=C1)(C2=CC=CC=C2)C3=CC=CC=C3
InChI: InChI=1S/C20H20P/c1-2-21(18-12-6-3-7-13-18,19-14-8-4-9-15-19)20-16-10-5-11-17-20/h3-17H,2H2,1H3/q+1
Instrument: TripleTOF 5600 SCIEX
Instrument type: LC-ESI-QTOF
Ms type: MS2
Ion mode: POSITIVE
Collision energy: 130
Fragmentation mode: CID
Ionization: ESI
Column name: Zorbax Eclipse Plus C18 2.1 mm x 150 mm, 3.5 um, Agilent
Retention time: 7.392 min
Precursor m/z: 291.1297
Precursor type: [M]+
m/z	relative intensity
51.023	55
56.9883	124
63.0222	233
65.0378	109
74.0139	62
76.0294	75
77.0373	75
79.9799	198
80.9876	318
87.0212	86
89.0369	320
102.0445	122
107.003	999
113.0369	97
115.0531	311
126.0454	295
131.0033	113
133.0202	50
139.0537	199
150.0459	267
151.0539	537
152.0616	515
155.0042	68
156.0116	106
157.0195	277
179.0039	57
180.0122	92
181.0203	364
