Mass spectrum: 2-(Thiocyanomethylthio)benzothiazole; LC-ESI-QTOF; MS2; 60 V
Name: 2-(Thiocyanomethylthio)benzothiazole
Class: Antimicrobial; Fungicide
Formula: C9H6N2S3
Exact mass: 237.9693
SMILES: C1=CC=C2C(=C1)N=C(S2)SCSC#N
InChI: InChI=1S/C9H6N2S3/c10-5-12-6-13-9-11-7-3-1-2-4-8(7)14-9/h1-4H,6H2
Instrument: TripleTOF 6600 SCIEX
Instrument type: LC-ESI-QTOF
Ms type: MS2
Ion mode: POSITIVE
Collision energy: 60
Fragmentation mode: CID
Ionization: ESI
Column name: Zorbax Eclipse Plus C18 2.1 mm x 150 mm, 3.5 um, Agilent
Retention time: 12.417 min
Precursor m/z: 238.9766
Precursor type: [M+H]+
m/z	relative intensity
39.0231	23
43.9714	16
44.9795	411
50.015	28
51.023	114
63.0231	40
63.9434	20
64.0309	14
65.0389	381
68.9793	73
71.9903	43
76.0308	14
77.0388	474
78.0466	33
81.9882	12
89.0387	133
90.0333	25
91.042	45
96.0024	71
102.0348	16
103.0416	20
104.0492	12
105.0454	16
108.0027	65
109.0111	999
116.0494	50
121.0106	100
122.006	14
123.0136	83
130.04	10
134.0063	14
135.0137	50
136.0218	668
139.975	22
146.0056	10
148.0216	11
152.9828	11
166.9859	57
