Mass spectrum: Diazepam; LC-ESI-QTOF; MS2; 50 V
Name: Diazepam
Class: Pharmaceutical
Formula: C16H13ClN2O
Exact mass: 284.0716
SMILES: CN1C(=O)CN=C(C2=C1C=CC(=C2)Cl)C3=CC=CC=C3
InChI: InChI=1S/C16H13ClN2O/c1-19-14-8-7-12(17)9-13(14)16(18-10-15(19)20)11-5-3-2-4-6-11/h2-9H,10H2,1H3
Instrument: TripleTOF 6600 SCIEX
Instrument type: LC-ESI-QTOF
Ms type: MS2
Ion mode: POSITIVE
Collision energy: 50
Fragmentation mode: CID
Ionization: ESI
Column name: Zorbax Eclipse Plus C18 2.1 mm x 150 mm, 3.5 um, Agilent
Retention time: 11.181 min
Precursor m/z: 285.0789
Precursor type: [M+H]+
m/z	relative intensity
58.0278	12
65.0379	12
77.0377	37
89.0376	56
90.0454	32
91.0534	198
98.9986	15
104.0485	33
105.0324	12
110.9984	15
113.0143	11
116.0482	62
117.0564	114
118.0641	104
119.0717	68
122.9981	10
125.0143	138
126.0217	19
131.059	15
138.0091	33
139.0168	35
140.0243	28
141.0331	15
143.0594	94
144.0663	36
145.0756	10
147.0665	18
150.0088	43
151.017	13
152.0255	23
153.0334	11
154.0409	379
163.0045	40
164.0094	12
164.0603	10
165.0202	13
165.069	103
166.0761	24
167.0119	27
172.0619	42
177.0208	45
178.0675	14
179.0363	66
179.0705	16
180.0205	22
180.08	67
181.0881	12
190.0637	22
191.0721	37
192.0801	115
193.088	999
194.0956	69
199.0291	12
204.0799	101
205.0795	46
206.0834	204
207.0909	130
214.041	16
216.056	35
220.0971	15
221.1057	133
222.1147	238
226.0412	18
227.0487	81
228.0569	73
239.0354	21
240.049	31
241.0525	347
242.0592	24
255.068	59
257.0835	18
269.0484	15
285.0777	14
