Mass spectrum: 19-Nortestosterone; LC-ESI-QTOF; MS2; 90 V
Name: 19-Nortestosterone
Class: Pharmaceutical
Formula: C18H26O2
Exact mass: 274.1933
SMILES: C[C@]12CC[C@H]3[C@@H](CCC4=CC(=O)CC[C@H]34)[C@@H]1CC[C@@H]2O
InChI: InChI=1S/C18H26O2/c1-18-9-8-14-13-5-3-12(19)10-11(13)2-4-15(14)16(18)6-7-17(18)20/h10,13-17,20H,2-9H2,1H3/t13-,14+,15+,16-,17-,18-/m0/s1
Instrument: TripleTOF 5600 SCIEX
Instrument type: LC-ESI-QTOF
Ms type: MS2
Ion mode: POSITIVE
Collision energy: 90
Fragmentation mode: CID
Ionization: ESI
Column name: Zorbax Eclipse Plus C18 2.1 mm x 150 mm, 3.5 um, Agilent
Retention time: 10.421 min
Precursor m/z: 275.2006
Precursor type: [M+H]+
m/z	relative intensity
43.0259	20
43.0328	17
53.0446	55
55.0243	29
55.0594	94
65.0423	250
66.0502	17
67.0576	91
77.0418	999
78.0492	38
79.0568	436
81.0354	20
81.0711	126
83.0501	123
89.04	14
91.0559	568
91.0862	41
93.07	29
94.0416	26
95.0866	14
102.0455	23
103.0549	58
105.0708	67
107.0491	20
109.0632	55
115.0542	294
116.0603	20
117.0699	38
127.0543	50
127.0651	14
128.0617	215
129.0692	58
131.0834	14
141.0683	76
152.0614	41
153.0698	20
165.0681	32
