Mass spectrum: Methyl 3-hydroxybenzoate; LC-ESI-QTOF; MS2; 60 V
Name: Methyl 3-hydroxybenzoate
Class: Pharmaceutical
Formula: C8H8O3
Exact mass: 152.0473
InChI: InChI=1S/C8H8O3/c1-11-8(10)6-3-2-4-7(9)5-6/h2-5,9H,1H3
Instrument: TripleTOF 5600 SCIEX
Instrument type: LC-ESI-QTOF
Ms type: CID
Ion mode: POSITIVE
Collision energy: 60
Ionization: ESI
Column name: Zorbax Eclipse Plus C18 2.1 mm x 150 mm, 3.5 um, Agilent
Retention time: 7.88 min
Precursor m/z: 153.0546
Precursor type: [M+H]+
m/z	relative intensity
35.9987	0
37.0063	124
38.0156	83
39.0225	333
40.0299	41
41.0385	0
51.0223	124
55.0189	83
59.0129	83
65.0389	999
66.0449	124
74.0142	83
77.0389	124
79.0173	0
93.0367	83
94.0421	166
