Mass spectrum: Itraconazole; LC-ESI-QTOF; MS2; 100 V
Name: Itraconazole
Class: Pharmaceutical
Formula: C35H38Cl2N8O4
Exact mass: 704.2393
SMILES: CCC(C)N1C(=O)N(C=N1)C2=CC=C(C=C2)N3CCN(CC3)C4=CC=C(C=C4)OCC5COC(O5)(CN6C=NC=N6)C7=C(C=C(C=C7)Cl)Cl
InChI: InChI=1S/C35H38Cl2N8O4/c1-3-25(2)45-34(46)44(24-40-45)29-7-5-27(6-8-29)41-14-16-42(17-15-41)28-9-11-30(12-10-28)47-19-31-20-48-35(49-31,21-43-23-38-22-39-43)32-13-4-26(36)18-33(32)37/h4-13,18,22-25,31H,3,14-17,19-21H2,1-2H3
Instrument: TripleTOF 5600 SCIEX
Instrument type: LC-ESI-QTOF
Ms type: MS2
Ion mode: POSITIVE
Collision energy: 100
Fragmentation mode: CID
Ionization: ESI
Column name: Zorbax Eclipse Plus C18 2.1 mm x 150 mm, 3.5 um, Agilent
Retention time: 13.565 min
Precursor m/z: 705.2466
Precursor type: [M+H]+
m/z	relative intensity
56.0487	199
79.054	99
82.0432	99
91.055	99
105.055	99
118.0655	499
119.062	99
119.074	399
120.0442	199
129.0685	99
130.0666	199
131.0686	199
132.0843	99
133.0667	99
136.0746	199
143.0527	99
144.0787	99
144.0914	99
145.0897	499
146.0587	199
146.1007	199
147.0932	99
148.0782	299
158.9764	899
159.0764	199
160.0766	599
161.0582	99
161.0689	99
174.0911	199
186.099	199
187.0615	99
187.0782	199
188.0817	199
189.0775	999
203.0947	199
215.0983	499
223.0933	199
236.0795	99
243.1193	199
259.1542	99
270.1418	99
279.0798	99
