Mass spectrum: Methacetin; LC-ESI-QTOF; MS2; 120 V
Name: Methacetin
Class: Pharmaceutical
Formula: C9H11NO2
Exact mass: 165.079
SMILES: COc1ccc(NC(C)=O)cc1
InChI: InChI=1S/C9H11NO2/c1-7(11)10-8-3-5-9(12-2)6-4-8/h3-6H,1-2H3,(H,10,11)
Instrument: TripleTOF 5600 SCIEX
Instrument type: LC-ESI-QTOF
Ms type: MS2
Ion mode: POSITIVE
Collision energy: 120
Fragmentation mode: CID
Ionization: ESI
Column name: Zorbax Eclipse Plus C18 2.1 mm x 150 mm, 3.5 um, Agilent
Retention time: 6.508 min
Precursor m/z: 166.0863
Precursor type: [M+H]+
m/z	relative intensity
40.0329	60
41.037	75
42.0445	102
43.0292	999
43.0514	33
44.0224	75
52.0264	369
53.0092	58
54.0416	192
60.0056	152
62.0506	36
64.0355	34
65.0434	191
66.0436	68
73.0105	40
74.0193	120
76.0217	30
80.053	179
