Mass spectrum: Betamethasone; LC-ESI-QTOF; MS2; 110 V
Name: Betamethasone
Class: Pharmaceutical
Formula: C22H29FO5
Exact mass: 392.1999
SMILES: C[C@H]1C[C@H]2[C@@H]3CCC4=CC(=O)C=C[C@@]4([C@]3([C@H](C[C@@]2([C@]1(C(=O)CO)O)C)O)F)C
InChI: InChI=1S/C22H29FO5/c1-12-8-16-15-5-4-13-9-14(25)6-7-19(13,2)21(15,23)17(26)10-20(16,3)22(12,28)18(27)11-24/h6-7,9,12,15-17,24,26,28H,4-5,8,10-11H2,1-3H3/t12-,15-,16-,17-,19-,20-,21-,22-/m0/s1
Instrument: TripleTOF 5600 SCIEX
Instrument type: LC-ESI-QTOF
Ms type: MS2
Ion mode: POSITIVE
Collision energy: 110
Fragmentation mode: CID
Ionization: ESI
Column name: Zorbax Eclipse Plus C18 2.1 mm x 150 mm, 3.5 um, Agilent
Retention time: 9.016 min
Precursor m/z: 393.2072
Precursor type: [M+H]+
m/z	relative intensity
43.0335	58
51.0331	81
55.0259	27
65.0453	207
67.0599	67
75.03	31
77.0438	967
78.0514	58
79.0585	175
89.0427	62
91.0576	999
93.0742	67
95.0903	22
101.0456	22
102.0479	81
103.0561	261
104.0644	62
105.0706	193
107.0514	94
109.047	31
115.0556	931
116.0638	117
117.0721	117
119.0879	67
121.0669	288
126.0461	58
127.0562	234
128.0635	873
129.0709	225
130.0808	40
131.0494	292
132.0579	108
133.0528	31
139.0546	76
140.0584	31
141.07	355
142.0808	45
143.0831	18
144.0582	72
145.0648	76
146.0542	27
146.0762	31
147.0828	27
150.0494	22
151.0553	144
152.0625	558
153.0687	202
154.082	45
155.047	22
155.0847	31
157.0656	94
158.0759	36
163.0543	49
164.0633	62
165.0704	733
166.0785	54
167.082	45
168.0576	54
169.0645	54
176.0625	121
177.0711	139
178.0779	522
179.0864	125
181.0642	166
183.0727	27
187.0539	18
188.0605	22
188.0662	27
189.0701	580
190.0772	166
191.0858	139
194.071	27
195.0822	58
200.0595	45
201.0685	85
202.0784	558
203.0847	166
204.0859	22
204.0997	18
205.0644	99
205.1013	36
206.0755	27
207.0792	54
208.0868	18
213.0688	85
214.0745	45
215.0847	342
217.1051	31
218.0704	99
219.0811	45
224.0581	18
226.0788	139
227.0839	85
228.0932	108
229.0955	18
231.079	148
232.088	27
233.0839	22
233.0963	31
239.0784	22
239.0893	31
241.0962	22
242.0743	27
243.0827	27
245.097	36
252.0858	22
255.073	27
