Mass spectrum: Perfluorohexanoic acid; LC-ESI-QTOF; MS2; 30 V
Name: Perfluorohexanoic acid
Class: Industrial_process
Formula: C6HF11O2
Exact mass: 313.9801
SMILES: C(=O)(C(C(C(C(C(F)(F)F)(F)F)(F)F)(F)F)(F)F)O
InChI: InChI=1S/C6HF11O2/c7-2(8,1(18)19)3(9,10)4(11,12)5(13,14)6(15,16)17/h(H,18,19)
Instrument: TripleTOF 5600 SCIEX
Instrument type: LC-ESI-QTOF
Ms type: MS2
Ion mode: NEGATIVE
Collision energy: 30
Fragmentation mode: CID
Ionization: ESI
Column name: Zorbax Eclipse Plus C18 2.1 mm x 150 mm, 3.5 um, Agilent
Retention time: 11.458 min
Precursor m/z: 312.9728
Precursor type: [M-H]-
m/z	relative intensity
118.9928	999
268.9821	392
