Mass spectrum: Nitrendipine; LC-ESI-QTOF; MS2; 120 V
Name: Nitrendipine
Class: Pharmaceutical
Formula: C18H20N2O6
Exact mass: 360.1321
SMILES: CCOC(=O)C1=C(NC(=C(C1C2=CC(=CC=C2)[N+](=O)[O-])C(=O)OC)C)C
InChI: InChI=1S/C18H20N2O6/c1-5-26-18(22)15-11(3)19-10(2)14(17(21)25-4)16(15)12-7-6-8-13(9-12)20(23)24/h6-9,16,19H,5H2,1-4H3
Instrument: TripleTOF 5600 SCIEX
Instrument type: LC-ESI-QTOF
Ms type: MS2
Ion mode: POSITIVE
Collision energy: 120
Fragmentation mode: CID
Ionization: ESI
Column name: Zorbax Eclipse Plus C18 2.1 mm x 150 mm, 3.5 um, Agilent
Retention time: 12.373 min
Precursor m/z: 361.1394
Precursor type: [M+H]+
m/z	relative intensity
42.0449	17
65.0447	49
67.023	300
74.0197	44
75.0275	67
76.0355	80
77.0424	371
78.0383	26
78.0505	49
80.0497	22
86.0184	17
87.0272	53
88.0337	35
89.0417	201
91.0558	44
92.0285	17
93.0592	22
98.0185	26
99.0236	22
101.0411	103
102.048	134
103.0552	35
104.0523	71
106.0632	53
113.0392	156
114.0451	89
115.0544	604
117.0573	26
122.0635	17
125.0391	71
126.0454	206
127.0544	380
128.062	264
129.0401	17
130.0656	44
131.0746	17
137.0397	40
138.0481	71
139.0548	999
140.0498	322
141.0588	31
141.0694	44
150.0477	161
151.0546	452
152.0611	994
153.0645	165
154.065	147
163.0536	103
164.0514	129
165.0695	85
166.0658	246
167.0718	179
168.0801	58
177.0571	71
178.063	147
179.0706	58
180.0804	192
181.0859	44
189.0582	22
190.0671	26
