Mass spectrum: 4-Formylaminoantipyrine; LC-ESI-QTOF; MS2; 30 V
Name: 4-Formylaminoantipyrine
Class: Pharmaceutical; Metabolite; Transformation_product
Formula: C12H13N3O2
Exact mass: 231.1008
SMILES: CN1N(C(=O)C(=C1C)NC=O)c2ccccc2
InChI: InChI=1S/C12H13N3O2/c1-9-11(13-8-16)12(17)15(14(9)2)10-6-4-3-5-7-10/h3-8H,1-2H3,(H,13,16)
Instrument: TripleTOF 5600 SCIEX
Instrument type: LC-ESI-QTOF
Ms type: MS2
Ion mode: POSITIVE
Collision energy: 30
Fragmentation mode: CID
Ionization: ESI
Column name: Zorbax Eclipse Plus C18 2.1 mm x 150 mm, 3.5 um, Agilent
Retention time: 5.623 min
Precursor m/z: 232.1081
Precursor type: [M+H]+
m/z	relative intensity
42.0432	10
44.0586	10
56.056	696
58.0704	15
68.0539	13
77.0414	326
83.0633	868
85.0771	70
94.0661	172
104.0506	999
111.0548	31
118.066	22
128.0494	23
130.0647	33
132.0451	13
132.0788	10
145.0759	55
146.0593	79
147.0545	10
158.062	25
159.0911	219
169.0761	14
171.0543	10
172.0876	19
173.0711	46
185.0717	15
187.0868	120
189.0887	50
199.0754	26
204.1138	148
214.0976	321
232.1093	55
