Mass spectrum: Iopamidol; LC-ESI-QTOF; MS2; 30 V
Name: Iopamidol
Class: Pharmaceutical
Formula: C17H22I3N3O8
Exact mass: 776.8541
InChI: InChI=1S/C17H22I3N3O8/c1-6(28)15(29)23-14-12(19)9(16(30)21-7(2-24)3-25)11(18)10(13(14)20)17(31)22-8(4-26)5-27/h6-8,24-28H,2-5H2,1H3,(H,21,30)(H,22,31)(H,23,29)/t6-/m0/s1
Instrument: TripleTOF 5600 SCIEX
Instrument type: LC-ESI-QTOF
Ms type: CID
Ion mode: POSITIVE
Collision energy: 30
Ionization: ESI
Column name: Zorbax Eclipse Plus C18 2.1 mm x 150 mm, 3.5 um, Agilent
Retention time: 3.4 min
Precursor m/z: 777.8614
Precursor type: [M+H]+
m/z	relative intensity
430.9752	30
531.9008	165
540.8781	97
541.8864	150
558.8863	999
631.9399	82
686.7975	398
759.8564	142
777.8524	255
