Mass spectrum: 2-Hydroxy-N-phenylpropanamide; LC-ESI-QTOF; MS2; 40 V
Name: 2-Hydroxy-N-phenylpropanamide
Class: Pharmaceutical
Formula: C9H11NO2
Exact mass: 165.079
SMILES: CC(C(=O)NC1=CC=CC=C1)O
InChI: InChI=1S/C9H11NO2/c1-7(11)9(12)10-8-5-3-2-4-6-8/h2-7,11H,1H3,(H,10,12)
Instrument: TripleTOF 5600 SCIEX
Instrument type: LC-ESI-QTOF
Ms type: MS2
Ion mode: POSITIVE
Collision energy: 40
Fragmentation mode: CID
Ionization: ESI
Column name: Zorbax Eclipse Plus C18 2.1 mm x 150 mm, 3.5 um, Agilent
Retention time: 6.608 min
Precursor m/z: 166.0863
Precursor type: [M+H]+
m/z	relative intensity
65.0424	33
77.0432	999
78.0505	38
79.0593	49
91.057	104
92.0529	71
93.0643	143
94.0677	248
103.0566	320
105.0716	33
118.0673	182
119.0735	60
120.0831	629
