Mass spectrum: Sulfisoxazole; LC-ESI-QTOF; MS2; 40 V
Name: Sulfisoxazole
Class: Antimicrobial; Metabolite; Pharmaceutical
Formula: C11H13N3O3S
Exact mass: 267.0678
SMILES: CC1=C(ON=C1C)NS(=O)(=O)C2=CC=C(C=C2)N
InChI: InChI=1S/C11H13N3O3S/c1-7-8(2)13-17-11(7)14-18(15,16)10-5-3-9(12)4-6-10/h3-6,14H,12H2,1-2H3
Instrument: TripleTOF 5600 SCIEX
Instrument type: LC-ESI-QTOF
Ms type: MS2
Ion mode: POSITIVE
Collision energy: 40
Fragmentation mode: CID
Ionization: ESI
Column name: Zorbax Eclipse Plus C18 2.1 mm x 150 mm, 3.5 um, Agilent
Retention time: 7.557 min
Precursor m/z: 268.075
Precursor type: [M+H]+
m/z	relative intensity
44.0607	22
55.0268	27
65.046	342
66.0447	11
68.0551	74
71.0664	54
80.0541	129
85.0813	15
86.0627	15
92.0529	999
96.0458	65
108.0464	867
113.0725	464
140.0142	18
156.0118	437
173.0182	11
268.074	18
