Mass spectrum: Terbutrynesulfoxide; LC-ESI-QTOF; MS2; 40 V
Name: Terbutrynesulfoxide
Class: Transformation_product
Formula: C10H19N5OS
Exact mass: 257.131
SMILES: CCNC1=NC(=NC(=N1)S(=O)C)NC(C)(C)C
InChI: InChI=1S/C10H19N5OS/c1-6-11-7-12-8(15-10(2,3)4)14-9(13-7)17(5)16/h6H2,1-5H3,(H2,11,12,13,14,15)
Instrument: TripleTOF 5600 SCIEX
Instrument type: LC-ESI-QTOF
Ms type: MS2
Ion mode: POSITIVE
Collision energy: 40
Fragmentation mode: CID
Ionization: ESI
Column name: Zorbax Eclipse Plus C18 2.1 mm x 150 mm, 3.5 um, Agilent
Retention time: 8.816 min
Precursor m/z: 258.1383
Precursor type: [M+H]+
m/z	relative intensity
43.0415	55
44.0594	21
55.0368	39
57.0543	16
58.0736	93
68.0318	329
69.0153	328
69.0352	23
70.0462	22
71.0673	302
71.9964	98
83.0659	131
84.9907	219
85.0557	29
86.0402	670
86.0633	23
89.0218	75
95.0525	13
96.0603	531
97.0443	353
98.0634	52
99.0046	45
110.0497	97
111.033	77
111.0578	128
112.0688	150
113.0203	256
113.0869	23
114.0149	62
114.0699	708
114.9996	14
117.0507	108
121.0533	12
122.0617	38
124.064	65
125.0858	16
127.01	135
127.0509	13
128.0592	40
132.0247	45
138.08	523
139.0874	735
140.095	43
141.0251	322
142.0444	136
154.0734	19
155.0402	645
156.0901	999
157.0189	101
159.0235	19
163.0979	16
166.109	37
168.0348	12
169.0436	16
172.0301	18
180.1253	43
184.0662	502
185.0505	136
187.0531	564
195.1477	16
202.0765	32
243.1147	15
