Mass spectrum: Trazodone; LC-ESI-QTOF; MS2; 60 V
Name: Trazodone
Class: Pharmaceutical
Formula: C19H22ClN5O
Exact mass: 371.1513
SMILES: C1CN(CCN1CCCN2C(=O)N3C=CC=CC3=N2)C4=CC(=CC=C4)Cl
InChI: InChI=1S/C19H22ClN5O/c20-16-5-3-6-17(15-16)23-13-11-22(12-14-23)8-4-10-25-19(26)24-9-2-1-7-18(24)21-25/h1-3,5-7,9,15H,4,8,10-14H2
Instrument: TripleTOF 6600 SCIEX
Instrument type: LC-ESI-QTOF
Ms type: MS2
Ion mode: POSITIVE
Collision energy: 60
Fragmentation mode: CID
Ionization: ESI
Column name: Zorbax Eclipse Plus C18 2.1 mm x 150 mm, 3.5 um, Agilent
Retention time: 7.095 min
Precursor m/z: 372.1586
Precursor type: [M+H]+
m/z	relative intensity
70.0635	11
78.0322	551
79.0396	19
80.0476	24
92.0351	20
93.0428	46
94.0504	12
105.0427	45
107.0583	20
116.0474	19
118.062	20
119.0587	44
120.0318	35
120.0536	39
121.039	18
121.0735	49
131.0585	15
132.0654	13
133.0738	69
135.0405	31
136.0494	18
138.0081	14
148.0508	999
154.04	13
166.0392	18
176.0806	128
194.0587	13
