Mass spectrum: 4,4`-Methylenebis(2-chloroaniline); LC-ESI-QTOF; MS2; 100 V
Name: 4,4`-Methylenebis(2-chloroaniline)
Formula: C13H12Cl2N2
Exact mass: 266.0378
SMILES: C1=CC(=C(C=C1CC2=CC(=C(C=C2)N)Cl)Cl)N
InChI: InChI=1S/C13H12Cl2N2/c14-10-6-8(1-3-12(10)16)5-9-2-4-13(17)11(15)7-9/h1-4,6-7H,5,16-17H2
Instrument: TripleTOF 6600 SCIEX
Instrument type: LC-ESI-QTOF
Ms type: MS2
Ion mode: POSITIVE
Collision energy: 100
Fragmentation mode: CID
Ionization: ESI
Column name: Zorbax Eclipse Plus C18 2.1 mm x 150 mm, 3.5 um, Agilent
Retention time: 11.747 min
Precursor m/z: 267.045
Precursor type: [M+H]+
m/z	relative intensity
39.0238	15
50.0156	168
51.0233	712
52.0183	43
52.03	15
61.0085	18
62.0155	24
63.0243	124
65.0382	40
72.9848	21
74.0154	158
75.0225	224
76.018	15
76.0301	59
77.0389	802
78.0354	49
78.0466	84
85.0072	12
86.0161	18
87.0233	49
88.0309	24
89.0388	273
91.0452	18
91.0558	15
98.0146	62
99.0237	87
100.03	15
101.0393	65
102.0342	24
102.0473	93
103.0423	15
103.0548	46
104.0491	426
105.0583	37
113.0386	136
114.0465	59
115.0545	544
116.0487	15
116.0625	15
117.0569	18
123.0074	12
123.0223	15
125.0376	96
126.0463	280
127.0553	108
128.0511	15
128.0628	37
129.044	21
130.039	12
130.0642	37
137.0379	18
138.0442	31
139.0547	849
140.0262	31
140.0505	329
141.0614	37
149.0391	62
150.0461	999
151.0552	457
152.0606	473
153.0443	12
153.0608	31
154.0648	28
155.0591	37
161.0393	34
162.0412	15
163.0535	43
164.0525	28
164.0647	12
165.0559	34
166.0653	326
167.072	189
168.0725	15
175.0423	21
176.0499	31
177.0597	121
178.0659	24
179.0612	56
191.064	12
192.0713	52
193.0819	18
204.0596	12
