Mass spectrum: Fenpropidin; LC-ESI-QTOF; MS2; 90 V
Name: Fenpropidin
Class: Fungicide
Formula: C19H31N
Exact mass: 273.2456
SMILES: CC(CC1=CC=C(C=C1)C(C)(C)C)CN2CCCCC2
InChI: InChI=1S/C19H31N/c1-16(15-20-12-6-5-7-13-20)14-17-8-10-18(11-9-17)19(2,3)4/h8-11,16H,5-7,12-15H2,1-4H3
Instrument: TripleTOF 6600 SCIEX
Instrument type: LC-ESI-QTOF
Ms type: MS2
Ion mode: POSITIVE
Collision energy: 90
Fragmentation mode: CID
Ionization: ESI
Column name: Zorbax Eclipse Plus C18 2.1 mm x 150 mm, 3.5 um, Agilent
Retention time: 9.471 min
Precursor m/z: 274.2529
Precursor type: [M+H]+
m/z	relative intensity
37.0077	17
38.0151	13
39.0234	100
41.0388	59
51.023	24
56.049	10
63.0226	13
65.0385	137
77.0385	177
78.0462	63
79.0538	45
84.0801	26
89.0385	37
91.0544	997
102.0458	22
103.054	86
104.0613	59
105.0698	51
115.0542	999
116.0615	116
117.0699	893
119.0862	14
128.0612	19
129.0695	19
131.0849	48
132.0922	13
