Mass spectrum: Sulfadimethoxine; LC-ESI-QTOF; MS2; 70 V
Name: Sulfadimethoxine
Class: Pharmaceutical
Formula: C12H14N4O4S
Exact mass: 310.0736
SMILES: COC1=NC(=NC(=C1)NS(=O)(=O)C2=CC=C(C=C2)N)OC
InChI: InChI=1S/C12H14N4O4S/c1-19-11-7-10(14-12(15-11)20-2)16-21(17,18)9-5-3-8(13)4-6-9/h3-7H,13H2,1-2H3,(H,14,15,16)
Instrument: TripleTOF 5600 SCIEX
Instrument type: LC-ESI-QTOF
Ms type: MS2
Ion mode: POSITIVE
Collision energy: 70
Fragmentation mode: CID
Ionization: ESI
Column name: Zorbax Eclipse Plus C18 2.1 mm x 150 mm, 3.5 um, Agilent
Retention time: 8.09 min
Precursor m/z: 311.0809
Precursor type: [M+H]+
m/z	relative intensity
39.0229	52
53.0392	32
54.0332	11
56.0492	13
57.0446	19
58.0288	26
65.0388	999
66.0338	40
67.029	145
68.0128	42
69.0085	15
69.0452	12
72.0446	31
80.0496	459
81.0442	47
82.0282	138
84.0318	27
85.0389	12
89.0701	10
90.0351	12
91.0413	16
92.0497	601
93.0576	39
95.0231	10
95.0476	11
96.055	10
98.0483	52
98.0713	14
99.0549	37
108.0444	591
109.0389	27
110.0349	46
111.0189	63
111.0539	27
112.0492	18
113.0357	12
113.0577	52
117.0457	15
118.0523	61
124.0514	27
125.0565	18
126.066	24
140.0468	13
141.0532	93
144.055	48
145.0642	37
154.0611	88
156.0764	72
172.0475	31
173.0581	22
