Mass spectrum: Naringenin; LC-ESI-QTOF; MS2; 110 V
Name: Naringenin
Class: Pharmaceutical
Formula: C15H12O5
Exact mass: 272.0685
SMILES: Oc1ccc(cc1)C2CC(=O)c3c(O)cc(O)cc3O2
InChI: InChI=1S/C15H12O5/c16-9-3-1-8(2-4-9)13-7-12(19)15-11(18)5-10(17)6-14(15)20-13/h1-6,13,16-18H,7H2
Instrument: TripleTOF 5600 SCIEX
Instrument type: LC-ESI-QTOF
Ms type: MS2
Ion mode: NEGATIVE
Collision energy: 110
Fragmentation mode: CID
Ionization: ESI
Column name: Zorbax Eclipse Plus C18 2.1 mm x 150 mm, 3.5 um, Agilent
Retention time: 9.18 min
Precursor m/z: 271.0612
Precursor type: [M-H]-
m/z	relative intensity
37.0078	75
41.0036	527
65.0032	999
65.0392	75
83.013	56
89.0413	56
91.0537	75
92.0254	94
93.0349	376
116.0271	75
117.0342	150
119.0518	113
