Mass spectrum: 2-Phenylbenzimidazole; LC-ESI-QTOF; MS2; 50 V
Name: 2-Phenylbenzimidazole
Class: Industrial_process
Formula: C13H10N2
Exact mass: 194.0844
InChI: InChI=1S/C13H10N2/c1-2-6-10(7-3-1)13-14-11-8-4-5-9-12(11)15-13/h1-9H,(H,14,15)
Instrument: TripleTOF 5600 SCIEX
Instrument type: LC-ESI-QTOF
Ms type: CID
Ion mode: POSITIVE
Collision energy: 50
Ionization: ESI
Column name: Zorbax Eclipse Plus C18 2.1 mm x 150 mm, 3.5 um, Agilent
Retention time: 5.903 min
Precursor m/z: 195.0917
Precursor type: [M+H]+
m/z	relative intensity
39.0227	43
65.0385	999
77.0386	20
92.0497	538
104.0504	16
167.0751	27
193.0767	20
195.0911	121
