Mass spectrum: Valsartanic acid; LC-ESI-QTOF; MS2; 70 V
Name: Valsartanic acid
Class: Pharmaceutical; Transformation_product
Formula: C14H10N4O2
Exact mass: 266.0804
SMILES: O=C(O)C(C=C1)=CC=C1C2=CC=CC=C2C3=NN=NN3
InChI: InChI=1S/C14H10N4O2/c19-14(20)10-7-5-9(6-8-10)11-3-1-2-4-12(11)13-15-17-18-16-13/h1-8H,(H,19,20)(H,15,16,17,18)
Instrument: TripleTOF 5600 SCIEX
Instrument type: LC-ESI-QTOF
Ms type: MS2
Ion mode: POSITIVE
Collision energy: 70
Fragmentation mode: CID
Ionization: ESI
Column name: Zorbax Eclipse Plus C18 2.1 mm x 150 mm, 3.5 um, Agilent
Retention time: 8.027 min
Precursor m/z: 267.0877
Precursor type: [M+H]+
m/z	relative intensity
51.0287	13
75.0249	14
77.0411	100
99.0233	13
125.038	69
126.0454	13
127.0534	45
139.0544	26
140.049	23
149.0387	48
150.0461	527
151.0544	999
152.0598	123
164.0517	24
165.0626	14
175.0417	13
176.0493	69
177.0573	550
178.0639	41
