Mass spectrum: 1,4-Dihydroxyanthraquinone; LC-ESI-QTOF; MS2; 40 V
Name: 1,4-Dihydroxyanthraquinone
Formula: C14H8O4
Exact mass: 240.0423
SMILES: C1=CC=C2C(=C1)C(=O)C3=C(C=CC(=C3C2=O)O)O
InChI: InChI=1S/C14H8O4/c15-9-5-6-10(16)12-11(9)13(17)7-3-1-2-4-8(7)14(12)18/h1-6,15-16H
Instrument: TripleTOF X500R SCIEX
Instrument type: LC-ESI-QTOF
Ms type: MS2
Ion mode: POSITIVE
Collision energy: 40
Fragmentation mode: CID
Ionization: ESI
Column name: Zorbax Eclipse Plus C18 2.1 mm x 150 mm, 3.5 um, Agilent
Retention time: 13.708 min
Precursor m/z: 241.0496
Precursor type: [M+H]+
m/z	relative intensity
103.0547	25
105.0337	92
115.0546	211
127.0541	144
128.0626	458
129.0339	25
129.0701	587
131.051	46
139.0538	726
141.0691	56
143.0491	190
157.0652	999
159.045	77
167.0497	350
171.0436	30
185.0607	381
187.0393	56
195.0446	144
199.0393	72
213.0561	257
223.0433	46
241.0513	195
