Mass spectrum: Pendimethalin; LC-ESI-QTOF; MS2; 110 V
Name: Pendimethalin
Class: Herbicide
Formula: C13H19N3O4
Exact mass: 281.1376
SMILES: CCC(CC)Nc1c(cc(c(c1[N+](=O)[O-])C)C)[N+](=O)[O-]
InChI: InChI=1S/C13H19N3O4/c1-5-10(6-2)14-12-11(15(17)18)7-8(3)9(4)13(12)16(19)20/h7,10,14H,5-6H2,1-4H3
Instrument: TripleTOF 6600 SCIEX
Instrument type: LC-ESI-QTOF
Ms type: MS2
Ion mode: POSITIVE
Collision energy: 110
Fragmentation mode: CID
Ionization: ESI
Column name: Zorbax Eclipse Plus C18 2.1 mm x 150 mm, 3.5 um, Agilent
Retention time: 16.198 min
Precursor m/z: 282.1448
Precursor type: [M+H]+
m/z	relative intensity
37.0078	225
38.0029	59
38.0156	166
39.0236	903
41.0393	451
43.0543	71
49.0078	118
50.0159	618
51.0235	999
52.019	249
53.0147	83
53.0398	95
54.0348	83
61.0082	71
62.0159	190
63.0235	523
64.0186	142
65.0274	47
65.0391	642
66.0348	59
66.047	47
74.0155	130
75.0123	95
75.0233	166
76.0187	214
76.0313	71
77.039	499
78.0347	261
80.049	118
89.0395	309
91.054	166
92.0502	71
102.0334	59
105.0457	71
117.0572	59
