Mass spectrum: Betaxolol; LC-ESI-QTOF; MS2; 40 V
Name: Betaxolol
Class: Pharmaceutical
Formula: C18H29NO3
Exact mass: 307.2147
SMILES: CC(C)NCC(COC1=CC=C(C=C1)CCOCC2CC2)O
InChI: InChI=1S/C18H29NO3/c1-14(2)19-11-17(20)13-22-18-7-5-15(6-8-18)9-10-21-12-16-3-4-16/h5-8,14,16-17,19-20H,3-4,9-13H2,1-2H3
Instrument: TripleTOF 5600 SCIEX
Instrument type: LC-ESI-QTOF
Ms type: MS2
Ion mode: POSITIVE
Collision energy: 40
Fragmentation mode: CID
Ionization: ESI
Column name: Zorbax Eclipse Plus C18 2.1 mm x 150 mm, 3.5 um, Agilent
Retention time: 7.064 min
Precursor m/z: 308.222
Precursor type: [M+H]+
m/z	relative intensity
43.0327	10
44.058	20
56.059	280
58.074	63
67.0611	30
72.0872	436
74.0661	466
77.0442	71
79.06	76
81.0759	28
84.0856	57
86.0654	16
91.0587	255
93.0742	65
98.1005	401
100.1161	32
103.0583	104
104.0659	18
105.0731	218
107.0518	31
107.0884	18
110.0991	36
115.0563	69
116.0657	35
116.1099	638
117.0721	65
119.0516	11
119.0873	43
121.0671	468
127.0562	17
128.0636	57
128.1104	11
129.0714	75
131.051	30
131.0869	102
133.0657	319
133.0987	11
135.0806	41
141.0713	65
142.0779	19
143.0873	43
144.0568	68
145.0664	38
146.0745	16
147.0816	84
148.0759	50
149.0609	13
151.0757	54
157.0655	28
157.1019	16
158.0713	23
159.0805	241
161.0965	230
163.0769	26
163.1128	17
165.0875	17
169.0658	15
171.0804	42
172.0871	17
173.0969	14
175.0751	32
175.1114	61
176.1071	48
177.0909	221
184.0858	19
185.0946	34
187.1126	31
189.0923	47
194.1171	29
201.1275	21
203.1069	32
205.1222	27
212.128	58
213.1261	38
218.1524	44
219.1419	15
224.1276	18
231.1368	93
236.1651	39
254.1747	48
266.1737	94
290.2123	47
307.2502	16
308.2205	999
