Mass spectrum: Carazolol; LC-ESI-QTOF; MS2; 100 V
Name: Carazolol
Class: Pharmaceutical
Formula: C18H22N2O2
Exact mass: 298.1681
SMILES: CC(C)NCC(O)COc1cccc2[nH]c3ccccc3c12
InChI: InChI=1S/C18H22N2O2/c1-12(2)19-10-13(21)11-22-17-9-5-8-16-18(17)14-6-3-4-7-15(14)20-16/h3-9,12-13,19-21H,10-11H2,1-2H3
Instrument: TripleTOF 5600 SCIEX
Instrument type: LC-ESI-QTOF
Ms type: MS2
Ion mode: POSITIVE
Collision energy: 100
Fragmentation mode: CID
Ionization: ESI
Column name: Zorbax Eclipse Plus C18 2.1 mm x 150 mm, 3.5 um, Agilent
Retention time: 6.882 min
Precursor m/z: 299.1754
Precursor type: [M+H]+
m/z	relative intensity
56.0555	152
58.0709	38
58.0815	11
65.0417	17
72.0835	34
74.0182	17
74.0639	36
75.0246	50
77.0412	197
78.0485	25
87.0248	25
89.0402	211
90.047	39
91.0549	12
99.024	11
101.0394	82
102.0464	62
103.0531	11
113.0382	173
114.0329	22
114.0453	23
115.0535	224
116.0497	36
117.0564	68
125.0378	25
126.0465	92
127.0541	389
128.0611	561
129.0552	28
129.0694	39
130.0631	25
137.0394	15
138.0466	60
139.0543	999
140.0492	462
141.059	39
150.0465	33
151.0539	133
152.0612	141
153.0566	55
154.0651	380
155.0723	31
163.0547	85
164.0557	127
165.0692	200
166.0647	523
167.0729	318
175.0526	9
176.0599	27
176.0695	11
177.0591	44
178.0646	69
179.0741	11
182.0605	19
189.0571	14
190.065	130
191.0728	286
191.0977	14
192.0812	77
193.0872	14
201.0605	14
202.0628	14
203.0738	19
204.0773	11
