Mass spectrum: Enilconazole; LC-ESI-QTOF; MS2; 70 V
Name: Enilconazole
Class: Pharmaceutical; Fungicide; Biocide
Formula: C14H14Cl2N2O
Exact mass: 296.0483
SMILES: Clc1ccc(C(Cn2ccnc2)OCC=C)c(Cl)c1
InChI: InChI=1S/C14H14Cl2N2O/c1-2-7-19-14(9-18-6-5-17-10-18)12-4-3-11(15)8-13(12)16/h2-6,8,10,14H,1,7,9H2
Instrument: TripleTOF 5600 SCIEX
Instrument type: LC-ESI-QTOF
Ms type: MS2
Ion mode: POSITIVE
Collision energy: 70
Fragmentation mode: CID
Ionization: ESI
Column name: Zorbax Eclipse Plus C18 2.1 mm x 150 mm, 3.5 um, Agilent
Retention time: 8.159 min
Precursor m/z: 297.0556
Precursor type: [M+H]+
m/z	relative intensity
67.0447	75
69.0476	461
69.06	96
72.9868	64
80.054	64
81.0463	418
82.0538	64
89.0403	461
96.9832	53
98.9993	193
99.0187	53
101.0429	96
102.0463	118
103.0522	96
115.0542	204
122.9993	666
124.0077	182
128.0609	85
129.0703	75
132.9621	107
137.0139	53
138.0253	75
139.0552	53
141.0688	171
149.0133	96
158.9762	999
