Mass spectrum: 6-Methylthioinosin; LC-ESI-QTOF; MS2; 90 V
Name: 6-Methylthioinosin
Class: Pharmaceutical
Formula: C11H14N4O4S
Exact mass: 298.0736
SMILES: CSc1ncnc2n(cnc12)C3OC(CO)C(O)C3O
InChI: InChI=1S/C11H14N4O4S/c1-20-10-6-9(12-3-13-10)15(4-14-6)11-8(18)7(17)5(2-16)19-11/h3-5,7-8,11,16-18H,2H2,1H3
Instrument: TripleTOF 5600 SCIEX
Instrument type: LC-ESI-QTOF
Ms type: MS2
Ion mode: POSITIVE
Collision energy: 90
Fragmentation mode: CID
Ionization: ESI
Column name: Zorbax Eclipse Plus C18 2.1 mm x 150 mm, 3.5 um, Agilent
Retention time: 5.666 min
Precursor m/z: 299.0809
Precursor type: [M+H]+
m/z	relative intensity
40.0267	30
43.0334	35
45.0398	30
54.0274	30
55.021	20
57.0374	30
65.0173	321
66.0239	35
67.0327	249
69.0355	30
69.9777	25
70.0422	56
70.0573	20
70.9848	321
71.0146	66
71.9915	30
71.9993	25
77.0163	35
79.0311	40
81.0327	76
82.9836	112
85.0289	40
92.0248	621
93.0321	35
94.04	81
97.9937	392
98.9999	96
106.0395	127
107.0474	56
119.0351	861
120.0426	30
121.0502	45
125.004	999
126.011	229
133.0507	30
134.0578	142
152.0145	611
167.0383	101
