Mass spectrum: Bexarotene; LC-ESI-QTOF; MS2; 90 V
Name: Bexarotene
Class: Pharmaceutical
Formula: C24H28O2
Exact mass: 348.2089
SMILES: Cc1cc2c(cc1C(=C)c3ccc(cc3)C(O)=O)C(C)(C)CCC2(C)C
InChI: InChI=1S/C24H28O2/c1-15-13-20-21(24(5,6)12-11-23(20,3)4)14-19(15)16(2)17-7-9-18(10-8-17)22(25)26/h7-10,13-14H,2,11-12H2,1,3-6H3,(H,25,26)
Instrument: TripleTOF 5600 SCIEX
Instrument type: LC-ESI-QTOF
Ms type: MS2
Ion mode: POSITIVE
Collision energy: 90
Fragmentation mode: CID
Ionization: ESI
Column name: Zorbax Eclipse Plus C18 2.1 mm x 150 mm, 3.5 um, Agilent
Retention time: 17.591 min
Precursor m/z: 349.2162
Precursor type: [M+H]+
m/z	relative intensity
77.0414	999
91.0569	333
102.0489	285
103.0554	380
115.0564	523
127.0548	333
128.0601	951
141.0684	570
142.0747	190
152.0623	570
153.0722	666
154.0759	237
155.0889	285
165.0707	713
167.086	285
168.0932	190
178.0789	523
189.0691	713
190.0768	285
191.0869	761
202.077	666
203.0866	237
215.0872	856
228.0934	285
229.1087	190
