Mass spectrum: Azacyclonol; LC-ESI-QTOF; MS2; 80 V
Name: Azacyclonol
Class: Pharmaceutical
Formula: C18H21NO
Exact mass: 267.1623
SMILES: OC(C1CCNCC1)(C2=CC=CC=C2)C3=CC=CC=C3
InChI: InChI=1S/C18H21NO/c20-18(15-7-3-1-4-8-15,16-9-5-2-6-10-16)17-11-13-19-14-12-17/h1-10,17,19-20H,11-14H2
Instrument: TripleTOF 5600 SCIEX
Instrument type: LC-ESI-QTOF
Ms type: MS2
Ion mode: POSITIVE
Collision energy: 80
Fragmentation mode: CID
Ionization: ESI
Column name: Zorbax Eclipse Plus C18 2.1 mm x 150 mm, 3.5 um, Agilent
Retention time: 6.644 min
Precursor m/z: 268.1696
Precursor type: [M+H]+
m/z	relative intensity
39.0229	33
41.0387	10
42.034	30
44.05	19
51.0232	39
56.0498	28
63.0227	32
65.0389	409
67.0413	19
68.0496	24
75.0232	12
77.0389	352
78.0467	42
79.054	51
80.0484	23
82.065	62
84.0816	16
89.0395	37
91.0545	999
101.04	21
102.0462	112
103.054	105
105.0709	48
115.0544	370
116.0587	16
117.058	19
117.0713	24
126.0462	44
127.0546	222
128.0625	890
129.0694	28
130.0681	21
139.0549	17
141.0699	48
150.0489	10
151.0565	44
152.0627	160
163.0558	12
164.0623	21
165.0703	263
176.0642	17
178.0789	76
189.0695	53
190.0787	14
191.0891	19
200.0625	12
202.0788	64
203.08	16
