Mass spectrum: Nevirapine; LC-ESI-QTOF; MS2; 40 V
Name: Nevirapine
Class: Pharmaceutical
Formula: C15H14N4O
Exact mass: 266.1168
SMILES: Cc1ccnc2N(C3CC3)c4ncccc4C(=O)Nc12
InChI: InChI=1S/C15H14N4O/c1-9-6-8-17-14-12(9)18-15(20)11-3-2-7-16-13(11)19(14)10-4-5-10/h2-3,6-8,10H,4-5H2,1H3,(H,18,20)
Instrument: TripleTOF 5600 SCIEX
Instrument type: LC-ESI-QTOF
Ms type: MS2
Ion mode: POSITIVE
Collision energy: 40
Fragmentation mode: CID
Ionization: ESI
Column name: Zorbax Eclipse Plus C18 2.1 mm x 150 mm, 3.5 um, Agilent
Retention time: 7.301 min
Precursor m/z: 267.124
Precursor type: [M+H]+
m/z	relative intensity
78.0359	21
80.0523	153
93.0456	11
105.0442	20
107.0608	157
108.0683	28
121.0399	12
131.0602	36
134.0703	11
143.0595	15
144.0676	32
145.0754	19
146.0709	10
147.0914	11
158.0706	13
159.0545	22
160.0629	27
161.0705	67
170.0715	23
171.0789	24
173.0704	10
181.0672	10
182.0712	65
183.0787	52
184.0871	172
185.0608	25
196.0858	14
197.0825	156
198.09	308
199.0723	25
199.0973	15
207.0788	15
208.0795	15
209.0819	20
210.0669	91
211.0726	31
211.0957	30
212.0792	38
212.1101	13
221.0902	13
222.1016	21
223.0977	47
224.1065	28
225.0774	131
226.0852	999
227.0928	413
234.0909	10
235.0733	10
237.077	84
238.085	19
239.0923	25
239.1286	29
249.1131	60
250.0972	30
251.0932	134
252.1008	50
267.1249	292
