Mass spectrum: Cybutryne; LC-ESI-QTOF; MS2; 40 V
Name: Cybutryne
Class: Antimicrobial; Herbicide
Formula: C11H19N5S
Exact mass: 253.1361
SMILES: CSc1nc(NC2CC2)nc(NC(C)(C)C)n1
InChI: InChI=1S/C11H19N5S/c1-11(2,3)16-9-13-8(12-7-5-6-7)14-10(15-9)17-4/h7H,5-6H2,1-4H3,(H2,12,13,14,15,16)
Instrument: TripleTOF 5600 SCIEX
Instrument type: LC-ESI-QTOF
Ms type: MS2
Ion mode: POSITIVE
Collision energy: 40
Fragmentation mode: CID
Ionization: ESI
Column name: Zorbax Eclipse Plus C18 2.1 mm x 150 mm, 3.5 um, Agilent
Retention time: 10.202 min
Precursor m/z: 254.1434
Precursor type: [M+H]+
m/z	relative intensity
55.0375	10
56.0547	100
57.0747	13
58.0709	21
68.0284	144
68.0596	10
74.0092	120
81.0471	24
83.063	265
87.0278	26
91.0341	245
108.0558	212
114.0119	13
114.0379	17
116.0281	76
125.0823	76
150.0771	59
156.0348	30
156.059	68
158.049	10
170.0496	19
171.0687	17
198.0814	999
254.1437	122
