Mass spectrum: 5-Chlorobenzotriazole; LC-ESI-QTOF; MS2; 80 V
Name: 5-Chlorobenzotriazole
Class: Industrial_process
Formula: C6H4ClN3
Exact mass: 153.0094
SMILES: Clc1ccc2n[nH]nc2c1
InChI: InChI=1S/C6H4ClN3/c7-4-1-2-5-6(3-4)9-10-8-5/h1-3H,(H,8,9,10)
Instrument: TripleTOF 5600 SCIEX
Instrument type: LC-ESI-QTOF
Ms type: MS2
Ion mode: POSITIVE
Collision energy: 80
Fragmentation mode: CID
Ionization: ESI
Column name: Zorbax Eclipse Plus C18 2.1 mm x 150 mm, 3.5 um, Agilent
Retention time: 7.635 min
Precursor m/z: 154.0167
Precursor type: [M+H]+
m/z	relative intensity
41.0356	28
51.0233	36
52.0255	181
60.0051	73
65.0304	74
71.9791	10
72.988	999
74.0178	42
75.0139	204
76.0213	125
88.0195	14
89.0275	19
90.0351	37
91.0424	10
99.0	26
