Mass spectrum: Meclofenamic acid; LC-ESI-QTOF; MS2; 130 V
Name: Meclofenamic acid
Class: Pharmaceutical
Formula: C14H11Cl2NO2
Exact mass: 295.0167
SMILES: Cc1ccc(c(c1Cl)Nc2ccccc2C(=O)O)Cl
InChI: InChI=1S/C14H11Cl2NO2/c1-8-6-7-10(15)13(12(8)16)17-11-5-3-2-4-9(11)14(18)19/h2-7,17H,1H3,(H,18,19)
Instrument: TripleTOF 5600 SCIEX
Instrument type: LC-ESI-QTOF
Ms type: MS2
Ion mode: POSITIVE
Collision energy: 130
Fragmentation mode: CID
Ionization: ESI
Column name: Zorbax Eclipse Plus C18 2.1 mm x 150 mm, 3.5 um, Agilent
Retention time: 13.705 min
Precursor m/z: 296.024
Precursor type: [M+H]+
m/z	relative intensity
51.0288	206
73.009	20
74.0169	294
75.0114	16
75.0252	338
76.0199	23
76.0319	128
77.0405	348
78.0472	33
86.0161	57
87.0239	71
88.0292	27
89.0385	74
98.0161	203
99.0089	16
99.022	209
100.0294	60
100.0409	16
101.0371	115
102.0335	40
102.0456	94
110.0137	30
111.0218	40
113.0369	50
122.0148	40
123.0219	27
124.0306	50
125.0371	193
126.0454	274
127.0474	88
128.0496	57
137.037	30
139.0518	23
140.0486	27
149.037	179
150.045	999
151.0524	504
151.0745	16
151.0921	16
152.0578	274
153.0569	40
164.0469	16
175.0404	64
176.0483	115
177.0554	240
178.063	128
179.0719	16
