Mass spectrum: Noramidopyrine; LC-ESI-QTOF; MS2; 150 V
Name: Noramidopyrine
Class: Pharmaceutical; Transformation_product-Metabolite
Formula: C12H15N3O
Exact mass: 217.1215
SMILES: CC1=C(C(=O)N(N1C)C2=CC=CC=C2)NC
InChI: InChI=1S/C12H15N3O/c1-9-11(13-2)12(16)15(14(9)3)10-7-5-4-6-8-10/h4-8,13H,1-3H3
Instrument: TripleTOF 6600 SCIEX
Instrument type: LC-ESI-QTOF
Ms type: MS2
Ion mode: POSITIVE
Collision energy: 150
Fragmentation mode: CID
Ionization: ESI
Column name: Zorbax Eclipse Plus C18 2.1 mm x 150 mm, 3.5 um, Agilent
Retention time: 4.819 min
Precursor m/z: 218.1288
Precursor type: [M+H]+
m/z	relative intensity
35.9998	40
37.0071	125
38.0027	25
38.0153	70
39.023	125
40.0184	55
41.0259	205
42.0338	316
49.0071	296
50.0152	999
51.0228	396
52.0176	45
53.0132	70
56.0492	105
61.0075	35
62.0154	55
63.023	50
74.0142	90
