Mass spectrum: Cetylpyridinium; LC-ESI-QTOF; MS2; 140 V
Name: Cetylpyridinium
Class: Antimicrobial
Formula: C21H38N
Exact mass: 304.2999
SMILES: CCCCCCCCCCCCCCCCN1C=C[CH+]C=C1
InChI: InChI=1S/C21H38N/c1-2-3-4-5-6-7-8-9-10-11-12-13-14-16-19-22-20-17-15-18-21-22/h15,17-18,20-21H,2-14,16,19H2,1H3/q+1
Instrument: TripleTOF 5600 SCIEX
Instrument type: LC-ESI-QTOF
Ms type: CID
Ion mode: POSITIVE
Collision energy: 140
Ionization: ESI
Column name: Zorbax Eclipse Plus C18 2.1 mm x 150 mm, 3.5 um, Agilent
Retention time: 12.994 min
Precursor m/z: 304.2999
Precursor type: [M]+
m/z	relative intensity
51.0269	97
53.0441	339
78.0347	202
79.043	58
80.0515	999
93.0576	58
