Mass spectrum: Dodecyltrimethylammonium; LC-ESI-QTOF; MS2; 40 V
Name: Dodecyltrimethylammonium
Formula: [C15H34N]+
Exact mass: 228.2686
SMILES: CCCCCCCCCCCC[N+](C)(C)C
InChI: InChI=1S/C15H34N/c1-5-6-7-8-9-10-11-12-13-14-15-16(2,3)4/h5-15H2,1-4H3/q+1
Instrument: TripleTOF 5600 SCIEX
Instrument type: LC-ESI-QTOF
Ms type: MS2
Ion mode: POSITIVE
Collision energy: 40
Fragmentation mode: CID
Ionization: ESI
Column name: Zorbax Eclipse Plus C18 2.1 mm x 150 mm, 3.5 um, Agilent
Retention time: 10.001 min
Precursor m/z: 228.2686
Precursor type: [M]+
m/z	relative intensity
41.0386	102
43.0544	177
44.0496	113
45.0572	62
57.0696	257
58.0647	113
60.0806	999
71.0843	69
228.2692	411
