Mass spectrum: 4-Acetamidoantipyrine; LC-ESI-QTOF; MS2; 120 V
Name: 4-Acetamidoantipyrine
Class: Pharmaceutical; Metabolite; Transformation_product
Formula: C13H15N3O2
Exact mass: 245.1164
SMILES: CN1N(C(=O)C(=C1C)NC(C)=O)c2ccccc2
InChI: InChI=1S/C13H15N3O2/c1-9-12(14-10(2)17)13(18)16(15(9)3)11-7-5-4-6-8-11/h4-8H,1-3H3,(H,14,17)
Instrument: TripleTOF 5600 SCIEX
Instrument type: LC-ESI-QTOF
Ms type: MS2
Ion mode: POSITIVE
Collision energy: 120
Fragmentation mode: CID
Ionization: ESI
Column name: Zorbax Eclipse Plus C18 2.1 mm x 150 mm, 3.5 um, Agilent
Retention time: 5.586 min
Precursor m/z: 246.1237
Precursor type: [M+H]+
m/z	relative intensity
41.0368	36
42.0418	183
42.0497	125
43.0267	413
53.0191	99
54.0436	31
56.056	999
65.0433	62
66.051	26
69.0518	26
74.0182	36
75.0269	31
76.0248	26
77.0421	570
77.0607	20
77.0731	20
81.0484	67
83.0625	240
89.0416	52
