Mass spectrum: Disperse Orange 61; LC-ESI-QTOF; MS2; 40 V
Name: Disperse Orange 61
Formula: C17H15Br2N5O2
Exact mass: 478.9592
SMILES: CCN(CCC#N)C1=CC=C(C=C1)N=NC2=C(C=C(C=C2Br)[N+](=O)[O-])Br
InChI: InChI=1S/C17H15Br2N5O2/c1-2-23(9-3-8-20)13-6-4-12(5-7-13)21-22-17-15(18)10-14(24(25)26)11-16(17)19/h4-7,10-11H,2-3,9H2,1H3
Instrument: TripleTOF X500R SCIEX
Instrument type: LC-ESI-QTOF
Ms type: MS2
Ion mode: POSITIVE
Collision energy: 40
Fragmentation mode: CID
Ionization: ESI
Column name: Zorbax Eclipse Plus C18 2.1 mm x 150 mm, 3.5 um, Agilent
Retention time: 15.39 min
Precursor m/z: 479.9665
Precursor type: [M+H]+
m/z	relative intensity
105.0575	17
118.0644	18
120.0811	110
132.0823	11
133.0891	92
134.097	28
145.0763	71
147.0921	29
148.0868	27
172.0866	14
173.0833	13
173.1073	24
187.1106	21
277.8447	59
286.0214	12
305.8493	41
361.0288	187
364.9187	12
392.9475	103
410.908	230
425.9301	13
433.9749	21
438.8771	12
438.9399	999
439.9488	38
439.9965	19
479.9659	26
