Mass spectrum: Doxycycline; LC-ESI-QTOF; MS2; 140 V
Name: Doxycycline
Class: Antimicrobial; Pharmaceutical
Formula: C22H24N2O8
Exact mass: 444.1533
SMILES: CC1C2C(C3C(C(=O)C(=C(C3(C(=O)C2=C(C4=C1C=CC=C4O)O)O)O)C(=O)N)N(C)C)O
InChI: InChI=1S/C22H24N2O8/c1-7-8-5-4-6-9(25)11(8)16(26)12-10(7)17(27)14-15(24(2)3)18(28)13(21(23)31)20(30)22(14,32)19(12)29/h4-7,10,14-15,17,25-27,30,32H,1-3H3,(H2,23,31)
Instrument: TripleTOF 5600 SCIEX
Instrument type: LC-ESI-QTOF
Ms type: MS2
Ion mode: POSITIVE
Collision energy: 140
Fragmentation mode: CID
Ionization: ESI
Column name: Zorbax Eclipse Plus C18 2.1 mm x 150 mm, 3.5 um, Agilent
Retention time: 6.499 min
Precursor m/z: 445.1605
Precursor type: [M+H]+
m/z	relative intensity
69.0022	63
77.0447	341
89.0426	126
91.0565	177
101.0422	75
102.0494	126
113.0401	88
114.0495	75
115.0568	910
116.0622	50
126.0497	214
127.0556	366
128.0631	366
129.0681	63
131.0517	88
139.0551	999
140.0651	164
141.0713	126
150.0476	189
151.0559	404
152.0641	670
153.0711	88
155.0541	50
160.053	63
163.0539	341
164.0637	189
165.07	366
168.0629	126
176.0633	214
178.0769	88
181.0632	101
187.0546	75
189.0648	75
197.0626	50
