Mass spectrum: Triphenylphosphine oxide; LC-ESI-QTOF; MS2; 60 V
Name: Triphenylphosphine oxide
Class: Industrial_process
Formula: C18H15OP
Exact mass: 278.0861
SMILES: O=[P](c1ccccc1)(c2ccccc2)c3ccccc3
InChI: InChI=1S/C18H15OP/c19-20(16-10-4-1-5-11-16,17-12-6-2-7-13-17)18-14-8-3-9-15-18/h1-15H
Instrument: TripleTOF 5600 SCIEX
Instrument type: LC-ESI-QTOF
Ms type: MS2
Ion mode: POSITIVE
Collision energy: 60
Fragmentation mode: CID
Ionization: ESI
Column name: Zorbax Eclipse Plus C18 2.1 mm x 150 mm, 3.5 um, Agilent
Retention time: 10.458 min
Precursor m/z: 279.0933
Precursor type: [M+H]+
m/z	relative intensity
51.03	110
68.9923	36
77.0421	999
95.0058	252
107.0051	24
115.0541	36
122.9999	58
125.0135	21
127.0541	17
128.0622	181
129.0698	111
133.0205	136
141.0704	53
145.0197	21
147.0364	31
152.0631	85
153.0701	131
154.0785	121
157.0189	26
170.0271	58
171.0371	262
173.0516	196
183.0367	223
199.0322	17
201.0472	297
