Mass spectrum: Epirubicin; LC-ESI-QTOF; MS2; 110 V
Name: Epirubicin
Class: Pharmaceutical
Formula: C27H29NO11
Exact mass: 543.1741
SMILES: CC1C(C(CC(O1)OC2CC(CC3=C(C4=C(C(=C23)O)C(=O)C5=C(C4=O)C=CC=C5OC)O)(C(=O)CO)O)N)O
InChI: InChI=1S/C27H29NO11/c1-10-22(31)13(28)6-17(38-10)39-15-8-27(36,16(30)9-29)7-12-19(15)26(35)21-20(24(12)33)23(32)11-4-3-5-14(37-2)18(11)25(21)34/h3-5,10,13,15,17,22,29,31,33,35-36H,6-9,28H2,1-2H3
Instrument: TripleTOF 5600 SCIEX
Instrument type: LC-ESI-QTOF
Ms type: MS2
Ion mode: POSITIVE
Collision energy: 110
Fragmentation mode: CID
Ionization: ESI
Column name: Zorbax Eclipse Plus C18 2.1 mm x 150 mm, 3.5 um, Agilent
Retention time: 7.492 min
Precursor m/z: 544.1813
Precursor type: [M+H]+
m/z	relative intensity
58.0679	134
60.0509	161
69.0351	161
72.0465	134
77.04	297
86.0607	702
89.04	134
112.0755	108
113.0586	188
115.0516	108
117.0331	108
118.0391	134
121.0261	134
128.026	161
129.0349	216
135.0418	216
142.0415	134
144.0204	188
152.0611	188
165.07	458
169.0281	108
170.0397	188
172.0119	134
173.0281	161
176.0603	999
177.0725	188
178.0772	404
187.055	323
189.0692	567
194.0762	161
201.0703	323
202.0787	917
203.0828	188
204.0559	647
205.0642	647
206.0725	269
213.0718	297
216.0564	216
217.0632	161
219.0747	161
221.0603	513
229.0652	161
230.0702	161
231.0817	188
232.0527	242
233.062	539
234.0666	323
244.0488	323
245.06	242
247.0782	134
249.0526	458
258.0638	108
259.08	161
261.0502	323
262.0622	188
273.0534	269
277.0559	216
278.0627	134
289.0477	755
290.0591	108
305.0465	216
306.0533	513
317.0459	351
329.0498	134
346.0445	161
