Mass spectrum: 2,2,6,6-Tetramethylpiperidine; LC-ESI-QTOF; MS2; 60 V
Name: 2,2,6,6-Tetramethylpiperidine
Class: Industrial_process
Formula: C9H19N
Exact mass: 141.1517
SMILES: CC1(CCCC(N1)(C)C)C
InChI: InChI=1S/C9H19N/c1-8(2)6-5-7-9(3,4)10-8/h10H,5-7H2,1-4H3
Instrument: TripleTOF 6600 SCIEX
Instrument type: LC-ESI-QTOF
Ms type: MS2
Ion mode: POSITIVE
Collision energy: 60
Fragmentation mode: CID
Ionization: ESI
Column name: Zorbax Eclipse Plus C18 2.1 mm x 150 mm, 3.5 um, Agilent
Retention time: 4.823 min
Precursor m/z: 142.159
Precursor type: [M+H]+
m/z	relative intensity
35.9989	11
37.0066	88
38.0019	13
38.0143	84
39.0227	999
41.0382	480
42.0334	58
43.0408	17
53.0383	15
58.0641	27
