Mass spectrum: Venlafaxine; LC-ESI-QTOF; MS2; 80 V
Name: Venlafaxine
Class: Pharmaceutical
Formula: C17H27NO2
Exact mass: 277.2042
SMILES: CN(C)CC(c1ccc(cc1)OC)C2(CCCCC2)O
InChI: InChI=1S/C17H27NO2/c1-18(2)13-16(17(19)11-5-4-6-12-17)14-7-9-15(20-3)10-8-14/h7-10,16,19H,4-6,11-13H2,1-3H3
Instrument: TripleTOF 5600 SCIEX
Instrument type: LC-ESI-QTOF
Ms type: MS2
Ion mode: POSITIVE
Collision energy: 80
Fragmentation mode: CID
Ionization: ESI
Column name: Zorbax Eclipse Plus C18 2.1 mm x 150 mm, 3.5 um, Agilent
Retention time: 6.626 min
Precursor m/z: 278.2115
Precursor type: [M+H]+
m/z	relative intensity
42.0424	62
51.0287	20
55.0598	13
56.0535	11
58.0713	999
65.0436	133
67.0615	11
77.0416	350
78.0491	390
79.0568	57
81.0718	53
89.0404	15
91.0563	425
102.0451	11
103.0549	49
104.063	33
105.0711	13
106.0419	37
107.0488	24
115.0547	202
116.0618	40
119.049	11
121.0652	327
127.0558	20
128.0616	62
129.0696	26
131.0503	62
132.0591	15
141.068	11
144.0562	11
158.0734	13
