Mass spectrum: Trifloxystrobin; LC-ESI-QTOF; MS2; 40 V
Name: Trifloxystrobin
Class: Fungicide
Formula: C20H19F3N2O4
Exact mass: 408.1297
SMILES: CC(=NOCC1=CC=CC=C1C(=NOC)C(=O)OC)C2=CC(=CC=C2)C(F)(F)F
InChI: InChI=1S/C20H19F3N2O4/c1-13(14-8-6-9-16(11-14)20(21,22)23)24-29-12-15-7-4-5-10-17(15)18(25-28-3)19(26)27-2/h4-11H,12H2,1-3H3
Instrument: TripleTOF 5600 SCIEX
Instrument type: LC-ESI-QTOF
Ms type: MS2
Ion mode: POSITIVE
Collision energy: 40
Fragmentation mode: CID
Ionization: ESI
Column name: Zorbax Eclipse Plus C18 2.1 mm x 150 mm, 3.5 um, Agilent
Retention time: 15.037 min
Precursor m/z: 409.137
Precursor type: [M+H]+
m/z	relative intensity
59.0218	10
89.0424	33
91.0577	54
95.0322	10
103.0564	10
105.0716	50
115.0544	11
116.0505	638
117.0587	89
118.0662	91
119.0509	26
119.0733	13
130.0659	54
131.0736	601
132.0811	285
143.0373	40
145.0263	697
146.0613	206
147.0685	35
148.0766	16
162.091	18
173.0326	138
175.0635	24
178.0864	19
186.0522	999
206.0813	222
