Mass spectrum: Neburon; LC-ESI-QTOF; MS2; 110 V
Name: Neburon
Class: Herbicide
Formula: C12H16Cl2N2O
Exact mass: 274.064
SMILES: CCCCN(C)C(=O)Nc1ccc(Cl)c(Cl)c1
InChI: InChI=1S/C12H16Cl2N2O/c1-3-4-7-16(2)12(17)15-9-5-6-10(13)11(14)8-9/h5-6,8H,3-4,7H2,1-2H3,(H,15,17)
Instrument: TripleTOF 5600 SCIEX
Instrument type: LC-ESI-QTOF
Ms type: MS2
Ion mode: POSITIVE
Collision energy: 110
Fragmentation mode: CID
Ionization: ESI
Column name: Zorbax Eclipse Plus C18 2.1 mm x 150 mm, 3.5 um, Agilent
Retention time: 13.559 min
Precursor m/z: 275.0712
Precursor type: [M+H]+
m/z	relative intensity
57.074	399
58.0345	316
58.0486	83
65.0434	449
72.9865	699
73.0079	66
74.0184	999
74.0348	83
75.0296	133
82.9481	266
92.0538	149
96.9871	133
99.0037	116
100.0067	116
106.9446	166
108.982	149
125.0012	83
127.0164	149
132.9598	216
