Mass spectrum: Estrone 3-methyl ether; LC-ESI-QTOF; MS2; 90 V
Name: Estrone 3-methyl ether
Class: Pharmaceutical
Formula: C19H24O2
Exact mass: 284.1776
SMILES: C[C@]12CC[C@@H]3c4ccc(cc4CC[C@H]3[C@@H]1CCC2=O)OC
InChI: InChI=1S/C19H24O2/c1-19-10-9-15-14-6-4-13(21-2)11-12(14)3-5-16(15)17(19)7-8-18(19)20/h4,6,11,15-17H,3,5,7-10H2,1-2H3/t15-,16-,17+,19+/m1/s1
Instrument: TripleTOF 5600 SCIEX
Instrument type: LC-ESI-QTOF
Ms type: MS2
Ion mode: POSITIVE
Collision energy: 90
Fragmentation mode: CID
Ionization: ESI
Column name: Zorbax Eclipse Plus C18 2.1 mm x 150 mm, 3.5 um, Agilent
Retention time: 10.549 min
Precursor m/z: 285.1849
Precursor type: [M+H]+
m/z	relative intensity
65.0431	123
75.0249	15
76.0334	23
77.0412	259
78.0493	197
79.0565	46
89.0398	96
91.056	298
91.0757	23
102.0463	220
103.0533	170
103.0843	19
104.0619	54
107.05	27
115.0545	999
116.0625	61
117.0712	30
121.0693	27
126.046	38
127.0539	185
128.0623	693
128.1083	27
129.0706	108
130.0802	19
131.0487	112
131.0644	15
132.0572	23
139.0523	46
140.0613	15
141.0699	143
144.0574	27
145.0632	19
151.0557	42
152.0624	290
153.0703	147
154.0782	23
155.089	15
157.0684	23
158.0715	27
163.0558	23
164.0595	30
165.0695	220
169.0645	15
178.0789	54
181.0636	38
189.0693	15
