Mass spectrum: Norlidocaine; LC-ESI-QTOF; MS2; 90 V
Name: Norlidocaine
Class: Pharmaceutical; Metabolite; Transformation_product-Metabolite
Formula: C12H18N2O
Exact mass: 206.1419
SMILES: CCNCC(=O)Nc1c(cccc1C)C
InChI: InChI=1S/C12H18N2O/c1-4-13-8-11(15)14-12-9(2)6-5-7-10(12)3/h5-7,13H,4,8H2,1-3H3,(H,14,15)
Instrument: TripleTOF 6600 SCIEX
Instrument type: LC-ESI-QTOF
Ms type: MS2
Ion mode: POSITIVE
Collision energy: 90
Fragmentation mode: CID
Ionization: ESI
Column name: Zorbax Eclipse Plus C18 2.1 mm x 150 mm, 3.5 um, Agilent
Retention time: 5.349 min
Precursor m/z: 207.1492
Precursor type: [M+H]+
m/z	relative intensity
30.0339	328
37.0076	46
38.0026	140
39.023	167
42.0338	93
49.0069	40
50.0155	315
51.0232	831
52.0059	33
52.0306	26
53.0133	60
53.0387	46
54.033	33
58.0652	295
61.0072	26
62.0147	40
63.0228	140
65.0381	227
67.0415	46
74.0156	40
77.0385	999
78.0322	33
79.0542	167
80.0496	60
89.0384	261
90.045	53
91.0533	187
103.0546	40
105.0693	33
106.0646	482
107.0497	33
