Mass spectrum: Iohexol; LC-ESI-QTOF; MS2; 80 V
Name: Iohexol
Class: Pharmaceutical
Formula: C19H26I3N3O9
Exact mass: 820.8803
SMILES: CC(=O)N(CC(O)CO)c1c(I)c(C(=O)NCC(O)CO)c(I)c(C(=O)NCC(O)CO)c1I
InChI: InChI=1S/C19H26I3N3O9/c1-8(29)25(4-11(32)7-28)17-15(21)12(18(33)23-2-9(30)5-26)14(20)13(16(17)22)19(34)24-3-10(31)6-27/h9-11,26-28,30-32H,2-7H2,1H3,(H,23,33)(H,24,34)
Instrument: TripleTOF 5600 SCIEX
Instrument type: LC-ESI-QTOF
Ms type: MS2
Ion mode: POSITIVE
Collision energy: 80
Fragmentation mode: CID
Ionization: ESI
Column name: Zorbax Eclipse Plus C18 2.1 mm x 150 mm, 3.5 um, Agilent
Retention time: 4.533 min
Precursor m/z: 821.8876
Precursor type: [M+H]+
m/z	relative intensity
142.0278	50
144.0461	43
149.0483	50
158.0235	28
172.0394	50
175.0282	130
176.0318	28
176.0595	28
185.0481	28
186.0164	28
187.0532	43
189.0427	50
203.0585	79
204.0514	36
204.0611	43
205.0737	36
217.0618	50
247.0754	50
248.0582	43
248.0799	50
253.9472	28
257.9435	137
258.9473	50
268.9343	57
270.917	36
272.9497	43
273.935	217
275.953	79
283.9474	36
284.9322	79
285.9375	28
285.9673	43
286.943	57
286.9662	36
287.9573	28
291.1003	43
296.9383	36
297.9373	36
297.9625	36
299.9493	50
300.9485	101
301.9321	694
301.9674	43
311.9543	50
312.9506	36
313.9282	43
313.9632	86
314.9663	28
315.9485	79
321.111	123
323.9503	72
324.9444	50
326.964	50
327.9453	36
328.9778	36
329.9648	108
331.9755	43
339.9466	79
341.822	28
344.9792	50
346.9837	43
350.982	57
355.8442	65
356.9773	50
357.9605	260
362.983	137
367.8466	57
372.9709	86
374.9852	999
375.969	57
381.8252	57
382.8392	36
383.8357	57
385.824	144
389.009	43
396.8419	36
397.8192	79
397.8415	123
398.859	43
399.8318	65
403.0151	86
407.0071	28
409.8353	28
410.8237	79
411.8291	101
411.8473	79
413.8159	180
413.8478	50
422.86	36
423.7956	57
424.8565	50
425.8124	159
426.8371	36
427.8244	36
427.8401	36
431.0096	43
435.008	36
439.8291	36
442.8515	28
451.8329	231
498.8603	65
498.8797	72
500.8821	818
501.8823	28
514.8649	123
524.8802	36
528.8781	340
542.8872	166
560.9105	57
626.784	188
