Mass spectrum: Tris(4-methylphenyl) phosphate; LC-ESI-QTOF; MS2; 100 V
Name: Tris(4-methylphenyl) phosphate
Class: Industrial_process
Formula: C21H21O4P
Exact mass: 368.1177
SMILES: CC1=CC=C(C=C1)OP(=O)(OC2=CC=C(C=C2)C)OC3=CC=C(C=C3)C
InChI: InChI=1S/C21H21O4P/c1-16-4-10-19(11-5-16)23-26(22,24-20-12-6-17(2)7-13-20)25-21-14-8-18(3)9-15-21/h4-15H,1-3H3
Instrument: TripleTOF 6600 SCIEX
Instrument type: LC-ESI-QTOF
Ms type: MS2
Ion mode: POSITIVE
Collision energy: 100
Fragmentation mode: CID
Ionization: ESI
Column name: Zorbax Eclipse Plus C18 2.1 mm x 150 mm, 3.5 um, Agilent
Retention time: 15.924 min
Precursor m/z: 369.125
Precursor type: [M+H]+
m/z	relative intensity
37.0065	14
38.0143	15
39.0223	111
41.0377	16
50.0141	10
51.0219	27
62.0145	17
63.022	46
65.0381	416
77.0378	90
79.0535	12
89.0378	28
91.0538	114
107.0485	19
115.0537	121
126.0462	10
128.0617	19
139.0543	107
141.0696	13
150.0472	11
151.0541	29
152.0622	101
153.0698	13
163.0549	132
164.0626	276
165.0709	999
166.0789	11
176.0619	29
177.0696	18
178.0779	52
181.0652	26
194.0737	31
195.0815	74
226.079	13
237.072	14
238.0789	10
239.0874	79
252.0954	18
