Mass spectrum: 2,2,4-Trimethyl-1,2-dihydroquinoline; LC-ESI-QTOF; MS2; 50 V
Name: 2,2,4-Trimethyl-1,2-dihydroquinoline
Class: Industrial_process
Formula: C12H15N
Exact mass: 173.1204
SMILES: CC1=CC(NC2=CC=CC=C12)(C)C
InChI: InChI=1S/C12H15N/c1-9-8-12(2,3)13-11-7-5-4-6-10(9)11/h4-8,13H,1-3H3
Instrument: TripleTOF 6600 SCIEX
Instrument type: LC-ESI-QTOF
Ms type: MS2
Ion mode: POSITIVE
Collision energy: 50
Fragmentation mode: CID
Ionization: ESI
Column name: Zorbax Eclipse Plus C18 2.1 mm x 150 mm, 3.5 um, Agilent
Retention time: 12.497 min
Precursor m/z: 174.1277
Precursor type: [M+H]+
m/z	relative intensity
39.0225	68
41.0381	53
51.0222	46
53.0374	16
65.0378	249
77.0378	387
79.0532	70
89.0374	64
90.0453	112
91.0536	999
93.0561	25
103.0532	139
105.0683	19
106.0637	143
115.0531	225
116.0486	11
116.0599	24
117.057	685
118.0639	65
127.0531	241
128.0527	81
130.0643	772
131.0714	27
132.0787	26
141.0685	53
142.0646	32
143.0719	397
144.0798	675
155.0593	32
156.0791	14
157.087	33
158.0955	261
