Mass spectrum: Sulcotrione; LC-ESI-QTOF; MS2; 40 V
Name: Sulcotrione
Class: Herbicide
Formula: C14H13ClO5S
Exact mass: 328.0172
SMILES: CS(=O)(=O)C1=CC(=C(C=C1)C(=O)C2C(=O)CCCC2=O)Cl
InChI: InChI=1S/C14H13ClO5S/c1-21(19,20)8-5-6-9(10(15)7-8)14(18)13-11(16)3-2-4-12(13)17/h5-7,13H,2-4H2,1H3
Instrument: TripleTOF 6600 SCIEX
Instrument type: LC-ESI-QTOF
Ms type: MS2
Ion mode: POSITIVE
Collision energy: 40
Fragmentation mode: CID
Ionization: ESI
Column name: Zorbax Eclipse Plus C18 2.1 mm x 150 mm, 3.5 um, Agilent
Retention time: 9.651 min
Precursor m/z: 329.0245
Precursor type: [M+H]+
m/z	relative intensity
55.0184	33
68.9976	999
78.9855	20
97.0285	35
98.9843	10
111.0443	828
139.039	638
149.9861	11
177.9841	11
178.9902	34
190.9934	15
202.0632	33
214.0635	208
230.06	11
240.971	59
249.0325	30
293.0485	111
329.0176	17
