Mass spectrum: Oxfendazole; LC-ESI-QTOF; MS2; 140 V
Name: Oxfendazole
Class: Pharmaceutical
Formula: C15H13N3O3S
Exact mass: 315.0678
SMILES: COC(=O)Nc1[nH]c2cc(ccc2n1)[S](=O)c3ccccc3
InChI: InChI=1S/C15H13N3O3S/c1-21-15(19)18-14-16-12-8-7-11(9-13(12)17-14)22(20)10-5-3-2-4-6-10/h2-9H,1H3,(H2,16,17,18,19)
Instrument: TripleTOF 5600 SCIEX
Instrument type: LC-ESI-QTOF
Ms type: MS2
Ion mode: POSITIVE
Collision energy: 140
Fragmentation mode: CID
Ionization: ESI
Column name: Zorbax Eclipse Plus C18 2.1 mm x 150 mm, 3.5 um, Agilent
Retention time: 6.579 min
Precursor m/z: 316.075
Precursor type: [M+H]+
m/z	relative intensity
51.0164	49
51.0281	257
52.0225	158
53.03	49
63.0132	39
63.0461	49
64.0316	98
65.0279	49
65.0417	39
68.9824	79
69.0101	197
69.0187	69
75.0131	286
76.0203	989
77.0276	999
78.0359	286
88.0174	49
89.0406	39
90.035	69
99.023	49
103.0299	79
104.0354	79
105.0453	69
126.0445	59
140.0528	69
