Mass spectrum: 4-Aminoantipyrine; LC-ESI-QTOF; MS2; 150 V
Name: 4-Aminoantipyrine
Class: Transformation_product
Formula: C11H13N3O
Exact mass: 203.1059
SMILES: CC1=C(C(=O)N(N1C)C2=CC=CC=C2)N
InChI: InChI=1S/C11H13N3O/c1-8-10(12)11(15)14(13(8)2)9-6-4-3-5-7-9/h3-7H,12H2,1-2H3
Instrument: TripleTOF 5600 SCIEX
Instrument type: LC-ESI-QTOF
Ms type: MS2
Ion mode: POSITIVE
Collision energy: 150
Fragmentation mode: CID
Ionization: ESI
Column name: Zorbax Eclipse Plus C18 2.1 mm x 150 mm, 3.5 um, Agilent
Retention time: 4.783 min
Precursor m/z: 204.1131
Precursor type: [M+H]+
m/z	relative intensity
37.0073	49
38.0151	49
39.0228	79
41.0265	109
42.034	209
49.0076	229
50.0154	999
51.0233	489
56.0497	239
61.007	59
62.0162	49
63.0235	49
73.0079	59
74.0155	219
