Mass spectrum: Penciclovir; LC-ESI-QTOF; MS2; 50 V
Name: Penciclovir
Class: Pharmaceutical
Formula: C10H15N5O3
Exact mass: 253.1175
SMILES: NC1=NC(=O)c2ncn(CCC(CO)CO)c2N1
InChI: InChI=1S/C10H15N5O3/c11-10-13-8-7(9(18)14-10)12-5-15(8)2-1-6(3-16)4-17/h5-6,16-17H,1-4H2,(H3,11,13,14,18)
Instrument: TripleTOF 5600 SCIEX
Instrument type: LC-ESI-QTOF
Ms type: MS2
Ion mode: NEGATIVE
Collision energy: 50
Fragmentation mode: CID
Ionization: ESI
Column name: Zorbax Eclipse Plus C18 2.1 mm x 150 mm, 3.5 um, Agilent
Retention time: 2.597 min
Precursor m/z: 252.1102
Precursor type: [M-H]-
m/z	relative intensity
66.0092	58
80.0262	117
106.0286	235
107.0129	117
107.0445	58
108.0191	176
108.0293	117
116.999	176
119.0106	999
132.9905	176
133.0161	352
150.0464	117
163.0014	176
