Mass spectrum: Saluamine; LC-ESI-QTOF; MS2; 40 V
Name: Saluamine
Class: Pharmaceutical
Formula: C7H7ClN2O4S
Exact mass: 249.9815
SMILES: Nc1cc(Cl)c(cc1C(O)=O)[S](N)(=O)=O
InChI: InChI=1S/C7H7ClN2O4S/c8-4-2-5(9)3(7(11)12)1-6(4)15(10,13)14/h1-2H,9H2,(H,11,12)(H2,10,13,14)
Instrument: TripleTOF 5600 SCIEX
Instrument type: LC-ESI-QTOF
Ms type: MS2
Ion mode: POSITIVE
Collision energy: 40
Fragmentation mode: CID
Ionization: ESI
Column name: Zorbax Eclipse Plus C18 2.1 mm x 150 mm, 3.5 um, Agilent
Retention time: 5.713 min
Precursor m/z: 250.9888
Precursor type: [M+H]+
m/z	relative intensity
78.0382	26
87.0009	26
89.0268	64
90.0367	21
96.9862	42
105.0456	26
106.0522	37
114.0127	85
123.9951	240
125.0029	165
130.0083	32
134.0465	80
139.9887	37
142.0038	42
151.9883	117
152.9969	149
155.0001	160
155.9827	219
157.0139	96
158.0004	69
196.9995	32
204.9831	69
204.9979	21
232.9792	999
