Mass spectrum: Haloxyfop; LC-ESI-QTOF; MS2; 50 V
Name: Haloxyfop
Class: Herbicide
Formula: C15H11ClF3NO4
Exact mass: 361.0329
SMILES: CC(C(=O)O)OC1=CC=C(C=C1)OC2=C(C=C(C=N2)C(F)(F)F)Cl
InChI: InChI=1S/C15H11ClF3NO4/c1-8(14(21)22)23-10-2-4-11(5-3-10)24-13-12(16)6-9(7-20-13)15(17,18)19/h2-8H,1H3,(H,21,22)
Instrument: TripleTOF 5600 SCIEX
Instrument type: LC-ESI-QTOF
Ms type: MS2
Ion mode: NEGATIVE
Collision energy: 50
Fragmentation mode: CID
Ionization: ESI
Column name: Zorbax Eclipse Plus C18 2.1 mm x 150 mm, 3.5 um, Agilent
Retention time: 12.921 min
Precursor m/z: 360.0256
Precursor type: [M-H]-
m/z	relative intensity
34.9721	172
71.0136	68
108.0202	275
170.022	172
176.029	68
179.982	275
195.9781	999
197.0256	137
204.0271	137
224.0359	103
252.0242	275
