Mass spectrum: Oxibendazole; LC-ESI-QTOF; MS2; 30 V
Name: Oxibendazole
Class: Pharmaceutical
Formula: C12H15N3O3
Exact mass: 249.1113
SMILES: CCCOC1=CC2=C(C=C1)N=C(N2)NC(=O)OC
InChI: InChI=1S/C12H15N3O3/c1-3-6-18-8-4-5-9-10(7-8)14-11(13-9)15-12(16)17-2/h4-5,7H,3,6H2,1-2H3,(H2,13,14,15,16)
Instrument: TripleTOF 5600 SCIEX
Instrument type: LC-ESI-QTOF
Ms type: MS2
Ion mode: POSITIVE
Collision energy: 30
Fragmentation mode: CID
Ionization: ESI
Column name: Zorbax Eclipse Plus C18 2.1 mm x 150 mm, 3.5 um, Agilent
Retention time: 6.663 min
Precursor m/z: 250.1186
Precursor type: [M+H]+
m/z	relative intensity
148.0496	35
175.037	10
176.0451	605
218.0919	999
250.1182	57
