Mass spectrum: Amisulpride; LC-ESI-QTOF; MS2; 120 V
Name: Amisulpride
Class: Pharmaceutical
Formula: C17H27N3O4S
Exact mass: 369.1722
SMILES: CCN1CCCC1CNC(=O)c2cc(c(N)cc2OC)[S](=O)(=O)CC
InChI: InChI=1S/C17H27N3O4S/c1-4-20-8-6-7-12(20)11-19-17(21)13-9-16(25(22,23)5-2)14(18)10-15(13)24-3/h9-10,12H,4-8,11,18H2,1-3H3,(H,19,21)
Instrument: TripleTOF 5600 SCIEX
Instrument type: LC-ESI-QTOF
Ms type: MS2
Ion mode: POSITIVE
Collision energy: 120
Fragmentation mode: CID
Ionization: ESI
Column name: Zorbax Eclipse Plus C18 2.1 mm x 150 mm, 3.5 um, Agilent
Retention time: 5.568 min
Precursor m/z: 370.1795
Precursor type: [M+H]+
m/z	relative intensity
40.0291	15
42.0419	28
42.0514	15
44.0209	13
51.0298	251
52.0257	414
53.0076	174
53.0446	145
54.0399	90
55.0226	72
55.0602	38
56.0542	136
56.9836	21
57.992	28
58.0713	74
58.999	17
60.0006	15
63.0587	15
64.0351	458
65.0432	999
66.0138	17
66.0508	952
67.0206	9
67.0454	128
68.017	302
68.0525	49
68.9832	287
69.0623	13
69.9786	13
69.9903	147
70.0688	109
70.998	28
74.017	26
74.9941	13
75.0126	30
75.0253	36
76.0214	293
77.0065	32
77.0294	107
77.0401	92
78.0369	498
79.0208	86
79.0447	126
80.0163	174
80.0327	11
80.0517	74
80.9819	30
81.0356	67
81.0568	13
81.9892	51
82.0306	11
82.0673	55
82.9863	11
82.9979	51
83.9931	21
84.0041	13
84.0832	187
84.9765	34
85.0116	26
86.9918	11
88.0191	13
89.0272	28
90.0349	82
91.0432	379
92.0296	24
92.0505	333
92.9815	36
93.0227	15
93.0391	11
93.0583	63
93.989	17
94.0299	262
94.9956	46
95.991	17
96.999	103
97.9827	34
98.0056	17
98.0974	84
104.0137	287
104.0502	24
106.0067	32
106.0292	510
106.9832	40
106.9935	17
107.013	423
107.0354	88
107.9911	88
108.0438	15
110.0075	49
112.1131	53
117.0199	26
117.9764	13
119.9903	26
120.0446	258
121.0312	15
121.0522	109
122.0066	53
122.0362	36
124.9931	55
132.0085	617
133.0156	53
135.9846	11
147.0315	15
148.0019	15
148.0405	19
149.024	17
149.046	19
150.0006	13
