Mass spectrum: Flumioxazin; LC-ESI-QTOF; MS2; 40 V
Name: Flumioxazin
Class: Herbicide
Formula: C19H15FN2O4
Exact mass: 354.1016
SMILES: C#CCN1c2cc(c(cc2OCC1=O)F)N3C(=O)C4=C(C3=O)CCCC4
InChI: InChI=1S/C19H15FN2O4/c1-2-7-21-15-9-14(13(20)8-16(15)26-10-17(21)23)22-18(24)11-5-3-4-6-12(11)19(22)25/h1,8-9H,3-7,10H2
Instrument: TripleTOF 6600 SCIEX
Instrument type: LC-ESI-QTOF
Ms type: MS2
Ion mode: POSITIVE
Collision energy: 40
Fragmentation mode: CID
Ionization: ESI
Column name: Zorbax Eclipse Plus C18 2.1 mm x 150 mm, 3.5 um, Agilent
Retention time: 11.704 min
Precursor m/z: 355.1089
Precursor type: [M+H]+
m/z	relative intensity
41.039	18
68.052	18
75.0258	37
77.037	74
79.054	111
81.0337	18
81.0679	18
83.0312	18
107.0473	148
121.0439	74
128.0468	37
129.0402	18
134.0362	37
134.0582	18
135.043	74
138.033	37
148.055	240
149.0393	111
150.0337	18
152.0137	37
156.0452	55
160.0452	18
162.0292	18
163.0302	37
165.0452	18
176.0501	277
177.0577	55
181.0747	18
190.0548	37
191.0244	18
191.0588	55
195.0911	18
200.0909	18
201.044	74
203.0619	18
204.0445	185
205.0396	18
209.0693	37
215.0607	74
219.0569	92
221.0716	55
223.0657	55
223.0867	18
230.0642	37
230.0971	37
232.0392	111
237.0983	18
239.0667	18
243.0525	37
243.0914	18
244.0683	37
244.0804	18
251.0808	55
251.0982	55
253.0759	92
257.0706	74
258.0941	55
259.0502	277
260.0713	111
265.0575	18
266.0832	18
267.0914	92
269.0703	92
271.0539	37
271.0858	37
274.0904	74
279.0642	18
279.0756	166
279.1087	37
281.1082	37
285.0684	370
285.102	111
286.082	55
287.0816	314
297.102	37
298.0845	18
299.0813	999
299.1029	37
299.1193	18
301.0988	37
307.1082	92
313.1001	111
316.0819	18
327.0759	148
327.1129	351
355.1083	129
