Mass spectrum: 1-(o-Tolyl)-biguanide; LC-ESI-QTOF; MS2; 70 V
Name: 1-(o-Tolyl)-biguanide
Class: Industrial_process
Formula: C9H13N5
Exact mass: 191.1171
SMILES: Cc1ccccc1N=C(N)N=C(N)N
InChI: InChI=1S/C9H13N5/c1-6-4-2-3-5-7(6)13-9(12)14-8(10)11/h2-5H,1H3,(H6,10,11,12,13,14)
Instrument: TripleTOF 5600 SCIEX
Instrument type: LC-ESI-QTOF
Ms type: MS2
Ion mode: POSITIVE
Collision energy: 70
Fragmentation mode: CID
Ionization: ESI
Column name: Zorbax Eclipse Plus C18 2.1 mm x 150 mm, 3.5 um, Agilent
Retention time: 4.675 min
Precursor m/z: 192.1244
Precursor type: [M+H]+
m/z	relative intensity
42.0297	14
43.039	690
53.0444	10
60.0613	324
64.0336	16
65.0437	815
66.0503	64
67.0459	15
68.0284	121
77.0419	427
78.0362	51
79.057	137
80.053	21
85.0517	16
88.018	11
89.0407	574
90.0401	80
91.0556	999
92.0504	45
93.0589	350
104.0496	98
105.0558	12
106.0655	257
114.0334	14
116.0498	132
117.0565	35
118.0527	81
131.06	48
132.0678	33
