Mass spectrum: 6`-Hydroxymethyl Simvastatin; LC-ESI-QTOF; MS2; 40 V
Name: 6`-Hydroxymethyl Simvastatin
Class: Metabolite; Pharmaceutical
Formula: C25H38O6
Exact mass: 434.2668
SMILES: CCC(C)(C)C(=O)OC1CC(C=C2C1C(C(C=C2)C)CCC3CC(CC(=O)O3)O)CO
InChI: InChI=1S/C25H38O6/c1-5-25(3,4)24(29)31-21-11-16(14-26)10-17-7-6-15(2)20(23(17)21)9-8-19-12-18(27)13-22(28)30-19/h6-7,10,15-16,18-21,23,26-27H,5,8-9,11-14H2,1-4H3
Instrument: TripleTOF 5600 SCIEX
Instrument type: LC-ESI-QTOF
Ms type: MS2
Ion mode: POSITIVE
Collision energy: 40
Fragmentation mode: CID
Ionization: ESI
Column name: Zorbax Eclipse Plus C18 2.1 mm x 150 mm, 3.5 um, Agilent
Retention time: 10.786 min
Precursor m/z: 435.2741
Precursor type: [M+H]+
m/z	relative intensity
79.06	58
81.0754	67
91.061	38
97.0693	38
117.0729	48
129.0721	77
131.0891	77
141.0731	67
143.0876	184
145.1026	87
155.0869	290
156.0932	135
157.1002	329
159.1208	67
168.1017	87
169.1021	562
171.1168	514
173.1328	87
179.0843	48
181.1024	223
182.1104	135
183.1159	96
189.1302	174
193.0985	58
195.1165	290
197.1316	960
199.1489	116
206.108	58
208.1203	58
209.1333	106
211.1496	58
213.1657	135
215.1431	213
219.113	38
221.1327	213
223.1111	87
223.1474	999
232.1254	164
237.1664	58
241.1441	38
241.1602	116
247.1472	417
265.1582	106
283.1663	58
301.1754	87
