Mass spectrum: Dextrorphan; LC-ESI-QTOF; MS2; 60 V
Name: Dextrorphan
Class: Pharmaceutical; Metabolite
Formula: C17H23NO
Exact mass: 257.178
SMILES: CN1CC[C@@]23CCCC[C@@H]2[C@@H]1CC4=C3C=C(C=C4)O
InChI: InChI=1S/C17H23NO/c1-18-9-8-17-7-3-2-4-14(17)16(18)10-12-5-6-13(19)11-15(12)17/h5-6,11,14,16,19H,2-4,7-10H2,1H3/t14-,16+,17+/m1/s1
Instrument: TripleTOF 5600 SCIEX
Instrument type: LC-ESI-QTOF
Ms type: MS2
Ion mode: POSITIVE
Collision energy: 60
Fragmentation mode: CID
Ionization: ESI
Column name: Zorbax Eclipse Plus C18 2.1 mm x 150 mm, 3.5 um, Agilent
Retention time: 5.969 min
Precursor m/z: 258.1852
Precursor type: [M+H]+
m/z	relative intensity
44.0572	18
77.0423	52
79.0575	38
91.0565	48
103.0553	43
105.071	123
107.0502	62
115.055	84
116.0631	17
117.0702	32
121.0652	20
127.0553	178
128.0635	307
129.0709	203
131.0494	81
131.0858	15
133.0657	156
141.0707	41
143.0874	12
144.0575	54
145.0655	74
152.0621	21
153.0694	16
155.0594	10
157.0662	999
158.0732	16
159.0806	48
165.071	33
166.0784	16
169.066	10
171.0815	12
181.1001	10
199.1118	21
