Mass spectrum: Verapamil; LC-ESI-QTOF; MS2; 140 V
Name: Verapamil
Class: Pharmaceutical
Formula: C27H38N2O4
Exact mass: 454.2832
SMILES: CC(C)C(CCCN(C)CCc1ccc(c(c1)OC)OC)(C#N)c2ccc(c(c2)OC)OC
InChI: InChI=1S/C27H38N2O4/c1-20(2)27(19-28,22-10-12-24(31-5)26(18-22)33-7)14-8-15-29(3)16-13-21-9-11-23(30-4)25(17-21)32-6/h9-12,17-18,20H,8,13-16H2,1-7H3
Instrument: TripleTOF 5600 SCIEX
Instrument type: LC-ESI-QTOF
Ms type: MS2
Ion mode: POSITIVE
Collision energy: 140
Fragmentation mode: CID
Ionization: ESI
Column name: Zorbax Eclipse Plus C18 2.1 mm x 150 mm, 3.5 um, Agilent
Retention time: 8.542 min
Precursor m/z: 455.2904
Precursor type: [M+H]+
m/z	relative intensity
42.0424	12
44.057	18
58.0708	26
65.0433	182
66.0503	14
76.0336	16
77.0426	999
78.0494	132
79.0573	188
81.0359	14
84.0832	13
89.0405	118
90.0481	54
91.0567	751
92.0276	10
93.0714	16
94.0425	27
102.0467	58
103.0553	192
104.0628	15
105.0339	63
105.0696	17
107.0495	168
115.0541	50
117.0597	18
118.0411	16
119.0492	102
120.0555	18
121.0645	53
127.0535	9
128.0608	14
130.0651	12
131.0488	29
133.0283	23
134.0729	14
135.0439	70
