Mass spectrum: 4-(Dimethylamino)benzaldehyde; LC-ESI-QTOF; MS2; 70 V
Name: 4-(Dimethylamino)benzaldehyde
Class: Pharmaceutical
Formula: C9H11NO
Exact mass: 149.0841
SMILES: CN(C)C1=CC=C(C=C1)C=O
InChI: InChI=1S/C9H11NO/c1-10(2)9-5-3-8(7-11)4-6-9/h3-7H,1-2H3
Instrument: TripleTOF 5600 SCIEX
Instrument type: LC-ESI-QTOF
Ms type: MS2
Ion mode: POSITIVE
Collision energy: 70
Fragmentation mode: CID
Ionization: ESI
Column name: Zorbax Eclipse Plus C18 2.1 mm x 150 mm, 3.5 um, Agilent
Retention time: 8.87 min
Precursor m/z: 150.0913
Precursor type: [M+H]+
m/z	relative intensity
39.0225	37
51.0227	344
52.0303	19
65.0379	87
66.0465	26
77.0385	999
78.0457	79
79.0539	43
91.0396	11
91.0533	30
93.0569	9
104.0491	132
105.0569	32
106.0648	41
118.0638	14
120.0791	28
