Mass spectrum: 11alpha-Hydroxyprogesterone; LC-ESI-QTOF; MS2; 130 V
Name: 11alpha-Hydroxyprogesterone
Class: Pharmaceutical; Metabolite
Formula: C21H30O3
Exact mass: 330.2195
SMILES: CC(=O)C1CC[C@H]2[C@@H]3CCC4=CC(=O)CC[C@]4(C)[C@H]3[C@H](O)C[C@]12C
InChI: InChI=1S/C21H30O3/c1-12(22)16-6-7-17-15-5-4-13-10-14(23)8-9-20(13,2)19(15)18(24)11-21(16,17)3/h10,15-19,24H,4-9,11H2,1-3H3/t15-,16?,17-,18+,19+,20-,21+/m0/s1
Instrument: TripleTOF 5600 SCIEX
Instrument type: LC-ESI-QTOF
Ms type: MS2
Ion mode: POSITIVE
Collision energy: 130
Fragmentation mode: CID
Ionization: ESI
Column name: Zorbax Eclipse Plus C18 2.1 mm x 150 mm, 3.5 um, Agilent
Retention time: 10.293 min
Precursor m/z: 331.2268
Precursor type: [M+H]+
m/z	relative intensity
43.0265	439
43.0516	59
53.0446	39
55.0604	64
65.0426	329
66.0489	24
67.0563	54
71.0502	24
77.0413	999
77.0686	54
78.0477	54
79.056	214
81.0349	24
81.0743	24
83.049	19
89.041	99
91.0548	559
91.0833	39
94.0396	29
97.0645	34
102.0456	104
103.0534	99
104.0617	19
105.0694	54
107.0487	59
115.0532	634
117.0707	24
126.045	29
127.0538	159
128.0604	344
129.0677	34
131.0489	29
139.0519	34
141.0708	64
151.0525	59
152.0601	169
153.0719	29
164.0611	34
165.0684	144
178.0762	39
189.0705	19
