Mass spectrum: Methyl 1,2,2,6,6-pentamethyl-4-piperidyl sebacate; LC-ESI-QTOF; MS2; 60 V
Name: Methyl 1,2,2,6,6-pentamethyl-4-piperidyl sebacate
Class: Industrial_process
Formula: C21H39NO4
Exact mass: 369.2879
SMILES: CC1(CC(CC(N1C)(C)C)OC(=O)CCCCCCCCC(=O)OC)C
InChI: InChI=1S/C21H39NO4/c1-20(2)15-17(16-21(3,4)22(20)5)26-19(24)14-12-10-8-7-9-11-13-18(23)25-6/h17H,7-16H2,1-6H3
Instrument: TripleTOF 5600 SCIEX
Instrument type: LC-ESI-QTOF
Ms type: MS2
Ion mode: POSITIVE
Collision energy: 60
Fragmentation mode: CID
Ionization: ESI
Column name: Zorbax Eclipse Plus C18 2.1 mm x 150 mm, 3.5 um, Agilent
Retention time: 8.341 min
Precursor m/z: 370.2952
Precursor type: [M+H]+
m/z	relative intensity
42.0468	13
57.0687	18
67.0614	29
69.0762	26
70.0707	29
72.0873	999
77.0427	10
79.059	70
81.0747	244
93.0735	27
95.0882	44
98.0987	62
121.1021	18
123.1172	30
