Mass spectrum: Crotamiton; LC-ESI-QTOF; MS2; 80 V
Name: Crotamiton
Formula: C13H17NO
Exact mass: 203.131
SMILES: CCN(C1=CC=CC=C1C)C(=O)C=CC
InChI: InChI=1S/C13H17NO/c1-4-8-13(15)14(5-2)12-10-7-6-9-11(12)3/h4,6-10H,5H2,1-3H3
Instrument: TripleTOF 6600 SCIEX
Instrument type: LC-ESI-QTOF
Ms type: MS2
Ion mode: POSITIVE
Collision energy: 80
Fragmentation mode: CID
Ionization: ESI
Column name: Zorbax Eclipse Plus C18 2.1 mm x 150 mm, 3.5 um, Agilent
Retention time: 11.073 min
Precursor m/z: 204.1383
Precursor type: [M+H]+
m/z	relative intensity
35.9997	21
37.0074	142
38.0152	124
39.0233	999
41.0388	301
50.0151	15
51.0229	77
62.0146	12
63.0227	47
65.0385	219
66.0463	61
69.0332	47
77.0384	384
78.0334	10
78.0459	23
79.0536	81
89.0383	71
90.0459	18
91.0538	106
92.0492	34
93.057	129
106.0646	216
115.053	29
117.0572	13
130.0652	13
