Mass spectrum: Cyproterone; LC-ESI-QTOF; MS2; 60 V
Name: Cyproterone
Class: Pharmaceutical
Formula: C22H27ClO3
Exact mass: 374.1649
SMILES: CC(=O)C1(CCC2C1(CCC3C2C=C(C4=CC(=O)C5CC5C34C)Cl)C)O
InChI: InChI=1S/C22H27ClO3/c1-11(24)22(26)7-5-14-12-9-18(23)17-10-19(25)13-8-16(13)21(17,3)15(12)4-6-20(14,22)2/h9-10,12-16,26H,4-8H2,1-3H3
Instrument: TripleTOF 5600 SCIEX
Instrument type: LC-ESI-QTOF
Ms type: MS2
Ion mode: POSITIVE
Collision energy: 60
Fragmentation mode: CID
Ionization: ESI
Column name: Zorbax Eclipse Plus C18 2.1 mm x 150 mm, 3.5 um, Agilent
Retention time: 11.881 min
Precursor m/z: 375.1721
Precursor type: [M+H]+
m/z	relative intensity
43.0178	569
55.0542	75
59.0493	101
67.0552	126
77.0388	278
79.054	303
81.0698	151
83.0475	101
87.0451	151
91.0542	999
93.0694	379
95.0867	63
103.0555	139
105.0699	859
107.0491	63
107.0856	189
109.0638	75
111.0806	177
115.054	379
116.0615	88
117.0694	354
119.0853	354
121.0646	177
121.1028	75
123.0807	75
127.054	227
128.0616	480
129.0696	569
130.077	126
131.0491	177
131.0845	379
132.0581	113
133.0656	88
133.1022	531
135.0789	63
139.0251	88
141.0695	758
142.0757	569
143.0846	366
144.0591	88
144.0957	101
145.065	328
145.0997	214
146.0727	101
147.0777	101
147.1151	126
152.062	177
153.0709	417
154.0758	214
155.029	75
155.084	581
156.0935	214
157.0635	164
157.1025	240
158.0756	151
159.0792	202
159.1168	88
163.0305	63
165.0692	594
166.0776	290
167.0852	505
168.0544	63
168.0939	189
169.0404	50
169.0654	214
169.1012	303
170.0711	113
170.1059	126
171.0817	227
171.1148	113
172.0872	63
173.0969	101
177.0477	164
178.0776	379
179.0286	63
179.0852	796
180.0933	328
181.0412	63
181.0617	139
181.1003	543
182.1097	164
183.0807	240
183.1161	278
184.0867	202
185.095	227
189.0457	75
189.0675	139
190.0741	177
191.0272	139
191.0611	63
191.087	417
192.0918	404
193.0994	657
194.0727	113
194.1056	164
194.1179	50
195.083	316
195.1162	480
196.0862	101
196.1186	75
197.0994	88
197.1334	101
199.1116	88
201.0466	75
202.0781	290
203.0841	467
204.0957	265
205.0438	75
205.103	518
206.0662	63
206.1055	252
207.081	240
207.1167	328
208.0875	290
208.1242	75
209.0944	354
209.133	202
210.1442	75
211.1141	50
211.15	88
215.0719	50
215.0864	164
216.0944	177
217.1025	417
218.1111	227
219.0571	151
219.0799	126
219.1169	392
220.0899	75
220.1257	252
221.0946	581
221.1346	240
222.1065	227
222.1512	50
223.1125	202
229.1018	177
230.0877	63
230.1115	151
231.116	341
232.0904	88
232.1225	177
233.0962	164
233.1337	214
234.105	139
234.1381	88
235.1102	316
235.1253	63
235.1475	341
236.1203	164
237.1248	202
240.08	75
241.0749	50
243.1144	101
245.1346	290
246.1394	113
247.1166	139
247.1445	126
248.1185	252
249.1244	290
250.1282	101
250.1809	50
251.1409	88
251.1808	63
255.1128	63
259.1181	63
261.1214	63
261.1556	101
262.1329	101
263.145	809
264.145	126
269.1373	63
273.1254	101
277.1566	139
278.1265	50
279.1704	177
281.1065	63
293.1513	113
299.1228	75
