Mass spectrum: Candesartan; LC-ESI-QTOF; MS2; 90 V
Name: Candesartan
Class: Pharmaceutical
Formula: C24H20N6O3
Exact mass: 440.1597
SMILES: CCOc1nc2cccc(C(O)=O)c2n1Cc3ccc(cc3)c4ccccc4c5n[nH]nn5
InChI: InChI=1S/C24H20N6O3/c1-2-33-24-25-20-9-5-8-19(23(31)32)21(20)30(24)14-15-10-12-16(13-11-15)17-6-3-4-7-18(17)22-26-28-29-27-22/h3-13H,2,14H2,1H3,(H,31,32)(H,26,27,28,29)
Instrument: TripleTOF 5600 SCIEX
Instrument type: LC-ESI-QTOF
Ms type: MS2
Ion mode: POSITIVE
Collision energy: 90
Fragmentation mode: CID
Ionization: ESI
Column name: Zorbax Eclipse Plus C18 2.1 mm x 150 mm, 3.5 um, Agilent
Retention time: 10.001 min
Precursor m/z: 441.167
Precursor type: [M+H]+
m/z	relative intensity
65.0428	10
77.0414	100
78.0362	15
80.052	15
89.0399	12
90.0351	36
91.0562	16
102.0347	13
105.0452	131
113.0374	16
115.0543	58
116.0506	18
117.0449	19
127.0538	68
128.0607	44
129.0432	13
133.04	56
138.0477	26
139.0543	62
140.0495	152
141.0686	14
150.0467	52
151.0541	380
152.0625	925
153.0692	234
154.0651	25
161.0347	98
162.0456	15
163.0542	262
164.061	344
165.0696	848
166.0656	114
167.0742	53
168.0678	27
173.0339	12
176.0616	195
177.0613	405
178.074	616
179.0724	249
180.0802	219
181.0751	14
188.0496	29
189.058	105
190.0655	999
191.0721	256
192.0732	311
193.0875	55
194.0952	13
203.0732	14
204.0759	17
205.0764	660
206.0844	100
207.0932	28
216.0813	27
217.0881	19
218.0838	52
219.0912	52
226.075	12
232.1003	12
233.1065	19
239.0831	14
240.0804	15
251.073	20
252.0808	13
253.0891	36
254.0959	28
264.0805	31
265.0782	30
266.0851	45
267.0979	16
277.0754	13
278.0864	24
279.0901	59
280.0959	18
281.1071	23
291.0847	14
292.091	17
293.0946	38
294.0814	28
294.1057	10
295.0927	10
304.088	16
306.1025	19
307.1087	11
308.0927	16
322.0969	10
