Mass spectrum: Iohexol; LC-ESI-QTOF; MS2; 40 V
Name: Iohexol
Class: Pharmaceutical
Formula: C19H26I3N3O9
Exact mass: 820.8803
SMILES: CC(=O)N(CC(O)CO)c1c(I)c(C(=O)NCC(O)CO)c(I)c(C(=O)NCC(O)CO)c1I
InChI: InChI=1S/C19H26I3N3O9/c1-8(29)25(4-11(32)7-28)17-15(21)12(18(33)23-2-9(30)5-26)14(20)13(16(17)22)19(34)24-3-10(31)6-27/h9-11,26-28,30-32H,2-7H2,1H3,(H,23,33)(H,24,34)
Instrument: TripleTOF 5600 SCIEX
Instrument type: LC-ESI-QTOF
Ms type: MS2
Ion mode: POSITIVE
Collision energy: 40
Fragmentation mode: CID
Ionization: ESI
Column name: Zorbax Eclipse Plus C18 2.1 mm x 150 mm, 3.5 um, Agilent
Retention time: 4.533 min
Precursor m/z: 821.8876
Precursor type: [M+H]+
m/z	relative intensity
321.1084	18
362.9869	10
374.9876	93
386.9782	12
389.006	15
399.1622	12
403.0142	11
417.0051	12
431.0145	21
435.0014	34
448.0123	17
449.0191	67
451.8279	45
466.0387	33
466.0581	14
469.8392	12
484.8731	15
490.0577	10
500.8814	45
501.8874	31
501.9085	10
524.8723	17
526.0649	35
528.8737	73
542.8897	77
557.9181	28
560.8955	74
565.7208	10
575.92	45
579.7446	10
591.9421	50
602.9085	215
626.7812	87
639.7616	58
640.7901	11
652.7892	20
652.971	86
656.7829	136
670.7902	17
712.8128	27
717.8313	11
730.8202	83
743.8461	11
761.864	15
779.8738	34
803.8741	999
821.887	206
