Mass spectrum: Nilotinib; LC-ESI-QTOF; MS2; 150 V
Name: Nilotinib
Class: Pharmaceutical
Formula: C28H22F3N7O
Exact mass: 529.1838
SMILES: Cc1cn(cn1)c2cc(NC(=O)c3ccc(C)c(Nc4nccc(n4)c5cccnc5)c3)cc(c2)C(F)(F)F
InChI: InChI=1S/C28H22F3N7O/c1-17-5-6-19(10-25(17)37-27-33-9-7-24(36-27)20-4-3-8-32-14-20)26(39)35-22-11-21(28(29,30)31)12-23(13-22)38-15-18(2)34-16-38/h3-16H,1-2H3,(H,35,39)(H,33,36,37)
Instrument: TripleTOF 5600 SCIEX
Instrument type: LC-ESI-QTOF
Ms type: MS2
Ion mode: NEGATIVE
Collision energy: 150
Fragmentation mode: CID
Ionization: ESI
Column name: Zorbax Eclipse Plus C18 2.1 mm x 150 mm, 3.5 um, Agilent
Retention time: 8.404 min
Precursor m/z: 528.1765
Precursor type: [M-H]-
m/z	relative intensity
41.0176	66
41.0235	133
41.0436	66
42.0022	399
42.0228	133
50.0053	66
64.0069	133
65.0162	199
78.0338	199
81.0468	999
81.065	199
88.0201	66
92.0275	199
98.0035	133
103.0363	66
112.0073	133
129.0556	66
130.0361	66
138.0152	66
155.0531	66
