Mass spectrum: Mesotrione; LC-ESI-QTOF; MS2; 80 V
Name: Mesotrione
Class: Herbicide
Formula: C14H13NO7S
Exact mass: 339.0413
SMILES: CS(=O)(=O)C1=CC(=C(C=C1)C(=O)C2C(=O)CCCC2=O)[N+](=O)[O-]
InChI: InChI=1S/C14H13NO7S/c1-23(21,22)8-5-6-9(10(7-8)15(19)20)14(18)13-11(16)3-2-4-12(13)17/h5-7,13H,2-4H2,1H3
Instrument: TripleTOF 6600 SCIEX
Instrument type: LC-ESI-QTOF
Ms type: MS2
Ion mode: POSITIVE
Collision energy: 80
Fragmentation mode: CID
Ionization: ESI
Column name: Zorbax Eclipse Plus C18 2.1 mm x 150 mm, 3.5 um, Agilent
Retention time: 9.26 min
Precursor m/z: 340.0486
Precursor type: [M+H]+
m/z	relative intensity
39.0225	79
50.015	227
51.0228	136
53.002	306
55.0175	68
62.9894	102
63.0224	181
68.9965	192
74.0139	90
75.0108	215
75.0223	397
76.0176	999
77.0252	192
79.0177	113
91.0177	90
92.0249	90
102.0456	45
103.0175	68
104.0125	136
107.0128	45
121.0273	56
214.0662	68
