Mass spectrum: Metoprolol; LC-ESI-QTOF; MS2; 80 V
Name: Metoprolol
Class: Pharmaceutical
Formula: C15H25NO3
Exact mass: 267.1834
SMILES: CC(C)NCC(COC1=CC=C(C=C1)CCOC)O
InChI: InChI=1S/C15H25NO3/c1-12(2)16-10-14(17)11-19-15-6-4-13(5-7-15)8-9-18-3/h4-7,12,14,16-17H,8-11H2,1-3H3
Instrument: TripleTOF 6600 SCIEX
Instrument type: LC-ESI-QTOF
Ms type: MS2
Ion mode: POSITIVE
Collision energy: 80
Fragmentation mode: CID
Ionization: ESI
Column name: Zorbax Eclipse Plus C18 2.1 mm x 150 mm, 3.5 um, Agilent
Retention time: 6.14 min
Precursor m/z: 268.1907
Precursor type: [M+H]+
m/z	relative intensity
30.0338	67
38.0152	14
39.0226	67
41.0384	116
43.0179	12
43.0542	42
45.0329	31
50.0143	15
51.0228	142
56.0491	80
58.065	31
63.0223	11
65.038	88
74.0589	13
77.0381	999
78.0452	22
79.0535	100
89.0377	23
91.0533	299
95.0481	12
102.0453	36
103.0531	144
104.0597	15
105.0408	30
105.0682	13
115.0531	156
116.0607	14
119.0478	11
128.0623	25
131.0494	9
