Mass spectrum: Epirubicin; LC-ESI-QTOF; MS2; 130 V
Name: Epirubicin
Class: Pharmaceutical
Formula: C27H29NO11
Exact mass: 543.1741
SMILES: CC1C(C(CC(O1)OC2CC(CC3=C(C4=C(C(=C23)O)C(=O)C5=C(C4=O)C=CC=C5OC)O)(C(=O)CO)O)N)O
InChI: InChI=1S/C27H29NO11/c1-10-22(31)13(28)6-17(38-10)39-15-8-27(36,16(30)9-29)7-12-19(15)26(35)21-20(24(12)33)23(32)11-4-3-5-14(37-2)18(11)25(21)34/h3-5,10,13,15,17,22,29,31,33,35-36H,6-9,28H2,1-2H3
Instrument: TripleTOF 5600 SCIEX
Instrument type: LC-ESI-QTOF
Ms type: MS2
Ion mode: POSITIVE
Collision energy: 130
Fragmentation mode: CID
Ionization: ESI
Column name: Zorbax Eclipse Plus C18 2.1 mm x 150 mm, 3.5 um, Agilent
Retention time: 7.492 min
Precursor m/z: 544.1813
Precursor type: [M+H]+
m/z	relative intensity
58.0705	86
60.0484	68
69.0363	68
72.049	137
77.0415	155
86.0632	396
89.0384	86
102.0449	103
113.0389	86
114.0456	86
115.0559	137
116.0265	103
118.0426	68
128.0293	86
129.0382	68
142.0413	103
151.0529	137
152.0628	275
163.0558	120
165.0711	551
175.052	103
176.0623	999
177.0685	189
178.0782	206
186.0343	68
187.0555	258
188.0613	172
189.0703	602
189.0947	68
200.065	155
201.0699	137
202.0777	361
202.0984	68
204.058	241
205.0668	361
216.0643	137
217.0679	68
218.0688	86
221.06	189
229.0649	103
231.0897	68
232.0519	68
233.0629	275
234.0667	68
245.0607	103
249.0576	223
273.0501	103
289.0486	172
