Mass spectrum: Beclomethasone; LC-ESI-QTOF; MS2; 70 V
Name: Beclomethasone
Class: Pharmaceutical
Formula: C22H29ClO5
Exact mass: 408.1704
SMILES: CC1CC2C3CCC4=CC(=O)C=CC4(C3(C(CC2(C1(C(=O)CO)O)C)O)Cl)C
InChI: InChI=1S/C22H29ClO5/c1-12-8-16-15-5-4-13-9-14(25)6-7-19(13,2)21(15,23)17(26)10-20(16,3)22(12,28)18(27)11-24/h6-7,9,12,15-17,24,26,28H,4-5,8,10-11H2,1-3H3
Instrument: TripleTOF 5600 SCIEX
Instrument type: LC-ESI-QTOF
Ms type: MS2
Ion mode: POSITIVE
Collision energy: 70
Fragmentation mode: CID
Ionization: ESI
Column name: Zorbax Eclipse Plus C18 2.1 mm x 150 mm, 3.5 um, Agilent
Retention time: 9.326 min
Precursor m/z: 409.1776
Precursor type: [M+H]+
m/z	relative intensity
77.0386	316
79.0543	146
91.0539	779
93.0687	146
95.0822	121
105.0696	536
115.0545	462
117.0699	316
119.084	511
121.0651	999
128.0613	341
129.0714	219
131.05	146
132.0551	194
141.0709	341
142.0764	146
143.0845	170
144.0596	97
145.064	219
146.0744	97
147.0818	438
153.0721	194
155.0823	219
157.1046	121
158.0706	194
161.0953	170
165.0686	194
167.084	121
169.0665	146
171.0782	268
178.0808	341
179.0876	219
181.063	170
181.1046	121
182.0772	146
183.0827	121
185.0976	121
189.066	170
191.0847	292
193.1008	170
194.0701	292
195.0798	389
196.0921	121
202.0798	170
204.0923	121
205.0979	170
206.1061	121
207.0797	268
208.0866	292
209.0965	414
210.1004	146
215.0813	97
216.0939	97
218.072	121
219.0811	146
219.1179	97
221.0953	365
222.0994	170
223.1087	146
224.1217	97
229.105	146
231.1141	121
232.0869	194
233.097	316
234.1052	121
235.1138	194
243.1166	146
245.0938	194
246.1036	121
247.1124	316
248.1227	243
263.1447	146
