Mass spectrum: 2-(Ethylthio)benzothiazole; LC-ESI-QTOF; MS2; 30 V
Name: 2-(Ethylthio)benzothiazole
Class: Pharmaceutical
Formula: C9H9NS2
Exact mass: 195.0176
SMILES: CCSc1sc2ccccc2n1
InChI: InChI=1S/C9H9NS2/c1-2-11-9-10-7-5-3-4-6-8(7)12-9/h3-6H,2H2,1H3
Instrument: TripleTOF 5600 SCIEX
Instrument type: LC-ESI-QTOF
Ms type: MS2
Ion mode: POSITIVE
Collision energy: 30
Fragmentation mode: CID
Ionization: ESI
Column name: Zorbax Eclipse Plus C18 2.1 mm x 150 mm, 3.5 um, Agilent
Retention time: 13.742 min
Precursor m/z: 196.0249
Precursor type: [M+H]+
m/z	relative intensity
92.0515	31
109.0108	39
110.0208	13
124.0216	65
135.0142	118
136.022	67
166.9854	45
167.9946	999
196.0253	69
