Mass spectrum: 1-(2,6-Dichlorophenyl)-2-indolinone; LC-ESI-QTOF; MS2; 50 V
Name: 1-(2,6-Dichlorophenyl)-2-indolinone
Class: Pharmaceutical; Transformation_product; Diclofenac-lactam; Transformation_product-Metabolite
Formula: C14H9Cl2NO
Exact mass: 277.0061
SMILES: C1C2=CC=CC=C2N(C1=O)C3=C(C=CC=C3Cl)Cl
InChI: InChI=1S/C14H9Cl2NO/c15-10-5-3-6-11(16)14(10)17-12-7-2-1-4-9(12)8-13(17)18/h1-7H,8H2
Instrument: TripleTOF 5600 SCIEX
Instrument type: LC-ESI-QTOF
Ms type: MS2
Ion mode: POSITIVE
Collision energy: 50
Fragmentation mode: CID
Ionization: ESI
Column name: Zorbax Eclipse Plus C18 2.1 mm x 150 mm, 3.5 um, Agilent
Retention time: 12.191 min
Precursor m/z: 278.0134
Precursor type: [M+H]+
m/z	relative intensity
77.0438	113
79.0594	109
100.0219	14
104.0513	17
105.0356	39
108.9863	30
132.0455	30
135.996	54
144.9614	92
151.0552	90
152.0631	33
164.001	49
171.9716	162
172.9658	34
177.0554	38
178.0644	116
179.0723	200
180.0808	325
207.0671	50
208.0747	249
214.0403	999
215.0502	12
243.0444	11
