Mass spectrum: Procarbazine; LC-ESI-QTOF; MS2; 40 V
Name: Procarbazine
Class: Pharmaceutical
Formula: C12H19N3O
Exact mass: 221.1528
SMILES: CC(C)NC(=O)c1ccc(cc1)CNNC
InChI: InChI=1S/C12H19N3O/c1-9(2)15-12(16)11-6-4-10(5-7-11)8-14-13-3/h4-7,9,13-14H,8H2,1-3H3,(H,15,16)
Instrument: TripleTOF 5600 SCIEX
Instrument type: LC-ESI-QTOF
Ms type: MS2
Ion mode: POSITIVE
Collision energy: 40
Fragmentation mode: CID
Ionization: ESI
Column name: Zorbax Eclipse Plus C18 2.1 mm x 150 mm, 3.5 um, Agilent
Retention time: 4.911 min
Precursor m/z: 222.1601
Precursor type: [M+H]+
m/z	relative intensity
65.0422	64
75.0253	138
77.0422	462
78.0461	120
79.0564	268
89.0419	157
90.0482	740
90.0798	74
91.0558	841
91.087	37
92.0631	157
93.0726	55
103.0184	212
104.0494	157
105.0592	397
106.0657	980
117.0574	46
118.0406	795
132.0437	240
134.0621	64
135.0678	296
136.0819	74
148.1132	148
149.0715	999
158.0971	64
176.1065	166
177.1152	416
191.1185	730
191.1457	46
