Mass spectrum: 2-Methyl-4`-(methylthio)-2-morpholinopropiophenone; LC-ESI-QTOF; MS2; 110 V
Name: 2-Methyl-4`-(methylthio)-2-morpholinopropiophenone
Class: Industrial_process
Formula: C15H21NO2S
Exact mass: 279.1293
SMILES: CC(C)(C(=O)C1=CC=C(C=C1)SC)N2CCOCC2
InChI: InChI=1S/C15H21NO2S/c1-15(2,16-8-10-18-11-9-16)14(17)12-4-6-13(19-3)7-5-12/h4-7H,8-11H2,1-3H3
Instrument: TripleTOF 6600 SCIEX
Instrument type: LC-ESI-QTOF
Ms type: MS2
Ion mode: POSITIVE
Collision energy: 110
Fragmentation mode: CID
Ionization: ESI
Column name: Zorbax Eclipse Plus C18 2.1 mm x 150 mm, 3.5 um, Agilent
Retention time: 7.548 min
Precursor m/z: 280.1366
Precursor type: [M+H]+
m/z	relative intensity
37.0074	19
38.0152	19
39.0232	134
41.0386	20
42.0339	38
44.0494	24
44.9795	32
45.0331	12
49.0074	22
50.0153	107
51.023	255
52.0309	25
56.049	12
61.0067	12
62.0146	24
63.0229	86
65.0386	496
66.0457	19
68.9791	81
70.0645	12
74.0148	22
75.0229	36
76.0302	25
77.0386	561
78.0461	143
79.0541	12
81.9863	13
89.0381	155
90.0455	22
91.0542	999
102.046	81
103.0538	55
105.0447	10
108.0023	10
109.0105	24
115.0541	720
116.0618	27
117.0696	74
121.0099	369
122.0168	36
127.0541	15
134.0176	43
135.0251	12
