Mass spectrum: Triclocarban; LC-ESI-QTOF; MS2; 120 V
Name: Triclocarban
Class: Antimicrobial; Personal_care_product
Formula: C13H9Cl3N2O
Exact mass: 313.978
SMILES: Clc1ccc(NC(=O)Nc2ccc(Cl)c(Cl)c2)cc1
InChI: InChI=1S/C13H9Cl3N2O/c14-8-1-3-9(4-2-8)17-13(19)18-10-5-6-11(15)12(16)7-10/h1-7H,(H2,17,18,19)
Instrument: TripleTOF 5600 SCIEX
Instrument type: LC-ESI-QTOF
Ms type: MS2
Ion mode: NEGATIVE
Collision energy: 120
Fragmentation mode: CID
Ionization: ESI
Column name: Zorbax Eclipse Plus C18 2.1 mm x 150 mm, 3.5 um, Agilent
Retention time: 14.574 min
Precursor m/z: 312.9708
Precursor type: [M-H]-
m/z	relative intensity
34.9735	999
126.014	74
