Mass spectrum: Oxibendazole; LC-ESI-QTOF; MS2; 80 V
Name: Oxibendazole
Class: Pharmaceutical
Formula: C12H15N3O3
Exact mass: 249.1113
SMILES: CCCOC1=CC2=C(C=C1)N=C(N2)NC(=O)OC
InChI: InChI=1S/C12H15N3O3/c1-3-6-18-8-4-5-9-10(7-8)14-11(13-9)15-12(16)17-2/h4-5,7H,3,6H2,1-2H3,(H2,13,14,15,16)
Instrument: TripleTOF 5600 SCIEX
Instrument type: LC-ESI-QTOF
Ms type: MS2
Ion mode: POSITIVE
Collision energy: 80
Fragmentation mode: CID
Ionization: ESI
Column name: Zorbax Eclipse Plus C18 2.1 mm x 150 mm, 3.5 um, Agilent
Retention time: 6.663 min
Precursor m/z: 250.1186
Precursor type: [M+H]+
m/z	relative intensity
39.0226	54
40.0184	24
41.0259	24
43.0292	102
50.0154	78
51.0228	296
52.0183	115
52.0305	108
53.0385	502
54.0333	24
63.0225	42
64.0179	48
65.0135	48
65.0255	157
66.022	42
66.0339	526
67.0297	30
67.0414	102
68.0132	163
68.0501	36
69.008	78
75.012	42
76.0181	339
77.0268	84
78.0338	538
79.0171	60
79.028	66
79.0415	302
80.0135	84
80.0491	484
81.0332	999
90.0331	30
92.037	641
93.0083	254
93.0444	375
94.0289	54
94.0521	42
95.0356	36
96.0435	78
103.0288	351
104.0362	48
105.0456	121
106.029	720
107.0365	60
108.0437	224
119.0482	199
120.0314	24
120.0545	187
121.0397	938
122.024	60
122.0443	48
130.0399	369
131.0218	66
131.0482	36
133.0377	60
134.0476	157
147.0419	115
148.0502	423
149.0345	30
149.057	48
158.0335	54
175.0395	42
176.0463	90
