Mass spectrum: Acridone; LC-ESI-QTOF; MS2; 60 V
Name: Acridone
Class: Metabolite; Pharmaceutical; Transformation_product
Formula: C13H9NO
Exact mass: 195.0684
SMILES: O=C1c2ccccc2Nc3ccccc13
InChI: InChI=1S/C13H9NO/c15-13-9-5-1-3-7-11(9)14-12-8-4-2-6-10(12)13/h1-8H,(H,14,15)
Instrument: TripleTOF 5600 SCIEX
Instrument type: LC-ESI-QTOF
Ms type: MS2
Ion mode: POSITIVE
Collision energy: 60
Fragmentation mode: CID
Ionization: ESI
Column name: Zorbax Eclipse Plus C18 2.1 mm x 150 mm, 3.5 um, Agilent
Retention time: 8.5 min
Precursor m/z: 196.0757
Precursor type: [M+H]+
m/z	relative intensity
77.0416	36
89.0413	28
101.04	19
113.0385	22
114.0467	24
115.0553	121
116.0502	16
117.0569	11
128.0502	34
139.0555	560
140.0525	294
141.0692	13
150.0473	14
151.0546	21
165.0579	14
166.0664	973
167.0743	999
177.0583	14
195.0681	31
196.0761	15
