Mass spectrum: Cyanazine; LC-ESI-QTOF; MS2; 40 V
Name: Cyanazine
Class: Herbicide
Formula: C9H13ClN6
Exact mass: 240.089
SMILES: CCNc1nc(Cl)nc(NC(C)(C)C#N)n1
InChI: InChI=1S/C9H13ClN6/c1-4-12-7-13-6(10)14-8(15-7)16-9(2,3)5-11/h4H2,1-3H3,(H2,12,13,14,15,16)
Instrument: TripleTOF 5600 SCIEX
Instrument type: LC-ESI-QTOF
Ms type: MS2
Ion mode: POSITIVE
Collision energy: 40
Fragmentation mode: CID
Ionization: ESI
Column name: Zorbax Eclipse Plus C18 2.1 mm x 150 mm, 3.5 um, Agilent
Retention time: 9.107 min
Precursor m/z: 241.0963
Precursor type: [M+H]+
m/z	relative intensity
43.0375	105
58.0714	20
61.984	125
68.0293	677
68.0652	14
71.0638	404
79.0079	182
79.0257	10
83.0629	256
90.0125	46
95.0638	16
96.0569	497
96.088	16
104.002	999
104.0307	22
108.0557	56
108.0769	10
110.0469	64
110.0694	64
111.0781	22
119.0355	137
132.0318	450
136.0867	192
138.0773	48
138.0917	16
144.0313	32
146.0225	119
150.0774	22
172.0425	10
173.0588	60
174.0534	143
177.0889	14
178.1073	42
186.0536	36
205.1197	18
214.0846	541
241.0922	12
