Mass spectrum: O-tolidine; LC-ESI-QTOF; MS2; 70 V
Name: O-tolidine
Formula: C14H16N2
Exact mass: 212.1313
SMILES: CC1=C(C=CC(=C1)C2=CC(=C(C=C2)N)C)N
InChI: InChI=1S/C14H16N2/c1-9-7-11(3-5-13(9)15)12-4-6-14(16)10(2)8-12/h3-8H,15-16H2,1-2H3
Instrument: TripleTOF 6600 SCIEX
Instrument type: LC-ESI-QTOF
Ms type: MS2
Ion mode: POSITIVE
Collision energy: 70
Fragmentation mode: CID
Ionization: ESI
Column name: Zorbax Eclipse Plus C18 2.1 mm x 150 mm, 3.5 um, Agilent
Retention time: 5.073 min
Precursor m/z: 213.1386
Precursor type: [M+H]+
m/z	relative intensity
77.0388	73
89.0409	15
91.0573	15
102.0476	17
103.0575	20
106.0655	25
113.0409	12
115.056	58
116.0543	12
120.0842	10
126.0473	33
127.055	101
128.062	83
129.069	17
130.0663	33
139.0561	48
140.0498	33
141.0727	12
150.0472	22
151.0578	155
152.0633	999
153.0714	213
154.0673	40
155.0604	27
162.05	12
163.0554	264
164.062	48
165.071	122
166.0672	10
168.0752	20
169.0856	17
176.0622	50
177.0684	27
178.0683	73
179.0623	12
179.077	35
180.0807	277
181.0784	15
181.0896	17
195.0906	12
196.1	22
