Mass spectrum: O-Desmethyl amisulpride; LC-ESI-QTOF; MS2; 150 V
Name: O-Desmethyl amisulpride
Class: Pharmaceutical; Transformation_product; Transformation_product-Metabolite
Formula: C16H25N3O4S
Exact mass: 355.1566
SMILES: CCN1CCCC1CNC(=O)c2cc(c(cc2O)N)S(=O)(=O)CC
InChI: InChI=1S/C16H25N3O4S/c1-3-19-7-5-6-11(19)10-18-16(21)12-8-15(24(22,23)4-2)13(17)9-14(12)20/h8-9,11,20H,3-7,10,17H2,1-2H3,(H,18,21)
Instrument: TripleTOF 5600 SCIEX
Instrument type: LC-ESI-QTOF
Ms type: MS2
Ion mode: POSITIVE
Collision energy: 150
Fragmentation mode: CID
Ionization: ESI
Column name: Zorbax Eclipse Plus C18 2.1 mm x 150 mm, 3.5 um, Agilent
Retention time: 5.619 min
Precursor m/z: 356.1639
Precursor type: [M+H]+
m/z	relative intensity
40.0266	115
42.042	243
44.0211	384
51.0291	525
52.0356	717
53.0102	140
53.0461	115
54.0405	140
55.0595	166
56.0536	461
56.9822	76
58.0694	140
58.0803	64
60.0042	89
62.0425	51
63.0138	115
64.0326	166
65.0302	179
65.0414	76
66.0147	179
66.0365	51
67.0225	76
67.0453	128
67.0576	115
68.0161	999
68.0388	51
68.0515	128
68.9813	243
68.9949	64
70.068	448
70.9981	89
75.0125	51
76.0213	166
77.004	64
78.0357	601
79.0423	115
80.052	140
81.9875	76
82.0673	217
84.0829	345
84.9763	89
88.0197	333
89.0268	461
94.0295	461
107.0363	51
108.0214	51
