Mass spectrum: Food Yellow 3 free acid; LC-ESI-QTOF; MS2; 150 V
Name: Food Yellow 3 free acid
Formula: C16H12N2O7S2
Exact mass: 408.0086
SMILES: C1=CC(=CC=C1N=NC2=C(C=CC3=C2C=CC(=C3)S(=O)(=O)O)O)S(=O)(=O)O
InChI: InChI=1S/C16H12N2O7S2/c19-15-8-1-10-9-13(27(23,24)25)6-7-14(10)16(15)18-17-11-2-4-12(5-3-11)26(20,21)22/h1-9,19H,(H,20,21,22)(H,23,24,25)
Instrument: TripleTOF 6600 SCIEX
Instrument type: LC-ESI-QTOF
Ms type: MS2
Ion mode: POSITIVE
Collision energy: 150
Fragmentation mode: CID
Ionization: ESI
Column name: Zorbax Eclipse Plus C18 2.1 mm x 150 mm, 3.5 um, Agilent
Retention time: 5.59 min
Precursor m/z: 409.0159
Precursor type: [M+H]+
m/z	relative intensity
37.007	58
38.0152	39
39.023	316
49.0067	10
50.015	231
51.0228	122
52.0302	10
53.0385	241
54.0341	11
61.0067	86
62.0149	186
63.0224	305
64.018	21
64.9691	19
65.0386	200
73.0064	98
74.015	999
75.0096	135
75.0221	99
76.0182	58
76.0295	70
77.038	17
80.0487	333
86.0141	37
87.0231	51
88.0184	21
89.0386	45
98.0143	263
99.01	228
100.0179	94
100.0298	51
101.0261	17
102.0463	10
114.0354	14
127.0435	10
149.0393	19
150.0465	20
163.0538	26
164.0485	11
174.044	24
175.0392	28
177.0577	14
188.0491	25
189.0542	15
201.0542	22
227.0581	10
