Mass spectrum: 2-(3-Hydroxyquinolin-2-yl)indene-1,3-dione; LC-ESI-QTOF; MS2; 110 V
Name: 2-(3-Hydroxyquinolin-2-yl)indene-1,3-dione
Class: Industrial_process; Personal_care_product; Pigment
Formula: C18H11NO3
Exact mass: 289.0739
SMILES: C1=CC=C2C(=C1)C=C(C(=N2)C3C(=O)C4=CC=CC=C4C3=O)O
InChI: InChI=1S/C18H11NO3/c20-14-9-10-5-1-4-8-13(10)19-16(14)15-17(21)11-6-2-3-7-12(11)18(15)22/h1-9,15,20H
Instrument: TripleTOF 6600 SCIEX
Instrument type: LC-ESI-QTOF
Ms type: MS2
Ion mode: POSITIVE
Collision energy: 110
Fragmentation mode: CID
Ionization: ESI
Column name: Zorbax Eclipse Plus C18 2.1 mm x 150 mm, 3.5 um, Agilent
Retention time: 14.718 min
Precursor m/z: 290.0812
Precursor type: [M+H]+
m/z	relative intensity
39.0235	78
49.0073	117
50.0153	215
51.0235	509
61.0074	137
62.0159	215
63.0235	548
65.0384	156
74.0156	156
75.0238	274
76.0285	117
77.039	666
86.0167	97
87.0228	293
89.0392	509
101.0394	97
103.0545	137
111.0225	137
113.0394	274
115.0546	156
128.0495	97
130.0647	97
137.0371	235
138.0426	97
139.0545	156
140.0492	156
149.0364	117
150.0463	372
151.0549	156
152.0634	117
161.0382	274
162.0468	195
163.0535	626
164.0481	117
174.0488	78
175.055	78
176.0627	313
177.0595	176
185.0394	176
186.045	509
187.0538	999
188.0498	509
189.0711	117
190.065	97
202.0648	195
203.0735	156
204.081	97
212.0491	391
213.0564	411
214.0641	372
