Mass spectrum: 1-Boc-4-[3-(ethoxycarbonyl)phenyl]piperazine; LC-ESI-QTOF; MS2; 80 V
Name: 1-Boc-4-[3-(ethoxycarbonyl)phenyl]piperazine
Formula: C18H26N2O4
Exact mass: 334.1893
SMILES: CCOC(=O)C1=CC(=CC=C1)N2CCN(CC2)C(=O)OC(C)(C)C
InChI: InChI=1S/C18H26N2O4/c1-5-23-16(21)14-7-6-8-15(13-14)19-9-11-20(12-10-19)17(22)24-18(2,3)4/h6-8,13H,5,9-12H2,1-4H3
Instrument: TripleTOF 6600 SCIEX
Instrument type: LC-ESI-QTOF
Ms type: MS2
Ion mode: POSITIVE
Collision energy: 80
Fragmentation mode: CID
Ionization: ESI
Column name: Zorbax Eclipse Plus C18 2.1 mm x 150 mm, 3.5 um, Agilent
Retention time: 14.611 min
Precursor m/z: 335.1965
Precursor type: [M+H]+
m/z	relative intensity
38.0151	14
39.0231	79
41.0386	103
42.0343	30
44.0495	98
50.0158	21
51.0229	64
56.0493	42
57.0699	116
65.039	260
70.0652	13
75.0229	28
77.0387	564
78.0342	21
78.0464	54
79.0542	77
80.0497	27
89.0391	20
90.0461	31
91.0546	576
92.0496	69
92.062	27
93.0342	10
93.0574	92
93.0703	38
94.0653	55
102.0469	12
103.0542	176
104.0489	101
105.0348	12
105.0443	14
105.0562	22
106.0657	34
115.0538	21
116.0492	40
117.0572	354
118.0655	999
119.0732	132
120.0442	12
120.0807	290
121.0281	57
128.0493	20
129.0576	12
130.0653	53
131.0602	12
131.0717	18
132.0812	41
133.0761	10
143.0727	15
144.0432	17
144.0819	26
145.0754	38
146.0598	67
148.0398	53
149.0461	15
150.0548	79
159.0919	19
161.1066	15
164.0712	290
176.0703	12
