Mass spectrum: Azathioprine; LC-ESI-QTOF; MS2; 30 V
Name: Azathioprine
Class: Pharmaceutical
Formula: C9H7N7O2S
Exact mass: 277.0382
SMILES: Cn1cnc(c1Sc2ncnc3nc[nH]c23)[N+]([O-])=O
InChI: InChI=1S/C9H7N7O2S/c1-15-4-14-7(16(17)18)9(15)19-8-5-6(11-2-10-5)12-3-13-8/h2-4H,1H3,(H,10,11,12,13)
Instrument: TripleTOF 5600 SCIEX
Instrument type: LC-ESI-QTOF
Ms type: MS2
Ion mode: POSITIVE
Collision energy: 30
Fragmentation mode: CID
Ionization: ESI
Column name: Zorbax Eclipse Plus C18 2.1 mm x 150 mm, 3.5 um, Agilent
Retention time: 5.367 min
Precursor m/z: 278.0455
Precursor type: [M+H]+
m/z	relative intensity
57.9772	29
67.0326	223
69.0109	29
69.0474	41
74.0083	52
81.0469	64
84.9869	464
85.0229	29
100.9795	47
113.0155	105
119.0363	64
120.0437	94
121.0493	52
136.039	70
142.0067	999
146.0435	23
152.0151	176
153.0221	23
164.0149	205
165.0226	293
172.0623	94
174.0779	105
176.0159	41
177.0212	123
191.0278	47
199.0731	893
204.0341	217
205.0416	775
215.0236	29
231.0444	381
232.0526	681
