Mass spectrum: Tylosin; LC-ESI-QTOF; MS2; 90 V
Name: Tylosin
Class: Pharmaceutical
Formula: C46H77NO17
Exact mass: 915.5192
SMILES: CCC1C(C=C(C=CC(=O)C(CC(C(C(C(CC(=O)O1)O)C)OC2C(C(C(C(O2)C)OC3CC(C(C(O3)C)O)(C)O)N(C)C)O)CC=O)C)C)COC4C(C(C(C(O4)C)O)OC)OC
InChI: InChI=1S/C46H77NO17/c1-13-33-30(22-58-45-42(57-12)41(56-11)37(52)26(5)60-45)18-23(2)14-15-31(49)24(3)19-29(16-17-48)39(25(4)32(50)20-34(51)62-33)64-44-38(53)36(47(9)10)40(27(6)61-44)63-35-21-46(8,55)43(54)28(7)59-35/h14-15,17-18,24-30,32-33,35-45,50,52-55H,13,16,19-22H2,1-12H3
Instrument: TripleTOF 6600 SCIEX
Instrument type: LC-ESI-QTOF
Ms type: MS2
Ion mode: POSITIVE
Collision energy: 90
Fragmentation mode: CID
Ionization: ESI
Column name: Zorbax Eclipse Plus C18 2.1 mm x 150 mm, 3.5 um, Agilent
Retention time: 8.178 min
Precursor m/z: 916.5264
Precursor type: [M+H]+
m/z	relative intensity
41.0388	53
43.0181	570
55.0541	83
58.0653	89
59.0494	35
70.0653	41
71.0493	29
72.0815	29
73.0527	160
81.0703	59
83.0495	933
84.0812	83
85.0287	59
85.065	29
86.0599	41
87.0438	237
88.076	999
98.0592	23
98.0966	309
99.0439	47
100.0763	124
101.0605	600
101.0839	77
109.0651	35
112.0759	41
114.0922	190
115.0998	142
116.0709	374
121.066	29
126.0908	41
127.0762	136
132.1022	214
145.0847	35
156.1025	208
174.1138	826
