Mass spectrum: Carbaryl; LC-ESI-QTOF; MS2; 140 V
Name: Carbaryl
Class: Insecticide
Formula: C12H11NO2
Exact mass: 201.079
SMILES: CNC(=O)Oc1cccc2ccccc12
InChI: InChI=1S/C12H11NO2/c1-13-12(14)15-11-8-4-6-9-5-2-3-7-10(9)11/h2-8H,1H3,(H,13,14)
Instrument: TripleTOF 5600 SCIEX
Instrument type: LC-ESI-QTOF
Ms type: MS2
Ion mode: POSITIVE
Collision energy: 140
Fragmentation mode: CID
Ionization: ESI
Column name: Zorbax Eclipse Plus C18 2.1 mm x 150 mm, 3.5 um, Agilent
Retention time: 10.147 min
Precursor m/z: 202.0863
Precursor type: [M+H]+
m/z	relative intensity
51.0285	305
60.0062	40
73.0093	295
74.0176	999
75.0268	142
84.0038	71
85.0105	183
86.0183	132
97.0107	81
98.0165	112
