Mass spectrum: Metoprolol; LC-ESI-QTOF; MS2; 35 V
Name: Metoprolol
Class: Pharmaceutical
Formula: C15H25NO3
Exact mass: 267.1834
SMILES: CC(C)NCC(COC1=CC=C(C=C1)CCOC)O
InChI: InChI=1S/C15H25NO3/c1-12(2)16-10-14(17)11-19-15-6-4-13(5-7-15)8-9-18-3/h4-7,12,14,16-17H,8-11H2,1-3H3
Instrument: TripleTOF 5600 SCIEX
Instrument type: LC-ESI-QTOF
Ms type: MS2
Ion mode: POSITIVE
Collision energy: 35
Fragmentation mode: CID
Ionization: ESI
Column name: Zorbax Eclipse Plus C18 2.1 mm x 150 mm, 3.5 um, Agilent
Retention time: 6.14 min
Precursor m/z: 268.1908
Precursor type: [M+H]+
m/z	relative intensity
51.0172	0
53.0411	0
55.0153	2
56.0482	999
57.034	1
57.0681	0
58.0627	37
60.0808	0
67.0505	0
70.0642	0
71.074	0
71.9827	0
72.0815	595
74.0595	968
79.0515	3
84.0787	2
86.0988	0
91.055	24
93.0698	2
95.0481	0
98.0972	182
99.1043	0
100.1166	1
103.0546	17
104.0561	0
105.0702	50
107.0859	0
115.054	1
116.1081	286
117.0734	1
119.0899	2
121.0658	427
122.0681	0
129.0719	3
131.0856	31
133.0628	568
135.081	5
141.0705	6
143.0765	0
144.0577	16
145.0649	0
148.0755	39
149.0966	0
153.0953	0
157.0669	0
158.0854	0
159.0788	363
165.095	13
173.0958	0
191.1061	32
226.1479	0
268.1908	5
