Mass spectrum: Metolachlor OA; LC-ESI-QTOF; MS2; 70 V
Name: Metolachlor OA
Class: Herbicide
Formula: C15H21NO4
Exact mass: 279.1471
SMILES: CCC1=CC=CC(=C1N(C(C)COC)C(=O)C(=O)O)C
InChI: InChI=1S/C15H21NO4/c1-5-12-8-6-7-10(2)13(12)16(11(3)9-20-4)14(17)15(18)19/h6-8,11H,5,9H2,1-4H3,(H,18,19)
Instrument: TripleTOF 5600 SCIEX
Instrument type: LC-ESI-QTOF
Ms type: MS2
Ion mode: POSITIVE
Collision energy: 70
Fragmentation mode: CID
Ionization: ESI
Column name: Zorbax Eclipse Plus C18 2.1 mm x 150 mm, 3.5 um, Agilent
Retention time: 9.915 min
Precursor m/z: 280.1543
Precursor type: [M+H]+
m/z	relative intensity
45.0417	98
65.041	182
73.0679	126
77.0403	450
79.0552	84
91.0563	914
103.0537	140
104.061	126
106.0668	98
115.0541	379
116.0541	84
117.0553	98
117.0671	267
118.0637	337
119.0721	182
120.0809	98
128.0558	70
129.0687	56
130.0649	999
131.0734	422
132.0787	239
133.0896	56
134.096	112
143.0708	98
144.0805	464
145.0878	112
146.0957	140
