Mass spectrum: Oxibendazole; LC-ESI-QTOF; MS2; 50 V
Name: Oxibendazole
Class: Pharmaceutical
Formula: C12H15N3O3
Exact mass: 249.1113
SMILES: CCCOC1=CC2=C(C=C1)N=C(N2)NC(=O)OC
InChI: InChI=1S/C12H15N3O3/c1-3-6-18-8-4-5-9-10(7-8)14-11(13-9)15-12(16)17-2/h4-5,7H,3,6H2,1-2H3,(H2,13,14,15,16)
Instrument: TripleTOF 5600 SCIEX
Instrument type: LC-ESI-QTOF
Ms type: MS2
Ion mode: POSITIVE
Collision energy: 50
Fragmentation mode: CID
Ionization: ESI
Column name: Zorbax Eclipse Plus C18 2.1 mm x 150 mm, 3.5 um, Agilent
Retention time: 6.663 min
Precursor m/z: 250.1186
Precursor type: [M+H]+
m/z	relative intensity
53.0386	15
78.0335	14
79.0412	10
80.0497	146
81.033	30
93.0084	10
93.0454	12
105.0455	10
106.0287	46
108.0447	78
119.0479	13
120.0554	30
121.0399	79
130.0402	49
131.0247	11
133.0395	56
134.047	31
147.0426	47
148.0509	522
149.0359	12
149.0576	24
158.0351	34
175.0385	56
176.0457	999
218.0918	24
