Mass spectrum: 1-(o-Tolyl)-biguanide; LC-ESI-QTOF; MS2; 40 V
Name: 1-(o-Tolyl)-biguanide
Class: Industrial_process
Formula: C9H13N5
Exact mass: 191.1171
SMILES: Cc1ccccc1N=C(N)N=C(N)N
InChI: InChI=1S/C9H13N5/c1-6-4-2-3-5-7(6)13-9(12)14-8(10)11/h2-5H,1H3,(H6,10,11,12,13,14)
Instrument: TripleTOF 5600 SCIEX
Instrument type: LC-ESI-QTOF
Ms type: MS2
Ion mode: POSITIVE
Collision energy: 40
Fragmentation mode: CID
Ionization: ESI
Column name: Zorbax Eclipse Plus C18 2.1 mm x 150 mm, 3.5 um, Agilent
Retention time: 4.675 min
Precursor m/z: 192.1244
Precursor type: [M+H]+
m/z	relative intensity
43.0387	322
60.0616	753
65.0433	132
68.0281	36
77.0414	102
78.0359	21
79.057	122
85.0528	46
89.0404	272
90.0339	17
91.0559	677
93.0585	242
104.0498	81
106.0654	999
108.0809	221
114.0337	17
116.0496	916
117.057	83
118.0525	128
131.06	101
132.068	157
133.0761	576
141.0439	37
150.1023	132
158.0712	91
175.0974	81
192.1243	65
