Mass spectrum: N,N-Dimethyltetradecylamine; LC-ESI-QTOF; MS2; 100 V
Name: N,N-Dimethyltetradecylamine
Class: Personal_care_product
Formula: C16H35N
Exact mass: 241.277
SMILES: CCCCCCCCCCCCCCN(C)C
InChI: InChI=1S/C16H35N/c1-4-5-6-7-8-9-10-11-12-13-14-15-16-17(2)3/h4-16H2,1-3H3
Instrument: TripleTOF 6600 SCIEX
Instrument type: LC-ESI-QTOF
Ms type: MS2
Ion mode: POSITIVE
Collision energy: 100
Fragmentation mode: CID
Ionization: ESI
Column name: Zorbax Eclipse Plus C18 2.1 mm x 150 mm, 3.5 um, Agilent
Retention time: 11.365 min
Precursor m/z: 242.2842
Precursor type: [M+H]+
m/z	relative intensity
30.0331	169
37.0063	203
38.002	118
38.0143	253
39.0222	999
41.0379	694
42.0336	101
43.0537	118
44.0483	203
46.0641	338
58.0635	135
