Mass spectrum: Triclabendazole; LC-ESI-QTOF; MS2; 100 V
Name: Triclabendazole
Class: Pharmaceutical
Formula: C14H9Cl3N2OS
Exact mass: 357.9501
SMILES: CSc1[nH]c2cc(Cl)c(Oc3cccc(Cl)c3Cl)cc2n1
InChI: InChI=1S/C14H9Cl3N2OS/c1-21-14-18-9-5-8(16)12(6-10(9)19-14)20-11-4-2-3-7(15)13(11)17/h2-6H,1H3,(H,18,19)
Instrument: TripleTOF 5600 SCIEX
Instrument type: LC-ESI-QTOF
Ms type: MS2
Ion mode: POSITIVE
Collision energy: 100
Fragmentation mode: CID
Ionization: ESI
Column name: Zorbax Eclipse Plus C18 2.1 mm x 150 mm, 3.5 um, Agilent
Retention time: 13.11 min
Precursor m/z: 358.9574
Precursor type: [M+H]+
m/z	relative intensity
44.9798	124
48.9848	42
51.0223	21
52.0188	30
61.9794	64
62.0152	17
63.024	77
64.0183	205
65.0267	21
68.9803	42
69.975	21
69.9885	21
72.9849	120
74.0163	51
75.0114	38
75.0232	68
76.0189	321
77.0264	21
77.0403	38
78.034	180
78.9414	47
81.9893	42
84.9853	60
85.9801	77
88.0194	25
90.0341	81
91.03	231
92.0367	115
92.9797	60
93.9876	47
96.9849	60
98.0179	21
99.0237	51
99.9954	480
101.0393	30
102.0338	47
103.0301	115
104.0357	64
107.9909	218
108.9846	17
108.9978	64
110.0025	17
110.9998	64
111.995	128
113.0043	68
113.0382	34
113.9741	25
116.0398	30
116.9562	30
117.0454	34
118.0519	34
119.9903	60
120.9981	107
123.0235	30
123.9964	47
124.02	17
124.0296	25
125.0038	38
125.0383	282
126.0482	291
127.0065	999
127.0406	34
128.9557	137
130.0497	30
135.0014	132
136.0082	124
136.9886	25
138.0093	51
138.0344	55
139.0053	261
139.0409	47
139.9886	25
140.0487	265
143.9666	167
147.001	38
148.0095	801
150.0353	90
151.0424	325
152.0509	428
153.0259	47
153.0591	244
155.9684	81
157.0113	30
159.0015	38
160.0084	355
161.0147	180
162.0191	47
163.033	162
165.0229	38
165.0459	21
166.0519	17
169.9685	34
170.9786	994
173.0184	21
174.0124	102
176.0028	34
177.0463	47
178.0543	90
179.0353	17
179.0608	257
180.045	270
181.0528	25
182.9791	21
183.0125	111
184.0216	55
185.007	64
186.0131	150
187.0159	141
188.0272	141
189.0109	308
190.0013	21
193.9668	47
194.0499	47
195.0578	34
195.9809	51
198.9757	42
200.0034	25
202.0157	38
206.047	21
207.0582	120
210.0234	34
211.0329	261
212.0161	85
213.0218	98
214.0074	210
215.0152	115
216.0243	64
219.9741	17
220.9824	30
221.9866	30
222.9737	38
229.0196	17
239.0264	38
241.011	30
241.03	21
242.0256	591
245.0053	21
245.978	158
248.9885	17
250.9904	42
272.9878	21
275.9891	25
