Mass spectrum: Methabenzthiazuron; LC-ESI-QTOF; MS2; 110 V
Name: Methabenzthiazuron
Class: Herbicide
Formula: C10H11N3OS
Exact mass: 221.0623
SMILES: CNC(=O)N(C)c1sc2ccccc2n1
InChI: InChI=1S/C10H11N3OS/c1-11-9(14)13(2)10-12-7-5-3-4-6-8(7)15-10/h3-6H,1-2H3,(H,11,14)
Instrument: TripleTOF 5600 SCIEX
Instrument type: LC-ESI-QTOF
Ms type: MS2
Ion mode: POSITIVE
Collision energy: 110
Fragmentation mode: CID
Ionization: ESI
Column name: Zorbax Eclipse Plus C18 2.1 mm x 150 mm, 3.5 um, Agilent
Retention time: 9.783 min
Precursor m/z: 222.0696
Precursor type: [M+H]+
m/z	relative intensity
51.0295	90
52.0365	56
53.0428	37
57.9923	15
58.0329	104
64.0326	13
65.0426	51
67.9738	37
68.9835	999
69.0353	11
69.9903	465
70.0253	11
77.0402	27
78.0358	37
79.0429	25
80.0519	42
80.9813	15
81.9882	107
90.0352	10
91.0424	22
92.98	51
94.9958	696
96.0034	376
96.0291	13
97.0101	11
105.0459	11
108.0004	11
118.051	13
122.0044	99
123.0138	11
