Mass spectrum: Propyphenazone; LC-ESI-QTOF; MS2; 130 V
Name: Propyphenazone
Class: Pharmaceutical
Formula: C14H18N2O
Exact mass: 230.1419
SMILES: CC1=C(C(=O)N(N1C)C2=CC=CC=C2)C(C)C
InChI: InChI=1S/C14H18N2O/c1-10(2)13-11(3)15(4)16(14(13)17)12-8-6-5-7-9-12/h5-10H,1-4H3
Instrument: TripleTOF 5600 SCIEX
Instrument type: LC-ESI-QTOF
Ms type: MS2
Ion mode: POSITIVE
Collision energy: 130
Fragmentation mode: CID
Ionization: ESI
Column name: Zorbax Eclipse Plus C18 2.1 mm x 150 mm, 3.5 um, Agilent
Retention time: 9.545 min
Precursor m/z: 231.1492
Precursor type: [M+H]+
m/z	relative intensity
37.0076	86
38.015	86
39.0228	259
41.026	105
41.038	57
42.0337	96
49.008	124
50.0149	778
51.0229	999
52.0185	86
53.0388	96
54.0319	38
56.0494	509
62.0153	76
63.0233	115
65.0386	115
67.0418	192
74.0148	105
75.0229	48
77.0383	297
78.0328	38
80.0497	259
82.065	48
89.0393	105
