Mass spectrum: Guaifenesin; LC-ESI-QTOF; MS2; 40 V
Name: Guaifenesin
Formula: C10H14O4
Exact mass: 198.0892
SMILES: COC1=CC=CC=C1OCC(CO)O
InChI: InChI=1S/C10H14O4/c1-13-9-4-2-3-5-10(9)14-7-8(12)6-11/h2-5,8,11-12H,6-7H2,1H3
Instrument: TripleTOF X500R SCIEX
Instrument type: LC-ESI-QTOF
Ms type: MS2
Ion mode: POSITIVE
Collision energy: 40
Fragmentation mode: CID
Ionization: ESI
Column name: Zorbax Eclipse Plus C18 2.1 mm x 150 mm, 3.5 um, Agilent
Retention time: 6.298 min
Precursor m/z: 199.0965
Precursor type: [M+H]+
m/z	relative intensity
31.0177	32
39.0235	64
41.0395	48
45.0341	64
51.0235	48
53.04	16
57.0331	145
58.0281	16
65.039	386
66.0479	16
72.986	96
74.098	16
77.0392	805
79.0552	145
81.0337	32
91.0534	193
92.0259	161
92.0591	32
93.0356	193
93.0706	16
95.0489	64
100.0768	177
100.0913	32
103.0556	177
105.0701	80
108.0574	48
110.0369	596
116.9775	96
120.0578	112
121.0285	999
122.0369	563
147.0458	64
