Mass spectrum: Terfenadine; LC-ESI-QTOF; MS2; 130 V
Name: Terfenadine
Class: Pharmaceutical
Formula: C32H41NO2
Exact mass: 471.3137
SMILES: CC(C)(C)C1=CC=C(C=C1)C(CCCN2CCC(CC2)C(C3=CC=CC=C3)(C4=CC=CC=C4)O)O
InChI: InChI=1S/C32H41NO2/c1-31(2,3)26-18-16-25(17-19-26)30(34)15-10-22-33-23-20-29(21-24-33)32(35,27-11-6-4-7-12-27)28-13-8-5-9-14-28/h4-9,11-14,16-19,29-30,34-35H,10,15,20-24H2,1-3H3
Instrument: TripleTOF 6600 SCIEX
Instrument type: LC-ESI-QTOF
Ms type: MS2
Ion mode: POSITIVE
Collision energy: 130
Fragmentation mode: CID
Ionization: ESI
Column name: Zorbax Eclipse Plus C18 2.1 mm x 150 mm, 3.5 um, Agilent
Retention time: 10.223 min
Precursor m/z: 472.321
Precursor type: [M+H]+
m/z	relative intensity
39.0213	242
41.0373	211
51.0213	60
57.0682	80
65.0367	211
68.0474	70
70.0629	60
77.0367	322
78.0444	50
79.0525	70
80.0476	70
82.0637	40
84.0788	50
89.036	70
91.0519	999
94.0626	50
96.0777	60
102.0436	70
103.0512	90
105.067	80
115.0518	544
116.0599	80
117.068	363
118.0742	50
126.0425	60
127.0515	161
128.0597	494
129.0676	100
130.067	50
131.0817	60
141.066	50
152.0601	121
155.0587	50
165.067	181
189.0675	60
202.0762	232
215.0819	111
