Mass spectrum: Rifaximin; LC-ESI-QTOF; MS2; 40 V
Name: Rifaximin
Class: Pharmaceutical
Formula: C43H51N3O11
Exact mass: 785.3524
SMILES: CC1C=CC=C(C(=O)NC2=C(C3=C(C4=C(C(=C3O)C)OC(C4=O)(OC=CC(C(C(C(C(C(C1O)C)O)C)OC(=O)C)C)OC)C)C5=C2N6C=CC(=CC6=N5)C)O)C
InChI: InChI=1S/C43H51N3O11/c1-19-14-16-46-28(18-19)44-32-29-30-37(50)25(7)40-31(29)41(52)43(9,57-40)55-17-15-27(54-10)22(4)39(56-26(8)47)24(6)36(49)23(5)35(48)20(2)12-11-13-21(3)42(53)45-33(34(32)46)38(30)51/h11-18,20,22-24,27,35-36,39,48-51H,1-10H3,(H,45,53)
Instrument: TripleTOF 6600 SCIEX
Instrument type: LC-ESI-QTOF
Ms type: MS2
Ion mode: POSITIVE
Collision energy: 40
Fragmentation mode: CID
Ionization: ESI
Column name: Zorbax Eclipse Plus C18 2.1 mm x 150 mm, 3.5 um, Agilent
Retention time: 11.765 min
Precursor m/z: 786.3597
Precursor type: [M+H]+
m/z	relative intensity
95.0481	9
95.0839	18
107.0846	22
109.064	12
109.0992	10
121.0998	10
123.0792	33
135.0789	15
137.0949	11
145.0997	12
147.1151	11
151.0746	91
153.0895	19
159.1156	13
161.0949	21
163.1107	62
173.0947	15
175.1108	14
179.1051	30
191.1056	35
193.1205	11
201.1254	16
209.1164	20
231.1375	10
279.174	11
297.1846	18
315.195	22
347.1028	17
361.106	11
362.1135	73
676.3024	28
694.3135	44
708.3267	11
718.3158	15
736.3253	125
754.3369	999
755.3356	18
768.3512	43
786.3635	372
