Mass spectrum: Rifaximin; LC-ESI-QTOF; MS2; 150 V
Name: Rifaximin
Class: Pharmaceutical
Formula: C43H51N3O11
Exact mass: 785.3524
SMILES: CC1C=CC=C(C(=O)NC2=C(C3=C(C4=C(C(=C3O)C)OC(C4=O)(OC=CC(C(C(C(C(C(C1O)C)O)C)OC(=O)C)C)OC)C)C5=C2N6C=CC(=CC6=N5)C)O)C
InChI: InChI=1S/C43H51N3O11/c1-19-14-16-46-28(18-19)44-32-29-30-37(50)25(7)40-31(29)41(52)43(9,57-40)55-17-15-27(54-10)22(4)39(56-26(8)47)24(6)36(49)23(5)35(48)20(2)12-11-13-21(3)42(53)45-33(34(32)46)38(30)51/h11-18,20,22-24,27,35-36,39,48-51H,1-10H3,(H,45,53)
Instrument: TripleTOF 6600 SCIEX
Instrument type: LC-ESI-QTOF
Ms type: MS2
Ion mode: NEGATIVE
Collision energy: 150
Fragmentation mode: CID
Ionization: ESI
Column name: Zorbax Eclipse Plus C18 2.1 mm x 150 mm, 3.5 um, Agilent
Retention time: 11.765 min
Precursor m/z: 784.3451
Precursor type: [M-H]-
m/z	relative intensity
41.0013	38
41.9968	53
59.0114	92
71.011	30
155.0355	30
156.0529	99
169.0426	69
171.044	46
195.0534	61
197.0323	38
217.0759	38
220.0617	61
220.0808	38
224.0359	30
224.0827	38
231.0854	76
232.0614	69
232.0828	84
233.0691	69
233.0859	76
234.0746	61
235.0442	46
235.0829	161
236.0405	38
241.0553	30
241.0678	38
244.087	53
245.0647	69
246.0398	38
246.0624	76
246.0742	46
247.0486	38
247.0824	153
248.078	153
249.0871	192
250.0326	30
250.0935	84
251.0443	38
256.0863	38
257.0692	53
257.0872	46
258.0735	53
258.0994	161
259.0772	276
260.0813	184
261.0638	115
261.0903	176
262.0705	192
262.094	184
263.07	230
265.0563	38
271.0853	30
272.0783	138
273.0618	46
273.0842	38
274.0605	61
274.0915	61
275.0774	169
276.0785	345
277.0839	307
278.0885	161
283.0863	38
284.0753	53
285.0778	122
286.0536	76
286.0672	30
286.0953	322
287.0732	322
288.0451	30
288.0743	261
289.0554	46
289.0808	146
290.0886	146
291.0952	53
292.0564	46
298.0661	53
300.0763	130
301.054	53
301.0846	130
302.0886	192
303.0704	192
304.0703	138
304.1035	184
305.0895	107
306.082	176
312.077	61
313.0837	107
314.0643	69
314.0866	146
315.0697	199
316.0688	292
317.0497	46
317.08	122
318.0865	76
319.0609	69
319.1007	38
325.0836	69
326.0922	38
327.0706	38
328.0715	130
329.0747	161
330.0826	999
331.0695	245
331.0928	61
332.1005	130
333.0835	53
334.0804	99
338.0895	53
340.069	38
340.0964	38
341.0814	30
341.1189	30
342.0834	122
343.0653	61
343.0892	122
344.0632	69
345.0819	184
346.0726	61
347.0967	38
350.089	38
351.1048	30
353.1096	69
354.0812	30
356.0631	76
357.0789	69
358.0745	169
359.0838	99
360.09	199
364.1211	69
366.0814	46
368.0604	38
368.0941	38
370.0779	46
379.0922	69
381.0909	61
382.0969	38
382.1158	30
386.0762	38
403.1009	38
404.099	38
421.103	30
436.1054	46
