Mass spectrum: 3-Amino-5-methylisoxazole; LC-ESI-QTOF; MS2; 40 V
Name: 3-Amino-5-methylisoxazole
Formula: C4H6N2O
Exact mass: 98.048
SMILES: CC1=CC(=NO1)N
InChI: InChI=1S/C4H6N2O/c1-3-2-4(5)6-7-3/h2H,1H3,(H2,5,6)
Instrument: TripleTOF 6600 SCIEX
Instrument type: LC-ESI-QTOF
Ms type: MS2
Ion mode: POSITIVE
Collision energy: 40
Fragmentation mode: CID
Ionization: ESI
Column name: Zorbax Eclipse Plus C18 2.1 mm x 150 mm, 3.5 um, Agilent
Retention time: 4.412 min
Precursor m/z: 99.0553
Precursor type: [M+H]+
m/z	relative intensity
30.0329	64
31.0167	14
38.0016	11
40.0172	11
42.0205	18
42.0329	41
43.0257	999
44.012	80
44.0489	332
54.0328	23
55.0171	13
68.0122	11
99.0536	13
