Mass spectrum: 6alpha-Methylprednisolone; LC-ESI-QTOF; MS2; 150 V
Name: 6alpha-Methylprednisolone
Class: Pharmaceutical
Formula: C22H30O5
Exact mass: 374.2093
SMILES: C[C@H]1C[C@H]2[C@@H]3CC[C@](O)(C(=O)CO)[C@@]3(C)C[C@H](O)[C@@H]2[C@@]4(C)C=CC(=O)C=C14
InChI: InChI=1S/C22H30O5/c1-12-8-14-15-5-7-22(27,18(26)11-23)21(15,3)10-17(25)19(14)20(2)6-4-13(24)9-16(12)20/h4,6,9,12,14-15,17,19,23,25,27H,5,7-8,10-11H2,1-3H3/t12-,14-,15-,17-,19+,20-,21-,22-/m0/s1
Instrument: TripleTOF 5600 SCIEX
Instrument type: LC-ESI-QTOF
Ms type: MS2
Ion mode: POSITIVE
Collision energy: 150
Fragmentation mode: CID
Ionization: ESI
Column name: Zorbax Eclipse Plus C18 2.1 mm x 150 mm, 3.5 um, Agilent
Retention time: 9.016 min
Precursor m/z: 375.2166
Precursor type: [M+H]+
m/z	relative intensity
51.0279	142
65.0426	285
67.0562	33
74.0178	41
75.0262	50
77.0404	755
78.0502	100
79.0551	83
89.0388	260
91.0548	612
91.0786	41
102.0476	184
103.0525	109
107.0483	41
115.0525	999
115.0825	33
117.0696	50
126.0462	125
127.0514	277
128.0606	495
129.0688	67
131.0485	50
139.0537	176
141.0669	109
150.0453	134
151.0532	419
152.0613	579
163.0531	235
164.0619	209
165.069	428
176.0599	277
177.0709	83
178.0761	142
181.0673	50
187.0532	117
188.0595	67
189.0675	310
190.0802	50
200.0614	134
201.0679	83
202.0769	134
213.0706	58
215.0853	33
