Mass spectrum: N,N-didesmethyl-venlafaxine; LC-ESI-QTOF; MS2; 70 V
Name: N,N-didesmethyl-venlafaxine
Class: Pharmaceutical; Transformation_product; Transformation_product-Metabolite
Formula: C15H23NO2
Exact mass: 249.1729
SMILES: COC1=CC=C(C=C1)C(CN)C2(CCCCC2)O
InChI: InChI=1S/C15H23NO2/c1-18-13-7-5-12(6-8-13)14(11-16)15(17)9-3-2-4-10-15/h5-8,14,17H,2-4,9-11,16H2,1H3
Instrument: TripleTOF 5600 SCIEX
Instrument type: LC-ESI-QTOF
Ms type: MS2
Ion mode: POSITIVE
Collision energy: 70
Fragmentation mode: CID
Ionization: ESI
Column name: Zorbax Eclipse Plus C18 2.1 mm x 150 mm, 3.5 um, Agilent
Retention time: 6.316 min
Precursor m/z: 250.1802
Precursor type: [M+H]+
m/z	relative intensity
65.043	290
77.0412	726
77.0769	36
78.0488	735
79.0564	208
81.0726	99
89.0403	63
90.048	54
91.056	999
91.0929	36
102.046	36
103.0544	199
104.0629	99
105.0704	45
106.0411	90
107.0482	72
115.0537	653
116.0622	45
117.0684	72
119.0869	45
121.0642	908
127.0553	72
128.0615	181
129.074	90
131.0485	181
132.0574	54
141.0698	63
144.0597	54
