Mass spectrum: Ethyldiphenylphosphine oxide; LC-ESI-QTOF; MS2; 50 V
Name: Ethyldiphenylphosphine oxide
Class: Industrial_process
Formula: C14H15OP
Exact mass: 230.0861
SMILES: CC[P](=O)(c1ccccc1)c2ccccc2
InChI: InChI=1S/C14H15OP/c1-2-16(15,13-9-5-3-6-10-13)14-11-7-4-8-12-14/h3-12H,2H2,1H3
Instrument: TripleTOF 5600 SCIEX
Instrument type: LC-ESI-QTOF
Ms type: MS2
Ion mode: POSITIVE
Collision energy: 50
Fragmentation mode: CID
Ionization: ESI
Column name: Zorbax Eclipse Plus C18 2.1 mm x 150 mm, 3.5 um, Agilent
Retention time: 8.816 min
Precursor m/z: 231.0933
Precursor type: [M+H]+
m/z	relative intensity
65.0428	19
75.0022	16
77.0411	55
78.0495	31
79.0571	21
83.0066	22
91.0555	23
103.0544	13
105.0706	111
109.0211	300
125.0161	999
152.0629	16
153.0467	165
154.077	21
155.0866	40
165.0708	16
183.0362	122
197.0525	13
199.0306	31
200.0385	24
201.046	28
215.0626	171
