Mass spectrum: 10,11-Dihydrocarbamazepine; LC-ESI-QTOF; MS2; 140 V
Name: 10,11-Dihydrocarbamazepine
Class: Pharmaceutical; Metabolite
Formula: C15H14N2O
Exact mass: 238.1106
SMILES: NC(=O)N1c2ccccc2CCc3ccccc13
InChI: InChI=1S/C15H14N2O/c16-15(18)17-13-7-3-1-5-11(13)9-10-12-6-2-4-8-14(12)17/h1-8H,9-10H2,(H2,16,18)
Instrument: TripleTOF 5600 SCIEX
Instrument type: LC-ESI-QTOF
Ms type: MS2
Ion mode: POSITIVE
Collision energy: 140
Fragmentation mode: CID
Ionization: ESI
Column name: Zorbax Eclipse Plus C18 2.1 mm x 150 mm, 3.5 um, Agilent
Retention time: 9.235 min
Precursor m/z: 239.1179
Precursor type: [M+H]+
m/z	relative intensity
44.0194	93
60.0034	46
65.042	476
73.0101	121
74.018	999
75.0252	634
76.0208	56
76.0333	317
77.0406	569
78.0477	74
85.0085	102
86.0163	317
87.0249	224
88.035	56
89.0401	466
91.0545	121
97.0081	65
98.0148	606
99.0226	205
100.0292	130
101.0393	102
102.0459	121
109.007	56
110.0155	121
111.0237	102
113.0377	168
115.052	93
122.0145	74
125.0384	130
126.0454	233
127.0555	46
137.0385	84
138.0439	37
139.054	112
140.05	93
149.0375	102
150.046	625
151.0518	196
152.047	37
152.0604	56
161.0393	84
162.0451	112
163.0545	261
164.0452	46
164.0617	46
174.0454	37
175.0449	46
176.0479	56
177.0544	93
178.0683	56
188.051	46
189.055	84
190.064	65
