Mass spectrum: Acridine-9-carboxylic acid; LC-ESI-QTOF; MS2; 70 V
Name: Acridine-9-carboxylic acid
Class: Pharmaceutical; Metabolite; Transformation_product
Formula: C14H9NO2
Exact mass: 223.0633
SMILES: OC(=O)c1c2ccccc2nc3ccccc13
InChI: InChI=1S/C14H9NO2/c16-14(17)13-9-5-1-3-7-11(9)15-12-8-4-2-6-10(12)13/h1-8H,(H,16,17)
Instrument: TripleTOF 5600 SCIEX
Instrument type: LC-ESI-QTOF
Ms type: MS2
Ion mode: POSITIVE
Collision energy: 70
Fragmentation mode: CID
Ionization: ESI
Column name: Zorbax Eclipse Plus C18 2.1 mm x 150 mm, 3.5 um, Agilent
Retention time: 4.656 min
Precursor m/z: 224.0706
Precursor type: [M+H]+
m/z	relative intensity
74.0214	17
75.0258	69
77.041	153
78.0491	13
89.0394	41
90.048	13
91.0552	24
99.0244	17
101.038	85
102.0464	26
113.039	37
114.0462	28
115.0543	153
116.0514	10
117.0566	15
125.039	52
126.0458	113
127.0528	107
128.0488	109
139.0541	533
140.0511	345
141.057	10
141.0675	13
149.0365	19
150.0458	251
151.0542	539
152.0615	568
153.0584	83
154.0647	10
164.0495	21
165.0558	15
166.0654	751
167.0732	999
168.081	13
176.05	39
177.0574	229
178.0647	542
179.0724	168
180.0815	32
195.0692	32
196.0727	17
