Mass spectrum: Ethyl-N-(3-amino-2-methylphenyl)carbamate; LC-ESI-QTOF; MS2; 50 V
Name: Ethyl-N-(3-amino-2-methylphenyl)carbamate
Class: Industrial_process
Formula: C10H14N2O2
Exact mass: 194.1055
SMILES: CCOC(=O)NC1=CC=CC(=C1C)N
InChI: InChI=1S/C10H14N2O2/c1-3-14-10(13)12-9-6-4-5-8(11)7(9)2/h4-6H,3,11H2,1-2H3,(H,12,13)
Instrument: TripleTOF 5600 SCIEX
Instrument type: LC-ESI-QTOF
Ms type: MS2
Ion mode: POSITIVE
Collision energy: 50
Fragmentation mode: CID
Ionization: ESI
Column name: Zorbax Eclipse Plus C18 2.1 mm x 150 mm, 3.5 um, Agilent
Retention time: 5.082 min
Precursor m/z: 195.1128
Precursor type: [M+H]+
m/z	relative intensity
66.0527	20
67.0478	22
67.0614	10
77.0443	999
78.0379	89
79.059	799
80.0539	99
81.0623	99
89.0438	13
91.0468	33
93.0597	31
94.0678	141
104.0509	125
105.047	51
105.0621	15
106.0663	786
107.0697	124
108.0701	521
109.0525	27
118.0666	18
119.0736	11
121.078	153
122.0849	18
123.0924	26
132.0445	16
134.0487	286
149.0721	27
