Mass spectrum: Oseltamivir; LC-ESI-QTOF; MS2; 150 V
Name: Oseltamivir
Class: Pharmaceutical
Formula: C16H28N2O4
Exact mass: 312.2049
SMILES: CCC(CC)O[C@@H]1C=C(C[C@@H]([C@H]1/N=C(\C)/O)N)C(=O)OCC
InChI: InChI=1S/C16H28N2O4/c1-5-12(6-2)22-14-9-11(16(20)21-7-3)8-13(17)15(14)18-10(4)19/h9,12-15H,5-8,17H2,1-4H3,(H,18,19)/t13-,14+,15+/m0/s1
Instrument: TripleTOF 5600 SCIEX
Instrument type: LC-ESI-QTOF
Ms type: MS2
Ion mode: POSITIVE
Collision energy: 150
Fragmentation mode: CID
Ionization: ESI
Column name: Zorbax Eclipse Plus C18 2.1 mm x 150 mm, 3.5 um, Agilent
Retention time: 6.973 min
Precursor m/z: 313.2122
Precursor type: [M+H]+
m/z	relative intensity
43.0246	243
43.0463	26
51.0288	420
52.0237	26
54.04	39
65.043	999
66.0391	59
66.0497	236
67.0453	361
75.0277	32
77.0413	361
78.036	78
80.0521	591
82.0677	39
91.0417	32
92.0509	177
93.0582	131
