Mass spectrum: Norethynodrel; LC-ESI-QTOF; MS2; 120 V
Name: Norethynodrel
Class: Pharmaceutical
Formula: C20H26O2
Exact mass: 298.1933
SMILES: C[C@]12CC[C@H]3[C@@H](CCC4=C3CCC(=O)C4)[C@@H]1CC[C@@]2(O)C#C
InChI: InChI=1S/C20H26O2/c1-3-20(22)11-9-18-17-6-4-13-12-14(21)5-7-15(13)16(17)8-10-19(18,20)2/h1,16-18,22H,4-12H2,2H3/t16-,17-,18+,19+,20+/m1/s1
Instrument: TripleTOF 5600 SCIEX
Instrument type: LC-ESI-QTOF
Ms type: MS2
Ion mode: POSITIVE
Collision energy: 120
Fragmentation mode: CID
Ionization: ESI
Column name: Zorbax Eclipse Plus C18 2.1 mm x 150 mm, 3.5 um, Agilent
Retention time: 11.133 min
Precursor m/z: 299.2006
Precursor type: [M+H]+
m/z	relative intensity
43.0251	33
53.0441	71
55.0239	31
55.0598	65
65.0429	466
66.051	22
67.0573	42
74.017	22
75.0257	40
76.0337	24
77.0415	999
77.0727	47
78.0482	74
79.0559	235
81.0345	11
81.0731	33
83.051	83
83.0788	13
89.0392	130
91.0552	496
94.0414	22
101.0383	20
102.0456	134
103.0531	56
104.0622	11
105.0702	17
107.0501	11
109.0663	11
113.0371	13
115.0535	608
116.0607	13
117.069	17
126.0449	44
127.0533	101
128.0604	314
129.0674	17
139.0539	38
141.0714	47
150.0456	17
151.0531	56
152.0601	114
153.0689	31
163.0552	26
164.0601	29
165.0682	71
176.0596	20
178.0807	13
187.0556	15
189.0693	33
