Mass spectrum: Carbadox; LC-ESI-QTOF; MS2; 110 V
Name: Carbadox
Class: Antimicrobial; Pharmaceutical
Formula: C11H10N4O4
Exact mass: 262.0702
SMILES: COC(=O)N=NC=C1C=[N+]([O-])c2ccccc2N1O
InChI: InChI=1S/C11H10N4O4/c1-19-11(16)13-12-6-8-7-14(17)9-4-2-3-5-10(9)15(8)18/h2-7,18H,1H3
Instrument: TripleTOF 5600 SCIEX
Instrument type: LC-ESI-QTOF
Ms type: MS2
Ion mode: POSITIVE
Collision energy: 110
Fragmentation mode: CID
Ionization: ESI
Column name: Zorbax Eclipse Plus C18 2.1 mm x 150 mm, 3.5 um, Agilent
Retention time: 5.823 min
Precursor m/z: 263.0775
Precursor type: [M+H]+
m/z	relative intensity
49.0282	22
51.0288	742
52.0233	122
65.0291	27
65.0435	39
73.0105	61
74.0185	798
74.0463	27
75.026	959
76.0276	999
76.0563	22
77.0402	279
78.0353	39
88.0198	72
89.0393	39
90.0339	100
91.0448	22
99.0092	27
100.0174	33
102.0341	251
103.0417	72
130.0427	27
