Mass spectrum: 1-Cyclohexyl-3-(2-methylphenyl)urea; LC-ESI-QTOF; MS2; 100 V
Name: 1-Cyclohexyl-3-(2-methylphenyl)urea
Formula: C14H20N2O
Exact mass: 232.1576
SMILES: O=C(NC1CCCCC1)Nc2ccccc2C
InChI: InChI=1S/C14H20N2O/c1-11-7-5-6-10-13(11)16-14(17)15-12-8-3-2-4-9-12/h5-7,10,12H,2-4,8-9H2,1H3,(H2,15,16,17)
Instrument: TripleTOF 6600 SCIEX
Instrument type: LC-ESI-QTOF
Ms type: MS2
Ion mode: POSITIVE
Collision energy: 100
Fragmentation mode: CID
Ionization: ESI
Column name: Zorbax Eclipse Plus C18 2.1 mm x 150 mm, 3.5 um, Agilent
Retention time: 11.026 min
Precursor m/z: 233.1649
Precursor type: [M+H]+
m/z	relative intensity
35.9989	13
37.0067	126
38.0026	13
38.0143	121
39.0225	791
40.03	23
41.0256	12
41.0376	75
42.0329	12
44.0121	21
49.0065	18
50.0143	90
51.0219	173
52.0172	26
53.0372	30
54.0326	49
55.0529	58
61.0061	15
62.0137	27
63.0217	59
65.0374	999
66.0452	714
67.0404	36
77.037	99
78.0323	55
79.0524	13
91.0528	53
92.0479	264
93.0559	593
106.0625	24
