Mass spectrum: Morantel; LC-ESI-QTOF; MS2; 100 V
Name: Morantel
Class: Pharmaceutical
Formula: C12H16N2S
Exact mass: 220.1034
SMILES: CN1CCCN=C1/C=C/c2sccc2C
InChI: InChI=1S/C12H16N2S/c1-10-6-9-15-11(10)4-5-12-13-7-3-8-14(12)2/h4-6,9H,3,7-8H2,1-2H3/b5-4+
Instrument: TripleTOF 5600 SCIEX
Instrument type: LC-ESI-QTOF
Ms type: MS2
Ion mode: POSITIVE
Collision energy: 100
Fragmentation mode: CID
Ionization: ESI
Column name: Zorbax Eclipse Plus C18 2.1 mm x 150 mm, 3.5 um, Agilent
Retention time: 6.042 min
Precursor m/z: 221.1107
Precursor type: [M+H]+
m/z	relative intensity
45.0244	10
51.0305	283
52.0369	20
53.0458	49
57.9932	28
59.0006	20
64.0312	18
65.0429	109
66.0501	15
67.0576	13
68.983	119
69.0475	15
69.9909	26
70.9993	31
75.0264	18
77.0422	999
78.0358	13
78.0491	215
79.0566	109
80.0523	15
81.9897	15
82.9963	10
84.0052	26
89.0407	202
90.0466	15
91.0556	62
92.9814	15
94.9972	46
96.0045	39
97.0119	111
97.0825	10
102.0469	15
103.0548	20
104.0494	36
108.0042	31
109.0119	15
115.0558	23
116.0509	10
121.0115	280
122.0053	20
122.0175	57
123.0207	13
134.0071	18
148.0206	28
148.0328	10
