Mass spectrum: Testosterone; LC-ESI-QTOF; MS2; 30 V
Name: Testosterone
Class: Pharmaceutical
Formula: C19H28O2
Exact mass: 288.2089
SMILES: C[C@]12CC[C@H]3[C@@H](CCC4=CC(=O)CC[C@]34C)[C@@H]1CC[C@@H]2O
InChI: InChI=1S/C19H28O2/c1-18-9-7-13(20)11-12(18)3-4-14-15-5-6-17(21)19(15,2)10-8-16(14)18/h11,14-17,21H,3-10H2,1-2H3/t14-,15-,16-,17-,18-,19-/m0/s1
Instrument: TripleTOF 5600 SCIEX
Instrument type: LC-ESI-QTOF
Ms type: MS2
Ion mode: POSITIVE
Collision energy: 30
Fragmentation mode: CID
Ionization: ESI
Column name: Zorbax Eclipse Plus C18 2.1 mm x 150 mm, 3.5 um, Agilent
Retention time: 10.968 min
Precursor m/z: 289.2162
Precursor type: [M+H]+
m/z	relative intensity
77.0436	14
79.0581	47
81.0736	51
83.0529	49
91.057	15
93.0732	32
95.0879	40
97.0691	999
97.1064	17
105.0723	24
107.0881	33
109.0683	940
109.1003	20
119.0867	31
121.0665	10
121.1025	36
123.0824	93
131.088	22
133.1038	27
135.1194	17
143.0888	13
145.1036	40
147.1189	34
157.1046	23
159.1193	46
161.1343	36
163.1138	18
169.105	10
171.1188	24
173.1355	18
175.1508	35
177.1302	27
183.1189	13
185.1365	17
187.1515	43
189.1302	11
197.1358	30
199.1513	30
201.1674	24
211.1506	20
213.1671	44
227.1825	14
253.199	147
271.2099	100
289.2213	477
