Mass spectrum: Foramsulfuron; LC-ESI-QTOF; MS2; 110 V
Name: Foramsulfuron
Class: Herbicide
Formula: C17H20N6O7S
Exact mass: 452.1114
SMILES: CN(C)C(=O)C1=C(C=C(C=C1)NC=O)S(=O)(=O)NC(=O)NC2=NC(=CC(=N2)OC)OC
InChI: InChI=1S/C17H20N6O7S/c1-23(2)15(25)11-6-5-10(18-9-24)7-12(11)31(27,28)22-17(26)21-16-19-13(29-3)8-14(20-16)30-4/h5-9H,1-4H3,(H,18,24)(H2,19,20,21,22,26)
Instrument: TripleTOF 6600 SCIEX
Instrument type: LC-ESI-QTOF
Ms type: MS2
Ion mode: POSITIVE
Collision energy: 110
Fragmentation mode: CID
Ionization: ESI
Column name: Zorbax Eclipse Plus C18 2.1 mm x 150 mm, 3.5 um, Agilent
Retention time: 8.823 min
Precursor m/z: 453.1187
Precursor type: [M+H]+
m/z	relative intensity
40.0285	14
41.0359	16
42.0196	9
42.0439	14
43.0396	16
44.0597	25
45.0435	16
53.012	12
54.0438	22
55.0388	20
56.0233	80
57.0557	34
63.0326	86
64.0284	9
65.0229	95
65.0487	384
66.0307	18
66.0431	16
67.0156	31
68.0236	60
69.0076	128
69.0179	95
70.0389	20
71.0701	49
77.0483	38
78.0431	95
79.0514	16
79.0647	14
80.047	9
80.0588	79
81.0544	31
82.039	77
83.0338	999
90.0437	95
91.0522	16
91.0628	16
92.0332	11
92.0595	150
93.0179	476
93.0428	23
93.0669	12
94.0268	38
94.0738	49
98.0437	14
100.0483	22
105.0533	261
106.0374	20
106.0736	16
107.0676	14
109.0465	36
110.0443	16
117.0534	12
119.0688	12
120.0521	18
121.0376	27
138.0371	45
139.0569	114
140.0533	20
166.0337	14
