Mass spectrum: Proquinazid; LC-ESI-QTOF; MS2; 110 V
Name: Proquinazid
Class: Fungicide
Formula: C14H17IN2O2
Exact mass: 372.0335
SMILES: CCCN1C(=O)C2=C(C=CC(=C2)I)N=C1OCCC
InChI: InChI=1S/C14H17IN2O2/c1-3-7-17-13(18)11-9-10(15)5-6-12(11)16-14(17)19-8-4-2/h5-6,9H,3-4,7-8H2,1-2H3
Instrument: TripleTOF 6600 SCIEX
Instrument type: LC-ESI-QTOF
Ms type: MS2
Ion mode: POSITIVE
Collision energy: 110
Fragmentation mode: CID
Ionization: ESI
Column name: Zorbax Eclipse Plus C18 2.1 mm x 150 mm, 3.5 um, Agilent
Retention time: 17.121 min
Precursor m/z: 373.0408
Precursor type: [M+H]+
m/z	relative intensity
37.011	25
38.0187	52
39.027	52
41.0423	52
52.0219	17
60.0029	61
61.0108	252
62.019	999
63.025	122
64.0219	14
64.0339	60
65.0299	53
66.0136	109
75.0135	16
87.0133	24
88.0216	331
89.0295	822
90.0363	43
91.0445	60
92.0286	86
101.0303	15
116.0397	105
117.0238	374
119.0399	18
140.9212	68
144.034	17
145.0183	112
162.0433	10
164.9207	152
188.9194	58
189.9147	19
215.9306	764
271.9168	16
