Mass spectrum: Inabenfide; LC-ESI-QTOF; MS2; 140 V
Name: Inabenfide
Formula: C19H15ClN2O2
Exact mass: 338.0822
SMILES: C1=CC=C(C=C1)C(C2=C(C=CC(=C2)Cl)NC(=O)C3=CC=NC=C3)O
InChI: InChI=1S/C19H15ClN2O2/c20-15-6-7-17(22-19(24)14-8-10-21-11-9-14)16(12-15)18(23)13-4-2-1-3-5-13/h1-12,18,23H,(H,22,24)
Instrument: TripleTOF 6600 SCIEX
Instrument type: LC-ESI-QTOF
Ms type: MS2
Ion mode: POSITIVE
Collision energy: 140
Fragmentation mode: CID
Ionization: ESI
Column name: Zorbax Eclipse Plus C18 2.1 mm x 150 mm, 3.5 um, Agilent
Retention time: 10.231 min
Precursor m/z: 339.0895
Precursor type: [M+H]+
m/z	relative intensity
39.0223	44
49.0066	224
50.0144	976
51.0221	999
52.0176	291
52.0296	920
53.0373	123
61.0063	89
62.0139	89
63.0224	179
65.0373	78
74.0135	224
75.0221	269
76.017	67
76.0289	123
77.0374	202
78.033	202
79.0407	325
80.0484	134
86.0144	89
87.0211	157
89.0372	202
98.014	291
99.0212	258
100.0168	56
100.03	123
101.0375	67
102.045	112
110.0138	67
111.0221	101
113.0369	190
114.0449	56
115.0528	202
122.0139	78
123.0218	78
125.0379	123
126.0455	314
127.0406	112
127.0512	134
137.0381	101
138.045	112
139.0534	437
140.0489	112
140.0623	56
149.0367	190
150.0457	875
151.0391	67
151.0532	336
152.0474	134
152.0612	157
161.0374	78
162.0453	112
163.0533	460
164.0596	145
165.0674	112
166.0637	101
167.071	44
174.0447	112
175.0451	134
176.0482	101
177.0555	202
178.065	67
179.0592	56
186.046	89
187.0536	258
188.05	123
189.0697	56
198.0455	89
199.0527	213
200.0614	280
211.0542	179
212.0447	78
212.0606	67
213.0684	246
214.0629	67
225.0559	89
226.0631	78
227.0718	145
236.0479	78
238.0646	89
240.0813	67
