Mass spectrum: Phloretin; LC-ESI-QTOF; MS2; 40 V
Name: Phloretin
Class: Pharmaceutical
Formula: C15H14O5
Exact mass: 274.0841
SMILES: Oc1ccc(CCC(=O)c2c(O)cc(O)cc2O)cc1
InChI: InChI=1S/C15H14O5/c16-10-4-1-9(2-5-10)3-6-12(18)15-13(19)7-11(17)8-14(15)20/h1-2,4-5,7-8,16-17,19-20H,3,6H2
Instrument: TripleTOF 5600 SCIEX
Instrument type: LC-ESI-QTOF
Ms type: MS2
Ion mode: NEGATIVE
Collision energy: 40
Fragmentation mode: CID
Ionization: ESI
Column name: Zorbax Eclipse Plus C18 2.1 mm x 150 mm, 3.5 um, Agilent
Retention time: 8.766 min
Precursor m/z: 273.0768
Precursor type: [M-H]-
m/z	relative intensity
57.0365	65
65.0043	124
81.0351	864
83.0143	292
93.0336	90
107.0139	75
119.0504	906
123.0452	746
125.0245	288
151.003	163
167.0351	999
189.0544	199
273.0757	298
