Mass spectrum: Chlorotoluron; LC-ESI-QTOF; MS2; 60 V
Name: Chlorotoluron
Class: Herbicide
Formula: C10H13ClN2O
Exact mass: 212.0716
SMILES: CC1=C(C=C(C=C1)NC(=O)N(C)C)Cl
InChI: InChI=1S/C10H13ClN2O/c1-7-4-5-8(6-9(7)11)12-10(14)13(2)3/h4-6H,1-3H3,(H,12,14)
Instrument: TripleTOF 6600 SCIEX
Instrument type: LC-ESI-QTOF
Ms type: MS2
Ion mode: POSITIVE
Collision energy: 60
Fragmentation mode: CID
Ionization: ESI
Column name: Zorbax Eclipse Plus C18 2.1 mm x 150 mm, 3.5 um, Agilent
Retention time: 9.778 min
Precursor m/z: 213.0789
Precursor type: [M+H]+
m/z	relative intensity
30.0348	23
42.0343	23
44.05	35
46.0657	145
51.0231	50
56.0133	141
63.0236	31
72.0448	999
72.9834	19
77.0388	169
78.0342	11
78.0465	14
89.0385	90
90.0471	28
98.9991	62
104.0498	59
113.015	31
125.016	33
140.0246	16
