Mass spectrum: Opipramol; LC-ESI-QTOF; MS2; 110 V
Name: Opipramol
Class: Pharmaceutical
Formula: C23H29N3O
Exact mass: 363.2311
SMILES: OCCN1CCN(CCCN2c3ccccc3C=Cc4ccccc24)CC1
InChI: InChI=1S/C23H29N3O/c27-19-18-25-16-14-24(15-17-25)12-5-13-26-22-8-3-1-6-20(22)10-11-21-7-2-4-9-23(21)26/h1-4,6-11,27H,5,12-19H2
Instrument: TripleTOF 5600 SCIEX
Instrument type: LC-ESI-QTOF
Ms type: MS2
Ion mode: POSITIVE
Collision energy: 110
Fragmentation mode: CID
Ionization: ESI
Column name: Zorbax Eclipse Plus C18 2.1 mm x 150 mm, 3.5 um, Agilent
Retention time: 7.242 min
Precursor m/z: 364.2383
Precursor type: [M+H]+
m/z	relative intensity
42.0424	238
45.0409	112
56.0552	117
57.0613	21
58.0688	26
58.076	26
68.0529	34
69.0473	39
70.0685	304
75.0265	95
77.0416	186
82.068	43
83.0626	212
89.0399	34
97.0763	282
98.0847	256
100.0763	125
101.0388	134
102.0333	21
102.0459	21
111.0918	30
113.0378	17
115.0525	26
128.0523	121
139.0544	47
140.0499	43
150.0464	82
151.0545	390
152.0629	430
163.0554	99
164.06	82
165.07	112
166.0646	47
167.0715	34
175.0534	47
176.0624	551
177.0694	356
177.094	21
178.0774	903
179.0718	26
180.079	21
188.058	17
189.0681	39
190.0664	112
191.0726	91
192.0798	43
202.0649	65
203.0728	234
204.0812	999
215.0779	21
216.0848	17
217.0882	30
