Mass spectrum: 2-Aminobenzothiazole; LC-ESI-QTOF; MS2; 20 V
Name: 2-Aminobenzothiazole
Formula: C7H6N2S
Exact mass: 150.0252
SMILES: C1=CC=C2C(=C1)N=C(S2)N
InChI: InChI=1S/C7H6N2S/c8-7-9-5-3-1-2-4-6(5)10-7/h1-4H,(H2,8,9)
Instrument: TripleTOF X500R SCIEX
Instrument type: LC-ESI-QTOF
Ms type: MS2
Ion mode: POSITIVE
Collision energy: 20
Fragmentation mode: CID
Ionization: ESI
Column name: Zorbax Eclipse Plus C18 2.1 mm x 150 mm, 3.5 um, Agilent
Retention time: 4.985 min
Precursor m/z: 151.0325
Precursor type: [M+H]+
m/z	relative intensity
92.0497	140
109.0103	529
118.0529	57
124.0209	657
151.0331	999
