Mass spectrum: Food Yellow 3 free acid; LC-ESI-QTOF; MS2; 40 V
Name: Food Yellow 3 free acid
Formula: C16H12N2O7S2
Exact mass: 408.0086
SMILES: C1=CC(=CC=C1N=NC2=C(C=CC3=C2C=CC(=C3)S(=O)(=O)O)O)S(=O)(=O)O
InChI: InChI=1S/C16H12N2O7S2/c19-15-8-1-10-9-13(27(23,24)25)6-7-14(10)16(15)18-17-11-2-4-12(5-3-11)26(20,21)22/h1-9,19H,(H,20,21,22)(H,23,24,25)
Instrument: TripleTOF 6600 SCIEX
Instrument type: LC-ESI-QTOF
Ms type: MS2
Ion mode: POSITIVE
Collision energy: 40
Fragmentation mode: CID
Ionization: ESI
Column name: Zorbax Eclipse Plus C18 2.1 mm x 150 mm, 3.5 um, Agilent
Retention time: 5.59 min
Precursor m/z: 409.0159
Precursor type: [M+H]+
m/z	relative intensity
80.0494	19
89.0381	11
92.0495	10
108.0443	159
109.051	14
116.0485	14
126.0333	21
127.0408	19
128.0492	10
144.0434	13
154.0289	226
156.0113	11
156.044	20
173.0147	999
182.0346	95
208.0073	710
217.9897	13
236.0018	528
238.0154	26
299.0503	25
310.0398	13
311.0474	47
327.0407	40
328.0519	52
391.0077	59
392.014	526
