Mass spectrum: Aripiprazole; LC-ESI-QTOF; MS2; 110 V
Name: Aripiprazole
Class: Pharmaceutical
Formula: C23H27Cl2N3O2
Exact mass: 447.148
SMILES: Clc1cccc(N2CCN(CCCCOc3ccc4CCC(=O)Nc4c3)CC2)c1Cl
InChI: InChI=1S/C23H27Cl2N3O2/c24-19-4-3-5-21(23(19)25)28-13-11-27(12-14-28)10-1-2-15-30-18-8-6-17-7-9-22(29)26-20(17)16-18/h3-6,8,16H,1-2,7,9-15H2,(H,26,29)
Instrument: TripleTOF 5600 SCIEX
Instrument type: LC-ESI-QTOF
Ms type: MS2
Ion mode: POSITIVE
Collision energy: 110
Fragmentation mode: CID
Ionization: ESI
Column name: Zorbax Eclipse Plus C18 2.1 mm x 150 mm, 3.5 um, Agilent
Retention time: 8.305 min
Precursor m/z: 448.1553
Precursor type: [M+H]+
m/z	relative intensity
42.0414	28
55.022	28
55.058	34
56.0558	97
65.0422	91
70.0672	22
74.0187	39
74.0265	22
75.0279	57
77.0415	331
78.035	34
79.0575	45
80.0511	28
84.0819	57
89.0408	176
90.0484	85
91.0556	650
92.0525	51
94.0673	22
98.0975	45
99.0021	28
102.0345	28
103.054	39
104.0488	142
105.0602	22
106.0644	28
108.9837	188
110.0583	22
110.998	85
115.0496	22
116.0484	68
117.0573	999
118.0652	365
120.0795	28
122.061	39
125.0148	28
130.0687	34
132.9609	22
134.0604	28
138.01	74
144.9597	285
146.0598	39
151.0231	62
152.0267	365
153.033	51
158.976	34
164.0273	79
171.9719	165
172.9719	79
188.0024	45
