Mass spectrum: Clonidine; LC-ESI-QTOF; MS2; 40 V
Name: Clonidine
Class: Pharmaceutical
Formula: C9H9Cl2N3
Exact mass: 229.0174
SMILES: C1CN=C(N1)NC2=C(C=CC=C2Cl)Cl
InChI: InChI=1S/C9H9Cl2N3/c10-6-2-1-3-7(11)8(6)14-9-12-4-5-13-9/h1-3H,4-5H2,(H2,12,13,14)
Instrument: TripleTOF 6600 SCIEX
Instrument type: LC-ESI-QTOF
Ms type: MS2
Ion mode: POSITIVE
Collision energy: 40
Fragmentation mode: CID
Ionization: ESI
Column name: Zorbax Eclipse Plus C18 2.1 mm x 150 mm, 3.5 um, Agilent
Retention time: 5.408 min
Precursor m/z: 230.0246
Precursor type: [M+H]+
m/z	relative intensity
42.0335	25
44.0491	334
59.0598	22
69.0441	21
98.999	15
108.9829	49
115.0271	12
123.9933	60
125.0008	16
131.0585	14
132.0673	15
132.9592	70
135.9942	19
138.0097	11
144.9594	50
151.017	40
152.0128	33
153.0202	18
158.0684	22
158.9744	11
159.0773	22
159.9705	117
160.087	25
160.9779	18
161.9857	16
163.9984	31
171.97	74
172.9653	43
184.9657	31
185.9854	49
186.9818	73
194.0472	48
212.9967	185
230.0241	999
