Mass spectrum: Erlotinib; LC-ESI-QTOF; MS2; 100 V
Name: Erlotinib
Class: Pharmaceutical
Formula: C22H23N3O4
Exact mass: 393.1689
SMILES: COCCOC1=C(C=C2C(=C1)C(=NC=N2)NC3=CC=CC(=C3)C#C)OCCOC
InChI: InChI=1S/C22H23N3O4/c1-4-16-6-5-7-17(12-16)25-22-18-13-20(28-10-8-26-2)21(29-11-9-27-3)14-19(18)23-15-24-22/h1,5-7,12-15H,8-11H2,2-3H3,(H,23,24,25)
Instrument: TripleTOF 5600 SCIEX
Instrument type: LC-ESI-QTOF
Ms type: MS2
Ion mode: POSITIVE
Collision energy: 100
Fragmentation mode: CID
Ionization: ESI
Column name: Zorbax Eclipse Plus C18 2.1 mm x 150 mm, 3.5 um, Agilent
Retention time: 7.429 min
Precursor m/z: 394.1761
Precursor type: [M+H]+
m/z	relative intensity
39.0228	12
43.0172	10
50.0147	31
51.0229	133
52.0183	31
53.0381	29
55.0177	60
59.0487	59
62.0151	10
63.0222	26
65.0382	80
66.034	23
67.042	18
68.0136	10
68.0498	41
73.0071	21
74.0148	215
75.0229	999
76.0177	26
77.0261	79
77.0382	66
78.0336	153
79.0172	76
79.0418	13
80.013	54
80.0496	10
81.0335	130
88.0183	77
89.0385	155
90.0338	26
90.0465	62
91.0163	10
91.0537	203
93.044	54
94.028	13
94.052	17
96.0443	111
97.0279	60
98.0157	10
99.0227	24
101.0384	811
102.0331	18
102.0446	23
103.0295	17
104.0139	12
104.0366	149
105.0446	69
106.0284	234
107.0131	24
108.0205	49
109.0282	57
113.0388	26
114.0344	21
114.0461	10
115.0297	54
115.0534	46
116.0501	80
117.0572	191
118.0656	13
121.0388	77
122.0224	18
124.0386	27
125.0382	77
126.0453	46
127.0532	108
128.0493	99
129.0442	99
130.0389	15
132.0091	27
132.0317	10
133.0415	20
134.0233	35
134.0452	12
135.0313	71
136.0378	21
137.0391	21
138.0462	29
139.0544	80
140.0492	156
141.0576	34
142.0514	24
143.0253	15
143.0597	31
149.0376	166
150.0449	259
151.0534	410
152.0503	362
153.0553	152
154.0651	111
155.0607	57
161.0357	209
162.043	40
163.0535	88
164.0499	186
165.0552	102
166.0649	166
167.0665	104
168.0709	35
174.0349	12
175.0406	63
176.0499	484
177.0568	385
178.0648	296
179.0605	186
180.0645	62
181.0756	46
182.0664	17
183.0604	13
187.0429	23
188.0488	118
189.0538	66
190.0615	110
191.0609	170
192.0683	405
193.0758	343
194.0583	10
194.0707	26
195.093	10
201.057	15
202.0536	87
203.0609	604
204.067	183
205.0753	310
206.0681	108
207.0733	24
208.0706	13
209.0702	15
213.045	49
214.0562	29
215.0615	59
216.0673	43
217.0631	96
218.0706	133
219.0592	17
219.0789	108
220.0869	237
221.0709	139
222.074	20
228.0585	15
229.0661	24
230.0714	467
231.0514	18
231.0797	265
232.088	41
233.0689	12
234.0648	12
236.063	10
237.0679	40
243.0764	10
244.0838	10
246.0659	229
247.0758	100
248.0819	45
258.0635	24
259.0728	52
260.0798	24
275.0688	77
276.0761	73
278.0901	12
