Mass spectrum: Ethyltriphenylphosphonium; LC-ESI-QTOF; MS2; 100 V
Name: Ethyltriphenylphosphonium
Class: Industrial_process
Formula: [C20H20P]+
Exact mass: 291.1297
SMILES: CC[P+](C1=CC=CC=C1)(C2=CC=CC=C2)C3=CC=CC=C3
InChI: InChI=1S/C20H20P/c1-2-21(18-12-6-3-7-13-18,19-14-8-4-9-15-19)20-16-10-5-11-17-20/h3-17H,2H2,1H3/q+1
Instrument: TripleTOF 5600 SCIEX
Instrument type: LC-ESI-QTOF
Ms type: MS2
Ion mode: POSITIVE
Collision energy: 100
Fragmentation mode: CID
Ionization: ESI
Column name: Zorbax Eclipse Plus C18 2.1 mm x 150 mm, 3.5 um, Agilent
Retention time: 7.392 min
Precursor m/z: 291.1297
Precursor type: [M]+
m/z	relative intensity
80.9874	55
89.0364	50
107.003	570
115.053	267
126.0453	59
133.0189	80
139.0534	210
151.0537	162
152.0614	999
157.0197	427
181.0196	172
183.0356	456
