Mass spectrum: 2-(3-Hydroxyquinolin-2-yl)indene-1,3-dione; LC-ESI-QTOF; MS2; 40 V
Name: 2-(3-Hydroxyquinolin-2-yl)indene-1,3-dione
Class: Industrial_process; Personal_care_product; Pigment
Formula: C18H11NO3
Exact mass: 289.0739
SMILES: C1=CC=C2C(=C1)C=C(C(=N2)C3C(=O)C4=CC=CC=C4C3=O)O
InChI: InChI=1S/C18H11NO3/c20-14-9-10-5-1-4-8-13(10)19-16(14)15-17(21)11-6-2-3-7-12(11)18(15)22/h1-9,15,20H
Instrument: TripleTOF 6600 SCIEX
Instrument type: LC-ESI-QTOF
Ms type: MS2
Ion mode: POSITIVE
Collision energy: 40
Fragmentation mode: CID
Ionization: ESI
Column name: Zorbax Eclipse Plus C18 2.1 mm x 150 mm, 3.5 um, Agilent
Retention time: 14.718 min
Precursor m/z: 290.0812
Precursor type: [M+H]+
m/z	relative intensity
77.0391	60
89.0403	23
91.0529	23
105.0336	138
115.0544	33
116.0499	57
117.0573	13
128.05	33
130.0658	20
158.0589	27
165.0693	23
179.0822	16
186.0558	27
189.0695	206
190.065	88
204.0809	88
205.0866	40
206.0966	44
214.0635	50
215.0726	118
216.0801	927
217.0633	30
217.0879	182
218.0958	47
233.0838	84
234.0902	125
243.0691	30
244.0748	250
245.0835	40
246.0888	81
261.0775	91
262.0872	111
272.0695	450
290.0806	999
