Mass spectrum: 2-N-methyl-lamotrigine; LC-ESI-QTOF; MS2; 40 V
Name: 2-N-methyl-lamotrigine
Class: Metabolite; Pharmaceutical
Formula: C10H9Cl2N5
Exact mass: 269.0235
SMILES: CN1N=C(C2=CC=CC(Cl)=C2Cl)C(N)=NC1=N
InChI: InChI=1S/C10H9Cl2N5/c1-17-10(14)15-9(13)8(16-17)5-3-2-4-6(11)7(5)12/h2-4H,1H3,(H3,13,14,15)
Instrument: TripleTOF 5600 SCIEX
Instrument type: LC-ESI-QTOF
Ms type: MS2
Ion mode: POSITIVE
Collision energy: 40
Fragmentation mode: CID
Ionization: ESI
Column name: Zorbax Eclipse Plus C18 2.1 mm x 150 mm, 3.5 um, Agilent
Retention time: 6.444 min
Precursor m/z: 270.0308
Precursor type: [M+H]+
m/z	relative intensity
57.0506	386
72.0579	18
114.0327	11
122.9986	12
130.0646	14
135.994	11
144.96	26
150.0093	13
159.9716	23
164.0026	11
165.0205	30
166.0284	22
170.9647	16
171.9719	105
184.9789	129
185.9748	30
191.0245	18
192.0318	12
198.9827	12
200.9989	239
228.0075	22
234.0546	59
243.0214	18
270.0311	999
