Mass spectrum: Tetraphenylphosphonium; LC-ESI-QTOF; MS2; 130 V
Name: Tetraphenylphosphonium
Class: Industrial_process
Formula: [C24H20P]+
Exact mass: 339.1297
SMILES: c1ccc(cc1)[P+](c2ccccc2)(c3ccccc3)c4ccccc4
InChI: InChI=1S/C24H20P/c1-5-13-21(14-6-1)25(22-15-7-2-8-16-22,23-17-9-3-10-18-23)24-19-11-4-12-20-24/h1-20H/q+1
Instrument: TripleTOF 5600 SCIEX
Instrument type: LC-ESI-QTOF
Ms type: MS2
Ion mode: POSITIVE
Collision energy: 130
Fragmentation mode: CID
Ionization: ESI
Column name: Zorbax Eclipse Plus C18 2.1 mm x 150 mm, 3.5 um, Agilent
Retention time: 8.633 min
Precursor m/z: 339.1297
Precursor type: [M]+
m/z	relative intensity
79.9828	106
80.9904	154
89.039	169
102.0454	75
107.0047	727
113.0388	62
115.0547	356
126.0459	193
131.0051	83
133.0204	80
139.0538	305
150.0469	151
151.0544	458
152.0618	999
156.012	74
157.0202	526
181.0205	398
183.0355	174
