Mass spectrum: Amisulbrom; LC-ESI-QTOF; MS2; 110 V
Name: Amisulbrom
Class: Fungicide
Formula: C13H13BrFN5O4S2
Exact mass: 464.9576
SMILES: CC1=C(C2=C(N1S(=O)(=O)C3=NN(C=N3)S(=O)(=O)N(C)C)C=C(C=C2)F)Br
InChI: InChI=1S/C13H13BrFN5O4S2/c1-8-12(14)10-5-4-9(15)6-11(10)20(8)25(21,22)13-16-7-19(17-13)26(23,24)18(2)3/h4-7H,1-3H3
Instrument: TripleTOF 6600 SCIEX
Instrument type: LC-ESI-QTOF
Ms type: MS2
Ion mode: POSITIVE
Collision energy: 110
Fragmentation mode: CID
Ionization: ESI
Column name: Zorbax Eclipse Plus C18 2.1 mm x 150 mm, 3.5 um, Agilent
Retention time: 14.781 min
Precursor m/z: 465.9649
Precursor type: [M+H]+
m/z	relative intensity
42.0334	54
44.0508	34
74.0141	93
75.0224	351
77.0372	44
83.0249	19
94.0205	39
95.0267	79
96.0376	84
99.0224	59
100.0199	59
101.0376	568
107.0273	84
108.0368	19
119.0269	39
120.0365	731
121.0295	44
121.0427	74
126.0314	103
127.0404	19
128.049	202
129.0457	242
133.0439	207
134.0308	29
134.0427	34
146.038	415
147.0467	999
148.0556	544
154.0403	108
158.039	59
159.0463	39
160.0462	34
225.9642	425
