Mass spectrum: Parathion-methyl; LC-ESI-QTOF; MS2; 130 V
Name: Parathion-methyl
Class: Insecticide
Formula: C8H10NO5PS
Exact mass: 263.0017
SMILES: COP(=S)(OC)OC1=CC=C(C=C1)[N+](=O)[O-]
InChI: InChI=1S/C8H10NO5PS/c1-12-15(16,13-2)14-8-5-3-7(4-6-8)9(10)11/h3-6H,1-2H3
Instrument: TripleTOF 6600 SCIEX
Instrument type: LC-ESI-QTOF
Ms type: MS2
Ion mode: POSITIVE
Collision energy: 130
Fragmentation mode: CID
Ionization: ESI
Column name: Zorbax Eclipse Plus C18 2.1 mm x 150 mm, 3.5 um, Agilent
Retention time: 12.495 min
Precursor m/z: 264.009
Precursor type: [M+H]+
m/z	relative intensity
37.0051	79
39.0223	63
44.9779	396
46.9669	317
46.9943	95
49.0063	190
50.0135	459
62.0138	174
62.9439	253
63.0211	142
68.9777	317
73.006	285
74.0136	999
75.0204	111
