Mass spectrum: Naproxen; LC-ESI-QTOF; MS2; 80 V
Name: Naproxen
Class: Pharmaceutical
Formula: C14H14O3
Exact mass: 230.0943
SMILES: COc1ccc2cc(ccc2c1)C(C)C(O)=O
InChI: InChI=1S/C14H14O3/c1-9(14(15)16)10-3-4-12-8-13(17-2)6-5-11(12)7-10/h3-9H,1-2H3,(H,15,16)
Instrument: TripleTOF 5600 SCIEX
Instrument type: LC-ESI-QTOF
Ms type: MS2
Ion mode: POSITIVE
Collision energy: 80
Fragmentation mode: CID
Ionization: ESI
Column name: Zorbax Eclipse Plus C18 2.1 mm x 150 mm, 3.5 um, Agilent
Retention time: 10.907 min
Precursor m/z: 231.1016
Precursor type: [M+H]+
m/z	relative intensity
65.0422	34
74.0171	11
75.0233	18
77.0395	50
78.0498	9
88.0335	16
89.0399	133
91.0547	29
102.0468	52
113.0381	18
114.0516	22
115.0546	999
115.0873	11
126.0458	34
127.0549	80
128.0612	73
139.0538	41
141.0701	326
150.0464	39
151.0544	91
152.0622	229
153.0703	64
168.0588	16
