Mass spectrum: Lenalidomide; LC-ESI-QTOF; MS2; 40 V
Name: Lenalidomide
Class: Pharmaceutical
Formula: C13H13N3O3
Exact mass: 259.0957
SMILES: Nc1cccc2C(=O)N(Cc12)C3CCC(=O)NC3=O
InChI: InChI=1S/C13H13N3O3/c14-9-3-1-2-7-8(9)6-16(13(7)19)10-4-5-11(17)15-12(10)18/h1-3,10H,4-6,14H2,(H,15,17,18)
Instrument: TripleTOF 5600 SCIEX
Instrument type: LC-ESI-QTOF
Ms type: MS2
Ion mode: POSITIVE
Collision energy: 40
Fragmentation mode: CID
Ionization: ESI
Column name: Zorbax Eclipse Plus C18 2.1 mm x 150 mm, 3.5 um, Agilent
Retention time: 5.24 min
Precursor m/z: 260.103
Precursor type: [M+H]+
m/z	relative intensity
77.0447	20
79.0568	20
84.0493	54
92.0525	41
104.05	58
106.065	346
115.0528	33
117.0609	20
119.0595	62
120.0438	41
131.0601	100
132.0459	25
132.0792	29
142.0671	16
143.0711	16
144.0748	41
147.0551	75
149.0703	999
158.0835	20
159.0905	133
169.0733	16
187.0855	635
215.0814	20
