Mass spectrum: Tadalafil; LC-ESI-QTOF; MS2; 40 V
Name: Tadalafil
Class: Pharmaceutical; Personal_care_product
Formula: C22H19N3O4
Exact mass: 389.1376
SMILES: CN1CC(=O)N2C(C1=O)CC3=C(C2C4=CC5=C(C=C4)OCO5)NC6=CC=CC=C36
InChI: InChI=1S/C22H19N3O4/c1-24-10-19(26)25-16(22(24)27)9-14-13-4-2-3-5-15(13)23-20(14)21(25)12-6-7-17-18(8-12)29-11-28-17/h2-8,16,21,23H,9-11H2,1H3
Instrument: TripleTOF 5600 SCIEX
Instrument type: LC-ESI-QTOF
Ms type: MS2
Ion mode: POSITIVE
Collision energy: 40
Fragmentation mode: CID
Ionization: ESI
Column name: Zorbax Eclipse Plus C18 2.1 mm x 150 mm, 3.5 um, Agilent
Retention time: 9.801 min
Precursor m/z: 390.1448
Precursor type: [M+H]+
m/z	relative intensity
77.0397	12
99.0554	19
127.0495	19
130.0658	62
135.0438	645
142.0641	15
167.0657	12
169.0765	706
170.059	45
180.0801	12
183.0973	17
192.0817	27
193.0753	12
193.0891	12
195.0581	10
197.071	284
204.0808	172
205.0888	204
206.0961	55
216.085	38
218.0982	12
220.0776	27
225.0618	19
232.0749	198
233.083	282
234.0899	51
240.114	510
244.0746	38
250.0868	170
262.0868	999
263.0925	159
264.1026	170
268.108	486
272.0667	27
274.0867	350
302.082	230
