Mass spectrum: Ethylene Terephthalate Cyclic Trimer; LC-ESI-QTOF; MS2; 80 V
Name: Ethylene Terephthalate Cyclic Trimer
Class: Industrial_process
Formula: C30H24O12
Exact mass: 576.1268
SMILES: C1COC(=O)C2=CC=C(C=C2)C(=O)OCCOC(=O)C3=CC=C(C=C3)C(=O)OCCOC(=O)C4=CC=C(C=C4)C(=O)O1
InChI: InChI=1S/C30H24O12/c31-25-19-1-2-20(4-3-19)26(32)38-15-16-40-28(34)22-9-11-24(12-10-22)30(36)42-18-17-41-29(35)23-7-5-21(6-8-23)27(33)39-14-13-37-25/h1-12H,13-18H2
Instrument: TripleTOF 6600 SCIEX
Instrument type: LC-ESI-QTOF
Ms type: MS2
Ion mode: POSITIVE
Collision energy: 80
Fragmentation mode: CID
Ionization: ESI
Column name: Zorbax Eclipse Plus C18 2.1 mm x 150 mm, 3.5 um, Agilent
Retention time: 14.542 min
Precursor m/z: 577.1341
Precursor type: [M+H]+
m/z	relative intensity
65.0378	114
93.0328	20
104.024	23
105.0317	11
121.0283	169
131.048	9
147.0427	22
148.0523	18
149.0236	999
153.0681	11
175.0382	18
191.0703	11
193.0496	399
219.063	14
225.0545	22
269.0461	18
297.0391	18
313.072	29
341.0656	51
385.0959	18
