Mass spectrum: Tebuconazole; LC-ESI-QTOF; MS2; 60 V
Name: Tebuconazole
Class: Fungicide
Formula: C16H22ClN3O
Exact mass: 307.1451
SMILES: CC(C)(C)C(O)(CCc1ccc(Cl)cc1)Cn2cncn2
InChI: InChI=1S/C16H22ClN3O/c1-15(2,3)16(21,10-20-12-18-11-19-20)9-8-13-4-6-14(17)7-5-13/h4-7,11-12,21H,8-10H2,1-3H3
Instrument: TripleTOF 5600 SCIEX
Instrument type: LC-ESI-QTOF
Ms type: MS2
Ion mode: POSITIVE
Collision energy: 60
Fragmentation mode: CID
Ionization: ESI
Column name: Zorbax Eclipse Plus C18 2.1 mm x 150 mm, 3.5 um, Agilent
Retention time: 12.72 min
Precursor m/z: 308.1524
Precursor type: [M+H]+
m/z	relative intensity
43.0386	71
55.0598	24
57.076	40
59.0555	86
70.046	971
77.0417	25
83.0879	10
89.0413	142
90.0483	32
99.0011	62
103.0552	53
115.0554	267
116.0633	274
125.0164	999
128.0621	21
129.07	54
130.0783	55
139.0306	19
151.0308	40
