Mass spectrum: Monomethyldiuron; LC-ESI-QTOF; MS2; 50 V
Name: Monomethyldiuron
Class: Herbicide; Transformation_product
Formula: C8H8Cl2N2O
Exact mass: 218.0014
SMILES: CNC(=O)Nc1ccc(Cl)c(Cl)c1
InChI: InChI=1S/C8H8Cl2N2O/c1-11-8(13)12-5-2-3-6(9)7(10)4-5/h2-4H,1H3,(H2,11,12,13)
Instrument: TripleTOF 5600 SCIEX
Instrument type: LC-ESI-QTOF
Ms type: MS2
Ion mode: NEGATIVE
Collision energy: 50
Fragmentation mode: CID
Ionization: ESI
Column name: Zorbax Eclipse Plus C18 2.1 mm x 150 mm, 3.5 um, Agilent
Retention time: 9.821 min
Precursor m/z: 216.9941
Precursor type: [M-H]-
m/z	relative intensity
88.0202	461
123.9975	499
159.9737	999
