Mass spectrum: Iobitridol; LC-ESI-QTOF; MS2; 50 V
Name: Iobitridol
Class: Pharmaceutical
Formula: C20H28I3N3O9
Exact mass: 834.896
SMILES: CN(CC(O)CO)C(=O)c1c(I)c(NC(=O)C(CO)CO)c(I)c(c1I)C(=O)N(C)CC(O)CO
InChI: InChI=1S/C20H28I3N3O9/c1-25(3-10(31)7-29)19(34)12-14(21)13(20(35)26(2)4-11(32)8-30)16(23)17(15(12)22)24-18(33)9(5-27)6-28/h9-11,27-32H,3-8H2,1-2H3,(H,24,33)
Instrument: TripleTOF 6600 SCIEX
Instrument type: LC-ESI-QTOF
Ms type: MS2
Ion mode: POSITIVE
Collision energy: 50
Fragmentation mode: CID
Ionization: ESI
Column name: Zorbax Eclipse Plus C18 2.1 mm x 150 mm, 3.5 um, Agilent
Retention time: 4.58 min
Precursor m/z: 835.9033
Precursor type: [M+H]+
m/z	relative intensity
303.0986	11
321.0919	11
400.9955	84
413.8048	11
416.9935	20
426.9563	11
431.009	34
449.0035	41
474.9963	203
497.8015	11
497.8222	25
497.8387	18
500.878	18
515.8345	20
515.8529	20
528.8715	34
554.9014	43
575.9249	66
584.8918	77
584.9216	36
602.9089	999
625.7201	32
625.758	36
628.791	96
628.8436	11
689.966	20
689.9884	36
715.8441	11
715.9013	18
817.8507	13
817.8864	9
