Mass spectrum: Abacavir carboxylic acid; LC-ESI-QTOF; MS2; 80 V
Name: Abacavir carboxylic acid
Class: Pharmaceutical; Metabolite; Transformation_product
Formula: C14H16N6O2
Exact mass: 300.1335
SMILES: C1CC1NC2=NC(=NC3=C2N=CN3C4CC(C=C4)C(=O)O)N
InChI: InChI=1S/C14H16N6O2/c15-14-18-11(17-8-2-3-8)10-12(19-14)20(6-16-10)9-4-1-7(5-9)13(21)22/h1,4,6-9H,2-3,5H2,(H,21,22)(H3,15,17,18,19)
Instrument: TripleTOF 5600 SCIEX
Instrument type: LC-ESI-QTOF
Ms type: MS2
Ion mode: POSITIVE
Collision energy: 80
Fragmentation mode: CID
Ionization: ESI
Column name: Zorbax Eclipse Plus C18 2.1 mm x 150 mm, 3.5 um, Agilent
Retention time: 5.194 min
Precursor m/z: 301.1408
Precursor type: [M+H]+
m/z	relative intensity
43.0367	35
52.0239	23
53.0197	43
53.0423	20
54.0264	23
55.0341	137
55.0584	41
56.0537	26
58.0699	64
65.0176	55
65.0425	568
66.0256	26
66.0384	17
67.0323	58
67.0575	427
68.0271	29
68.0522	41
78.0355	70
79.03	11
79.0431	17
80.027	263
80.0479	17
81.034	90
81.0455	43
82.0421	146
83.0513	105
92.0252	272
93.0394	140
94.0401	73
95.0611	67
103.0305	20
105.0453	99
106.027	14
106.039	35
107.0354	873
108.043	624
109.051	559
109.0748	14
118.039	17
119.0353	114
120.0547	61
121.05	49
122.0702	17
123.0537	29
130.0416	14
131.0401	11
132.0564	49
133.0392	190
133.066	17
134.0462	999
135.0559	29
136.0615	20
145.0511	20
147.0655	32
148.0623	49
149.0689	20
149.0826	32
150.0645	169
157.0492	17
162.0778	14
172.0585	11
173.0711	20
174.0779	35
175.0724	172
