Mass spectrum: Sertaconazole; LC-ESI-QTOF; MS2; 120 V
Name: Sertaconazole
Class: Fungicide; Pharmaceutical; Antimicrobial
Formula: C20H15Cl3N2OS
Exact mass: 435.9971
SMILES: C1=CC2=C(C(=C1)Cl)SC=C2COC(CN3C=CN=C3)C4=C(C=C(C=C4)Cl)Cl
InChI: InChI=1S/C20H15Cl3N2OS/c21-14-4-5-16(18(23)8-14)19(9-25-7-6-24-12-25)26-10-13-11-27-20-15(13)2-1-3-17(20)22/h1-8,11-12,19H,9-10H2
Instrument: TripleTOF 5600 SCIEX
Instrument type: LC-ESI-QTOF
Ms type: MS2
Ion mode: POSITIVE
Collision energy: 120
Fragmentation mode: CID
Ionization: ESI
Column name: Zorbax Eclipse Plus C18 2.1 mm x 150 mm, 3.5 um, Agilent
Retention time: 10.403 min
Precursor m/z: 437.0043
Precursor type: [M+H]+
m/z	relative intensity
68.9832	183
69.0483	43
74.0183	52
75.0258	177
75.0572	11
76.0334	45
77.0418	12
78.9424	16
81.0471	50
82.0573	11
88.0314	13
89.0396	26
92.9804	43
99.0009	13
99.0215	10
101.0391	270
102.0473	999
110.9983	49
113.0396	17
114.0466	71
118.9951	20
120.0023	42
122.9988	13
129.0437	18
136.0073	26
137.0149	54
145.0109	747
145.048	10
146.0181	267
149.0157	204
154.9712	67
180.9868	174
181.0096	11
189.0698	20
232.0319	15
233.0407	11
234.052	13
