Mass spectrum: Oxibendazole; LC-ESI-QTOF; MS2; 150 V
Name: Oxibendazole
Class: Pharmaceutical
Formula: C12H15N3O3
Exact mass: 249.1113
SMILES: CCCOC1=CC2=C(C=C1)N=C(N2)NC(=O)OC
InChI: InChI=1S/C12H15N3O3/c1-3-6-18-8-4-5-9-10(7-8)14-11(13-9)15-12(16)17-2/h4-5,7H,3,6H2,1-2H3,(H2,13,14,15,16)
Instrument: TripleTOF 5600 SCIEX
Instrument type: LC-ESI-QTOF
Ms type: MS2
Ion mode: POSITIVE
Collision energy: 150
Fragmentation mode: CID
Ionization: ESI
Column name: Zorbax Eclipse Plus C18 2.1 mm x 150 mm, 3.5 um, Agilent
Retention time: 6.663 min
Precursor m/z: 250.1186
Precursor type: [M+H]+
m/z	relative intensity
37.0071	211
38.0151	151
39.0229	454
40.0177	272
41.0262	151
43.0301	151
49.0081	333
50.0154	999
51.0227	787
52.0184	999
61.0066	181
62.0151	242
64.0187	302
65.0255	211
66.0336	242
68.0127	272
69.0089	333
75.0107	635
76.0176	575
78.0335	151
