Mass spectrum: Imidacloprid; LC-ESI-QTOF; MS2; 90 V
Name: Imidacloprid
Class: Insecticide
Formula: C9H10ClN5O2
Exact mass: 255.0523
SMILES: [O-][N+](=O)NC1=NCCN1Cc2ccc(Cl)nc2
InChI: InChI=1S/C9H10ClN5O2/c10-8-2-1-7(5-12-8)6-14-4-3-11-9(14)13-15(16)17/h1-2,5H,3-4,6H2,(H,11,13)
Instrument: TripleTOF 5600 SCIEX
Instrument type: LC-ESI-QTOF
Ms type: MS2
Ion mode: NEGATIVE
Collision energy: 90
Fragmentation mode: CID
Ionization: ESI
Column name: Zorbax Eclipse Plus C18 2.1 mm x 150 mm, 3.5 um, Agilent
Retention time: 7.098 min
Precursor m/z: 254.045
Precursor type: [M-H]-
m/z	relative intensity
43.0012	999
45.9941	999
46.0079	999
