Mass spectrum: Theophylline; LC-ESI-QTOF; MS2; 100 V
Name: Theophylline
Class: Pharmaceutical
Formula: C7H8N4O2
Exact mass: 180.0647
InChI: InChI=1S/C7H8N4O2/c1-10-5-4(8-3-9-5)6(12)11(2)7(10)13/h3H,1-2H3,(H,8,9)
Instrument: TripleTOF 5600 SCIEX
Instrument type: LC-ESI-QTOF
Ms type: CID
Ion mode: NEGATIVE
Collision energy: 100
Ionization: ESI
Column name: Zorbax Eclipse Plus C18 2.1 mm x 150 mm, 3.5 um, Agilent
Retention time: 4.936 min
Precursor m/z: 179.0574
Precursor type: [M-H]-
m/z	relative intensity
38.0035	535
40.0064	321
41.0139	107
41.9983	999
44.998	321
50.0024	107
55.0296	178
64.0056	321
65.014	249
65.9978	999
