Mass spectrum: Didesmethyl-citalopram; LC-ESI-QTOF; MS2; 120 V
Name: Didesmethyl-citalopram
Class: Pharmaceutical; Metabolite
Formula: C18H17FN2O
Exact mass: 296.1325
SMILES: c1cc(ccc1C2(c3ccc(cc3CO2)C#N)CCCN)F
InChI: InChI=1S/C18H17FN2O/c19-16-5-3-15(4-6-16)18(8-1-9-20)17-7-2-13(11-21)10-14(17)12-22-18/h2-7,10H,1,8-9,12,20H2
Instrument: TripleTOF 5600 SCIEX
Instrument type: LC-ESI-QTOF
Ms type: MS2
Ion mode: POSITIVE
Collision energy: 120
Fragmentation mode: CID
Ionization: ESI
Column name: Zorbax Eclipse Plus C18 2.1 mm x 150 mm, 3.5 um, Agilent
Retention time: 7.575 min
Precursor m/z: 297.1398
Precursor type: [M+H]+
m/z	relative intensity
51.0302	58
57.02	539
59.0349	81
65.042	60
68.0073	13
70.0255	16
73.0114	22
74.0188	271
75.0259	277
76.0339	39
77.0413	113
78.0513	11
81.0158	79
83.0317	999
85.0085	33
86.0176	67
87.0249	147
88.0194	52
88.0306	26
89.0402	331
90.0353	41
94.0218	33
95.0301	43
96.0381	24
97.0081	20
98.0151	228
99.0099	13
99.0235	137
100.0306	45
101.039	35
102.0458	45
105.0158	28
107.031	98
109.0091	18
109.0453	286
110.0144	50
111.022	65
112.0172	15
113.0384	165
114.034	82
115.0544	41
116.0491	22
118.0182	20
120.0015	11
120.0359	67
121.007	15
122.0156	122
123.0206	147
124.0289	35
125.0397	32
126.0476	69
127.054	37
128.0629	18
131.0295	43
133.045	94
134.0139	20
135.0261	33
136.0217	13
137.0387	50
138.039	24
139.0545	20
140.0484	98
141.0142	11
142.0225	15
144.0366	73
146.0135	71
146.0541	24
147.0178	73
148.0321	54
149.039	107
150.0458	192
151.0528	43
155.0277	43
156.0366	22
157.0444	67
158.0422	26
159.0173	15
161.0398	120
162.0439	64
163.054	139
164.0494	45
167.0295	75
168.0379	303
169.0446	71
170.0153	18
170.0522	60
171.0111	13
171.0232	16
172.0329	20
173.0408	64
174.0457	209
175.0432	86
176.0617	20
177.0592	16
179.0286	73
180.0369	111
181.0454	250
182.0437	41
183.0595	13
185.0385	79
186.0444	114
187.0539	245
188.0495	116
189.0634	20
190.025	11
190.0657	11
191.0267	24
192.0373	192
193.0391	86
194.0559	69
196.0307	20
197.039	177
198.0461	442
199.0481	248
200.0594	147
201.0616	22
203.0292	35
204.0364	64
205.0453	252
206.0449	128
207.0604	60
208.0641	15
209.0379	15
210.0444	37
211.0547	207
212.0485	158
213.0679	73
214.0661	18
215.0348	22
216.0373	199
217.0459	254
218.0532	469
219.0512	86
220.0699	15
222.0425	39
223.0431	141
224.0489	103
224.0714	13
225.0558	147
226.0607	11
228.0329	13
229.0451	69
230.0401	64
230.0557	28
231.059	126
232.0574	26
236.0522	69
237.0604	16
238.0665	82
240.0398	13
241.0483	9
242.0508	52
243.0493	233
244.0552	60
245.0677	49
256.0568	45
