Mass spectrum: Sethoxydim; LC-ESI-QTOF; MS2; 40 V
Name: Sethoxydim
Class: Herbicide
Formula: C17H29NO3S
Exact mass: 327.1868
SMILES: CCCC(=C1C(=O)CC(CC1=O)CC(C)SCC)NOCC
InChI: InChI=1S/C17H29NO3S/c1-5-8-14(18-21-6-2)17-15(19)10-13(11-16(17)20)9-12(4)22-7-3/h12-13,18H,5-11H2,1-4H3
Instrument: TripleTOF 5600 SCIEX
Instrument type: LC-ESI-QTOF
Ms type: MS2
Ion mode: POSITIVE
Collision energy: 40
Fragmentation mode: CID
Ionization: ESI
Column name: Zorbax Eclipse Plus C18 2.1 mm x 150 mm, 3.5 um, Agilent
Retention time: 16.132 min
Precursor m/z: 328.1941
Precursor type: [M+H]+
m/z	relative intensity
82.0669	133
91.0597	99
95.0476	66
105.0694	149
107.05	183
110.0614	166
112.0745	166
122.0956	133
133.0643	99
136.0798	83
150.0886	233
160.0754	83
161.0589	199
163.0761	249
178.0839	999
180.0991	666
203.1024	116
220.1335	149
222.149	99
254.1185	116
282.1524	183
