Mass spectrum: Boscalid; LC-ESI-QTOF; MS2; 30 V
Name: Boscalid
Class: Fungicide
Formula: C18H12Cl2N2O
Exact mass: 342.0327
SMILES: C1=CC=C(C(=C1)C2=CC=C(C=C2)Cl)NC(=O)C3=C(N=CC=C3)Cl
InChI: InChI=1S/C18H12Cl2N2O/c19-13-9-7-12(8-10-13)14-4-1-2-6-16(14)22-18(23)15-5-3-11-21-17(15)20/h1-11H,(H,22,23)
Instrument: TripleTOF 6600 SCIEX
Instrument type: LC-ESI-QTOF
Ms type: MS2
Ion mode: POSITIVE
Collision energy: 30
Fragmentation mode: CID
Ionization: ESI
Column name: Zorbax Eclipse Plus C18 2.1 mm x 150 mm, 3.5 um, Agilent
Retention time: 12.31 min
Precursor m/z: 343.04
Precursor type: [M+H]+
m/z	relative intensity
111.9944	20
139.9898	175
271.0865	117
272.0944	110
289.0523	24
307.064	999
343.0402	54
