Mass spectrum: Dextrorphan; LC-ESI-QTOF; MS2; 110 V
Name: Dextrorphan
Class: Pharmaceutical; Metabolite
Formula: C17H23NO
Exact mass: 257.178
SMILES: CN1CC[C@@]23CCCC[C@@H]2[C@@H]1CC4=C3C=C(C=C4)O
InChI: InChI=1S/C17H23NO/c1-18-9-8-17-7-3-2-4-14(17)16(18)10-12-5-6-13(19)11-15(12)17/h5-6,11,14,16,19H,2-4,7-10H2,1H3/t14-,16+,17+/m1/s1
Instrument: TripleTOF 5600 SCIEX
Instrument type: LC-ESI-QTOF
Ms type: MS2
Ion mode: POSITIVE
Collision energy: 110
Fragmentation mode: CID
Ionization: ESI
Column name: Zorbax Eclipse Plus C18 2.1 mm x 150 mm, 3.5 um, Agilent
Retention time: 5.969 min
Precursor m/z: 258.1852
Precursor type: [M+H]+
m/z	relative intensity
44.058	54
65.0434	98
66.0514	9
74.0191	51
75.0266	81
76.034	66
77.0424	975
78.0495	167
79.0572	42
86.0183	15
87.0252	25
89.0413	212
90.0478	12
91.0562	84
94.0421	18
99.0249	9
101.0394	63
102.0475	396
103.0549	171
107.0488	30
113.04	29
114.0455	16
115.0554	550
116.0618	18
118.0409	29
125.0391	18
126.0471	181
127.0553	508
128.0631	999
129.0681	14
131.0499	84
137.0386	12
138.0478	9
139.0551	78
141.07	23
150.0466	33
151.0553	60
152.0626	96
153.0692	12
155.054	14
157.0659	15
163.0559	19
164.0635	26
165.0707	43
