Mass spectrum: Desmetryn; LC-ESI-QTOF; MS2; 100 V
Name: Desmetryn
Class: Herbicide
Formula: C8H15N5S
Exact mass: 213.1048
SMILES: CC(C)NC1=NC(=NC(=N1)NC)SC
InChI: InChI=1S/C8H15N5S/c1-5(2)10-7-11-6(9-3)12-8(13-7)14-4/h5H,1-4H3,(H2,9,10,11,12,13)
Instrument: TripleTOF 6600 SCIEX
Instrument type: LC-ESI-QTOF
Ms type: MS2
Ion mode: POSITIVE
Collision energy: 100
Fragmentation mode: CID
Ionization: ESI
Column name: Zorbax Eclipse Plus C18 2.1 mm x 150 mm, 3.5 um, Agilent
Retention time: 7.281 min
Precursor m/z: 214.1121
Precursor type: [M+H]+
m/z	relative intensity
37.0061	41
38.0135	41
39.022	169
41.0121	70
41.037	58
42.0202	103
42.0326	37
43.0281	999
43.9714	16
44.9778	207
45.9726	20
46.9935	145
53.0122	87
55.0277	244
57.0434	514
57.9725	49
58.9807	95
59.9885	165
68.0227	493
71.9886	24
74.0044	53
82.0383	153
84.9836	82
