Mass spectrum: Tryptamine; LC-ESI-QTOF; MS2; 40 V
Name: Tryptamine
Class: Metabolite
Formula: C10H12N2
Exact mass: 160.1
SMILES: C1=CC=C2C(=C1)C(=CN2)CCN
InChI: InChI=1S/C10H12N2/c11-6-5-8-7-12-10-4-2-1-3-9(8)10/h1-4,7,12H,5-6,11H2
Instrument: TripleTOF 5600 SCIEX
Instrument type: LC-ESI-QTOF
Ms type: MS2
Ion mode: POSITIVE
Collision energy: 40
Fragmentation mode: CID
Ionization: ESI
Column name: Zorbax Eclipse Plus C18 2.1 mm x 150 mm, 3.5 um, Agilent
Retention time: 4.966 min
Precursor m/z: 161.1073
Precursor type: [M+H]+
m/z	relative intensity
51.0223	15
65.0388	37
77.039	172
89.0389	90
90.0471	65
91.0544	454
101.0392	21
102.0474	28
103.0545	68
115.0548	952
116.0503	65
116.0612	100
117.063	952
118.0661	34
126.0475	37
127.054	460
128.0501	216
129.0564	43
130.0703	15
142.0651	128
143.0737	999
144.0812	582
