Mass spectrum: N-[2-[(2-Bromo-4,6-dinitrophenyl)azo]-5-(diethylamino)phenyl]acetamide; LC-ESI-QTOF; MS2; 110 V
Name: N-[2-[(2-Bromo-4,6-dinitrophenyl)azo]-5-(diethylamino)phenyl]acetamide
Formula: C18H19BrN6O5
Exact mass: 478.06
SMILES: CCN(CC)C1=CC(=C(C=C1)N=NC2=C(C=C(C=C2Br)[N+](=O)[O-])[N+](=O)[O-])NC(=O)C
InChI: InChI=1S/C18H19BrN6O5/c1-4-23(5-2)12-6-7-15(16(9-12)20-11(3)26)21-22-18-14(19)8-13(24(27)28)10-17(18)25(29)30/h6-10H,4-5H2,1-3H3,(H,20,26)
Instrument: TripleTOF 6600 SCIEX
Instrument type: LC-ESI-QTOF
Ms type: MS2
Ion mode: POSITIVE
Collision energy: 110
Fragmentation mode: CID
Ionization: ESI
Column name: Zorbax Eclipse Plus C18 2.1 mm x 150 mm, 3.5 um, Agilent
Retention time: 16.579 min
Precursor m/z: 479.0673
Precursor type: [M+H]+
m/z	relative intensity
42.0331	24
43.0172	117
51.0216	20
52.0306	52
53.0367	48
63.0209	17
65.0372	142
66.0331	31
66.0452	41
67.0404	13
68.0499	13
69.0426	17
76.0166	17
77.0369	201
78.0322	93
79.0278	41
79.0408	159
80.0481	575
81.0565	31
89.0395	24
90.0318	38
91.0403	48
91.0527	31
92.0485	312
93.0558	999
94.0642	235
95.059	24
101.0366	13
104.049	90
105.043	280
106.0513	79
106.0641	128
107.0355	128
107.0585	280
108.0418	58
108.065	13
108.0782	38
109.0761	31
113.0347	31
116.0483	20
117.0434	45
117.0572	83
118.0537	83
119.0583	301
120.0565	100
120.0673	62
120.0814	17
121.0521	20
121.0747	721
122.0572	27
122.0941	13
123.0943	17
126.0458	17
127.0383	13
131.0607	45
132.0426	17
132.069	31
133.0597	274
133.076	83
134.0487	17
134.0702	298
135.0928	38
136.0704	17
138.0412	34
139.0533	152
140.0495	121
141.0539	20
145.0741	20
146.0705	208
147.0543	197
147.0765	90
148.063	145
148.0844	31
149.1032	62
151.0404	13
152.0492	48
153.0528	34
154.0489	31
155.0584	34
161.0692	48
162.0712	31
163.0849	65
164.048	58
165.054	163
166.0607	128
167.066	69
168.0648	20
177.0475	24
177.0968	20
178.0584	52
179.0585	76
180.0682	20
181.0644	38
190.0632	24
191.0549	24
191.1154	13
192.0527	13
192.0672	58
193.0657	48
193.0785	24
194.0674	117
205.0612	13
206.0731	86
207.0755	27
208.0838	31
221.0814	173
222.0753	20
235.0977	20
243.9775	13
256.9755	20
265.1413	20
271.9716	20
283.9784	52
284.9793	13
