Mass spectrum: Aclonifen; LC-ESI-QTOF; MS2; 70 V
Name: Aclonifen
Class: Herbicide
Formula: C12H9ClN2O3
Exact mass: 264.0302
SMILES: Nc1c(Cl)c(Oc2ccccc2)ccc1[N+]([O-])=O
InChI: InChI=1S/C12H9ClN2O3/c13-11-10(18-8-4-2-1-3-5-8)7-6-9(12(11)14)15(16)17/h1-7H,14H2
Instrument: TripleTOF 5600 SCIEX
Instrument type: LC-ESI-QTOF
Ms type: MS2
Ion mode: POSITIVE
Collision energy: 70
Fragmentation mode: CID
Ionization: ESI
Column name: Zorbax Eclipse Plus C18 2.1 mm x 150 mm, 3.5 um, Agilent
Retention time: 13.815 min
Precursor m/z: 265.0374
Precursor type: [M+H]+
m/z	relative intensity
52.0247	156
64.0332	17
65.044	31
72.9871	44
74.0188	17
75.0259	40
76.0206	26
77.0416	999
78.0374	71
80.0153	188
86.0168	40
88.0189	17
88.0333	76
90.034	17
90.0451	22
96.9849	35
99.0254	22
101.0386	111
102.0474	89
103.0559	26
111.0224	22
112.0288	67
112.9802	22
113.0391	71
114.036	26
115.0537	58
125.0043	58
125.0402	31
126.0464	277
127.0551	909
128.061	416
131.0522	22
138.0345	197
139.0427	138
140.0491	116
140.9967	17
152.0495	44
153.056	255
154.0657	389
155.0494	439
156.0437	35
164.0483	40
165.0446	40
166.0489	26
174.0092	17
181.0542	35
182.0601	376
183.0661	49
216.0243	53
217.0308	35
