Mass spectrum: 2-Hydroxy-n-methyl-n-phenylpropanamide; LC-ESI-QTOF; MS2; 50 V
Name: 2-Hydroxy-n-methyl-n-phenylpropanamide
Formula: C10H13NO2
Exact mass: 179.0946
SMILES: CC(C(=O)N(C)C1=CC=CC=C1)O
InChI: InChI=1S/C10H13NO2/c1-8(12)10(13)11(2)9-6-4-3-5-7-9/h3-8,12H,1-2H3
Instrument: TripleTOF 5600 SCIEX
Instrument type: LC-ESI-QTOF
Ms type: MS2
Ion mode: POSITIVE
Collision energy: 50
Fragmentation mode: CID
Ionization: ESI
Column name: Zorbax Eclipse Plus C18 2.1 mm x 150 mm, 3.5 um, Agilent
Retention time: 6.763 min
Precursor m/z: 180.1019
Precursor type: [M+H]+
m/z	relative intensity
39.0224	10
42.0338	20
45.0337	34
50.0152	20
51.023	169
55.0179	14
56.0496	105
65.0389	60
66.0467	34
77.0386	999
78.0472	43
79.0543	189
91.0548	331
92.0476	12
92.0603	23
93.0572	344
94.0641	20
103.0541	147
104.0497	397
105.0701	134
106.0649	288
107.073	67
108.0806	34
115.0536	32
117.0577	85
118.0655	623
119.073	291
132.0806	118
133.0886	23
134.0959	89
146.0598	12
