Mass spectrum: Dimethenamid-OA; LC-ESI-QTOF; MS2; 80 V
Name: Dimethenamid-OA
Class: Transformation_product; Herbicide
Formula: C12H17NO4S
Exact mass: 271.0878
SMILES: Cc1csc(c1N(C(C)COC)C(=O)C(=O)O)C
InChI: InChI=1S/C12H17NO4S/c1-7-6-18-9(3)10(7)13(8(2)5-17-4)11(14)12(15)16/h6,8H,5H2,1-4H3,(H,15,16)
Instrument: TripleTOF 6600 SCIEX
Instrument type: LC-ESI-QTOF
Ms type: CID
Ion mode: NEGATIVE
Collision energy: 80
Ionization: ESI
Column name: Zorbax Eclipse Plus C18 2.1 mm x 150 mm, 3.5 um, Agilent
Retention time: 8.208 min
Precursor m/z: 270.0805
Precursor type: [M-H]-
m/z	relative intensity
31.0186	285
31.9724	142
32.9804	285
52.0185	428
56.9791	570
57.9747	142
70.9937	999
81.9744	142
98.0057	856
