Mass spectrum: Clonazepam; LC-ESI-QTOF; MS2; 150 V
Name: Clonazepam
Class: Pharmaceutical
Formula: C15H10ClN3O3
Exact mass: 315.0411
SMILES: C1C(=O)NC2=C(C=C(C=C2)[N+](=O)[O-])C(=N1)C3=CC=CC=C3Cl
InChI: InChI=1S/C15H10ClN3O3/c16-12-4-2-1-3-10(12)15-11-7-9(19(21)22)5-6-13(11)18-14(20)8-17-15/h1-7H,8H2,(H,18,20)
Instrument: TripleTOF 6600 SCIEX
Instrument type: LC-ESI-QTOF
Ms type: MS2
Ion mode: POSITIVE
Collision energy: 150
Fragmentation mode: CID
Ionization: ESI
Column name: Zorbax Eclipse Plus C18 2.1 mm x 150 mm, 3.5 um, Agilent
Retention time: 9.867 min
Precursor m/z: 316.0484
Precursor type: [M+H]+
m/z	relative intensity
37.0075	32
38.0152	20
39.0228	68
49.0075	43
50.0152	266
51.0229	337
52.0187	22
52.0308	17
59.9985	27
61.0063	159
62.0148	180
63.0229	243
65.0382	17
72.9834	17
73.0066	103
74.0146	839
75.0096	35
75.0224	469
76.0181	65
76.0308	197
77.0385	322
78.0446	30
83.998	38
85.0067	169
86.015	263
87.0223	253
88.0178	32
88.0308	27
89.0379	91
97.0076	73
98.0145	839
99.0227	354
100.0168	38
100.0304	101
101.0384	63
102.0466	86
109.0065	76
110.0148	210
111.0091	12
111.0226	119
112.018	35
113.0381	106
114.0337	20
114.0463	15
115.0559	22
121.0069	27
122.0146	197
123.0217	162
124.0298	78
125.0401	129
126.0465	212
127.044	20
127.0537	25
134.0167	25
135.0193	32
137.0373	73
138.0347	25
138.0457	15
139.0562	68
140.0503	15
148.0306	15
149.0387	197
150.0465	999
151.0535	268
152.0478	15
152.0625	43
161.0379	116
162.044	83
163.0547	129
164.048	30
175.0411	68
176.0478	43
177.0579	83
186.0393	27
187.0398	15
188.0508	35
189.0529	12
