Mass spectrum: 1,3-Diphenylurea; LC-ESI-QTOF; MS2; 100 V
Name: 1,3-Diphenylurea
Class: Natural_product
Formula: C13H12N2O
Exact mass: 212.095
SMILES: O=C(Nc1ccccc1)Nc2ccccc2
InChI: InChI=1S/C13H12N2O/c16-13(14-11-7-3-1-4-8-11)15-12-9-5-2-6-10-12/h1-10H,(H2,14,15,16)
Instrument: TripleTOF 5600 SCIEX
Instrument type: LC-ESI-QTOF
Ms type: MS2
Ion mode: POSITIVE
Collision energy: 100
Fragmentation mode: CID
Ionization: ESI
Column name: Zorbax Eclipse Plus C18 2.1 mm x 150 mm, 3.5 um, Agilent
Retention time: 10.768 min
Precursor m/z: 213.1022
Precursor type: [M+H]+
m/z	relative intensity
65.0419	230
66.0495	79
67.0463	13
74.0177	37
75.025	17
77.0414	999
78.0385	17
92.0507	55
93.0575	106
94.0669	15
