Mass spectrum: Emtricitabine; LC-ESI-QTOF; MS2; 50 V
Name: Emtricitabine
Class: Pharmaceutical
Formula: C8H10FN3O3S
Exact mass: 247.0427
SMILES: NC1=NC(=O)N(C=C1F)[C@@H]2CS[C@H](CO)O2
InChI: InChI=1S/C8H10FN3O3S/c9-4-1-12(8(14)11-7(4)10)5-3-16-6(2-13)15-5/h1,5-6,13H,2-3H2,(H2,10,11,14)/t5-,6+/m0/s1
Instrument: TripleTOF 5600 SCIEX
Instrument type: LC-ESI-QTOF
Ms type: MS2
Ion mode: NEGATIVE
Collision energy: 50
Fragmentation mode: CID
Ionization: ESI
Column name: Zorbax Eclipse Plus C18 2.1 mm x 150 mm, 3.5 um, Agilent
Retention time: 4.801 min
Precursor m/z: 246.0354
Precursor type: [M-H]-
m/z	relative intensity
41.9986	49
50.0091	149
57.9762	149
83.0057	49
85.0189	99
91.0005	99
95.9912	149
104.025	999
105.0307	99
128.0243	99
132.0203	199
136.9544	49
152.0248	399
