Mass spectrum: Diazepam; LC-ESI-QTOF; MS2; 140 V
Name: Diazepam
Class: Pharmaceutical
Formula: C16H13ClN2O
Exact mass: 284.0716
SMILES: CN1C(=O)CN=C(C2=C1C=CC(=C2)Cl)C3=CC=CC=C3
InChI: InChI=1S/C16H13ClN2O/c1-19-14-8-7-12(17)9-13(14)16(18-10-15(19)20)11-5-3-2-4-6-11/h2-9H,10H2,1H3
Instrument: TripleTOF 6600 SCIEX
Instrument type: LC-ESI-QTOF
Ms type: MS2
Ion mode: POSITIVE
Collision energy: 140
Fragmentation mode: CID
Ionization: ESI
Column name: Zorbax Eclipse Plus C18 2.1 mm x 150 mm, 3.5 um, Agilent
Retention time: 11.181 min
Precursor m/z: 285.0789
Precursor type: [M+H]+
m/z	relative intensity
35.9993	35
37.007	150
38.0148	123
39.0227	357
46.9681	31
48.9842	44
49.0073	61
50.0148	439
51.0225	581
52.018	20
52.0308	11
59.9986	73
60.9818	10
61.0064	346
61.9788	11
62.0145	565
63.0224	851
64.0188	26
64.0311	31
65.0377	157
71.9977	14
72.9833	194
73.0064	236
74.0145	999
75.0222	610
76.0189	61
76.0298	130
77.0376	258
78.0451	26
83.9755	12
83.9983	27
84.983	29
85.0066	88
86.0144	201
87.0218	205
88.0179	28
88.0286	53
89.0378	719
90.046	48
91.0532	54
96.9841	13
97.0058	29
98.014	309
99.0102	629
100.0185	253
101.0378	48
102.0317	15
102.0457	75
103.0406	12
108.9837	10
109.0056	28
110.0144	97
111.0028	16
111.0221	65
112.0195	15
113.0379	147
114.0338	27
114.0456	12
115.0536	138
116.048	12
117.0575	14
122.0142	107
123.0221	72
124.0289	48
125.037	97
126.0449	152
127.0428	20
127.0533	18
128.0496	14
134.0136	18
136.0229	11
137.0383	105
138.032	10
138.0452	38
139.0534	124
140.0483	23
149.0376	113
150.0457	550
151.053	265
152.0583	95
153.0532	16
161.0378	107
162.0451	188
163.0532	521
164.0558	82
165.0677	33
174.0457	30
175.0438	82
176.0496	74
177.0573	118
178.0671	36
188.0488	46
189.0556	15
190.0648	20
201.0574	11
203.058	15
