Mass spectrum: N-ethyl-4-menthane-3-carboxamide; LC-ESI-QTOF; MS2; 40 V
Name: N-ethyl-4-menthane-3-carboxamide
Class: Food_additive; Personal_care_product
Formula: C13H25NO
Exact mass: 211.1936
SMILES: CCNC(=O)C1CC(CCC1C(C)C)C
InChI: InChI=1S/C13H25NO/c1-5-14-13(15)12-8-10(4)6-7-11(12)9(2)3/h9-12H,5-8H2,1-4H3,(H,14,15)
Instrument: TripleTOF 6600 SCIEX
Instrument type: LC-ESI-QTOF
Ms type: MS2
Ion mode: POSITIVE
Collision energy: 40
Fragmentation mode: CID
Ionization: ESI
Column name: Zorbax Eclipse Plus C18 2.1 mm x 150 mm, 3.5 um, Agilent
Retention time: 11.775 min
Precursor m/z: 212.2009
Precursor type: [M+H]+
m/z	relative intensity
37.0072	10
38.0147	10
39.0226	82
41.0385	186
43.054	103
44.0131	691
46.0285	68
46.0649	57
53.0384	21
55.0187	58
55.0541	999
56.049	26
57.0696	116
58.0649	36
67.0539	78
69.0695	395
71.0849	14
72.0442	418
74.0595	137
77.0373	30
79.0538	94
81.0328	11
81.0695	243
82.0647	19
83.0495	20
83.085	394
84.0798	32
87.0673	10
91.0536	64
93.0691	72
95.0846	109
97.1006	287
98.059	32
100.0752	147
105.0687	33
107.0849	93
108.0799	14
109.1	20
110.0957	15
112.0747	13
121.1001	14
123.1154	41
124.1114	23
126.0902	47
136.1115	13
140.1069	16
142.1218	24
150.1272	11
152.1419	26
154.1216	12
168.1371	13
170.153	352
212.1999	183
