Mass spectrum: Favipiravir; LC-ESI-QTOF; MS2; 30 V
Name: Favipiravir
Class: Pharmaceutical
Formula: C5H4FN3O2
Exact mass: 157.0288
SMILES: C1=C(N=C(C(=O)N1)C(=O)N)F
InChI: InChI=1S/C5H4FN3O2/c6-2-1-8-5(11)3(9-2)4(7)10/h1H,(H2,7,10)(H,8,11)
Instrument: TripleTOF 6600 SCIEX
Instrument type: LC-ESI-QTOF
Ms type: MS2
Ion mode: NEGATIVE
Collision energy: 30
Fragmentation mode: CID
Ionization: ESI
Column name: Zorbax Eclipse Plus C18 2.1 mm x 150 mm, 3.5 um, Agilent
Retention time: 4.84 min
Precursor m/z: 156.0215
Precursor type: [M-H]-
m/z	relative intensity
38.0032	21
41.998	268
64.0062	10
65.0135	91
65.9971	151
83.0028	13
85.0195	123
86.0038	23
93.0081	23
113.0151	999
138.0107	41
156.0224	30
