Mass spectrum: Crotamiton; LC-ESI-QTOF; MS2; 130 V
Name: Crotamiton
Formula: C13H17NO
Exact mass: 203.131
SMILES: CCN(C1=CC=CC=C1C)C(=O)C=CC
InChI: InChI=1S/C13H17NO/c1-4-8-13(15)14(5-2)12-10-7-6-9-11(12)3/h4,6-10H,5H2,1-3H3
Instrument: TripleTOF 6600 SCIEX
Instrument type: LC-ESI-QTOF
Ms type: MS2
Ion mode: POSITIVE
Collision energy: 130
Fragmentation mode: CID
Ionization: ESI
Column name: Zorbax Eclipse Plus C18 2.1 mm x 150 mm, 3.5 um, Agilent
Retention time: 11.073 min
Precursor m/z: 204.1383
Precursor type: [M+H]+
m/z	relative intensity
35.9992	74
37.0076	457
38.0153	383
39.0233	999
41.0385	27
49.0073	22
50.015	177
51.0229	190
61.0072	56
62.0145	95
63.0224	99
65.0382	30
74.0144	58
75.023	13
77.0379	39
89.0387	25
