Mass spectrum: Metolachlor ESA; LC-ESI-QTOF; MS2; 40 V
Name: Metolachlor ESA
Class: Herbicide
Formula: C15H23NO5S
Exact mass: 329.1297
SMILES: CCC1=CC=CC(=C1N(C(C)COC)C(=O)CS(=O)(=O)O)C
InChI: InChI=1S/C15H23NO5S/c1-5-13-8-6-7-11(2)15(13)16(12(3)9-21-4)14(17)10-22(18,19)20/h6-8,12H,5,9-10H2,1-4H3,(H,18,19,20)
Instrument: TripleTOF 5600 SCIEX
Instrument type: LC-ESI-QTOF
Ms type: MS2
Ion mode: POSITIVE
Collision energy: 40
Fragmentation mode: CID
Ionization: ESI
Column name: Zorbax Eclipse Plus C18 2.1 mm x 150 mm, 3.5 um, Agilent
Retention time: 8.247 min
Precursor m/z: 330.137
Precursor type: [M+H]+
m/z	relative intensity
73.0696	29
91.0558	13
117.0716	21
118.0652	13
119.0856	11
120.0829	21
130.0691	19
131.0734	19
132.08	66
133.0883	24
134.0959	37
136.1106	24
143.0848	37
144.0799	47
145.0877	104
146.0582	14
146.096	130
148.1116	18
158.0966	59
159.1057	64
160.0803	24
160.1119	531
162.0907	11
172.1134	13
174.1273	307
175.1353	72
176.1411	183
188.1052	34
202.1222	820
216.1422	13
234.1464	26
280.0973	11
298.1101	999
