Mass spectrum: Ranitidine; LC-ESI-QTOF; MS2; 110 V
Name: Ranitidine
Class: Pharmaceutical
Formula: C13H22N4O3S
Exact mass: 314.1413
SMILES: CNC(=C[N+](=O)[O-])NCCSCC1=CC=C(O1)CN(C)C
InChI: InChI=1S/C13H22N4O3S/c1-14-13(9-17(18)19)15-6-7-21-10-12-5-4-11(20-12)8-16(2)3/h4-5,9,14-15H,6-8,10H2,1-3H3
Instrument: TripleTOF 5600 SCIEX
Instrument type: LC-ESI-QTOF
Ms type: MS2
Ion mode: POSITIVE
Collision energy: 110
Fragmentation mode: CID
Ionization: ESI
Column name: Zorbax Eclipse Plus C18 2.1 mm x 150 mm, 3.5 um, Agilent
Retention time: 4.832 min
Precursor m/z: 315.1485
Precursor type: [M+H]+
m/z	relative intensity
42.0423	168
51.0304	199
52.0356	43
53.0451	518
54.04	74
55.0223	43
55.0473	87
56.0554	337
57.0498	174
57.0698	24
58.0348	37
58.0721	68
59	224
60.0078	31
65.0424	212
66.0509	68
67.045	68
67.0588	56
68.0531	137
69.0479	37
70.0684	87
70.9976	31
74.009	43
77.0414	924
77.0749	24
78.0359	81
78.048	93
79.0435	31
79.0567	112
80.0169	49
80.051	274
81.0364	999
82.055	143
83.0611	74
88.024	43
89.0395	93
90.0469	31
91.0552	118
92.051	87
93.059	137
94.0424	106
94.0665	187
95.0547	49
95.0725	43
96.0697	168
97.0113	62
97.0229	31
97.0773	424
102.0377	474
103.0414	24
104.0495	156
105.0379	49
105.0571	37
106.0398	31
106.0665	74
107.0483	118
107.0623	37
108.0808	43
116.0494	31
117.0505	43
117.0605	31
118.0645	43
119.0596	99
120.0708	31
123.0257	31
125.0044	31
129.0461	43
132.0442	143
133.0522	62
