Mass spectrum: 1,4-Dihydroxyanthraquinone; LC-ESI-QTOF; MS2; 70 V
Name: 1,4-Dihydroxyanthraquinone
Formula: C14H8O4
Exact mass: 240.0423
SMILES: C1=CC=C2C(=C1)C(=O)C3=C(C=CC(=C3C2=O)O)O
InChI: InChI=1S/C14H8O4/c15-9-5-6-10(16)12-11(9)13(17)7-3-1-2-4-8(7)14(12)18/h1-6,15-16H
Instrument: TripleTOF X500R SCIEX
Instrument type: LC-ESI-QTOF
Ms type: CID
Ion mode: POSITIVE
Collision energy: 70
Ionization: ESI
Column name: Zorbax Eclipse Plus C18 2.1 mm x 150 mm, 3.5 um, Agilent
Retention time: 13.708 min
Precursor m/z: 241.0496
Precursor type: [M+H]+
m/z	relative intensity
39.0227	26
51.0227	58
63.0233	45
65.039	32
77.039	313
87.0227	78
89.0392	228
102.0469	78
103.0538	111
105.0331	65
113.0392	287
115.0541	235
126.046	45
127.0542	339
128.0622	718
129.0331	32
129.0703	52
137.0381	45
138.0466	137
139.0541	999
