Mass spectrum: 14-Hydroxycodeinone; LC-ESI-QTOF; MS2; 40 V
Name: 14-Hydroxycodeinone
Class: Pharmaceutical; Transformation_product
Formula: C18H19NO4
Exact mass: 313.1314
SMILES: COc1ccc2C[C@H]3N(C)CC[C@@]45C(Oc1c24)C(=O)C=C[C@@]35O
InChI: InChI=1S/C18H19NO4/c1-19-8-7-17-14-10-3-4-12(22-2)15(14)23-16(17)11(20)5-6-18(17,21)13(19)9-10/h3-6,13,16,21H,7-9H2,1-2H3/t13-,16?,17+,18-/m1/s1
Instrument: TripleTOF 5600 SCIEX
Instrument type: LC-ESI-QTOF
Ms type: MS2
Ion mode: POSITIVE
Collision energy: 40
Fragmentation mode: CID
Ionization: ESI
Column name: Zorbax Eclipse Plus C18 2.1 mm x 150 mm, 3.5 um, Agilent
Retention time: 5.367 min
Precursor m/z: 314.1387
Precursor type: [M+H]+
m/z	relative intensity
94.066	14
122.0599	11
159.0727	26
165.0697	14
167.0484	39
167.0847	14
179.0846	15
182.0956	12
194.0723	15
195.0435	52
195.0801	24
196.0512	21
196.087	11
199.0751	12
205.0647	16
207.0806	10
208.0809	13
208.1119	9
209.0936	14
210.0915	39
211.0757	21
211.1013	20
212.0826	14
218.0958	26
221.0834	14
222.0689	13
222.09	10
223.0984	51
224.1065	31
225.093	10
225.1146	18
227.0706	12
227.106	33
234.0898	11
235.0988	11
236.1068	33
237.0898	20
237.1135	22
238.0865	225
239.0943	950
240.0779	41
240.1013	11
241.1095	20
246.093	11
247.1008	15
250.0614	13
252.1018	92
253.1095	112
254.1178	999
255.1004	55
263.0931	15
264.102	239
265.1106	33
266.0814	102
268.1332	73
278.1169	14
280.0979	81
281.1051	244
296.1281	219
314.1393	10
