Mass spectrum: 2,6-Dichlorodiphenylamine; LC-ESI-QTOF; MS2; 40 V
Name: 2,6-Dichlorodiphenylamine
Class: Pharmaceutical
Formula: C12H9Cl2N
Exact mass: 237.0112
SMILES: C1=CC=C(C=C1)NC2=C(C=CC=C2Cl)Cl
InChI: InChI=1S/C12H9Cl2N/c13-10-7-4-8-11(14)12(10)15-9-5-2-1-3-6-9/h1-8,15H
Instrument: TripleTOF 5600 SCIEX
Instrument type: LC-ESI-QTOF
Ms type: MS2
Ion mode: POSITIVE
Collision energy: 40
Fragmentation mode: CID
Ionization: ESI
Column name: Zorbax Eclipse Plus C18 2.1 mm x 150 mm, 3.5 um, Agilent
Retention time: 14.125 min
Precursor m/z: 238.0185
Precursor type: [M+H]+
m/z	relative intensity
65.0456	28
66.0514	20
77.0429	151
90.037	66
92.0535	51
93.0604	507
99.0016	87
123.9961	90
125.0037	113
126.0091	25
132.9614	419
139.0547	20
140.0554	12
141.0708	10
159.9722	633
160.9797	999
166.0647	48
167.073	419
168.0809	672
202.0434	90
203.0499	468
238.0183	20
