Mass spectrum: Sulfathiazole; LC-ESI-QTOF; MS2; 120 V
Name: Sulfathiazole
Class: Antimicrobial; Pharmaceutical
Formula: C9H9N3O2S2
Exact mass: 255.0136
InChI: InChI=1S/C9H9N3O2S2/c10-7-1-3-8(4-2-7)16(13,14)12-9-11-5-6-15-9/h1-6H,10H2,(H,11,12)
Instrument: TripleTOF 5600 SCIEX
Instrument type: LC-ESI-QTOF
Ms type: CID
Ion mode: POSITIVE
Collision energy: 120
Ionization: ESI
Column name: Zorbax Eclipse Plus C18 2.1 mm x 150 mm, 3.5 um, Agilent
Retention time: 5.367 min
Precursor m/z: 256.0209
Precursor type: [M+H]+
m/z	relative intensity
44.993	46
53.0447	177
57.9941	410
59.0012	130
65.0453	999
66.0395	56
73.0064	37
74.0203	74
80.0531	298
92.0548	37
