Mass spectrum: Imazamox; LC-ESI-QTOF; MS2; 120 V
Name: Imazamox
Class: Herbicide
Formula: C15H19N3O4
Exact mass: 305.1376
SMILES: CC(C)C1(C(=O)NC(=N1)C2=C(C=C(C=N2)COC)C(=O)O)C
InChI: InChI=1S/C15H19N3O4/c1-8(2)15(3)14(21)17-12(18-15)11-10(13(19)20)5-9(6-16-11)7-22-4/h5-6,8H,7H2,1-4H3,(H,19,20)(H,17,18,21)
Instrument: TripleTOF 6600 SCIEX
Instrument type: LC-ESI-QTOF
Ms type: MS2
Ion mode: POSITIVE
Collision energy: 120
Fragmentation mode: CID
Ionization: ESI
Column name: Zorbax Eclipse Plus C18 2.1 mm x 150 mm, 3.5 um, Agilent
Retention time: 6.853 min
Precursor m/z: 306.1448
Precursor type: [M+H]+
m/z	relative intensity
37.0061	212
38.0142	201
39.0218	999
41.0372	361
42.0323	286
43.0408	95
44.0478	53
45.0319	95
49.0056	42
50.0136	180
51.0083	53
51.0214	308
52.0165	425
52.0292	53
53.0367	148
54.0313	42
56.0479	276
59.998	63
61.0059	818
62.0134	595
63.0213	743
64.0166	159
64.0285	233
65.0236	85
65.0368	371
70.0634	435
75.0081	63
76.0164	244
77.0111	63
77.0368	106
78.0323	382
79.0397	63
80.0476	53
87.0082	127
88.0161	860
89.0238	191
89.0363	63
90.0311	106
91.0394	212
92.0349	53
92.0466	106
105.0426	74
116.0344	63
117.0417	74
118.0519	85
