Mass spectrum: Bis(2,4,4-trimethylpentyl)phosphinic acid; LC-ESI-QTOF; MS2; 100 V
Name: Bis(2,4,4-trimethylpentyl)phosphinic acid
Class: Industrial_process
Formula: C16H35O2P
Exact mass: 290.2375
SMILES: CC(CC(C)(C)C)CP(=O)(CC(C)CC(C)(C)C)O
InChI: InChI=1S/C16H35O2P/c1-13(9-15(3,4)5)11-19(17,18)12-14(2)10-16(6,7)8/h13-14H,9-12H2,1-8H3,(H,17,18)
Instrument: TripleTOF 6600 SCIEX
Instrument type: LC-ESI-QTOF
Ms type: MS2
Ion mode: POSITIVE
Collision energy: 100
Fragmentation mode: CID
Ionization: ESI
Column name: Zorbax Eclipse Plus C18 2.1 mm x 150 mm, 3.5 um, Agilent
Retention time: 14.45 min
Precursor m/z: 291.2448
Precursor type: [M+H]+
m/z	relative intensity
35.999	13
37.0068	78
38.0015	29
38.0142	66
39.0226	399
41.0381	339
43.0538	39
43.9796	18
44.9879	57
45.9961	16
46.9676	999
47.0023	11
47.9752	32
48.983	68
53.0125	11
55.0535	45
56.9878	27
57.0691	75
60.9828	101
62.9984	89
64.9778	477
69.0696	11
76.0061	16
77.0141	59
78.9934	663
80.0011	32
83.0048	11
85.0191	22
89.0148	18
94.0169	27
97.0043	20
