Mass spectrum: Acridine; LC-ESI-QTOF; MS2; 150 V
Name: Acridine
Class: Industrial_process
Formula: C13H9N
Exact mass: 179.0735
SMILES: c1ccc2nc3ccccc3cc2c1
InChI: InChI=1S/C13H9N/c1-3-7-12-10(5-1)9-11-6-2-4-8-13(11)14-12/h1-9H
Instrument: TripleTOF 5600 SCIEX
Instrument type: LC-ESI-QTOF
Ms type: MS2
Ion mode: POSITIVE
Collision energy: 150
Fragmentation mode: CID
Ionization: ESI
Column name: Zorbax Eclipse Plus C18 2.1 mm x 150 mm, 3.5 um, Agilent
Retention time: 5.776 min
Precursor m/z: 180.0808
Precursor type: [M+H]+
m/z	relative intensity
51.0174	22
52.0234	16
60.0044	128
73.0108	582
74.0188	999
75.0127	87
75.0249	58
84.0025	143
85.0097	381
86.0168	120
97.0083	186
98.016	261
99.0114	20
108.0006	20
109.0077	82
110.0148	26
120.0001	20
121.0089	24
122.0142	22
