Mass spectrum: Benalaxyl; LC-ESI-QTOF; MS2; 70 V
Name: Benalaxyl
Class: Fungicide
Formula: C20H23NO3
Exact mass: 325.1678
SMILES: CC1=C(C(=CC=C1)C)N(C(C)C(=O)OC)C(=O)CC2=CC=CC=C2
InChI: InChI=1S/C20H23NO3/c1-14-9-8-10-15(2)19(14)21(16(3)20(23)24-4)18(22)13-17-11-6-5-7-12-17/h5-12,16H,13H2,1-4H3
Instrument: TripleTOF 6600 SCIEX
Instrument type: LC-ESI-QTOF
Ms type: MS2
Ion mode: POSITIVE
Collision energy: 70
Fragmentation mode: CID
Ionization: ESI
Column name: Zorbax Eclipse Plus C18 2.1 mm x 150 mm, 3.5 um, Agilent
Retention time: 13.881 min
Precursor m/z: 326.1751
Precursor type: [M+H]+
m/z	relative intensity
39.0224	19
65.0381	181
77.0377	102
78.0458	11
79.0533	99
91.0537	999
103.0533	72
105.0689	142
106.0645	333
107.0721	18
118.0643	77
119.0842	11
120.0801	184
121.0883	175
132.0792	51
133.0882	72
148.1113	130
