Mass spectrum: Diuron; LC-ESI-QTOF; MS2; 110 V
Name: Diuron
Class: Herbicide
Formula: C9H10Cl2N2O
Exact mass: 232.017
SMILES: CN(C)C(=O)Nc1ccc(Cl)c(Cl)c1
InChI: InChI=1S/C9H10Cl2N2O/c1-13(2)9(14)12-6-3-4-7(10)8(11)5-6/h3-5H,1-2H3,(H,12,14)
Instrument: TripleTOF 5600 SCIEX
Instrument type: LC-ESI-QTOF
Ms type: MS2
Ion mode: POSITIVE
Collision energy: 110
Fragmentation mode: CID
Ionization: ESI
Column name: Zorbax Eclipse Plus C18 2.1 mm x 150 mm, 3.5 um, Agilent
Retention time: 10.497 min
Precursor m/z: 233.0243
Precursor type: [M+H]+
m/z	relative intensity
56.0162	254
71.9779	35
72.0472	928
72.9854	324
73.0109	113
74.0172	999
74.0408	70
75.0256	70
82.9462	96
83.9785	61
96.9845	43
106.9424	70
