Mass spectrum: Fluquinconazole; LC-ESI-QTOF; MS2; 50 V
Name: Fluquinconazole
Class: Fungicide
Formula: C16H8Cl2FN5O
Exact mass: 375.009
SMILES: C1=CC2=C(C=C1F)C(=O)N(C(=N2)N3C=NC=N3)C4=C(C=C(C=C4)Cl)Cl
InChI: InChI=1S/C16H8Cl2FN5O/c17-9-1-4-14(12(18)5-9)24-15(25)11-6-10(19)2-3-13(11)22-16(24)23-8-20-7-21-23/h1-8H
Instrument: TripleTOF 6600 SCIEX
Instrument type: LC-ESI-QTOF
Ms type: MS2
Ion mode: POSITIVE
Collision energy: 50
Fragmentation mode: CID
Ionization: ESI
Column name: Zorbax Eclipse Plus C18 2.1 mm x 150 mm, 3.5 um, Agilent
Retention time: 12.549 min
Precursor m/z: 376.0163
Precursor type: [M+H]+
m/z	relative intensity
82.008	14
108.0238	590
123.994	337
132.9601	12
135.035	13
157.9556	12
163.0295	198
170.9628	14
208.0431	12
209.0484	44
237.0437	37
243.0123	60
244.0195	357
251.9788	40
272.0152	970
278.9894	307
287.0266	56
306.9844	999
313.0277	33
331.9789	46
349.0068	37
