Mass spectrum: Epirubicin; LC-ESI-QTOF; MS2; 50 V
Name: Epirubicin
Class: Pharmaceutical
Formula: C27H29NO11
Exact mass: 543.1741
SMILES: CC1C(C(CC(O1)OC2CC(CC3=C(C4=C(C(=C23)O)C(=O)C5=C(C4=O)C=CC=C5OC)O)(C(=O)CO)O)N)O
InChI: InChI=1S/C27H29NO11/c1-10-22(31)13(28)6-17(38-10)39-15-8-27(36,16(30)9-29)7-12-19(15)26(35)21-20(24(12)33)23(32)11-4-3-5-14(37-2)18(11)25(21)34/h3-5,10,13,15,17,22,29,31,33,35-36H,6-9,28H2,1-2H3
Instrument: TripleTOF 5600 SCIEX
Instrument type: LC-ESI-QTOF
Ms type: MS2
Ion mode: NEGATIVE
Collision energy: 50
Fragmentation mode: CID
Ionization: ESI
Column name: Zorbax Eclipse Plus C18 2.1 mm x 150 mm, 3.5 um, Agilent
Retention time: 7.492 min
Precursor m/z: 542.1668
Precursor type: [M-H]-
m/z	relative intensity
266.0572	83
276.0392	83
277.0532	83
278.0601	69
283.0594	69
289.0518	69
290.0588	62
291.0686	117
292.0373	131
293.0459	249
293.085	48
294.0551	561
295.0622	76
304.0405	222
305.0481	333
306.0554	679
307.0308	55
307.0643	256
308.0332	124
308.0697	55
309.0445	83
309.0775	922
318.06	131
319.0622	339
320.0374	277
321.0416	999
321.0771	215
322.0484	582
322.0892	55
323.0554	159
333.0445	235
333.0829	55
334.0489	471
335.0575	881
336.0663	277
337.0363	55
337.0726	416
347.0582	194
348.0718	62
349.0399	124
349.0739	457
350.0436	270
351.0544	416
352.0639	124
359.0563	76
362.0423	152
363.0514	145
365.0712	152
366.0712	69
377.0698	388
379.051	104
380.0568	76
