Mass spectrum: Norlidocaine; LC-ESI-QTOF; MS2; 120 V
Name: Norlidocaine
Class: Pharmaceutical; Metabolite; Transformation_product-Metabolite
Formula: C12H18N2O
Exact mass: 206.1419
SMILES: CCNCC(=O)Nc1c(cccc1C)C
InChI: InChI=1S/C12H18N2O/c1-4-13-8-11(15)14-12-9(2)6-5-7-10(12)3/h5-7,13H,4,8H2,1-3H3,(H,14,15)
Instrument: TripleTOF 6600 SCIEX
Instrument type: LC-ESI-QTOF
Ms type: MS2
Ion mode: POSITIVE
Collision energy: 120
Fragmentation mode: CID
Ionization: ESI
Column name: Zorbax Eclipse Plus C18 2.1 mm x 150 mm, 3.5 um, Agilent
Retention time: 5.349 min
Precursor m/z: 207.1492
Precursor type: [M+H]+
m/z	relative intensity
30.034	158
35.9995	31
37.0074	132
38.0026	158
38.0152	107
39.0233	322
41.0259	31
42.0339	139
49.0069	126
50.0151	682
51.0232	999
53.0136	50
53.0392	44
61.0077	50
62.0152	126
63.0226	202
65.0384	107
74.0142	69
77.0387	328
79.0546	31
80.0491	37
89.0392	101
106.0656	31
