Mass spectrum: Coumaphos; LC-ESI-QTOF; MS2; 150 V
Name: Coumaphos
Class: Insecticide
Formula: C14H16ClO5PS
Exact mass: 362.0145
SMILES: CCOP(=S)(OCC)OC1=CC2=C(C=C1)C(=C(C(=O)O2)Cl)C
InChI: InChI=1S/C14H16ClO5PS/c1-4-17-21(22,18-5-2)20-10-6-7-11-9(3)13(15)14(16)19-12(11)8-10/h6-8H,4-5H2,1-3H3
Instrument: TripleTOF 6600 SCIEX
Instrument type: LC-ESI-QTOF
Ms type: MS2
Ion mode: POSITIVE
Collision energy: 150
Fragmentation mode: CID
Ionization: ESI
Column name: Zorbax Eclipse Plus C18 2.1 mm x 150 mm, 3.5 um, Agilent
Retention time: 14.049 min
Precursor m/z: 363.0218
Precursor type: [M+H]+
m/z	relative intensity
37.0072	67
38.0145	82
39.0224	357
44.9788	111
46.9673	820
49.0062	134
50.0145	633
51.0223	999
52.03	52
53.0022	44
53.0376	37
55.0189	29
59.9987	29
61.0069	126
62.0145	335
62.9445	29
62.9621	149
63.0222	492
64.03	74
64.9777	395
65.0381	670
68.9782	275
68.9962	67
70.9942	52
72.9823	74
73.0075	74
74.014	484
75.022	506
76.0299	313
77.0379	775
78.0457	37
78.9392	410
80.9724	52
81.9859	59
86.0139	74
87.022	89
88.0294	52
89.0377	588
90.0455	96
91.0532	432
92.9785	119
96.9499	111
101.0376	74
102.0455	320
103.0538	111
108.0018	52
113.0366	74
115.0534	126
119.0488	67
121.0085	37
131.0482	104
134.0187	82
147.0439	74
163.0194	44
