Mass spectrum: Fingolimod; LC-ESI-QTOF; MS2; 40 V
Name: Fingolimod
Class: Pharmaceutical
Formula: C19H33NO2
Exact mass: 307.2511
SMILES: CCCCCCCCC1=CC=C(C=C1)CCC(CO)(CO)N
InChI: InChI=1S/C19H33NO2/c1-2-3-4-5-6-7-8-17-9-11-18(12-10-17)13-14-19(20,15-21)16-22/h9-12,21-22H,2-8,13-16,20H2,1H3
Instrument: TripleTOF 6600 SCIEX
Instrument type: LC-ESI-QTOF
Ms type: MS2
Ion mode: POSITIVE
Collision energy: 40
Fragmentation mode: CID
Ionization: ESI
Column name: Zorbax Eclipse Plus C18 2.1 mm x 150 mm, 3.5 um, Agilent
Retention time: 10.17 min
Precursor m/z: 308.2584
Precursor type: [M+H]+
m/z	relative intensity
39.0222	16
41.0379	67
43.0533	129
55.0534	25
57.0686	307
65.0375	10
69.0691	23
71.0841	155
77.0374	20
79.0525	25
91.0527	279
103.0525	14
105.0682	999
115.0523	29
117.0674	107
119.0833	76
127.0519	18
128.0609	186
129.0678	179
131.0835	199
133.099	10
141.0678	56
142.0762	111
143.0839	322
145.0997	60
155.0595	16
156.0897	32
157.099	265
171.114	20
229.195	18
243.209	21
255.2087	287
