Mass spectrum: Propyphenazone; LC-ESI-QTOF; MS2; 60 V
Name: Propyphenazone
Class: Pharmaceutical
Formula: C14H18N2O
Exact mass: 230.1419
SMILES: CC1=C(C(=O)N(N1C)C2=CC=CC=C2)C(C)C
InChI: InChI=1S/C14H18N2O/c1-10(2)13-11(3)15(4)16(14(13)17)12-8-6-5-7-9-12/h5-10H,1-4H3
Instrument: TripleTOF 5600 SCIEX
Instrument type: LC-ESI-QTOF
Ms type: MS2
Ion mode: POSITIVE
Collision energy: 60
Fragmentation mode: CID
Ionization: ESI
Column name: Zorbax Eclipse Plus C18 2.1 mm x 150 mm, 3.5 um, Agilent
Retention time: 9.545 min
Precursor m/z: 231.1492
Precursor type: [M+H]+
m/z	relative intensity
39.023	24
41.0381	41
42.0337	38
44.0497	10
50.0146	22
51.0229	91
53.0393	34
55.0538	46
56.0495	844
58.0654	20
65.0387	168
66.0457	12
67.0164	10
67.0415	79
67.0539	19
68.0493	22
70.0645	20
77.0388	999
78.0328	12
78.0478	15
79.0541	93
80.0495	138
81.0572	76
82.0651	315
85.0873	12
89.0388	27
90.0474	24
91.0539	64
92.0491	161
93.0567	71
94.065	239
95.0589	12
95.0732	32
96.0808	166
101.0363	10
102.0467	10
103.0534	65
104.049	119
106.0643	24
108.045	27
108.0814	17
115.0546	180
116.0553	39
117.0574	161
118.0647	138
119.0706	10
120.0449	10
120.0814	26
122.0628	12
123.0536	12
124.0742	13
127.0542	15
128.0508	57
129.0565	24
130.0648	263
131.0729	74
132.0777	26
133.0515	13
133.0769	15
139.0858	22
140.0499	29
141.0589	12
142.0642	27
143.0722	74
144.0813	62
145.0756	58
146.0843	17
146.0971	10
156.0809	22
157.0744	13
157.0874	10
158.0903	24
159.0906	22
171.0557	31
185.071	50
186.0808	12
201.1051	13
