Mass spectrum: Betamethasone; LC-ESI-QTOF; MS2; 40 V
Name: Betamethasone
Class: Pharmaceutical
Formula: C22H29FO5
Exact mass: 392.1999
SMILES: C[C@H]1C[C@H]2[C@@H]3CCC4=CC(=O)C=C[C@@]4([C@]3([C@H](C[C@@]2([C@]1(C(=O)CO)O)C)O)F)C
InChI: InChI=1S/C22H29FO5/c1-12-8-16-15-5-4-13-9-14(25)6-7-19(13,2)21(15,23)17(26)10-20(16,3)22(12,28)18(27)11-24/h6-7,9,12,15-17,24,26,28H,4-5,8,10-11H2,1-3H3/t12-,15-,16-,17-,19-,20-,21-,22-/m0/s1
Instrument: TripleTOF 5600 SCIEX
Instrument type: LC-ESI-QTOF
Ms type: MS2
Ion mode: POSITIVE
Collision energy: 40
Fragmentation mode: CID
Ionization: ESI
Column name: Zorbax Eclipse Plus C18 2.1 mm x 150 mm, 3.5 um, Agilent
Retention time: 9.016 min
Precursor m/z: 393.2072
Precursor type: [M+H]+
m/z	relative intensity
43.0292	17
43.0376	14
67.0609	32
69.0384	11
69.0766	17
77.0437	43
79.0587	52
81.0727	37
83.0519	20
91.0576	201
93.0729	99
95.0528	26
95.0882	146
97.0682	32
103.0534	14
105.0707	186
107.0519	23
107.0872	195
109.0676	40
109.1027	105
111.081	29
115.0562	49
117.0707	55
119.0563	14
119.0878	251
121.0658	391
121.1029	102
123.0817	108
125.0603	55
125.097	35
128.0625	108
129.0704	58
130.0808	14
131.0528	20
131.0865	143
132.0562	29
133.0673	73
133.1034	70
135.0813	312
135.1164	14
137.0615	32
137.097	78
139.0764	11
141.0719	90
142.0788	37
143.0871	143
144.0569	32
145.0652	116
145.1024	99
146.0723	26
147.0811	999
149.0974	108
151.0753	73
151.1151	20
152.0605	20
153.0689	23
153.0923	105
154.0814	23
155.0831	81
156.0946	23
157.066	23
157.102	61
158.0726	87
159.0811	350
159.1142	14
160.0876	23
161.0612	29
161.0966	221
163.0748	37
165.0729	58
166.0781	23
167.0853	43
167.1045	46
168.0948	14
169.0669	49
169.1048	55
170.0728	23
171.0812	619
171.1169	40
172.0881	32
173.0965	347
175.0798	17
175.1129	20
177.0918	49
177.1118	11
178.0807	58
179.0857	108
179.1123	17
180.0956	20
181.0641	61
181.1033	46
182.0718	40
183.0819	64
183.1189	37
184.0886	37
185.0966	309
186.1048	20
187.0741	116
187.1133	75
189.0705	29
189.0922	35
190.0788	29
191.0886	49
192.0936	43
193.1043	108
194.0707	29
194.1081	26
195.0825	78
195.1173	61
196.0874	113
197.0968	221
197.1331	26
198.1001	32
199.0762	26
199.1128	110
201.0927	14
201.1301	17
202.0769	35
203.0864	37
203.1081	20
204.0925	52
205.1005	55
206.1097	26
207.0822	35
207.1161	37
208.086	96
209.0947	242
209.131	43
210.1058	87
211.0725	14
211.1117	335
212.0833	14
212.1185	67
213.0866	11
213.098	14
213.1262	146
215.1083	245
216.0979	29
217.102	49
218.1048	14
219.0785	37
219.1177	81
220.0897	29
220.1258	26
221.0946	213
221.1351	52
222.1041	289
223.112	330
224.0825	17
224.1188	64
225.0914	23
225.1279	137
227.1011	26
227.1436	49
228.0889	23
229.1016	49
230.1051	35
231.0792	23
231.1163	43
232.0887	32
232.1221	32
233.0955	64
233.1315	46
234.1068	78
234.1444	20
235.0728	17
235.1116	330
235.1515	52
236.1212	46
236.1557	37
237.0822	29
237.1285	408
237.1645	29
238.1329	20
239.1086	67
239.1443	221
240.1194	14
241.1185	32
241.1534	14
242.1083	17
243.1145	78
244.0822	11
244.1262	35
245.0971	58
245.1325	43
246.1056	61
246.1462	17
247.1116	125
247.155	14
248.1186	134
249.1289	210
249.1658	29
250.0924	17
250.1343	43
251.1067	26
251.1438	84
251.1759	23
252.1538	67
253.1237	90
253.1587	128
255.1377	55
256.1249	17
257.1165	14
257.1333	26
258.1066	17
258.1449	26
259.1127	96
259.1506	26
260.1176	58
261.1265	239
261.1705	17
262.1002	14
262.1364	181
263.1059	17
263.1437	426
263.1808	23
264.1503	67
265.1235	17
265.1625	58
266.1719	14
267.141	78
267.1744	35
268.1499	14
269.1512	26
271.1103	35
272.1207	40
273.1276	43
273.163	20
274.135	75
275.1441	122
276.1522	105
277.1236	46
277.1599	330
278.1317	14
278.1645	216
279.1382	29
279.1748	756
281.1526	55
281.1895	35
285.1212	20
286.1361	93
289.128	35
289.1619	113
290.1302	26
291.174	335
293.1506	37
295.1386	20
295.1686	102
295.1883	17
296.1774	23
297.1858	64
301.1596	134
304.1459	14
304.1604	17
306.1544	35
307.1714	154
309.1888	105
311.1641	99
319.1709	283
325.1821	43
327.1984	23
337.1809	242
345.1858	29
355.1915	379
357.1847	11
373.2029	40
