Mass spectrum: 1-Boc-4-[3-(ethoxycarbonyl)phenyl]piperazine; LC-ESI-QTOF; MS2; 50 V
Name: 1-Boc-4-[3-(ethoxycarbonyl)phenyl]piperazine
Formula: C18H26N2O4
Exact mass: 334.1893
SMILES: CCOC(=O)C1=CC(=CC=C1)N2CCN(CC2)C(=O)OC(C)(C)C
InChI: InChI=1S/C18H26N2O4/c1-5-23-16(21)14-7-6-8-15(13-14)19-9-11-20(12-10-19)17(22)24-18(2,3)4/h6-8,13H,5,9-12H2,1-4H3
Instrument: TripleTOF 6600 SCIEX
Instrument type: LC-ESI-QTOF
Ms type: MS2
Ion mode: POSITIVE
Collision energy: 50
Fragmentation mode: CID
Ionization: ESI
Column name: Zorbax Eclipse Plus C18 2.1 mm x 150 mm, 3.5 um, Agilent
Retention time: 14.611 min
Precursor m/z: 335.1965
Precursor type: [M+H]+
m/z	relative intensity
41.0389	28
44.0498	47
56.0496	18
57.0702	233
70.0651	14
77.0386	15
91.0542	25
103.054	23
106.0648	17
117.0572	23
118.0652	168
119.073	86
120.0809	282
131.072	10
132.0805	55
133.076	22
144.0806	28
146.0608	64
146.084	12
150.0547	32
159.0918	22
161.1073	115
164.0711	999
176.0698	17
178.0858	21
189.1021	56
190.0862	26
192.1023	196
204.1001	16
205.0974	48
207.1133	105
233.0929	14
233.1297	20
235.1445	81
