Mass spectrum: 17alpha-Methyltestosterone; LC-ESI-QTOF; MS2; 70 V
Name: 17alpha-Methyltestosterone
Class: Pharmaceutical
Formula: C20H30O2
Exact mass: 302.2246
SMILES: C[C@]1(O)CC[C@H]2[C@@H]3CCC4=CC(=O)CC[C@]4(C)[C@H]3CC[C@]12C
InChI: InChI=1S/C20H30O2/c1-18-9-6-14(21)12-13(18)4-5-15-16(18)7-10-19(2)17(15)8-11-20(19,3)22/h12,15-17,22H,4-11H2,1-3H3/t15-,16+,17+,18+,19+,20+/m1/s1
Instrument: TripleTOF 5600 SCIEX
Instrument type: LC-ESI-QTOF
Ms type: MS2
Ion mode: POSITIVE
Collision energy: 70
Fragmentation mode: CID
Ionization: ESI
Column name: Zorbax Eclipse Plus C18 2.1 mm x 150 mm, 3.5 um, Agilent
Retention time: 11.57 min
Precursor m/z: 303.2319
Precursor type: [M+H]+
m/z	relative intensity
43.0285	153
53.043	42
55.0228	61
55.0593	84
65.0436	153
67.0585	267
69.073	72
77.0421	853
78.0507	19
79.0572	999
81.035	19
81.0723	474
82.0434	19
83.0509	65
91.0564	826
93.0717	187
94.0411	45
95.0552	26
95.0865	133
97.0658	933
97.1015	15
103.0548	80
104.063	22
105.0708	336
107.0482	49
107.0868	65
108.0561	38
109.0654	754
109.1022	38
115.0543	126
116.0646	34
117.0709	111
119.0856	99
121.0629	42
121.101	26
123.0807	133
127.0549	30
128.0605	156
129.0693	114
130.0797	49
131.0853	57
133.1023	34
141.068	88
142.0781	45
143.0838	30
144.0942	22
145.1024	49
153.0732	42
154.0757	15
155.0862	65
156.0925	22
167.0858	30
169.097	15
181.0997	19
