Mass spectrum: Metolachlor ESA; LC-ESI-QTOF; MS2; 80 V
Name: Metolachlor ESA
Class: Herbicide; Transformation_product-Metabolite
Formula: C15H23NO5S
Exact mass: 329.1297
SMILES: CCC1=CC=CC(=C1N(C(C)COC)C(=O)CS(=O)(=O)O)C
InChI: InChI=1S/C15H23NO5S/c1-5-13-8-6-7-11(2)15(13)16(12(3)9-21-4)14(17)10-22(18,19)20/h6-8,12H,5,9-10H2,1-4H3,(H,18,19,20)
Instrument: TripleTOF 5600 SCIEX
Instrument type: LC-ESI-QTOF
Ms type: MS2
Ion mode: POSITIVE
Collision energy: 80
Fragmentation mode: CID
Ionization: ESI
Column name: Zorbax Eclipse Plus C18 2.1 mm x 150 mm, 3.5 um, Agilent
Retention time: 8.247 min
Precursor m/z: 330.137
Precursor type: [M+H]+
m/z	relative intensity
45.0425	44
65.0454	28
73.069	32
77.0423	89
79.0554	36
89.0396	16
91.0562	365
93.0692	20
103.0566	56
104.0611	32
105.0688	73
106.0651	56
107.0735	24
108.0815	32
115.0539	162
116.0618	24
117.0587	284
118.0657	85
119.0736	101
120.0807	89
127.0545	32
128.0484	16
128.0624	89
129.0685	24
130.0651	515
131.0727	280
132.0805	239
133.0873	52
134.0951	24
142.0631	40
142.0795	24
143.0736	113
144.0805	999
145.0888	556
146.0588	24
146.0973	81
156.081	16
157.0888	16
158.0566	24
158.0966	263
159.1044	81
160.0759	20
160.1127	85
162.0927	24
174.1282	32
