Mass spectrum: Eprinomectin B1A; LC-ESI-QTOF; MS2; 80 V
Name: Eprinomectin B1A
Formula: C50H75NO14
Exact mass: 913.5188
SMILES: CCC(C)C1C(C=CC2(O1)CC3CC(O2)CC=C(C(C(C=CC=C4COC5C4(C(C=C(C5O)C)C(=O)O3)O)C)OC6CC(C(C(O6)C)OC7CC(C(C(O7)C)NC(=O)C)OC)OC)C)C
InChI: InChI=1S/C50H75NO14/c1-12-26(2)45-29(5)18-19-49(65-45)24-36-21-35(64-49)17-16-28(4)44(27(3)14-13-15-34-25-58-47-43(53)30(6)20-37(48(54)61-36)50(34,47)55)62-41-23-39(57-11)46(32(8)60-41)63-40-22-38(56-10)42(31(7)59-40)51-33(9)52/h13-16,18-20,26-27,29,31-32,35-47,53,55H,12,17,21-25H2,1-11H3,(H,51,52)
Instrument: TripleTOF 5600 SCIEX
Instrument type: LC-ESI-QTOF
Ms type: MS2
Ion mode: POSITIVE
Collision energy: 80
Fragmentation mode: CID
Ionization: ESI
Column name: Zorbax Eclipse Plus C18 2.1 mm x 150 mm, 3.5 um, Agilent
Retention time: 16.157 min
Precursor m/z: 914.526
Precursor type: [M+H]+
m/z	relative intensity
68.0512	41
94.0643	144
95.0481	92
98.0594	41
110.0603	82
112.0754	947
113.0587	205
123.1166	82
126.0919	61
142.0874	185
143.0846	51
144.1011	741
154.0863	999
171.1191	92
186.1125	556
199.1132	216
298.1713	41
