Mass spectrum: Spiroxamine; LC-ESI-QTOF; MS2; 120 V
Name: Spiroxamine
Class: Fungicide
Formula: C18H35NO2
Exact mass: 297.2668
SMILES: CCCN(CC)CC1COC2(O1)CCC(CC2)C(C)(C)C
InChI: InChI=1S/C18H35NO2/c1-6-12-19(7-2)13-16-14-20-18(21-16)10-8-15(9-11-18)17(3,4)5/h15-16H,6-14H2,1-5H3
Instrument: TripleTOF 6600 SCIEX
Instrument type: LC-ESI-QTOF
Ms type: MS2
Ion mode: POSITIVE
Collision energy: 120
Fragmentation mode: CID
Ionization: ESI
Column name: Zorbax Eclipse Plus C18 2.1 mm x 150 mm, 3.5 um, Agilent
Retention time: 9.51 min
Precursor m/z: 298.2741
Precursor type: [M+H]+
m/z	relative intensity
30.0333	179
37.0069	139
38.0023	99
38.0148	119
39.0225	999
41.0383	839
42.0332	179
43.0537	179
44.0485	179
58.065	259
72.0798	99
