Mass spectrum: Propaquizafop; LC-ESI-QTOF; MS2; 40 V
Name: Propaquizafop
Class: Herbicide
Formula: C22H22ClN3O5
Exact mass: 443.1248
SMILES: CC(Oc1ccc(Oc2cnc3cc(Cl)ccc3n2)cc1)C(=O)OCCON=C(C)C
InChI: InChI=1S/C22H22ClN3O5/c1-14(2)26-29-11-10-28-22(27)15(3)30-17-5-7-18(8-6-17)31-21-13-24-20-12-16(23)4-9-19(20)25-21/h4-9,12-13,15H,10-11H2,1-3H3
Instrument: TripleTOF 6600 SCIEX
Instrument type: LC-ESI-QTOF
Ms type: MS2
Ion mode: POSITIVE
Collision energy: 40
Fragmentation mode: CID
Ionization: ESI
Column name: Zorbax Eclipse Plus C18 2.1 mm x 150 mm, 3.5 um, Agilent
Retention time: 15.307 min
Precursor m/z: 444.1321
Precursor type: [M+H]+
m/z	relative intensity
55.0412	11
56.0494	299
70.0652	425
73.028	13
91.0542	226
99.0438	88
100.0537	128
100.0751	974
118.0843	13
119.0489	82
120.0563	11
133.0651	21
137.0595	11
147.0439	57
148.052	11
163.005	118
164.0159	9
165.0203	11
181.0153	28
191.0708	42
192.0774	78
193.0749	11
207.0921	30
208.0986	28
215.0376	24
227.0391	11
228.0461	19
229.0521	21
235.0895	13
236.095	82
243.033	153
243.0685	201
244.0426	13
249.0646	15
253.0538	72
254.0605	13
255.0323	222
255.0674	23
256.0382	28
257.0476	46
270.0185	11
271.0298	36
271.0644	565
281.0478	59
283.0658	32
284.0362	23
285.0433	103
297.0452	13
299.059	999
309.0428	23
327.054	239
371.0808	38
