Mass spectrum: Lumichrome; LC-ESI-QTOF; MS2; 150 V
Name: Lumichrome
Class: Pharmaceutical
Formula: C12H10N4O2
Exact mass: 242.0804
SMILES: CC1=CC2=C(C=C1C)N=C3C(=N2)C(=O)NC(=O)N3
InChI: InChI=1S/C12H10N4O2/c1-5-3-7-8(4-6(5)2)14-10-9(13-7)11(17)16-12(18)15-10/h3-4H,1-2H3,(H2,14,15,16,17,18)
Instrument: TripleTOF 6600 SCIEX
Instrument type: LC-ESI-QTOF
Ms type: MS2
Ion mode: POSITIVE
Collision energy: 150
Fragmentation mode: CID
Ionization: ESI
Column name: Zorbax Eclipse Plus C18 2.1 mm x 150 mm, 3.5 um, Agilent
Retention time: 7.067 min
Precursor m/z: 243.0877
Precursor type: [M+H]+
m/z	relative intensity
37.008	88
38.0156	50
39.0236	101
44.0136	37
49.008	278
50.0156	999
51.0235	644
52.019	37
59.9994	33
61.0078	202
62.0154	210
63.0234	143
64.0186	33
65.0398	16
73.0078	67
74.0158	324
75.0108	71
75.0241	88
76.0185	63
77.0394	46
85.0087	29
86.0145	25
89.0387	29
