Mass spectrum: Benzophenone-3; LC-ESI-QTOF; MS2; 90 V
Name: Benzophenone-3
Class: Personal_care_product
Formula: C14H12O3
Exact mass: 228.0786
SMILES: COc1ccc(c(O)c1)C(=O)c2ccccc2
InChI: InChI=1S/C14H12O3/c1-17-11-7-8-12(13(15)9-11)14(16)10-5-3-2-4-6-10/h2-9,15H,1H3
Instrument: TripleTOF 5600 SCIEX
Instrument type: LC-ESI-QTOF
Ms type: MS2
Ion mode: POSITIVE
Collision energy: 90
Fragmentation mode: CID
Ionization: ESI
Column name: Zorbax Eclipse Plus C18 2.1 mm x 150 mm, 3.5 um, Agilent
Retention time: 13.504 min
Precursor m/z: 229.0859
Precursor type: [M+H]+
m/z	relative intensity
52.0364	339
53.0083	37
55.0228	26
65.043	78
69.001	139
74.0181	17
75.0273	17
77.0415	999
79.0193	37
80.0283	133
87.0242	26
88.0345	26
89.0397	66
95.0515	20
108.0208	40
113.0391	52
114.0484	17
126.0449	17
138.0468	23
139.054	185
150.0476	31
151.0529	14
