Mass spectrum: Carebastine; LC-ESI-QTOF; MS2; 80 V
Name: Carebastine
Class: Pharmaceutical
Formula: C32H37NO4
Exact mass: 499.2723
SMILES: CC(C)(C1=CC=C(C=C1)C(=O)CCCN2CCC(CC2)OC(C3=CC=CC=C3)C4=CC=CC=C4)C(=O)O
InChI: InChI=1S/C32H37NO4/c1-32(2,31(35)36)27-17-15-24(16-18-27)29(34)14-9-21-33-22-19-28(20-23-33)37-30(25-10-5-3-6-11-25)26-12-7-4-8-13-26/h3-8,10-13,15-18,28,30H,9,14,19-23H2,1-2H3,(H,35,36)
Instrument: TripleTOF 6600 SCIEX
Instrument type: LC-ESI-QTOF
Ms type: MS2
Ion mode: POSITIVE
Collision energy: 80
Fragmentation mode: CID
Ionization: ESI
Column name: Zorbax Eclipse Plus C18 2.1 mm x 150 mm, 3.5 um, Agilent
Retention time: 10.045 min
Precursor m/z: 500.2796
Precursor type: [M+H]+
m/z	relative intensity
91.0536	66
107.0485	12
115.054	87
117.0697	205
118.0774	179
119.085	23
121.0279	55
128.0614	15
131.0487	22
132.0926	36
135.0799	12
141.0694	21
145.064	15
146.0725	253
147.08	15
151.0538	37
152.0621	635
163.0757	13
165.07	658
166.0776	188
167.0857	578
173.0957	35
188.1197	33
191.0711	999
233.1176	40
