Mass spectrum: Metazachlor; LC-ESI-QTOF; MS2; 110 V
Name: Metazachlor
Class: Herbicide
Formula: C14H16ClN3O
Exact mass: 277.0982
SMILES: Cc1cccc(C)c1N(Cn2cccn2)C(=O)CCl
InChI: InChI=1S/C14H16ClN3O/c1-11-5-3-6-12(2)14(11)18(13(19)9-15)10-17-8-4-7-16-17/h3-8H,9-10H2,1-2H3
Instrument: TripleTOF 5600 SCIEX
Instrument type: LC-ESI-QTOF
Ms type: MS2
Ion mode: POSITIVE
Collision energy: 110
Fragmentation mode: CID
Ionization: ESI
Column name: Zorbax Eclipse Plus C18 2.1 mm x 150 mm, 3.5 um, Agilent
Retention time: 11.114 min
Precursor m/z: 278.1055
Precursor type: [M+H]+
m/z	relative intensity
53.0438	14
65.0423	43
76.9829	14
77.0422	999
78.0497	29
79.0566	235
89.0409	138
90.0486	109
91.0553	101
102.0486	23
103.0557	226
104.0622	17
105.0465	10
105.0703	126
117.0567	234
118.0648	30
130.0671	20
132.0801	11
