Mass spectrum: Atenolol acid; LC-ESI-QTOF; MS2; 100 V
Name: Atenolol acid
Class: Pharmaceutical; Transformation_product-Metabolite
Formula: C14H21NO4
Exact mass: 267.1471
SMILES: CC(C)NCC(COC1=CC=C(C=C1)CC(=O)O)O
InChI: InChI=1S/C14H21NO4/c1-10(2)15-8-12(16)9-19-13-5-3-11(4-6-13)7-14(17)18/h3-6,10,12,15-16H,7-9H2,1-2H3,(H,17,18)
Instrument: TripleTOF 5600 SCIEX
Instrument type: LC-ESI-QTOF
Ms type: MS2
Ion mode: POSITIVE
Collision energy: 100
Fragmentation mode: CID
Ionization: ESI
Column name: Zorbax Eclipse Plus C18 2.1 mm x 150 mm, 3.5 um, Agilent
Retention time: 4.893 min
Precursor m/z: 268.1543
Precursor type: [M+H]+
m/z	relative intensity
37.0074	15
38.0154	15
39.023	98
41.0389	95
43.0549	28
49.0072	12
50.0151	54
51.0229	277
53.0389	22
56.05	95
58.0645	28
61.0072	15
62.015	41
63.0232	232
65.0384	175
67.0558	12
77.0387	999
78.0475	22
79.0543	76
89.0386	239
91.054	213
102.0432	15
107.0506	44
115.0542	204
116.064	12
