Mass spectrum: Difenoconazole; LC-ESI-QTOF; MS2; 120 V
Name: Difenoconazole
Class: Fungicide
Formula: C19H17Cl2N3O3
Exact mass: 405.0647
SMILES: CC1COC(Cn2cncn2)(O1)c3ccc(Oc4ccc(Cl)cc4)cc3Cl
InChI: InChI=1S/C19H17Cl2N3O3/c1-13-9-25-19(27-13,10-24-12-22-11-23-24)17-7-6-16(8-18(17)21)26-15-4-2-14(20)3-5-15/h2-8,11-13H,9-10H2,1H3
Instrument: TripleTOF 6600 SCIEX
Instrument type: LC-ESI-QTOF
Ms type: MS2
Ion mode: POSITIVE
Collision energy: 120
Fragmentation mode: CID
Ionization: ESI
Column name: Zorbax Eclipse Plus C18 2.1 mm x 150 mm, 3.5 um, Agilent
Retention time: 13.755 min
Precursor m/z: 406.072
Precursor type: [M+H]+
m/z	relative intensity
39.0225	13
49.0072	14
50.0148	51
51.0228	85
60.9834	12
63.0224	19
72.9842	24
73.0069	21
74.0149	433
75.0229	999
76.0299	28
77.0382	120
78.0455	28
84.9834	104
89.0381	32
99.0001	25
102.0453	20
110.9991	124
113.0378	24
114.0457	13
115.053	14
126.0458	64
127.0536	58
128.0613	23
137.0371	19
138.0473	44
139.0046	35
139.0536	203
141.0096	36
148.0072	10
149.0146	20
150.0457	67
151.0531	186
152.0613	632
153.0686	36
162.0224	13
173.0149	32
179.0605	13
181.0636	11
182.9764	12
