Mass spectrum: Ethyl 4-dimethylaminobenzoate; LC-ESI-QTOF; MS2; 80 V
Name: Ethyl 4-dimethylaminobenzoate
Formula: C11H15NO2
Exact mass: 193.1103
SMILES: O=C(OCC)C1=CC=C(C=C1)N(C)C
InChI: InChI=1S/C11H15NO2/c1-4-14-11(13)9-5-7-10(8-6-9)12(2)3/h5-8H,4H2,1-3H3
Instrument: TripleTOF X500R SCIEX
Instrument type: LC-ESI-QTOF
Ms type: MS2
Ion mode: POSITIVE
Collision energy: 80
Fragmentation mode: CID
Ionization: ESI
Column name: Zorbax Eclipse Plus C18 2.1 mm x 150 mm, 3.5 um, Agilent
Retention time: 11.941 min
Precursor m/z: 194.1176
Precursor type: [M+H]+
m/z	relative intensity
37.008	43
38.0155	54
39.0229	567
50.0154	47
51.0232	479
53.0384	32
64.0302	40
65.0385	611
66.0426	18
67.0418	25
75.0225	80
77.0383	999
78.0449	168
79.0542	157
80.0479	29
91.0413	65
103.0195	14
104.0514	80
105.0586	21
106.0657	102
121.0266	18
134.06	36
150.0557	62
