Mass spectrum: Citalopram; LC-ESI-QTOF; MS2; 40 V
Name: Citalopram
Class: Pharmaceutical
Formula: C20H21FN2O
Exact mass: 324.1638
SMILES: CN(C)CCCC1(OCc2cc(ccc12)C#N)c3ccc(F)cc3
InChI: InChI=1S/C20H21FN2O/c1-23(2)11-3-10-20(17-5-7-18(21)8-6-17)19-9-4-15(13-22)12-16(19)14-24-20/h4-9,12H,3,10-11,14H2,1-2H3
Instrument: TripleTOF 5600 SCIEX
Instrument type: LC-ESI-QTOF
Ms type: MS2
Ion mode: POSITIVE
Collision energy: 40
Fragmentation mode: CID
Ionization: ESI
Column name: Zorbax Eclipse Plus C18 2.1 mm x 150 mm, 3.5 um, Agilent
Retention time: 7.757 min
Precursor m/z: 325.1711
Precursor type: [M+H]+
m/z	relative intensity
58.071	45
83.0322	36
84.083	11
89.0402	17
109.0463	999
116.0505	171
121.0451	10
123.0245	14
129.0706	19
130.0665	9
140.0501	38
144.0448	13
154.0657	13
156.0813	33
166.0658	116
190.0655	16
202.0738	12
207.0608	16
208.0574	23
214.0666	16
215.0863	47
218.0609	23
220.068	52
221.0645	128
222.0722	56
226.0679	11
227.0735	122
232.0566	12
233.0763	37
234.0724	327
235.0875	244
236.0877	19
238.0668	37
240.0818	37
241.0891	27
242.0972	64
244.0673	11
245.0688	27
246.0733	115
247.0801	235
250.1026	36
260.0879	33
261.0945	35
262.1037	267
280.1125	19
307.1617	45
325.172	169
