Mass spectrum: Metolachlor ESA; LC-ESI-QTOF; MS2; 60 V
Name: Metolachlor ESA
Class: Herbicide
Formula: C15H23NO5S
Exact mass: 329.1297
SMILES: CCC1=CC=CC(=C1N(C(C)COC)C(=O)CS(=O)(=O)O)C
InChI: InChI=1S/C15H23NO5S/c1-5-13-8-6-7-11(2)15(13)16(12(3)9-21-4)14(17)10-22(18,19)20/h6-8,12H,5,9-10H2,1-4H3,(H,18,19,20)
Instrument: TripleTOF 5600 SCIEX
Instrument type: LC-ESI-QTOF
Ms type: MS2
Ion mode: POSITIVE
Collision energy: 60
Fragmentation mode: CID
Ionization: ESI
Column name: Zorbax Eclipse Plus C18 2.1 mm x 150 mm, 3.5 um, Agilent
Retention time: 8.247 min
Precursor m/z: 330.137
Precursor type: [M+H]+
m/z	relative intensity
45.0426	36
73.0685	49
77.0405	28
82.065	20
91.0549	143
93.0703	20
103.0526	20
105.0702	77
106.0641	24
108.0832	61
115.0526	61
115.0632	28
116.0658	36
117.0624	302
118.0659	81
119.075	151
120.0808	102
127.0567	20
128.0609	36
130.0645	208
131.073	286
132.0802	454
133.089	135
134.0959	163
136.11	36
142.0702	40
143.0868	131
144.081	626
145.088	970
145.1215	16
146.0643	36
146.0968	429
148.1106	32
157.0991	24
158.0972	266
159.104	335
160.0757	77
160.1117	999
161.0878	32
162.0922	57
172.1137	24
174.1276	560
176.1436	53
188.1096	40
202.1228	401
216.1344	20
