Mass spectrum: threo-Dihydrobupropion; LC-ESI-QTOF; MS2; 110 V
Name: threo-Dihydrobupropion
Class: Pharmaceutical; Metabolite
Formula: C13H20ClNO
Exact mass: 241.1233
SMILES: CC(C(c1cccc(c1)Cl)O)NC(C)(C)C
InChI: InChI=1S/C13H20ClNO/c1-9(15-13(2,3)4)12(16)10-6-5-7-11(14)8-10/h5-9,12,15-16H,1-4H3
Instrument: TripleTOF 5600 SCIEX
Instrument type: LC-ESI-QTOF
Ms type: MS2
Ion mode: POSITIVE
Collision energy: 110
Fragmentation mode: CID
Ionization: ESI
Column name: Zorbax Eclipse Plus C18 2.1 mm x 150 mm, 3.5 um, Agilent
Retention time: 6.626 min
Precursor m/z: 242.1306
Precursor type: [M+H]+
m/z	relative intensity
42.042	63
57.0761	139
58.0686	40
58.0829	29
63.0549	23
65.0423	272
72.9856	87
74.0191	116
74.0335	29
75.0251	127
77.0398	52
87.0251	34
89.04	853
90.0475	139
91.056	121
98.9995	63
110.9992	40
113.0402	34
114.0462	40
115.0537	999
117.057	116
118.0666	23
