Mass spectrum: Mesotrione; LC-ESI-QTOF; MS2; 60 V
Name: Mesotrione
Class: Herbicide
Formula: C14H13NO7S
Exact mass: 339.0413
SMILES: CS(=O)(=O)C1=CC(=C(C=C1)C(=O)C2C(=O)CCCC2=O)[N+](=O)[O-]
InChI: InChI=1S/C14H13NO7S/c1-23(21,22)8-5-6-9(10(7-8)15(19)20)14(18)13-11(16)3-2-4-12(13)17/h5-7,13H,2-4H2,1H3
Instrument: TripleTOF 6600 SCIEX
Instrument type: LC-ESI-QTOF
Ms type: MS2
Ion mode: NEGATIVE
Collision energy: 60
Fragmentation mode: CID
Ionization: ESI
Column name: Zorbax Eclipse Plus C18 2.1 mm x 150 mm, 3.5 um, Agilent
Retention time: 9.26 min
Precursor m/z: 338.034
Precursor type: [M-H]-
m/z	relative intensity
45.9927	999
91.0175	27
93.0324	35
114.0462	15
139.0552	19
140.0623	35
142.0073	35
142.0419	70
158.0359	78
159.0447	15
168.0574	93
169.0305	58
170.037	374
183.0441	50
184.0515	70
210.0306	27
211.0388	140
212.0476	983
221.0273	27
223.0075	15
227.0347	27
249.0206	42
