Mass spectrum: Prometryn; LC-ESI-QTOF; MS2; 110 V
Name: Prometryn
Class: Herbicide
Formula: C10H19N5S
Exact mass: 241.1361
SMILES: CSc1nc(NC(C)C)nc(NC(C)C)n1
InChI: InChI=1S/C10H19N5S/c1-6(2)11-8-13-9(12-7(3)4)15-10(14-8)16-5/h6-7H,1-5H3,(H2,11,12,13,14,15)
Instrument: TripleTOF 5600 SCIEX
Instrument type: LC-ESI-QTOF
Ms type: MS2
Ion mode: POSITIVE
Collision energy: 110
Fragmentation mode: CID
Ionization: ESI
Column name: Zorbax Eclipse Plus C18 2.1 mm x 150 mm, 3.5 um, Agilent
Retention time: 9.527 min
Precursor m/z: 242.1434
Precursor type: [M+H]+
m/z	relative intensity
41.0228	33
42.0417	13
43.0387	444
57.9792	33
58.9868	29
59.9958	67
68.0293	999
74.0092	92
84.9876	86
