Mass spectrum: 2-(2-Methoxyphenyl)-1H-Benzimidazole; LC-ESI-QTOF; MS2; 140 V
Name: 2-(2-Methoxyphenyl)-1H-Benzimidazole
Class: Pharmaceutical
Formula: C14H12N2O
Exact mass: 224.095
SMILES: COc1ccccc1c2[nH]c3ccccc3n2
InChI: InChI=1S/C14H12N2O/c1-17-13-9-5-2-6-10(13)14-15-11-7-3-4-8-12(11)16-14/h2-9H,1H3,(H,15,16)
Instrument: TripleTOF 5600 SCIEX
Instrument type: LC-ESI-QTOF
Ms type: MS2
Ion mode: POSITIVE
Collision energy: 140
Fragmentation mode: CID
Ionization: ESI
Column name: Zorbax Eclipse Plus C18 2.1 mm x 150 mm, 3.5 um, Agilent
Retention time: 6.225 min
Precursor m/z: 225.1022
Precursor type: [M+H]+
m/z	relative intensity
52.0236	209
60.0047	95
62.0473	104
65.0298	57
65.043	218
73.0098	85
74.0177	999
75.0131	133
75.0248	371
76.0212	199
76.0317	133
77.0412	142
86.0169	66
87.0242	57
98.013	47
99.0211	57
100.0271	66
102.0348	57
125.035	38
