Mass spectrum: Simazine; LC-ESI-QTOF; MS2; 30 V
Name: Simazine
Class: Herbicide
Formula: C7H12ClN5
Exact mass: 201.0781
SMILES: CCNc1nc(Cl)nc(NCC)n1
InChI: InChI=1S/C7H12ClN5/c1-3-9-6-11-5(8)12-7(13-6)10-4-2/h3-4H2,1-2H3,(H2,9,10,11,12,13)
Instrument: TripleTOF 5600 SCIEX
Instrument type: LC-ESI-QTOF
Ms type: MS2
Ion mode: POSITIVE
Collision energy: 30
Fragmentation mode: CID
Ionization: ESI
Column name: Zorbax Eclipse Plus C18 2.1 mm x 150 mm, 3.5 um, Agilent
Retention time: 8.925 min
Precursor m/z: 202.0854
Precursor type: [M+H]+
m/z	relative intensity
43.0365	81
61.9822	58
68.0276	419
68.0636	10
71.0637	300
79.0085	44
90.01	35
96.056	678
104.001	873
110.0447	13
124.0861	711
132.0312	999
138.0758	47
146.0215	49
166.1066	139
174.0527	218
202.0834	751
