Mass spectrum: Azo Rubin S; LC-ESI-QTOF; MS2; 140 V
Name: Azo Rubin S
Formula: C20H14N2O7S2
Exact mass: 458.0242
SMILES: C1=CC=C2C(=C1)C(=CC=C2S(=O)(=O)O)N=NC3=C(C4=CC=CC=C4C(=C3)S(=O)(=O)O)O
InChI: InChI=1S/C20H14N2O7S2/c23-20-15-8-4-3-7-14(15)19(31(27,28)29)11-17(20)22-21-16-9-10-18(30(24,25)26)13-6-2-1-5-12(13)16/h1-11,23H,(H,24,25,26)(H,27,28,29)
Instrument: TripleTOF 6600 SCIEX
Instrument type: LC-ESI-QTOF
Ms type: MS2
Ion mode: POSITIVE
Collision energy: 140
Fragmentation mode: CID
Ionization: ESI
Column name: Zorbax Eclipse Plus C18 2.1 mm x 150 mm, 3.5 um, Agilent
Retention time: 7.286 min
Precursor m/z: 459.0315
Precursor type: [M+H]+
m/z	relative intensity
39.0227	24
50.0147	16
51.0229	140
52.0179	140
62.0141	16
63.0226	109
64.9687	46
65.0386	46
74.0148	20
75.0224	44
76.0293	19
77.0384	999
80.013	36
87.0235	15
88.0309	23
89.0382	446
90.0338	12
91.0542	11
99.0229	15
100.0173	27
101.0377	19
102.0461	89
103.0536	431
104.0489	30
105.0445	13
113.0376	97
114.0451	46
115.0538	589
116.0502	122
130.0642	181
140.0487	140
213.0686	14
223.0522	13
224.0625	18
238.066	25
239.0707	11
249.0522	12
249.0653	12
250.068	13
251.0753	22
265.0794	15
