Mass spectrum: 1-Oxo-ibuprofen; LC-ESI-QTOF; MS2; 80 V
Name: 1-Oxo-ibuprofen
Class: Pharmaceutical; Transformation_product
Formula: C13H16O3
Exact mass: 220.1099
SMILES: CC(C)C(=O)C1=CC=C(C=C1)C(C)C(=O)O
InChI: InChI=1S/C13H16O3/c1-8(2)12(14)11-6-4-10(5-7-11)9(3)13(15)16/h4-9H,1-3H3,(H,15,16)
Instrument: TripleTOF 5600 SCIEX
Instrument type: LC-ESI-QTOF
Ms type: MS2
Ion mode: POSITIVE
Collision energy: 80
Fragmentation mode: CID
Ionization: ESI
Column name: Zorbax Eclipse Plus C18 2.1 mm x 150 mm, 3.5 um, Agilent
Retention time: 10.239 min
Precursor m/z: 221.1172
Precursor type: [M+H]+
m/z	relative intensity
43.0251	316
43.0395	56
51.0284	211
55.0591	126
57.0751	49
65.0423	379
67.0585	56
77.0415	999
77.0791	28
78.0489	98
79.0556	253
89.0391	98
91.0555	830
102.047	77
103.0534	218
105.071	105
107.0498	49
115.0535	766
116.0613	42
117.0697	126
127.0543	112
128.0616	302
129.071	28
141.0687	56
