Mass spectrum: Cyproterone; LC-ESI-QTOF; MS2; 100 V
Name: Cyproterone
Class: Pharmaceutical
Formula: C22H27ClO3
Exact mass: 374.1649
SMILES: CC(=O)C1(CCC2C1(CCC3C2C=C(C4=CC(=O)C5CC5C34C)Cl)C)O
InChI: InChI=1S/C22H27ClO3/c1-11(24)22(26)7-5-14-12-9-18(23)17-10-19(25)13-8-16(13)21(17,3)15(12)4-6-20(14,22)2/h9-10,12-16,26H,4-8H2,1-3H3
Instrument: TripleTOF 5600 SCIEX
Instrument type: LC-ESI-QTOF
Ms type: MS2
Ion mode: POSITIVE
Collision energy: 100
Fragmentation mode: CID
Ionization: ESI
Column name: Zorbax Eclipse Plus C18 2.1 mm x 150 mm, 3.5 um, Agilent
Retention time: 11.881 min
Precursor m/z: 375.1721
Precursor type: [M+H]+
m/z	relative intensity
41.0381	30
43.0185	345
51.0227	37
55.0545	37
59.0501	30
65.0383	97
67.0559	45
77.039	540
79.0553	180
81.0703	30
89.0394	67
91.0546	668
93.069	52
94.0422	45
102.0465	45
103.0547	150
105.0704	187
107.0504	37
115.0539	931
116.0622	105
117.0695	75
125.0142	45
126.0496	82
127.0548	345
128.0619	736
129.069	180
131.0489	75
131.084	37
139.0534	150
140.064	45
141.0702	593
142.0781	150
143.087	52
145.0667	37
150.0464	30
151.0552	127
152.0636	495
153.0698	330
154.0788	90
155.0561	37
155.0849	90
157.0662	45
162.0224	30
163.0565	45
164.0678	52
165.0704	999
166.0759	150
167.0854	90
169.0635	45
176.0634	135
177.0685	97
178.0784	698
179.0856	277
180.0927	37
181.0605	37
181.0714	67
189.0692	533
190.0771	195
191.0844	315
192.0931	97
193.0954	30
195.0805	30
201.0695	37
202.0779	630
203.0864	270
204.0918	90
205.1044	90
207.0806	82
213.0708	37
214.0791	52
215.0844	345
216.0936	75
217.1031	90
218.075	45
219.0835	37
219.1144	30
221.0933	37
226.0759	60
229.1024	75
231.0837	75
232.0865	52
233.0964	30
239.0808	60
245.096	75
