Mass spectrum: Clonazepam; LC-ESI-QTOF; MS2; 110 V
Name: Clonazepam
Class: Pharmaceutical
Formula: C15H10ClN3O3
Exact mass: 315.0411
SMILES: C1C(=O)NC2=C(C=C(C=C2)[N+](=O)[O-])C(=N1)C3=CC=CC=C3Cl
InChI: InChI=1S/C15H10ClN3O3/c16-12-4-2-1-3-10(12)15-11-7-9(19(21)22)5-6-13(11)18-14(20)8-17-15/h1-7H,8H2,(H,18,20)
Instrument: TripleTOF 6600 SCIEX
Instrument type: LC-ESI-QTOF
Ms type: MS2
Ion mode: POSITIVE
Collision energy: 110
Fragmentation mode: CID
Ionization: ESI
Column name: Zorbax Eclipse Plus C18 2.1 mm x 150 mm, 3.5 um, Agilent
Retention time: 9.867 min
Precursor m/z: 316.0484
Precursor type: [M+H]+
m/z	relative intensity
39.0231	13
50.0153	35
51.023	98
61.0065	22
62.0148	26
63.0226	54
65.0383	15
72.9836	10
74.0146	97
75.0223	148
76.0176	20
76.03	72
77.0383	211
78.0342	11
78.046	26
86.0134	28
87.0226	41
88.0302	20
89.0377	73
98.0144	79
99.0223	100
100.0295	24
101.0382	36
102.034	37
102.0447	54
104.0491	20
110.0142	14
111.0219	26
112.0226	10
113.0377	86
114.0331	14
114.0456	28
115.053	52
122.0149	20
123.0222	30
124.0322	34
125.0378	150
126.0459	196
127.0533	105
128.0621	56
129.0455	18
137.0374	60
138.0419	45
139.0536	175
140.0489	104
149.0379	146
150.0464	999
151.0537	995
152.0612	499
153.057	83
154.0622	12
155.0585	11
161.0377	52
161.0511	14
162.0452	102
163.0544	299
164.0491	150
165.0683	45
166.0647	25
175.041	71
176.0494	131
177.0573	469
178.0642	191
179.061	59
186.0253	12
187.0418	11
188.05	142
189.0562	17
190.0645	36
191.0678	18
203.059	34
204.0549	21
204.0688	11
205.0762	72
