Mass spectrum: Memantine; LC-ESI-QTOF; MS2; 90 V
Name: Memantine
Class: Pharmaceutical
Formula: C12H21N
Exact mass: 179.1674
SMILES: CC12CC3CC(C1)(CC(C3)(C2)N)C
InChI: InChI=1S/C12H21N/c1-10-3-9-4-11(2,6-10)8-12(13,5-9)7-10/h9H,3-8,13H2,1-2H3
Instrument: TripleTOF 5600 SCIEX
Instrument type: LC-ESI-QTOF
Ms type: MS2
Ion mode: POSITIVE
Collision energy: 90
Fragmentation mode: CID
Ionization: ESI
Column name: Zorbax Eclipse Plus C18 2.1 mm x 150 mm, 3.5 um, Agilent
Retention time: 6.653 min
Precursor m/z: 180.1747
Precursor type: [M+H]+
m/z	relative intensity
53.0439	26
55.0603	59
62.0277	16
65.0428	999
67.0574	36
77.0405	587
78.0488	33
79.0562	102
91.0556	667
103.0537	16
105.0676	19
