Mass spectrum: Sulfamethoxazole; LC-ESI-QTOF; MS2; 30 V
Name: Sulfamethoxazole
Class: Antimicrobial; Pharmaceutical
Formula: C10H11N3O3S
Exact mass: 253.0521
SMILES: CC1=CC(=NO1)NS(=O)(=O)C2=CC=C(C=C2)N
InChI: InChI=1S/C10H11N3O3S/c1-7-6-10(12-16-7)13-17(14,15)9-4-2-8(11)3-5-9/h2-6H,11H2,1H3,(H,12,13)
Instrument: TripleTOF 5600 SCIEX
Instrument type: LC-ESI-QTOF
Ms type: MS2
Ion mode: POSITIVE
Collision energy: 30
Fragmentation mode: CID
Ionization: ESI
Column name: Zorbax Eclipse Plus C18 2.1 mm x 150 mm, 3.5 um, Agilent
Retention time: 7.246 min
Precursor m/z: 254.0594
Precursor type: [M+H]+
m/z	relative intensity
65.0457	129
72.0507	10
80.0544	54
92.0539	978
93.0614	251
94.0713	24
99.0591	262
107.0632	58
108.0479	999
131.0615	12
146.0727	88
147.0806	182
148.0888	29
156.0127	886
160.0884	290
161.002	27
176.0281	20
188.0815	53
254.0594	37
