Mass spectrum: 1,7-Dimethylxanthine; LC-ESI-QTOF; MS2; 40 V
Name: 1,7-Dimethylxanthine
Class: Pharmaceutical; Metabolite; Natural_product
Formula: C7H8N4O2
Exact mass: 180.0647
SMILES: Cn1cnc2NC(=O)N(C)C(=O)c12
InChI: InChI=1S/C7H8N4O2/c1-10-3-8-5-4(10)6(12)11(2)7(13)9-5/h3H,1-2H3,(H,9,13)
Instrument: TripleTOF 5600 SCIEX
Instrument type: LC-ESI-QTOF
Ms type: MS2
Ion mode: POSITIVE
Collision energy: 40
Fragmentation mode: CID
Ionization: ESI
Column name: Zorbax Eclipse Plus C18 2.1 mm x 150 mm, 3.5 um, Agilent
Retention time: 5.064 min
Precursor m/z: 181.072
Precursor type: [M+H]+
m/z	relative intensity
42.0426	361
54.0396	15
55.0346	261
67.032	242
69.0481	436
70.0315	18
81.0472	10
83.0272	13
96.056	283
97.0401	27
109.0272	18
124.0501	999
154.0631	18
181.0757	52
