Mass spectrum: Budesonide; LC-ESI-QTOF; MS2; 30 V
Name: Budesonide
Class: Pharmaceutical
Formula: C25H34O6
Exact mass: 430.2355
SMILES: CCC[C@@H]1O[C@@H]2C[C@H]3[C@@H]4CCC5=CC(=O)C=C[C@]5(C)[C@H]4[C@@H](O)C[C@]3(C)[C@@]2(O1)C(=O)CO
InChI: InChI=1S/C25H34O6/c1-4-5-21-30-20-11-17-16-7-6-14-10-15(27)8-9-23(14,2)22(16)18(28)12-24(17,3)25(20,31-21)19(29)13-26/h8-10,16-18,20-22,26,28H,4-7,11-13H2,1-3H3/t16-,17-,18-,20+,21+,22+,23-,24-,25+/m0/s1
Instrument: TripleTOF 5600 SCIEX
Instrument type: LC-ESI-QTOF
Ms type: MS2
Ion mode: POSITIVE
Collision energy: 30
Fragmentation mode: CID
Ionization: ESI
Column name: Zorbax Eclipse Plus C18 2.1 mm x 150 mm, 3.5 um, Agilent
Retention time: 11.041 min
Precursor m/z: 431.2428
Precursor type: [M+H]+
m/z	relative intensity
95.0851	19
101.0243	22
105.0694	22
109.0658	19
119.0871	30
121.0638	130
123.0789	22
133.0657	22
135.0788	80
137.061	49
139.0727	34
145.0649	19
147.0794	558
149.057	22
149.0962	19
151.0737	22
155.0706	68
157.099	22
159.0818	61
161.0934	57
163.075	57
165.09	26
171.0785	294
173.0951	528
175.1121	19
177.09	19
181.0856	26
183.0779	19
185.094	61
187.0732	22
187.1111	53
189.0887	19
195.0864	22
197.0952	91
199.1108	61
201.0893	30
207.1142	19
209.0943	61
211.1111	95
213.0888	30
213.1263	49
215.101	26
221.0943	68
223.1113	107
224.1193	26
225.0895	15
225.1272	417
226.1344	244
227.141	271
235.1098	72
237.126	214
239.1074	34
239.1415	153
241.1583	91
243.1021	15
243.1381	19
247.1126	30
248.1211	38
249.1261	114
250.133	22
251.1054	26
251.1416	95
253.1218	57
253.1586	76
255.136	38
260.117	19
261.1274	91
262.1332	42
263.1014	30
263.1423	344
264.121	15
264.1499	57
265.1212	26
265.1583	294
267.1323	15
267.173	49
272.1131	19
274.1356	19
275.1415	72
277.122	42
277.1574	390
279.1365	65
279.1723	42
281.153	107
281.1894	34
283.1684	107
287.1421	145
289.159	57
290.1344	26
293.1522	88
293.191	19
295.1312	22
295.1685	252
297.1552	19
305.1526	405
307.1708	88
313.1665	22
313.1787	30
321.1425	57
323.1635	669
325.18	88
339.1607	22
341.1718	118
343.1867	22
377.2111	26
395.2222	38
413.2317	999
