Mass spectrum: Medroxyprogesterone-17-acetate; LC-ESI-QTOF; MS2; 130 V
Name: Medroxyprogesterone-17-acetate
Class: Pharmaceutical
Formula: C24H34O4
Exact mass: 386.2457
SMILES: CC1CC2C(CCC3(C2CCC3(C(=O)C)OC(=O)C)C)C4(C1=CC(=O)CC4)C
InChI: InChI=1S/C24H34O4/c1-14-12-18-19(22(4)9-6-17(27)13-21(14)22)7-10-23(5)20(18)8-11-24(23,15(2)25)28-16(3)26/h13-14,18-20H,6-12H2,1-5H3
Instrument: TripleTOF 5600 SCIEX
Instrument type: LC-ESI-QTOF
Ms type: MS2
Ion mode: POSITIVE
Collision energy: 130
Fragmentation mode: CID
Ionization: ESI
Column name: Zorbax Eclipse Plus C18 2.1 mm x 150 mm, 3.5 um, Agilent
Retention time: 13.723 min
Precursor m/z: 387.253
Precursor type: [M+H]+
m/z	relative intensity
38.0162	20
39.0229	136
41.0384	132
43.0178	333
50.0154	20
51.0225	124
53.039	56
55.0177	20
55.054	124
57.0339	16
63.0231	20
65.0384	232
67.0539	188
69.0692	40
75.0229	16
77.0383	999
78.0465	64
79.0538	369
81.0313	28
81.0703	44
82.0396	20
83.0489	68
89.0378	48
91.054	822
93.0702	68
94.0413	24
95.0492	16
95.0851	36
97.0648	200
102.0471	60
103.0537	128
104.0608	20
105.0704	120
107.0483	112
108.0568	36
115.0543	617
116.0609	56
117.0695	96
119.0853	28
123.0804	48
126.0486	28
127.0544	128
128.0615	533
129.0689	168
130.0752	24
131.0488	16
139.052	32
141.0696	280
142.0793	28
151.0531	60
152.0627	224
153.0702	144
154.0757	20
155.0839	32
163.0571	20
164.06	16
165.0695	232
166.0784	32
167.0862	32
178.0769	80
179.0853	40
189.0719	48
191.0831	24
