Mass spectrum: Oxytetracycline; LC-ESI-QTOF; MS2; 70 V
Name: Oxytetracycline
Class: Pharmaceutical
Formula: C22H24N2O9
Exact mass: 460.1482
SMILES: CC1(C2C(C3C(C(=O)C(=C(C3(C(=O)C2=C(C4=C1C=CC=C4O)O)O)O)C(=O)N)N(C)C)O)O
InChI: InChI=1S/C22H24N2O9/c1-21(32)7-5-4-6-8(25)9(7)15(26)10-12(21)17(28)13-14(24(2)3)16(27)11(20(23)31)19(30)22(13,33)18(10)29/h4-6,12-14,17,25-26,28,30,32-33H,1-3H3,(H2,23,31)/t12-,13-,14+,17+,21-,22+/m1/s1
Instrument: TripleTOF 5600 SCIEX
Instrument type: LC-ESI-QTOF
Ms type: MS2
Ion mode: NEGATIVE
Collision energy: 70
Fragmentation mode: CID
Ionization: ESI
Column name: Zorbax Eclipse Plus C18 2.1 mm x 150 mm, 3.5 um, Agilent
Retention time: 5.586 min
Precursor m/z: 459.1409
Precursor type: [M-H]-
m/z	relative intensity
68.9992	59
79.0184	59
83.0149	59
92.0299	59
93.0337	44
95.0119	59
96.9935	104
108.0199	59
109.0294	119
111.0088	89
123.0084	74
124.9871	59
125.0225	59
134.0389	59
135.0091	119
135.0457	924
139.0168	134
144.0572	119
145.0292	59
150.0216	89
151.0307	44
156.061	74
158.0378	104
159.0454	134
161.0241	417
162.0309	59
163.0061	59
163.0367	149
164.0117	104
169.0609	89
171.0455	298
172.0532	715
173.0224	119
173.0604	670
174.0348	223
178.0127	59
183.0514	104
183.0839	149
185.0632	119
186.0292	59
187.0393	283
188.0413	74
189.0512	74
191.0355	74
195.0419	74
195.0851	59
196.054	193
197.0609	238
198.0329	59
199.082	119
200.0476	59
201.0555	357
203.0365	74
209.0611	283
210.0682	119
211.044	164
211.0765	193
213.0589	44
215.0714	59
219.0482	59
221.0645	89
223.0789	104
224.045	223
225.0567	283
225.0928	74
227.0384	119
227.0727	134
231.0322	59
235.0394	357
235.0838	74
237.0536	104
238.0688	59
239.0311	59
239.074	193
243.0678	74
249.0554	104
251.0738	74
252.0407	134
252.1061	119
253.0517	999
254.059	119
255.0302	74
255.0636	119
256.0397	74
261.0559	59
265.0609	59
274.0681	59
276.0451	74
279.0676	44
293.0438	59
