Mass spectrum: Etrimfos; LC-ESI-QTOF; MS2; 120 V
Name: Etrimfos
Class: Insecticide
Formula: C10H17N2O4PS
Exact mass: 292.0647
SMILES: CCC1=NC(=CC(=N1)OP(=S)(OC)OC)OCC
InChI: InChI=1S/C10H17N2O4PS/c1-5-8-11-9(15-6-2)7-10(12-8)16-17(18,13-3)14-4/h7H,5-6H2,1-4H3
Instrument: TripleTOF 6600 SCIEX
Instrument type: LC-ESI-QTOF
Ms type: MS2
Ion mode: POSITIVE
Collision energy: 120
Fragmentation mode: CID
Ionization: ESI
Column name: Zorbax Eclipse Plus C18 2.1 mm x 150 mm, 3.5 um, Agilent
Retention time: 14.241 min
Precursor m/z: 293.072
Precursor type: [M+H]+
m/z	relative intensity
38.0012	11
40.0173	68
42.0327	10
43.9708	35
44.9789	999
45.9738	11
45.9858	45
46.9682	378
46.9906	208
48.9827	15
56.0487	17
56.978	11
62.9436	73
62.9977	30
68.0118	68
68.9956	16
78.9399	14
78.9923	27
