Mass spectrum: Nitenpyram; LC-ESI-QTOF; MS2; 40 V
Name: Nitenpyram
Class: Pharmaceutical; Insecticide
Formula: C11H15ClN4O2
Exact mass: 270.0884
SMILES: CCN(Cc1ccc(Cl)nc1)\C(NC)=C\[N+]([O-])=O
InChI: InChI=1S/C11H15ClN4O2/c1-3-15(11(13-2)8-16(17)18)7-9-4-5-10(12)14-6-9/h4-6,8,13H,3,7H2,1-2H3/b11-8+
Instrument: TripleTOF 5600 SCIEX
Instrument type: LC-ESI-QTOF
Ms type: MS2
Ion mode: POSITIVE
Collision energy: 40
Fragmentation mode: CID
Ionization: ESI
Column name: Zorbax Eclipse Plus C18 2.1 mm x 150 mm, 3.5 um, Agilent
Retention time: 5.386 min
Precursor m/z: 271.0956
Precursor type: [M+H]+
m/z	relative intensity
42.0416	17
56.0566	999
57.0507	10
57.0609	13
58.0713	60
70.0683	23
71.0629	15
72.9884	13
83.062	10
85.0403	19
85.0776	19
85.0883	13
86.0846	41
90.0353	69
98.0718	58
98.9997	47
99.059	19
99.0915	227
106.067	15
111.0782	13
111.9996	13
112.086	30
112.1052	10
115.0846	13
117.0575	13
118.063	10
126.0102	457
127.018	21
128.0253	28
131.0582	19
132.0693	17
133.0735	23
138.0107	26
139.0061	56
140.0253	17
141.0212	43
145.0749	23
147.0884	13
150.0109	13
152.0243	47
153.0199	30
153.0333	13
154.0425	10
155.0363	13
159.093	15
160.0854	56
161.0949	13
165.0217	41
166.0189	28
166.0305	15
167.0372	47
167.0534	10
169.0525	216
170.0574	13
176.1171	13
179.0363	117
180.0388	21
181.0522	56
188.119	36
189.1291	28
190.1327	104
193.0513	43
194.0592	86
195.0684	93
196.0625	364
207.0439	19
208.0538	34
209.0599	45
210.0776	110
212.099	13
224.0945	335
225.0994	80
237.0896	99
