Mass spectrum: Crotamiton; LC-ESI-QTOF; MS2; 90 V
Name: Crotamiton
Formula: C13H17NO
Exact mass: 203.131
SMILES: CCN(C1=CC=CC=C1C)C(=O)C=CC
InChI: InChI=1S/C13H17NO/c1-4-8-13(15)14(5-2)12-10-7-6-9-11(12)3/h4,6-10H,5H2,1-3H3
Instrument: TripleTOF 6600 SCIEX
Instrument type: LC-ESI-QTOF
Ms type: MS2
Ion mode: POSITIVE
Collision energy: 90
Fragmentation mode: CID
Ionization: ESI
Column name: Zorbax Eclipse Plus C18 2.1 mm x 150 mm, 3.5 um, Agilent
Retention time: 11.073 min
Precursor m/z: 204.1383
Precursor type: [M+H]+
m/z	relative intensity
35.9996	22
37.0073	167
38.0153	158
39.0233	999
41.0388	200
50.0149	31
51.0229	122
62.0145	18
63.0226	53
65.0384	159
66.0463	47
75.0225	13
77.0383	288
78.0338	11
78.0455	13
79.0541	36
89.038	71
91.054	47
92.0485	29
93.0567	56
106.0645	78
115.0536	17
