Mass spectrum: 2-p-Tolyl-1H-benzoimidazole; LC-ESI-QTOF; MS2; 70 V
Name: 2-p-Tolyl-1H-benzoimidazole
Class: Pharmaceutical
Formula: C14H12N2
Exact mass: 208.1
SMILES: CC1=CC=C(C=C1)C2=NC3=CC=CC=C3N2
InChI: InChI=1S/C14H12N2/c1-10-6-8-11(9-7-10)14-15-12-4-2-3-5-13(12)16-14/h2-9H,1H3,(H,15,16)
Instrument: TripleTOF 5600 SCIEX
Instrument type: LC-ESI-QTOF
Ms type: MS2
Ion mode: POSITIVE
Collision energy: 70
Fragmentation mode: CID
Ionization: ESI
Column name: Zorbax Eclipse Plus C18 2.1 mm x 150 mm, 3.5 um, Agilent
Retention time: 6.061 min
Precursor m/z: 209.1073
Precursor type: [M+H]+
m/z	relative intensity
64.0383	333
77.0433	417
89.0422	660
90.0484	248
91.0572	801
92.0524	999
104.0513	112
115.0563	152
116.0521	146
139.0553	666
140.0505	417
152.061	163
164.0493	180
165.0582	174
166.065	761
167.0708	321
168.0689	107
178.0662	112
179.0715	214
180.0815	197
191.0649	158
192.0677	931
193.0753	586
205.0752	897
206.0845	914
207.0924	316
