Mass spectrum: Atenolol; LC-ESI-QTOF; MS2; 150 V
Name: Atenolol
Class: Pharmaceutical
Formula: C14H22N2O3
Exact mass: 266.163
SMILES: CC(C)NCC(O)COc1ccc(CC(N)=O)cc1
InChI: InChI=1S/C14H22N2O3/c1-10(2)16-8-12(17)9-19-13-5-3-11(4-6-13)7-14(15)18/h3-6,10,12,16-17H,7-9H2,1-2H3,(H2,15,18)
Instrument: TripleTOF 5600 SCIEX
Instrument type: LC-ESI-QTOF
Ms type: MS2
Ion mode: POSITIVE
Collision energy: 150
Fragmentation mode: CID
Ionization: ESI
Column name: Zorbax Eclipse Plus C18 2.1 mm x 150 mm, 3.5 um, Agilent
Retention time: 4.619 min
Precursor m/z: 267.1703
Precursor type: [M+H]+
m/z	relative intensity
77.0404	999
