Mass spectrum: N,N-bis(ethoxycarbonyl)-4-methyl-1,3-phenylenediamine; LC-ESI-QTOF; MS2; 80 V
Name: N,N-bis(ethoxycarbonyl)-4-methyl-1,3-phenylenediamine
Class: Pharmaceutical
Formula: C13H18N2O4
Exact mass: 266.1267
SMILES: CCOC(=O)NC1=CC(=C(C=C1)C)NC(=O)OCC
InChI: InChI=1S/C13H18N2O4/c1-4-18-12(16)14-10-7-6-9(3)11(8-10)15-13(17)19-5-2/h6-8H,4-5H2,1-3H3,(H,14,16)(H,15,17)
Instrument: TripleTOF 5600 SCIEX
Instrument type: LC-ESI-QTOF
Ms type: MS2
Ion mode: POSITIVE
Collision energy: 80
Fragmentation mode: CID
Ionization: ESI
Column name: Zorbax Eclipse Plus C18 2.1 mm x 150 mm, 3.5 um, Agilent
Retention time: 10.056 min
Precursor m/z: 267.1339
Precursor type: [M+H]+
m/z	relative intensity
65.0459	78
66.053	11
67.0544	47
77.0444	999
78.0387	103
79.0587	144
80.0543	42
89.0425	37
91.052	31
92.0532	85
93.061	46
94.0684	117
102.0366	23
104.0515	93
105.0468	80
106.0631	137
108.0699	14
117.0587	10
118.066	10
119.0622	16
120.0471	15
121.0772	38
132.0454	22
134.0485	32
147.0565	33
