Mass spectrum: Diphenyl(2,4,6-trimethylbenzoyl)phosphine oxide; LC-ESI-QTOF; MS2; 50 V
Name: Diphenyl(2,4,6-trimethylbenzoyl)phosphine oxide
Class: Industrial_process
Formula: C22H21O2P
Exact mass: 348.1279
SMILES: Cc1cc(C)c(c(C)c1)C(=O)[P](=O)(c2ccccc2)c3ccccc3
InChI: InChI=1S/C22H21O2P/c1-16-14-17(2)21(18(3)15-16)22(23)25(24,19-10-6-4-7-11-19)20-12-8-5-9-13-20/h4-15H,1-3H3
Instrument: TripleTOF 5600 SCIEX
Instrument type: LC-ESI-QTOF
Ms type: MS2
Ion mode: POSITIVE
Collision energy: 50
Fragmentation mode: CID
Ionization: ESI
Column name: Zorbax Eclipse Plus C18 2.1 mm x 150 mm, 3.5 um, Agilent
Retention time: 14.088 min
Precursor m/z: 349.1352
Precursor type: [M+H]+
m/z	relative intensity
77.041	10
91.0564	110
103.0548	17
104.0627	14
117.07	37
119.0866	656
147.0811	999
