Mass spectrum: 2,3,4-Trihydroxybenzophenone; LC-ESI-QTOF; MS2; 30 V
Name: 2,3,4-Trihydroxybenzophenone
Class: Industrial_process
Formula: C13H10O4
Exact mass: 230.0579
SMILES: Oc1ccc(c(O)c1O)C(=O)c2ccccc2
InChI: InChI=1S/C13H10O4/c14-10-7-6-9(12(16)13(10)17)11(15)8-4-2-1-3-5-8/h1-7,14,16-17H
Instrument: TripleTOF 5600 SCIEX
Instrument type: LC-ESI-QTOF
Ms type: MS2
Ion mode: NEGATIVE
Collision energy: 30
Fragmentation mode: CID
Ionization: ESI
Column name: Zorbax Eclipse Plus C18 2.1 mm x 150 mm, 3.5 um, Agilent
Retention time: 9.396 min
Precursor m/z: 229.0506
Precursor type: [M-H]-
m/z	relative intensity
107.0125	157
123.009	190
124.015	169
129.0696	72
141.0696	125
151.0021	351
155.0497	52
157.065	60
185.0583	101
229.0498	999
230.0531	121
