Mass spectrum: Diethylamino hydroxybenzoyl hexyl benzoate; LC-ESI-QTOF; MS2; 50 V
Name: Diethylamino hydroxybenzoyl hexyl benzoate
Formula: C24H31NO4
Exact mass: 397.2253
SMILES: CCCCCCOC(=O)C1=CC=CC=C1C(=O)C2=C(C=C(C=C2)N(CC)CC)O
InChI: InChI=1S/C24H31NO4/c1-4-7-8-11-16-29-24(28)20-13-10-9-12-19(20)23(27)21-15-14-18(17-22(21)26)25(5-2)6-3/h9-10,12-15,17,26H,4-8,11,16H2,1-3H3
Instrument: TripleTOF 6600 SCIEX
Instrument type: LC-ESI-QTOF
Ms type: MS2
Ion mode: POSITIVE
Collision energy: 50
Fragmentation mode: CID
Ionization: ESI
Column name: Zorbax Eclipse Plus C18 2.1 mm x 150 mm, 3.5 um, Agilent
Retention time: 17.769 min
Precursor m/z: 398.2326
Precursor type: [M+H]+
m/z	relative intensity
43.0544	17
65.038	12
93.0332	18
121.0285	68
122.0592	13
138.0908	27
149.0232	999
164.0701	69
181.0637	11
195.0714	10
196.0521	33
197.0592	28
198.0642	26
208.0755	37
211.0623	21
212.0692	18
222.0904	20
223.0408	18
224.0705	173
225.0557	26
226.086	16
232.0753	16
233.0832	12
235.0622	16
238.0509	16
238.0844	14
239.0927	86
240.1004	700
249.0768	10
250.0856	95
252.0652	244
266.0812	538
267.0879	42
268.0967	100
269.1039	11
296.1275	18
354.1689	12
