Mass spectrum: Sulfadimethoxine; LC-ESI-QTOF; MS2; 40 V
Name: Sulfadimethoxine
Class: Pharmaceutical
Formula: C12H14N4O4S
Exact mass: 310.0736
SMILES: COC1=NC(=NC(=C1)NS(=O)(=O)C2=CC=C(C=C2)N)OC
InChI: InChI=1S/C12H14N4O4S/c1-19-11-7-10(14-12(15-11)20-2)16-21(17,18)9-5-3-8(13)4-6-9/h3-7H,13H2,1-2H3,(H,14,15,16)
Instrument: TripleTOF 5600 SCIEX
Instrument type: LC-ESI-QTOF
Ms type: MS2
Ion mode: NEGATIVE
Collision energy: 40
Fragmentation mode: CID
Ionization: ESI
Column name: Zorbax Eclipse Plus C18 2.1 mm x 150 mm, 3.5 um, Agilent
Retention time: 8.09 min
Precursor m/z: 309.0663
Precursor type: [M-H]-
m/z	relative intensity
65.0141	66
66.0096	258
122.0367	111
131.0618	63
139.0398	61
144.0568	52
154.0625	85
171.0257	54
195.0243	85
199.0638	56
215.059	56
229.0734	94
230.0813	111
309.0672	999
