Mass spectrum: Esculetin; LC-ESI-QTOF; MS2; 40 V
Name: Esculetin
Class: Pharmaceutical
Formula: C9H6O4
Exact mass: 178.0266
SMILES: Oc1cc2OC(=O)C=Cc2cc1O
InChI: InChI=1S/C9H6O4/c10-6-3-5-1-2-9(12)13-8(5)4-7(6)11/h1-4,10-11H
Instrument: TripleTOF 5600 SCIEX
Instrument type: LC-ESI-QTOF
Ms type: MS2
Ion mode: NEGATIVE
Collision energy: 40
Fragmentation mode: CID
Ionization: ESI
Column name: Zorbax Eclipse Plus C18 2.1 mm x 150 mm, 3.5 um, Agilent
Retention time: 5.732 min
Precursor m/z: 177.0193
Precursor type: [M-H]-
m/z	relative intensity
41.003	96
67.0181	49
77.0396	335
79.0186	159
81.0344	159
89.0399	766
93.0345	238
105.0354	720
107.0148	109
121.0304	169
133.0308	919
149.0264	278
177.0214	999
