Mass spectrum: 1,2,3-trimethoxybenzene; LC-ESI-QTOF; MS2; 40 V
Name: 1,2,3-trimethoxybenzene
Class: Food_additive
Formula: C9H12O3
Exact mass: 168.0786
InChI: InChI=1S/C9H12O3/c1-10-7-5-4-6-8(11-2)9(7)12-3/h4-6H,1-3H3
Instrument: TripleTOF 5600 SCIEX
Instrument type: LC-ESI-QTOF
Ms type: CID
Ion mode: POSITIVE
Collision energy: 40
Ionization: ESI
Column name: Zorbax Eclipse Plus C18 2.1 mm x 150 mm, 3.5 um, Agilent
Retention time: 9.034 min
Precursor m/z: 169.0859
Precursor type: [M+H]+
m/z	relative intensity
55.0271	80
65.0445	594
67.0613	108
68.0305	499
77.0431	418
78.05	202
79.0231	80
81.0391	134
83.0536	351
93.0356	283
94.0419	216
95.0508	837
96.0219	229
107.0124	121
108.0605	67
109.0271	148
109.0657	188
111.0443	755
123.0445	999
125.0593	175
138.0681	134
139.0387	337
154.0582	67
