Mass spectrum: Mesosulfuron-methyl; LC-ESI-QTOF; MS2; 100 V
Name: Mesosulfuron-methyl
Class: Herbicide
Formula: C17H21N5O9S2
Exact mass: 503.0781
SMILES: COC(=O)c1ccc(CN[S](C)(=O)=O)cc1[S](=O)(=O)NC(=O)Nc2nc(OC)cc(OC)n2
InChI: InChI=1S/C17H21N5O9S2/c1-29-13-8-14(30-2)20-16(19-13)21-17(24)22-33(27,28)12-7-10(9-18-32(4,25)26)5-6-11(12)15(23)31-3/h5-8,18H,9H2,1-4H3,(H2,19,20,21,22,24)
Instrument: TripleTOF 5600 SCIEX
Instrument type: LC-ESI-QTOF
Ms type: MS2
Ion mode: POSITIVE
Collision energy: 100
Fragmentation mode: CID
Ionization: ESI
Column name: Zorbax Eclipse Plus C18 2.1 mm x 150 mm, 3.5 um, Agilent
Retention time: 10.025 min
Precursor m/z: 504.0853
Precursor type: [M+H]+
m/z	relative intensity
56.0161	22
57.0487	42
68.0158	16
68.9997	38
69.0105	16
71.0634	61
77.0413	155
79.0576	35
81.0462	19
82.0317	81
83.0263	999
83.0629	19
90.0337	19
92.0271	61
92.0519	16
93.0094	191
100.0391	48
104.0486	120
109.0377	32
117.0465	16
118.028	71
119.0368	29
124.0513	19
134.0609	19
135.0426	42
139.0499	525
140.0452	19
156.0785	19
162.0553	61
166.0287	16
182.0559	90
