Mass spectrum: Leucomalachite green; LC-ESI-QTOF; MS2; 100 V
Name: Leucomalachite green
Class: Metabolite
Formula: C23H26N2
Exact mass: 330.2096
SMILES: CN(C)C1=CC=C(C=C1)C(C2=CC=CC=C2)C3=CC=C(C=C3)N(C)C
InChI: InChI=1S/C23H26N2/c1-24(2)21-14-10-19(11-15-21)23(18-8-6-5-7-9-18)20-12-16-22(17-13-20)25(3)4/h5-17,23H,1-4H3
Instrument: TripleTOF 6600 SCIEX
Instrument type: LC-ESI-QTOF
Ms type: MS2
Ion mode: POSITIVE
Collision energy: 100
Fragmentation mode: CID
Ionization: ESI
Column name: Zorbax Eclipse Plus C18 2.1 mm x 150 mm, 3.5 um, Agilent
Retention time: 9.974 min
Precursor m/z: 331.2169
Precursor type: [M+H]+
m/z	relative intensity
63.0216	10
65.0373	14
77.0372	33
89.0372	22
91.0525	20
115.0533	84
117.0564	18
118.064	16
120.0795	18
126.0439	20
127.0534	37
128.06	41
130.0655	12
139.053	68
140.0516	33
141.0685	45
144.0792	18
150.0449	10
151.0523	101
152.0611	775
153.0686	777
154.0757	45
155.0608	10
155.0829	26
163.0532	87
164.0605	188
165.0686	999
166.0757	184
167.0711	105
168.0817	33
170.0955	12
177.067	22
178.0639	68
179.0722	147
180.0798	530
181.0882	180
182.0947	60
189.0702	31
190.0666	24
191.0721	22
192.0801	62
193.0874	78
194.0952	704
195.1026	145
196.1116	120
197.1192	14
201.0682	10
202.0763	49
205.0754	16
206.0833	24
207.0896	136
208.098	113
209.1065	24
213.0666	18
215.0845	74
221.1064	39
223.1218	265
224.131	14
226.0763	66
227.0842	33
228.0921	84
229.0993	31
230.0949	10
237.0706	14
238.0743	10
239.0851	87
239.1533	12
240.0824	45
241.0958	66
242.0918	12
253.0926	16
254.0951	60
255.1015	24
256.1138	24
257.1144	12
268.1077	16
269.1117	12
270.126	35
283.1233	16
