Mass spectrum: Repaglinide; LC-ESI-QTOF; MS2; 110 V
Name: Repaglinide
Class: Pharmaceutical
Formula: C27H36N2O4
Exact mass: 452.2675
SMILES: CCOc1cc(CC(=O)N[C@@H](CC(C)C)c2ccccc2N3CCCCC3)ccc1C(O)=O
InChI: InChI=1S/C27H36N2O4/c1-4-33-25-17-20(12-13-22(25)27(31)32)18-26(30)28-23(16-19(2)3)21-10-6-7-11-24(21)29-14-8-5-9-15-29/h6-7,10-13,17,19,23H,4-5,8-9,14-16,18H2,1-3H3,(H,28,30)(H,31,32)/t23-/m0/s1
Instrument: TripleTOF 5600 SCIEX
Instrument type: LC-ESI-QTOF
Ms type: MS2
Ion mode: POSITIVE
Collision energy: 110
Fragmentation mode: CID
Ionization: ESI
Column name: Zorbax Eclipse Plus C18 2.1 mm x 150 mm, 3.5 um, Agilent
Retention time: 10.348 min
Precursor m/z: 453.2748
Precursor type: [M+H]+
m/z	relative intensity
44.0581	19
65.0429	57
77.0415	114
79.0563	31
86.0979	25
89.0403	31
90.0478	58
91.0564	416
93.0579	14
103.0542	69
104.0498	21
105.0338	42
105.0695	24
106.0653	116
115.0543	69
116.0564	20
117.0581	464
118.0654	307
120.0807	29
127.0532	22
128.0515	47
129.0691	19
130.0654	999
131.073	212
132.0806	94
142.0644	16
143.0728	121
144.0809	570
145.088	31
146.0963	67
156.0807	25
157.0883	27
158.0963	235
159.1041	17
170.0974	25
171.1048	12
172.1124	291
174.1274	20
186.1277	43
