Mass spectrum: Iopromide; LC-ESI-QTOF; MS2; 90 V
Name: Iopromide
Class: Pharmaceutical
Formula: C18H24I3N3O8
Exact mass: 790.8698
SMILES: COCC(=O)Nc1c(I)c(C(=O)NCC(O)CO)c(I)c(c1I)C(=O)N(C)CC(O)CO
InChI: InChI=1S/C18H24I3N3O8/c1-24(4-9(28)6-26)18(31)12-13(19)11(17(30)22-3-8(27)5-25)14(20)16(15(12)21)23-10(29)7-32-2/h8-9,25-28H,3-7H2,1-2H3,(H,22,30)(H,23,29)
Instrument: TripleTOF 5600 SCIEX
Instrument type: LC-ESI-QTOF
Ms type: MS2
Ion mode: POSITIVE
Collision energy: 90
Fragmentation mode: CID
Ionization: ESI
Column name: Zorbax Eclipse Plus C18 2.1 mm x 150 mm, 3.5 um, Agilent
Retention time: 4.895 min
Precursor m/z: 791.877
Precursor type: [M+H]+
m/z	relative intensity
45.0432	10
101.997	12
117.0198	38
141.9907	22
144.0068	10
145.0147	33
158.0204	12
158.0446	12
159.0289	22
172.0002	50
172.0265	22
173.0103	38
173.0353	12
188.0315	22
188.0485	10
200.0588	22
203.0185	17
203.9271	12
204.0278	10
227.928	30
228.0482	10
228.9308	10
231.074	10
240.8982	12
242.9152	15
243.9231	25
255.9227	84
259.0712	22
270.9114	15
271.918	112
283.9192	68
284.9434	10
285.9335	17
286.9404	17
287.9498	40
296.8914	17
296.9524	10
297.9322	15
298.906	71
298.9298	53
298.9747	10
299.9142	999
299.9901	12
301.9388	10
311.9264	12
312.9457	35
313.9304	117
314.9316	17
315.9022	12
315.9512	22
325.9266	10
326.9007	48
327.8072	20
330.9363	10
339.81	15
341.8264	25
354.8306	12
354.944	15
355.8061	35
357.9177	30
367.8076	15
369.8184	12
379.8061	12
381.8213	22
382.8306	56
385.8204	15
398.8207	15
400.9958	17
409.8169	33
410.819	12
413.8104	17
413.8535	12
423.7931	216
425.807	20
425.8283	50
426.8336	12
558.8826	20
