Mass spectrum: Pindolol; LC-ESI-QTOF; MS2; 50 V
Name: Pindolol
Class: Pharmaceutical
Formula: C14H20N2O2
Exact mass: 248.1525
SMILES: CC(C)NCC(COC1=CC=CC2=C1C=CN2)O
InChI: InChI=1S/C14H20N2O2/c1-10(2)16-8-11(17)9-18-14-5-3-4-13-12(14)6-7-15-13/h3-7,10-11,15-17H,8-9H2,1-2H3
Instrument: TripleTOF 5600 SCIEX
Instrument type: LC-ESI-QTOF
Ms type: MS2
Ion mode: POSITIVE
Collision energy: 50
Fragmentation mode: CID
Ionization: ESI
Column name: Zorbax Eclipse Plus C18 2.1 mm x 150 mm, 3.5 um, Agilent
Retention time: 5.148 min
Precursor m/z: 249.1598
Precursor type: [M+H]+
m/z	relative intensity
44.0635	34
56.0591	864
57.0437	14
58.0741	333
72.0874	367
74.0663	651
77.0443	134
78.0416	37
79.0597	149
80.055	22
84.0864	34
89.0432	180
90.0497	34
91.0586	551
92.0536	17
98.0996	66
100.1153	169
103.0581	45
104.0527	281
105.035	11
105.0612	51
105.0745	14
106.0681	387
106.0995	17
107.0525	249
115.0569	396
116.0524	953
116.1093	275
117.0658	999
118.068	775
127.0561	298
128.0571	77
129.0605	63
130.0675	172
132.0452	106
132.0828	71
133.0531	183
134.0618	815
142.0675	71
143.0744	470
144.057	40
144.0823	763
145.0657	28
146.0613	244
154.0661	83
155.0559	37
155.0719	14
157.0546	57
160.0764	22
170.0615	48
171.069	25
172.0749	54
