Mass spectrum: Sulfadimethoxine; LC-ESI-QTOF; MS2; 40 V
Name: Sulfadimethoxine
Class: Pharmaceutical
Formula: C12H14N4O4S
Exact mass: 310.0736
SMILES: COC1=NC(=NC(=C1)NS(=O)(=O)C2=CC=C(C=C2)N)OC
InChI: InChI=1S/C12H14N4O4S/c1-19-11-7-10(14-12(15-11)20-2)16-21(17,18)9-5-3-8(13)4-6-9/h3-7H,13H2,1-2H3,(H,14,15,16)
Instrument: TripleTOF 5600 SCIEX
Instrument type: LC-ESI-QTOF
Ms type: MS2
Ion mode: NEGATIVE
Collision energy: 40
Fragmentation mode: CID
Ionization: ESI
Column name: Zorbax Eclipse Plus C18 2.1 mm x 150 mm, 3.5 um, Agilent
Retention time: 8.09 min
Precursor m/z: 309.0663
Precursor type: [M-H]-
m/z	relative intensity
64.0058	51
65.0141	211
65.999	70
66.0093	986
92.025	108
107.013	57
107.0371	83
122.0362	377
130.0541	166
131.0419	185
131.0615	262
132.0586	64
139.0394	192
140.0173	76
144.0572	243
154.0625	493
171.0225	243
171.0449	89
172.0532	70
174.0682	268
188.0472	185
195.0242	236
199.0619	179
215.0555	281
220.0168	83
229.0732	416
230.0795	243
309.064	999
