Mass spectrum: Chloromethyltriphenylphosphonium; LC-ESI-QTOF; MS2; 130 V
Name: Chloromethyltriphenylphosphonium
Class: Industrial_process
Formula: [C19H17ClP]+
Exact mass: 311.0751
SMILES: C1=CC=C(C=C1)[P+](CCl)(C2=CC=CC=C2)C3=CC=CC=C3
InChI: InChI=1S/C19H17ClP/c20-16-21(17-10-4-1-5-11-17,18-12-6-2-7-13-18)19-14-8-3-9-15-19/h1-15H,16H2/q+1
Instrument: TripleTOF 5600 SCIEX
Instrument type: LC-ESI-QTOF
Ms type: MS2
Ion mode: POSITIVE
Collision energy: 130
Fragmentation mode: CID
Ionization: ESI
Column name: Zorbax Eclipse Plus C18 2.1 mm x 150 mm, 3.5 um, Agilent
Retention time: 7.338 min
Precursor m/z: 311.0751
Precursor type: [M]+
m/z	relative intensity
51.0227	51
56.9885	66
63.0224	129
65.0382	92
76.0292	57
77.0374	64
79.9797	143
80.9875	303
87.021	63
89.0364	304
102.0445	125
107.003	999
113.0369	113
115.0528	382
126.0449	321
131.0027	107
133.0189	73
139.0536	281
150.0458	272
151.0538	599
152.0613	776
155.0046	76
156.012	92
157.0196	449
179.0034	50
180.0121	93
181.0199	452
183.034	66
