Mass spectrum: Chloridazon; LC-ESI-QTOF; MS2; 120 V
Name: Chloridazon
Class: Herbicide
Formula: C10H8ClN3O
Exact mass: 221.0356
SMILES: C1=CC=C(C=C1)N2C(=O)C(=C(C=N2)N)Cl
InChI: InChI=1S/C10H8ClN3O/c11-9-8(12)6-13-14(10(9)15)7-4-2-1-3-5-7/h1-6H,12H2
Instrument: TripleTOF 6600 SCIEX
Instrument type: LC-ESI-QTOF
Ms type: MS2
Ion mode: POSITIVE
Collision energy: 120
Fragmentation mode: CID
Ionization: ESI
Column name: Zorbax Eclipse Plus C18 2.1 mm x 150 mm, 3.5 um, Agilent
Retention time: 6.924 min
Precursor m/z: 222.0429
Precursor type: [M+H]+
m/z	relative intensity
35.9997	14
37.0077	87
38.0024	14
38.0154	58
39.0106	25
39.0229	134
40.019	21
41.0265	21
46.9687	36
49.0074	218
50.0152	999
51.01	18
51.0232	670
52.0182	131
53.0261	25
61.0073	40
62.0149	47
63.0227	25
65.0386	32
66.0211	65
73.0073	18
74.0148	58
74.9884	25
75.0227	25
77.0394	29
