Mass spectrum: Mitomycin A; LC-ESI-QTOF; MS2; 50 V
Name: Mitomycin A
Class: Pharmaceutical
Formula: C16H19N3O6
Exact mass: 349.1274
SMILES: COC1=C(C)C(=O)C2=C([C@H](COC(N)=O)[C@]3(OC)[C@@H]4N[C@@H]4CN23)C1=O
InChI: InChI=1S/C16H19N3O6/c1-6-11(20)10-9(12(21)13(6)23-2)7(5-25-15(17)22)16(24-3)14-8(18-14)4-19(10)16/h7-8,14,18H,4-5H2,1-3H3,(H2,17,22)/t7-,8+,14+,16-/m0/s1
Instrument: TripleTOF 5600 SCIEX
Instrument type: LC-ESI-QTOF
Ms type: MS2
Ion mode: POSITIVE
Collision energy: 50
Fragmentation mode: CID
Ionization: ESI
Column name: Zorbax Eclipse Plus C18 2.1 mm x 150 mm, 3.5 um, Agilent
Retention time: 7.046 min
Precursor m/z: 350.1347
Precursor type: [M+H]+
m/z	relative intensity
77.0434	10
91.0554	13
104.0514	20
115.053	13
116.0519	12
117.0575	10
117.0693	15
118.0645	26
119.0747	17
128.0626	10
129.0683	24
130.0662	46
131.0657	76
132.0449	20
132.0695	40
133.0771	15
141.0575	10
142.0657	26
143.0719	34
144.0435	12
144.0805	45
145.0757	26
146.0592	31
147.0691	15
154.0653	23
155.0599	26
155.0725	15
156.0673	149
157.0521	12
157.0755	259
158.0595	20
158.0834	55
159.054	122
160.0753	18
167.0712	15
168.0709	35
169.0763	87
170.0591	12
170.0831	65
171.0537	13
171.0676	13
171.092	69
172.0726	38
173.0752	26
174.0553	24
175.0617	37
181.0765	21
182.0835	45
183.0914	48
184.0644	96
185.0706	99
186.0549	27
186.0791	43
187.062	37
188.0691	32
189.0393	10
189.0781	62
190.0456	10
190.0848	15
196.0622	18
197.0712	29
198.0772	79
199.0864	786
200.071	45
200.0926	51
201.0738	26
201.1025	21
202.0498	17
202.0875	23
203.0573	21
203.0801	12
204.0651	23
211.0582	9
211.0859	62
212.0627	31
212.094	35
213.0659	180
214.0733	511
215.0553	15
215.0801	55
216.0644	17
216.0875	68
217.0726	12
218.0796	15
225.0661	12
226.0718	21
227.0561	18
227.081	999
228.064	13
228.0883	374
229.0641	23
229.0969	155
230.0442	24
230.077	18
231.0769	12
232.0596	13
241.061	24
242.0665	80
243.0771	45
244.0842	31
255.0764	172
255.1064	13
257.0913	12
259.0711	31
