Mass spectrum: 2-Phenylbenzimidazole; LC-ESI-QTOF; MS2; 100 V
Name: 2-Phenylbenzimidazole
Class: Industrial_process
Formula: C13H10N2
Exact mass: 194.0844
SMILES: [nH]1c2ccccc2nc1c3ccccc3
InChI: InChI=1S/C13H10N2/c1-2-6-10(7-3-1)13-14-11-8-4-5-9-12(11)15-13/h1-9H,(H,14,15)
Instrument: TripleTOF 5600 SCIEX
Instrument type: LC-ESI-QTOF
Ms type: MS2
Ion mode: NEGATIVE
Collision energy: 100
Fragmentation mode: CID
Ionization: ESI
Column name: Zorbax Eclipse Plus C18 2.1 mm x 150 mm, 3.5 um, Agilent
Retention time: 5.903 min
Precursor m/z: 193.0771
Precursor type: [M-H]-
m/z	relative intensity
40.0097	111
40.0216	111
40.0331	111
41.0193	333
50.0063	999
63.013	222
65.0159	111
72.0045	222
73.0106	111
74.0069	111
88.0174	333
89.0257	111
90.0338	111
115.0371	111
141.0473	333
