Mass spectrum: Dodecyl dihydrogen phosphate; LC-ESI-QTOF; MS2; 20 V
Name: Dodecyl dihydrogen phosphate
Formula: C12H27O4P
Exact mass: 266.1647
InChI: InChI=1S/C12H27O4P/c1-2-3-4-5-6-7-8-9-10-11-12-16-17(13,14)15/h2-12H2,1H3,(H2,13,14,15)
Instrument: TripleTOF 6600 SCIEX
Instrument type: LC-ESI-QTOF
Ms type: CID
Ion mode: NEGATIVE
Collision energy: 20
Ionization: ESI
Column name: Zorbax Eclipse Plus C18 2.1 mm x 150 mm, 3.5 um, Agilent
Retention time: 13.899 min
Precursor m/z: 265.1574
Precursor type: [M-H]-
m/z	relative intensity
78.9597	999
96.9695	23
265.1585	955
