Mass spectrum: Tiamulin; LC-ESI-QTOF; MS2; 50 V
Name: Tiamulin
Class: Antimicrobial; Pharmaceutical
Formula: C28H47NO4S
Exact mass: 493.3226
SMILES: CCN(CC)CCSCC(=O)OC1CC(C(C(C23CCC(C1(C2C(=O)CC3)C)C)C)O)(C)C=C
InChI: InChI=1S/C28H47NO4S/c1-8-26(6)17-22(33-23(31)18-34-16-15-29(9-2)10-3)27(7)19(4)11-13-28(20(5)25(26)32)14-12-21(30)24(27)28/h8,19-20,22,24-25,32H,1,9-18H2,2-7H3
Instrument: TripleTOF 6600 SCIEX
Instrument type: LC-ESI-QTOF
Ms type: MS2
Ion mode: POSITIVE
Collision energy: 50
Fragmentation mode: CID
Ionization: ESI
Column name: Zorbax Eclipse Plus C18 2.1 mm x 150 mm, 3.5 um, Agilent
Retention time: 8.661 min
Precursor m/z: 494.3299
Precursor type: [M+H]+
m/z	relative intensity
43.0174	14
55.0528	11
67.0531	14
69.0689	14
73.0098	107
74.0957	116
77.0375	10
79.0533	25
81.069	87
91.0526	20
93.0687	43
95.0844	59
97.0637	10
99.0431	13
100.1107	36
101.0039	33
105.0684	51
107.0843	63
109.0637	21
109.0999	43
111.0791	11
117.0684	12
119.0152	999
121.0643	12
121.0999	71
123.079	17
123.1157	13
125.0946	11
131.0836	35
133.1001	91
135.0791	21
135.1153	31
137.094	12
143.0834	23
145.0996	63
147.0796	13
147.1151	65
149.0957	69
149.1297	22
155.0834	13
157.0995	39
159.1154	67
161.0956	23
161.1303	44
163.1105	188
169.0996	23
171.1153	40
173.0947	10
173.1305	57
175.111	47
175.1451	39
177.1266	57
183.115	25
185.1305	40
187.1096	11
187.1465	38
189.126	22
189.1618	11
192.1042	935
197.1311	28
199.1473	23
201.1615	25
203.1413	25
211.1463	32
215.1414	15
215.1776	12
227.1789	25
229.1603	12
229.1943	22
245.1891	14
267.21	21
285.2215	16
