Mass spectrum: Topramezone; LC-ESI-QTOF; MS2; 40 V
Name: Topramezone
Class: Herbicide
Formula: C16H17N3O5S
Exact mass: 363.0889
SMILES: CC1=C(C=CC(=C1C2=NOCC2)S(=O)(=O)C)C(=O)C3=CNN(C3=O)C
InChI: InChI=1S/C16H17N3O5S/c1-9-10(15(20)11-8-17-19(2)16(11)21)4-5-13(25(3,22)23)14(9)12-6-7-24-18-12/h4-5,8,17H,6-7H2,1-3H3
Instrument: TripleTOF 6600 SCIEX
Instrument type: LC-ESI-QTOF
Ms type: MS2
Ion mode: NEGATIVE
Collision energy: 40
Fragmentation mode: CID
Ionization: ESI
Column name: Zorbax Eclipse Plus C18 2.1 mm x 150 mm, 3.5 um, Agilent
Retention time: 6.915 min
Precursor m/z: 362.0816
Precursor type: [M-H]-
m/z	relative intensity
41.9971	10
63.9617	27
78.9829	54
82.0162	12
97.0385	83
115.0412	89
116.0495	22
116.06	21
129.0579	19
130.0643	174
131.0357	72
158.0618	14
163.021	17
179.0123	130
180.0224	89
194.0258	306
194.9971	15
195.0523	11
210.0218	56
214.0744	12
226.0646	16
238.0574	61
239.0677	344
240.0762	53
253.0818	38
254.0583	101
254.0849	20
255.0628	142
282.0856	29
289.0279	14
317.0361	11
317.0602	12
318.052	481
332.0711	26
334.0492	999
362.0768	357
