Mass spectrum: Benzoic acid; LC-ESI-QTOF; MS2; 40 V
Name: Benzoic acid
Class: Antimicrobial; Food_additive; Fungicide; Herbicide; Industrial_process; Personal_care_product
Formula: C7H6O2
Exact mass: 122.0368
SMILES: OC(=O)c1ccccc1
InChI: InChI=1S/C7H6O2/c8-7(9)6-4-2-1-3-5-6/h1-5H,(H,8,9)
Instrument: TripleTOF 5600 SCIEX
Instrument type: LC-ESI-QTOF
Ms type: MS2
Ion mode: NEGATIVE
Collision energy: 40
Fragmentation mode: CID
Ionization: ESI
Column name: Zorbax Eclipse Plus C18 2.1 mm x 150 mm, 3.5 um, Agilent
Retention time: 7.56 min
Precursor m/z: 121.0304
Precursor type: [M-H]-
m/z	relative intensity
77.0377	999
77.0503	181
93.033	199
121.0232	227
