Mass spectrum: Nitrazepam; LC-ESI-QTOF; MS2; 90 V
Name: Nitrazepam
Class: Pharmaceutical
Formula: C15H11N3O3
Exact mass: 281.08
SMILES: C1C(=O)NC2=C(C=C(C=C2)[N+](=O)[O-])C(=N1)C3=CC=CC=C3
InChI: InChI=1S/C15H11N3O3/c19-14-9-16-15(10-4-2-1-3-5-10)12-8-11(18(20)21)6-7-13(12)17-14/h1-8H,9H2,(H,17,19)
Instrument: TripleTOF 6600 SCIEX
Instrument type: LC-ESI-QTOF
Ms type: MS2
Ion mode: NEGATIVE
Collision energy: 90
Fragmentation mode: CID
Ionization: ESI
Column name: Zorbax Eclipse Plus C18 2.1 mm x 150 mm, 3.5 um, Agilent
Retention time: 9.435 min
Precursor m/z: 280.0727
Precursor type: [M-H]-
m/z	relative intensity
40.0199	49
41.0031	42
41.9984	471
45.9933	999
50.0035	49
65.9978	35
90.0336	126
101.0395	372
113.0396	196
115.0552	260
125.0395	91
141.0335	140
164.048	70
166.0644	239
