Mass spectrum: Propiconazole; LC-ESI-QTOF; MS2; 140 V
Name: Propiconazole
Class: Fungicide; Biocide
Formula: C15H17Cl2N3O2
Exact mass: 341.0698
SMILES: CCCC1COC(Cn2cncn2)(O1)c3ccc(Cl)cc3Cl
InChI: InChI=1S/C15H17Cl2N3O2/c1-2-3-12-7-21-15(22-12,8-20-10-18-9-19-20)13-5-4-11(16)6-14(13)17/h4-6,9-10,12H,2-3,7-8H2,1H3
Instrument: TripleTOF 5600 SCIEX
Instrument type: LC-ESI-QTOF
Ms type: MS2
Ion mode: POSITIVE
Collision energy: 140
Fragmentation mode: CID
Ionization: ESI
Column name: Zorbax Eclipse Plus C18 2.1 mm x 150 mm, 3.5 um, Agilent
Retention time: 13.45 min
Precursor m/z: 342.0771
Precursor type: [M+H]+
m/z	relative intensity
60.0039	21
63.0715	12
69.0738	10
70.0429	33
72.9882	682
74.019	661
75.0261	98
82.0426	10
82.9471	67
83.9783	18
84.9867	25
86.0161	22
87.0244	46
88.0326	87
89.0412	999
89.0776	15
96.9849	161
98.9998	111
106.946	17
108.9839	192
109.9926	13
122.9994	129
124.008	18
132.96	42
144.9615	9
158.9743	14
