Mass spectrum: Fluoxastrobin; LC-ESI-QTOF; MS2; 120 V
Name: Fluoxastrobin
Class: Fungicide
Formula: C21H16ClFN4O5
Exact mass: 458.0793
SMILES: CON=C(C1=CC=CC=C1OC2=C(C(=NC=N2)OC3=CC=CC=C3Cl)F)C4=NOCCO4
InChI: InChI=1S/C21H16ClFN4O5/c1-28-26-18(21-27-30-11-10-29-21)13-6-2-4-8-15(13)31-19-17(23)20(25-12-24-19)32-16-9-5-3-7-14(16)22/h2-9,12H,10-11H2,1H3
Instrument: TripleTOF 6600 SCIEX
Instrument type: LC-ESI-QTOF
Ms type: MS2
Ion mode: POSITIVE
Collision energy: 120
Fragmentation mode: CID
Ionization: ESI
Column name: Zorbax Eclipse Plus C18 2.1 mm x 150 mm, 3.5 um, Agilent
Retention time: 13.269 min
Precursor m/z: 459.0866
Precursor type: [M+H]+
m/z	relative intensity
37.0063	12
38.0148	14
39.0226	44
43.0171	36
50.015	101
51.0228	215
52.018	15
57.013	17
59.9976	9
61.0065	30
62.0145	55
63.0225	204
64.0185	30
64.0299	61
65.0377	58
69.009	9
69.9923	22
70.0084	14
72.9829	23
73.005	45
74.0143	407
75.0222	999
76.0189	118
76.0295	180
77.0385	169
78.0327	34
81.0127	38
82.0085	15
84.9825	65
86.0133	12
87.0089	30
87.0212	12
88.0162	20
88.0289	19
89.0245	17
89.0383	20
90.0325	99
90.9738	11
91.0404	57
92.0239	53
92.0501	11
93.0325	12
94.021	42
95.028	114
98.0142	12
99.0056	36
99.0209	17
100.0168	79
101.0251	19
102.0328	329
103.0398	20
104.0447	22
105.0112	33
105.0306	14
106.021	65
107.0281	104
108.0242	12
109.0322	12
110.9987	209
113.0248	25
114.0326	69
115.04	19
116.0347	20
118.0202	9
119.0311	12
120.0408	19
121.0313	38
122.0395	28
123.0008	12
123.0206	22
123.0342	23
126.0399	11
127.0291	22
129.0456	30
130.0381	155
131.0175	11
132.0233	145
133.0314	106
134.0395	15
137.0251	20
139.0044	49
139.0283	11
139.0492	11
140.0377	26
140.988	31
143.0262	11
144.0354	15
145.0335	17
146.0284	11
147.0319	22
148.0252	22
149.0364	39
150.0406	49
151.0413	23
151.0553	17
155.0329	12
159.0351	20
160.0409	9
161.0265	25
163.0547	15
164.0467	17
167.9989	11
168.0326	23
169.0425	55
170.0477	33
174.0327	17
175.0398	38
176.048	36
177.0426	9
177.0529	22
182.038	9
188.0384	34
195.0464	25
196.0521	20
202.0475	25
203.0641	22
204.051	17
221.0494	25
222.0568	14
250.0515	30
