Mass spectrum: Metazachlor; LC-ESI-QTOF; MS2; 40 V
Name: Metazachlor
Class: Herbicide
Formula: C14H16ClN3O
Exact mass: 277.0982
SMILES: Cc1cccc(C)c1N(Cn2cccn2)C(=O)CCl
InChI: InChI=1S/C14H16ClN3O/c1-11-5-3-6-12(2)14(11)18(13(19)9-15)10-17-8-4-7-16-17/h3-8H,9-10H2,1-2H3
Instrument: TripleTOF 5600 SCIEX
Instrument type: LC-ESI-QTOF
Ms type: MS2
Ion mode: POSITIVE
Collision energy: 40
Fragmentation mode: CID
Ionization: ESI
Column name: Zorbax Eclipse Plus C18 2.1 mm x 150 mm, 3.5 um, Agilent
Retention time: 11.114 min
Precursor m/z: 278.1055
Precursor type: [M+H]+
m/z	relative intensity
77.0414	13
79.0573	26
103.0549	36
105.0706	165
107.086	11
132.0813	14
134.0968	999
210.0686	38
