Mass spectrum: 4-Desmethyl-trimethoprim; LC-ESI-QTOF; MS2; 140 V
Name: 4-Desmethyl-trimethoprim
Class: Pharmaceutical
Formula: C13H16N4O3
Exact mass: 276.1222
SMILES: COC1=CC(=CC(=C1O)OC)CC2=CN=C(N=C2N)N
InChI: InChI=1S/C13H16N4O3/c1-19-9-4-7(5-10(20-2)11(9)18)3-8-6-16-13(15)17-12(8)14/h4-6,18H,3H2,1-2H3,(H4,14,15,16,17)
Instrument: TripleTOF 5600 SCIEX
Instrument type: LC-ESI-QTOF
Ms type: MS2
Ion mode: POSITIVE
Collision energy: 140
Fragmentation mode: CID
Ionization: ESI
Column name: Zorbax Eclipse Plus C18 2.1 mm x 150 mm, 3.5 um, Agilent
Retention time: 4.783 min
Precursor m/z: 277.1295
Precursor type: [M+H]+
m/z	relative intensity
41.035	161
43.0369	323
43.0466	216
51.0286	999
52.0222	539
54.0377	161
54.0478	161
63.0361	134
65.0419	377
74.0183	485
75.0278	323
76.0191	161
76.0284	269
77.0397	323
77.0514	216
78.0372	242
80.0484	161
89.0408	188
93.0488	134
103.0282	108
105.04	134
116.051	108
