Mass spectrum: 4-Amino-2,6-dimethoxypyrimidine; LC-ESI-QTOF; MS2; 40 V
Name: 4-Amino-2,6-dimethoxypyrimidine
Class: Pharmaceutical
Formula: C6H9N3O2
Exact mass: 155.0695
SMILES: COC1=NC(=NC(=C1)N)OC
InChI: InChI=1S/C6H9N3O2/c1-10-5-3-4(7)8-6(9-5)11-2/h3H,1-2H3,(H2,7,8,9)
Instrument: TripleTOF 5600 SCIEX
Instrument type: LC-ESI-QTOF
Ms type: MS2
Ion mode: POSITIVE
Collision energy: 40
Fragmentation mode: CID
Ionization: ESI
Column name: Zorbax Eclipse Plus C18 2.1 mm x 150 mm, 3.5 um, Agilent
Retention time: 4.656 min
Precursor m/z: 156.0768
Precursor type: [M+H]+
m/z	relative intensity
40.031	24
43.0436	42
54.0431	40
55.0346	49
56.0461	14
56.057	36
57.053	174
58.0369	100
65.0201	11
66.0272	34
67.0116	24
67.0357	543
68.0193	252
69.0138	53
70.0589	14
72.0497	120
80.0407	11
81.0262	9
81.0491	82
82.0328	999
83.0294	15
83.0541	25
84.0358	67
84.0595	49
85.0676	23
89.0741	11
92.0279	56
95.027	18
97.0423	12
98.0409	205
99.0219	24
99.0566	72
101.036	13
111.02	318
111.0428	26
112.0503	66
113.0593	199
114.0442	19
124.0298	13
124.0517	62
140.0468	47
141.0535	129
156.0756	45
