Mass spectrum: Lomefloxacin; LC-ESI-QTOF; MS2; 100 V
Name: Lomefloxacin
Class: Pharmaceutical; Antimicrobial
Formula: C17H19F2N3O3
Exact mass: 351.1394
SMILES: CCn1cc(c(=O)c2c1c(c(c(c2)F)N3CCNC(C3)C)F)C(=O)O
InChI: InChI=1S/C17H19F2N3O3/c1-3-21-8-11(17(24)25)16(23)10-6-12(18)15(13(19)14(10)21)22-5-4-20-9(2)7-22/h6,8-9,20H,3-5,7H2,1-2H3,(H,24,25)
Instrument: TripleTOF 5600 SCIEX
Instrument type: LC-ESI-QTOF
Ms type: MS2
Ion mode: POSITIVE
Collision energy: 100
Fragmentation mode: CID
Ionization: ESI
Column name: Zorbax Eclipse Plus C18 2.1 mm x 150 mm, 3.5 um, Agilent
Retention time: 5.44 min
Precursor m/z: 352.1467
Precursor type: [M+H]+
m/z	relative intensity
75.0254	230
99.0266	192
100.02	345
106.0216	192
107.029	384
112.0123	422
113.023	307
114.0338	268
119.0294	192
120.0371	230
122.0387	230
124.0146	345
125.0208	768
126.0302	614
127.0383	345
132.0252	576
133.0465	307
134.042	384
138.0274	230
139.0237	883
140.033	268
140.0483	307
146.0398	653
147.0462	230
148.0587	268
150.0164	422
151.0222	384
152.0308	730
153.0419	307
155.0655	192
157.0249	153
160.0427	307
165.0402	461
166.044	999
167.0416	153
173.0527	422
174.0582	230
176.0508	384
178.0361	268
179.0433	307
191.0419	230
194.0468	153
205.0173	268
