Mass spectrum: Propranolol; LC-ESI-QTOF; MS2; 110 V
Name: Propranolol
Class: Pharmaceutical
Formula: C16H21NO2
Exact mass: 259.1572
SMILES: CC(C)NCC(O)COc1cccc2ccccc12
InChI: InChI=1S/C16H21NO2/c1-12(2)17-10-14(18)11-19-16-9-5-7-13-6-3-4-8-15(13)16/h3-9,12,14,17-18H,10-11H2,1-2H3
Instrument: TripleTOF 5600 SCIEX
Instrument type: LC-ESI-QTOF
Ms type: MS2
Ion mode: POSITIVE
Collision energy: 110
Fragmentation mode: CID
Ionization: ESI
Column name: Zorbax Eclipse Plus C18 2.1 mm x 150 mm, 3.5 um, Agilent
Retention time: 7.356 min
Precursor m/z: 260.1645
Precursor type: [M+H]+
m/z	relative intensity
56.0553	163
58.0694	108
65.0431	160
72.0857	16
73.0114	16
74.0184	212
74.063	36
75.0264	409
76.0337	117
77.0418	999
77.076	16
78.0486	173
78.0737	16
84.0838	13
86.0173	42
87.0249	49
88.0328	16
89.0402	337
91.0558	68
98.0161	49
99.0242	32
100.0303	26
101.0397	163
102.0472	491
113.0389	39
114.0468	19
115.0546	530
125.0396	32
126.0471	481
127.0548	537
128.0624	619
129.0453	16
139.0549	117
150.0462	72
151.0558	108
152.0624	235
153.0722	22
155.0584	22
163.0547	98
164.0615	22
