Mass spectrum: Crotamiton; LC-ESI-QTOF; MS2; 70 V
Name: Crotamiton
Formula: C13H17NO
Exact mass: 203.131
SMILES: CCN(C1=CC=CC=C1C)C(=O)C=CC
InChI: InChI=1S/C13H17NO/c1-4-8-13(15)14(5-2)12-10-7-6-9-11(12)3/h4,6-10H,5H2,1-3H3
Instrument: TripleTOF 6600 SCIEX
Instrument type: LC-ESI-QTOF
Ms type: MS2
Ion mode: POSITIVE
Collision energy: 70
Fragmentation mode: CID
Ionization: ESI
Column name: Zorbax Eclipse Plus C18 2.1 mm x 150 mm, 3.5 um, Agilent
Retention time: 11.073 min
Precursor m/z: 204.1383
Precursor type: [M+H]+
m/z	relative intensity
35.9995	13
37.0075	107
38.0151	88
39.0234	999
41.039	567
51.0228	44
63.0227	31
65.0386	284
66.0462	54
68.0494	23
69.0332	143
77.0382	355
78.0334	11
78.0462	23
79.054	116
89.0382	69
90.0456	18
91.0538	234
92.0493	29
93.057	269
103.0532	13
104.0501	12
106.0649	549
107.0726	13
115.0534	47
117.0563	24
118.065	26
120.0802	10
130.0636	22
