Mass spectrum: Flutamide; LC-ESI-QTOF; MS2; 20 V
Name: Flutamide
Class: Pharmaceutical
Formula: C11H11F3N2O3
Exact mass: 276.0722
SMILES: CC(C)C(=O)NC1=CC(=C(C=C1)[N+](=O)[O-])C(F)(F)F
InChI: InChI=1S/C11H11F3N2O3/c1-6(2)10(17)15-7-3-4-9(16(18)19)8(5-7)11(12,13)14/h3-6H,1-2H3,(H,15,17)
Instrument: TripleTOF 6600 SCIEX
Instrument type: LC-ESI-QTOF
Ms type: MS2
Ion mode: POSITIVE
Collision energy: 20
Fragmentation mode: CID
Ionization: ESI
Column name: Zorbax Eclipse Plus C18 2.1 mm x 150 mm, 3.5 um, Agilent
Retention time: 12.297 min
Precursor m/z: 277.0795
Precursor type: [M+H]+
m/z	relative intensity
43.0539	26
71.0487	32
161.0432	23
187.0298	38
207.0366	44
231.0851	83
277.079	999
