Mass spectrum: Sulisobenzone; LC-ESI-QTOF; MS2; 40 V
Name: Sulisobenzone
Class: Personal_care_product
Formula: C14H12O6S
Exact mass: 308.0355
SMILES: COc1c(S(O)(=O)=O)cc(C(c2ccccc2)=O)c(O)c1
InChI: InChI=1S/C14H12O6S/c1-20-12-8-11(15)10(7-13(12)21(17,18)19)14(16)9-5-3-2-4-6-9/h2-8,15H,1H3,(H,17,18,19)
Instrument: TripleTOF 5600 SCIEX
Instrument type: LC-ESI-QTOF
Ms type: MS2
Ion mode: POSITIVE
Collision energy: 40
Fragmentation mode: CID
Ionization: ESI
Column name: Zorbax Eclipse Plus C18 2.1 mm x 150 mm, 3.5 um, Agilent
Retention time: 7.476 min
Precursor m/z: 309.0427
Precursor type: [M+H]+
m/z	relative intensity
77.041	45
79.0192	16
105.0346	99
107.0118	136
121.0272	24
123.0069	24
135.0076	319
141.0689	16
151.041	29
198.969	265
211.0371	37
230.9953	999
