Mass spectrum: Clopidogrel; LC-ESI-QTOF; MS2; 140 V
Name: Clopidogrel
Class: Pharmaceutical
Formula: C16H16ClNO2S
Exact mass: 321.059
SMILES: COC(=O)C(c1ccccc1Cl)N2CCc3c(ccs3)C2
InChI: InChI=1S/C16H16ClNO2S/c1-20-16(19)15(12-4-2-3-5-13(12)17)18-8-6-14-11(10-18)7-9-21-14/h2-5,7,9,15H,6,8,10H2,1H3
Instrument: TripleTOF 5600 SCIEX
Instrument type: LC-ESI-QTOF
Ms type: MS2
Ion mode: POSITIVE
Collision energy: 140
Fragmentation mode: CID
Ionization: ESI
Column name: Zorbax Eclipse Plus C18 2.1 mm x 150 mm, 3.5 um, Agilent
Retention time: 12.465 min
Precursor m/z: 322.0663
Precursor type: [M+H]+
m/z	relative intensity
45.0403	19
51.0302	495
60.0043	14
64.0361	15
65.043	193
72.9871	167
73.0117	52
74.019	564
75.0056	17
75.0267	999
75.0625	19
75.0743	12
76.0343	56
77.0419	408
84.9864	137
89.0407	590
90.0482	131
91.0555	103
91.071	10
96.9854	14
99.0005	151
105.0336	21
109.0107	10
111.0006	905
111.0319	10
112.0088	36
117.0572	21
125.0155	51
138.9973	196
