Mass spectrum: Cocaethylene; LC-ESI-QTOF; MS2; 70 V
Name: Cocaethylene
Class: Metabolite
Formula: C18H23NO4
Exact mass: 317.1627
SMILES: CCOC(=O)C1C2CCC(N2C)CC1OC(=O)C3=CC=CC=C3
InChI: InChI=1S/C18H23NO4/c1-3-22-18(21)16-14-10-9-13(19(14)2)11-15(16)23-17(20)12-7-5-4-6-8-12/h4-8,13-16H,3,9-11H2,1-2H3
Instrument: TripleTOF 6600 SCIEX
Instrument type: LC-ESI-QTOF
Ms type: MS2
Ion mode: POSITIVE
Collision energy: 70
Fragmentation mode: CID
Ionization: ESI
Column name: Zorbax Eclipse Plus C18 2.1 mm x 150 mm, 3.5 um, Agilent
Retention time: 7.013 min
Precursor m/z: 318.17
Precursor type: [M+H]+
m/z	relative intensity
39.0242	20
41.0398	39
42.035	45
44.0501	24
50.0162	28
51.0242	99
55.0186	20
55.0553	47
56.0503	15
57.0578	20
65.0398	137
67.0431	124
67.0541	126
68.0503	160
70.0665	16
77.0399	999
79.0549	32
80.0499	37
81.0588	15
81.0702	18
82.0663	718
83.0497	41
83.0732	67
91.0549	326
93.0339	24
93.0579	15
94.066	133
95.0728	13
96.0812	18
105.0341	203
106.0649	20
107.0732	22
108.0806	39
111.0446	13
117.058	9
119.0501	30
122.0964	22
140.0711	13
