Mass spectrum: 10-Hydroxycarbamazepine; LC-ESI-QTOF; MS2; 40 V
Name: 10-Hydroxycarbamazepine
Class: Metabolite; Pharmaceutical; Transformation_product
Formula: C15H14N2O2
Exact mass: 254.1055
SMILES: NC(N1c2c(CC(c3c1cccc3)O)cccc2)=O
InChI: InChI=1S/C15H14N2O2/c16-15(19)17-12-7-3-1-5-10(12)9-14(18)11-6-2-4-8-13(11)17/h1-8,14,18H,9H2,(H2,16,19)
Instrument: TripleTOF 5600 SCIEX
Instrument type: LC-ESI-QTOF
Ms type: MS2
Ion mode: POSITIVE
Collision energy: 40
Fragmentation mode: CID
Ionization: ESI
Column name: Zorbax Eclipse Plus C18 2.1 mm x 150 mm, 3.5 um, Agilent
Retention time: 7.19 min
Precursor m/z: 255.1129
Precursor type: [M+H]+
m/z	relative intensity
89.0411	6
91.0564	5
115.0554	4
116.0507	13
117.0582	9
128.0615	4
151.0556	17
152.0633	44
153.0595	4
164.0618	8
165.0711	116
166.0653	10
166.0777	10
167.0781	79
168.0829	4
176.0638	15
177.0654	21
178.0666	50
179.0741	221
190.066	30
191.074	105
192.082	399
193.0899	426
193.4888	9
194.0977	999
194.1492	5
220.0767	6
237.1032	54
