Mass spectrum: Dinoseb; LC-ESI-QTOF; MS2; 40 V
Name: Dinoseb
Class: Herbicide
Formula: C10H12N2O5
Exact mass: 240.0746
SMILES: CCC(C)c1cc(cc(c1O)[N+](=O)[O-])[N+](=O)[O-]
InChI: InChI=1S/C10H12N2O5/c1-3-6(2)8-4-7(11(14)15)5-9(10(8)13)12(16)17/h4-6,13H,3H2,1-2H3
Instrument: TripleTOF 6600 SCIEX
Instrument type: LC-ESI-QTOF
Ms type: MS2
Ion mode: NEGATIVE
Collision energy: 40
Fragmentation mode: CID
Ionization: ESI
Column name: Zorbax Eclipse Plus C18 2.1 mm x 150 mm, 3.5 um, Agilent
Retention time: 13.78182 min
Precursor m/z: 239.0673
Precursor type: [M-H]-
m/z	relative intensity
45.9922	103
104.0242	12
109.0151	16
121.0277	24
122.0352	34
123.0306	11
134.0233	749
135.031	277
136.039	69
137.0463	10
146.0368	20
147.0427	29
148.0392	38
148.0514	13
149.024	25
149.0454	10
151.0744	79
160.0398	11
162.0174	99
162.0662	15
163.0259	628
164.0452	91
176.0331	184
177.0412	185
178.0486	145
179.0202	13
179.0694	27
180.0272	40
190.049	13
191.0569	14
192.0647	258
193.0234	999
194.0438	698
207.0383	149
208.0591	32
209.0179	201
209.0676	17
210.0257	23
221.0542	20
222.0613	42
239.0646	335
