Mass spectrum: Aminophenazone; LC-ESI-QTOF; MS2; 40 V
Name: Aminophenazone
Class: Pharmaceutical; Transformation_product-Metabolite
Formula: C13H17N3O
Exact mass: 231.1372
SMILES: CC1=C(C(=O)N(N1C)C2=CC=CC=C2)N(C)C
InChI: InChI=1S/C13H17N3O/c1-10-12(14(2)3)13(17)16(15(10)4)11-8-6-5-7-9-11/h5-9H,1-4H3
Instrument: TripleTOF 5600 SCIEX
Instrument type: LC-ESI-QTOF
Ms type: MS2
Ion mode: POSITIVE
Collision energy: 40
Fragmentation mode: CID
Ionization: ESI
Column name: Zorbax Eclipse Plus C18 2.1 mm x 150 mm, 3.5 um, Agilent
Retention time: 4.71 min
Precursor m/z: 232.1444
Precursor type: [M+H]+
m/z	relative intensity
42.0451	36
44.0626	14
56.059	404
57.0663	11
58.0742	450
70.0722	300
72.0875	218
77.0453	50
79.059	14
82.0702	44
83.0656	31
84.0502	11
84.0726	11
84.085	47
96.0733	16
97.0802	999
98.0877	260
99.0948	19
104.0525	12
106.0688	137
111.095	213
113.1097	66
118.0679	56
123.0589	23
128.0523	16
132.0472	25
132.0806	17
133.0765	12
149.1089	18
159.0929	25
185.0712	10
216.1148	17
