Mass spectrum: 2,4-Diaminoanisole; LC-ESI-QTOF; MS2; 50 V
Name: 2,4-Diaminoanisole
Formula: C7H10N2O
Exact mass: 138.0793
SMILES: COC1=C(C=C(C=C1)N)N
InChI: InChI=1S/C7H10N2O/c1-10-7-3-2-5(8)4-6(7)9/h2-4H,8-9H2,1H3
Instrument: TripleTOF 6600 SCIEX
Instrument type: LC-ESI-QTOF
Ms type: MS2
Ion mode: POSITIVE
Collision energy: 50
Fragmentation mode: CID
Ionization: ESI
Column name: Zorbax Eclipse Plus C18 2.1 mm x 150 mm, 3.5 um, Agilent
Retention time: 2.235 min
Precursor m/z: 139.0866
Precursor type: [M+H]+
m/z	relative intensity
39.0228	139
41.0407	31
50.0148	114
51.0228	190
52.0306	470
53.0393	95
63.0233	76
65.0388	101
68.0507	31
77.0385	95
78.0335	445
79.0415	222
80.0497	999
81.0576	171
90.035	31
92.0486	38
93.0574	25
95.0609	763
96.0444	50
107.0599	197
108.0691	108
123.0553	139
