Mass spectrum: Iprovalicarb; LC-ESI-QTOF; MS2; 140 V
Name: Iprovalicarb
Class: Fungicide
Formula: C18H28N2O3
Exact mass: 320.21
SMILES: CC1=CC=C(C=C1)C(C)NC(=O)C(C(C)C)NC(=O)OC(C)C
InChI: InChI=1S/C18H28N2O3/c1-11(2)16(20-18(22)23-12(3)4)17(21)19-14(6)15-9-7-13(5)8-10-15/h7-12,14,16H,1-6H3,(H,19,21)(H,20,22)
Instrument: TripleTOF 6600 SCIEX
Instrument type: LC-ESI-QTOF
Ms type: MS2
Ion mode: POSITIVE
Collision energy: 140
Fragmentation mode: CID
Ionization: ESI
Column name: Zorbax Eclipse Plus C18 2.1 mm x 150 mm, 3.5 um, Agilent
Retention time: 11.936 min
Precursor m/z: 321.2173
Precursor type: [M+H]+
m/z	relative intensity
37.0076	87
38.0151	70
39.0234	455
41.0388	66
42.0342	33
49.007	99
50.0154	435
51.0233	999
52.0312	49
53.0396	24
56.0496	24
57.0582	16
61.0076	41
62.0153	95
63.023	223
65.039	663
74.0151	45
75.0225	41
76.0306	45
77.039	820
78.0469	286
89.0387	70
91.0545	269
102.0465	66
103.0541	215
104.063	29
105.046	37
115.0549	132
