Mass spectrum: Thiamethoxam; LC-ESI-QTOF; MS2; 50 V
Name: Thiamethoxam
Class: Insecticide
Formula: C8H10ClN5O3S
Exact mass: 291.0193
SMILES: CN1COCN(Cc2sc(Cl)nc2)/C1=N/[N+]([O-])=O
InChI: InChI=1S/C8H10ClN5O3S/c1-12-4-17-5-13(8(12)11-14(15)16)3-6-2-10-7(9)18-6/h2H,3-5H2,1H3/b11-8+
Instrument: TripleTOF 5600 SCIEX
Instrument type: LC-ESI-QTOF
Ms type: MS2
Ion mode: POSITIVE
Collision energy: 50
Fragmentation mode: CID
Ionization: ESI
Column name: Zorbax Eclipse Plus C18 2.1 mm x 150 mm, 3.5 um, Agilent
Retention time: 6.188 min
Precursor m/z: 292.0266
Precursor type: [M+H]+
m/z	relative intensity
67.0462	71
69.0484	256
70.9981	185
71.0279	23
78.9416	28
79.0328	19
81.0466	38
82.9853	23
83.9924	33
87.9963	28
94.0544	47
95.0619	23
98.0054	118
99.0011	66
108.0555	589
112.0207	33
113.0157	28
118.9601	28
122.0707	342
123.0786	66
124.0095	52
125.0159	280
131.9663	999
132.9786	33
138.0115	99
139.0237	33
147.0652	52
151.0192	123
152.028	608
152.0591	23
165.0228	33
174.9728	28
179.0416	23
181.0529	261
211.0643	33
