Mass spectrum: Methadone; LC-ESI-QTOF; MS2; 100 V
Name: Methadone
Class: Pharmaceutical
Formula: C21H27NO
Exact mass: 309.2093
SMILES: CCC(=O)C(CC(C)N(C)C)(C1=CC=CC=C1)C2=CC=CC=C2
InChI: InChI=1S/C21H27NO/c1-5-20(23)21(16-17(2)22(3)4,18-12-8-6-9-13-18)19-14-10-7-11-15-19/h6-15,17H,5,16H2,1-4H3
Instrument: TripleTOF 6600 SCIEX
Instrument type: LC-ESI-QTOF
Ms type: MS2
Ion mode: POSITIVE
Collision energy: 100
Fragmentation mode: CID
Ionization: ESI
Column name: Zorbax Eclipse Plus C18 2.1 mm x 150 mm, 3.5 um, Agilent
Retention time: 8.79 min
Precursor m/z: 310.2166
Precursor type: [M+H]+
m/z	relative intensity
39.0227	47
41.0382	11
50.0152	56
51.0228	332
63.0222	25
65.0382	180
77.0383	999
78.0454	12
79.0537	15
89.0378	49
91.0539	336
102.0455	33
103.0536	25
105.0392	34
115.0538	328
116.0614	12
126.0454	27
127.0538	48
128.0618	128
139.0542	54
141.0692	12
150.0453	15
151.0541	51
152.0619	124
163.0541	60
164.0617	101
165.0698	435
176.061	47
177.0692	19
178.0772	65
189.0701	85
200.0619	69
201.0696	88
202.0782	345
203.0848	20
213.0697	25
215.0854	109
