Mass spectrum: Tebuconazole; LC-ESI-QTOF; MS2; 70 V
Name: Tebuconazole
Class: Fungicide
Formula: C16H22ClN3O
Exact mass: 307.1451
SMILES: CC(C)(C)C(O)(CCc1ccc(Cl)cc1)Cn2cncn2
InChI: InChI=1S/C16H22ClN3O/c1-15(2,3)16(21,10-20-12-18-11-19-20)9-8-13-4-6-14(17)7-5-13/h4-7,11-12,21H,8-10H2,1-3H3
Instrument: TripleTOF 5600 SCIEX
Instrument type: LC-ESI-QTOF
Ms type: MS2
Ion mode: POSITIVE
Collision energy: 70
Fragmentation mode: CID
Ionization: ESI
Column name: Zorbax Eclipse Plus C18 2.1 mm x 150 mm, 3.5 um, Agilent
Retention time: 12.72 min
Precursor m/z: 308.1524
Precursor type: [M+H]+
m/z	relative intensity
43.0387	85
57.0763	26
59.055	67
70.0458	999
72.9873	16
77.0415	38
89.0414	216
90.0483	57
99.0007	116
102.047	12
103.0548	42
115.0553	314
116.0628	221
125.016	875
128.0613	24
129.0691	54
130.0773	20
151.0312	11
