Mass spectrum: Pantoprazole sulfide; LC-ESI-QTOF; MS2; 110 V
Name: Pantoprazole sulfide
Class: Pharmaceutical; Metabolite
Formula: C16H15F2N3O3S
Exact mass: 367.0802
SMILES: COC1=C(C(=NC=C1)CSC2=NC3=C(N2)C=CC(=C3)OC(F)F)OC
InChI: InChI=1S/C16H15F2N3O3S/c1-22-13-5-6-19-12(14(13)23-2)8-25-16-20-10-4-3-9(24-15(17)18)7-11(10)21-16/h3-7,15H,8H2,1-2H3,(H,20,21)
Instrument: TripleTOF 5600 SCIEX
Instrument type: LC-ESI-QTOF
Ms type: MS2
Ion mode: POSITIVE
Collision energy: 110
Fragmentation mode: CID
Ionization: ESI
Column name: Zorbax Eclipse Plus C18 2.1 mm x 150 mm, 3.5 um, Agilent
Retention time: 7.575 min
Precursor m/z: 368.0875
Precursor type: [M+H]+
m/z	relative intensity
51.0293	596
52.0351	81
53.0422	22
65.0429	999
66.0142	31
67.023	31
67.0444	27
67.056	18
68.0174	27
69.0362	27
69.9891	31
78.035	76
79.0439	99
80.0513	99
81.0353	27
90.0365	27
91.0432	36
92.0508	533
92.0817	27
93.0576	27
94.0292	49
94.0655	27
94.9965	22
95.0363	31
96.0035	76
96.045	54
106.027	18
107.0381	40
107.06	36
108.0436	58
110.0054	108
110.0601	58
117.0448	27
118.0509	27
122.0061	31
123.0118	45
135.0545	54
136.0381	103
138.0552	27
140.0139	18
151.0063	22
