Mass spectrum: Amido Black 10B; LC-ESI-QTOF; MS2; 40 V
Name: Amido Black 10B
Formula: C22H16N6O9S2
Exact mass: 572.042
SMILES: C1=CC=C(C=C1)N=NC2=C(C3=C(C(=C(C=C3C=C2S(=O)(=O)O)S(=O)(=O)O)N=NC4=CC=C(C=C4)[N+](=O)[O-])N)O
InChI: InChI=1S/C22H16N6O9S2/c23-19-18-12(11-17(39(35,36)37)21(22(18)29)27-24-13-4-2-1-3-5-13)10-16(38(32,33)34)20(19)26-25-14-6-8-15(9-7-14)28(30)31/h1-11,29H,23H2,(H,32,33,34)(H,35,36,37)
Instrument: TripleTOF 6600 SCIEX
Instrument type: LC-ESI-QTOF
Ms type: MS2
Ion mode: NEGATIVE
Collision energy: 40
Fragmentation mode: CID
Ionization: ESI
Column name: Zorbax Eclipse Plus C18 2.1 mm x 150 mm, 3.5 um, Agilent
Retention time: 9.552 min
Precursor m/z: 285.0137
Precursor type: [M-2H]2-
m/z	relative intensity
45.9931	24
63.9614	9
65.9978	12
79.9571	999
80.9649	419
92.0501	40
109.9968	75
112.0173	13
114.033	7
115.0291	8
122.0237	10
123.9946	74
125.0129	6
126.0332	16
127.0295	26
128.0134	16
129.0214	8
131.0364	8
131.9916	18
132.0212	20
136.0271	18
137.0345	45
138.0194	33
138.4881	6
139.0294	235
140.037	112
141.0095	7
141.0211	6
142.028	53
143.0259	31
144.007	9
144.0307	7
145.0045	6
146.0237	13
152.0251	10
154.0184	50
155.0239	59
156.0318	186
157.0166	18
157.0378	6
158.023	9
159.0311	16
163.9726	288
167.024	241
168.0309	155
169.0031	35
169.024	17
170.0083	50
171.0216	52
172.0266	26
177.9753	22
178.0052	6
179.0127	10
180.0201	30
181.0272	44
182.0116	43
182.0333	14
183.0193	247
184.0269	68
187.0182	6
194.9985	83
195.9835	10
196.0135	62
197.0223	12
199.0133	12
200.0234	6
206.9987	30
211.0242	9
217.0516	9
218.0578	19
219.0607	6
219.9939	56
221.9867	28
222.9933	198
230.0572	29
231.0556	19
232.0621	9
233.0473	13
233.9853	7
234.0548	14
234.9924	79
235.0606	6
235.9879	45
237.9781	8
238.9874	14
242.0466	13
246.0537	26
246.9806	451
247.0512	7
247.988	61
248.0559	11
249.0659	6
250.9867	28
258.0399	18
259.0503	56
259.9754	24
260.0563	58
260.9839	43
261.0527	9
262.0564	9
262.9731	16
263.0481	20
263.9822	27
264.0521	6
264.9921	9
271.0607	6
272.0681	6
274.0356	7
275.0457	26
276.0532	33
277.059	16
279.0466	11
281.0545	18
282.0219	6
285.0401	6
286.0501	9
287.0553	9
288.0449	24
289.0463	11
290.0574	10
291.0508	7
292.0471	12
293.0631	6
304.0353	6
306.0513	99
307.0498	8
309.0538	6
310.0167	76
311.0184	11
318.0612	12
321.0595	7
324.0216	6
327.0189	7
328.0119	6
332.0401	6
334.0563	71
339.0263	11
340.0185	77
341.0085	6
345.0164	11
356.0085	12
357.0147	11
368.0159	12
370.0096	6
373.0212	9
383.0086	6
385.0228	8
386.0192	11
398.0169	15
401.0158	35
