Mass spectrum: Oxytetracycline; LC-ESI-QTOF; MS2; 30 V
Name: Oxytetracycline
Class: Pharmaceutical
Formula: C22H24N2O9
Exact mass: 460.1482
SMILES: CC1(C2C(C3C(C(=O)C(=C(C3(C(=O)C2=C(C4=C1C=CC=C4O)O)O)O)C(=O)N)N(C)C)O)O
InChI: InChI=1S/C22H24N2O9/c1-21(32)7-5-4-6-8(25)9(7)15(26)10-12(21)17(28)13-14(24(2)3)16(27)11(20(23)31)19(30)22(13,33)18(10)29/h4-6,12-14,17,25-26,28,30,32-33H,1-3H3,(H2,23,31)
Instrument: TripleTOF 5600 SCIEX
Instrument type: LC-ESI-QTOF
Ms type: MS2
Ion mode: NEGATIVE
Collision energy: 30
Fragmentation mode: CID
Ionization: ESI
Column name: Zorbax Eclipse Plus C18 2.1 mm x 150 mm, 3.5 um, Agilent
Retention time: 5.586 min
Precursor m/z: 459.1409
Precursor type: [M-H]-
m/z	relative intensity
142.0156	67
181.0381	58
289.0731	82
353.0882	123
371.1025	54
374.1266	999
398.1263	107
416.1368	234
442.1157	387
459.1424	366
