Mass spectrum: Ranitidine-S-oxide; LC-ESI-QTOF; MS2; 90 V
Name: Ranitidine-S-oxide
Class: Pharmaceutical; Transformation_product; Transformation_product-Metabolite
Formula: C13H22N4O4S
Exact mass: 330.1362
SMILES: CNC(=C[N+](=O)[O-])NCCS(=O)Cc1ccc(o1)CN(C)C
InChI: InChI=1S/C13H22N4O4S/c1-14-13(9-17(18)19)15-6-7-22(20)10-12-5-4-11(21-12)8-16(2)3/h4-5,9,14-15H,6-8,10H2,1-3H3
Instrument: TripleTOF 5600 SCIEX
Instrument type: LC-ESI-QTOF
Ms type: MS2
Ion mode: POSITIVE
Collision energy: 90
Fragmentation mode: CID
Ionization: ESI
Column name: Zorbax Eclipse Plus C18 2.1 mm x 150 mm, 3.5 um, Agilent
Retention time: 2.941 min
Precursor m/z: 331.1435
Precursor type: [M+H]+
m/z	relative intensity
42.0497	62
56.0556	78
58.0705	312
58.0813	62
65.0425	202
66.0512	343
80.0506	140
81.0354	109
81.0617	171
82.0664	124
94.0423	999
94.0658	561
95.0736	171
97.0759	468
108.0808	93
110.0956	93
