Mass spectrum: Dodecylamine; LC-ESI-QTOF; MS2; 130 V
Name: Dodecylamine
Class: Industrial_process; Personal_care_product
Formula: C12H27N
Exact mass: 185.2143
SMILES: CCCCCCCCCCCCN
InChI: InChI=1S/C12H27N/c1-2-3-4-5-6-7-8-9-10-11-12-13/h2-13H2,1H3
Instrument: TripleTOF 5600 SCIEX
Instrument type: LC-ESI-QTOF
Ms type: MS2
Ion mode: POSITIVE
Collision energy: 130
Fragmentation mode: CID
Ionization: ESI
Column name: Zorbax Eclipse Plus C18 2.1 mm x 150 mm, 3.5 um, Agilent
Retention time: 9.472 min
Precursor m/z: 186.2216
Precursor type: [M+H]+
m/z	relative intensity
35.9997	153
37.0075	333
38.0153	281
39.0231	999
41.0384	333
