Mass spectrum: Nilotinib; LC-ESI-QTOF; MS2; 100 V
Name: Nilotinib
Class: Pharmaceutical
Formula: C28H22F3N7O
Exact mass: 529.1838
SMILES: Cc1cn(cn1)c2cc(NC(=O)c3ccc(C)c(Nc4nccc(n4)c5cccnc5)c3)cc(c2)C(F)(F)F
InChI: InChI=1S/C28H22F3N7O/c1-17-5-6-19(10-25(17)37-27-33-9-7-24(36-27)20-4-3-8-32-14-20)26(39)35-22-11-21(28(29,30)31)12-23(13-22)38-15-18(2)34-16-38/h3-16H,1-2H3,(H,35,39)(H,33,36,37)
Instrument: TripleTOF 5600 SCIEX
Instrument type: LC-ESI-QTOF
Ms type: MS2
Ion mode: POSITIVE
Collision energy: 100
Fragmentation mode: CID
Ionization: ESI
Column name: Zorbax Eclipse Plus C18 2.1 mm x 150 mm, 3.5 um, Agilent
Retention time: 8.404 min
Precursor m/z: 530.1911
Precursor type: [M+H]+
m/z	relative intensity
77.0407	14
78.0365	10
89.039	14
104.0488	45
116.048	20
129.045	20
130.0612	10
131.061	34
142.0524	20
143.0563	10
155.0611	18
156.0558	47
158.0722	11
171.0783	13
182.0728	10
192.0652	15
193.0608	30
194.0674	26
198.0488	10
205.0796	10
206.0772	14
207.0951	11
208.0881	18
213.0629	14
214.0732	11
218.0734	26
219.0779	30
220.0854	26
232.0876	24
233.0946	23
234.1021	31
243.0753	22
244.0745	123
245.0839	132
246.0903	145
257.0823	27
258.0922	45
259.0983	999
260.107	58
261.1139	35
