Mass spectrum: 4-Bromoantipyrine; LC-ESI-QTOF; MS2; 80 V
Name: 4-Bromoantipyrine
Class: Industrial_process
Formula: C11H11BrN2O
Exact mass: 266.0055
SMILES: CC1=C(C(=O)N(N1C)C2=CC=CC=C2)Br
InChI: InChI=1S/C11H11BrN2O/c1-8-10(12)11(15)14(13(8)2)9-6-4-3-5-7-9/h3-7H,1-2H3
Instrument: TripleTOF 6600 SCIEX
Instrument type: LC-ESI-QTOF
Ms type: CID
Ion mode: POSITIVE
Collision energy: 80
Ionization: ESI
Column name: Zorbax Eclipse Plus C18 2.1 mm x 150 mm, 3.5 um, Agilent
Retention time: 7.678 min
Precursor m/z: 267.0128
Precursor type: [M+H]+
m/z	relative intensity
39.0219	45
42.033	148
50.0135	38
51.0218	174
54.0328	103
56.0481	999
65.0368	141
68.0476	64
77.0364	631
78.0441	32
89.0355	70
91.0517	83
92.0462	25
102.0458	32
103.0511	38
104.0465	32
104.9305	64
115.0508	135
117.0545	32
128.0485	45
130.0624	38
131.0561	32
135.9715	96
144.0764	32
