Mass spectrum: Metconazole; LC-ESI-QTOF; MS2; 100 V
Name: Metconazole
Class: Fungicide
Formula: C17H22ClN3O
Exact mass: 319.1451
SMILES: CC1(CCC(C1(CN2C=NC=N2)O)CC3=CC=C(C=C3)Cl)C
InChI: InChI=1S/C17H22ClN3O/c1-16(2)8-7-14(9-13-3-5-15(18)6-4-13)17(16,22)10-21-12-19-11-20-21/h3-6,11-12,14,22H,7-10H2,1-2H3
Instrument: TripleTOF 6600 SCIEX
Instrument type: LC-ESI-QTOF
Ms type: MS2
Ion mode: POSITIVE
Collision energy: 100
Fragmentation mode: CID
Ionization: ESI
Column name: Zorbax Eclipse Plus C18 2.1 mm x 150 mm, 3.5 um, Agilent
Retention time: 13.024 min
Precursor m/z: 320.1524
Precursor type: [M+H]+
m/z	relative intensity
39.0228	11
43.0293	194
62.015	11
63.0228	63
65.038	14
70.0402	999
72.9836	40
77.0384	18
89.0385	192
90.046	55
98.9993	91
115.0536	64
125.0146	78
128.0613	18
141.0691	17
