Mass spectrum: Hydrocodone; LC-ESI-QTOF; MS2; 40 V
Name: Hydrocodone
Class: Pharmaceutical; Transformation_product-Metabolite
Formula: C18H21NO3
Exact mass: 299.1521
SMILES: CN1CCC23C4C1CC5=C2C(=C(C=C5)OC)OC3C(=O)CC4
InChI: InChI=1S/C18H21NO3/c1-19-8-7-18-11-4-5-13(20)17(18)22-16-14(21-2)6-3-10(15(16)18)9-12(11)19/h3,6,11-12,17H,4-5,7-9H2,1-2H3
Instrument: TripleTOF 6600 SCIEX
Instrument type: LC-ESI-QTOF
Ms type: MS2
Ion mode: POSITIVE
Collision energy: 40
Fragmentation mode: CID
Ionization: ESI
Column name: Zorbax Eclipse Plus C18 2.1 mm x 150 mm, 3.5 um, Agilent
Retention time: 5.331 min
Precursor m/z: 300.1594
Precursor type: [M+H]+
m/z	relative intensity
44.0488	11
115.0533	19
128.0605	50
141.0687	89
152.0606	18
153.0692	79
154.0766	13
155.0842	28
156.0553	31
157.0625	10
165.0683	58
168.0558	12
169.0635	16
170.0715	30
171.0792	276
181.0637	111
182.071	17
183.0445	21
183.0794	89
184.051	12
185.0586	92
185.0938	27
186.0665	14
187.0739	22
193.0655	18
194.0721	11
195.0796	10
197.0943	14
198.067	58
199.0743	999
200.0811	10
201.0892	11
211.0737	20
213.0897	152
215.1052	14
225.0906	51
241.0854	175
243.1013	74
257.1156	27
285.1346	25
300.1597	641
