Mass spectrum: Clopidogrel carboxylic acid; LC-ESI-QTOF; MS2; 70 V
Name: Clopidogrel carboxylic acid
Class: Pharmaceutical
Formula: C15H14ClNO2S
Exact mass: 307.0434
SMILES: C1CN(CC2=C1SC=C2)C(C3=CC=CC=C3Cl)C(=O)O
InChI: InChI=1S/C15H14ClNO2S/c16-12-4-2-1-3-11(12)14(15(18)19)17-7-5-13-10(9-17)6-8-20-13/h1-4,6,8,14H,5,7,9H2,(H,18,19)
Instrument: TripleTOF 6600 SCIEX
Instrument type: LC-ESI-QTOF
Ms type: MS2
Ion mode: POSITIVE
Collision energy: 70
Fragmentation mode: CID
Ionization: ESI
Column name: Zorbax Eclipse Plus C18 2.1 mm x 150 mm, 3.5 um, Agilent
Retention time: 6.621 min
Precursor m/z: 308.0507
Precursor type: [M+H]+
m/z	relative intensity
50.0157	22
51.0238	84
77.0396	999
78.0469	26
89.0391	68
90.047	23
98.9998	34
105.0445	21
113.0156	200
117.0574	15
125.0158	359
134.0368	34
140.0262	24
141.01	86
