Mass spectrum: Carazolol; LC-ESI-QTOF; MS2; 90 V
Name: Carazolol
Class: Pharmaceutical
Formula: C18H22N2O2
Exact mass: 298.1681
SMILES: CC(C)NCC(O)COc1cccc2[nH]c3ccccc3c12
InChI: InChI=1S/C18H22N2O2/c1-12(2)19-10-13(21)11-22-17-9-5-8-16-18(17)14-6-3-4-7-15(14)20-16/h3-9,12-13,19-21H,10-11H2,1-2H3
Instrument: TripleTOF 5600 SCIEX
Instrument type: LC-ESI-QTOF
Ms type: MS2
Ion mode: POSITIVE
Collision energy: 90
Fragmentation mode: CID
Ionization: ESI
Column name: Zorbax Eclipse Plus C18 2.1 mm x 150 mm, 3.5 um, Agilent
Retention time: 6.882 min
Precursor m/z: 299.1754
Precursor type: [M+H]+
m/z	relative intensity
56.0551	188
58.0707	53
65.0435	12
72.0836	41
74.0625	57
75.0265	16
77.0413	80
87.0248	14
89.0398	125
90.0475	26
91.0548	21
100.112	11
101.0384	53
102.0462	33
103.0546	15
113.0384	93
114.0452	17
115.0545	202
116.0515	37
116.1086	10
117.0572	52
126.0465	58
127.0542	321
128.0615	592
129.0698	105
130.0638	28
138.0458	23
139.0547	999
140.0495	400
141.0583	21
141.0695	19
150.0476	32
151.0546	110
152.0618	152
153.0578	37
154.0651	432
155.0725	44
156.0794	24
163.0544	35
164.0591	71
165.0698	206
166.0653	400
166.1024	16
167.0727	770
176.0622	32
177.057	30
178.0644	103
179.0726	35
180.0831	11
182.0593	21
183.068	33
190.065	62
191.0733	312
192.0809	215
193.089	51
202.0641	16
203.0727	29
204.0811	32
