Mass spectrum: Dextrorphan; LC-ESI-QTOF; MS2; 90 V
Name: Dextrorphan
Class: Pharmaceutical; Metabolite
Formula: C17H23NO
Exact mass: 257.178
SMILES: CN1CC[C@@]23CCCC[C@@H]2[C@@H]1CC4=C3C=C(C=C4)O
InChI: InChI=1S/C17H23NO/c1-18-9-8-17-7-3-2-4-14(17)16(18)10-12-5-6-13(19)11-15(12)17/h5-6,11,14,16,19H,2-4,7-10H2,1H3/t14-,16+,17+/m1/s1
Instrument: TripleTOF 5600 SCIEX
Instrument type: LC-ESI-QTOF
Ms type: MS2
Ion mode: POSITIVE
Collision energy: 90
Fragmentation mode: CID
Ionization: ESI
Column name: Zorbax Eclipse Plus C18 2.1 mm x 150 mm, 3.5 um, Agilent
Retention time: 5.969 min
Precursor m/z: 258.1852
Precursor type: [M+H]+
m/z	relative intensity
44.0572	34
65.0429	27
75.0275	14
77.0426	395
78.0495	30
79.0573	54
89.0404	47
91.0564	75
94.0431	12
101.0403	27
102.0474	84
103.0556	155
105.0707	37
107.0501	43
115.0553	296
116.0625	28
118.0416	16
126.047	66
127.0553	429
128.0635	999
129.0706	63
131.05	132
139.0547	43
141.0707	39
144.0578	28
151.0545	17
152.0629	73
153.0693	13
155.0585	16
157.0658	115
165.0695	51
169.0666	10
