Mass spectrum: 17alpha-Methyltestosterone; LC-ESI-QTOF; MS2; 80 V
Name: 17alpha-Methyltestosterone
Class: Pharmaceutical
Formula: C20H30O2
Exact mass: 302.2246
SMILES: C[C@]1(O)CC[C@H]2[C@@H]3CCC4=CC(=O)CC[C@]4(C)[C@H]3CC[C@]12C
InChI: InChI=1S/C20H30O2/c1-18-9-6-14(21)12-13(18)4-5-15-16(18)7-10-19(2)17(15)8-11-20(19,3)22/h12,15-17,22H,4-11H2,1-3H3/t15-,16+,17+,18+,19+,20+/m1/s1
Instrument: TripleTOF 5600 SCIEX
Instrument type: LC-ESI-QTOF
Ms type: MS2
Ion mode: POSITIVE
Collision energy: 80
Fragmentation mode: CID
Ionization: ESI
Column name: Zorbax Eclipse Plus C18 2.1 mm x 150 mm, 3.5 um, Agilent
Retention time: 11.57 min
Precursor m/z: 303.2319
Precursor type: [M+H]+
m/z	relative intensity
43.0272	165
51.0285	49
55.0222	75
55.0597	60
65.0424	184
67.0583	245
69.0741	60
77.0417	999
77.0691	30
78.0488	18
79.057	836
81.0381	45
81.0719	335
83.0521	60
91.0561	757
93.0704	120
94.0422	49
95.0511	18
95.0887	79
97.0655	629
103.0539	86
104.0608	22
105.0697	226
107.0493	45
107.0845	37
108.0569	22
109.0647	456
115.0547	158
116.0613	33
117.0688	71
119.0862	56
121.065	18
123.08	90
127.0553	41
128.0623	154
129.0693	109
130.0775	22
131.0847	33
141.0694	90
142.0752	41
143.0871	30
144.093	18
145.105	18
152.0612	18
153.0673	41
154.0781	18
155.0849	26
156.091	15
165.07	33
