Mass spectrum: Flunixin; LC-ESI-QTOF; MS2; 130 V
Name: Flunixin
Class: Pharmaceutical
Formula: C14H11F3N2O2
Exact mass: 296.0773
SMILES: CC1=C(C=CC=C1NC2=C(C=CC=N2)C(=O)O)C(F)(F)F
InChI: InChI=1S/C14H11F3N2O2/c1-8-10(14(15,16)17)5-2-6-11(8)19-12-9(13(20)21)4-3-7-18-12/h2-7H,1H3,(H,18,19)(H,20,21)
Instrument: TripleTOF 5600 SCIEX
Instrument type: LC-ESI-QTOF
Ms type: MS2
Ion mode: POSITIVE
Collision energy: 130
Fragmentation mode: CID
Ionization: ESI
Column name: Zorbax Eclipse Plus C18 2.1 mm x 150 mm, 3.5 um, Agilent
Retention time: 11.023 min
Precursor m/z: 297.0845
Precursor type: [M+H]+
m/z	relative intensity
51.0341	175
52.0287	17
57.0233	431
59.0386	49
60.0069	21
64.0347	17
65.0442	33
66.0413	11
68.014	17
69.0017	34
73.0129	46
74.0216	394
75.0063	14
75.0291	319
76.0234	62
76.0357	26
77.0273	11
77.0438	233
78.0399	74
79.0463	10
81.0183	127
82.0128	10
82.0243	11
83.0343	463
84.004	10
85.0106	79
86.0199	177
87.0272	213
88.0244	184
89.0432	188
90.0392	20
92.009	58
93.0179	129
93.0488	13
94.0255	24
95.0331	21
97.0105	90
98.0183	999
99.0258	332
100.0198	103
101.0249	15
101.0406	74
102.0368	27
102.0488	21
104.05	14
105.0166	76
106.0227	66
107.031	151
108.0266	11
108.0385	13
109.0103	15
109.0469	85
110.0172	52
111.0228	97
112.019	94
113.0225	15
113.0405	217
114.0353	120
115.0448	11
116.0082	10
117.0157	20
118.0217	17
119.0285	17
121.0097	20
122.0167	100
123.0152	137
124.0189	60
125.0209	39
125.0406	75
126.0476	165
127.0539	133
128.0507	34
129.0143	10
129.0464	17
131.0301	161
132.03	66
133.044	21
135.0212	11
136.016	10
137.025	13
137.0387	33
138.0336	98
139.0457	62
140.0492	111
141.0169	18
142.0179	15
143.0108	18
143.0305	14
144.0321	13
146.0185	10
147.011	66
148.0194	29
149.0218	26
150.0222	10
150.0378	11
151.0382	42
152.0505	92
153.0579	53
154.0644	15
155.031	49
156.0252	30
157.0418	20
158.042	76
161.0207	13
162.0324	45
164.0518	26
165.0461	21
165.0619	11
166.0541	30
168.0318	13
179.0605	81
181.0305	11
182.0413	39
189.0421	15
