Mass spectrum: 2-Amino-n-isopropylbenzamide; LC-ESI-QTOF; MS2; 50 V
Name: 2-Amino-n-isopropylbenzamide
Formula: C10H14N2O
Exact mass: 178.1106
SMILES: CC(C)NC(=O)C1=CC=CC=C1N
InChI: InChI=1S/C10H14N2O/c1-7(2)12-10(13)8-5-3-4-6-9(8)11/h3-7H,11H2,1-2H3,(H,12,13)
Instrument: TripleTOF X500R SCIEX
Instrument type: LC-ESI-QTOF
Ms type: MS2
Ion mode: POSITIVE
Collision energy: 50
Fragmentation mode: CID
Ionization: ESI
Column name: Zorbax Eclipse Plus C18 2.1 mm x 150 mm, 3.5 um, Agilent
Retention time: 6.85 min
Precursor m/z: 179.1179
Precursor type: [M+H]+
m/z	relative intensity
38.0151	11
39.023	150
65.0384	999
66.0337	31
92.0495	579
120.0438	107
