Mass spectrum: 3-Dimethylaminophenol; LC-ESI-QTOF; MS2; 60 V
Name: 3-Dimethylaminophenol
Formula: C8H11NO
Exact mass: 137.0841
SMILES: CN(C)C1=CC(=CC=C1)O
InChI: InChI=1S/C8H11NO/c1-9(2)7-4-3-5-8(10)6-7/h3-6,10H,1-2H3
Instrument: TripleTOF 6600 SCIEX
Instrument type: LC-ESI-QTOF
Ms type: MS2
Ion mode: POSITIVE
Collision energy: 60
Fragmentation mode: CID
Ionization: ESI
Column name: Zorbax Eclipse Plus C18 2.1 mm x 150 mm, 3.5 um, Agilent
Retention time: 4.073 min
Precursor m/z: 138.0914
Precursor type: [M+H]+
m/z	relative intensity
35.9987	19
37.0065	120
38.0143	114
39.0224	864
40.0297	18
44.0482	14
50.014	19
51.022	87
53.001	11
53.0375	73
55.0166	25
63.0218	13
65.0378	999
66.0452	143
67.0535	19
68.0119	12
77.0374	128
80.0481	15
81.032	55
93.0322	109
94.0403	461
95.0478	36
121.0384	18
122.0587	177
