Mass spectrum: Ethyldiphenylphosphine oxide; LC-ESI-QTOF; MS2; 60 V
Name: Ethyldiphenylphosphine oxide
Class: Industrial_process
Formula: C14H15OP
Exact mass: 230.0861
SMILES: CC[P](=O)(c1ccccc1)c2ccccc2
InChI: InChI=1S/C14H15OP/c1-2-16(15,13-9-5-3-6-10-13)14-11-7-4-8-12-14/h3-12H,2H2,1H3
Instrument: TripleTOF 5600 SCIEX
Instrument type: LC-ESI-QTOF
Ms type: MS2
Ion mode: POSITIVE
Collision energy: 60
Fragmentation mode: CID
Ionization: ESI
Column name: Zorbax Eclipse Plus C18 2.1 mm x 150 mm, 3.5 um, Agilent
Retention time: 8.816 min
Precursor m/z: 231.0933
Precursor type: [M+H]+
m/z	relative intensity
47.0092	28
51.0277	32
65.0423	173
75.0023	34
77.0413	507
78.0483	229
79.0563	92
83.0061	162
91.0556	117
103.0539	79
105.0699	237
107.0047	38
109.02	717
115.0531	59
125.0151	999
127.0529	34
128.0612	38
133.0196	34
139.0536	28
151.0528	28
152.062	304
153.0473	57
153.0688	121
154.0778	65
155.0844	69
157.0193	69
165.0693	165
170.0254	25
181.0191	25
182.0283	28
183.0349	684
194.0278	32
195.0351	52
197.0515	61
199.0303	676
200.0375	179
201.0448	46
215.0607	405
