Mass spectrum: Crotamiton; LC-ESI-QTOF; MS2; 100 V
Name: Crotamiton
Formula: C13H17NO
Exact mass: 203.131
SMILES: CCN(C1=CC=CC=C1C)C(=O)C=CC
InChI: InChI=1S/C13H17NO/c1-4-8-13(15)14(5-2)12-10-7-6-9-11(12)3/h4,6-10H,5H2,1-3H3
Instrument: TripleTOF 6600 SCIEX
Instrument type: LC-ESI-QTOF
Ms type: MS2
Ion mode: POSITIVE
Collision energy: 100
Fragmentation mode: CID
Ionization: ESI
Column name: Zorbax Eclipse Plus C18 2.1 mm x 150 mm, 3.5 um, Agilent
Retention time: 11.073 min
Precursor m/z: 204.1383
Precursor type: [M+H]+
m/z	relative intensity
35.9996	32
37.0076	210
38.0152	187
39.0233	999
41.0386	108
50.0149	50
51.0229	145
61.0066	12
62.0147	33
63.0228	72
65.0384	106
66.0456	31
74.015	11
75.0221	13
77.0381	198
79.0549	15
89.0378	48
91.0534	19
92.0495	13
93.0573	15
106.0646	24
