Mass spectrum: 2-Methoxyethyl-N-(3-aminophenyl)carbamate; LC-ESI-QTOF; MS2; 60 V
Name: 2-Methoxyethyl-N-(3-aminophenyl)carbamate
Class: Industrial_process
Formula: C10H14N2O3
Exact mass: 210.1004
SMILES: COCCOC(=O)NC1=CC=CC(=C1)N
InChI: InChI=1S/C10H14N2O3/c1-14-5-6-15-10(13)12-9-4-2-3-8(11)7-9/h2-4,7H,5-6,11H2,1H3,(H,12,13)
Instrument: TripleTOF 5600 SCIEX
Instrument type: LC-ESI-QTOF
Ms type: MS2
Ion mode: POSITIVE
Collision energy: 60
Fragmentation mode: CID
Ionization: ESI
Column name: Zorbax Eclipse Plus C18 2.1 mm x 150 mm, 3.5 um, Agilent
Retention time: 4.802 min
Precursor m/z: 211.1077
Precursor type: [M+H]+
m/z	relative intensity
45.0471	47
59.0578	407
65.0455	999
66.0537	67
80.0546	292
81.0634	33
90.0382	407
92.053	550
93.0605	400
107.0625	95
108.0684	27
118.0305	27
134.0472	27
135.055	67
