Mass spectrum: Bis(2-isopropylphenyl) phenyl phosphate; LC-ESI-QTOF; MS2; 150 V
Name: Bis(2-isopropylphenyl) phenyl phosphate
Formula: C24H27O4P
Exact mass: 410.1647
SMILES: CC(C)C1=CC=CC=C1OP(=O)(OC2=CC=CC=C2)OC3=CC=CC=C3C(C)C
InChI: InChI=1S/C24H27O4P/c1-18(2)21-14-8-10-16-23(21)27-29(25,26-20-12-6-5-7-13-20)28-24-17-11-9-15-22(24)19(3)4/h5-19H,1-4H3
Instrument: TripleTOF 6600 SCIEX
Instrument type: LC-ESI-QTOF
Ms type: MS2
Ion mode: POSITIVE
Collision energy: 150
Fragmentation mode: CID
Ionization: ESI
Column name: Zorbax Eclipse Plus C18 2.1 mm x 150 mm, 3.5 um, Agilent
Retention time: 17.429 min
Precursor m/z: 411.172
Precursor type: [M+H]+
m/z	relative intensity
37.0074	118
38.0149	81
39.0231	799
41.0386	89
49.0066	65
50.0149	395
51.0229	999
61.0069	44
62.0143	77
63.0228	163
65.0384	941
74.0142	73
75.0221	48
76.0303	61
77.0386	444
78.0464	44
89.0378	48
91.0539	212
98.0145	28
99.0227	32
102.0458	81
113.0376	20
114.0461	28
115.0533	85
125.0382	40
126.0453	142
127.0548	36
128.0623	24
139.0533	159
150.0457	228
151.0535	244
152.0613	122
163.0536	53
165.0699	16
179.0598	16
200.0614	20
224.0614	77
225.0716	36
226.0767	20
