Mass spectrum: 14-Hydroxycodeinone; LC-ESI-QTOF; MS2; 30 V
Name: 14-Hydroxycodeinone
Class: Pharmaceutical; Transformation_product
Formula: C18H19NO4
Exact mass: 313.1314
SMILES: COc1ccc2C[C@H]3N(C)CC[C@@]45C(Oc1c24)C(=O)C=C[C@@]35O
InChI: InChI=1S/C18H19NO4/c1-19-8-7-17-14-10-3-4-12(22-2)15(14)23-16(17)11(20)5-6-18(17,21)13(19)9-10/h3-6,13,16,21H,7-9H2,1-2H3/t13-,16?,17+,18-/m1/s1
Instrument: TripleTOF 5600 SCIEX
Instrument type: LC-ESI-QTOF
Ms type: MS2
Ion mode: POSITIVE
Collision energy: 30
Fragmentation mode: CID
Ionization: ESI
Column name: Zorbax Eclipse Plus C18 2.1 mm x 150 mm, 3.5 um, Agilent
Retention time: 5.367 min
Precursor m/z: 314.1387
Precursor type: [M+H]+
m/z	relative intensity
159.069	18
195.0447	34
223.0993	24
227.0719	47
227.1053	23
236.1081	11
237.0931	11
237.1149	11
238.0878	24
239.0956	133
240.0788	10
252.1032	12
253.1108	43
254.1186	694
255.1016	84
264.1031	135
265.087	28
265.1092	11
266.0817	43
268.1338	99
278.1169	15
280.0975	34
281.1054	186
296.1291	999
314.1397	104
