Mass spectrum: 5-Aminosalicylic acid; LC-ESI-QTOF; MS2; 130 V
Name: 5-Aminosalicylic acid
Class: Pharmaceutical
Formula: C7H7NO3
Exact mass: 153.0426
SMILES: C1=CC(=C(C=C1N)C(=O)O)O
InChI: InChI=1S/C7H7NO3/c8-4-1-2-6(9)5(3-4)7(10)11/h1-3,9H,8H2,(H,10,11)
Instrument: TripleTOF 6600 SCIEX
Instrument type: LC-ESI-QTOF
Ms type: MS2
Ion mode: POSITIVE
Collision energy: 130
Fragmentation mode: CID
Ionization: ESI
Column name: Zorbax Eclipse Plus C18 2.1 mm x 150 mm, 3.5 um, Agilent
Retention time: 2.181 min
Precursor m/z: 154.0499
Precursor type: [M+H]+
m/z	relative intensity
35.9993	319
37.0072	847
38.0026	133
38.0151	325
39.0228	121
41.0253	23
49.0068	232
50.0148	278
51.0106	46
51.0228	52
52.0176	127
53.0018	232
59.9988	272
61.007	999
62.0148	307
63.0231	34
73.0066	104
74.0147	75
