Mass spectrum: Dronabinol; LC-ESI-QTOF; MS2; 40 V
Name: Dronabinol
Class: Pharmaceutical
Formula: C21H30O2
Exact mass: 314.2246
SMILES: CCCCCC1=CC(=C2C3C=C(CCC3C(OC2=C1)(C)C)C)O
InChI: InChI=1S/C21H30O2/c1-5-6-7-8-15-12-18(22)20-16-11-14(2)9-10-17(16)21(3,4)23-19(20)13-15/h11-13,16-17,22H,5-10H2,1-4H3
Instrument: TripleTOF 6600 SCIEX
Instrument type: LC-ESI-QTOF
Ms type: MS2
Ion mode: POSITIVE
Collision energy: 40
Fragmentation mode: CID
Ionization: ESI
Column name: Zorbax Eclipse Plus C18 2.1 mm x 150 mm, 3.5 um, Agilent
Retention time: 17.589 min
Precursor m/z: 315.2319
Precursor type: [M+H]+
m/z	relative intensity
39.0226	18
41.0379	56
43.0536	81
55.054	29
65.0382	11
67.0536	71
69.069	126
71.0841	26
77.0372	71
79.0528	109
81.0689	307
83.0482	17
91.0528	124
93.0687	277
95.0479	46
95.0846	31
105.0689	49
107.0475	46
107.0837	178
109.0642	58
109.1	103
111.0421	31
119.0849	36
121.0639	61
121.0996	21
123.0427	699
123.1156	17
131.0843	17
133.0624	13
133.1023	10
135.0417	17
135.0803	25
135.1151	105
136.0517	10
137.0579	125
143.085	13
145.0647	14
147.041	12
147.0796	19
149.059	26
149.0936	10
151.074	36
159.079	31
161.0575	36
161.0946	21
163.0749	33
165.0889	56
171.078	20
174.0651	22
175.0739	31
177.0911	36
177.1263	59
181.1197	22
188.0822	16
189.0886	28
189.125	11
193.1212	999
202.0978	11
205.1189	12
207.1363	76
217.1212	112
219.1332	13
221.1514	30
231.136	160
233.1515	80
235.1676	49
241.1582	20
245.1498	35
247.1683	50
259.1675	217
315.2346	15
