Mass spectrum: Hexazinone; LC-ESI-QTOF; MS2; 120 V
Name: Hexazinone
Class: Herbicide
Formula: C12H20N4O2
Exact mass: 252.1586
SMILES: CN1C(=NC(=O)N(C1=O)C2CCCCC2)N(C)C
InChI: InChI=1S/C12H20N4O2/c1-14(2)10-13-11(17)16(12(18)15(10)3)9-7-5-4-6-8-9/h9H,4-8H2,1-3H3
Instrument: TripleTOF 6600 SCIEX
Instrument type: LC-ESI-QTOF
Ms type: MS2
Ion mode: POSITIVE
Collision energy: 120
Fragmentation mode: CID
Ionization: ESI
Column name: Zorbax Eclipse Plus C18 2.1 mm x 150 mm, 3.5 um, Agilent
Retention time: 8.427 min
Precursor m/z: 253.1659
Precursor type: [M+H]+
m/z	relative intensity
30.0335	11
35.9993	13
37.0068	100
38.0022	25
38.0149	96
39.0226	338
41.0125	21
41.0387	51
41.9971	13
42.0336	275
44.0126	33
44.0492	51
53.0129	13
55.0288	637
55.0533	11
56.0366	190
57.0439	13
58.0303	11
58.0647	19
60.9852	19
69.0071	51
69.0441	999
69.9918	117
70.0518	53
71.0601	131
83.0239	19
85.0758	23
