Mass spectrum: 2-N-methyl-lamotrigine; LC-ESI-QTOF; MS2; 150 V
Name: 2-N-methyl-lamotrigine
Class: Metabolite; Pharmaceutical
Formula: C10H9Cl2N5
Exact mass: 269.0235
SMILES: CN1N=C(C2=CC=CC(Cl)=C2Cl)C(N)=NC1=N
InChI: InChI=1S/C10H9Cl2N5/c1-17-10(14)15-9(13)8(16-17)5-3-2-4-6(11)7(5)12/h2-4H,1H3,(H3,13,14,15)
Instrument: TripleTOF 5600 SCIEX
Instrument type: LC-ESI-QTOF
Ms type: MS2
Ion mode: POSITIVE
Collision energy: 150
Fragmentation mode: CID
Ionization: ESI
Column name: Zorbax Eclipse Plus C18 2.1 mm x 150 mm, 3.5 um, Agilent
Retention time: 6.444 min
Precursor m/z: 270.0308
Precursor type: [M+H]+
m/z	relative intensity
43.0383	289
57.0495	739
61.031	39
61.984	49
72.9863	219
73.0089	409
74.0177	999
75.0126	189
75.0243	209
76.0209	59
83.9817	59
84.002	39
85.0081	259
86.016	439
87.0248	169
88.0194	109
88.0326	49
96.9847	59
98.0055	69
99.0105	519
