Mass spectrum: 4-(4-Chloro-2-methylphenoxy)butanoic acid; LC-ESI-QTOF; MS2; 60 V
Name: 4-(4-Chloro-2-methylphenoxy)butanoic acid
Class: Herbicide
Formula: C11H13ClO3
Exact mass: 228.0553
SMILES: CC1=C(C=CC(=C1)Cl)OCCCC(=O)O
InChI: InChI=1S/C11H13ClO3/c1-8-7-9(12)4-5-10(8)15-6-2-3-11(13)14/h4-5,7H,2-3,6H2,1H3,(H,13,14)
Instrument: TripleTOF 6600 SCIEX
Instrument type: LC-ESI-QTOF
Ms type: MS2
Ion mode: POSITIVE
Collision energy: 60
Fragmentation mode: CID
Ionization: ESI
Column name: Zorbax Eclipse Plus C18 2.1 mm x 150 mm, 3.5 um, Agilent
Retention time: 11.775 min
Precursor m/z: 229.0626
Precursor type: [M+H]+
m/z	relative intensity
37.0066	84
38.0141	70
39.0228	619
41.0381	520
43.0181	562
43.0516	28
44.9969	112
45.0336	999
48.979	28
51.0216	42
55.0577	42
57.0696	14
65.0381	98
69.032	56
72.9848	56
74.0146	28
74.9985	14
75.0274	14
77.0382	211
78.0449	42
79.0536	70
87.0422	56
89.0373	309
90.0463	126
91.0531	267
98.9994	182
102.0462	28
103.0524	42
104.0583	14
107.0459	56
115.0521	154
119.0468	14
125.0155	154
127.0522	70
128.0612	140
129.0715	154
131.0437	28
132.0546	14
139.0553	28
155.0626	14
157.064	84
