Mass spectrum: Dodecyl gallate; LC-ESI-QTOF; MS2; 40 V
Name: Dodecyl gallate
Class: Food_additive; Personal_care_product
Formula: C19H30O5
Exact mass: 338.2093
SMILES: CCCCCCCCCCCCOC(=O)C1=CC(=C(C(=C1)O)O)O
InChI: InChI=1S/C19H30O5/c1-2-3-4-5-6-7-8-9-10-11-12-24-19(23)15-13-16(20)18(22)17(21)14-15/h13-14,20-22H,2-12H2,1H3
Instrument: TripleTOF 6600 SCIEX
Instrument type: LC-ESI-QTOF
Ms type: MS2
Ion mode: NEGATIVE
Collision energy: 40
Fragmentation mode: CID
Ionization: ESI
Column name: Zorbax Eclipse Plus C18 2.1 mm x 150 mm, 3.5 um, Agilent
Retention time: 15.985 min
Precursor m/z: 337.202
Precursor type: [M-H]-
m/z	relative intensity
78.0111	36
95.0133	13
123.0077	32
124.0162	999
125.0238	252
168.0054	72
169.0139	189
337.2	294
