Mass spectrum: Hostavin VSU P; LC-ESI-QTOF; MS2; 60 V
Name: Hostavin VSU P
Formula: C18H20N2O3
Exact mass: 312.1474
SMILES: CCC1=CC=CC=C1NC(=O)C(=O)NC2=CC=CC=C2OCC
InChI: InChI=1S/C18H20N2O3/c1-3-13-9-5-6-10-14(13)19-17(21)18(22)20-15-11-7-8-12-16(15)23-4-2/h5-12H,3-4H2,1-2H3,(H,19,21)(H,20,22)
Instrument: TripleTOF 5600 SCIEX
Instrument type: LC-ESI-QTOF
Ms type: MS2
Ion mode: POSITIVE
Collision energy: 60
Fragmentation mode: CID
Ionization: ESI
Column name: Zorbax Eclipse Plus C18 2.1 mm x 150 mm, 3.5 um, Agilent
Retention time: 15.402 min
Precursor m/z: 313.1547
Precursor type: [M+H]+
m/z	relative intensity
65.0389	204
77.0384	239
79.0534	93
80.0498	392
91.0539	153
92.048	179
93.0334	162
93.0565	85
94.066	102
103.0546	281
105.0696	102
106.0638	85
108.0445	273
109.0522	392
110.0599	222
117.0568	51
118.0631	128
119.0739	42
120.0445	68
120.0807	307
122.0955	145
130.0653	606
136.0389	999
148.0756	51
