Mass spectrum: Fenhexamid; LC-ESI-QTOF; MS2; 80 V
Name: Fenhexamid
Class: Fungicide
Formula: C14H17Cl2NO2
Exact mass: 301.0636
SMILES: CC1(CCCCC1)C(=O)Nc2ccc(c(c2Cl)Cl)O
InChI: InChI=1S/C14H17Cl2NO2/c1-14(7-3-2-4-8-14)13(19)17-9-5-6-10(18)12(16)11(9)15/h5-6,18H,2-4,7-8H2,1H3,(H,17,19)
Instrument: TripleTOF 6600 SCIEX
Instrument type: LC-ESI-QTOF
Ms type: MS2
Ion mode: POSITIVE
Collision energy: 80
Fragmentation mode: CID
Ionization: ESI
Column name: Zorbax Eclipse Plus C18 2.1 mm x 150 mm, 3.5 um, Agilent
Retention time: 12.5 min
Precursor m/z: 302.0709
Precursor type: [M+H]+
m/z	relative intensity
39.0228	79
41.0387	45
51.0221	33
52.0308	22
53.0381	50
55.0542	999
69.0695	28
79.042	50
80.049	56
114.0103	45
142.0042	33
143.013	90
