Mass spectrum: Phoxim; LC-ESI-QTOF; MS2; 150 V
Name: Phoxim
Class: Insecticide
Formula: C12H15N2O3PS
Exact mass: 298.0541
SMILES: CCOP(=S)(OCC)O/N=C(\C#N)/C1=CC=CC=C1
InChI: InChI=1S/C12H15N2O3PS/c1-3-15-18(19,16-4-2)17-14-12(10-13)11-8-6-5-7-9-11/h5-9H,3-4H2,1-2H3/b14-12+
Instrument: TripleTOF 6600 SCIEX
Instrument type: LC-ESI-QTOF
Ms type: MS2
Ion mode: POSITIVE
Collision energy: 150
Fragmentation mode: CID
Ionization: ESI
Column name: Zorbax Eclipse Plus C18 2.1 mm x 150 mm, 3.5 um, Agilent
Retention time: 14.575 min
Precursor m/z: 299.0614
Precursor type: [M+H]+
m/z	relative intensity
46.9675	96
49.0063	224
50.0144	999
51.0222	689
62.9621	38
74.0137	58
77.0381	19
78.9382	19
