Mass spectrum: Methacetin; LC-ESI-QTOF; MS2; 140 V
Name: Methacetin
Class: Pharmaceutical
Formula: C9H11NO2
Exact mass: 165.079
SMILES: COc1ccc(NC(C)=O)cc1
InChI: InChI=1S/C9H11NO2/c1-7(11)10-8-3-5-9(12-2)6-4-8/h3-6H,1-2H3,(H,10,11)
Instrument: TripleTOF 5600 SCIEX
Instrument type: LC-ESI-QTOF
Ms type: MS2
Ion mode: POSITIVE
Collision energy: 140
Fragmentation mode: CID
Ionization: ESI
Column name: Zorbax Eclipse Plus C18 2.1 mm x 150 mm, 3.5 um, Agilent
Retention time: 6.508 min
Precursor m/z: 166.0863
Precursor type: [M+H]+
m/z	relative intensity
40.0293	68
41.0365	81
42.0443	116
43.0291	999
43.0558	39
44.0223	111
52.0258	541
53.0098	91
54.0409	104
60.0055	573
62.0405	49
62.0502	38
73.0109	110
74.0186	191
75.0129	35
