Mass spectrum: Dimethomorph; LC-ESI-QTOF; MS2; 40 V
Name: Dimethomorph
Class: Fungicide
Formula: C21H22ClNO4
Exact mass: 387.1237
SMILES: COc1ccc(cc1OC)/C(=C\C(=O)N2CCOCC2)/c3ccc(cc3)Cl
InChI: InChI=1S/C21H22ClNO4/c1-25-19-8-5-16(13-20(19)26-2)18(15-3-6-17(22)7-4-15)14-21(24)23-9-11-27-12-10-23/h3-8,13-14H,9-12H2,1-2H3/b18-14-
Instrument: TripleTOF 5600 SCIEX
Instrument type: LC-ESI-QTOF
Ms type: MS2
Ion mode: POSITIVE
Collision energy: 40
Fragmentation mode: CID
Ionization: ESI
Column name: Zorbax Eclipse Plus C18 2.1 mm x 150 mm, 3.5 um, Agilent
Retention time: 11.552 min
Precursor m/z: 388.131
Precursor type: [M+H]+
m/z	relative intensity
70.032	26
114.0544	30
125.0149	19
137.0593	16
138.9942	132
165.0548	730
223.0738	14
238.0985	34
242.049	58
243.0196	21
257.0355	15
258.0436	100
266.0915	16
270.0427	22
273.067	200
286.0377	29
301.0619	999
