Mass spectrum: Enrofloxacin; LC-ESI-QTOF; MS2; 110 V
Name: Enrofloxacin
Class: Pharmaceutical; Antimicrobial
Formula: C19H22FN3O3
Exact mass: 359.1645
SMILES: CCN1CCN(CC1)c2cc3N(C=C(C(O)=O)C(=O)c3cc2F)C4CC4
InChI: InChI=1S/C19H22FN3O3/c1-2-21-5-7-22(8-6-21)17-10-16-13(9-15(17)20)18(24)14(19(25)26)11-23(16)12-3-4-12/h9-12H,2-8H2,1H3,(H,25,26)
Instrument: TripleTOF 5600 SCIEX
Instrument type: LC-ESI-QTOF
Ms type: MS2
Ion mode: POSITIVE
Collision energy: 110
Fragmentation mode: CID
Ionization: ESI
Column name: Zorbax Eclipse Plus C18 2.1 mm x 150 mm, 3.5 um, Agilent
Retention time: 5.696 min
Precursor m/z: 360.1718
Precursor type: [M+H]+
m/z	relative intensity
42.0434	416
44.0592	83
53.0076	199
56.0562	83
70.0684	116
74.0197	116
75.0253	266
77.0417	183
78.0384	116
81.017	116
83.0297	99
86.0189	66
88.0302	83
89.0392	249
93.013	83
94.0239	133
95.0296	116
98.0154	66
99.023	216
99.0344	83
100.0187	149
101.039	349
103.0559	83
105.0124	83
106.0195	133
107.0285	999
108.0331	316
109.0446	116
113.0382	99
114.0339	382
115.055	133
116.0496	116
120.038	133
121.0331	116
122.0382	116
125.0378	149
126.0364	316
127.0423	83
127.0534	149
128.0491	283
128.0609	116
130.0684	133
131.0249	133
132.0231	899
133.0314	233
133.0418	133
134.0399	382
135.0477	166
139.0286	83
139.0491	133
140.0488	249
141.0507	83
145.0446	183
146.0402	266
146.0526	83
147.0455	183
148.055	482
152.049	83
153.0578	99
154.0419	66
154.0622	216
155.0605	149
156.0569	83
158.0395	166
160.0469	266
161.0501	149
167.0591	99
172.0547	382
173.0527	149
174.0338	133
174.0603	166
185.0615	116
188.0247	66
