Mass spectrum: Metamitron; LC-ESI-QTOF; MS2; 80 V
Name: Metamitron
Class: Herbicide
Formula: C10H10N4O
Exact mass: 202.0855
SMILES: CC1=NN=C(c2ccccc2)C(=O)N1N
InChI: InChI=1S/C10H10N4O/c1-7-12-13-9(10(15)14(7)11)8-5-3-2-4-6-8/h2-6H,11H2,1H3
Instrument: TripleTOF 5600 SCIEX
Instrument type: LC-ESI-QTOF
Ms type: MS2
Ion mode: NEGATIVE
Collision energy: 80
Fragmentation mode: CID
Ionization: ESI
Column name: Zorbax Eclipse Plus C18 2.1 mm x 150 mm, 3.5 um, Agilent
Retention time: 6.783 min
Precursor m/z: 201.0782
Precursor type: [M-H]-
m/z	relative intensity
41.0081	570
41.0166	285
41.9991	142
117.0375	999
