Mass spectrum: (Vinylbenzyl)trimethyl ammonium; LC-ESI-QTOF; MS2; 40 V
Name: (Vinylbenzyl)trimethyl ammonium
Class: Industrial_process
Formula: [C12H18N]+
Exact mass: 176.1434
SMILES: C[N+](C)(C)Cc1ccc(cc1)C=C
InChI: InChI=1S/C12H18N/c1-5-11-6-8-12(9-7-11)10-13(2,3)4/h5-9H,1,10H2,2-4H3/q+1
Instrument: TripleTOF 5600 SCIEX
Instrument type: LC-ESI-QTOF
Ms type: MS2
Ion mode: POSITIVE
Collision energy: 40
Fragmentation mode: CID
Ionization: ESI
Column name: Zorbax Eclipse Plus C18 2.1 mm x 150 mm, 3.5 um, Agilent
Retention time: 5.404 min
Precursor m/z: 176.1434
Precursor type: [M]+
m/z	relative intensity
65.0427	172
77.0411	59
89.0393	86
91.0548	709
102.0468	97
115.0543	860
116.062	282
117.0699	999
