Mass spectrum: Parathion-methyl; LC-ESI-QTOF; MS2; 60 V
Name: Parathion-methyl
Class: Insecticide
Formula: C8H10NO5PS
Exact mass: 263.0017
SMILES: COP(=S)(OC)OC1=CC=C(C=C1)[N+](=O)[O-]
InChI: InChI=1S/C8H10NO5PS/c1-12-15(16,13-2)14-8-5-3-7(4-6-8)9(10)11/h3-6H,1-2H3
Instrument: TripleTOF 6600 SCIEX
Instrument type: LC-ESI-QTOF
Ms type: MS2
Ion mode: POSITIVE
Collision energy: 60
Fragmentation mode: CID
Ionization: ESI
Column name: Zorbax Eclipse Plus C18 2.1 mm x 150 mm, 3.5 um, Agilent
Retention time: 12.495 min
Precursor m/z: 264.009
Precursor type: [M+H]+
m/z	relative intensity
44.9785	296
46.9674	203
46.9937	462
50.0132	83
62.016	64
62.9443	111
63.0213	277
64.029	120
65.0393	55
68.9773	129
69.9862	74
74.0135	203
75.0217	999
76.0295	166
77.037	55
78.993	545
81.9854	83
83.0026	46
92.0231	83
93.0086	83
94.9922	46
96.0013	64
108.0008	175
109.0037	120
109.9918	55
124.9807	185
125.0163	46
125.9687	111
126.9754	46
138.9944	46
152.9535	37
153.9615	240
154.9692	397
