Mass spectrum: Sulfadiazine; LC-ESI-QTOF; MS2; 130 V
Name: Sulfadiazine
Class: Antimicrobial; Pharmaceutical
Formula: C10H10N4O2S
Exact mass: 250.0524
SMILES: C1=CN=C(N=C1)NS(=O)(=O)C2=CC=C(C=C2)N
InChI: InChI=1S/C10H10N4O2S/c11-8-2-4-9(5-3-8)17(15,16)14-10-12-6-1-7-13-10/h1-7H,11H2,(H,12,13,14)
Instrument: TripleTOF 5600 SCIEX
Instrument type: LC-ESI-QTOF
Ms type: MS2
Ion mode: POSITIVE
Collision energy: 130
Fragmentation mode: CID
Ionization: ESI
Column name: Zorbax Eclipse Plus C18 2.1 mm x 150 mm, 3.5 um, Agilent
Retention time: 5.24 min
Precursor m/z: 251.0597
Precursor type: [M+H]+
m/z	relative intensity
40.0295	76
51.0318	153
52.0269	96
53.0238	249
53.048	230
54.0433	96
65.0449	999
66.0417	96
74.0196	96
79.0341	172
80.054	134
