Mass spectrum: Lumichrome; LC-ESI-QTOF; MS2; 120 V
Name: Lumichrome
Class: Pharmaceutical
Formula: C12H10N4O2
Exact mass: 242.0804
SMILES: CC1=CC2=C(C=C1C)N=C3C(=N2)C(=O)NC(=O)N3
InChI: InChI=1S/C12H10N4O2/c1-5-3-7-8(4-6(5)2)14-10-9(13-7)11(17)16-12(18)15-10/h3-4H,1-2H3,(H2,14,15,16,17,18)
Instrument: TripleTOF 6600 SCIEX
Instrument type: LC-ESI-QTOF
Ms type: MS2
Ion mode: POSITIVE
Collision energy: 120
Fragmentation mode: CID
Ionization: ESI
Column name: Zorbax Eclipse Plus C18 2.1 mm x 150 mm, 3.5 um, Agilent
Retention time: 7.067 min
Precursor m/z: 243.0877
Precursor type: [M+H]+
m/z	relative intensity
37.0083	51
38.0162	37
39.0231	99
44.013	23
49.0076	143
50.0159	653
51.0233	999
52.0188	27
52.0317	23
60.0013	13
61.0077	78
62.0154	123
63.0233	171
64.0187	54
65.0391	65
73.0086	34
74.0155	270
75.0115	61
75.0235	181
76.0184	82
76.0309	41
77.0393	246
88.0182	17
89.0396	109
90.047	17
91.0539	17
