Mass spectrum: Fenarimol; LC-ESI-QTOF; MS2; 150 V
Name: Fenarimol
Class: Fungicide
Formula: C17H12Cl2N2O
Exact mass: 330.0327
SMILES: C1=CC=C(C(=C1)C(C2=CC=C(C=C2)Cl)(C3=CN=CN=C3)O)Cl
InChI: InChI=1S/C17H12Cl2N2O/c18-14-7-5-12(6-8-14)17(22,13-9-20-11-21-10-13)15-3-1-2-4-16(15)19/h1-11,22H
Instrument: TripleTOF 6600 SCIEX
Instrument type: LC-ESI-QTOF
Ms type: MS2
Ion mode: POSITIVE
Collision energy: 150
Fragmentation mode: CID
Ionization: ESI
Column name: Zorbax Eclipse Plus C18 2.1 mm x 150 mm, 3.5 um, Agilent
Retention time: 11.9 min
Precursor m/z: 331.04
Precursor type: [M+H]+
m/z	relative intensity
49.0068	52
50.0149	198
51.0228	94
54.0337	36
62.0146	41
63.0226	78
73.0069	83
74.0148	999
75.0223	491
76.0301	36
84.983	57
85.0065	26
86.015	73
87.0227	67
89.0372	41
98.0136	41
99.0222	31
110.0145	73
110.9983	26
111.0215	41
113.039	41
122.0157	26
134.0134	47
135.0241	31
137.037	31
150.0449	62
161.0373	94
162.0454	47
163.0533	47
174.046	31
175.0526	26
185.0388	151
186.0457	130
187.0537	141
201.0555	26
