Mass spectrum: 17alpha-Hydroxyprogesterone; LC-ESI-QTOF; MS2; 40 V
Name: 17alpha-Hydroxyprogesterone
Class: Pharmaceutical
Formula: C21H30O3
Exact mass: 330.2195
SMILES: CC(=O)[C@@]1(O)CC[C@H]2[C@@H]3CCC4=CC(=O)CC[C@]4(C)[C@H]3CC[C@]12C
InChI: InChI=1S/C21H30O3/c1-13(22)21(24)11-8-18-16-5-4-14-12-15(23)6-9-19(14,2)17(16)7-10-20(18,21)3/h12,16-18,24H,4-11H2,1-3H3/t16-,17+,18+,19+,20+,21+/m1/s1
Instrument: TripleTOF 5600 SCIEX
Instrument type: LC-ESI-QTOF
Ms type: MS2
Ion mode: POSITIVE
Collision energy: 40
Fragmentation mode: CID
Ionization: ESI
Column name: Zorbax Eclipse Plus C18 2.1 mm x 150 mm, 3.5 um, Agilent
Retention time: 11.808 min
Precursor m/z: 331.2268
Precursor type: [M+H]+
m/z	relative intensity
43.0259	45
67.0567	22
69.0729	23
77.0416	22
79.0567	91
81.0722	84
83.0508	53
91.0556	42
93.0707	47
95.0871	66
97.0664	973
105.0699	61
107.0861	47
109.0656	999
109.0999	11
111.0805	14
117.0701	22
119.0856	82
121.0643	25
121.1007	34
123.0804	161
129.069	22
131.0849	55
133.101	55
135.0807	18
135.1165	21
137.0953	35
142.0768	10
143.085	53
145.101	110
147.079	17
147.1168	86
149.0964	28
149.132	11
155.0856	25
157.1019	57
159.1168	98
161.0952	18
161.1321	34
163.1121	77
163.147	11
169.1004	41
171.1163	81
173.1322	61
175.1113	27
175.1482	45
177.1278	43
181.0998	13
183.1167	35
185.1327	43
187.1128	13
187.1473	41
189.1265	33
191.1443	12
195.1166	28
197.1321	49
199.1479	39
201.126	10
203.1426	11
205.1558	11
209.1328	22
211.1483	49
213.1264	10
213.1639	46
215.1421	11
217.1591	15
223.1499	13
225.1625	22
227.1826	12
229.159	14
235.1483	13
237.1627	38
241.1622	10
243.175	11
251.1792	19
252.1874	15
253.1951	77
255.1741	26
269.1891	14
270.1976	17
271.2054	45
277.1956	11
295.2049	33
313.2166	21
331.2274	15
