Mass spectrum: Bupropion; LC-ESI-QTOF; MS2; 90 V
Name: Bupropion
Class: Pharmaceutical
Formula: C13H18ClNO
Exact mass: 239.1077
SMILES: CC(C(=O)C1=CC(=CC=C1)Cl)NC(C)(C)C
InChI: InChI=1S/C13H18ClNO/c1-9(15-13(2,3)4)12(16)10-6-5-7-11(14)8-10/h5-9,15H,1-4H3
Instrument: TripleTOF 5600 SCIEX
Instrument type: LC-ESI-QTOF
Ms type: MS2
Ion mode: POSITIVE
Collision energy: 90
Fragmentation mode: CID
Ionization: ESI
Column name: Zorbax Eclipse Plus C18 2.1 mm x 150 mm, 3.5 um, Agilent
Retention time: 6.717 min
Precursor m/z: 240.115
Precursor type: [M+H]+
m/z	relative intensity
57.0741	103
58.0752	10
74.0183	68
75.0253	153
76.0312	12
77.0415	956
77.0796	24
78.0482	73
84.9852	18
89.04	187
102.047	60
103.0543	381
104.0609	10
110.9981	68
116.0479	17
128.0474	77
130.0645	999
131.0461	12
