Mass spectrum: Acridone; LC-ESI-QTOF; MS2; 50 V
Name: Acridone
Class: Metabolite; Pharmaceutical; Transformation_product
Formula: C13H9NO
Exact mass: 195.0684
SMILES: O=C1c2ccccc2Nc3ccccc13
InChI: InChI=1S/C13H9NO/c15-13-9-5-1-3-7-11(9)14-12-8-4-2-6-10(12)13/h1-8H,(H,14,15)
Instrument: TripleTOF 5600 SCIEX
Instrument type: LC-ESI-QTOF
Ms type: CID
Ion mode: POSITIVE
Collision energy: 50
Ionization: ESI
Column name: Zorbax Eclipse Plus C18 2.1 mm x 150 mm, 3.5 um, Agilent
Retention time: 8.5 min
Precursor m/z: 196.0757
Precursor type: [M+H]+
m/z	relative intensity
77.041	16
115.0543	49
128.0495	27
139.0545	131
140.0565	86
141.0688	13
151.0541	31
166.0656	379
167.0731	999
168.081	20
177.0569	14
178.0639	18
195.068	99
196.0758	140
