Mass spectrum: Laureth-5; LC-ESI-QTOF; MS2; 110 V
Name: Laureth-5
Formula: C22H46O6
Exact mass: 406.3294
SMILES: CCCCCCCCCCCCOCCOCCOCCOCCOCCO
InChI: InChI=1S/C22H46O6/c1-2-3-4-5-6-7-8-9-10-11-13-24-15-17-26-19-21-28-22-20-27-18-16-25-14-12-23/h23H,2-22H2,1H3
Instrument: TripleTOF 6600 SCIEX
Instrument type: LC-ESI-QTOF
Ms type: MS2
Ion mode: POSITIVE
Collision energy: 110
Fragmentation mode: CID
Ionization: ESI
Column name: Zorbax Eclipse Plus C18 2.1 mm x 150 mm, 3.5 um, Agilent
Retention time: 17.227 min
Precursor m/z: 407.3367
Precursor type: [M+H]+
m/z	relative intensity
39.0225	89
41.0384	256
43.0174	56
43.0538	157
45.0335	999
55.054	18
57.0689	46
