Mass spectrum: 2-(3-Pyridyl)-1H-benzimidazole; LC-ESI-QTOF; MS2; 50 V
Name: 2-(3-Pyridyl)-1H-benzimidazole
Class: Pharmaceutical
Formula: C12H9N3
Exact mass: 195.0796
SMILES: C1=CC=C2C(=C1)NC(=N2)C3=CN=CC=C3
InChI: InChI=1S/C12H9N3/c1-2-6-11-10(5-1)14-12(15-11)9-4-3-7-13-8-9/h1-8H,(H,14,15)
Instrument: TripleTOF 5600 SCIEX
Instrument type: LC-ESI-QTOF
Ms type: MS2
Ion mode: POSITIVE
Collision energy: 50
Fragmentation mode: CID
Ionization: ESI
Column name: Zorbax Eclipse Plus C18 2.1 mm x 150 mm, 3.5 um, Agilent
Retention time: 5.155 min
Precursor m/z: 196.0869
Precursor type: [M+H]+
m/z	relative intensity
38.015	10
39.023	74
51.0229	21
65.0387	999
77.0389	11
78.0338	37
79.0416	10
92.0498	431
105.0443	11
115.0545	18
119.0599	12
155.0617	12
156.0682	24
168.0684	94
169.0764	156
194.071	17
195.0807	14
196.087	88
