Mass spectrum: N-(2-Methoxyphenyl)acetamide; LC-ESI-QTOF; MS2; 20 V
Name: N-(2-Methoxyphenyl)acetamide
Formula: C9H11NO2
Exact mass: 165.079
SMILES: CC(=O)NC1=CC=CC=C1OC
InChI: InChI=1S/C9H11NO2/c1-7(11)10-8-5-3-4-6-9(8)12-2/h3-6H,1-2H3,(H,10,11)
Instrument: TripleTOF 5600 SCIEX
Instrument type: LC-ESI-QTOF
Ms type: MS2
Ion mode: POSITIVE
Collision energy: 20
Fragmentation mode: CID
Ionization: ESI
Column name: Zorbax Eclipse Plus C18 2.1 mm x 150 mm, 3.5 um, Agilent
Retention time: 7.374 min
Precursor m/z: 166.0863
Precursor type: [M+H]+
m/z	relative intensity
45.0336	215
77.0383	15
79.0545	29
91.0543	10
94.0665	20
106.0652	999
134.0591	48
138.0929	12
166.0861	106
