Mass spectrum: Propranolol; LC-ESI-QTOF; MS2; 130 V
Name: Propranolol
Class: Pharmaceutical
Formula: C16H21NO2
Exact mass: 259.1572
SMILES: CC(C)NCC(O)COc1cccc2ccccc12
InChI: InChI=1S/C16H21NO2/c1-12(2)17-10-14(18)11-19-16-9-5-7-13-6-3-4-8-15(13)16/h3-9,12,14,17-18H,10-11H2,1-2H3
Instrument: TripleTOF 5600 SCIEX
Instrument type: LC-ESI-QTOF
Ms type: MS2
Ion mode: POSITIVE
Collision energy: 130
Fragmentation mode: CID
Ionization: ESI
Column name: Zorbax Eclipse Plus C18 2.1 mm x 150 mm, 3.5 um, Agilent
Retention time: 7.356 min
Precursor m/z: 260.1645
Precursor type: [M+H]+
m/z	relative intensity
42.0446	69
44.0572	115
52.0369	38
56.0552	153
58.0707	130
65.0423	245
73.0122	61
74.0188	868
75.026	922
76.0337	361
77.0412	999
78.0486	222
78.0682	38
85.0079	46
86.0163	161
87.0249	161
88.0319	30
89.0402	445
91.0549	30
98.0165	184
99.0268	61
100.0332	38
101.0385	122
102.0473	484
102.0677	30
113.04	76
115.0541	522
126.0469	461
127.0538	338
128.0634	199
139.0564	76
150.0465	130
151.0557	138
152.0613	99
163.055	61
