Mass spectrum: 1-(2,6-Dichlorophenyl)-2-indolinone; LC-ESI-QTOF; MS2; 130 V
Name: 1-(2,6-Dichlorophenyl)-2-indolinone
Class: Pharmaceutical; Transformation_product; Diclofenac-lactam; Transformation_product-Metabolite
Formula: C14H9Cl2NO
Exact mass: 277.0061
SMILES: C1C2=CC=CC=C2N(C1=O)C3=C(C=CC=C3Cl)Cl
InChI: InChI=1S/C14H9Cl2NO/c15-10-5-3-6-11(16)14(10)17-12-7-2-1-4-9(12)8-13(17)18/h1-7H,8H2
Instrument: TripleTOF 5600 SCIEX
Instrument type: LC-ESI-QTOF
Ms type: MS2
Ion mode: POSITIVE
Collision energy: 130
Fragmentation mode: CID
Ionization: ESI
Column name: Zorbax Eclipse Plus C18 2.1 mm x 150 mm, 3.5 um, Agilent
Retention time: 12.191 min
Precursor m/z: 278.0134
Precursor type: [M+H]+
m/z	relative intensity
49.0159	43
50.0252	331
61.0145	36
62.0233	76
63.0296	152
72.9875	19
73.0126	126
74.0213	955
75.0288	434
76.0361	185
77.0442	866
78.053	63
79.061	36
83.9821	23
85.0117	19
86.0192	63
87.0278	89
88.0321	19
89.0433	132
90.041	13
97.0119	26
98.0182	358
99.026	371
100.0339	132
101.0413	92
102.0489	116
103.0425	16
104.0515	23
108.9863	16
109.0105	26
110.0173	66
111.0264	49
112.0186	13
113.0403	39
114.0412	16
122.0163	56
123.0235	82
124.031	66
125.0406	169
126.0479	275
127.0503	92
128.0504	29
128.0657	16
139.0484	16
140.051	19
149.0385	215
150.0472	999
151.0554	418
152.0556	192
164.0462	16
175.0427	89
176.0516	102
177.0572	165
178.0663	116
