Mass spectrum: Acridone; LC-ESI-QTOF; MS2; 90 V
Name: Acridone
Class: Metabolite; Pharmaceutical; Transformation_product
Formula: C13H9NO
Exact mass: 195.0684
SMILES: O=C1c2ccccc2Nc3ccccc13
InChI: InChI=1S/C13H9NO/c15-13-9-5-1-3-7-11(9)14-12-8-4-2-6-10(12)13/h1-8H,(H,14,15)
Instrument: TripleTOF 5600 SCIEX
Instrument type: LC-ESI-QTOF
Ms type: MS2
Ion mode: NEGATIVE
Collision energy: 90
Fragmentation mode: CID
Ionization: ESI
Column name: Zorbax Eclipse Plus C18 2.1 mm x 150 mm, 3.5 um, Agilent
Retention time: 8.5 min
Precursor m/z: 194.0611
Precursor type: [M-H]-
m/z	relative intensity
41.0059	95
42.0073	95
50.0047	142
63.0138	95
65.003	206
65.9986	999
73.0079	126
74.0029	79
88.0175	190
90.0343	79
138.0333	95
162.0336	63
