Mass spectrum: Disperse orange 3; LC-ESI-QTOF; MS2; 60 V
Name: Disperse orange 3
Formula: C12H10N4O2
Exact mass: 242.0804
SMILES: C1=CC(=CC=C1N)N=NC2=CC=C(C=C2)[N+](=O)[O-]
InChI: InChI=1S/C12H10N4O2/c13-9-1-3-10(4-2-9)14-15-11-5-7-12(8-6-11)16(17)18/h1-8H,13H2
Instrument: TripleTOF 6600 SCIEX
Instrument type: LC-ESI-QTOF
Ms type: MS2
Ion mode: POSITIVE
Collision energy: 60
Fragmentation mode: CID
Ionization: ESI
Column name: Zorbax Eclipse Plus C18 2.1 mm x 150 mm, 3.5 um, Agilent
Retention time: 12.729 min
Precursor m/z: 243.0877
Precursor type: [M+H]+
m/z	relative intensity
39.0216	12
49.0068	14
50.0142	349
52.0294	15
62.0131	22
63.0213	197
64.029	75
65.0373	98
66.0447	121
73.0055	19
74.0133	227
75.0215	999
76.0293	730
77.0361	12
78.0322	23
79.0399	74
80.0485	25
92.0243	38
92.0476	95
93.0555	380
105.0431	134
106.0506	32
107.0577	15
115.052	10
167.0701	18
