Mass spectrum: Iminostilbene; LC-ESI-QTOF; MS2; 80 V
Name: Iminostilbene
Class: Pharmaceutical
Formula: C14H11N
Exact mass: 193.0891
SMILES: C1=CC=C2C(=C1)C=CC3=CC=CC=C3N2
InChI: InChI=1S/C14H11N/c1-3-7-13-11(5-1)9-10-12-6-2-4-8-14(12)15-13/h1-10,15H
Instrument: TripleTOF 6600 SCIEX
Instrument type: LC-ESI-QTOF
Ms type: MS2
Ion mode: POSITIVE
Collision energy: 80
Fragmentation mode: CID
Ionization: ESI
Column name: Zorbax Eclipse Plus C18 2.1 mm x 150 mm, 3.5 um, Agilent
Retention time: 13.175 min
Precursor m/z: 194.0964
Precursor type: [M+H]+
m/z	relative intensity
37.0039	47
38.0118	39
39.0195	189
41.0344	10
49.0023	16
50.0105	177
51.0185	359
52.026	21
61.0018	31
62.0094	107
63.0174	471
64.0246	45
65.0327	143
74.0084	173
75.016	231
76.0237	146
77.0316	342
78.0393	61
86.0071	48
87.015	107
88.0103	17
88.0219	33
89.0306	869
90.0376	79
91.0454	44
98.0058	86
99.0136	112
100.0211	58
101.0292	121
102.025	16
102.0368	178
103.0318	16
110.0048	14
111.0125	20
113.0282	244
114.0231	38
114.0347	42
115.0437	410
116.0383	54
117.0468	27
123.011	18
124.0194	19
125.027	156
126.0346	308
127.0309	58
127.0418	56
128.038	136
129.033	37
129.0448	11
137.0257	76
138.0334	68
139.0417	742
140.0371	475
149.0251	86
150.0329	723
151.0402	513
152.0431	276
153.0429	49
162.0314	74
163.0398	999
164.0454	637
165.0547	458
166.0501	203
167.0577	49
174.0303	16
175.0268	32
176.0343	96
177.0414	271
178.0487	128
179.045	25
188.0323	74
189.0405	177
190.0482	958
191.0557	631
192.0636	60
