Mass spectrum: 4,4-Chlorophenoxyphenol; LC-ESI-QTOF; MS2; 30 V
Name: 4,4-Chlorophenoxyphenol
Class: Herbicide
Formula: C12H9ClO2
Exact mass: 220.0291
SMILES: c1cc(ccc1O)Oc2ccc(cc2)Cl
InChI: InChI=1S/C12H9ClO2/c13-9-1-5-11(6-2-9)15-12-7-3-10(14)4-8-12/h1-8,14H
Instrument: TripleTOF 5600 SCIEX
Instrument type: LC-ESI-QTOF
Ms type: MS2
Ion mode: POSITIVE
Collision energy: 30
Fragmentation mode: CID
Ionization: ESI
Column name: Zorbax Eclipse Plus C18 2.1 mm x 150 mm, 3.5 um, Agilent
Retention time: 12.354 min
Precursor m/z: 221.0364
Precursor type: [M+H]+
m/z	relative intensity
57.0742	126
65.0429	57
67.0589	149
69.0739	103
77.0425	91
79.0554	114
81.034	57
81.0738	195
83.051	45
91.0555	218
93.0707	195
94.0426	275
98.999	103
105.0693	172
109.0309	195
109.0633	183
110.0352	137
111.0808	378
117.0702	45
119.0849	264
121.064	378
123.0785	91
126.9954	172
128.0013	57
128.0624	91
129.0689	103
130.0724	57
135.0796	195
137.0575	57
138.0664	45
139.0537	183
147.0779	103
157.0638	206
158.0613	57
158.075	126
167.0474	57
168.0563	597
185.0584	229
186.0657	999
203.029	45
221.0321	160
