Mass spectrum: Fingolimod; LC-ESI-QTOF; MS2; 40 V
Name: Fingolimod
Class: Pharmaceutical
Formula: C19H33NO2
Exact mass: 307.2511
SMILES: CCCCCCCCC1=CC=C(C=C1)CCC(CO)(CO)N
InChI: InChI=1S/C19H33NO2/c1-2-3-4-5-6-7-8-17-9-11-18(12-10-17)13-14-19(20,15-21)16-22/h9-12,21-22H,2-8,13-16,20H2,1H3
Instrument: TripleTOF 6600 SCIEX
Instrument type: LC-ESI-QTOF
Ms type: MS2
Ion mode: POSITIVE
Collision energy: 40
Fragmentation mode: CID
Ionization: ESI
Column name: Zorbax Eclipse Plus C18 2.1 mm x 150 mm, 3.5 um, Agilent
Retention time: 10.17 min
Precursor m/z: 308.2584
Precursor type: [M+H]+
m/z	relative intensity
39.0219	17
41.0377	70
43.0538	128
55.0531	32
57.0689	321
65.0377	15
69.0683	32
71.0842	178
77.0374	17
79.0532	35
91.0531	338
103.0526	15
105.0687	999
115.0523	37
117.0686	128
119.0843	87
127.0516	35
128.0605	190
129.0684	178
130.0775	12
131.0843	200
133.0988	12
141.069	50
142.0766	117
143.0844	351
145.0992	75
155.0583	17
156.094	32
157.0999	288
159.1149	10
161.0927	25
171.1137	12
203.1775	37
229.1944	25
243.2102	52
255.21	416
273.2183	10
308.2609	20
