Mass spectrum: Beclomethasone; LC-ESI-QTOF; MS2; 110 V
Name: Beclomethasone
Class: Pharmaceutical
Formula: C22H29ClO5
Exact mass: 408.1704
SMILES: CC1CC2C3CCC4=CC(=O)C=CC4(C3(C(CC2(C1(C(=O)CO)O)C)O)Cl)C
InChI: InChI=1S/C22H29ClO5/c1-12-8-16-15-5-4-13-9-14(25)6-7-19(13,2)21(15,23)17(26)10-20(16,3)22(12,28)18(27)11-24/h6-7,9,12,15-17,24,26,28H,4-5,8,10-11H2,1-3H3
Instrument: TripleTOF 5600 SCIEX
Instrument type: LC-ESI-QTOF
Ms type: MS2
Ion mode: POSITIVE
Collision energy: 110
Fragmentation mode: CID
Ionization: ESI
Column name: Zorbax Eclipse Plus C18 2.1 mm x 150 mm, 3.5 um, Agilent
Retention time: 9.326 min
Precursor m/z: 409.1776
Precursor type: [M+H]+
m/z	relative intensity
65.0388	218
77.0384	936
79.0534	218
91.0546	999
93.0701	156
103.0532	187
105.0706	218
107.0468	187
115.0542	718
121.0645	405
127.054	187
128.0629	842
129.0694	218
131.0471	187
141.0698	312
142.0779	156
151.0537	124
152.0638	530
153.0721	312
157.06	124
165.0712	936
167.0854	156
176.0653	187
177.0696	280
178.0783	561
179.0835	156
181.0628	187
189.0691	718
190.0765	187
194.0731	156
195.0775	124
202.0786	437
203.0885	187
215.0852	468
218.0764	156
226.0814	156
228.0982	280
231.0811	312
