Mass spectrum: Dextrorphan; LC-ESI-QTOF; MS2; 120 V
Name: Dextrorphan
Class: Pharmaceutical; Metabolite
Formula: C17H23NO
Exact mass: 257.178
SMILES: CN1CC[C@@]23CCCC[C@@H]2[C@@H]1CC4=C3C=C(C=C4)O
InChI: InChI=1S/C17H23NO/c1-18-9-8-17-7-3-2-4-14(17)16(18)10-12-5-6-13(19)11-15(12)17/h5-6,11,14,16,19H,2-4,7-10H2,1H3/t14-,16+,17+/m1/s1
Instrument: TripleTOF 5600 SCIEX
Instrument type: LC-ESI-QTOF
Ms type: MS2
Ion mode: POSITIVE
Collision energy: 120
Fragmentation mode: CID
Ionization: ESI
Column name: Zorbax Eclipse Plus C18 2.1 mm x 150 mm, 3.5 um, Agilent
Retention time: 5.969 min
Precursor m/z: 258.1852
Precursor type: [M+H]+
m/z	relative intensity
44.0578	43
44.0667	11
65.043	116
66.0513	13
74.0194	90
75.0261	165
76.0344	106
77.0424	999
78.0497	185
79.0571	30
86.0171	28
87.0246	51
88.0331	23
89.0402	293
90.0476	15
91.0558	75
94.0429	11
98.0167	21
99.0235	16
101.0401	75
102.0474	443
103.0546	110
107.0496	18
113.0394	43
114.0465	16
115.0549	530
116.0644	15
118.0431	18
125.0402	18
126.0472	186
127.0546	411
128.0624	677
131.0503	46
138.0471	10
139.0544	91
141.0711	13
150.047	43
151.0552	56
152.0623	90
163.0548	40
164.0632	23
165.0683	28
