Mass spectrum: Carbadox; LC-ESI-QTOF; MS2; 100 V
Name: Carbadox
Class: Antimicrobial; Pharmaceutical
Formula: C11H10N4O4
Exact mass: 262.0702
SMILES: COC(=O)N=NC=C1C=[N+]([O-])c2ccccc2N1O
InChI: InChI=1S/C11H10N4O4/c1-19-11(16)13-12-6-8-7-14(17)9-4-2-3-5-10(9)15(8)18/h2-7,18H,1H3
Instrument: TripleTOF 5600 SCIEX
Instrument type: LC-ESI-QTOF
Ms type: MS2
Ion mode: POSITIVE
Collision energy: 100
Fragmentation mode: CID
Ionization: ESI
Column name: Zorbax Eclipse Plus C18 2.1 mm x 150 mm, 3.5 um, Agilent
Retention time: 5.823 min
Precursor m/z: 263.0775
Precursor type: [M+H]+
m/z	relative intensity
51.0288	680
52.0254	95
63.0138	31
63.0543	26
65.0296	58
65.0427	37
73.0102	58
74.0179	642
75.0126	58
75.0257	999
76.0314	669
76.0509	21
77.0408	297
78.0346	42
78.0466	26
79.044	21
88.0198	42
88.0304	21
89.0271	42
89.0384	31
90.0353	106
90.0513	26
91.043	37
100.0167	42
101.0365	21
102.0341	451
103.0421	100
114.0351	37
116.0386	31
129.0466	31
130.039	63
