Mass spectrum: Saluamine; LC-ESI-QTOF; MS2; 50 V
Name: Saluamine
Class: Pharmaceutical; Transformation_product-Metabolite
Formula: C7H7ClN2O4S
Exact mass: 249.9815
SMILES: Nc1cc(Cl)c(cc1C(O)=O)[S](N)(=O)=O
InChI: InChI=1S/C7H7ClN2O4S/c8-4-2-5(9)3(7(11)12)1-6(4)15(10,13)14/h1-2H,9H2,(H,11,12)(H2,10,13,14)
Instrument: TripleTOF 5600 SCIEX
Instrument type: LC-ESI-QTOF
Ms type: MS2
Ion mode: POSITIVE
Collision energy: 50
Fragmentation mode: CID
Ionization: ESI
Column name: Zorbax Eclipse Plus C18 2.1 mm x 150 mm, 3.5 um, Agilent
Retention time: 5.713 min
Precursor m/z: 250.9888
Precursor type: [M+H]+
m/z	relative intensity
78.0355	70
86.9999	56
89.0273	478
90.0362	253
96.9849	98
96.993	70
97.9916	70
99.9948	140
101.0019	126
106.0507	168
114.011	323
123.9943	999
125.0014	872
130.0043	98
134.0452	98
139.9913	126
142.009	70
151.9917	168
152.9958	422
155.0005	492
155.9841	970
157.0138	112
158.0005	70
167.9864	56
232.9777	112
