Mass spectrum: Prosulfuron; LC-ESI-QTOF; MS2; 130 V
Name: Prosulfuron
Class: Herbicide
Formula: C15H16F3N5O4S
Exact mass: 419.0875
SMILES: CC1=NC(=NC(=N1)OC)NC(=O)NS(=O)(=O)C2=CC=CC=C2CCC(F)(F)F
InChI: InChI=1S/C15H16F3N5O4S/c1-9-19-12(22-14(20-9)27-2)21-13(24)23-28(25,26)11-6-4-3-5-10(11)7-8-15(16,17)18/h3-6H,7-8H2,1-2H3,(H2,19,20,21,22,23,24)
Instrument: TripleTOF 6600 SCIEX
Instrument type: LC-ESI-QTOF
Ms type: MS2
Ion mode: POSITIVE
Collision energy: 130
Fragmentation mode: CID
Ionization: ESI
Column name: Zorbax Eclipse Plus C18 2.1 mm x 150 mm, 3.5 um, Agilent
Retention time: 11.847 min
Precursor m/z: 420.0948
Precursor type: [M+H]+
m/z	relative intensity
30.0314	31
33.0116	13
39.0203	34
41.011	38
42.0317	490
43.0268	650
44.0107	29
50.0116	11
51.0214	22
56.0098	13
56.047	150
57.011	225
57.0422	298
58.0262	230
59.0261	84
61.0039	27
62.0122	52
63.0201	139
67.0255	15
68.0217	317
69.0054	394
77.0359	47
78.0444	22
81.0104	34
83.0262	999
85.0364	15
89.0354	123
100.0463	11
107.0259	25
109.0417	408
115.0511	11
133.0406	43
151.0327	11
