Mass spectrum: Tetracycline; LC-ESI-QTOF; MS2; 40 V
Name: Tetracycline
Class: Pharmaceutical
Formula: C22H24N2O8
Exact mass: 444.1533
SMILES: CC1(C2CC3C(C(=O)C(=C(C3(C(=O)C2=C(C4=C1C=CC=C4O)O)O)O)C(=O)N)N(C)C)O
InChI: InChI=1S/C22H24N2O8/c1-21(31)8-5-4-6-11(25)12(8)16(26)13-9(21)7-10-15(24(2)3)17(27)14(20(23)30)19(29)22(10,32)18(13)28/h4-6,9-10,15,25-26,29,31-32H,7H2,1-3H3,(H2,23,30)
Instrument: TripleTOF 5600 SCIEX
Instrument type: LC-ESI-QTOF
Ms type: MS2
Ion mode: POSITIVE
Collision energy: 40
Fragmentation mode: CID
Ionization: ESI
Column name: Zorbax Eclipse Plus C18 2.1 mm x 150 mm, 3.5 um, Agilent
Retention time: 5.46 min
Precursor m/z: 445.1605
Precursor type: [M+H]+
m/z	relative intensity
70.0656	20
98.0614	76
126.0556	34
154.0498	222
168.0596	20
195.0807	27
213.1002	13
223.0717	48
226.063	76
239.075	27
241.0698	13
241.0896	117
242.0577	27
243.0551	41
251.0582	34
252.0404	48
257.0785	48
257.0901	13
267.0675	104
269.0802	194
278.0568	34
291.0602	27
291.0847	41
293.0798	41
295.055	20
296.1161	34
297.0759	34
303.0738	13
304.0447	41
319.0599	20
321.0728	90
334.049	41
337.0452	13
337.0724	173
349.0695	97
365.0638	69
365.0824	13
392.1069	27
392.1184	55
410.1255	999
427.1552	83
428.1287	20
