Mass spectrum: Cybutryne-N-descyclopropyl; LC-ESI-QTOF; MS2; 10 V
Name: Cybutryne-N-descyclopropyl
Class: Fungicide; Metabolite; Transformation_product; Herbicide
Formula: C8H15N5S
Exact mass: 213.1048
SMILES: CC(C)(C)Nc1[nH]c(nc(=N)n1)SC
InChI: InChI=1S/C8H15N5S/c1-8(2,3)13-6-10-5(9)11-7(12-6)14-4/h1-4H3,(H3,9,10,11,12,13)
Instrument: TripleTOF 5600 SCIEX
Instrument type: LC-ESI-QTOF
Ms type: MS2
Ion mode: POSITIVE
Collision energy: 10
Fragmentation mode: CID
Ionization: ESI
Column name: Zorbax Eclipse Plus C18 2.1 mm x 150 mm, 3.5 um, Agilent
Retention time: 7.502 min
Precursor m/z: 214.1121
Precursor type: [M+H]+
m/z	relative intensity
77.0407	10
140.9999	59
158.0273	199
214.1026	999
