Mass spectrum: Benzyl-dimethyl-octylammonium; LC-ESI-QTOF; MS2; 50 V
Name: Benzyl-dimethyl-octylammonium
Class: Industrial_process
Formula: [C17H30N]+
Exact mass: 248.2373
SMILES: CCCCCCCC[N+](C)(C)Cc1ccccc1
InChI: InChI=1S/C17H30N/c1-4-5-6-7-8-12-15-18(2,3)16-17-13-10-9-11-14-17/h9-11,13-14H,4-8,12,15-16H2,1-3H3/q+1
Instrument: TripleTOF 5600 SCIEX
Instrument type: LC-ESI-QTOF
Ms type: MS2
Ion mode: POSITIVE
Collision energy: 50
Fragmentation mode: CID
Ionization: ESI
Column name: Zorbax Eclipse Plus C18 2.1 mm x 150 mm, 3.5 um, Agilent
Retention time: 9.034 min
Precursor m/z: 248.2373
Precursor type: [M]+
m/z	relative intensity
58.0708	120
65.0434	102
91.0563	999
