Mass spectrum: 3-(4-Bromobutyl)-6-methylpyrimidin-4-one; LC-ESI-QTOF; MS2; 80 V
Name: 3-(4-Bromobutyl)-6-methylpyrimidin-4-one
Formula: C9H13BrN2O
Exact mass: 244.0211
SMILES: CC1=CC(=O)N(C=N1)CCCCBr
InChI: InChI=1S/C9H13BrN2O/c1-8-6-9(13)12(7-11-8)5-3-2-4-10/h6-7H,2-5H2,1H3
Instrument: TripleTOF 6600 SCIEX
Instrument type: LC-ESI-QTOF
Ms type: MS2
Ion mode: POSITIVE
Collision energy: 80
Fragmentation mode: CID
Ionization: ESI
Column name: Zorbax Eclipse Plus C18 2.1 mm x 150 mm, 3.5 um, Agilent
Retention time: 7.281 min
Precursor m/z: 245.0284
Precursor type: [M+H]+
m/z	relative intensity
37.0068	45
38.0149	34
39.0226	194
41.0387	39
42.0335	999
43.0174	39
44.0121	137
45.0447	57
53.0369	28
54.0335	45
55.0533	239
56.0487	28
66.0333	28
67.0171	182
68.0122	91
70.0284	85
81.0443	45
84.0435	525
92.9319	97
106.9483	57
111.0531	34
