Mass spectrum: Dimethenamid-ESA; LC-ESI-QTOF; MS2; 60 V
Name: Dimethenamid-ESA
Class: Transformation_product; Herbicide; Metabolite
Formula: C12H19NO5S2
Exact mass: 321.0705
SMILES: CC1=CSC(=C1N(C(C)COC)C(=O)CS(=O)(=O)O)C
InChI: InChI=1S/C12H19NO5S2/c1-8-6-19-10(3)12(8)13(9(2)5-18-4)11(14)7-20(15,16)17/h6,9H,5,7H2,1-4H3,(H,15,16,17)
Instrument: TripleTOF 6600 SCIEX
Instrument type: LC-ESI-QTOF
Ms type: MS2
Ion mode: POSITIVE
Collision energy: 60
Fragmentation mode: CID
Ionization: ESI
Column name: Zorbax Eclipse Plus C18 2.1 mm x 150 mm, 3.5 um, Agilent
Retention time: 7.036 min
Precursor m/z: 322.0778
Precursor type: [M+H]+
m/z	relative intensity
39.0237	28
41.0392	58
42.034	32
43.0186	39
44.9797	19
45.034	95
55.0555	15
58.9954	41
65.0387	36
67.0549	58
70.9952	26
73.0654	60
77.039	82
78.0469	19
79.0542	43
80.0499	54
81.0576	15
82.0653	47
83.0487	15
85.0092	26
91.0541	127
92.0523	10
92.062	10
93.0582	41
93.0698	56
94.0652	160
95.0732	127
97.0103	134
98.0186	10
99.0266	67
104.0489	30
105.0571	47
105.0699	32
106.065	47
107.0724	28
107.0858	26
108.0813	52
109.0106	19
110.0191	26
111.0267	465
112.0218	41
112.0341	78
113.0295	43
113.0407	36
114.0358	15
115.054	34
116.0641	10
117.0569	41
117.0696	56
118.0648	164
119.0367	10
119.0733	303
120.0811	108
122.0961	39
123.0135	17
123.0261	23
124.0219	73
124.0325	30
125.0293	71
125.0416	221
126.0369	695
127.0212	26
127.045	60
128.0528	54
132.0805	108
133.0885	162
134.0174	30
134.0962	379
135.0264	132
135.1046	32
136.022	47
136.1114	10
137.029	134
138.0368	385
139.0441	15
139.0551	28
140.0525	39
148.1114	21
149.0413	134
150.0377	238
151.0441	279
152.0174	468
152.0525	999
153.0613	34
162.0907	17
164.0526	34
166.0322	123
166.0679	543
167.0419	10
167.0758	26
168.049	21
168.0831	60
176.1062	30
194.0623	41
208.0786	17
210.0894	10
