Mass spectrum: Gabapentin-lactam; LC-ESI-QTOF; MS2; 80 V
Name: Gabapentin-lactam
Class: Pharmaceutical; Transformation_product-Metabolite
Formula: C9H15NO
Exact mass: 153.1154
SMILES: C1CCC2(CC1)CC(=O)NC2
InChI: InChI=1S/C9H15NO/c11-8-6-9(7-10-8)4-2-1-3-5-9/h1-7H2,(H,10,11)
Instrument: TripleTOF 5600 SCIEX
Instrument type: LC-ESI-QTOF
Ms type: MS2
Ion mode: POSITIVE
Collision energy: 80
Fragmentation mode: CID
Ionization: ESI
Column name: Zorbax Eclipse Plus C18 2.1 mm x 150 mm, 3.5 um, Agilent
Retention time: 7.593 min
Precursor m/z: 154.1227
Precursor type: [M+H]+
m/z	relative intensity
37.0068	217
38.0145	173
39.0224	999
41.0378	564
43.0176	217
44.0126	912
51.0228	347
53.0372	217
55.0538	217
65.0382	390
67.0528	390
77.0387	651
79.055	217
