Mass spectrum: Baclofen; LC-ESI-QTOF; MS2; 40 V
Name: Baclofen
Class: Pharmaceutical
Formula: C10H12ClNO2
Exact mass: 213.0557
SMILES: NCC(CC(O)=O)c1ccc(Cl)cc1
InChI: InChI=1S/C10H12ClNO2/c11-9-3-1-7(2-4-9)8(6-12)5-10(13)14/h1-4,8H,5-6,12H2,(H,13,14)
Instrument: TripleTOF 5600 SCIEX
Instrument type: LC-ESI-QTOF
Ms type: MS2
Ion mode: NEGATIVE
Collision energy: 40
Fragmentation mode: CID
Ionization: ESI
Column name: Zorbax Eclipse Plus C18 2.1 mm x 150 mm, 3.5 um, Agilent
Retention time: 5.336 min
Precursor m/z: 212.0484
Precursor type: [M-H]-
m/z	relative intensity
34.9728	475
64.9712	570
77.0403	190
92.0518	95
93.0345	95
103.0562	475
139.034	999
140.9999	333
146.0984	95
151.0325	380
183.0264	237
212.0486	142
212.0616	95
212.0753	237
