Mass spectrum: 4-Chlorocatechol; LC-ESI-QTOF; MS2; 40 V
Name: 4-Chlorocatechol
Class: Metabolite
Formula: C6H5ClO2
Exact mass: 143.9978
SMILES: C1=CC(=C(C=C1Cl)O)O
InChI: InChI=1S/C6H5ClO2/c7-4-1-2-5(8)6(9)3-4/h1-3,8-9H
Instrument: TripleTOF 5600 SCIEX
Instrument type: LC-ESI-QTOF
Ms type: MS2
Ion mode: NEGATIVE
Collision energy: 40
Fragmentation mode: CID
Ionization: ESI
Column name: Zorbax Eclipse Plus C18 2.1 mm x 150 mm, 3.5 um, Agilent
Retention time: 7.776 min
Precursor m/z: 142.9905
Precursor type: [M-H]-
m/z	relative intensity
34.9686	730
51.0232	341
79.017	194
107.0128	633
142.9897	999
