Mass spectrum: Flufenacet; LC-ESI-QTOF; MS2; 90 V
Name: Flufenacet
Class: Herbicide
Formula: C14H13F4N3O2S
Exact mass: 363.0665
SMILES: CC(C)N(C1=CC=C(C=C1)F)C(=O)COC2=NN=C(S2)C(F)(F)F
InChI: InChI=1S/C14H13F4N3O2S/c1-8(2)21(10-5-3-9(15)4-6-10)11(22)7-23-13-20-19-12(24-13)14(16,17)18/h3-6,8H,7H2,1-2H3
Instrument: TripleTOF 6600 SCIEX
Instrument type: LC-ESI-QTOF
Ms type: MS2
Ion mode: POSITIVE
Collision energy: 90
Fragmentation mode: CID
Ionization: ESI
Column name: Zorbax Eclipse Plus C18 2.1 mm x 150 mm, 3.5 um, Agilent
Retention time: 13.345 min
Precursor m/z: 364.0738
Precursor type: [M+H]+
m/z	relative intensity
39.0232	18
41.0387	23
49.007	10
50.015	43
51.0229	166
57.0133	94
59.029	19
63.0226	31
65.038	10
70.021	13
74.015	90
75.0231	325
76.0182	18
77.0388	999
78.0336	46
81.0131	20
83.0292	439
84.036	14
85.0328	11
89.0381	27
95.0294	667
96.0365	322
97.0449	617
98.0391	12
104.0493	99
105.0448	25
107.0289	174
108.0358	23
109.0447	424
110.0402	25
111.0485	20
115.0538	21
122.0403	79
123.0337	262
124.056	465
133.0447	16
134.0399	35
135.0485	37
136.0557	74
137.063	10
151.0429	10
