Mass spectrum: Tenamfetamine; LC-ESI-QTOF; MS2; 140 V
Name: Tenamfetamine
Class: Pharmaceutical
Formula: C10H13NO2
Exact mass: 179.0946
SMILES: CC(CC1=CC2=C(C=C1)OCO2)N
InChI: InChI=1S/C10H13NO2/c1-7(11)4-8-2-3-9-10(5-8)13-6-12-9/h2-3,5,7H,4,6,11H2,1H3
Instrument: TripleTOF 6600 SCIEX
Instrument type: LC-ESI-QTOF
Ms type: MS2
Ion mode: POSITIVE
Collision energy: 140
Fragmentation mode: CID
Ionization: ESI
Column name: Zorbax Eclipse Plus C18 2.1 mm x 150 mm, 3.5 um, Agilent
Retention time: 5.295 min
Precursor m/z: 180.1019
Precursor type: [M+H]+
m/z	relative intensity
35.9989	89
37.0072	353
38.0028	44
38.015	202
39.0221	151
49.0067	353
50.0146	999
51.0224	336
52.0265	28
59.9987	78
61.0064	241
62.0138	258
63.0229	78
73.006	67
74.0133	84
