Mass spectrum: Desmetryn; LC-ESI-QTOF; MS2; 80 V
Name: Desmetryn
Class: Herbicide
Formula: C8H15N5S
Exact mass: 213.1048
SMILES: CC(C)NC1=NC(=NC(=N1)NC)SC
InChI: InChI=1S/C8H15N5S/c1-5(2)10-7-11-6(9-3)12-8(13-7)14-4/h5H,1-4H3,(H2,9,10,11,12,13)
Instrument: TripleTOF 6600 SCIEX
Instrument type: LC-ESI-QTOF
Ms type: MS2
Ion mode: POSITIVE
Collision energy: 80
Fragmentation mode: CID
Ionization: ESI
Column name: Zorbax Eclipse Plus C18 2.1 mm x 150 mm, 3.5 um, Agilent
Retention time: 7.281 min
Precursor m/z: 214.1121
Precursor type: [M+H]+
m/z	relative intensity
37.0059	18
38.0012	13
38.014	11
39.0215	74
41.0118	34
41.0373	64
42.0197	41
42.0325	30
43.0281	721
44.9777	115
46.9936	166
53.0119	60
55.0276	349
57.0435	999
57.9729	16
58.9805	43
59.9883	55
68.0228	571
71.9883	20
72.9959	20
74.0041	171
82.0382	617
84.9834	43
