Mass spectrum: Levamisole; LC-ESI-QTOF; MS2; 50 V
Name: Levamisole
Class: Pharmaceutical
Formula: C11H12N2S
Exact mass: 204.0721
SMILES: c1ccc(cc1)[C@H]2CN3CCSC3=N2
InChI: InChI=1S/C11H12N2S/c1-2-4-9(5-3-1)10-8-13-6-7-14-11(13)12-10/h1-5,10H,6-8H2/t10-/m1/s1
Instrument: TripleTOF 5600 SCIEX
Instrument type: LC-ESI-QTOF
Ms type: MS2
Ion mode: POSITIVE
Collision energy: 50
Fragmentation mode: CID
Ionization: ESI
Column name: Zorbax Eclipse Plus C18 2.1 mm x 150 mm, 3.5 um, Agilent
Retention time: 5.021 min
Precursor m/z: 205.0794
Precursor type: [M+H]+
m/z	relative intensity
58.9999	23
59.9944	18
65.0431	85
74.0086	14
77.0422	228
78.0484	30
79.0572	73
88.0238	17
89.0396	16
90.0471	27
91.0573	999
102.0476	12
103.0556	187
104.0495	13
104.0626	48
105.0706	96
106.0653	18
115.0547	149
117.0607	235
118.066	99
123.0268	278
127.0545	79
128.0623	272
129.07	45
130.0658	230
131.0735	29
132.0815	34
135.0263	24
144.0814	45
148.0206	13
150.0376	16
178.0694	91
205.0796	9
