Mass spectrum: Saccharin; LC-ESI-QTOF; MS2; 120 V
Name: Saccharin
Class: Food_additive
Formula: C7H5NO3S
Exact mass: 182.999
InChI: InChI=1S/C7H5NO3S/c9-7-5-3-1-2-4-6(5)12(10,11)8-7/h1-4H,(H,8,9)
Instrument: TripleTOF 5600 SCIEX
Instrument type: LC-ESI-QTOF
Ms type: CID
Ion mode: NEGATIVE
Collision energy: 120
Ionization: ESI
Column name: Zorbax Eclipse Plus C18 2.1 mm x 150 mm, 3.5 um, Agilent
Retention time: 5.195 min
Precursor m/z: 181.9917
Precursor type: [M-H]-
m/z	relative intensity
41.9986	999
61.9707	58
