Mass spectrum: Baclofen; LC-ESI-QTOF; MS2; 110 V
Name: Baclofen
Class: Pharmaceutical
Formula: C10H12ClNO2
Exact mass: 213.0557
SMILES: NCC(CC(O)=O)c1ccc(Cl)cc1
InChI: InChI=1S/C10H12ClNO2/c11-9-3-1-7(2-4-9)8(6-12)5-10(13)14/h1-4,8H,5-6,12H2,(H,13,14)
Instrument: TripleTOF 5600 SCIEX
Instrument type: LC-ESI-QTOF
Ms type: MS2
Ion mode: POSITIVE
Collision energy: 110
Fragmentation mode: CID
Ionization: ESI
Column name: Zorbax Eclipse Plus C18 2.1 mm x 150 mm, 3.5 um, Agilent
Retention time: 5.336 min
Precursor m/z: 214.0629
Precursor type: [M+H]+
m/z	relative intensity
64.041	36
65.0421	311
72.9866	159
74.0182	485
75.0253	275
76.0329	57
77.0409	173
85.0105	43
86.0173	65
87.0239	72
88.0312	43
89.0403	999
90.0471	50
91.0556	86
98.9989	65
102.0486	36
113.0374	43
114.0486	50
115.0541	999
117.059	28
