Mass spectrum: Pindolol; LC-ESI-QTOF; MS2; 110 V
Name: Pindolol
Class: Pharmaceutical
Formula: C14H20N2O2
Exact mass: 248.1525
SMILES: CC(C)NCC(COC1=CC=CC2=C1C=CN2)O
InChI: InChI=1S/C14H20N2O2/c1-10(2)16-8-11(17)9-18-14-5-3-4-13-12(14)6-7-15-13/h3-7,10-11,15-17H,8-9H2,1-2H3
Instrument: TripleTOF 5600 SCIEX
Instrument type: LC-ESI-QTOF
Ms type: MS2
Ion mode: POSITIVE
Collision energy: 110
Fragmentation mode: CID
Ionization: ESI
Column name: Zorbax Eclipse Plus C18 2.1 mm x 150 mm, 3.5 um, Agilent
Retention time: 5.148 min
Precursor m/z: 249.1598
Precursor type: [M+H]+
m/z	relative intensity
44.0626	25
56.0594	107
58.074	69
64.0373	56
65.0454	316
74.0223	63
75.0305	75
76.0369	56
77.0449	714
78.0449	189
79.046	63
88.0238	25
88.036	25
89.0428	999
90.0365	31
90.0496	183
91.058	202
102.0412	31
104.054	177
107.0535	37
114.0496	25
115.0578	233
116.0529	44
117.0606	170
141.0589	50
