Mass spectrum: Hydrocortisone; LC-ESI-QTOF; MS2; 100 V
Name: Hydrocortisone
Class: Pharmaceutical
Formula: C21H30O5
Exact mass: 362.2093
SMILES: C[C@]12CCC(=O)C=C1CC[C@H]3[C@@H]4CC[C@](O)(C(=O)CO)[C@@]4(C)C[C@H](O)[C@H]23
InChI: InChI=1S/C21H30O5/c1-19-7-5-13(23)9-12(19)3-4-14-15-6-8-21(26,17(25)11-22)20(15,2)10-16(24)18(14)19/h9,14-16,18,22,24,26H,3-8,10-11H2,1-2H3/t14-,15-,16-,18+,19-,20-,21-/m0/s1
Instrument: TripleTOF 5600 SCIEX
Instrument type: LC-ESI-QTOF
Ms type: MS2
Ion mode: POSITIVE
Collision energy: 100
Fragmentation mode: CID
Ionization: ESI
Column name: Zorbax Eclipse Plus C18 2.1 mm x 150 mm, 3.5 um, Agilent
Retention time: 8.323 min
Precursor m/z: 363.2166
Precursor type: [M+H]+
m/z	relative intensity
43.0264	57
53.0436	21
55.0236	28
55.0584	82
65.0429	185
67.0583	57
77.0414	909
77.0773	14
78.0494	53
79.0561	374
81.0388	24
81.0715	64
83.0506	42
89.0401	17
91.0556	999
93.0714	71
95.0871	17
97.0652	82
102.0473	39
103.0536	189
103.0728	17
104.0614	32
105.07	267
107.0478	42
107.0891	17
109.0681	35
115.0537	713
116.0627	110
117.0693	128
117.0847	17
119.0844	57
121.0637	128
123.0788	24
126.0473	21
127.0536	142
127.0666	35
128.0616	770
129.0703	313
130.0784	53
131.0487	32
131.0844	42
132.0559	14
133.0642	28
139.0538	24
141.0686	367
142.0764	67
143.0839	21
144.0531	17
145.0629	24
147.0809	39
148.0904	21
151.0536	42
152.0602	264
153.0698	260
154.0764	64
155.084	64
157.0667	21
163.0546	17
165.0685	374
166.0775	57
167.0843	53
169.0684	14
169.1023	17
171.0787	17
176.0659	28
177.0716	28
178.0772	178
179.0852	85
181.065	17
181.1003	14
183.0777	14
189.0699	60
190.0768	24
191.0848	46
202.0791	53
203.0835	32
205.0976	24
