Mass spectrum: Sulfasalazine; LC-ESI-QTOF; MS2; 70 V
Name: Sulfasalazine
Class: Pharmaceutical
Formula: C18H14N4O5S
Exact mass: 398.0685
SMILES: C1=CC=NC(=C1)NS(=O)(=O)C2=CC=C(C=C2)NN=C3C=CC(=O)C(=C3)C(=O)O
InChI: InChI=1S/C18H14N4O5S/c23-16-9-6-13(11-15(16)18(24)25)21-20-12-4-7-14(8-5-12)28(26,27)22-17-3-1-2-10-19-17/h1-11,20H,(H,19,22)(H,24,25)
Instrument: TripleTOF 5600 SCIEX
Instrument type: LC-ESI-QTOF
Ms type: MS2
Ion mode: POSITIVE
Collision energy: 70
Fragmentation mode: CID
Ionization: ESI
Column name: Zorbax Eclipse Plus C18 2.1 mm x 150 mm, 3.5 um, Agilent
Retention time: 9.217 min
Precursor m/z: 399.0758
Precursor type: [M+H]+
m/z	relative intensity
63.0308	74
66.0429	13
67.049	488
76.037	57
77.0447	60
78.0396	41
80.0177	33
81.0391	157
89.0427	19
91.0225	844
93.0498	41
94.0567	568
102.041	16
107.0158	22
109.0309	30
113.0407	13
119.0158	999
127.0566	41
128.0505	27
129.0462	38
134.0242	19
134.0296	13
137.0256	278
139.056	173
140.0503	46
147.0215	74
149.0391	19
154.0589	11
155.0582	99
156.0441	16
156.0669	33
157.0742	63
165.0298	38
166.0542	22
167.0614	38
168.0707	113
169.0768	93
170.0447	13
170.0864	24
180.0564	19
181.062	13
183.0558	24
185.0345	46
185.0709	13
211.0499	19
223.0414	13
229.079	13
239.0406	27
