Mass spectrum: Lumichrome; LC-ESI-QTOF; MS2; 90 V
Name: Lumichrome
Class: Pharmaceutical
Formula: C12H10N4O2
Exact mass: 242.0804
SMILES: CC1=CC2=C(C=C1C)N=C3C(=N2)C(=O)NC(=O)N3
InChI: InChI=1S/C12H10N4O2/c1-5-3-7-8(4-6(5)2)14-10-9(13-7)11(17)16-12(18)15-10/h3-4H,1-2H3,(H2,14,15,16,17,18)
Instrument: TripleTOF 6600 SCIEX
Instrument type: LC-ESI-QTOF
Ms type: MS2
Ion mode: POSITIVE
Collision energy: 90
Fragmentation mode: CID
Ionization: ESI
Column name: Zorbax Eclipse Plus C18 2.1 mm x 150 mm, 3.5 um, Agilent
Retention time: 7.067 min
Precursor m/z: 243.0877
Precursor type: [M+H]+
m/z	relative intensity
37.0082	15
39.0236	45
49.0077	43
50.0157	207
51.0234	693
52.0192	18
52.0317	13
61.0082	11
62.0156	49
63.0235	137
64.0184	24
65.039	171
74.0154	81
75.0233	156
76.0192	43
76.0303	56
77.0391	999
78.0335	20
78.0476	32
88.0293	11
89.0392	254
90.0337	37
90.0464	30
91.0547	114
100.0214	11
101.0394	32
102.0337	56
102.0467	69
103.0407	22
103.0537	47
104.0505	35
105.0455	35
114.0347	13
115.0421	18
116.0493	90
117.0578	28
128.0518	11
129.0445	39
130.0399	22
156.056	32
