Mass spectrum: 3,3-Diphenylacrylonitrile; LC-ESI-QTOF; MS2; 80 V
Name: 3,3-Diphenylacrylonitrile
Formula: C15H11N
Exact mass: 205.0891
SMILES: C1=CC=C(C=C1)C(=CC#N)C2=CC=CC=C2
InChI: InChI=1S/C15H11N/c16-12-11-15(13-7-3-1-4-8-13)14-9-5-2-6-10-14/h1-11H
Instrument: TripleTOF 6600 SCIEX
Instrument type: LC-ESI-QTOF
Ms type: MS2
Ion mode: POSITIVE
Collision energy: 80
Fragmentation mode: CID
Ionization: ESI
Column name: Zorbax Eclipse Plus C18 2.1 mm x 150 mm, 3.5 um, Agilent
Retention time: 13.746 min
Precursor m/z: 206.0964
Precursor type: [M+H]+
m/z	relative intensity
50.0137	199
51.0217	999
74.0142	351
75.0211	479
76.0165	47
77.0368	615
89.0373	55
102.0451	63
115.0502	31
126.0441	71
127.0523	39
128.0596	39
139.055	39
150.0451	311
151.0527	271
152.0617	79
163.0538	103
174.0468	55
175.0541	71
176.0592	303
