Mass spectrum: Remdesivir; LC-ESI-QTOF; MS2; 110 V
Name: Remdesivir
Class: Pharmaceutical
Formula: C27H35N6O8P
Exact mass: 602.2254
SMILES: CCC(CC)COC(=O)C(C)NP(=O)(OCC1C(C(C(O1)(C#N)C2=CC=C3N2N=CN=C3N)O)O)OC4=CC=CC=C4
InChI: InChI=1S/C27H35N6O8P/c1-4-18(5-2)13-38-26(36)17(3)32-42(37,41-19-9-7-6-8-10-19)39-14-21-23(34)24(35)27(15-28,40-21)22-12-11-20-25(29)30-16-31-33(20)22/h6-12,16-18,21,23-24,34-35H,4-5,13-14H2,1-3H3,(H,32,37)(H2,29,30,31)
Instrument: TripleTOF 6600 SCIEX
Instrument type: LC-ESI-QTOF
Ms type: MS2
Ion mode: POSITIVE
Collision energy: 110
Fragmentation mode: CID
Ionization: ESI
Column name: Zorbax Eclipse Plus C18 2.1 mm x 150 mm, 3.5 um, Agilent
Retention time: 9.974 min
Precursor m/z: 603.2327
Precursor type: [M+H]+
m/z	relative intensity
39.0228	83
41.0382	39
42.0339	31
43.029	25
43.0408	9
43.0542	77
44.0496	721
51.0224	41
64.0178	15
65.0377	25
67.0175	91
76.0177	27
77.0249	13
77.0382	999
78.0333	162
78.9938	79
79.9889	188
87.9943	41
91.028	17
91.0534	65
92.0254	9
92.0482	35
93.0444	35
93.0693	55
95.0486	493
103.029	81
103.0534	261
104.0362	39
104.0484	39
105.0442	529
106.0047	368
109.0191	31
117.0435	19
117.0571	13
118.0392	17
118.0641	47
119.0228	109
119.0596	97
120.0552	65
120.08	93
121.0386	17
121.0641	346
124.0154	55
129.0435	39
130.0392	174
131.0238	19
131.0478	63
132.0543	41
133.0381	21
134.0565	11
135.0661	109
137.0144	134
138.9936	35
141.0091	21
145.0506	17
146.0573	9
146.0712	25
147.0659	987
156.0212	35
156.054	11
157.0051	13
158.0336	25
159.0657	61
161.045	132
164.0257	99
165.0094	840
172.0615	55
173.081	39
174.0764	29
175.0151	45
175.061	31
182.0354	212
183.0198	107
200.0469	275
