Mass spectrum: Bis(triphenylphosphonio)amine; LC-ESI-QTOF; MS2; 140 V
Name: Bis(triphenylphosphonio)amine
Formula: C36H30NP2
Exact mass: 538.1848
InChI: InChI=1S/C36H30NP2/c1-7-19-31(20-8-1)38(32-21-9-2-10-22-32,33-23-11-3-12-24-33)37-39(34-25-13-4-14-26-34,35-27-15-5-16-28-35)36-29-17-6-18-30-36/h1-30H/q+1
Instrument: TripleTOF 6600 SCIEX
Instrument type: LC-ESI-QTOF
Ms type: CID
Ion mode: POSITIVE
Collision energy: 140
Ionization: ESI
Column name: Zorbax Eclipse Plus C18 2.1 mm x 150 mm, 3.5 um, Agilent
Retention time: 12.265 min
Precursor m/z: 538.1848
Precursor type: [M]+
m/z	relative intensity
77.0372	51
107.0026	162
122.0137	71
152.0612	176
152.9883	55
157.0191	81
183.0358	999
