Mass spectrum: N-Isopropyl-N'-phenyl-p-phenylenediamine; LC-ESI-QTOF; MS2; 80 V
Name: N-Isopropyl-N'-phenyl-p-phenylenediamine
Class: Industrial_process
Formula: C15H18N2
Exact mass: 226.147
SMILES: CC(C)Nc1ccc(cc1)Nc2ccccc2
InChI: InChI=1S/C15H18N2/c1-12(2)16-14-8-10-15(11-9-14)17-13-6-4-3-5-7-13/h3-12,16-17H,1-2H3
Instrument: TripleTOF 6600 SCIEX
Instrument type: LC-ESI-QTOF
Ms type: MS2
Ion mode: POSITIVE
Collision energy: 80
Fragmentation mode: CID
Ionization: ESI
Column name: Zorbax Eclipse Plus C18 2.1 mm x 150 mm, 3.5 um, Agilent
Retention time: 7.24 min
Precursor m/z: 227.1543
Precursor type: [M+H]+
m/z	relative intensity
39.0227	26
51.0225	29
53.0381	173
54.033	10
63.0223	63
65.0373	56
66.0454	41
77.0375	72
78.0327	31
79.0398	11
80.0487	999
89.037	33
90.0333	49
91.0401	37
92.0488	21
93.0557	31
105.0437	21
106.0527	13
107.0593	296
113.0369	19
114.045	12
115.0529	50
116.0486	13
117.0552	20
118.0526	14
127.0515	34
128.0486	18
128.0598	46
129.0666	17
130.0632	18
139.0525	123
140.0483	101
141.0564	10
154.0638	63
156.0768	11
166.0637	81
167.0704	74
168.0726	31
181.0728	64
182.0827	23
