Mass spectrum: Allopurinol; LC-ESI-QTOF; MS2; 70 V
Name: Allopurinol
Class: Pharmaceutical
Formula: C5H4N4O
Exact mass: 136.0385
SMILES: O=C1N=CN=C2NNC=C12
InChI: InChI=1S/C5H4N4O/c10-5-3-1-8-9-4(3)6-2-7-5/h1-2H,(H2,6,7,8,9,10)
Instrument: TripleTOF 5600 SCIEX
Instrument type: LC-ESI-QTOF
Ms type: MS2
Ion mode: NEGATIVE
Collision energy: 70
Fragmentation mode: CID
Ionization: ESI
Column name: Zorbax Eclipse Plus C18 2.1 mm x 150 mm, 3.5 um, Agilent
Retention time: 3.149 min
Precursor m/z: 135.0312
Precursor type: [M-H]-
m/z	relative intensity
38.0072	570
41.0185	142
42.0032	856
42.0161	285
44.9975	285
64.0091	856
65.0139	428
66.0007	999
66.011	142
