Mass spectrum: Abacavir; LC-ESI-QTOF; MS2; 70 V
Name: Abacavir
Class: Pharmaceutical
Formula: C14H18N6O
Exact mass: 286.1542
SMILES: Nc1nc(NC2CC2)c3ncn([C@@H]4C[C@H](CO)C=C4)c3n1
InChI: InChI=1S/C14H18N6O/c15-14-18-12(17-9-2-3-9)11-13(19-14)20(7-16-11)10-4-1-8(5-10)6-21/h1,4,7-10,21H,2-3,5-6H2,(H3,15,17,18,19)/t8-,10+/m1/s1
Instrument: TripleTOF 5600 SCIEX
Instrument type: LC-ESI-QTOF
Ms type: MS2
Ion mode: POSITIVE
Collision energy: 70
Fragmentation mode: CID
Ionization: ESI
Column name: Zorbax Eclipse Plus C18 2.1 mm x 150 mm, 3.5 um, Agilent
Retention time: 5.094 min
Precursor m/z: 287.1615
Precursor type: [M+H]+
m/z	relative intensity
42.0418	11
43.0372	19
53.0206	10
55.0355	47
56.055	17
58.0699	63
65.0177	24
65.0429	20
66.0356	11
67.0323	15
67.0588	153
68.0289	15
68.0528	18
77.0428	999
78.0365	36
79.0577	530
80.027	120
81.0345	23
81.0459	15
82.0426	83
92.0256	118
93.0331	9
93.0451	32
94.0414	35
95.0622	36
105.0453	51
106.039	15
107.0362	519
108.044	365
109.0515	361
119.0353	87
120.0555	47
121.0505	22
122.0711	25
123.0541	37
130.0407	13
132.0549	42
133.0384	131
134.0471	914
135.0547	19
136.0619	14
147.0664	37
148.0611	23
149.0767	50
150.0654	330
173.0708	11
174.0784	60
175.0728	133
191.1037	11
