Mass spectrum: Chlorothiazide; LC-ESI-QTOF; MS2; 120 V
Name: Chlorothiazide
Class: Pharmaceutical; Transformation_product-Metabolite
Formula: C7H6ClN3O4S2
Exact mass: 294.9488
SMILES: N[S](=O)(=O)c1cc2c(NC=N[S]2(=O)=O)cc1Cl
InChI: InChI=1S/C7H6ClN3O4S2/c8-4-1-5-7(2-6(4)16(9,12)13)17(14,15)11-3-10-5/h1-3H,(H,10,11)(H2,9,12,13)
Instrument: TripleTOF 5600 SCIEX
Instrument type: LC-ESI-QTOF
Ms type: MS2
Ion mode: NEGATIVE
Collision energy: 120
Fragmentation mode: CID
Ionization: ESI
Column name: Zorbax Eclipse Plus C18 2.1 mm x 150 mm, 3.5 um, Agilent
Retention time: 5.43 min
Precursor m/z: 293.9415
Precursor type: [M-H]-
m/z	relative intensity
34.9719	528
41.0155	88
50.0037	587
56.9789	58
57.9756	88
60.0	235
61.9689	176
62.0013	117
63.0122	88
63.9636	88
64.0051	323
65.0137	999
65.9964	58
66.0128	88
73.0074	58
74.0017	264
77.9627	264
86.0008	440
87.0095	381
88.0029	146
88.0171	499
89.0123	352
101.9604	88
112.0058	117
113.0133	440
114.0207	146
115.0276	411
116.0321	58
178.9852	117
