Mass spectrum: Propaquizafop; LC-ESI-QTOF; MS2; 70 V
Name: Propaquizafop
Class: Herbicide
Formula: C22H22ClN3O5
Exact mass: 443.1248
SMILES: CC(Oc1ccc(Oc2cnc3cc(Cl)ccc3n2)cc1)C(=O)OCCON=C(C)C
InChI: InChI=1S/C22H22ClN3O5/c1-14(2)26-29-11-10-28-22(27)15(3)30-17-5-7-18(8-6-17)31-21-13-24-20-12-16(23)4-9-19(20)25-21/h4-9,12-13,15H,10-11H2,1-3H3
Instrument: TripleTOF 6600 SCIEX
Instrument type: LC-ESI-QTOF
Ms type: MS2
Ion mode: POSITIVE
Collision energy: 70
Fragmentation mode: CID
Ionization: ESI
Column name: Zorbax Eclipse Plus C18 2.1 mm x 150 mm, 3.5 um, Agilent
Retention time: 15.307 min
Precursor m/z: 444.1321
Precursor type: [M+H]+
m/z	relative intensity
42.0344	27
55.0177	43
55.0414	19
56.0496	634
65.0387	126
70.0653	967
73.0297	19
77.0382	35
79.0541	19
91.054	471
99.0445	333
100.0179	67
100.0525	214
100.0757	202
104.0611	19
105.0698	23
119.0497	87
120.0564	31
123.996	15
126.0097	35
131.0488	27
133.0659	15
135.9948	91
137.0037	31
145.0617	19
147.045	43
153.0193	39
163.0068	999
164.0023	249
164.05	63
165.0235	51
165.0581	114
166.0661	27
174.0106	23
177.0213	27
178.029	15
179.0623	35
180.0683	59
181.0191	27
181.0852	23
189.0232	19
191.0615	87
192.0691	741
193.0766	122
194.0848	43
200.0257	51
201.0281	59
202.0293	39
203.0361	27
207.0935	130
208.0636	83
208.1002	63
215.0377	154
216.0465	23
218.0857	59
220.0644	23
221.0717	63
226.0304	59
227.0381	111
228.0461	118
229.0529	87
235.0885	31
239.0371	39
241.0547	47
243.0329	63
243.0697	59
244.0415	35
252.0467	31
253.0532	55
254.032	19
255.0332	630
256.0408	47
257.0485	277
268.0415	19
269.0509	23
271.0645	39
281.0486	15
284.0368	19
285.044	138
299.062	31
