Mass spectrum: Abacavir carboxylic acid; LC-ESI-QTOF; MS2; 110 V
Name: Abacavir carboxylic acid
Class: Pharmaceutical; Metabolite; Transformation_product
Formula: C14H16N6O2
Exact mass: 300.1335
SMILES: C1CC1NC2=NC(=NC3=C2N=CN3C4CC(C=C4)C(=O)O)N
InChI: InChI=1S/C14H16N6O2/c15-14-18-11(17-8-2-3-8)10-12(19-14)20(6-16-10)9-4-1-7(5-9)13(21)22/h1,4,6-9H,2-3,5H2,(H,21,22)(H3,15,17,18,19)
Instrument: TripleTOF 5600 SCIEX
Instrument type: LC-ESI-QTOF
Ms type: MS2
Ion mode: POSITIVE
Collision energy: 110
Fragmentation mode: CID
Ionization: ESI
Column name: Zorbax Eclipse Plus C18 2.1 mm x 150 mm, 3.5 um, Agilent
Retention time: 5.194 min
Precursor m/z: 301.1408
Precursor type: [M+H]+
m/z	relative intensity
43.0451	42
52.0258	59
53.0183	230
54.0256	111
54.0385	42
55.0339	409
55.0583	111
65.017	128
65.042	999
66.0239	153
66.0351	42
66.048	59
67.0325	136
67.0441	42
67.0575	350
68.0272	298
76.0174	34
78.0368	102
79.0299	51
80.0261	290
80.0376	42
81.0334	111
81.0454	76
82.0415	111
83.0505	76
92.0244	290
92.0433	34
93.0444	59
94.0409	76
103.0319	51
105.0438	51
106.0402	145
107.0352	350
108.0422	375
109.0499	170
118.0403	42
119.0358	34
120.0596	42
121.0488	42
133.0391	76
134.0471	153
148.0598	51
