Mass spectrum: 2,2,6,6-Tetramethyl-4-piperidone; LC-ESI-QTOF; MS2; 100 V
Name: 2,2,6,6-Tetramethyl-4-piperidone
Class: Natural_product; Industrial_process
Formula: C9H17NO
Exact mass: 155.131
SMILES: CC1(CC(=O)CC(N1)(C)C)C
InChI: InChI=1S/C9H17NO/c1-8(2)5-7(11)6-9(3,4)10-8/h10H,5-6H2,1-4H3
Instrument: TripleTOF 6600 SCIEX
Instrument type: LC-ESI-QTOF
Ms type: MS2
Ion mode: POSITIVE
Collision energy: 100
Fragmentation mode: CID
Ionization: ESI
Column name: Zorbax Eclipse Plus C18 2.1 mm x 150 mm, 3.5 um, Agilent
Retention time: 2.824 min
Precursor m/z: 156.1383
Precursor type: [M+H]+
m/z	relative intensity
30.0339	15
37.007	53
38.0147	46
39.0229	167
41.026	51
41.0383	40
42.0339	999
43.0415	99
58.0645	21
