Mass spectrum: 19-Nortestosterone; LC-ESI-QTOF; MS2; 40 V
Name: 19-Nortestosterone
Class: Pharmaceutical
Formula: C18H26O2
Exact mass: 274.1933
SMILES: C[C@]12CC[C@H]3[C@@H](CCC4=CC(=O)CC[C@H]34)[C@@H]1CC[C@@H]2O
InChI: InChI=1S/C18H26O2/c1-18-9-8-14-13-5-3-12(19)10-11(13)2-4-15(14)16(18)6-7-17(18)20/h10,13-17,20H,2-9H2,1H3/t13-,14+,15+,16-,17-,18-/m0/s1
Instrument: TripleTOF 5600 SCIEX
Instrument type: LC-ESI-QTOF
Ms type: MS2
Ion mode: POSITIVE
Collision energy: 40
Fragmentation mode: CID
Ionization: ESI
Column name: Zorbax Eclipse Plus C18 2.1 mm x 150 mm, 3.5 um, Agilent
Retention time: 10.421 min
Precursor m/z: 275.2006
Precursor type: [M+H]+
m/z	relative intensity
53.0437	13
55.0243	9
55.0602	33
57.0427	11
65.0433	20
67.0584	107
69.0732	16
77.0419	124
79.0574	339
81.0725	266
83.0518	366
91.056	353
93.0713	260
95.0497	20
95.0872	135
97.0652	22
103.0566	15
105.0699	256
107.0492	130
107.0848	139
109.0656	999
111.0821	16
115.0551	32
117.0699	113
117.0958	11
119.0856	194
121.1016	83
123.0807	39
127.0526	11
128.0625	58
129.0704	96
130.078	24
131.0856	134
133.0645	20
133.1006	79
135.0806	73
135.1173	113
137.0929	13
141.0702	52
142.0772	20
143.0861	173
144.0931	11
145.1014	294
147.0813	30
147.1169	132
149.0952	66
149.1308	43
155.0851	54
156.0981	13
157.1007	92
159.0795	13
159.1166	88
161.0953	98
161.131	43
163.1117	90
167.0858	13
168.0929	13
169.1023	64
171.1168	67
173.1327	33
175.1118	52
175.149	28
183.1159	94
185.1328	118
187.1117	16
187.1479	147
188.1174	11
195.1141	15
197.1307	98
199.1467	132
201.1278	58
203.1419	43
211.1481	35
213.164	54
215.1407	13
215.1798	16
217.1599	13
229.1657	15
229.1898	11
231.1757	47
239.1791	219
257.1909	232
275.1999	389
