Mass spectrum: Dodecyltrimethylammonium; LC-ESI-QTOF; MS2; 130 V
Name: Dodecyltrimethylammonium
Formula: [C15H34N]+
Exact mass: 228.2686
SMILES: CCCCCCCCCCCC[N+](C)(C)C
InChI: InChI=1S/C15H34N/c1-5-6-7-8-9-10-11-12-13-14-15-16(2,3)4/h5-15H2,1-4H3/q+1
Instrument: TripleTOF 5600 SCIEX
Instrument type: LC-ESI-QTOF
Ms type: MS2
Ion mode: POSITIVE
Collision energy: 130
Fragmentation mode: CID
Ionization: ESI
Column name: Zorbax Eclipse Plus C18 2.1 mm x 150 mm, 3.5 um, Agilent
Retention time: 10.001 min
Precursor m/z: 228.2686
Precursor type: [M]+
m/z	relative intensity
37.0076	69
38.0154	69
39.0229	240
41.0389	193
42.0341	441
43.0411	92
43.0546	85
44.0496	596
45.0571	54
56.0489	54
58.0645	999
60.0807	69
