Mass spectrum: Methiocarb; LC-ESI-QTOF; MS2; 100 V
Name: Methiocarb
Formula: C11H15NO2S
Exact mass: 225.0823
SMILES: Cc1cc(cc(c1SC)C)OC(=O)NC
InChI: InChI=1S/C11H15NO2S/c1-7-5-9(14-11(13)12-3)6-8(2)10(7)15-4/h5-6H,1-4H3,(H,12,13)
Instrument: TripleTOF 6600 SCIEX
Instrument type: LC-ESI-QTOF
Ms type: MS2
Ion mode: POSITIVE
Collision energy: 100
Fragmentation mode: CID
Ionization: ESI
Column name: Zorbax Eclipse Plus C18 2.1 mm x 150 mm, 3.5 um, Agilent
Retention time: 11.34614 min
Precursor m/z: 226.0896
Precursor type: [M+H]+
m/z	relative intensity
35.9982	15
37.005	71
38.0133	67
39.0209	281
41.0357	60
44.977	93
49.005	33
50.0126	322
51.0207	999
52.03	33
53.036	86
55.0159	33
58.0274	18
58.9928	22
61.0063	18
62.0126	41
63.0203	75
65.0359	221
68.9778	37
74.0127	30
75.0205	22
77.0358	980
78.0438	86
79.0517	71
81.0306	18
89.0358	37
91.0516	210
103.0527	26
105.0399	15
107.0466	56
121.0075	18
121.0615	22
134.0173	22
