Mass spectrum: Codeinone; LC-ESI-QTOF; MS2; 140 V
Name: Codeinone
Class: Pharmaceutical
Formula: C18H19NO3
Exact mass: 297.1365
SMILES: CN1CCC23C4C1CC5=C2C(=C(C=C5)OC)OC3C(=O)C=C4
InChI: InChI=1S/C18H19NO3/c1-19-8-7-18-11-4-5-13(20)17(18)22-16-14(21-2)6-3-10(15(16)18)9-12(11)19/h3-6,11-12,17H,7-9H2,1-2H3
Instrument: TripleTOF 5600 SCIEX
Instrument type: LC-ESI-QTOF
Ms type: MS2
Ion mode: POSITIVE
Collision energy: 140
Fragmentation mode: CID
Ionization: ESI
Column name: Zorbax Eclipse Plus C18 2.1 mm x 150 mm, 3.5 um, Agilent
Retention time: 5.057 min
Precursor m/z: 298.1438
Precursor type: [M+H]+
m/z	relative intensity
44.0671	28
65.0453	179
73.0114	33
74.0216	314
75.0282	308
76.0377	185
77.0441	398
78.0517	101
85.013	72
86.0193	252
87.0272	364
88.035	196
89.0422	690
91.0587	56
98.0167	190
99.0255	129
100.0348	33
101.0408	67
102.0477	190
110.018	61
111.0244	67
113.04	611
114.0461	67
115.0565	443
122.0153	33
125.0404	56
126.048	387
127.0563	95
128.0623	67
137.0387	129
138.0482	173
139.0559	999
149.043	39
150.0474	342
151.0528	359
152.0608	246
162.0469	56
163.0554	202
164.064	50
165.0702	44
175.0544	33
176.0641	67
