Mass spectrum: O-desmethyl-venlafaxine; LC-ESI-QTOF; MS2; 40 V
Name: O-desmethyl-venlafaxine
Class: Metabolite; Pharmaceutical
Formula: C16H25NO2
Exact mass: 263.1885
SMILES: CN(C)CC(C1=CC=C(C=C1)O)C2(CCCCC2)O
InChI: InChI=1S/C16H25NO2/c1-17(2)12-15(13-6-8-14(18)9-7-13)16(19)10-4-3-5-11-16/h6-9,15,18-19H,3-5,10-12H2,1-2H3
Instrument: TripleTOF 5600 SCIEX
Instrument type: LC-ESI-QTOF
Ms type: MS2
Ion mode: POSITIVE
Collision energy: 40
Fragmentation mode: CID
Ionization: ESI
Column name: Zorbax Eclipse Plus C18 2.1 mm x 150 mm, 3.5 um, Agilent
Retention time: 5.367 min
Precursor m/z: 264.1958
Precursor type: [M+H]+
m/z	relative intensity
42.0494	16
58.0748	999
69.0772	18
77.0445	39
79.059	56
81.075	50
91.057	17
103.0559	10
105.0724	79
107.0512	577
115.056	16
117.0714	12
121.0659	35
127.0554	13
131.051	13
131.087	22
133.0659	316
141.0721	24
144.0584	20
145.0654	90
147.0794	11
149.0835	16
159.0817	105
163.1015	15
164.1057	12
201.1313	10
