Mass spectrum: Sudan III; LC-ESI-QTOF; MS2; 40 V
Name: Sudan III
Formula: C22H16N4O
Exact mass: 352.1324
SMILES: C1=CC=C(C=C1)N=NC2=CC=C(C=C2)N=NC3=C(C=CC4=CC=CC=C43)O
InChI: InChI=1S/C22H16N4O/c27-21-15-10-16-6-4-5-9-20(16)22(21)26-25-19-13-11-18(12-14-19)24-23-17-7-2-1-3-8-17/h1-15,27H
Instrument: TripleTOF X500R SCIEX
Instrument type: LC-ESI-QTOF
Ms type: MS2
Ion mode: POSITIVE
Collision energy: 40
Fragmentation mode: CID
Ionization: ESI
Column name: Zorbax Eclipse Plus C18 2.1 mm x 150 mm, 3.5 um, Agilent
Retention time: 19.216 min
Precursor m/z: 353.1397
Precursor type: [M+H]+
m/z	relative intensity
51.0231	33
59.0315	119
60.0328	48
65.0397	22
73.0479	52
77.0392	927
91.0425	160
92.05	471
99.0642	37
100.0647	22
101.0395	44
105.0456	37
115.0547	202
120.0565	246
128.0501	793
129.0532	22
141.0704	359
143.05	325
143.0759	14
151.0542	41
155.0629	14
156.0453	546
156.0679	26
167.0743	164
168.0807	153
169.0779	93
171.0546	41
181.0757	52
182.0853	63
196.0878	957
197.0953	999
198.1027	97
205.0876	22
218.0845	26
219.0942	63
220.0999	18
230.0816	26
231.0918	63
232.0885	78
233.0715	22
247.0871	52
262.0953	18
353.1397	74
