Mass spectrum: Sertaconazole; LC-ESI-QTOF; MS2; 60 V
Name: Sertaconazole
Class: Fungicide; Pharmaceutical; Antimicrobial
Formula: C20H15Cl3N2OS
Exact mass: 435.9971
SMILES: C1=CC2=C(C(=C1)Cl)SC=C2COC(CN3C=CN=C3)C4=C(C=C(C=C4)Cl)Cl
InChI: InChI=1S/C20H15Cl3N2OS/c21-14-4-5-16(18(23)8-14)19(9-25-7-6-24-12-25)26-10-13-11-27-20-15(13)2-1-3-17(20)22/h1-8,11-12,19H,9-10H2
Instrument: TripleTOF 5600 SCIEX
Instrument type: LC-ESI-QTOF
Ms type: CID
Ion mode: POSITIVE
Collision energy: 60
Ionization: ESI
Column name: Zorbax Eclipse Plus C18 2.1 mm x 150 mm, 3.5 um, Agilent
Retention time: 10.403 min
Precursor m/z: 437.0043
Precursor type: [M+H]+
m/z	relative intensity
69.049	13
145.0108	46
146.0184	35
158.9762	17
180.9877	999
234.0507	10
