Mass spectrum: 1,3-Dicyclohexylurea; LC-ESI-QTOF; MS2; 20 V
Name: 1,3-Dicyclohexylurea
Formula: C13H24N2O
Exact mass: 224.1889
SMILES: C1CCC(CC1)NC(=O)NC2CCCCC2
InChI: InChI=1S/C13H24N2O/c16-13(14-11-7-3-1-4-8-11)15-12-9-5-2-6-10-12/h11-12H,1-10H2,(H2,14,15,16)
Instrument: TripleTOF 6600 SCIEX
Instrument type: LC-ESI-QTOF
Ms type: MS2
Ion mode: POSITIVE
Collision energy: 20
Fragmentation mode: CID
Ionization: ESI
Column name: Zorbax Eclipse Plus C18 2.1 mm x 150 mm, 3.5 um, Agilent
Retention time: 10.759 min
Precursor m/z: 225.1962
Precursor type: [M+H]+
m/z	relative intensity
83.0853	13
100.1123	155
143.1182	40
225.1976	999
