Mass spectrum: Prednisone; LC-ESI-QTOF; MS2; 40 V
Name: Prednisone
Class: Pharmaceutical
Formula: C21H26O5
Exact mass: 358.178
SMILES: C[C@]12CC(=O)[C@H]3[C@@H](CCC4=CC(=O)C=C[C@]34C)[C@@H]1CC[C@]2(O)C(=O)CO
InChI: InChI=1S/C21H26O5/c1-19-7-5-13(23)9-12(19)3-4-14-15-6-8-21(26,17(25)11-22)20(15,2)10-16(24)18(14)19/h5,7,9,14-15,18,22,26H,3-4,6,8,10-11H2,1-2H3/t14-,15-,18+,19-,20-,21-/m0/s1
Instrument: TripleTOF 5600 SCIEX
Instrument type: LC-ESI-QTOF
Ms type: MS2
Ion mode: POSITIVE
Collision energy: 40
Fragmentation mode: CID
Ionization: ESI
Column name: Zorbax Eclipse Plus C18 2.1 mm x 150 mm, 3.5 um, Agilent
Retention time: 8.469 min
Precursor m/z: 359.1853
Precursor type: [M+H]+
m/z	relative intensity
43.024	32
55.0583	12
67.0577	42
69.0377	20
69.0734	16
71.0521	14
77.0404	38
79.0566	70
81.0716	95
83.0501	22
85.0687	14
91.0552	125
93.0712	156
95.0502	79
95.0855	119
97.065	32
99.0442	20
101.0595	16
105.0698	95
107.048	16
107.0584	10
107.0856	164
109.0645	107
109.1004	28
111.0452	22
111.0811	46
115.0551	26
117.0698	62
119.0855	129
121.0642	312
123.08	66
125.0974	28
128.0617	32
129.0696	40
131.047	14
131.0848	87
132.058	24
133.064	50
133.1009	22
135.0804	214
137.0572	16
137.0946	26
139.0742	24
141.0701	54
142.0786	16
143.0851	40
144.0582	22
145.0646	121
145.0995	28
146.0732	44
147.0803	999
149.0936	10
153.0692	36
153.0908	32
155.0851	24
157.0649	24
157.0991	18
158.0733	111
159.0804	516
160.0899	32
161.0601	14
161.0956	184
163.0741	62
165.0698	28
165.0867	12
166.0788	18
167.0855	42
169.0646	40
169.1034	36
170.0703	16
171.0803	757
171.1124	20
172.0887	24
173.0958	374
175.0735	12
175.1116	22
177.092	16
178.0782	22
179.0855	143
180.0922	22
181.0645	38
181.1002	40
182.0732	56
183.0808	154
183.1137	18
184.0896	34
185.0602	44
185.0962	156
186.1037	44
187.0745	72
187.1105	156
189.0886	58
190.0762	10
191.0887	28
193.1012	60
194.0733	32
194.1099	32
195.0793	113
195.1169	32
196.0881	89
197.096	312
198.104	32
199.1112	182
201.0885	18
202.0766	12
203.0852	28
204.0924	40
205.1005	42
206.073	14
206.1084	14
207.0818	46
207.1143	40
208.0884	145
209.0969	289
209.1317	58
210.1041	127
211.079	14
211.1112	224
212.1194	95
213.091	26
213.1273	101
215.0853	14
215.1063	46
216.0953	14
217.0997	26
218.0735	10
218.1077	14
219.0798	52
219.1157	66
220.0888	52
221.0962	166
221.1304	32
222.1037	397
223.1114	299
224.0824	16
224.1189	62
225.0901	28
225.1274	170
226.0972	10
227.1106	26
227.1425	145
229.1021	24
230.1112	20
231.0815	42
231.117	20
232.0866	28
232.1263	14
233.098	77
233.1317	20
234.1046	91
235.1117	214
236.1195	58
237.0917	18
237.1272	520
237.1608	18
238.0996	44
238.1349	66
239.1077	74
239.143	164
240.119	22
241.1257	12
243.116	20
244.0877	18
245.0956	48
245.132	24
246.1041	93
247.1105	101
247.1453	32
248.1196	147
249.0922	20
249.1276	316
250.1358	42
251.1053	20
251.1419	101
252.1499	30
253.1217	151
253.1596	48
255.1378	62
257.0984	20
257.1403	18
258.1046	24
258.1264	14
259.1123	34
260.1182	72
261.1272	99
262.1019	12
262.1348	139
263.1079	22
263.1423	210
264.1127	18
264.15	101
265.1247	28
265.1586	320
266.1303	12
267.138	95
267.1731	20
269.1555	12
271.1137	16
272.1197	64
275.1024	20
275.143	64
276.115	12
277.1218	36
277.1586	123
279.1363	30
280.1447	10
281.1541	42
282.1621	10
285.118	12
287.1453	38
290.1319	30
292.1492	40
293.155	68
295.1679	52
297.1448	16
305.15	28
311.167	16
323.1628	38
