Mass spectrum: Levamisole; LC-ESI-QTOF; MS2; 40 V
Name: Levamisole
Class: Pharmaceutical
Formula: C11H12N2S
Exact mass: 204.0721
SMILES: c1ccc(cc1)[C@H]2CN3CCSC3=N2
InChI: InChI=1S/C11H12N2S/c1-2-4-9(5-3-1)10-8-13-6-7-14-11(13)12-10/h1-5,10H,6-8H2/t10-/m1/s1
Instrument: TripleTOF 5600 SCIEX
Instrument type: LC-ESI-QTOF
Ms type: MS2
Ion mode: POSITIVE
Collision energy: 40
Fragmentation mode: CID
Ionization: ESI
Column name: Zorbax Eclipse Plus C18 2.1 mm x 150 mm, 3.5 um, Agilent
Retention time: 5.021 min
Precursor m/z: 205.0794
Precursor type: [M+H]+
m/z	relative intensity
42.0417	10
58.9997	23
59.9964	20
65.0438	82
74.0102	22
77.0423	211
78.0494	24
79.0571	96
86.0094	21
88.0242	82
89.0413	19
90.0487	22
91.0572	969
102.0471	14
103.0349	10
103.0552	198
104.0507	14
104.0623	37
105.0708	192
106.0659	28
115.0549	184
117.0645	416
118.0656	246
119.0799	28
120.0794	10
123.0275	610
127.0546	100
128.0622	350
129.0708	205
130.0659	241
131.0735	97
132.0818	73
135.0273	65
144.0813	84
145.077	47
146.0974	124
148.0226	28
150.0378	91
178.0702	999
188.0532	41
205.0812	734
