Mass spectrum: Fluroxypyr; LC-ESI-QTOF; MS2; 90 V
Name: Fluroxypyr
Class: Herbicide
Formula: C7H5Cl2FN2O3
Exact mass: 253.9661
SMILES: C(C(=O)O)OC1=NC(=C(C(=C1Cl)N)Cl)F
InChI: InChI=1S/C7H5Cl2FN2O3/c8-3-5(11)4(9)7(12-6(3)10)15-1-2(13)14/h1H2,(H2,11,12)(H,13,14)
Instrument: TripleTOF 6600 SCIEX
Instrument type: LC-ESI-QTOF
Ms type: MS2
Ion mode: POSITIVE
Collision energy: 90
Fragmentation mode: CID
Ionization: ESI
Column name: Zorbax Eclipse Plus C18 2.1 mm x 150 mm, 3.5 um, Agilent
Retention time: 8.859 min
Precursor m/z: 254.9734
Precursor type: [M+H]+
m/z	relative intensity
30.9975	44
46.9679	44
48.9838	89
52.0187	27
53.0142	33
56.0058	55
57.0131	44
60.9864	27
61.9764	39
62.9621	44
63.0104	39
64.0179	100
65.9647	22
66.9744	468
68.9998	22
70.0087	167
70.968	106
71.9762	128
72.9848	61
73.9791	55
74.9859	55
76.0044	27
77.0128	200
81.0012	27
82.008	195
82.9435	139
83.0156	66
84.0235	66
85.9785	234
86.9882	27
89.9661	301
90.9738	937
91.0284	22
91.9706	78
93.9834	33
96.9712	61
97.9782	83
98.9853	122
100.9347	89
101.9682	33
105.9362	50
105.9841	66
106.9438	239
109.0175	33
110.03	22
111.0332	55
112.987	50
115.9675	83
116.9767	89
117.9837	44
118.9917	33
124.9351	999
125.997	33
131.9401	39
143.9862	44
151.9473	39
