Mass spectrum: Dimethachlor ESA; LC-ESI-QTOF; MS2; 40 V
Name: Dimethachlor ESA
Class: Transformation_product; Herbicide
Formula: C13H19NO5S
Exact mass: 301.0984
SMILES: Cc1cccc(c1N(CCOC)C(=O)CS(=O)(=O)O)C
InChI: InChI=1S/C13H19NO5S/c1-10-5-4-6-11(2)13(10)14(7-8-19-3)12(15)9-20(16,17)18/h4-6H,7-9H2,1-3H3,(H,16,17,18)
Instrument: TripleTOF 6600 SCIEX
Instrument type: LC-ESI-QTOF
Ms type: MS2
Ion mode: POSITIVE
Collision energy: 40
Fragmentation mode: CID
Ionization: ESI
Column name: Zorbax Eclipse Plus C18 2.1 mm x 150 mm, 3.5 um, Agilent
Retention time: 6.763 min
Precursor m/z: 302.1057
Precursor type: [M+H]+
m/z	relative intensity
68.0498	37
105.0697	44
117.0563	33
131.0725	85
132.0806	888
144.0812	33
145.0894	37
146.0956	299
147.1036	266
148.1107	118
158.0945	33
159.1045	29
174.0912	999
189.1146	22
204.0995	14
206.1159	18
270.0784	148
