Mass spectrum: Clozapine; LC-ESI-QTOF; MS2; 120 V
Name: Clozapine
Class: Pharmaceutical
Formula: C18H19ClN4
Exact mass: 326.1298
SMILES: CN1CCN(CC1)C2=NC3=C(C=CC(=C3)Cl)NC4=CC=CC=C42
InChI: InChI=1S/C18H19ClN4/c1-22-8-10-23(11-9-22)18-14-4-2-3-5-15(14)20-16-7-6-13(19)12-17(16)21-18/h2-7,12,20H,8-11H2,1H3
Instrument: TripleTOF 6600 SCIEX
Instrument type: LC-ESI-QTOF
Ms type: MS2
Ion mode: POSITIVE
Collision energy: 120
Fragmentation mode: CID
Ionization: ESI
Column name: Zorbax Eclipse Plus C18 2.1 mm x 150 mm, 3.5 um, Agilent
Retention time: 6.951 min
Precursor m/z: 327.1371
Precursor type: [M+H]+
m/z	relative intensity
39.0231	22
42.0333	20
51.0219	12
61.0065	32
62.0148	43
63.0223	94
64.0176	26
65.0375	15
72.9836	32
74.0146	24
75.0224	33
77.0374	20
85.0062	20
86.0144	58
87.022	99
88.0188	33
88.0292	64
89.0382	62
90.0331	13
98.0144	27
99.0193	23
100.0167	17
110.0152	28
111.022	50
112.0208	54
113.0373	107
114.0336	113
115.0521	22
126.0439	12
137.0379	387
138.0378	319
139.0503	87
140.0488	107
141.0435	14
150.0447	25
151.0517	32
152.0538	16
162.0337	28
163.0405	61
164.0489	999
165.0452	174
166.0617	14
176.051	10
177.0558	30
178.0644	20
179.0653	13
189.0426	23
190.0533	40
191.0591	87
192.0671	18
