Mass spectrum: Codeine; LC-ESI-QTOF; MS2; 140 V
Name: Codeine
Formula: C18H21NO3
Exact mass: 299.1521
SMILES: CN1CCC23C4C1CC5=C2C(=C(C=C5)OC)OC3C(C=C4)O
InChI: InChI=1S/C18H21NO3/c1-19-8-7-18-11-4-5-13(20)17(18)22-16-14(21-2)6-3-10(15(16)18)9-12(11)19/h3-6,11-13,17,20H,7-9H2,1-2H3
Instrument: TripleTOF 6600 SCIEX
Instrument type: LC-ESI-QTOF
Ms type: MS2
Ion mode: POSITIVE
Collision energy: 140
Fragmentation mode: CID
Ionization: ESI
Column name: Zorbax Eclipse Plus C18 2.1 mm x 150 mm, 3.5 um, Agilent
Retention time: 5.043 min
Precursor m/z: 300.1594
Precursor type: [M+H]+
m/z	relative intensity
37.0072	62
38.0151	51
39.0229	251
41.0377	10
42.033	38
44.0487	62
49.0066	25
50.0145	329
51.0225	630
52.0292	51
59.9981	36
61.0063	168
62.0141	321
63.0218	677
64.0309	15
65.0382	262
73.0056	101
74.0141	664
75.0216	555
76.0292	342
77.0375	791
78.0453	160
83.9991	20
85.0053	75
86.0142	236
87.0212	251
88.0292	98
89.0376	838
91.0526	64
97.0059	20
98.0132	319
99.0215	134
100.0296	59
101.0373	106
102.045	493
103.0528	18
109.0072	23
110.0148	77
111.0221	33
113.0385	321
114.0456	54
115.0531	999
122.0136	38
123.0228	20
124.0276	18
125.0373	101
126.0446	703
127.0529	212
128.0608	160
129.0413	25
137.0378	54
138.0443	49
139.0524	503
141.0722	10
149.0377	80
150.0448	775
151.0529	646
152.0605	472
153.0691	12
155.0548	25
161.0362	64
162.044	140
163.0537	464
164.0599	72
165.0667	38
174.0436	33
175.0536	25
176.0608	62
177.0671	12
179.0603	20
185.0345	12
186.0487	15
187.0536	83
188.0623	18
189.0661	28
190.0697	12
