Mass spectrum: 1-(2,6-Dichlorophenyl)-2-indolinone; LC-ESI-QTOF; MS2; 40 V
Name: 1-(2,6-Dichlorophenyl)-2-indolinone
Class: Pharmaceutical; Transformation_product; Diclofenac-lactam; Transformation_product-Metabolite
Formula: C14H9Cl2NO
Exact mass: 277.0061
SMILES: C1C2=CC=CC=C2N(C1=O)C3=C(C=CC=C3Cl)Cl
InChI: InChI=1S/C14H9Cl2NO/c15-10-5-3-6-11(16)14(10)17-12-7-2-1-4-9(12)8-13(17)18/h1-7H,8H2
Instrument: TripleTOF 5600 SCIEX
Instrument type: LC-ESI-QTOF
Ms type: MS2
Ion mode: POSITIVE
Collision energy: 40
Fragmentation mode: CID
Ionization: ESI
Column name: Zorbax Eclipse Plus C18 2.1 mm x 150 mm, 3.5 um, Agilent
Retention time: 12.191 min
Precursor m/z: 278.0134
Precursor type: [M+H]+
m/z	relative intensity
77.044	59
79.0596	69
104.0536	12
105.0365	27
107.0521	11
108.9862	14
132.0475	39
135.9962	25
144.9625	45
151.0556	42
152.0628	18
164.0032	29
171.9721	204
172.9666	17
177.0579	18
178.0663	71
179.0743	100
180.0815	221
207.0679	25
208.0759	279
214.0418	999
215.0502	142
242.0402	14
243.043	54
250.0187	37
278.0133	259
