Mass spectrum: Tolcapone; LC-ESI-QTOF; MS2; 60 V
Name: Tolcapone
Class: Pharmaceutical
Formula: C14H11NO5
Exact mass: 273.0637
SMILES: CC1=CC=C(C=C1)C(=O)C2=CC(=C(C(=C2)O)O)[N+](=O)[O-]
InChI: InChI=1S/C14H11NO5/c1-8-2-4-9(5-3-8)13(17)10-6-11(15(19)20)14(18)12(16)7-10/h2-7,16,18H,1H3
Instrument: TripleTOF 5600 SCIEX
Instrument type: LC-ESI-QTOF
Ms type: MS2
Ion mode: POSITIVE
Collision energy: 60
Fragmentation mode: CID
Ionization: ESI
Column name: Zorbax Eclipse Plus C18 2.1 mm x 150 mm, 3.5 um, Agilent
Retention time: 11.114 min
Precursor m/z: 274.071
Precursor type: [M+H]+
m/z	relative intensity
65.0442	109
69.0039	20
79.0221	38
80.0306	18
91.0571	425
92.0168	43
108.0218	999
115.0523	11
119.0496	93
120.0064	13
128.0646	18
136.0161	491
141.0702	13
165.0069	13
182.0046	13
