Mass spectrum: N-ethyl-4-menthane-3-carboxamide; LC-ESI-QTOF; MS2; 20 V
Name: N-ethyl-4-menthane-3-carboxamide
Class: Food_additive; Personal_care_product
Formula: C13H25NO
Exact mass: 211.1936
SMILES: CCNC(=O)C1CC(CCC1C(C)C)C
InChI: InChI=1S/C13H25NO/c1-5-14-13(15)12-8-10(4)6-7-11(12)9(2)3/h9-12H,5-8H2,1-4H3,(H,14,15)
Instrument: TripleTOF 6600 SCIEX
Instrument type: LC-ESI-QTOF
Ms type: MS2
Ion mode: POSITIVE
Collision energy: 20
Fragmentation mode: CID
Ionization: ESI
Column name: Zorbax Eclipse Plus C18 2.1 mm x 150 mm, 3.5 um, Agilent
Retention time: 11.775 min
Precursor m/z: 212.2009
Precursor type: [M+H]+
m/z	relative intensity
83.0855	15
170.154	38
212.2017	999
