Mass spectrum: Solvent Yellow 124; LC-ESI-QTOF; MS2; 50 V
Name: Solvent Yellow 124
Formula: C22H31N3O2
Exact mass: 369.2416
SMILES: CCN(CCOC(C)OCC(C)C)C1=CC=C(C=C1)N=NC2=CC=CC=C2
InChI: InChI=1S/C22H31N3O2/c1-5-25(15-16-26-19(4)27-17-18(2)3)22-13-11-21(12-14-22)24-23-20-9-7-6-8-10-20/h6-14,18-19H,5,15-17H2,1-4H3
Instrument: TripleTOF X500R SCIEX
Instrument type: LC-ESI-QTOF
Ms type: MS2
Ion mode: POSITIVE
Collision energy: 50
Fragmentation mode: CID
Ionization: ESI
Column name: Zorbax Eclipse Plus C18 2.1 mm x 150 mm, 3.5 um, Agilent
Retention time: 18.347 min
Precursor m/z: 370.2489
Precursor type: [M+H]+
m/z	relative intensity
41.0383	13
45.034	15
51.0236	9
57.0702	48
77.039	591
95.05	11
104.05	19
105.0452	73
106.0652	94
117.0576	32
118.0651	38
119.0664	59
120.082	57
132.0813	293
133.0892	48
134.0968	552
136.0769	46
145.0765	83
146.0826	23
146.0963	9
147.0974	328
148.088	30
160.1024	27
163.0864	11
177.1021	21
178.1099	56
181.0758	19
182.0962	23
196.1015	11
210.1029	999
224.1187	32
225.1294	32
238.1308	13
239.1105	13
239.1416	162
241.1206	30
252.1512	52
270.16	600
270.2165	13
