Mass spectrum: Cortisone; LC-ESI-QTOF; MS2; 100 V
Name: Cortisone
Class: Pharmaceutical
Formula: C21H28O5
Exact mass: 360.1937
SMILES: C[C@]12CCC(=O)C=C1CC[C@H]3[C@@H]4CC[C@](O)(C(=O)CO)[C@@]4(C)CC(=O)[C@H]23
InChI: InChI=1S/C21H28O5/c1-19-7-5-13(23)9-12(19)3-4-14-15-6-8-21(26,17(25)11-22)20(15,2)10-16(24)18(14)19/h9,14-15,18,22,26H,3-8,10-11H2,1-2H3/t14-,15-,18+,19-,20-,21-/m0/s1
Instrument: TripleTOF 5600 SCIEX
Instrument type: LC-ESI-QTOF
Ms type: MS2
Ion mode: POSITIVE
Collision energy: 100
Fragmentation mode: CID
Ionization: ESI
Column name: Zorbax Eclipse Plus C18 2.1 mm x 150 mm, 3.5 um, Agilent
Retention time: 8.396 min
Precursor m/z: 361.201
Precursor type: [M+H]+
m/z	relative intensity
43.0256	29
55.027	33
65.0444	184
67.0581	38
77.044	974
77.0647	48
78.0508	38
79.0593	334
81.0757	58
83.054	67
89.0426	38
91.0583	999
91.0881	58
93.0729	87
94.0464	29
95.0518	19
97.0683	72
102.0487	48
103.0568	150
104.0654	53
105.0725	368
105.095	29
107.0519	92
107.0883	29
109.0676	19
115.0572	708
116.0652	92
117.0728	135
119.0518	19
119.0885	63
121.0662	63
127.0564	184
128.0651	611
129.0722	271
130.0805	48
131.0512	58
131.0856	53
132.0636	38
133.0672	116
139.0582	29
141.0729	276
142.0803	67
143.0908	53
146.0741	19
147.0837	203
148.0907	63
151.0577	43
152.065	198
153.0731	189
154.081	67
155.0882	77
164.0637	29
165.0738	339
166.0825	53
167.0883	63
169.1021	33
176.0635	24
177.0743	29
178.0809	179
179.0901	53
189.0736	63
190.0813	29
191.0892	33
193.1078	33
202.0805	38
203.0904	33
215.0912	24
