Mass spectrum: Sudan III; LC-ESI-QTOF; MS2; 60 V
Name: Sudan III
Formula: C22H16N4O
Exact mass: 352.1324
SMILES: C1=CC=C(C=C1)N=NC2=CC=C(C=C2)N=NC3=C(C=CC4=CC=CC=C43)O
InChI: InChI=1S/C22H16N4O/c27-21-15-10-16-6-4-5-9-20(16)22(21)26-25-19-13-11-18(12-14-19)24-23-17-7-2-1-3-8-17/h1-15,27H
Instrument: TripleTOF X500R SCIEX
Instrument type: LC-ESI-QTOF
Ms type: MS2
Ion mode: POSITIVE
Collision energy: 60
Fragmentation mode: CID
Ionization: ESI
Column name: Zorbax Eclipse Plus C18 2.1 mm x 150 mm, 3.5 um, Agilent
Retention time: 19.216 min
Precursor m/z: 353.1397
Precursor type: [M+H]+
m/z	relative intensity
51.023	115
59.0319	109
60.0311	57
63.0232	26
64.0319	31
65.0393	177
77.039	999
91.0422	230
92.0499	564
93.0575	31
101.0394	308
102.0328	36
115.0549	517
116.0541	31
127.0522	31
128.0502	878
129.0529	57
141.0721	78
143.0492	240
152.0615	36
153.0531	31
154.0653	36
156.0454	41
156.0663	41
166.0674	20
167.0739	115
168.0679	36
169.0768	245
170.0743	26
179.0602	52
181.0767	52
196.0878	632
197.0963	52
203.0719	41
205.076	31
205.0911	20
229.0763	26
230.0789	31
231.0887	73
232.088	88
