Mass spectrum: 1-Methyl-3-octylimidazolium; LC-ESI-QTOF; MS2; 100 V
Name: 1-Methyl-3-octylimidazolium
Formula: [C12H23N2]+
Exact mass: 195.1856
SMILES: CCCCCCCCN1C=C[N+](=C1)C
InChI: InChI=1S/C12H23N2/c1-3-4-5-6-7-8-9-14-11-10-13(2)12-14/h10-12H,3-9H2,1-2H3/q+1
Instrument: TripleTOF 5600 SCIEX
Instrument type: LC-ESI-QTOF
Ms type: MS2
Ion mode: POSITIVE
Collision energy: 100
Fragmentation mode: CID
Ionization: ESI
Column name: Zorbax Eclipse Plus C18 2.1 mm x 150 mm, 3.5 um, Agilent
Retention time: 7.538 min
Precursor m/z: 195.1856
Precursor type: [M]+
m/z	relative intensity
37.0084	187
38.0164	187
39.0236	999
41.027	187
41.0392	624
42.0349	593
43.0553	249
54.034	218
56.0508	156
67.0298	187
68.0355	249
68.0493	156
81.0437	280
82.0526	124
83.0597	218
95.0585	405
