Mass spectrum: 4-Formylaminoantipyrine; LC-ESI-QTOF; MS2; 110 V
Name: 4-Formylaminoantipyrine
Class: Pharmaceutical; Metabolite; Transformation_product
Formula: C12H13N3O2
Exact mass: 231.1008
SMILES: CN1N(C(=O)C(=C1C)NC=O)c2ccccc2
InChI: InChI=1S/C12H13N3O2/c1-9-11(13-8-16)12(17)15(14(9)2)10-6-4-3-5-7-10/h3-8H,1-2H3,(H,13,16)
Instrument: TripleTOF 5600 SCIEX
Instrument type: LC-ESI-QTOF
Ms type: MS2
Ion mode: POSITIVE
Collision energy: 110
Fragmentation mode: CID
Ionization: ESI
Column name: Zorbax Eclipse Plus C18 2.1 mm x 150 mm, 3.5 um, Agilent
Retention time: 5.623 min
Precursor m/z: 232.1081
Precursor type: [M+H]+
m/z	relative intensity
41.0352	30
42.0431	86
56.056	999
65.044	43
74.0164	24
77.0416	419
77.077	24
