Mass spectrum: Dienogest Impurity G; LC-ESI-QTOF; MS2; 50 V
Name: Dienogest Impurity G
Class: Pharmaceutical
Formula: C20H23NO2
Exact mass: 309.1729
SMILES: CC12CC=C3C(C1CCC2(CC#N)O)CCC4=C3C=CC(=C4)O
InChI: InChI=1S/C20H23NO2/c1-19-8-6-16-15-5-3-14(22)12-13(15)2-4-17(16)18(19)7-9-20(19,23)10-11-21/h3,5-6,12,17-18,22-23H,2,4,7-10H2,1H3
Instrument: TripleTOF 6600 SCIEX
Instrument type: LC-ESI-QTOF
Ms type: MS2
Ion mode: NEGATIVE
Collision energy: 50
Fragmentation mode: CID
Ionization: ESI
Column name: Zorbax Eclipse Plus C18 2.1 mm x 150 mm, 3.5 um, Agilent
Retention time: 9.956 min
Precursor m/z: 308.1656
Precursor type: [M-H]-
m/z	relative intensity
143.0492	69
156.0563	69
157.0644	78
159.0811	78
169.0655	138
171.0794	999
195.0808	78
209.0959	121
223.1104	121
251.105	182
267.1363	642
274.1209	217
290.1512	182
