Mass spectrum: 10,11-Dihydrocarbamazepine; LC-ESI-QTOF; MS2; 40 V
Name: 10,11-Dihydrocarbamazepine
Class: Pharmaceutical; Metabolite
Formula: C15H14N2O
Exact mass: 238.1106
SMILES: NC(=O)N1c2ccccc2CCc3ccccc13
InChI: InChI=1S/C15H14N2O/c16-15(18)17-13-7-3-1-5-11(13)9-10-12-6-2-4-8-14(12)17/h1-8H,9-10H2,(H2,16,18)
Instrument: TripleTOF 5600 SCIEX
Instrument type: LC-ESI-QTOF
Ms type: MS2
Ion mode: POSITIVE
Collision energy: 40
Fragmentation mode: CID
Ionization: ESI
Column name: Zorbax Eclipse Plus C18 2.1 mm x 150 mm, 3.5 um, Agilent
Retention time: 9.235 min
Precursor m/z: 239.1179
Precursor type: [M+H]+
m/z	relative intensity
91.0562	177
116.0493	17
118.0649	73
128.0485	14
152.0633	11
166.0671	17
167.0813	77
168.0804	21
178.0765	33
179.0744	63
180.0811	474
181.0886	148
192.081	26
193.089	108
194.0967	999
195.1038	10
196.1118	102
222.0912	10
