Mass spectrum: Acetaminophen; LC-ESI-QTOF; MS2; 40 V
Name: Acetaminophen
Class: Pharmaceutical
Formula: C8H9NO2
Exact mass: 151.0633
SMILES: CC(=O)NC1=CC=C(C=C1)O
InChI: InChI=1S/C8H9NO2/c1-6(10)9-7-2-4-8(11)5-3-7/h2-5,11H,1H3,(H,9,10)
Instrument: TripleTOF 5600 SCIEX
Instrument type: LC-ESI-QTOF
Ms type: MS2
Ion mode: POSITIVE
Collision energy: 40
Fragmentation mode: CID
Ionization: ESI
Column name: Zorbax Eclipse Plus C18 2.1 mm x 150 mm, 3.5 um, Agilent
Retention time: 5.022 min
Precursor m/z: 152.0706
Precursor type: [M+H]+
m/z	relative intensity
43.0278	212
55.0603	13
65.0428	999
67.0452	33
80.0511	35
82.0673	53
92.0507	181
93.035	373
93.0579	79
109.0512	95
110.0601	245
