Mass spectrum: 2-Hydroxybenzothiazole; LC-ESI-QTOF; MS2; 40 V
Name: 2-Hydroxybenzothiazole
Class: Industrial_process
Formula: C7H5NOS
Exact mass: 151.0092
InChI: InChI=1S/C7H5NOS/c9-7-8-5-3-1-2-4-6(5)10-7/h1-4H,(H,8,9)
Instrument: TripleTOF 5600 SCIEX
Instrument type: LC-ESI-QTOF
Ms type: CID
Ion mode: POSITIVE
Collision energy: 40
Ionization: ESI
Column name: Zorbax Eclipse Plus C18 2.1 mm x 150 mm, 3.5 um, Agilent
Retention time: 7.776 min
Precursor m/z: 152.0165
Precursor type: [M+H]+
m/z	relative intensity
39.0231	66
53.0392	95
64.0314	76
65.0388	685
68.98	142
80.0498	999
90.0338	304
91.0414	371
92.0496	390
97.0111	142
106.993	66
109.011	494
119.0377	485
124.023	580
134.0063	85
152.0169	818
