Mass spectrum: 6`-Hydroxymethyl Simvastatin; LC-ESI-QTOF; MS2; 50 V
Name: 6`-Hydroxymethyl Simvastatin
Class: Metabolite; Pharmaceutical
Formula: C25H38O6
Exact mass: 434.2668
SMILES: CCC(C)(C)C(=O)OC1CC(C=C2C1C(C(C=C2)C)CCC3CC(CC(=O)O3)O)CO
InChI: InChI=1S/C25H38O6/c1-5-25(3,4)24(29)31-21-11-16(14-26)10-17-7-6-15(2)20(23(17)21)9-8-19-12-18(27)13-22(28)30-19/h6-7,10,15-16,18-21,23,26-27H,5,8-9,11-14H2,1-4H3
Instrument: TripleTOF 5600 SCIEX
Instrument type: LC-ESI-QTOF
Ms type: MS2
Ion mode: POSITIVE
Collision energy: 50
Fragmentation mode: CID
Ionization: ESI
Column name: Zorbax Eclipse Plus C18 2.1 mm x 150 mm, 3.5 um, Agilent
Retention time: 10.786 min
Precursor m/z: 435.2741
Precursor type: [M+H]+
m/z	relative intensity
79.0597	67
81.0753	54
91.0596	54
117.0725	67
119.0866	94
129.0705	121
131.0866	94
141.0702	188
142.0788	175
143.0881	364
145.1015	67
153.0734	94
154.0813	108
155.0873	445
156.0934	445
157.1012	323
159.1157	134
165.0701	94
166.0785	80
167.0854	175
168.101	80
169.102	850
171.1165	769
173.1364	54
179.0852	134
180.0924	108
181.0998	364
182.1086	283
183.1164	108
189.1258	242
193.1034	202
194.1083	94
195.1175	567
197.1331	999
199.1476	94
206.1091	80
208.1192	175
209.1357	148
211.1448	94
215.1422	121
217.0967	108
219.116	121
221.132	256
223.1502	553
227.1138	54
232.1272	121
241.1599	108
247.1477	242
265.1547	80
