Mass spectrum: Nadolol; LC-ESI-QTOF; MS2; 120 V
Name: Nadolol
Class: Pharmaceutical
Formula: C17H27NO4
Exact mass: 309.194
SMILES: CC(C)(C)NCC(COC1=CC=CC2=C1CC(C(C2)O)O)O
InChI: InChI=1S/C17H27NO4/c1-17(2,3)18-9-12(19)10-22-16-6-4-5-11-7-14(20)15(21)8-13(11)16/h4-6,12,14-15,18-21H,7-10H2,1-3H3
Instrument: TripleTOF 5600 SCIEX
Instrument type: LC-ESI-QTOF
Ms type: MS2
Ion mode: POSITIVE
Collision energy: 120
Fragmentation mode: CID
Ionization: ESI
Column name: Zorbax Eclipse Plus C18 2.1 mm x 150 mm, 3.5 um, Agilent
Retention time: 5.13 min
Precursor m/z: 310.2013
Precursor type: [M+H]+
m/z	relative intensity
50.0196	29
51.0279	104
56.0561	119
57.0746	156
58.07	29
63.0251	44
65.041	201
75.024	37
76.0354	29
77.0409	395
77.0577	59
78.0483	111
89.0402	275
91.0564	410
101.0415	37
102.0482	238
103.055	178
113.0383	37
114.0477	37
115.0551	999
115.0821	29
116.0636	44
126.0467	119
127.0549	231
128.063	350
131.0484	67
139.0545	52
150.0462	29
151.0533	52
152.0636	149
