Mass spectrum: Flurtamone; LC-ESI-QTOF; MS2; 90 V
Name: Flurtamone
Class: Herbicide
Formula: C18H14F3NO2
Exact mass: 333.0977
SMILES: CNC1=C(C(=O)C(O1)C2=CC=CC=C2)C3=CC(=CC=C3)C(F)(F)F
InChI: InChI=1S/C18H14F3NO2/c1-22-17-14(12-8-5-9-13(10-12)18(19,20)21)15(23)16(24-17)11-6-3-2-4-7-11/h2-10,16,22H,1H3
Instrument: TripleTOF 6600 SCIEX
Instrument type: LC-ESI-QTOF
Ms type: MS2
Ion mode: POSITIVE
Collision energy: 90
Fragmentation mode: CID
Ionization: ESI
Column name: Zorbax Eclipse Plus C18 2.1 mm x 150 mm, 3.5 um, Agilent
Retention time: 11.864 min
Precursor m/z: 334.105
Precursor type: [M+H]+
m/z	relative intensity
42.0339	20
50.0151	28
51.0229	100
58.0286	25
77.0388	312
89.0383	19
91.0545	11
99.0225	13
102.0464	22
105.0341	18
115.0542	17
126.0463	39
127.0543	11
128.0624	53
139.0546	33
145.0267	19
149.0201	10
150.0471	76
151.0538	484
152.0627	680
163.0546	31
165.0703	25
169.027	31
170.0531	22
175.0544	38
176.0633	999
177.0708	434
178.0788	639
179.0606	16
181.0454	65
183.0614	17
187.0547	54
189.0707	16
194.0529	16
195.0615	14
196.0693	89
201.0524	73
205.0466	85
206.0537	86
207.0618	353
225.0526	166
227.0682	101
245.0592	35
246.0665	18
