Mass spectrum: Haloxyfop-2-ethoxyethyl; LC-ESI-QTOF; MS2; 70 V
Name: Haloxyfop-2-ethoxyethyl
Class: Herbicide
Formula: C19H19ClF3NO5
Exact mass: 433.0904
SMILES: CCOCCOC(=O)C(C)Oc1ccc(Oc2ncc(cc2Cl)C(F)(F)F)cc1
InChI: InChI=1S/C19H19ClF3NO5/c1-3-26-8-9-27-18(25)12(2)28-14-4-6-15(7-5-14)29-17-16(20)10-13(11-24-17)19(21,22)23/h4-7,10-12H,3,8-9H2,1-2H3
Instrument: TripleTOF 5600 SCIEX
Instrument type: LC-ESI-QTOF
Ms type: MS2
Ion mode: POSITIVE
Collision energy: 70
Fragmentation mode: CID
Ionization: ESI
Column name: Zorbax Eclipse Plus C18 2.1 mm x 150 mm, 3.5 um, Agilent
Retention time: 15.493 min
Precursor m/z: 434.0977
Precursor type: [M+H]+
m/z	relative intensity
45.0394	59
65.0442	190
73.0687	71
74.0169	47
75.0261	59
91.0547	999
99.051	59
100.0515	71
119.0465	59
168.0433	59
175.016	47
179.9824	95
182.0268	47
189.0412	71
203.0115	83
208.0379	83
209.0443	309
216.0243	142
219.0022	47
232.0145	107
235.0582	59
237.0413	142
252.0027	83
252.0669	59
272.0047	903
288.0016	83
