Mass spectrum: 2-N-methyl-lamotrigine; LC-ESI-QTOF; MS2; 70 V
Name: 2-N-methyl-lamotrigine
Class: Metabolite; Pharmaceutical
Formula: C10H9Cl2N5
Exact mass: 269.0235
SMILES: CN1N=C(C2=CC=CC(Cl)=C2Cl)C(N)=NC1=N
InChI: InChI=1S/C10H9Cl2N5/c1-17-10(14)15-9(13)8(16-17)5-3-2-4-6(11)7(5)12/h2-4H,1H3,(H3,13,14,15)
Instrument: TripleTOF 5600 SCIEX
Instrument type: LC-ESI-QTOF
Ms type: MS2
Ion mode: POSITIVE
Collision energy: 70
Fragmentation mode: CID
Ionization: ESI
Column name: Zorbax Eclipse Plus C18 2.1 mm x 150 mm, 3.5 um, Agilent
Retention time: 6.444 min
Precursor m/z: 270.0308
Precursor type: [M+H]+
m/z	relative intensity
43.0365	54
44.0448	10
57.0501	999
72.0581	20
72.9873	22
74.0173	51
75.0265	18
77.0405	11
87.025	13
88.0262	23
89.0402	10
96.9841	18
99.0105	25
100.0188	198
102.0346	15
102.0462	23
103.0549	20
104.0493	11
108.9848	178
110.9996	22
114.0342	202
115.0422	17
122.9992	361
123.9945	80
125.0016	15
128.0525	11
129.0452	11
130.0648	22
131.0592	10
132.9602	63
135.9945	167
137.0011	23
138.0103	56
144.959	101
147.9965	10
149.0022	22
150.0102	85
151.0104	18
156.9591	20
158.9661	20
159.9715	11
163.0077	13
163.9999	85
165.0207	47
166.0272	17
170.9637	53
171.971	123
172.9658	15
183.9717	15
184.979	101
185.9755	68
