Mass spectrum: Oxipurinol; LC-ESI-QTOF; MS2; 120 V
Name: Oxipurinol
Class: Metabolite; Pharmaceutical; Transformation_product
Formula: C5H4N4O2
Exact mass: 152.0334
SMILES: O=C1NC(=O)C2=CNNC2=N1
InChI: InChI=1S/C5H4N4O2/c10-4-2-1-6-9-3(2)7-5(11)8-4/h1H,(H3,6,7,8,9,10,11)
Instrument: TripleTOF 5600 SCIEX
Instrument type: LC-ESI-QTOF
Ms type: MS2
Ion mode: NEGATIVE
Collision energy: 120
Fragmentation mode: CID
Ionization: ESI
Column name: Zorbax Eclipse Plus C18 2.1 mm x 150 mm, 3.5 um, Agilent
Retention time: 2.85 min
Precursor m/z: 151.0261
Precursor type: [M-H]-
m/z	relative intensity
42.0005	999
42.018	90
44.9991	181
66.0131	90
