Mass spectrum: Terfenadine; LC-ESI-QTOF; MS2; 100 V
Name: Terfenadine
Class: Pharmaceutical
Formula: C32H41NO2
Exact mass: 471.3137
SMILES: CC(C)(C)C1=CC=C(C=C1)C(CCCN2CCC(CC2)C(C3=CC=CC=C3)(C4=CC=CC=C4)O)O
InChI: InChI=1S/C32H41NO2/c1-31(2,3)26-18-16-25(17-19-26)30(34)15-10-22-33-23-20-29(21-24-33)32(35,27-11-6-4-7-12-27)28-13-8-5-9-14-28/h4-9,11-14,16-19,29-30,34-35H,10,15,20-24H2,1-3H3
Instrument: TripleTOF 6600 SCIEX
Instrument type: LC-ESI-QTOF
Ms type: MS2
Ion mode: POSITIVE
Collision energy: 100
Fragmentation mode: CID
Ionization: ESI
Column name: Zorbax Eclipse Plus C18 2.1 mm x 150 mm, 3.5 um, Agilent
Retention time: 10.223 min
Precursor m/z: 472.321
Precursor type: [M+H]+
m/z	relative intensity
39.0215	129
41.0371	249
42.0319	59
55.0521	49
57.0683	379
65.0361	139
68.0467	99
70.0629	69
77.036	149
79.0515	89
80.0463	79
82.0624	119
83.0713	39
91.052	999
94.0638	59
96.0783	79
98.094	69
103.0505	69
105.0672	139
115.0515	399
116.0591	99
117.0672	409
118.0755	99
119.0819	49
127.0516	139
128.0588	599
129.0666	289
131.0826	159
132.0895	129
141.0665	59
142.073	59
145.0986	39
146.0723	49
152.0579	99
161.0938	79
165.0673	99
167.0841	59
178.0742	79
190.0746	59
191.0809	49
202.0749	139
203.0818	149
204.0906	39
215.0827	109
217.0984	79
