Mass spectrum: Epirubicin; LC-ESI-QTOF; MS2; 130 V
Name: Epirubicin
Class: Pharmaceutical
Formula: C27H29NO11
Exact mass: 543.1741
SMILES: CC1C(C(CC(O1)OC2CC(CC3=C(C4=C(C(=C23)O)C(=O)C5=C(C4=O)C=CC=C5OC)O)(C(=O)CO)O)N)O
InChI: InChI=1S/C27H29NO11/c1-10-22(31)13(28)6-17(38-10)39-15-8-27(36,16(30)9-29)7-12-19(15)26(35)21-20(24(12)33)23(32)11-4-3-5-14(37-2)18(11)25(21)34/h3-5,10,13,15,17,22,29,31,33,35-36H,6-9,28H2,1-2H3
Instrument: TripleTOF 5600 SCIEX
Instrument type: LC-ESI-QTOF
Ms type: MS2
Ion mode: NEGATIVE
Collision energy: 130
Fragmentation mode: CID
Ionization: ESI
Column name: Zorbax Eclipse Plus C18 2.1 mm x 150 mm, 3.5 um, Agilent
Retention time: 7.492 min
Precursor m/z: 542.1668
Precursor type: [M-H]-
m/z	relative intensity
89.0411	52
91.0182	78
93.0355	78
116.0265	78
117.0365	210
145.0297	210
151.0537	78
157.0272	52
172.0171	52
173.0223	289
175.0572	52
180.0609	131
182.0415	52
191.0501	420
193.0714	131
194.0359	52
195.0453	236
203.0514	78
204.0614	131
205.0634	105
207.0463	289
208.0522	236
209.0623	236
219.0467	999
220.0491	78
220.062	52
221.0632	184
223.0408	78
232.0524	105
232.0602	78
233.0643	52
234.0336	78
235.0404	604
236.048	131
237.0589	262
239.0352	131
247.0406	368
248.0481	736
249.0606	78
250.0311	52
251.0428	184
260.0541	52
261.0644	131
263.0364	552
264.0444	525
265.0553	131
275.0412	78
276.0518	236
277.0577	52
291.0359	236
292.0403	289
293.0511	236
304.0443	52
321.0392	52
