Mass spectrum: Terbutaline; LC-ESI-QTOF; MS2; 40 V
Name: Terbutaline
Class: Pharmaceutical
Formula: C12H19NO3
Exact mass: 225.1365
SMILES: CC(C)(C)NCC(C1=CC(=CC(=C1)O)O)O
InChI: InChI=1S/C12H19NO3/c1-12(2,3)13-7-11(16)8-4-9(14)6-10(15)5-8/h4-6,11,13-16H,7H2,1-3H3
Instrument: TripleTOF 5600 SCIEX
Instrument type: LC-ESI-QTOF
Ms type: MS2
Ion mode: POSITIVE
Collision energy: 40
Fragmentation mode: CID
Ionization: ESI
Column name: Zorbax Eclipse Plus C18 2.1 mm x 150 mm, 3.5 um, Agilent
Retention time: 4.546 min
Precursor m/z: 226.1438
Precursor type: [M+H]+
m/z	relative intensity
57.0696	81
68.9972	63
77.0389	116
79.0538	105
82.066	16
84.0815	32
91.0549	16
92.0489	21
106.0649	21
107.0491	999
109.0644	28
110.0358	77
110.0585	46
116.0483	18
125.0601	690
134.0604	37
135.0443	93
152.0704	340
