Mass spectrum: Valsartan; LC-ESI-QTOF; MS2; 100 V
Name: Valsartan
Class: Pharmaceutical
Formula: C24H29N5O3
Exact mass: 435.227
SMILES: CCCCC(=O)N(Cc1ccc(cc1)c2ccccc2c3n[nH]nn3)[C@@H](C(C)C)C(O)=O
InChI: InChI=1S/C24H29N5O3/c1-4-5-10-21(30)29(22(16(2)3)24(31)32)15-17-11-13-18(14-12-17)19-8-6-7-9-20(19)23-25-27-28-26-23/h6-9,11-14,16,22H,4-5,10,15H2,1-3H3,(H,31,32)(H,25,26,27,28)/t22-/m0/s1
Instrument: TripleTOF 5600 SCIEX
Instrument type: LC-ESI-QTOF
Ms type: MS2
Ion mode: POSITIVE
Collision energy: 100
Fragmentation mode: CID
Ionization: ESI
Column name: Zorbax Eclipse Plus C18 2.1 mm x 150 mm, 3.5 um, Agilent
Retention time: 11.443 min
Precursor m/z: 436.2343
Precursor type: [M+H]+
m/z	relative intensity
77.0411	66
80.0519	11
89.0393	13
113.0387	18
114.0438	17
115.0543	47
125.038	14
126.045	14
127.0535	105
128.0485	23
128.0617	19
138.0453	34
139.0534	62
140.0491	126
141.0569	19
150.046	54
151.0542	392
152.0618	999
153.0691	180
154.0652	25
162.046	23
163.0537	257
164.0547	211
165.0682	263
166.0643	54
167.0719	21
168.067	20
176.0608	141
177.0642	197
178.071	453
179.0719	174
180.0802	131
188.0495	37
189.0564	78
190.0645	427
191.0636	101
192.0681	131
205.0757	501
206.0845	35
