Mass spectrum: Diflufenican; LC-ESI-QTOF; MS2; 150 V
Name: Diflufenican
Class: Herbicide
Formula: C19H11F5N2O2
Exact mass: 394.0741
SMILES: C1=CC(=CC(=C1)OC2=C(C=CC=N2)C(=O)NC3=C(C=C(C=C3)F)F)C(F)(F)F
InChI: InChI=1S/C19H11F5N2O2/c20-12-6-7-16(15(21)10-12)26-17(27)14-5-2-8-25-18(14)28-13-4-1-3-11(9-13)19(22,23)24/h1-10H,(H,26,27)
Instrument: TripleTOF 6600 SCIEX
Instrument type: LC-ESI-QTOF
Ms type: MS2
Ion mode: POSITIVE
Collision energy: 150
Fragmentation mode: CID
Ionization: ESI
Column name: Zorbax Eclipse Plus C18 2.1 mm x 150 mm, 3.5 um, Agilent
Retention time: 14.853 min
Precursor m/z: 395.0814
Precursor type: [M+H]+
m/z	relative intensity
37.0079	99
39.0235	133
50.0158	216
51.0036	83
51.023	266
57.014	183
61.0077	233
62.0153	399
63.0231	549
68.9947	166
73.0075	149
74.0152	999
75.0045	316
75.0232	815
81.0136	249
83.0302	99
85.0068	166
86.0152	249
87.0228	466
88.0171	133
88.0299	166
89.0391	83
95.0281	183
98.0146	283
99.0089	149
99.0218	99
101.0184	116
105.015	183
107.0295	149
110.0147	116
112.0163	133
113.0384	599
114.0352	166
114.0459	116
117.0127	133
122.0147	482
123.0092	116
123.0211	216
124.0186	99
125.0201	116
131.0285	116
133.0438	183
138.0325	116
140.0485	233
143.0289	99
145.0259	83
147.0103	116
148.0182	116
149.0194	99
151.0371	83
162.0273	116
