Mass spectrum: Dimethachlor; LC-ESI-QTOF; MS2; 80 V
Name: Dimethachlor
Class: Herbicide
Formula: C13H18ClNO2
Exact mass: 255.1026
SMILES: CC1=C(C(=CC=C1)C)N(CCOC)C(=O)CCl
InChI: InChI=1S/C13H18ClNO2/c1-10-5-4-6-11(2)13(10)15(7-8-17-3)12(16)9-14/h4-6H,7-9H2,1-3H3
Instrument: TripleTOF 6600 SCIEX
Instrument type: LC-ESI-QTOF
Ms type: MS2
Ion mode: POSITIVE
Collision energy: 80
Fragmentation mode: CID
Ionization: ESI
Column name: Zorbax Eclipse Plus C18 2.1 mm x 150 mm, 3.5 um, Agilent
Retention time: 10.992 min
Precursor m/z: 256.1099
Precursor type: [M+H]+
m/z	relative intensity
39.0237	18
46.9683	18
48.9844	201
49.0077	10
50.0153	61
51.0234	266
53.0395	15
63.0218	10
65.0386	67
66.0473	10
77.0391	999
78.0457	25
79.0544	245
89.0386	55
90.046	85
91.0544	230
102.0471	16
103.0538	173
104.0492	10
104.063	18
105.044	27
105.0706	125
106.0648	49
107.0728	22
115.0544	45
116.0493	16
117.0571	373
118.0649	94
119.0799	10
128.061	10
130.0649	150
131.0726	48
132.0811	75
143.0738	10
144.0788	10
