Mass spectrum: Torasemide; LC-ESI-QTOF; MS2; 60 V
Name: Torasemide
Class: Pharmaceutical
Formula: C16H20N4O3S
Exact mass: 348.1256
SMILES: CC(C)NC(=O)N[S](=O)(=O)c1cnccc1Nc2cccc(C)c2
InChI: InChI=1S/C16H20N4O3S/c1-11(2)18-16(21)20-24(22,23)15-10-17-8-7-14(15)19-13-6-4-5-12(3)9-13/h4-11H,1-3H3,(H,17,19)(H2,18,20,21)
Instrument: TripleTOF 5600 SCIEX
Instrument type: LC-ESI-QTOF
Ms type: MS2
Ion mode: NEGATIVE
Collision energy: 60
Fragmentation mode: CID
Ionization: ESI
Column name: Zorbax Eclipse Plus C18 2.1 mm x 150 mm, 3.5 um, Agilent
Retention time: 7.633 min
Precursor m/z: 347.1183
Precursor type: [M-H]-
m/z	relative intensity
48.9772	131
77.9661	412
91.0309	108
92.0383	294
93.0466	131
108.0334	395
150.998	59
180.0714	63
181.0773	999
182.0762	113
183.0943	339
194.074	113
195.0818	762
196.0896	441
198.1056	148
226.0474	136
262.0697	175
