Mass spectrum: Lumichrome; LC-ESI-QTOF; MS2; 60 V
Name: Lumichrome
Class: Pharmaceutical
Formula: C12H10N4O2
Exact mass: 242.0804
SMILES: CC1=CC2=C(C=C1C)N=C3C(=N2)C(=O)NC(=O)N3
InChI: InChI=1S/C12H10N4O2/c1-5-3-7-8(4-6(5)2)14-10-9(13-7)11(17)16-12(18)15-10/h3-4H,1-2H3,(H2,14,15,16,17,18)
Instrument: TripleTOF 6600 SCIEX
Instrument type: LC-ESI-QTOF
Ms type: MS2
Ion mode: POSITIVE
Collision energy: 60
Fragmentation mode: CID
Ionization: ESI
Column name: Zorbax Eclipse Plus C18 2.1 mm x 150 mm, 3.5 um, Agilent
Retention time: 7.067 min
Precursor m/z: 243.0877
Precursor type: [M+H]+
m/z	relative intensity
50.0158	20
51.0235	98
63.0233	16
65.039	68
75.023	38
76.0187	10
77.0393	999
78.0474	22
89.039	111
90.0336	14
90.046	9
91.0547	341
92.0503	15
101.0392	43
102.0344	51
102.0466	82
103.0548	684
104.0501	146
105.0451	42
114.035	12
115.0412	14
116.0499	455
117.0572	100
118.0652	186
119.0605	10
126.0341	13
128.0499	82
129.045	64
130.0404	48
130.0652	104
131.061	12
142.0526	48
143.0603	48
145.0764	112
153.0458	31
156.0558	96
157.0637	63
170.0719	91
172.0889	36
198.0668	24
