Mass spectrum: 2-(Thiocyanomethylthio)benzothiazole; LC-ESI-QTOF; MS2; 140 V
Name: 2-(Thiocyanomethylthio)benzothiazole
Class: Antimicrobial; Fungicide
Formula: C9H6N2S3
Exact mass: 237.9693
SMILES: C1=CC=C2C(=C1)N=C(S2)SCSC#N
InChI: InChI=1S/C9H6N2S3/c10-5-12-6-13-9-11-7-3-1-2-4-8(7)14-9/h1-4H,6H2
Instrument: TripleTOF 6600 SCIEX
Instrument type: LC-ESI-QTOF
Ms type: MS2
Ion mode: POSITIVE
Collision energy: 140
Fragmentation mode: CID
Ionization: ESI
Column name: Zorbax Eclipse Plus C18 2.1 mm x 150 mm, 3.5 um, Agilent
Retention time: 12.417 min
Precursor m/z: 238.9766
Precursor type: [M+H]+
m/z	relative intensity
31.9716	12
35.9994	31
37.0074	142
38.0154	89
39.0234	224
43.9713	79
44.9796	365
45.9747	31
45.9872	16
49.0073	149
50.0156	459
51.0233	261
52.0187	21
56.9791	14
57.9872	41
60	19
61.0072	120
62.0153	193
63.0232	181
63.9432	26
64.0185	45
65.0388	36
67.9718	162
68.9797	999
69.9744	26
69.9865	24
73.0073	26
74.0153	82
75.0109	16
75.0216	16
76.0183	21
77.0378	12
80.9792	45
81.9874	65
91.9722	38
92.9794	91
94.9944	29
