Mass spectrum: Ifosfamide; LC-ESI-QTOF; MS2; 40 V
Name: Ifosfamide
Class: Pharmaceutical
Formula: C7H15Cl2N2O2P
Exact mass: 260.0248
SMILES: ClCCN[P]1(=O)OCCCN1CCCl
InChI: InChI=1S/C7H15Cl2N2O2P/c8-2-4-10-14(12)11(6-3-9)5-1-7-13-14/h1-7H2,(H,10,12)
Instrument: TripleTOF 5600 SCIEX
Instrument type: LC-ESI-QTOF
Ms type: MS2
Ion mode: POSITIVE
Collision energy: 40
Fragmentation mode: CID
Ionization: ESI
Column name: Zorbax Eclipse Plus C18 2.1 mm x 150 mm, 3.5 um, Agilent
Retention time: 7.429 min
Precursor m/z: 261.0321
Precursor type: [M+H]+
m/z	relative intensity
56.0545	95
63.0047	333
78.0129	231
79.9942	12
82.0693	13
84.0845	10
92.0282	999
106.0039	27
118.0046	73
118.0406	18
120.0576	123
123.9708	16
125.95	150
126.9715	10
127.9666	35
128.025	31
141.9812	36
146.0346	30
153.9818	660
182.0122	31
233.0043	19
