Mass spectrum: Quinoxyfen; LC-ESI-QTOF; MS2; 50 V
Name: Quinoxyfen
Class: Fungicide
Formula: C15H8Cl2FNO
Exact mass: 306.9967
SMILES: C1=CC(=CC=C1OC2=C3C(=CC(=CC3=NC=C2)Cl)Cl)F
InChI: InChI=1S/C15H8Cl2FNO/c16-9-7-12(17)15-13(8-9)19-6-5-14(15)20-11-3-1-10(18)2-4-11/h1-8H
Instrument: TripleTOF 6600 SCIEX
Instrument type: LC-ESI-QTOF
Ms type: MS2
Ion mode: POSITIVE
Collision energy: 50
Fragmentation mode: CID
Ionization: ESI
Column name: Zorbax Eclipse Plus C18 2.1 mm x 150 mm, 3.5 um, Agilent
Retention time: 15.195 min
Precursor m/z: 308.004
Precursor type: [M+H]+
m/z	relative intensity
74.0136	21
75.0217	70
95.0278	125
114.0319	11
115.04	19
122.9988	50
123.0325	33
127.0404	10
150.0088	128
151.0167	18
162.0095	522
169.9671	17
179.0119	33
183.0592	20
183.9704	14
184.9783	78
190.0638	13
195.9689	12
196.9786	999
208.0547	21
209.0618	61
210.07	42
212.9748	10
213.9814	644
217.0195	16
225.0334	37
237.0583	129
238.0648	13
243.0243	15
244.0317	76
245.0395	107
253.0285	25
254.0357	12
272.0271	252
280.0084	15
287.9956	14
308.0042	129
