Mass spectrum: Difenoconazole; LC-ESI-QTOF; MS2; 100 V
Name: Difenoconazole
Class: Fungicide
Formula: C19H17Cl2N3O3
Exact mass: 405.0647
SMILES: CC1COC(Cn2cncn2)(O1)c3ccc(Oc4ccc(Cl)cc4)cc3Cl
InChI: InChI=1S/C19H17Cl2N3O3/c1-13-9-25-19(27-13,10-24-12-22-11-23-24)17-7-6-16(8-18(17)21)26-15-4-2-14(20)3-5-15/h2-8,11-13H,9-10H2,1H3
Instrument: TripleTOF 6600 SCIEX
Instrument type: LC-ESI-QTOF
Ms type: MS2
Ion mode: POSITIVE
Collision energy: 100
Fragmentation mode: CID
Ionization: ESI
Column name: Zorbax Eclipse Plus C18 2.1 mm x 150 mm, 3.5 um, Agilent
Retention time: 13.755 min
Precursor m/z: 406.072
Precursor type: [M+H]+
m/z	relative intensity
39.0232	14
50.0146	34
51.0229	47
60.983	9
63.023	12
72.983	17
74.015	249
75.0229	999
76.0301	16
77.0382	134
78.0454	21
84.9832	79
89.0384	31
98.9994	14
102.0452	17
110.9992	389
113.0135	12
113.0388	12
114.0462	9
115.0536	11
126.0454	28
127.0536	39
128.0612	38
138.0458	31
139.0055	99
139.0534	196
141.0096	162
149.0151	38
150.0467	37
151.0534	143
152.0617	844
153.0695	199
154.987	13
155.0601	11
162.0218	31
167.0485	22
173.0145	47
179.0589	24
180.0564	9
181.0638	61
182.9758	27
187.0298	11
188.038	83
202.0168	47
215.0249	29
264.9836	11
