Mass spectrum: Hydroxychloroquine; LC-ESI-QTOF; MS2; 120 V
Name: Hydroxychloroquine
Class: Pharmaceutical
Formula: C18H26ClN3O
Exact mass: 335.1764
SMILES: CCN(CCCC(C)NC1=C2C=CC(=CC2=NC=C1)Cl)CCO
InChI: InChI=1S/C18H26ClN3O/c1-3-22(11-12-23)10-4-5-14(2)21-17-8-9-20-18-13-15(19)6-7-16(17)18/h6-9,13-14,23H,3-5,10-12H2,1-2H3,(H,20,21)
Instrument: TripleTOF 5600 SCIEX
Instrument type: LC-ESI-QTOF
Ms type: MS2
Ion mode: POSITIVE
Collision energy: 120
Fragmentation mode: CID
Ionization: ESI
Column name: Zorbax Eclipse Plus C18 2.1 mm x 150 mm, 3.5 um, Agilent
Retention time: 4.747 min
Precursor m/z: 336.1837
Precursor type: [M+H]+
m/z	relative intensity
39.0234	399
41.0372	199
44.0491	599
45.033	399
51.0237	199
74.0128	199
75.0222	599
77.0361	599
77.0433	199
89.0382	799
90.0449	599
99.0268	399
100.0289	199
101.0353	399
102.0453	199
111.0024	399
112.0102	199
116.0495	999
117.0546	799
126.0349	199
127.0362	399
128.0478	799
129.0475	199
129.0608	199
136.0163	199
143.0612	399
155.0529	199
155.0629	199
156.0647	199
163.0232	799
