Mass spectrum: Triphenylphosphine oxide; LC-ESI-QTOF; MS2; 120 V
Name: Triphenylphosphine oxide
Class: Industrial_process
Formula: C18H15OP
Exact mass: 278.0861
SMILES: O=[P](c1ccccc1)(c2ccccc2)c3ccccc3
InChI: InChI=1S/C18H15OP/c19-20(16-10-4-1-5-11-16,17-12-6-2-7-13-17)18-14-8-3-9-15-18/h1-15H
Instrument: TripleTOF 5600 SCIEX
Instrument type: LC-ESI-QTOF
Ms type: MS2
Ion mode: POSITIVE
Collision energy: 120
Fragmentation mode: CID
Ionization: ESI
Column name: Zorbax Eclipse Plus C18 2.1 mm x 150 mm, 3.5 um, Agilent
Retention time: 10.458 min
Precursor m/z: 279.0933
Precursor type: [M+H]+
m/z	relative intensity
51.0302	999
56.9937	13
65.0437	27
67.9842	68
68.9939	141
73.0091	11
74.0184	66
75.0274	32
76.0347	43
77.0414	322
78.0499	36
79.9854	22
80.9908	34
87.0231	11
89.0412	57
91.9823	25
95.0065	11
101.0405	18
102.0484	75
107.0047	123
113.0398	22
115.0552	84
126.0456	100
127.0547	43
128.0612	45
131.0036	16
133.0209	13
139.0546	43
144.0109	18
150.0479	73
151.0527	116
152.0621	208
153.0703	16
157.02	32
168.0148	18
169.021	13
170.0298	32
179.0033	11
180.0108	13
181.0229	41
