Mass spectrum: Tributylhexadecylphosphonium; LC-ESI-QTOF; MS2; 70 V
Name: Tributylhexadecylphosphonium
Class: Pharmaceutical; Industrial_process
Formula: [C28H60P]+
Exact mass: 427.4427
SMILES: CCCCCCCCCCCCCCCC[P+](CCCC)(CCCC)CCCC
InChI: InChI=1S/C28H60P/c1-5-9-13-14-15-16-17-18-19-20-21-22-23-24-28-29(25-10-6-2,26-11-7-3)27-12-8-4/h5-28H2,1-4H3/q+1
Instrument: TripleTOF 5600 SCIEX
Instrument type: LC-ESI-QTOF
Ms type: MS2
Ion mode: POSITIVE
Collision energy: 70
Fragmentation mode: CID
Ionization: ESI
Column name: Zorbax Eclipse Plus C18 2.1 mm x 150 mm, 3.5 um, Agilent
Retention time: 16.04 min
Precursor m/z: 427.4427
Precursor type: [M]+
m/z	relative intensity
61.0241	76
62.0323	166
75.0381	90
76.0468	689
89.0523	62
90.0598	262
103.0668	50
104.0748	128
117.0826	71
131.0986	216
145.1145	142
159.1299	85
173.1459	364
187.1611	225
201.1767	147
215.1924	331
229.2078	715
243.2236	125
257.2392	130
271.2553	222
285.2699	221
299.2859	189
313.3015	171
327.3169	159
341.333	166
355.3479	126
371.3808	123
427.4429	999
