Mass spectrum: Propyphenazone; LC-ESI-QTOF; MS2; 40 V
Name: Propyphenazone
Class: Pharmaceutical
Formula: C14H18N2O
Exact mass: 230.1419
SMILES: CC1=C(C(=O)N(N1C)C2=CC=CC=C2)C(C)C
InChI: InChI=1S/C14H18N2O/c1-10(2)13-11(3)15(4)16(14(13)17)12-8-6-5-7-9-12/h5-10H,1-4H3
Instrument: TripleTOF 5600 SCIEX
Instrument type: LC-ESI-QTOF
Ms type: MS2
Ion mode: POSITIVE
Collision energy: 40
Fragmentation mode: CID
Ionization: ESI
Column name: Zorbax Eclipse Plus C18 2.1 mm x 150 mm, 3.5 um, Agilent
Retention time: 9.545 min
Precursor m/z: 231.1492
Precursor type: [M+H]+
m/z	relative intensity
41.0385	24
42.0335	25
43.0542	23
44.0502	16
51.0226	14
53.0382	11
55.0544	43
56.0496	999
58.065	58
65.0387	43
67.0541	11
68.0492	29
70.0289	10
70.0654	22
77.0388	321
79.0546	84
80.0492	31
81.057	38
81.0695	41
82.0651	191
91.0552	63
92.0499	220
93.0577	37
93.0686	18
94.0652	148
95.0731	132
96.0446	15
96.0807	233
97.0881	45
98.0606	42
100.1122	39
103.0544	59
104.0499	250
105.0337	26
105.0696	17
106.0651	41
108.0445	12
108.0809	16
110.0964	78
112.0769	30
112.1122	193
115.0545	83
116.0496	22
117.0648	162
118.0654	344
119.0733	11
120.0455	35
120.0808	259
122.06	12
123.0668	10
123.0925	28
124.0763	164
127.0538	24
128.0502	31
128.1072	12
129.0633	32
130.0648	214
131.0731	273
132.0804	144
133.0518	55
133.0767	76
134.0972	35
135.055	16
138.0911	25
139.0878	19
140.0532	14
142.0646	37
143.0737	70
144.081	289
145.0688	134
146.0932	371
147.0908	52
148.0753	25
148.1117	25
156.0815	34
157.0526	19
157.0905	35
158.061	23
158.0968	57
159.0678	12
159.0918	45
160.0998	51
161.1079	77
171.0522	19
172.0758	90
172.1108	56
173.0713	19
173.1098	23
174.0795	68
185.0718	23
186.0797	94
187.0901	29
187.1222	11
188.0951	35
189.1032	864
201.1031	766
203.1544	17
215.1203	25
216.1257	34
229.1357	21
231.1496	579
