Mass spectrum: Hydroxytorasemide; LC-ESI-QTOF; MS2; 70 V
Name: Hydroxytorasemide
Class: Pharmaceutical; Transformation_product
Formula: C16H20N4O4S
Exact mass: 364.1205
SMILES: CC(C)NC(=O)NS(=O)(=O)c1cnccc1Nc2cccc(c2)CO
InChI: InChI=1S/C16H20N4O4S/c1-11(2)18-16(22)20-25(23,24)15-9-17-7-6-14(15)19-13-5-3-4-12(8-13)10-21/h3-9,11,21H,10H2,1-2H3,(H,17,19)(H2,18,20,22)
Instrument: TripleTOF 5600 SCIEX
Instrument type: LC-ESI-QTOF
Ms type: MS2
Ion mode: NEGATIVE
Collision energy: 70
Fragmentation mode: CID
Ionization: ESI
Column name: Zorbax Eclipse Plus C18 2.1 mm x 150 mm, 3.5 um, Agilent
Retention time: 5.824 min
Precursor m/z: 363.1132
Precursor type: [M-H]-
m/z	relative intensity
48.9772	138
57.9769	78
63.9641	59
65.0148	65
77.9661	999
78.973	78
90.0354	124
91.0304	420
92.038	624
93.0462	828
107.0494	65
108.0332	676
108.0565	276
109.04	59
118.0414	72
121.0531	131
135.0031	124
150.9996	98
167.0623	400
168.0582	354
169.0776	289
178.056	78
179.0612	414
180.0651	85
181.0649	584
182.0728	670
184.0898	262
192.0574	506
193.0667	184
194.0731	847
195.0572	92
196.0528	78
197.0728	736
199.0883	85
209.061	131
210.0692	164
211.0749	190
212.029	138
212.0812	65
242.0402	105
278.0607	59
