Mass spectrum: Isorhamnetin; LC-ESI-QTOF; MS2; 40 V
Name: Isorhamnetin
Class: Pharmaceutical; Metabolite
Formula: C16H12O7
Exact mass: 316.0583
SMILES: COc1cc(ccc1O)C2=C(O)C(=O)c3c(O)cc(O)cc3O2
InChI: InChI=1S/C16H12O7/c1-22-11-4-7(2-3-9(11)18)16-15(21)14(20)13-10(19)5-8(17)6-12(13)23-16/h2-6,17-19,21H,1H3
Instrument: TripleTOF 5600 SCIEX
Instrument type: LC-ESI-QTOF
Ms type: MS2
Ion mode: POSITIVE
Collision energy: 40
Fragmentation mode: CID
Ionization: ESI
Column name: Zorbax Eclipse Plus C18 2.1 mm x 150 mm, 3.5 um, Agilent
Retention time: 9.418 min
Precursor m/z: 317.0656
Precursor type: [M+H]+
m/z	relative intensity
92.027	37
93.0361	33
94.0418	15
121.0287	26
124.016	15
126.0304	22
136.0194	22
147.0425	15
151.039	22
153.0178	371
155.0496	30
165.0198	30
175.0397	18
179.0345	18
187.0395	15
189.0539	15
192.0392	26
200.045	22
201.0557	37
203.0307	75
217.0493	127
218.0542	33
219.0285	30
228.0417	101
229.0493	191
231.0284	30
245.0446	150
246.0531	86
256.0373	22
257.0437	97
260.0319	15
273.0399	60
274.047	172
284.0325	26
285.0414	195
301.0365	37
302.0441	537
317.067	999
