Mass spectrum: Azathioprine; LC-ESI-QTOF; MS2; 50 V
Name: Azathioprine
Class: Pharmaceutical
Formula: C9H7N7O2S
Exact mass: 277.0382
SMILES: Cn1cnc(c1Sc2ncnc3nc[nH]c23)[N+]([O-])=O
InChI: InChI=1S/C9H7N7O2S/c1-15-4-14-7(16(17)18)9(15)19-8-5-6(11-2-10-5)12-3-13-8/h2-4H,1H3,(H,10,11,12,13)
Instrument: TripleTOF 5600 SCIEX
Instrument type: LC-ESI-QTOF
Ms type: MS2
Ion mode: POSITIVE
Collision energy: 50
Fragmentation mode: CID
Ionization: ESI
Column name: Zorbax Eclipse Plus C18 2.1 mm x 150 mm, 3.5 um, Agilent
Retention time: 5.367 min
Precursor m/z: 278.0455
Precursor type: [M+H]+
m/z	relative intensity
57.9793	241
67.032	499
69.0113	137
69.0219	86
69.048	189
74.0092	533
81.0473	172
84.987	413
85.009	86
86.0075	120
92.0261	155
93.0323	241
94.0404	86
106.0387	103
108.0444	120
113.0174	310
119.0353	981
120.0425	551
121.053	172
125.0025	103
134.0572	189
135.9967	137
136.038	86
142.005	241
145.0513	206
146.0454	155
152.0151	396
159.0547	137
160.0613	86
164.0149	999
165.0217	327
172.0606	482
174.0791	103
176.0134	206
177.0214	361
199.0721	275
204.0325	861
205.0414	120
231.0434	223
