Mass spectrum: Propaquizafop; LC-ESI-QTOF; MS2; 110 V
Name: Propaquizafop
Class: Herbicide
Formula: C22H22ClN3O5
Exact mass: 443.1248
SMILES: CC(Oc1ccc(Oc2cnc3cc(Cl)ccc3n2)cc1)C(=O)OCCON=C(C)C
InChI: InChI=1S/C22H22ClN3O5/c1-14(2)26-29-11-10-28-22(27)15(3)30-17-5-7-18(8-6-17)31-21-13-24-20-12-16(23)4-9-19(20)25-21/h4-9,12-13,15H,10-11H2,1-3H3
Instrument: TripleTOF 6600 SCIEX
Instrument type: LC-ESI-QTOF
Ms type: MS2
Ion mode: POSITIVE
Collision energy: 110
Fragmentation mode: CID
Ionization: ESI
Column name: Zorbax Eclipse Plus C18 2.1 mm x 150 mm, 3.5 um, Agilent
Retention time: 15.307 min
Precursor m/z: 444.1321
Precursor type: [M+H]+
m/z	relative intensity
39.0232	90
41.0381	30
42.0342	37
50.0153	52
51.023	75
55.0173	60
55.0415	98
56.0496	287
63.0228	45
65.0386	204
70.0652	401
74.015	68
75.0228	121
77.0385	174
88.0315	37
89.0375	37
90.0344	45
91.0541	227
99.0006	45
99.0105	128
99.0439	174
100.0182	999
102.0346	60
103.0541	37
108.984	68
109.9914	83
110.9997	60
114.0343	37
123.9957	68
126.049	30
130.0398	30
135.9948	234
137.0034	121
137.0393	75
138.0465	295
139.0404	37
139.0548	68
140.0501	83
141.0489	45
152.0507	37
153.045	45
163.0057	219
164.0017	461
164.0497	870
165.044	98
165.0569	242
166.0645	68
167.0705	45
173.0155	30
174.0106	68
179.0605	136
180.071	30
189.0454	60
190.0537	60
191.0599	310
192.0681	461
193.0758	52
194.0852	37
202.0272	30
205.0781	83
206.0837	37
207.0904	30
226.029	45
227.0399	45
