Mass spectrum: Flumioxazin; LC-ESI-QTOF; MS2; 90 V
Name: Flumioxazin
Class: Herbicide
Formula: C19H15FN2O4
Exact mass: 354.1016
SMILES: C#CCN1c2cc(c(cc2OCC1=O)F)N3C(=O)C4=C(C3=O)CCCC4
InChI: InChI=1S/C19H15FN2O4/c1-2-7-21-15-9-14(13(20)8-16(15)26-10-17(21)23)22-18(24)11-5-3-4-6-12(11)19(22)25/h1,8-9H,3-7,10H2
Instrument: TripleTOF 6600 SCIEX
Instrument type: LC-ESI-QTOF
Ms type: MS2
Ion mode: POSITIVE
Collision energy: 90
Fragmentation mode: CID
Ionization: ESI
Column name: Zorbax Eclipse Plus C18 2.1 mm x 150 mm, 3.5 um, Agilent
Retention time: 11.704 min
Precursor m/z: 355.1089
Precursor type: [M+H]+
m/z	relative intensity
51.022	293
53.0391	58
57.0117	58
67.0511	58
74.0131	58
75.0215	176
76.0165	176
77.0375	999
78.0319	58
79.0532	352
81.0116	58
83.0293	58
91.0542	58
95.0128	58
96.0224	117
101.0372	293
102.0335	117
105.0403	58
107.0289	235
107.0477	117
108.0249	117
114.0363	176
115.0547	58
122.0177	58
122.0371	58
124.0176	117
125.0265	58
128.0488	117
129.0436	117
132.0236	293
134.0396	176
135.0292	58
140.0494	58
146.0385	117
147.0477	117
148.0517	176
151.0296	176
152.0134	176
152.0495	176
163.0213	117
172.0535	117
176.0489	58
184.0547	58
197.0488	58
