Mass spectrum: N,O-didesmethyl-venlafaxine; LC-ESI-QTOF; MS2; 90 V
Name: N,O-didesmethyl-venlafaxine
Class: Pharmaceutical; Metabolite; Transformation_product-Metabolite
Formula: C15H23NO2
Exact mass: 249.1729
SMILES: CNCC(c1ccc(cc1)O)C2(CCCCC2)O
InChI: InChI=1S/C15H23NO2/c1-16-11-14(12-5-7-13(17)8-6-12)15(18)9-3-2-4-10-15/h5-8,14,16-18H,2-4,9-11H2,1H3
Instrument: TripleTOF 5600 SCIEX
Instrument type: LC-ESI-QTOF
Ms type: MS2
Ion mode: POSITIVE
Collision energy: 90
Fragmentation mode: CID
Ionization: ESI
Column name: Zorbax Eclipse Plus C18 2.1 mm x 150 mm, 3.5 um, Agilent
Retention time: 5.659 min
Precursor m/z: 250.1802
Precursor type: [M+H]+
m/z	relative intensity
44.0591	508
53.0433	33
55.023	39
55.0597	12
65.0423	74
66.0491	11
77.0421	999
78.0492	14
79.0566	187
81.0368	14
81.0722	44
89.0396	44
91.0554	108
94.0416	20
103.0548	56
105.069	16
107.0493	325
115.0543	165
116.0612	15
119.0488	14
120.0504	12
127.0538	22
128.0618	26
131.0473	18
