Mass spectrum: O-tolidine; LC-ESI-QTOF; MS2; 60 V
Name: O-tolidine
Formula: C14H16N2
Exact mass: 212.1313
SMILES: CC1=C(C=CC(=C1)C2=CC(=C(C=C2)N)C)N
InChI: InChI=1S/C14H16N2/c1-9-7-11(3-5-13(9)15)12-4-6-14(16)10(2)8-12/h3-8H,15-16H2,1-2H3
Instrument: TripleTOF 6600 SCIEX
Instrument type: LC-ESI-QTOF
Ms type: MS2
Ion mode: POSITIVE
Collision energy: 60
Fragmentation mode: CID
Ionization: ESI
Column name: Zorbax Eclipse Plus C18 2.1 mm x 150 mm, 3.5 um, Agilent
Retention time: 5.073 min
Precursor m/z: 213.1386
Precursor type: [M+H]+
m/z	relative intensity
77.0397	33
103.0539	14
106.0654	44
115.0577	48
120.0806	16
127.0543	46
128.0605	27
130.0655	35
139.0562	23
140.0518	29
141.073	18
151.0539	82
152.0634	637
153.0703	368
154.0696	37
155.064	23
156.0842	27
162.0516	10
163.0538	159
164.066	18
165.0693	145
166.0703	18
167.0757	18
168.08	23
169.0884	18
170.0974	27
176.063	27
177.0695	25
178.0753	98
179.0756	18
179.0858	12
180.0827	999
181.0902	65
182.0866	33
194.0989	21
195.0965	31
196.0992	50
197.1079	27
211.1285	10
