Mass spectrum: Chlorothiazide; LC-ESI-QTOF; MS2; 40 V
Name: Chlorothiazide
Class: Pharmaceutical; Transformation_product-Metabolite
Formula: C7H6ClN3O4S2
Exact mass: 294.9488
SMILES: N[S](=O)(=O)c1cc2c(NC=N[S]2(=O)=O)cc1Cl
InChI: InChI=1S/C7H6ClN3O4S2/c8-4-1-5-7(2-6(4)16(9,12)13)17(14,15)11-3-10-5/h1-3H,(H,10,11)(H2,9,12,13)
Instrument: TripleTOF 5600 SCIEX
Instrument type: LC-ESI-QTOF
Ms type: MS2
Ion mode: POSITIVE
Collision energy: 40
Fragmentation mode: CID
Ionization: ESI
Column name: Zorbax Eclipse Plus C18 2.1 mm x 150 mm, 3.5 um, Agilent
Retention time: 5.43 min
Precursor m/z: 295.9561
Precursor type: [M+H]+
m/z	relative intensity
96.9864	108
97.9814	127
104.9558	145
106.9804	72
111.9956	127
114.0108	145
117.0439	127
123.0005	90
123.9938	526
124.0102	145
129.0217	272
130.0037	127
131.9648	345
139.9895	799
141.9502	672
151.0033	90
152.0113	108
154.9988	435
155.9835	999
157.0154	581
158.0016	381
159.9615	181
169.9454	381
187.9571	381
203.9516	690
204.9806	781
214.9657	490
220.9773	690
230.9607	363
242.9717	90
278.9314	217
