Mass spectrum: Basic yellow 28; LC-ESI-QTOF; MS2; 100 V
Name: Basic yellow 28
Class: Pigment
Formula: [C20H24N3O]+
Exact mass: 322.1914
SMILES: CC1(C2=CC=CC=C2[N+](=C1C=NN(C)C3=CC=C(C=C3)OC)C)C
InChI: InChI=1S/C20H24N3O/c1-20(2)17-8-6-7-9-18(17)22(3)19(20)14-21-23(4)15-10-12-16(24-5)13-11-15/h6-14H,1-5H3/q+1
Instrument: TripleTOF 6600 SCIEX
Instrument type: LC-ESI-QTOF
Ms type: MS2
Ion mode: POSITIVE
Collision energy: 100
Fragmentation mode: CID
Ionization: ESI
Column name: Zorbax Eclipse Plus C18 2.1 mm x 150 mm, 3.5 um, Agilent
Retention time: 9.082 min
Precursor m/z: 322.1914
Precursor type: [M]+
m/z	relative intensity
39.0241	58
50.0159	74
51.0238	205
63.0234	216
64.0312	130
65.0389	366
66.0466	547
67.0419	273
77.0385	536
78.0358	74
78.0456	188
89.0373	56
91.0533	195
92.0253	124
92.0479	169
93.0559	144
101.0373	57
102.0455	106
103.0534	159
115.0537	397
116.0611	55
117.0574	99
127.0535	54
128.0493	305
129.0568	148
130.0648	191
142.0653	130
143.0729	338
144.081	999
155.0605	66
158.0962	86
169.0762	63
