Mass spectrum: Bis(2-isopropylphenyl) phenyl phosphate; LC-ESI-QTOF; MS2; 70 V
Name: Bis(2-isopropylphenyl) phenyl phosphate
Formula: C24H27O4P
Exact mass: 410.1647
SMILES: CC(C)C1=CC=CC=C1OP(=O)(OC2=CC=CC=C2)OC3=CC=CC=C3C(C)C
InChI: InChI=1S/C24H27O4P/c1-18(2)21-14-8-10-16-23(21)27-29(25,26-20-12-6-5-7-13-20)28-24-17-11-9-15-22(24)19(3)4/h5-19H,1-4H3
Instrument: TripleTOF 6600 SCIEX
Instrument type: LC-ESI-QTOF
Ms type: MS2
Ion mode: POSITIVE
Collision energy: 70
Fragmentation mode: CID
Ionization: ESI
Column name: Zorbax Eclipse Plus C18 2.1 mm x 150 mm, 3.5 um, Agilent
Retention time: 17.429 min
Precursor m/z: 411.172
Precursor type: [M+H]+
m/z	relative intensity
41.0386	14
51.0229	34
65.0385	84
77.0389	619
91.0545	840
95.049	32
105.0443	11
115.0539	12
127.0538	13
138.9936	13
151.0541	108
152.0626	999
153.0699	224
157.0045	12
165.0695	15
168.0572	307
175.0152	36
187.0309	32
202.0775	17
215.0261	369
226.0774	16
227.0853	46
228.0941	128
233.0363	35
251.0467	147
327.078	16
