Mass spectrum: (S)-N-methyl-pregabalin; LC-ESI-QTOF; MS2; 30 V
Name: (S)-N-methyl-pregabalin
Formula: C9H19NO2
Exact mass: 173.1416
SMILES: CC(C)CC(CC(=O)O)CNC
InChI: InChI=1S/C9H19NO2/c1-7(2)4-8(6-10-3)5-9(11)12/h7-8,10H,4-6H2,1-3H3,(H,11,12)
Instrument: TripleTOF 5600 SCIEX
Instrument type: LC-ESI-QTOF
Ms type: MS2
Ion mode: POSITIVE
Collision energy: 30
Fragmentation mode: CID
Ionization: ESI
Column name: Zorbax Eclipse Plus C18 2.1 mm x 150 mm, 3.5 um, Agilent
Retention time: 4.84 min
Precursor m/z: 174.1489
Precursor type: [M+H]+
m/z	relative intensity
39.0233	26
41.0389	68
43.0183	36
43.0546	32
44.05	29
45.0345	14
55.0187	15
55.0548	999
57.0704	119
58.0293	65
59.0497	78
67.0548	25
69.034	38
69.0705	131
70.0656	51
79.0545	68
81.0699	49
82.0655	303
83.0491	46
83.086	502
91.0544	39
94.0652	13
95.085	14
96.0812	69
97.1014	244
99.0684	36
100.0764	16
105.0697	17
107.0856	78
114.0918	28
125.097	76
138.1283	526
156.1388	469
174.1485	28
