Mass spectrum: Disperse orange 3; LC-ESI-QTOF; MS2; 70 V
Name: Disperse orange 3
Formula: C12H10N4O2
Exact mass: 242.0804
SMILES: C1=CC(=CC=C1N)N=NC2=CC=C(C=C2)[N+](=O)[O-]
InChI: InChI=1S/C12H10N4O2/c13-9-1-3-10(4-2-9)14-15-11-5-7-12(8-6-11)16(17)18/h1-8H,13H2
Instrument: TripleTOF 6600 SCIEX
Instrument type: LC-ESI-QTOF
Ms type: MS2
Ion mode: POSITIVE
Collision energy: 70
Fragmentation mode: CID
Ionization: ESI
Column name: Zorbax Eclipse Plus C18 2.1 mm x 150 mm, 3.5 um, Agilent
Retention time: 12.729 min
Precursor m/z: 243.0877
Precursor type: [M+H]+
m/z	relative intensity
38.0139	11
39.0217	22
49.0058	26
50.0143	619
51.0217	21
52.0294	30
62.0141	25
63.0214	236
64.0291	29
65.0372	117
66.0447	132
73.0062	37
74.0136	341
75.0217	999
76.0293	654
77.0371	12
78.0318	47
79.0398	56
80.0474	33
92.0478	82
93.056	267
105.0429	158
106.0508	18
107.061	16
115.0522	19
