Mass spectrum: Flutriafol; LC-ESI-QTOF; MS2; 120 V
Name: Flutriafol
Class: Fungicide
Formula: C16H13F2N3O
Exact mass: 301.1027
SMILES: C1=CC=C(C(=C1)C(CN2C=NC=N2)(C3=CC=C(C=C3)F)O)F
InChI: InChI=1S/C16H13F2N3O/c17-13-7-5-12(6-8-13)16(22,9-21-11-19-10-20-21)14-3-1-2-4-15(14)18/h1-8,10-11,22H,9H2
Instrument: TripleTOF 6600 SCIEX
Instrument type: LC-ESI-QTOF
Ms type: MS2
Ion mode: POSITIVE
Collision energy: 120
Fragmentation mode: CID
Ionization: ESI
Column name: Zorbax Eclipse Plus C18 2.1 mm x 150 mm, 3.5 um, Agilent
Retention time: 10.047 min
Precursor m/z: 302.11
Precursor type: [M+H]+
m/z	relative intensity
39.0228	18
42.0218	21
43.0294	230
50.0149	24
51.0234	17
57.0136	77
61.0067	12
62.0154	24
63.0227	35
68.0057	12
69.013	68
70.0399	232
73.0069	97
74.0151	999
75.0229	692
83.0292	84
89.0383	10
95.0288	71
98.0141	38
99.0223	14
109.0448	9
122.014	31
123.0236	21
123.0352	11
163.053	22
168.037	25
174.0462	11
181.045	14
192.0361	16
