Mass spectrum: 4-Ethoxybenzyltriphenylphosphonium; LC-ESI-QTOF; MS2; 150 V
Name: 4-Ethoxybenzyltriphenylphosphonium
Formula: C27H26OP
Exact mass: 397.1716
SMILES: CCOC1=CC=C(C=C1)C[P+](C2=CC=CC=C2)(C3=CC=CC=C3)C4=CC=CC=C4
InChI: InChI=1S/C27H26OP/c1-2-28-24-20-18-23(19-21-24)22-29(25-12-6-3-7-13-25,26-14-8-4-9-15-26)27-16-10-5-11-17-27/h3-21H,2,22H2,1H3/q+1
Instrument: TripleTOF 5600 SCIEX
Instrument type: LC-ESI-QTOF
Ms type: MS2
Ion mode: POSITIVE
Collision energy: 150
Fragmentation mode: CID
Ionization: ESI
Column name: Zorbax Eclipse Plus C18 2.1 mm x 150 mm, 3.5 um, Agilent
Retention time: 9.454 min
Precursor m/z: 397.1716
Precursor type: [M]+
m/z	relative intensity
51.0228	239
77.0377	999
79.0532	49
107.0476	233
