Mass spectrum: Iminostilbene; LC-ESI-QTOF; MS2; 40 V
Name: Iminostilbene
Class: Pharmaceutical
Formula: C14H11N
Exact mass: 193.0891
SMILES: C1=CC=C2C(=C1)C=CC3=CC=CC=C3N2
InChI: InChI=1S/C14H11N/c1-3-7-13-11(5-1)9-10-12-6-2-4-8-14(12)15-13/h1-10,15H
Instrument: TripleTOF 6600 SCIEX
Instrument type: LC-ESI-QTOF
Ms type: MS2
Ion mode: POSITIVE
Collision energy: 40
Fragmentation mode: CID
Ionization: ESI
Column name: Zorbax Eclipse Plus C18 2.1 mm x 150 mm, 3.5 um, Agilent
Retention time: 13.175 min
Precursor m/z: 194.0964
Precursor type: [M+H]+
m/z	relative intensity
89.0306	20
90.0382	13
91.0458	12
116.0388	14
117.0468	18
151.0408	43
152.0484	72
153.0441	14
165.0552	87
166.0537	36
167.0592	107
176.0461	19
177.0504	29
178.0502	130
179.0573	357
191.0566	90
192.0642	275
193.0721	671
194.0818	999
