Mass spectrum: Epirubicin; LC-ESI-QTOF; MS2; 150 V
Name: Epirubicin
Class: Pharmaceutical
Formula: C27H29NO11
Exact mass: 543.1741
SMILES: CC1C(C(CC(O1)OC2CC(CC3=C(C4=C(C(=C23)O)C(=O)C5=C(C4=O)C=CC=C5OC)O)(C(=O)CO)O)N)O
InChI: InChI=1S/C27H29NO11/c1-10-22(31)13(28)6-17(38-10)39-15-8-27(36,16(30)9-29)7-12-19(15)26(35)21-20(24(12)33)23(32)11-4-3-5-14(37-2)18(11)25(21)34/h3-5,10,13,15,17,22,29,31,33,35-36H,6-9,28H2,1-2H3
Instrument: TripleTOF 5600 SCIEX
Instrument type: LC-ESI-QTOF
Ms type: MS2
Ion mode: NEGATIVE
Collision energy: 150
Fragmentation mode: CID
Ionization: ESI
Column name: Zorbax Eclipse Plus C18 2.1 mm x 150 mm, 3.5 um, Agilent
Retention time: 7.492 min
Precursor m/z: 542.1668
Precursor type: [M-H]-
m/z	relative intensity
65.0462	47
89.0387	237
93.0347	142
101.0383	95
116.0263	190
117.0361	380
145.0323	142
151.057	142
152.0564	95
154.0438	142
163.0544	142
165.035	47
167.0476	142
169.0302	47
175.0584	95
176.0599	95
179.0449	237
180.0658	142
181.0611	142
182.0419	142
191.0503	856
193.0779	95
194.0395	95
195.0436	333
203.0531	47
204.0617	142
206.0429	190
207.0467	380
208.054	190
209.0581	142
211.0399	190
219.0454	999
220.0548	142
221.0657	47
231.0405	47
232.0529	285
234.0338	142
235.0397	618
236.0493	237
247.028	142
247.0458	95
248.0514	190
252.0404	190
260.0487	47
263.0299	237
264.0397	237
292.0412	95
