Mass spectrum: Azacyclonol; LC-ESI-QTOF; MS2; 110 V
Name: Azacyclonol
Class: Pharmaceutical
Formula: C18H21NO
Exact mass: 267.1623
SMILES: OC(C1CCNCC1)(C2=CC=CC=C2)C3=CC=CC=C3
InChI: InChI=1S/C18H21NO/c20-18(15-7-3-1-4-8-15,16-9-5-2-6-10-16)17-11-13-19-14-12-17/h1-10,17,19-20H,11-14H2
Instrument: TripleTOF 5600 SCIEX
Instrument type: LC-ESI-QTOF
Ms type: MS2
Ion mode: POSITIVE
Collision energy: 110
Fragmentation mode: CID
Ionization: ESI
Column name: Zorbax Eclipse Plus C18 2.1 mm x 150 mm, 3.5 um, Agilent
Retention time: 6.644 min
Precursor m/z: 268.1696
Precursor type: [M+H]+
m/z	relative intensity
37.0074	40
38.0148	52
39.023	249
41.0386	40
42.0341	69
44.0499	40
50.0148	104
51.023	371
56.049	81
62.0157	81
63.0227	238
65.0388	999
67.0409	58
68.0493	34
74.0155	98
75.023	92
76.0307	121
77.0388	795
78.0467	214
79.0537	40
80.0505	29
82.0651	52
84.0796	58
87.0226	34
89.0383	226
91.0548	894
101.0396	81
102.0464	458
103.0537	69
115.0539	615
126.0461	238
127.054	348
128.0624	551
139.0548	127
141.0702	34
150.0466	98
151.0558	151
152.0607	139
162.0443	23
163.0547	145
164.0601	151
165.0693	214
176.0598	104
177.0746	34
178.0781	40
187.0568	40
188.0625	40
189.0706	121
200.0629	69
201.0689	52
202.0776	81
