Mass spectrum: Doxepin; LC-ESI-QTOF; MS2; 140 V
Name: Doxepin
Class: Pharmaceutical
Formula: C19H21NO
Exact mass: 279.1623
SMILES: CN(C)CCC=C1C2=CC=CC=C2COC3=CC=CC=C31
InChI: InChI=1S/C19H21NO/c1-20(2)13-7-11-17-16-9-4-3-8-15(16)14-21-19-12-6-5-10-18(17)19/h3-6,8-12H,7,13-14H2,1-2H3
Instrument: TripleTOF 5600 SCIEX
Instrument type: LC-ESI-QTOF
Ms type: MS2
Ion mode: POSITIVE
Collision energy: 140
Fragmentation mode: CID
Ionization: ESI
Column name: Zorbax Eclipse Plus C18 2.1 mm x 150 mm, 3.5 um, Agilent
Retention time: 7.447 min
Precursor m/z: 280.1696
Precursor type: [M+H]+
m/z	relative intensity
42.0462	48
44.0607	29
58.0734	61
65.046	254
68.0562	20
73.0136	26
74.021	271
75.0294	159
76.0366	171
77.0442	390
78.0526	67
85.0123	66
86.0197	178
87.0275	221
88.0341	30
89.043	467
91.0591	99
97.0112	22
98.0189	250
99.0264	93
100.0331	51
101.0423	33
102.0501	173
109.0114	25
110.0188	73
111.0258	83
113.0412	166
114.0484	18
115.0567	394
121.0091	14
122.0177	101
123.0257	41
124.0344	28
125.0406	66
126.0484	199
127.057	63
128.0633	50
134.0167	24
135.0224	19
137.0406	113
138.0473	69
139.0562	273
146.016	23
148.0338	12
149.0391	107
150.0473	558
151.056	215
152.063	64
161.0391	144
162.0471	295
163.0552	999
164.062	126
165.0709	58
173.0401	22
174.0467	187
175.0543	53
176.0615	122
185.0393	74
186.0466	132
187.0544	737
188.0623	219
189.0698	173
197.0429	19
198.047	140
199.0545	63
200.0617	167
201.0705	17
209.0424	17
210.0464	20
211.0538	132
212.0609	23
213.0681	48
