Mass spectrum: Dimethachlor; LC-ESI-QTOF; MS2; 90 V
Name: Dimethachlor
Class: Herbicide
Formula: C13H18ClNO2
Exact mass: 255.1026
SMILES: CC1=C(C(=CC=C1)C)N(CCOC)C(=O)CCl
InChI: InChI=1S/C13H18ClNO2/c1-10-5-4-6-11(2)13(10)15(7-8-17-3)12(16)9-14/h4-6H,7-9H2,1-3H3
Instrument: TripleTOF 6600 SCIEX
Instrument type: LC-ESI-QTOF
Ms type: MS2
Ion mode: POSITIVE
Collision energy: 90
Fragmentation mode: CID
Ionization: ESI
Column name: Zorbax Eclipse Plus C18 2.1 mm x 150 mm, 3.5 um, Agilent
Retention time: 10.992 min
Precursor m/z: 256.1099
Precursor type: [M+H]+
m/z	relative intensity
39.0233	36
46.9679	38
47.9763	14
48.9842	203
49.0081	24
50.0155	136
51.0234	470
53.0383	24
62.015	10
63.023	24
65.0389	108
75.0239	10
77.039	999
78.0468	28
79.0539	163
89.0387	161
90.046	144
91.0539	181
102.0464	28
103.0542	126
104.0623	10
105.0446	32
105.0696	50
106.0648	63
107.0727	12
115.0552	44
117.057	295
118.0655	59
130.0649	171
131.0719	26
132.0817	20
144.0803	14
