Mass spectrum: Bis(2,4,4-trimethylpentyl)phosphinic acid; LC-ESI-QTOF; MS2; 80 V
Name: Bis(2,4,4-trimethylpentyl)phosphinic acid
Class: Industrial_process
Formula: C16H35O2P
Exact mass: 290.2375
SMILES: CC(CC(C)(C)C)CP(=O)(CC(C)CC(C)(C)C)O
InChI: InChI=1S/C16H35O2P/c1-13(9-15(3,4)5)11-19(17,18)12-14(2)10-16(6,7)8/h13-14H,9-12H2,1-8H3,(H,17,18)
Instrument: TripleTOF 6600 SCIEX
Instrument type: LC-ESI-QTOF
Ms type: MS2
Ion mode: POSITIVE
Collision energy: 80
Fragmentation mode: CID
Ionization: ESI
Column name: Zorbax Eclipse Plus C18 2.1 mm x 150 mm, 3.5 um, Agilent
Retention time: 14.45 min
Precursor m/z: 291.2448
Precursor type: [M+H]+
m/z	relative intensity
37.0065	31
38.0018	21
38.0146	34
39.0225	286
41.0383	467
43.0536	99
44.9881	39
46.9675	428
47.9754	25
48.983	31
55.0536	101
56.9884	19
57.0692	304
59.0033	18
60.9829	25
62.9984	184
64.9781	508
69.069	36
71.0042	12
73.0196	22
76.0072	27
77.0143	104
78.9939	999
80.0015	113
81.0087	19
83.0031	15
85.0194	39
87.0345	19
89.0139	59
94.0169	145
97.0042	25
103.0303	33
107.0246	46
121.0396	18
