Mass spectrum: Promethazine; LC-ESI-QTOF; MS2; 80 V
Name: Promethazine
Class: Pharmaceutical
Formula: C17H20N2S
Exact mass: 284.1347
SMILES: CC(CN1c2ccccc2Sc3c1cccc3)N(C)C
InChI: InChI=1S/C17H20N2S/c1-13(18(2)3)12-19-14-8-4-6-10-16(14)20-17-11-7-5-9-15(17)19/h4-11,13H,12H2,1-3H3
Instrument: TripleTOF 5600 SCIEX
Instrument type: LC-ESI-QTOF
Ms type: MS2
Ion mode: POSITIVE
Collision energy: 80
Fragmentation mode: CID
Ionization: ESI
Column name: Zorbax Eclipse Plus C18 2.1 mm x 150 mm, 3.5 um, Agilent
Retention time: 7.995 min
Precursor m/z: 285.142
Precursor type: [M+H]+
m/z	relative intensity
41.0349	14
42.0437	61
43.0524	47
44.0593	46
51.0292	10
56.0577	779
58.0714	36
65.0443	48
68.9847	66
70.0705	133
71.0009	17
71.0793	999
75.0278	28
77.0431	235
79.0592	20
81.9906	36
84.0858	91
86.101	799
89.0421	40
90.0506	13
91.0574	28
101.041	111
102.036	10
103.0555	56
105.0723	15
108.0048	79
109.013	74
113.0418	26
115.0569	55
116.0527	22
117.0612	13
121.0122	30
125.0412	18
126.049	110
127.0573	624
127.0918	10
128.0523	543
129.0501	17
130.0677	84
134.0213	16
138.0495	27
139.0568	114
140.0527	202
145.012	23
146.0083	21
147.0314	11
148.0235	18
150.0513	10
151.0566	31
152.0516	50
152.0639	60
153.0608	201
154.0685	690
155.0632	14
158.0204	11
159.0165	45
163.0587	9
164.0553	80
165.0729	117
166.0681	279
167.0758	99
169.0129	18
170.0219	67
171.03	289
172.0252	63
176.0644	14
177.0617	18
178.0775	78
179.077	34
180.0837	41
190.0706	34
191.0748	45
192.0841	27
193.093	36
195.0266	17
196.0249	208
197.0331	460
198.0411	274
204.0848	63
206.1008	30
222.0412	66
223.049	270
224.0581	36
