Mass spectrum: Reactive Orange; LC-ESI-QTOF; MS2; 30 V
Name: Reactive Orange
Formula: C20H19N3O11S3
Exact mass: 573.0182
SMILES: CC(=O)NC1=CC2=C(C(=C(C=C2C=C1)S(=O)(=O)O)N=NC3=CC=C(C=C3)S(=O)(=O)CCOS(=O)(=O)O)O
InChI: InChI=1S/C20H19N3O11S3/c1-12(24)21-15-3-2-13-10-18(36(28,29)30)19(20(25)17(13)11-15)23-22-14-4-6-16(7-5-14)35(26,27)9-8-34-37(31,32)33/h2-7,10-11,25H,8-9H2,1H3,(H,21,24)(H,28,29,30)(H,31,32,33)
Instrument: TripleTOF 6600 SCIEX
Instrument type: LC-ESI-QTOF
Ms type: MS2
Ion mode: NEGATIVE
Collision energy: 30
Fragmentation mode: CID
Ionization: ESI
Column name: Zorbax Eclipse Plus C18 2.1 mm x 150 mm, 3.5 um, Agilent
Retention time: 5.751 min
Precursor m/z: 285.5022
Precursor type: [M-2H]2-
m/z	relative intensity
63.962	5
79.9569	55
80.9648	2
90.9849	2
93.0342	1
95.9524	0
96.6582	3
96.96	997
97.9601	1
107.0375	0
128.0505	0
129.0563	17
130.0537	1
139.9929	1
144.045	12
145.051	0
146.0066	0
155.0054	0
156.0446	1
157.0463	0
158.0252	0
158.0618	0
167.0162	9
170.0594	2
171.0344	0
171.0689	1
172.043	51
172.062	27
173.0467	17
182.0269	2
183.0107	4
183.0589	0
184.038	1
186.0186	2
186.0548	1
187.0638	1
198.0556	16
199.0632	8
200.0352	50
201.0378	2
208.0073	2
209.9984	2
212.0579	0
214.049	1
215.0579	23
227.045	2
232.0794	1
233.0843	1
234.0913	0
235.0033	0
235.2564	1
236.0033	281
236.2611	1
237.0098	595
238.0123	12
247.1002	2
248.0713	0
248.1082	0
249.0775	1
249.9795	0
250.0137	0
250.0881	0
251.024	8
259.0969	0
261.0887	0
262.9921	0
263.162	1
263.9967	423
264.9975	9
266.0126	0
273.079	3
274.0845	0
275.0948	33
276.067	0
276.1032	6
276.9925	5
278.0121	54
278.1384	2
279.0204	999
280.0232	25
288.0747	0
291.0897	18
292.0969	3
293.0231	4
301.088	0
302.1236	0
303.1043	1
312.0311	1
312.0635	0
313.0421	5
322.0475	0
323.0607	7
324.0681	6
338.0486	0
338.0763	0
339.0564	1
340.0651	4
341.0475	0
351.0656	0
354.0432	0
355.0501	6
356.0573	1
366.0795	30
367.084	1
379.0678	0
382.0737	12
383.0562	7
384.0662	0
392.0676	0
394.0849	28
395.0882	0
403.0187	1
410.0806	0
420.0262	0
446.0345	5
474.0398	5
