Mass spectrum: Methyltriphenylphosphonium; LC-ESI-QTOF; MS2; 150 V
Name: Methyltriphenylphosphonium
Class: Pharmaceutical
Formula: [C19H18P]+
Exact mass: 277.1141
SMILES: C[P+](c1ccccc1)(c2ccccc2)c3ccccc3
InChI: InChI=1S/C19H18P/c1-20(17-11-5-2-6-12-17,18-13-7-3-8-14-18)19-15-9-4-10-16-19/h2-16H,1H3/q+1
Instrument: TripleTOF 5600 SCIEX
Instrument type: LC-ESI-QTOF
Ms type: MS2
Ion mode: POSITIVE
Collision energy: 150
Fragmentation mode: CID
Ionization: ESI
Column name: Zorbax Eclipse Plus C18 2.1 mm x 150 mm, 3.5 um, Agilent
Retention time: 7.192 min
Precursor m/z: 277.1141
Precursor type: [M]+
m/z	relative intensity
51.0305	351
55.9871	166
56.9935	431
65.042	203
67.9845	141
74.0176	407
75.0258	129
76.0328	265
77.0403	252
78.0491	86
78.974	252
79.9829	832
80.9901	968
86.0153	271
87.0229	326
89.0388	462
91.9825	178
98.016	289
99.0218	117
102.046	160
102.9714	123
103.9818	314
104.9886	135
107.0039	999
113.0372	160
115.0536	197
115.9801	98
125.0373	55
126.047	388
127.9824	104
131.0029	154
139.0526	117
150.0457	659
151.0546	407
152.0599	246
155.0048	215
156.0119	80
157.0204	154
179.0038	259
180.0122	185
181.0192	259
