Mass spectrum: Pindolol; LC-ESI-QTOF; MS2; 150 V
Name: Pindolol
Class: Pharmaceutical
Formula: C14H20N2O2
Exact mass: 248.1525
SMILES: CC(C)NCC(COC1=CC=CC2=C1C=CN2)O
InChI: InChI=1S/C14H20N2O2/c1-10(2)16-8-11(17)9-18-14-5-3-4-13-12(14)6-7-15-13/h3-7,10-11,15-17H,8-9H2,1-2H3
Instrument: TripleTOF 5600 SCIEX
Instrument type: LC-ESI-QTOF
Ms type: MS2
Ion mode: POSITIVE
Collision energy: 150
Fragmentation mode: CID
Ionization: ESI
Column name: Zorbax Eclipse Plus C18 2.1 mm x 150 mm, 3.5 um, Agilent
Retention time: 5.148 min
Precursor m/z: 249.1598
Precursor type: [M+H]+
m/z	relative intensity
42.0464	192
44.0614	345
60.0066	153
65.0439	192
73.0141	153
74.0207	730
75.0293	153
77.0435	537
78.0447	153
89.0427	999
