Mass spectrum: Nadide; LC-ESI-QTOF; MS2; 60 V
Name: Nadide
Class: Natural_product
Formula: C21H27N7O14P2
Exact mass: 663.1091
SMILES: [O-]P(OC[C@H]1O[C@@H]([N+]2=CC=CC(C(N)=O)=C2)[C@H](O)[C@@H]1O)(OP(O)(OCC3C(O)C(O)C(N4C=NC5=C4N=CN=C5N)O3)=O)=O
InChI: InChI=1S/C21H27N7O14P2/c22-17-12-19(25-7-24-17)28(8-26-12)21-16(32)14(30)11(41-21)6-39-44(36,37)42-43(34,35)38-5-10-13(29)15(31)20(40-10)27-3-1-2-9(4-27)18(23)33/h1-4,7-8,10-11,13-16,20-21,29-32H,5-6H2,(H5-,22,23,24,25,33,34,35,36,37)/t10-,11?,13-,14?,15-,16?,20-,21?/m1/s1
Instrument: TripleTOF 6600 SCIEX
Instrument type: LC-ESI-QTOF
Ms type: MS2
Ion mode: NEGATIVE
Collision energy: 60
Fragmentation mode: CID
Ionization: ESI
Column name: Zorbax Eclipse Plus C18 2.1 mm x 150 mm, 3.5 um, Agilent
Retention time: 2.094 min
Precursor m/z: 662.1018
Precursor type: [M-H]-
m/z	relative intensity
78.9574	550
96.9673	188
134.047	564
158.9254	955
174.979	130
176.9369	72
272.9558	999
328.0441	781
346.0538	260
408.0103	492
426.0209	246
540.0457	57
