Mass spectrum: Flufenacet; LC-ESI-QTOF; MS2; 60 V
Name: Flufenacet
Class: Herbicide
Formula: C14H13F4N3O2S
Exact mass: 363.0665
SMILES: CC(C)N(C1=CC=C(C=C1)F)C(=O)COC2=NN=C(S2)C(F)(F)F
InChI: InChI=1S/C14H13F4N3O2S/c1-8(2)21(10-5-3-9(15)4-6-10)11(22)7-23-13-20-19-12(24-13)14(16,17)18/h3-6,8H,7H2,1-2H3
Instrument: TripleTOF 6600 SCIEX
Instrument type: LC-ESI-QTOF
Ms type: MS2
Ion mode: POSITIVE
Collision energy: 60
Fragmentation mode: CID
Ionization: ESI
Column name: Zorbax Eclipse Plus C18 2.1 mm x 150 mm, 3.5 um, Agilent
Retention time: 13.345 min
Precursor m/z: 364.0738
Precursor type: [M+H]+
m/z	relative intensity
77.0384	46
83.029	19
95.0289	31
96.0364	22
97.0449	268
104.0493	25
107.029	11
109.045	260
110.0399	18
115.0539	10
123.0252	87
124.0561	999
134.0399	29
135.0521	10
136.0555	12
137.0632	10
152.0545	134
152.0812	42
