Mass spectrum: Itraconazole; LC-ESI-QTOF; MS2; 110 V
Name: Itraconazole
Class: Pharmaceutical
Formula: C35H38Cl2N8O4
Exact mass: 704.2393
SMILES: CCC(C)N1C(=O)N(C=N1)C2=CC=C(C=C2)N3CCN(CC3)C4=CC=C(C=C4)OCC5COC(O5)(CN6C=NC=N6)C7=C(C=C(C=C7)Cl)Cl
InChI: InChI=1S/C35H38Cl2N8O4/c1-3-25(2)45-34(46)44(24-40-45)29-7-5-27(6-8-29)41-14-16-42(17-15-41)28-9-11-30(12-10-28)47-19-31-20-48-35(49-31,21-43-23-38-22-39-43)32-13-4-26(36)18-33(32)37/h4-13,18,22-25,31H,3,14-17,19-21H2,1-2H3
Instrument: TripleTOF 5600 SCIEX
Instrument type: LC-ESI-QTOF
Ms type: MS2
Ion mode: POSITIVE
Collision energy: 110
Fragmentation mode: CID
Ionization: ESI
Column name: Zorbax Eclipse Plus C18 2.1 mm x 150 mm, 3.5 um, Agilent
Retention time: 13.565 min
Precursor m/z: 705.2466
Precursor type: [M+H]+
m/z	relative intensity
77.0399	83
89.0363	166
91.0516	83
92.0484	83
103.0509	83
104.0484	83
117.0569	333
117.0667	83
117.0766	83
118.0663	416
119.0674	249
119.08	83
120.0457	249
122.9965	166
127.0586	83
129.0707	83
130.0624	499
131.0546	83
131.0699	166
132.0638	83
132.0779	249
134.0591	333
144.0576	83
144.0796	166
145.0875	166
146.0948	249
158.9737	999
160.0542	166
160.0809	83
160.0931	166
161.0578	83
161.0731	83
161.0856	83
164.0733	83
174.0974	83
186.0952	83
189.0861	83
203.0832	83
203.096	166
229.1164	83
243.1294	249
279.0911	83
