Mass spectrum: Amethopterin; LC-ESI-QTOF; MS2; 120 V
Name: Amethopterin
Class: Pharmaceutical
Formula: C20H22N8O5
Exact mass: 454.1713
SMILES: CN(Cc1cnc2nc(N)nc(N)c2n1)c3ccc(cc3)C(=O)NC(CCC(O)=O)C(O)=O
InChI: InChI=1S/C20H22N8O5/c1-28(9-11-8-23-17-15(24-11)16(21)26-20(22)27-17)12-4-2-10(3-5-12)18(31)25-13(19(32)33)6-7-14(29)30/h2-5,8,13H,6-7,9H2,1H3,(H,25,31)(H,29,30)(H,32,33)(H4,21,22,23,26,27)
Instrument: TripleTOF 5600 SCIEX
Instrument type: LC-ESI-QTOF
Ms type: MS2
Ion mode: POSITIVE
Collision energy: 120
Fragmentation mode: CID
Ionization: ESI
Column name: Zorbax Eclipse Plus C18 2.1 mm x 150 mm, 3.5 um, Agilent
Retention time: 5.057 min
Precursor m/z: 455.1786
Precursor type: [M+H]+
m/z	relative intensity
42.0341	46
43.0293	81
52.0186	46
53.0262	58
54.033	127
65.0379	104
66.0211	116
67.0301	92
77.0144	104
77.0391	348
79.0296	336
79.0538	162
80.0245	243
80.037	127
92.0256	46
94.0404	81
104.0237	81
105.0329	104
106.0401	999
106.0657	58
107.0481	174
118.0376	58
121.0507	185
132.0433	81
133.0515	534
134.06	139
148.0594	69
150.0802	81
159.0542	69
175.0716	185
