Mass spectrum: (S)-N-methyl-pregabalin; LC-ESI-QTOF; MS2; 20 V
Name: (S)-N-methyl-pregabalin
Formula: C9H19NO2
Exact mass: 173.1416
SMILES: CC(C)CC(CC(=O)O)CNC
InChI: InChI=1S/C9H19NO2/c1-7(2)4-8(6-10-3)5-9(11)12/h7-8,10H,4-6H2,1-3H3,(H,11,12)
Instrument: TripleTOF 5600 SCIEX
Instrument type: LC-ESI-QTOF
Ms type: MS2
Ion mode: POSITIVE
Collision energy: 20
Fragmentation mode: CID
Ionization: ESI
Column name: Zorbax Eclipse Plus C18 2.1 mm x 150 mm, 3.5 um, Agilent
Retention time: 4.84 min
Precursor m/z: 174.1489
Precursor type: [M+H]+
m/z	relative intensity
55.0549	100
57.0705	17
59.0499	10
69.0339	11
69.0703	19
81.0705	10
82.0658	51
83.0862	178
97.1019	197
107.0861	34
125.097	115
138.1283	327
143.1072	73
156.1388	999
174.1495	644
