Mass spectrum: 1-Myristoyl-sn-glycero-3-phosphocholine; LC-ESI-QTOF; MS2; 100 V
Name: 1-Myristoyl-sn-glycero-3-phosphocholine
Class: Natural_product
Formula: C22H46NO7P
Exact mass: 467.3012
SMILES: CCCCCCCCCCCCCC(=O)OCC(COP(=O)([O-])OCC[N+](C)(C)C)O
InChI: InChI=1S/C22H46NO7P/c1-5-6-7-8-9-10-11-12-13-14-15-16-22(25)28-19-21(24)20-30-31(26,27)29-18-17-23(2,3)4/h21,24H,5-20H2,1-4H3
Instrument: TripleTOF 6600 SCIEX
Instrument type: LC-ESI-QTOF
Ms type: MS2
Ion mode: POSITIVE
Collision energy: 100
Fragmentation mode: CID
Ionization: ESI
Column name: Zorbax Eclipse Plus C18 2.1 mm x 150 mm, 3.5 um, Agilent
Retention time: 12.658 min
Precursor m/z: 468.3085
Precursor type: [M+H]+
m/z	relative intensity
39.0231	18
41.0394	60
42.0341	30
43.0187	18
43.0422	33
43.0549	56
44.0506	67
45.0341	199
45.0577	30
55.0548	26
56.0501	275
57.0339	18
57.0708	37
58.0656	184
59.0733	41
60.0811	395
62.9633	52
67.0541	26
70.0655	52
71.0734	889
80.9741	388
81.0702	15
86.0967	716
98.9841	999
104.1072	180
106.9907	15
124.9993	316
166.0619	18
