Mass spectrum: Atenolol; LC-ESI-QTOF; MS2; 60 V
Name: Atenolol
Class: Pharmaceutical
Formula: C14H22N2O3
Exact mass: 266.163
SMILES: CC(C)NCC(O)COc1ccc(CC(N)=O)cc1
InChI: InChI=1S/C14H22N2O3/c1-10(2)16-8-12(17)9-19-13-5-3-11(4-6-13)7-14(15)18/h3-6,10,12,16-17H,7-9H2,1-2H3,(H2,15,18)
Instrument: TripleTOF 5600 SCIEX
Instrument type: LC-ESI-QTOF
Ms type: MS2
Ion mode: POSITIVE
Collision energy: 60
Fragmentation mode: CID
Ionization: ESI
Column name: Zorbax Eclipse Plus C18 2.1 mm x 150 mm, 3.5 um, Agilent
Retention time: 4.619 min
Precursor m/z: 267.1703
Precursor type: [M+H]+
m/z	relative intensity
56.0547	280
65.0415	61
72.0842	43
74.0631	175
77.0409	534
79.0566	227
89.0399	674
91.055	999
93.07	105
103.0532	113
105.0689	184
105.0871	52
106.0637	148
107.0487	946
115.0542	762
116.0492	113
116.0625	70
117.0327	61
117.0686	306
119.0492	131
121.0636	35
127.0535	122
131.0479	43
133.0645	297
134.0591	70
144.0568	105
145.0645	560
147.0449	61
