Mass spectrum: Lumichrome; LC-ESI-QTOF; MS2; 40 V
Name: Lumichrome
Class: Pharmaceutical
Formula: C12H10N4O2
Exact mass: 242.0804
SMILES: CC1=CC2=C(C=C1C)N=C3C(=N2)C(=O)NC(=O)N3
InChI: InChI=1S/C12H10N4O2/c1-5-3-7-8(4-6(5)2)14-10-9(13-7)11(17)16-12(18)15-10/h3-4H,1-2H3,(H2,14,15,16,17,18)
Instrument: TripleTOF 6600 SCIEX
Instrument type: LC-ESI-QTOF
Ms type: MS2
Ion mode: POSITIVE
Collision energy: 40
Fragmentation mode: CID
Ionization: ESI
Column name: Zorbax Eclipse Plus C18 2.1 mm x 150 mm, 3.5 um, Agilent
Retention time: 7.067 min
Precursor m/z: 243.0877
Precursor type: [M+H]+
m/z	relative intensity
77.0391	134
89.0393	15
91.0549	102
102.046	12
103.0549	383
104.0499	57
116.0502	164
117.0572	34
118.0657	214
128.05	48
129.0451	13
130.0655	216
131.0737	13
142.0535	16
143.0608	50
145.0764	446
153.0451	33
156.0563	30
157.0648	176
170.0721	481
172.0876	850
182.0717	22
197.0821	27
198.0669	999
200.0834	60
216.0783	16
243.0887	98
