Mass spectrum: Aspartame; LC-ESI-QTOF; MS2; 50 V
Name: Aspartame
Class: Food_additive
Formula: C14H18N2O5
Exact mass: 294.1216
SMILES: COC(=O)C(Cc1ccccc1)NC(=O)C(N)CC(O)=O
InChI: InChI=1S/C14H18N2O5/c1-21-14(20)11(7-9-5-3-2-4-6-9)16-13(19)10(15)8-12(17)18/h2-6,10-11H,7-8,15H2,1H3,(H,16,19)(H,17,18)
Instrument: TripleTOF 5600 SCIEX
Instrument type: LC-ESI-QTOF
Ms type: CID
Ion mode: NEGATIVE
Collision energy: 50
Ionization: ESI
Column name: Zorbax Eclipse Plus C18 2.1 mm x 150 mm, 3.5 um, Agilent
Retention time: 5.761 min
Precursor m/z: 293.1143
Precursor type: [M-H]-
m/z	relative intensity
42.0023	682
42.0382	56
65.0281	56
70.0306	271
77.0405	75
81.022	398
81.0454	56
82.0189	69
91.0545	271
96.0084	50
97.0408	916
99.0567	151
103.0564	101
109.0163	94
111.0206	56
113.0358	56
116.05	284
118.0665	999
126.044	126
156.0775	75
157.0766	82
189.1026	63
200.0726	107
