Mass spectrum: Flufenacet ESA; LC-ESI-QTOF; MS2; 140 V
Name: Flufenacet ESA
Class: Herbicide; Transformation_product
Formula: C11H14FNO4S
Exact mass: 275.0628
SMILES: CC(C)N(C1=CC=C(C=C1)F)C(=O)CS(=O)(=O)O
InChI: InChI=1S/C11H14FNO4S/c1-8(2)13(11(14)7-18(15,16)17)10-5-3-9(12)4-6-10/h3-6,8H,7H2,1-2H3,(H,15,16,17)
Instrument: TripleTOF 6600 SCIEX
Instrument type: LC-ESI-QTOF
Ms type: MS2
Ion mode: POSITIVE
Collision energy: 140
Fragmentation mode: CID
Ionization: ESI
Column name: Zorbax Eclipse Plus C18 2.1 mm x 150 mm, 3.5 um, Agilent
Retention time: 6.781 min
Precursor m/z: 276.07
Precursor type: [M+H]+
m/z	relative intensity
37.0074	25
38.0148	25
39.0228	46
41.0385	12
49.0072	28
50.0145	113
51.0229	82
57.0128	147
61.0071	28
62.0149	30
63.0224	59
63.9611	10
68.0052	15
69.0131	74
73.0074	116
74.015	999
75.0229	289
81.0142	20
83.0287	72
95.0303	12
