Mass spectrum: Reserpine; LC-ESI-QTOF; MS2; 130 V
Name: Reserpine
Class: Natural_product; Pharmaceutical
Formula: C33H40N2O9
Exact mass: 608.2734
SMILES: COC1C(CC2CN3CCC4=C(C3CC2C1C(=O)OC)NC5=C4C=CC(=C5)OC)OC(=O)C6=CC(=C(C(=C6)OC)OC)OC
InChI: InChI=1S/C33H40N2O9/c1-38-19-7-8-20-21-9-10-35-16-18-13-27(44-32(36)17-11-25(39-2)30(41-4)26(12-17)40-3)31(42-5)28(33(37)43-6)22(18)15-24(35)29(21)34-23(20)14-19/h7-8,11-12,14,18,22,24,27-28,31,34H,9-10,13,15-16H2,1-6H3
Instrument: TripleTOF 5600 SCIEX
Instrument type: LC-ESI-QTOF
Ms type: MS2
Ion mode: POSITIVE
Collision energy: 130
Fragmentation mode: CID
Ionization: ESI
Column name: Zorbax Eclipse Plus C18 2.1 mm x 150 mm, 3.5 um, Agilent
Retention time: 8.6 min
Precursor m/z: 609.2807
Precursor type: [M+H]+
m/z	relative intensity
65.0455	34
66.0533	20
67.0602	17
77.0445	187
78.0511	39
79.0591	57
80.0542	12
81.0389	139
89.0427	37
90.0509	25
91.0585	122
92.0301	31
92.0537	14
93.0364	19
93.0609	26
94.0082	15
94.0452	26
94.0697	16
95.0531	24
96.0611	43
102.0485	17
103.0572	105
104.0541	52
105.0378	18
105.0603	32
105.074	11
106.0453	18
106.0672	13
107.0152	77
107.0508	17
108.024	15
108.0595	23
109.0309	97
109.0675	20
115.0566	261
116.0604	83
117.0604	227
118.068	70
119.05	11
120.0844	11
121.0311	121
121.0663	15
122.0384	70
123.0463	14
124.0538	29
127.0552	43
128.0575	78
129.0654	44
130.0672	999
131.0747	888
132.0476	75
132.0823	28
133.055	13
137.0247	131
139.0579	14
139.0747	9
140.0513	24
141.0616	41
142.0663	113
143.0744	326
144.0588	10
144.0815	96
145.0541	48
145.0906	17
146.0617	78
147.0744	26
151.0399	172
152.0486	84
153.0671	23
154.0665	108
155.0729	61
156.0789	69
157.0866	36
158.0612	143
159.0687	305
160.0763	51
164.0602	11
165.0695	31
166.0641	34
167.0743	99
168.0812	74
169.0535	24
169.0778	29
170.0596	94
170.0839	18
171.0679	17
172.0754	50
173.0832	43
174.0909	84
177.0675	11
178.0682	43
179.0729	25
180.0808	100
181.0873	46
182.0585	36
182.0907	21
183.067	39
184.0749	55
185.0787	13
186.0896	21
189.0692	16
190.0679	17
191.0722	58
192.0805	83
193.0862	69
194.0951	49
195.0683	29
195.0986	14
196.0757	40
196.1035	12
197.0782	14
198.0852	20
199.0862	17
202.0785	22
203.0752	32
204.079	134
205.0878	69
206.0894	62
207.0922	57
208.0784	48
208.0992	27
209.0851	14
210.0892	27
215.08	15
216.0812	32
217.0884	99
218.0958	83
219.0733	16
219.0976	42
220.0752	64
221.0763	35
221.1061	23
222.088	52
223.0862	20
224.1024	21
228.0833	22
229.0889	21
230.0952	54
231.1019	34
232.0754	32
232.105	25
233.0817	17
233.1072	15
234.086	31
235.0872	22
236.0975	53
237.1003	12
241.0891	14
242.0963	14
243.1034	11
244.0766	11
244.1102	17
245.0904	15
246.0902	48
247.0963	17
248.1033	21
249.1002	26
250.1084	10
251.1198	14
254.0957	12
260.1049	28
261.105	12
262.1176	16
