Mass spectrum: 6`-Hydroxymethyl Simvastatin; LC-ESI-QTOF; MS2; 40 V
Name: 6`-Hydroxymethyl Simvastatin
Class: Metabolite; Pharmaceutical
Formula: C25H38O6
Exact mass: 434.2668
SMILES: CCC(C)(C)C(=O)OC1CC(C=C2C1C(C(C=C2)C)CCC3CC(CC(=O)O3)O)CO
InChI: InChI=1S/C25H38O6/c1-5-25(3,4)24(29)31-21-11-16(14-26)10-17-7-6-15(2)20(23(17)21)9-8-19-12-18(27)13-22(28)30-19/h6-7,10,15-16,18-21,23,26-27H,5,8-9,11-14H2,1-4H3
Instrument: TripleTOF 5600 SCIEX
Instrument type: LC-ESI-QTOF
Ms type: MS2
Ion mode: POSITIVE
Collision energy: 40
Fragmentation mode: CID
Ionization: ESI
Column name: Zorbax Eclipse Plus C18 2.1 mm x 150 mm, 3.5 um, Agilent
Retention time: 10.786 min
Precursor m/z: 435.2741
Precursor type: [M+H]+
m/z	relative intensity
131.087	68
141.0722	68
142.0777	109
143.0858	150
145.105	54
155.0879	177
156.096	123
157.1004	246
169.0996	478
171.1188	328
173.1373	54
181.1018	164
182.1108	109
183.1181	82
189.1356	82
195.1181	218
197.1327	999
199.1511	109
207.122	82
208.1205	68
215.1393	177
221.1299	232
223.1483	725
232.1238	68
237.1651	109
241.1644	191
247.149	314
265.1473	68
265.1603	232
283.1654	150
301.1729	177
