Mass spectrum: Florfenicol; LC-ESI-QTOF; MS2; 60 V
Name: Florfenicol
Class: Pharmaceutical
Formula: C12H14Cl2FNO4S
Exact mass: 357.0005
SMILES: C[S](=O)(=O)c1ccc(cc1)[C@@H](O)[C@@H](CF)NC(=O)C(Cl)Cl
InChI: InChI=1S/C12H14Cl2FNO4S/c1-21(19,20)8-4-2-7(3-5-8)10(17)9(6-15)16-12(18)11(13)14/h2-5,9-11,17H,6H2,1H3,(H,16,18)/t9-,10-/m1/s1
Instrument: TripleTOF 5600 SCIEX
Instrument type: LC-ESI-QTOF
Ms type: MS2
Ion mode: NEGATIVE
Collision energy: 60
Fragmentation mode: CID
Ionization: ESI
Column name: Zorbax Eclipse Plus C18 2.1 mm x 150 mm, 3.5 um, Agilent
Retention time: 7.507 min
Precursor m/z: 355.9932
Precursor type: [M-H]-
m/z	relative intensity
34.9732	122
63.9636	161
78.9864	375
82.9455	154
105.0343	91
119.0501	999
121.029	294
155.0179	80
168.9973	259
170.002	73
