Mass spectrum: Haloxyfop; LC-ESI-QTOF; MS2; 70 V
Name: Haloxyfop
Class: Herbicide
Formula: C15H11ClF3NO4
Exact mass: 361.0329
SMILES: CC(C(=O)O)OC1=CC=C(C=C1)OC2=C(C=C(C=N2)C(F)(F)F)Cl
InChI: InChI=1S/C15H11ClF3NO4/c1-8(14(21)22)23-10-2-4-11(5-3-10)24-13-12(16)6-9(7-20-13)15(17,18)19/h2-8H,1H3,(H,21,22)
Instrument: TripleTOF 5600 SCIEX
Instrument type: LC-ESI-QTOF
Ms type: MS2
Ion mode: POSITIVE
Collision energy: 70
Fragmentation mode: CID
Ionization: ESI
Column name: Zorbax Eclipse Plus C18 2.1 mm x 150 mm, 3.5 um, Agilent
Retention time: 12.921 min
Precursor m/z: 362.0401
Precursor type: [M+H]+
m/z	relative intensity
65.0415	658
75.0257	181
81.0344	136
91.0553	681
92.0271	136
140.0489	181
158.0395	181
159.9763	227
168.0415	158
179.9816	385
180.9876	113
188.0273	113
189.0354	158
190.0451	181
197.9899	158
198.05	136
199.0342	181
206.0388	181
208.0326	136
209.0452	499
216.0237	340
217.0313	90
217.9954	113
218.0423	136
226.0466	113
232.0134	249
260.01	204
269.9939	113
272.0079	385
288.005	999
