Mass spectrum: Terbutrynesulfoxide; LC-ESI-QTOF; MS2; 150 V
Name: Terbutrynesulfoxide
Class: Transformation_product; Herbicide; Pesticide; Transformation_product-Metabolite
Formula: C10H19N5OS
Exact mass: 257.131
SMILES: CCNC1=NC(=NC(=N1)S(=O)C)NC(C)(C)C
InChI: InChI=1S/C10H19N5OS/c1-6-11-7-12-8(15-10(2,3)4)14-9(13-7)17(5)16/h6H2,1-5H3,(H2,11,12,13,14,15)
Instrument: TripleTOF 5600 SCIEX
Instrument type: LC-ESI-QTOF
Ms type: MS2
Ion mode: POSITIVE
Collision energy: 150
Fragmentation mode: CID
Ionization: ESI
Column name: Zorbax Eclipse Plus C18 2.1 mm x 150 mm, 3.5 um, Agilent
Retention time: 8.816 min
Precursor m/z: 258.1383
Precursor type: [M+H]+
m/z	relative intensity
41.0286	173
42.0369	173
43.042	812
44.996	62
52.0317	24
53.0225	99
55.0388	31
56.0499	24
57.9828	173
67.0247	24
68.0314	999
69.015	285
84.9892	105
