Mass spectrum: 2,6-Dimethylquinoline; LC-ESI-QTOF; MS2; 70 V
Name: 2,6-Dimethylquinoline
Formula: C11H11N
Exact mass: 157.0891
SMILES: CC1=CC2=C(C=C1)N=C(C=C2)C
InChI: InChI=1S/C11H11N/c1-8-3-6-11-10(7-8)5-4-9(2)12-11/h3-7H,1-2H3
Instrument: TripleTOF 6600 SCIEX
Instrument type: LC-ESI-QTOF
Ms type: MS2
Ion mode: POSITIVE
Collision energy: 70
Fragmentation mode: CID
Ionization: ESI
Column name: Zorbax Eclipse Plus C18 2.1 mm x 150 mm, 3.5 um, Agilent
Retention time: 5.162 min
Precursor m/z: 158.0964
Precursor type: [M+H]+
m/z	relative intensity
35.9991	11
37.0068	84
38.0146	62
39.0228	474
41.0383	35
50.0146	129
51.0223	243
52.0305	21
61.0064	15
62.0145	71
63.0224	420
64.0167	11
65.038	642
66.0449	10
74.0142	91
75.0223	192
76.0297	64
77.0377	194
78.0336	10
78.045	19
87.0218	23
88.029	26
89.0379	639
90.0447	31
91.0533	200
92.0476	14
101.0371	48
102.0325	11
102.0452	72
103.0531	30
113.0377	51
114.045	85
115.0532	999
116.0484	60
117.0554	25
126.0457	17
127.0535	47
128.0488	26
128.0607	129
129.0424	26
130.0636	33
140.0481	88
141.0558	116
142.063	35
154.0639	104
155.0712	29
156.0798	38
