Mass spectrum: Fingolimod; LC-ESI-QTOF; MS2; 70 V
Name: Fingolimod
Class: Pharmaceutical
Formula: C19H33NO2
Exact mass: 307.2511
SMILES: CCCCCCCCC1=CC=C(C=C1)CCC(CO)(CO)N
InChI: InChI=1S/C19H33NO2/c1-2-3-4-5-6-7-8-17-9-11-18(12-10-17)13-14-19(20,15-21)16-22/h9-12,21-22H,2-8,13-16,20H2,1H3
Instrument: TripleTOF 6600 SCIEX
Instrument type: LC-ESI-QTOF
Ms type: MS2
Ion mode: POSITIVE
Collision energy: 70
Fragmentation mode: CID
Ionization: ESI
Column name: Zorbax Eclipse Plus C18 2.1 mm x 150 mm, 3.5 um, Agilent
Retention time: 10.17 min
Precursor m/z: 308.2584
Precursor type: [M+H]+
m/z	relative intensity
38.0139	24
39.0222	91
41.0377	188
43.053	139
51.0219	38
55.0534	33
57.0684	115
65.0376	212
77.0372	270
78.0444	28
79.0525	164
91.0524	999
103.053	222
104.0614	33
105.0675	419
115.0521	279
116.0598	57
117.0687	67
119.0836	38
127.0524	96
128.0601	535
129.0686	115
131.0834	28
141.0674	250
142.074	101
143.0832	24
153.0702	19
155.084	62
156.0901	33
