Mass spectrum: Propaquizafop; LC-ESI-QTOF; MS2; 130 V
Name: Propaquizafop
Class: Herbicide
Formula: C22H22ClN3O5
Exact mass: 443.1248
SMILES: CC(Oc1ccc(Oc2cnc3cc(Cl)ccc3n2)cc1)C(=O)OCCON=C(C)C
InChI: InChI=1S/C22H22ClN3O5/c1-14(2)26-29-11-10-28-22(27)15(3)30-17-5-7-18(8-6-17)31-21-13-24-20-12-16(23)4-9-19(20)25-21/h4-9,12-13,15H,10-11H2,1-3H3
Instrument: TripleTOF 6600 SCIEX
Instrument type: LC-ESI-QTOF
Ms type: MS2
Ion mode: POSITIVE
Collision energy: 130
Fragmentation mode: CID
Ionization: ESI
Column name: Zorbax Eclipse Plus C18 2.1 mm x 150 mm, 3.5 um, Agilent
Retention time: 15.307 min
Precursor m/z: 444.1321
Precursor type: [M+H]+
m/z	relative intensity
39.0228	52
41.0395	23
42.0338	35
50.0157	35
51.023	82
54.0339	41
55.0184	35
55.0421	88
56.0494	158
61.9799	29
62.0156	35
63.0227	58
65.0388	117
70.0655	123
72.9838	41
73.0079	52
74.0152	146
75.0227	129
77.0385	170
88.0318	23
89.0384	94
90.0471	35
91.0543	117
99.0104	188
99.0438	52
100.0186	999
102.0343	76
108.984	70
109.9914	41
112.0356	41
114.0339	47
114.046	29
115.0537	29
123.9941	41
127.0541	23
135.9949	123
137.0015	35
137.0387	111
138.0323	29
138.047	135
139.0416	58
139.053	47
140.0502	94
151.0533	23
152.0526	70
153.0455	23
163.0076	52
163.0429	47
164.0008	129
164.0503	617
165.0506	199
166.0648	64
173.0147	29
178.0641	29
179.0612	41
190.0531	35
191.0617	111
192.0694	123
205.0749	23
