Mass spectrum: Acridone; LC-ESI-QTOF; MS2; 90 V
Name: Acridone
Class: Metabolite; Pharmaceutical; Transformation_product
Formula: C13H9NO
Exact mass: 195.0684
SMILES: O=C1c2ccccc2Nc3ccccc13
InChI: InChI=1S/C13H9NO/c15-13-9-5-1-3-7-11(9)14-12-8-4-2-6-10(12)13/h1-8H,(H,14,15)
Instrument: TripleTOF 5600 SCIEX
Instrument type: LC-ESI-QTOF
Ms type: MS2
Ion mode: POSITIVE
Collision energy: 90
Fragmentation mode: CID
Ionization: ESI
Column name: Zorbax Eclipse Plus C18 2.1 mm x 150 mm, 3.5 um, Agilent
Retention time: 8.5 min
Precursor m/z: 196.0757
Precursor type: [M+H]+
m/z	relative intensity
52.0236	12
60.0053	10
64.0355	21
65.0434	83
74.0188	113
75.0261	119
76.0342	38
77.0414	86
85.0096	15
86.0174	67
87.0253	137
88.0216	22
88.0328	77
89.0412	463
90.0351	25
90.0475	18
91.0549	13
98.0161	38
99.0243	23
100.0317	13
101.0398	25
102.0477	30
110.0158	11
111.0241	18
112.0301	11
113.0401	514
114.0348	54
114.0463	68
115.0555	240
116.0502	46
126.0469	30
127.0485	10
128.051	14
137.0386	57
138.047	101
139.0553	999
140.0505	590
150.0467	14
164.0499	65
165.0585	22
166.0657	129
167.0733	15
