Mass spectrum: 2-Methyl-4`-(methylthio)-2-morpholinopropiophenone; LC-ESI-QTOF; MS2; 100 V
Name: 2-Methyl-4`-(methylthio)-2-morpholinopropiophenone
Class: Industrial_process
Formula: C15H21NO2S
Exact mass: 279.1293
SMILES: CC(C)(C(=O)C1=CC=C(C=C1)SC)N2CCOCC2
InChI: InChI=1S/C15H21NO2S/c1-15(2,16-8-10-18-11-9-16)14(17)12-4-6-13(19-3)7-5-12/h4-7H,8-11H2,1-3H3
Instrument: TripleTOF 6600 SCIEX
Instrument type: LC-ESI-QTOF
Ms type: CID
Ion mode: POSITIVE
Collision energy: 100
Ionization: ESI
Column name: Zorbax Eclipse Plus C18 2.1 mm x 150 mm, 3.5 um, Agilent
Retention time: 7.548 min
Precursor m/z: 280.1366
Precursor type: [M+H]+
m/z	relative intensity
37.0075	9
39.0233	62
41.0384	18
42.0342	32
44.0497	23
44.9792	18
50.0152	47
51.0231	110
52.0306	15
62.0146	13
63.0229	41
65.0387	287
66.0461	12
68.9789	29
75.0224	23
76.0304	9
77.0387	386
78.0463	137
89.0384	88
90.0462	15
91.0544	999
102.0461	52
103.0539	75
108.0021	12
109.0102	29
115.0543	746
116.0615	36
117.0694	151
121.0104	338
122.018	54
127.0534	18
128.0619	11
131.0486	15
134.0174	37
135.0258	28
