Mass spectrum: Benalaxyl; LC-ESI-QTOF; MS2; 130 V
Name: Benalaxyl
Class: Fungicide
Formula: C20H23NO3
Exact mass: 325.1678
SMILES: CC1=C(C(=CC=C1)C)N(C(C)C(=O)OC)C(=O)CC2=CC=CC=C2
InChI: InChI=1S/C20H23NO3/c1-14-9-8-10-15(2)19(14)21(16(3)20(23)24-4)18(22)13-17-11-6-5-7-12-17/h5-12,16H,13H2,1-4H3
Instrument: TripleTOF 6600 SCIEX
Instrument type: LC-ESI-QTOF
Ms type: MS2
Ion mode: POSITIVE
Collision energy: 130
Fragmentation mode: CID
Ionization: ESI
Column name: Zorbax Eclipse Plus C18 2.1 mm x 150 mm, 3.5 um, Agilent
Retention time: 13.881 min
Precursor m/z: 326.1751
Precursor type: [M+H]+
m/z	relative intensity
35.9988	30
37.0073	169
38.0149	137
39.0226	888
41.0385	107
49.0066	17
50.0145	142
51.0225	518
52.0299	20
53.038	15
59.9981	15
61.0064	44
62.0144	115
63.0227	264
65.0381	999
66.0455	12
67.0403	17
74.0137	17
75.0222	11
77.0378	957
78.0331	12
78.0461	74
79.0535	125
80.0489	39
89.0374	79
90.0455	25
91.0533	556
93.0561	11
93.0686	11
102.0458	20
103.0535	82
104.0486	25
105.0449	25
106.0646	134
115.0513	25
117.0574	63
118.0645	23
119.0724	11
120.0804	60
130.063	20
132.0817	11
152.0627	23
