Mass spectrum: Leucomalachite green; LC-ESI-QTOF; MS2; 130 V
Name: Leucomalachite green
Class: Metabolite; Antimicrobial; Fungicide; Transformation_product-Metabolite
Formula: C23H26N2
Exact mass: 330.2096
SMILES: CN(C)C1=CC=C(C=C1)C(C2=CC=CC=C2)C3=CC=C(C=C3)N(C)C
InChI: InChI=1S/C23H26N2/c1-24(2)21-14-10-19(11-15-21)23(18-8-6-5-7-9-18)20-12-16-22(17-13-20)25(3)4/h5-17,23H,1-4H3
Instrument: TripleTOF 6600 SCIEX
Instrument type: LC-ESI-QTOF
Ms type: MS2
Ion mode: POSITIVE
Collision energy: 130
Fragmentation mode: CID
Ionization: ESI
Column name: Zorbax Eclipse Plus C18 2.1 mm x 150 mm, 3.5 um, Agilent
Retention time: 9.974 min
Precursor m/z: 331.2169
Precursor type: [M+H]+
m/z	relative intensity
50.0146	11
51.0218	20
63.0221	27
65.0375	18
74.0148	13
75.0222	15
76.0288	15
77.0372	52
78.0456	15
87.0219	11
89.0376	40
91.0526	18
98.0138	11
102.045	32
113.0376	25
115.0529	137
125.0369	25
126.0445	93
127.0535	90
128.0613	37
137.037	11
139.0536	158
140.0486	18
150.0456	91
151.0526	273
152.0609	999
153.068	231
154.0634	15
155.0592	16
162.0428	20
163.0523	181
164.0599	132
165.0685	363
166.0702	66
167.0709	18
176.0593	11
177.0588	23
178.0636	54
179.0716	59
180.0794	66
181.0888	10
187.0535	15
189.0679	20
190.0658	13
191.0721	10
192.0779	18
193.0868	11
194.0963	42
200.0595	23
201.0687	13
202.0766	32
205.0703	10
206.083	11
212.0606	10
213.0687	35
215.0842	25
224.0611	15
225.0689	13
226.0764	98
227.081	16
228.0897	15
237.0693	44
238.0738	20
239.0837	39
240.0815	11
252.0827	11
