Mass spectrum: Florasulam; LC-ESI-QTOF; MS2; 20 V
Name: Florasulam
Class: Herbicide
Formula: C12H8F3N5O3S
Exact mass: 359.03
SMILES: COC1=NC=C(C2=NC(=NN21)S(=O)(=O)NC3=C(C=CC=C3F)F)F
InChI: InChI=1S/C12H8F3N5O3S/c1-23-12-16-5-8(15)10-17-11(18-20(10)12)24(21,22)19-9-6(13)3-2-4-7(9)14/h2-5,19H,1H3
Instrument: TripleTOF 6600 SCIEX
Instrument type: LC-ESI-QTOF
Ms type: MS2
Ion mode: POSITIVE
Collision energy: 20
Fragmentation mode: CID
Ionization: ESI
Column name: Zorbax Eclipse Plus C18 2.1 mm x 150 mm, 3.5 um, Agilent
Retention time: 9.723 min
Precursor m/z: 360.0373
Precursor type: [M+H]+
m/z	relative intensity
128.0277	10
129.036	424
191.9903	51
296.076	40
360.0396	999
