Mass spectrum: Thieno[3,2-b]pyridin-7-ol; LC-ESI-QTOF; MS2; 60 V
Name: Thieno[3,2-b]pyridin-7-ol
Formula: C7H5NOS
Exact mass: 151.0092
SMILES: C1=CNC2=C(C1=O)SC=C2
InChI: InChI=1S/C7H5NOS/c9-6-1-3-8-5-2-4-10-7(5)6/h1-4H,(H,8,9)
Instrument: TripleTOF 6600 SCIEX
Instrument type: LC-ESI-QTOF
Ms type: MS2
Ion mode: NEGATIVE
Collision energy: 60
Fragmentation mode: CID
Ionization: ESI
Column name: Zorbax Eclipse Plus C18 2.1 mm x 150 mm, 3.5 um, Agilent
Retention time: 4.72 min
Precursor m/z: 150.0019
Precursor type: [M-H]-
m/z	relative intensity
32.9806	62
38.0023	19
41.0036	30
49.0074	204
50.0031	478
56.9786	112
57.9752	125
64.017	12
65.9979	367
68.9795	16
80.9779	245
81.9754	999
83.9899	240
90.0347	12
93.9863	59
94.9831	12
94.9949	16
120.9987	156
