Mass spectrum: Ciprofloxacin; LC-ESI-QTOF; MS2; 100 V
Name: Ciprofloxacin
Class: Pharmaceutical
Formula: C17H18FN3O3
Exact mass: 331.1332
SMILES: C1CC1N2C=C(C(=O)C3=CC(=C(C=C32)N4CCNCC4)F)C(=O)O
InChI: InChI=1S/C17H18FN3O3/c18-13-7-11-14(8-15(13)20-5-3-19-4-6-20)21(10-1-2-10)9-12(16(11)22)17(23)24/h7-10,19H,1-6H2,(H,23,24)
Instrument: TripleTOF 6600 SCIEX
Instrument type: LC-ESI-QTOF
Ms type: MS2
Ion mode: POSITIVE
Collision energy: 100
Fragmentation mode: CID
Ionization: ESI
Column name: Zorbax Eclipse Plus C18 2.1 mm x 150 mm, 3.5 um, Agilent
Retention time: 5.497 min
Precursor m/z: 332.1405
Precursor type: [M+H]+
m/z	relative intensity
75.0235	205
77.0391	176
89.0381	235
100.0193	117
101.039	323
105.0152	176
106.0222	146
107.0289	499
114.0341	205
128.0492	381
129.0457	293
132.0243	999
133.0322	587
133.0467	146
134.0399	205
135.047	205
147.0477	323
148.0567	381
155.0595	146
158.042	176
160.0211	146
160.0439	352
161.0242	146
174.0582	176
187.0303	293
188.0222	205
