Mass spectrum: Daidzein; LC-ESI-QTOF; MS2; 70 V
Name: Daidzein
Class: Pharmaceutical
Formula: C15H10O4
Exact mass: 254.0579
SMILES: Oc1ccc(cc1)C2=COc3cc(O)ccc3C2=O
InChI: InChI=1S/C15H10O4/c16-10-3-1-9(2-4-10)13-8-19-14-7-11(17)5-6-12(14)15(13)18/h1-8,16-17H
Instrument: TripleTOF 5600 SCIEX
Instrument type: LC-ESI-QTOF
Ms type: MS2
Ion mode: POSITIVE
Collision energy: 70
Fragmentation mode: CID
Ionization: ESI
Column name: Zorbax Eclipse Plus C18 2.1 mm x 150 mm, 3.5 um, Agilent
Retention time: 7.744 min
Precursor m/z: 255.0652
Precursor type: [M+H]+
m/z	relative intensity
37.0076	10
38.0147	10
39.0228	74
50.0151	17
51.0233	37
53.0386	56
55.0182	14
62.0155	14
63.0231	53
65.0388	691
68.9974	68
74.0146	10
75.0233	35
76.0308	10
77.0388	214
78.0461	89
81.0338	231
89.0384	90
90.0455	10
91.0543	477
92.0248	13
93.0342	17
101.0376	28
102.0451	52
103.0545	40
105.0333	83
106.0409	20
107.0479	10
109.0286	17
115.0544	220
116.0629	11
118.0412	28
121.0297	11
125.0397	10
126.0458	49
127.0537	117
128.0615	338
129.0693	11
131.0475	64
137.0234	82
139.054	29
140.0603	13
141.0703	108
144.0569	17
147.0429	17
150.0455	62
151.0544	241
152.062	999
153.069	101
155.0485	35
163.0526	22
165.0679	17
168.0559	34
169.0654	50
181.0639	125
184.0515	14
197.0584	71
