Mass spectrum: Tridemorph; LC-ESI-QTOF; MS2; 60 V
Name: Tridemorph
Class: Fungicide
Formula: C19H39NO
Exact mass: 297.3032
SMILES: CCCCCCCCCCCCCN1CC(OC(C1)C)C
InChI: InChI=1S/C19H39NO/c1-4-5-6-7-8-9-10-11-12-13-14-15-20-16-18(2)21-19(3)17-20/h18-19H,4-17H2,1-3H3
Instrument: TripleTOF 5600 SCIEX
Instrument type: LC-ESI-QTOF
Ms type: MS2
Ion mode: POSITIVE
Collision energy: 60
Fragmentation mode: CID
Ionization: ESI
Column name: Zorbax Eclipse Plus C18 2.1 mm x 150 mm, 3.5 um, Agilent
Retention time: 10.439 min
Precursor m/z: 298.3104
Precursor type: [M+H]+
m/z	relative intensity
39.0223	374
41.0382	832
43.0543	874
56.0491	208
57.0694	999
58.0632	249
59.0489	166
70.0653	416
71.0845	291
98.096	749
