Mass spectrum: Oxadixyl; LC-ESI-QTOF; MS2; 80 V
Name: Oxadixyl
Class: Fungicide
Formula: C14H18N2O4
Exact mass: 278.1267
SMILES: CC1=C(C(=CC=C1)C)N(C(=O)COC)N2CCOC2=O
InChI: InChI=1S/C14H18N2O4/c1-10-5-4-6-11(2)13(10)16(12(17)9-19-3)15-7-8-20-14(15)18/h4-6H,7-9H2,1-3H3
Instrument: TripleTOF 6600 SCIEX
Instrument type: LC-ESI-QTOF
Ms type: MS2
Ion mode: POSITIVE
Collision energy: 80
Fragmentation mode: CID
Ionization: ESI
Column name: Zorbax Eclipse Plus C18 2.1 mm x 150 mm, 3.5 um, Agilent
Retention time: 8.678 min
Precursor m/z: 279.1339
Precursor type: [M+H]+
m/z	relative intensity
45.0326	85
51.0215	49
65.0373	67
77.0367	288
79.0525	79
89.0365	116
90.0445	177
91.0522	189
103.0523	79
104.0459	36
105.0687	202
115.0528	24
117.0554	999
118.0632	67
120.0785	30
130.0616	55
132.0785	159
