Mass spectrum: 3-Dimethylaminophenol; LC-ESI-QTOF; MS2; 120 V
Name: 3-Dimethylaminophenol
Formula: C8H11NO
Exact mass: 137.0841
SMILES: CN(C)C1=CC(=CC=C1)O
InChI: InChI=1S/C8H11NO/c1-9(2)7-4-3-5-8(10)6-7/h3-6,10H,1-2H3
Instrument: TripleTOF 6600 SCIEX
Instrument type: LC-ESI-QTOF
Ms type: MS2
Ion mode: POSITIVE
Collision energy: 120
Fragmentation mode: CID
Ionization: ESI
Column name: Zorbax Eclipse Plus C18 2.1 mm x 150 mm, 3.5 um, Agilent
Retention time: 4.073 min
Precursor m/z: 138.0914
Precursor type: [M+H]+
m/z	relative intensity
35.9985	230
37.0066	999
38.0034	60
38.0142	601
39.0109	12
39.0221	368
40.0172	14
44.0484	29
49.0063	174
50.0142	271
51.0097	14
51.0219	47
52.017	20
53.0009	66
59.9977	26
61.006	143
62.0138	113
63.0217	37
73.0059	55
74.0137	87
