Mass spectrum: 2-(2-Methoxyphenyl)-1H-Benzimidazole; LC-ESI-QTOF; MS2; 80 V
Name: 2-(2-Methoxyphenyl)-1H-Benzimidazole
Class: Pharmaceutical
Formula: C14H12N2O
Exact mass: 224.095
SMILES: COc1ccccc1c2[nH]c3ccccc3n2
InChI: InChI=1S/C14H12N2O/c1-17-13-9-5-2-6-10(13)14-15-11-7-3-4-8-12(11)16-14/h2-9H,1H3,(H,15,16)
Instrument: TripleTOF 5600 SCIEX
Instrument type: LC-ESI-QTOF
Ms type: MS2
Ion mode: POSITIVE
Collision energy: 80
Fragmentation mode: CID
Ionization: ESI
Column name: Zorbax Eclipse Plus C18 2.1 mm x 150 mm, 3.5 um, Agilent
Retention time: 6.225 min
Precursor m/z: 225.1022
Precursor type: [M+H]+
m/z	relative intensity
64.0341	50
65.0441	870
66.038	10
74.0187	26
75.0259	69
76.034	146
77.0428	730
77.0723	16
78.0378	50
78.0476	33
89.0409	29
90.0347	29
91.0428	118
92.0516	406
101.039	71
102.0355	240
103.0432	463
104.0494	81
105.0452	13
114.033	10
115.0412	16
115.0528	13
116.0495	41
117.0574	16
118.0534	64
119.0606	24
125.0379	13
126.0476	40
127.0539	304
128.05	319
129.0544	311
130.0438	49
130.064	20
131.0602	146
132.0679	23
140.0492	35
141.0615	12
142.0533	57
143.0609	331
152.0495	52
153.0565	71
153.0728	15
154.0661	318
155.0604	455
156.0682	281
164.048	13
167.0597	37
168.0681	57
169.0767	33
179.0597	237
179.0848	12
180.0676	335
181.0767	999
182.0833	24
