Mass spectrum: Flusilazole; LC-ESI-QTOF; MS2; 110 V
Name: Flusilazole
Class: Fungicide
Formula: C16H15F2N3Si
Exact mass: 315.1003
SMILES: C[Si](CN1C=NC=N1)(C2=CC=C(C=C2)F)C3=CC=C(C=C3)F
InChI: InChI=1S/C16H15F2N3Si/c1-22(12-21-11-19-10-20-21,15-6-2-13(17)3-7-15)16-8-4-14(18)5-9-16/h2-11H,12H2,1H3
Instrument: TripleTOF 6600 SCIEX
Instrument type: LC-ESI-QTOF
Ms type: MS2
Ion mode: POSITIVE
Collision energy: 110
Fragmentation mode: CID
Ionization: ESI
Column name: Zorbax Eclipse Plus C18 2.1 mm x 150 mm, 3.5 um, Agilent
Retention time: 12.729 min
Precursor m/z: 316.1076
Precursor type: [M+H]+
m/z	relative intensity
37.0069	24
38.0144	19
39.0225	124
42.9993	13
46.9745	826
49.0068	10
50.0148	96
51.0226	312
52.9839	12
57.0127	223
59.0281	41
59.9986	16
61.0067	57
62.0144	104
63.0057	9
63.0221	266
65.0379	130
72.9895	22
73.0061	16
74.0141	180
75.0219	203
76.0297	52
77.0379	317
78.045	19
80.996	50
81.0122	32
83.0286	716
85.0065	26
86.0147	57
87.0224	98
88.0305	11
89.0377	288
90.9795	18
91.0536	30
95.0284	22
96.0355	22
98.0137	88
99.0221	64
100.0301	22
101.0375	19
102.0453	48
103.0544	14
105.0136	13
107.0283	72
109.0438	242
110.0137	21
111.0217	28
113.0375	99
115.0532	216
120.0357	37
122.0131	21
123.0069	32
123.0221	31
124.0294	16
125.0372	39
126.0453	99
127.0533	16
128.0612	12
131.0281	23
133.0439	176
137.0374	69
138.0461	38
139.0533	208
144.0359	55
146.0514	16
149.0368	66
150.0453	291
151.0536	140
152.0611	63
155.0269	15
156.0363	10
157.0438	112
161.0371	74
162.0451	197
163.0532	999
164.0613	215
165.0685	97
168.0375	47
169.0432	67
170.0518	50
175.0553	11
176.0587	55
179.0301	10
180.0353	27
181.0439	269
182.0517	105
183.0598	180
199.0351	21
201.0495	40
