Mass spectrum: Coumaphos; LC-ESI-QTOF; MS2; 130 V
Name: Coumaphos
Class: Insecticide
Formula: C14H16ClO5PS
Exact mass: 362.0145
SMILES: CCOP(=S)(OCC)OC1=CC2=C(C=C1)C(=C(C(=O)O2)Cl)C
InChI: InChI=1S/C14H16ClO5PS/c1-4-17-21(22,18-5-2)20-10-6-7-11-9(3)13(15)14(16)19-12(11)8-10/h6-8H,4-5H2,1-3H3
Instrument: TripleTOF 6600 SCIEX
Instrument type: LC-ESI-QTOF
Ms type: MS2
Ion mode: POSITIVE
Collision energy: 130
Fragmentation mode: CID
Ionization: ESI
Column name: Zorbax Eclipse Plus C18 2.1 mm x 150 mm, 3.5 um, Agilent
Retention time: 14.049 min
Precursor m/z: 363.0218
Precursor type: [M+H]+
m/z	relative intensity
37.0067	30
38.0144	30
39.0222	187
41.0382	25
44.9786	86
46.9673	415
49.0072	55
50.0145	324
51.0222	618
52.0306	40
53.0016	25
53.0392	25
55.0169	25
61.007	50
62.0139	126
62.9444	20
62.9618	81
63.0224	329
64.0296	60
64.9776	360
65.0116	30
65.038	709
66.0462	30
68.9783	197
68.9951	65
70.9938	30
72.9833	45
74.0141	218
75.0221	375
76.0301	263
77.038	999
78.0457	50
78.9392	375
80.9722	50
81.0331	20
81.9863	25
86.014	30
87.0227	45
88.0303	35
89.0378	567
90.0455	126
91.0533	770
92.9782	65
94.9947	20
96.95	207
98.9981	45
101.0376	111
102.0457	562
103.0533	243
105.0327	30
105.0431	40
108.0022	55
110.9988	25
113.0381	65
114.0456	40
115.0535	207
118.0402	40
119.0481	121
121.0094	81
129.032	25
129.0432	30
130.041	50
131.0482	177
133.0093	20
134.0181	152
135.0242	81
145.0087	70
147.0424	182
163.0204	40
165.0084	50
