Mass spectrum: threo-Dihydrobupropion; LC-ESI-QTOF; MS2; 120 V
Name: threo-Dihydrobupropion
Class: Pharmaceutical; Metabolite
Formula: C13H20ClNO
Exact mass: 241.1233
SMILES: CC(C(c1cccc(c1)Cl)O)NC(C)(C)C
InChI: InChI=1S/C13H20ClNO/c1-9(15-13(2,3)4)12(16)10-6-5-7-11(14)8-10/h5-9,12,15-16H,1-4H3
Instrument: TripleTOF 5600 SCIEX
Instrument type: LC-ESI-QTOF
Ms type: MS2
Ion mode: POSITIVE
Collision energy: 120
Fragmentation mode: CID
Ionization: ESI
Column name: Zorbax Eclipse Plus C18 2.1 mm x 150 mm, 3.5 um, Agilent
Retention time: 6.626 min
Precursor m/z: 242.1306
Precursor type: [M+H]+
m/z	relative intensity
57.0763	141
58.0712	150
63.0541	44
65.0433	353
72.9861	106
74.0181	203
75.0267	176
77.0429	70
87.025	61
89.0398	999
89.0809	70
90.0472	79
91.0568	106
99	53
113.0363	44
115.0535	786
116.058	35
117.0558	97
