Mass spectrum: 2-Ethyl-6-methylaniline; LC-ESI-QTOF; MS2; 80 V
Name: 2-Ethyl-6-methylaniline
Class: Industrial_process
Formula: C9H13N
Exact mass: 135.1048
SMILES: CCC1=CC=CC(=C1N)C
InChI: InChI=1S/C9H13N/c1-3-8-6-4-5-7(2)9(8)10/h4-6H,3,10H2,1-2H3
Instrument: TripleTOF 5600 SCIEX
Instrument type: LC-ESI-QTOF
Ms type: MS2
Ion mode: POSITIVE
Collision energy: 80
Fragmentation mode: CID
Ionization: ESI
Column name: Zorbax Eclipse Plus C18 2.1 mm x 150 mm, 3.5 um, Agilent
Retention time: 7.958 min
Precursor m/z: 136.1121
Precursor type: [M+H]+
m/z	relative intensity
35.9987	42
37.0074	150
38.0151	75
39.0231	429
49.0073	118
50.0152	633
51.0231	999
52.0298	75
61.0071	150
62.0156	290
63.023	300
65.0383	225
73.0088	42
74.015	171
75.0228	64
77.038	375
78.0472	64
89.0382	75
91.0559	75
