Mass spectrum: Estrone; LC-ESI-QTOF; MS2; 100 V
Name: Estrone
Class: Pharmaceutical
Formula: C18H22O2
Exact mass: 270.162
SMILES: CC12CCC3C(C1CCC2=O)CCC4=C3C=CC(=C4)O
InChI: InChI=1S/C18H22O2/c1-18-9-8-14-13-5-3-12(19)10-11(13)2-4-15(14)16(18)6-7-17(18)20/h3,5,10,14-16,19H,2,4,6-9H2,1H3
Instrument: TripleTOF 5600 SCIEX
Instrument type: LC-ESI-QTOF
Ms type: MS2
Ion mode: POSITIVE
Collision energy: 100
Fragmentation mode: CID
Ionization: ESI
Column name: Zorbax Eclipse Plus C18 2.1 mm x 150 mm, 3.5 um, Agilent
Retention time: 11.224 min
Precursor m/z: 271.1693
Precursor type: [M+H]+
m/z	relative intensity
39.0231	46
41.0386	20
43.018	44
50.0149	34
51.0231	145
53.0386	19
55.0177	20
62.015	23
63.023	90
65.0387	197
66.0464	21
67.0544	25
74.0146	21
75.023	42
76.0308	19
77.0385	840
78.0462	57
79.0543	176
81.0699	13
87.0231	14
89.0386	255
90.0459	23
91.0543	248
94.0416	45
101.0382	25
102.0467	144
103.0543	236
105.0701	77
107.0491	107
113.0384	20
114.0464	25
115.0541	999
116.0622	121
118.0418	21
125.0386	11
126.0467	95
127.0543	275
128.0621	458
129.0698	31
131.0492	137
133.0649	10
139.0544	107
140.0624	12
141.0698	56
144.0572	88
150.0469	47
151.0541	132
152.0623	362
153.0703	80
155.0548	12
157.0648	34
163.0549	55
164.0619	63
165.0706	188
176.0633	48
177.0691	17
178.0781	36
181.0656	57
189.0684	18
