Mass spectrum: Triamterene; LC-ESI-QTOF; MS2; 50 V
Name: Triamterene
Class: Pharmaceutical
Formula: C12H11N7
Exact mass: 253.1076
SMILES: C1=CC=C(C=C1)C2=NC3=C(N=C2N)N=C(N=C3N)N
InChI: InChI=1S/C12H11N7/c13-9-7(6-4-2-1-3-5-6)16-8-10(14)18-12(15)19-11(8)17-9/h1-5H,(H6,13,14,15,17,18,19)
Instrument: TripleTOF 5600 SCIEX
Instrument type: LC-ESI-QTOF
Ms type: MS2
Ion mode: POSITIVE
Collision energy: 50
Fragmentation mode: CID
Ionization: ESI
Column name: Zorbax Eclipse Plus C18 2.1 mm x 150 mm, 3.5 um, Agilent
Retention time: 5.203 min
Precursor m/z: 254.1149
Precursor type: [M+H]+
m/z	relative intensity
43.0406	13
65.022	10
77.0446	98
80.0307	20
82.0431	21
89.0427	80
92.0282	122
103.0431	28
104.0521	999
107.0382	29
114.0337	22
116.0512	426
117.0591	15
128.0383	18
129.0462	29
131.0615	72
134.0473	21
139.0284	10
141.0462	624
142.0535	100
143.0616	385
153.0458	30
158.0719	17
166.0407	49
168.0568	773
169.0632	25
183.0673	169
185.0823	85
193.0502	109
195.0672	560
210.0777	272
212.0934	111
220.062	117
227.1033	39
237.0888	765
254.1156	122
