Mass spectrum: Mirtazapine; LC-ESI-QTOF; MS2; 130 V
Name: Mirtazapine
Class: Pharmaceutical
Formula: C17H19N3
Exact mass: 265.1579
SMILES: CN1CCN2C(C1)C3=CC=CC=C3CC4=C2N=CC=C4
InChI: InChI=1S/C17H19N3/c1-19-9-10-20-16(12-19)15-7-3-2-5-13(15)11-14-6-4-8-18-17(14)20/h2-8,16H,9-12H2,1H3
Instrument: TripleTOF 5600 SCIEX
Instrument type: LC-ESI-QTOF
Ms type: MS2
Ion mode: POSITIVE
Collision energy: 130
Fragmentation mode: CID
Ionization: ESI
Column name: Zorbax Eclipse Plus C18 2.1 mm x 150 mm, 3.5 um, Agilent
Retention time: 5.459 min
Precursor m/z: 266.1652
Precursor type: [M+H]+
m/z	relative intensity
42.0445	84
44.0621	37
65.0449	370
66.0388	42
72.0838	31
73.0084	26
74.0195	359
75.0271	327
76.0226	21
76.035	132
77.0427	565
78.0388	42
78.0517	79
85.0126	58
86.0186	132
87.0257	248
88.0333	163
89.0417	528
90.0427	68
91.0569	58
92.0506	31
98.0168	195
99.0233	174
100.0227	26
100.0334	47
101.0374	68
102.0466	206
103.0575	42
104.0509	31
110.0178	42
111.0204	52
112.0293	42
113.0397	433
114.0415	142
115.0547	338
116.0482	37
117.0522	26
122.0149	47
124.0287	37
125.0387	100
126.0463	296
127.0551	84
128.0605	42
129.0447	21
130.064	26
131.0627	31
137.0398	206
138.0468	200
139.0538	999
140.0497	454
149.0368	74
150.0459	449
151.0551	396
152.0628	243
161.0402	47
162.0447	79
163.0552	259
164.0504	507
165.0551	111
166.063	153
167.0709	21
175.0427	31
176.0502	31
177.058	68
178.0622	47
179.066	26
188.0477	58
189.0528	26
190.0644	74
191.06	79
192.0673	111
216.0722	31
