Mass spectrum: Meptazinol; LC-ESI-QTOF; MS2; 130 V
Name: Meptazinol
Class: Pharmaceutical
Formula: C15H23NO
Exact mass: 233.178
SMILES: CCC1(CCCCN(C1)C)C2=CC(=CC=C2)O
InChI: InChI=1S/C15H23NO/c1-3-15(9-4-5-10-16(2)12-15)13-7-6-8-14(17)11-13/h6-8,11,17H,3-5,9-10,12H2,1-2H3
Instrument: TripleTOF 5600 SCIEX
Instrument type: LC-ESI-QTOF
Ms type: MS2
Ion mode: POSITIVE
Collision energy: 130
Fragmentation mode: CID
Ionization: ESI
Column name: Zorbax Eclipse Plus C18 2.1 mm x 150 mm, 3.5 um, Agilent
Retention time: 5.641 min
Precursor m/z: 234.1852
Precursor type: [M+H]+
m/z	relative intensity
35.9989	27
37.0073	65
38.0148	54
39.0228	181
41.0383	30
42.0335	50
44.0494	236
49.0071	65
50.0151	480
51.0229	999
52.0304	23
53.0381	42
54.0332	38
55.0167	34
56.0498	34
61.0072	54
62.0153	100
63.0232	174
65.0384	104
70.0643	30
74.0143	96
75.0225	54
76.0312	19
77.0384	511
78.0471	34
86.0138	23
89.0379	108
91.0535	30
102.0465	19
115.0539	92
126.0469	19
127.056	19
128.0622	19
