Mass spectrum: N-[2-[(2-Bromo-4,6-dinitrophenyl)azo]-5-(diethylamino)phenyl]acetamide; LC-ESI-QTOF; MS2; 60 V
Name: N-[2-[(2-Bromo-4,6-dinitrophenyl)azo]-5-(diethylamino)phenyl]acetamide
Formula: C18H19BrN6O5
Exact mass: 478.06
SMILES: CCN(CC)C1=CC(=C(C=C1)N=NC2=C(C=C(C=C2Br)[N+](=O)[O-])[N+](=O)[O-])NC(=O)C
InChI: InChI=1S/C18H19BrN6O5/c1-4-23(5-2)12-6-7-15(16(9-12)20-11(3)26)21-22-18-14(19)8-13(24(27)28)10-17(18)25(29)30/h6-10H,4-5H2,1-3H3,(H,20,26)
Instrument: TripleTOF 6600 SCIEX
Instrument type: LC-ESI-QTOF
Ms type: MS2
Ion mode: POSITIVE
Collision energy: 60
Fragmentation mode: CID
Ionization: ESI
Column name: Zorbax Eclipse Plus C18 2.1 mm x 150 mm, 3.5 um, Agilent
Retention time: 16.579 min
Precursor m/z: 479.0673
Precursor type: [M+H]+
m/z	relative intensity
80.048	19
93.0564	26
107.0585	25
108.0433	32
108.0793	18
109.0738	26
120.0549	16
121.0745	163
133.0628	30
134.0703	119
135.0914	63
136.0746	73
147.0778	12
148.062	71
148.0849	114
149.1056	93
150.0892	12
161.0703	14
162.1006	224
163.0856	264
163.1202	97
175.0733	19
176.1172	12
177.1014	307
191.117	999
204.1131	20
250.1347	11
265.1428	30
272.9886	20
301.0253	11
316.0347	13
328.0392	13
329.0463	26
330.0291	16
344.063	39
345.0443	20
375.0334	11
390.0591	11
