Mass spectrum: 2-Methyl-4-(dimethylamino)azobenzene; LC-ESI-QTOF; MS2; 40 V
Name: 2-Methyl-4-(dimethylamino)azobenzene
Formula: C15H17N3
Exact mass: 239.1422
SMILES: CC1=C(C=CC(=C1)N(C)C)N=NC2=CC=CC=C2
InChI: InChI=1S/C15H17N3/c1-12-11-14(18(2)3)9-10-15(12)17-16-13-7-5-4-6-8-13/h4-11H,1-3H3
Instrument: TripleTOF 6600 SCIEX
Instrument type: LC-ESI-QTOF
Ms type: MS2
Ion mode: POSITIVE
Collision energy: 40
Fragmentation mode: CID
Ionization: ESI
Column name: Zorbax Eclipse Plus C18 2.1 mm x 150 mm, 3.5 um, Agilent
Retention time: 15.86 min
Precursor m/z: 240.1501
Precursor type: [M+H]+
m/z	relative intensity
42.0338	2
49.0068	2
50.0148	17
51.023	75
65.0383	12
76.8093	6
77.0386	999
79.0539	22
80.0493	7
82.0646	11
90.0334	4
91.0537	32
92.0494	15
93.0574	33
94.0648	8
104.049	37
105.045	33
106.0649	51
107.0603	19
108.0799	10
116.0489	5
117.0571	3
118.0579	32
119.0713	26
120.0803	116
121.0834	17
122.0836	73
131.0595	8
132.0681	17
133.0761	308
133.6953	2
134.0964	413
135.1035	171
136.0986	15
137.107	30
145.0754	3
147.0915	261
148.0989	130
149.1068	4
167.0723	4
179.0716	3
180.0806	7
181.0773	5
182.0835	4
195.0907	19
196.1101	10
197.1188	4
207.0917	18
208.0982	6
209.1002	8
210.1024	4
223.1224	23
224.1184	38
225.1255	13
240.1499	83
