Mass spectrum: Dimoxystrobin; LC-ESI-QTOF; MS2; 130 V
Name: Dimoxystrobin
Class: Fungicide
Formula: C19H22N2O3
Exact mass: 326.163
SMILES: CC1=CC(=C(C=C1)C)OCC2=CC=CC=C2C(=NOC)C(=O)NC
InChI: InChI=1S/C19H22N2O3/c1-13-9-10-14(2)17(11-13)24-12-15-7-5-6-8-16(15)18(21-23-4)19(22)20-3/h5-11H,12H2,1-4H3,(H,20,22)
Instrument: TripleTOF 6600 SCIEX
Instrument type: LC-ESI-QTOF
Ms type: MS2
Ion mode: POSITIVE
Collision energy: 130
Fragmentation mode: CID
Ionization: ESI
Column name: Zorbax Eclipse Plus C18 2.1 mm x 150 mm, 3.5 um, Agilent
Retention time: 13.184 min
Precursor m/z: 327.1703
Precursor type: [M+H]+
m/z	relative intensity
36.0002	15
37.0079	72
38.0157	44
39.0239	211
41.0395	16
49.0075	15
50.0157	58
51.0237	77
58.0294	188
60.0001	21
61.008	154
62.0159	349
63.0237	999
64.0189	185
64.0306	16
65.0386	57
74.0158	25
75.0114	10
75.0233	22
76.0185	16
76.0313	11
77.0389	61
87.0116	12
88.0187	31
89.0392	552
90.034	37
90.0469	46
91.0554	18
114.0337	12
115.0544	12
116.0497	21
139.055	21
150.0465	34
151.054	36
152.0626	30
163.0549	30
164.0615	21
165.0707	18
176.0624	26
189.0699	16
