Mass spectrum: 3,5-Diiodothyronine; LC-ESI-QTOF; MS2; 120 V
Name: 3,5-Diiodothyronine
Class: Pharmaceutical
Formula: C15H13I2NO4
Exact mass: 524.8934
SMILES: NC(Cc1cc(I)c(Oc2ccc(O)cc2)c(I)c1)C(O)=O
InChI: InChI=1S/C15H13I2NO4/c16-11-5-8(7-13(18)15(20)21)6-12(17)14(11)22-10-3-1-9(19)2-4-10/h1-6,13,19H,7,18H2,(H,20,21)
Instrument: TripleTOF 5600 SCIEX
Instrument type: LC-ESI-QTOF
Ms type: MS2
Ion mode: POSITIVE
Collision energy: 120
Fragmentation mode: CID
Ionization: ESI
Column name: Zorbax Eclipse Plus C18 2.1 mm x 150 mm, 3.5 um, Agilent
Retention time: 7.539 min
Precursor m/z: 525.9007
Precursor type: [M+H]+
m/z	relative intensity
51.0289	37
65.0433	174
66.0504	17
67.0457	12
74.0217	22
76.0343	45
77.0418	249
78.035	15
78.0494	88
79.0438	42
80.0523	17
81.036	98
87.0253	15
89.0399	244
90.0134	25
90.0489	133
91.0199	15
91.0567	47
92.0264	12
93.0348	25
94.042	50
101.0404	25
102.0471	191
103.0556	40
104.0504	287
105.0344	93
105.0576	52
106.0409	17
107.05	25
109.0297	20
113.0391	27
114.0435	15
115.0546	577
116.0501	25
116.0617	22
117.0578	121
118.0031	15
119.014	17
126.0473	88
127.0544	302
128.0626	940
129.0687	12
131.0494	40
138.0439	15
139.0538	285
140.0627	27
141.0704	484
142.0747	27
144.0553	15
150.0467	60
151.0548	252
152.0624	999
153.0699	136
154.0641	50
155.0495	158
156.0565	47
157.0643	15
162.0449	17
163.0536	75
164.0594	37
165.0702	73
166.0646	15
167.0734	55
168.0576	95
168.0799	42
169.0651	169
170.0696	20
178.065	20
179.0502	45
180.0829	32
181.0641	232
182.0703	10
183.0424	17
184.0522	163
193.0593	12
196.0773	70
197.0603	542
206.0625	20
207.0677	22
209.0591	15
217.9228	10
219.9396	20
223.0648	30
224.0706	37
232.9461	25
244.9093	17
