Mass spectrum: 2-Piperidin-3-yl-benzothiazole; LC-ESI-QTOF; MS2; 120 V
Name: 2-Piperidin-3-yl-benzothiazole
Formula: C12H14N2S
Exact mass: 218.0878
SMILES: C1CC(CNC1)C2=NC3=CC=CC=C3S2
InChI: InChI=1S/C12H14N2S/c1-2-6-11-10(5-1)14-12(15-11)9-4-3-7-13-8-9/h1-2,5-6,9,13H,3-4,7-8H2
Instrument: TripleTOF 5600 SCIEX
Instrument type: LC-ESI-QTOF
Ms type: MS2
Ion mode: POSITIVE
Collision energy: 120
Fragmentation mode: CID
Ionization: ESI
Column name: Zorbax Eclipse Plus C18 2.1 mm x 150 mm, 3.5 um, Agilent
Retention time: 5.623 min
Precursor m/z: 219.095
Precursor type: [M+H]+
m/z	relative intensity
37.007	36
38.0148	30
39.0227	112
44.0494	16
44.9791	123
49.0077	14
50.0151	30
51.0232	117
54.0336	11
57.9869	53
61.0071	19
62.0152	50
63.0227	109
64.0314	14
65.0387	151
67.9714	81
68.9795	999
74.0151	75
75.0093	14
75.0238	36
76.0179	25
76.0291	14
77.0387	92
80.9791	56
81.9873	171
89.0383	56
92.9793	117
102.0451	16
106.9954	28
108.0027	75
109.0112	25
121.0132	22
