Mass spectrum: Isoproturon; LC-ESI-QTOF; MS2; 70 V
Name: Isoproturon
Class: Herbicide
Formula: C12H18N2O
Exact mass: 206.1419
SMILES: CC(C)c1ccc(NC(=O)N(C)C)cc1
InChI: InChI=1S/C12H18N2O/c1-9(2)10-5-7-11(8-6-10)13-12(15)14(3)4/h5-9H,1-4H3,(H,13,15)
Instrument: TripleTOF 5600 SCIEX
Instrument type: LC-ESI-QTOF
Ms type: CID
Ion mode: POSITIVE
Collision energy: 70
Ionization: ESI
Column name: Zorbax Eclipse Plus C18 2.1 mm x 150 mm, 3.5 um, Agilent
Retention time: 10.257 min
Precursor m/z: 207.1492
Precursor type: [M+H]+
m/z	relative intensity
56.018	60
56.0288	18
65.0452	110
72.0486	999
72.092	15
77.0421	110
78.0503	18
91.0566	193
92.0516	18
93.0574	22
103.0539	22
115.0543	22
117.0667	15
118.0651	37
119.0755	18
