Mass spectrum: Isopropyltriphenylphosphonium; LC-ESI-QTOF; MS2; 100 V
Name: Isopropyltriphenylphosphonium
Formula: [C21H22P]+
Exact mass: 305.1454
SMILES: CC(C)[P+](C1=CC=CC=C1)(C2=CC=CC=C2)C3=CC=CC=C3
InChI: InChI=1S/C21H22P/c1-18(2)22(19-12-6-3-7-13-19,20-14-8-4-9-15-20)21-16-10-5-11-17-21/h3-18H,1-2H3/q+1
Instrument: TripleTOF 5600 SCIEX
Instrument type: LC-ESI-QTOF
Ms type: MS2
Ion mode: POSITIVE
Collision energy: 100
Fragmentation mode: CID
Ionization: ESI
Column name: Zorbax Eclipse Plus C18 2.1 mm x 150 mm, 3.5 um, Agilent
Retention time: 7.721 min
Precursor m/z: 305.1454
Precursor type: [M]+
m/z	relative intensity
89.0362	67
107.0029	422
115.0528	321
126.0451	85
133.0192	94
139.0534	262
151.0535	201
152.0613	999
157.0192	521
181.0203	213
183.0353	469
