Mass spectrum: Clomazone; LC-ESI-QTOF; MS2; 130 V
Name: Clomazone
Class: Herbicide
Formula: C12H14ClNO2
Exact mass: 239.0713
SMILES: CC1(CON(C1=O)CC2=CC=CC=C2Cl)C
InChI: InChI=1S/C12H14ClNO2/c1-12(2)8-16-14(11(12)15)7-9-5-3-4-6-10(9)13/h3-6H,7-8H2,1-2H3
Instrument: TripleTOF 6600 SCIEX
Instrument type: LC-ESI-QTOF
Ms type: MS2
Ion mode: POSITIVE
Collision energy: 130
Fragmentation mode: CID
Ionization: ESI
Column name: Zorbax Eclipse Plus C18 2.1 mm x 150 mm, 3.5 um, Agilent
Retention time: 11.289 min
Precursor m/z: 240.0786
Precursor type: [M+H]+
m/z	relative intensity
35.998	56
37.0056	269
38.0133	269
39.0211	384
46.9664	166
48.9816	183
49.0054	23
50.0132	163
51.0209	71
59.9968	125
61.0049	496
62.0129	914
63.0207	999
64.0282	62
72.9815	565
73.0042	19
74.0133	122
75.0213	45
85.003	15
86.012	17
89.0356	427
96.9811	12
98.9947	17
