Mass spectrum: Topramezone; LC-ESI-QTOF; MS2; 100 V
Name: Topramezone
Class: Herbicide
Formula: C16H17N3O5S
Exact mass: 363.0889
SMILES: CC1=C(C=CC(=C1C2=NOCC2)S(=O)(=O)C)C(=O)C3=CNN(C3=O)C
InChI: InChI=1S/C16H17N3O5S/c1-9-10(15(20)11-8-17-19(2)16(11)21)4-5-13(25(3,22)23)14(9)12-6-7-24-18-12/h4-5,8,17H,6-7H2,1-3H3
Instrument: TripleTOF 6600 SCIEX
Instrument type: LC-ESI-QTOF
Ms type: MS2
Ion mode: NEGATIVE
Collision energy: 100
Fragmentation mode: CID
Ionization: ESI
Column name: Zorbax Eclipse Plus C18 2.1 mm x 150 mm, 3.5 um, Agilent
Retention time: 6.915 min
Precursor m/z: 362.0816
Precursor type: [M-H]-
m/z	relative intensity
41.9972	138
63.9613	999
65.9977	145
78.9846	99
82.0151	416
97.036	92
101.0402	33
114.0308	92
114.0387	86
115.0415	86
115.0544	66
116.0476	39
129.0568	39
130.065	86
138.0359	72
139.031	39
139.048	26
140.0419	33
142.0283	33
166.0295	52
