Mass spectrum: Prednisone; LC-ESI-QTOF; MS2; 20 V
Name: Prednisone
Class: Pharmaceutical
Formula: C21H26O5
Exact mass: 358.178
SMILES: C[C@]12CC(=O)[C@H]3[C@@H](CCC4=CC(=O)C=C[C@]34C)[C@@H]1CC[C@]2(O)C(=O)CO
InChI: InChI=1S/C21H26O5/c1-19-7-5-13(23)9-12(19)3-4-14-15-6-8-21(26,17(25)11-22)20(15,2)10-16(24)18(14)19/h5,7,9,14-15,18,22,26H,3-4,6,8,10-11H2,1-2H3/t14-,15-,18+,19-,20-,21-/m0/s1
Instrument: TripleTOF 5600 SCIEX
Instrument type: LC-ESI-QTOF
Ms type: MS2
Ion mode: POSITIVE
Collision energy: 20
Fragmentation mode: CID
Ionization: ESI
Column name: Zorbax Eclipse Plus C18 2.1 mm x 150 mm, 3.5 um, Agilent
Retention time: 8.469 min
Precursor m/z: 359.1853
Precursor type: [M+H]+
m/z	relative intensity
93.0707	28
95.0494	11
95.0864	10
101.0599	14
107.0851	13
109.0641	20
111.0801	11
121.0642	16
123.0801	16
135.0802	53
137.0949	31
139.0745	15
147.0799	200
153.0903	36
159.08	56
161.0954	51
163.0744	24
165.0902	13
171.0804	102
173.0953	56
177.0901	10
181.0852	34
183.1012	53
185.0948	16
187.0748	44
187.1097	23
189.0903	13
197.0957	84
199.1113	50
209.0949	34
211.1115	35
213.0922	9
213.1279	91
215.1058	21
221.0961	23
223.1106	41
225.1265	38
227.1431	29
235.1105	33
237.127	245
239.1067	62
239.1423	43
241.1223	14
247.1096	13
249.1273	34
251.1415	28
253.1221	137
253.1582	39
255.1365	114
261.127	92
262.1345	16
263.1433	142
264.1499	34
265.1205	14
265.1583	276
267.138	314
267.1712	31
275.1426	34
277.1205	11
277.1583	197
279.1382	29
281.1539	94
283.1689	71
287.1421	89
292.1467	12
293.1536	97
295.1697	441
297.1484	61
305.1533	277
311.1654	85
313.1799	498
323.1637	603
341.1752	999
