Mass spectrum: Ciprofloxacin; LC-ESI-QTOF; MS2; 80 V
Name: Ciprofloxacin
Class: Pharmaceutical
Formula: C17H18FN3O3
Exact mass: 331.1332
SMILES: C1CC1N2C=C(C(=O)C3=CC(=C(C=C32)N4CCNCC4)F)C(=O)O
InChI: InChI=1S/C17H18FN3O3/c18-13-7-11-14(8-15(13)20-5-3-19-4-6-20)21(10-1-2-10)9-12(16(11)22)17(23)24/h7-10,19H,1-6H2,(H,23,24)
Instrument: TripleTOF 6600 SCIEX
Instrument type: LC-ESI-QTOF
Ms type: MS2
Ion mode: POSITIVE
Collision energy: 80
Fragmentation mode: CID
Ionization: ESI
Column name: Zorbax Eclipse Plus C18 2.1 mm x 150 mm, 3.5 um, Agilent
Retention time: 5.497 min
Precursor m/z: 332.1405
Precursor type: [M+H]+
m/z	relative intensity
101.0389	285
107.0289	356
115.0576	142
116.0497	285
128.0496	463
129.058	178
132.0243	321
133.0326	499
134.0399	570
135.0473	285
140.0377	178
146.0402	178
146.053	142
147.0498	214
148.0553	999
154.0651	249
155.0595	214
158.0414	249
160.0199	214
160.0432	499
161.0274	392
162.0356	285
172.0562	214
174.038	214
174.0582	392
175.0671	178
187.0303	570
188.0176	142
188.0384	820
203.0603	392
215.0259	321
231.0576	713
