Mass spectrum: 2-Ethyl-6-methylaniline; LC-ESI-QTOF; MS2; 40 V
Name: 2-Ethyl-6-methylaniline
Class: Industrial_process; Herbicide; Transformation_product-Metabolite
Formula: C9H13N
Exact mass: 135.1048
SMILES: CCC1=CC=CC(=C1N)C
InChI: InChI=1S/C9H13N/c1-3-8-6-4-5-7(2)9(8)10/h4-6H,3,10H2,1-2H3
Instrument: TripleTOF 5600 SCIEX
Instrument type: LC-ESI-QTOF
Ms type: MS2
Ion mode: POSITIVE
Collision energy: 40
Fragmentation mode: CID
Ionization: ESI
Column name: Zorbax Eclipse Plus C18 2.1 mm x 150 mm, 3.5 um, Agilent
Retention time: 7.958 min
Precursor m/z: 136.1121
Precursor type: [M+H]+
m/z	relative intensity
39.0226	38
41.0383	16
50.0145	12
51.023	51
63.0227	20
65.0385	340
77.0387	621
78.0463	184
79.0539	43
89.0376	16
91.0543	999
93.0571	67
93.0695	20
102.0468	34
103.0543	196
104.0624	189
106.0652	173
107.073	56
108.0808	10
115.0539	222
116.0596	16
117.07	123
118.0648	16
119.074	27
119.0852	18
120.0815	21
