Mass spectrum: Bisoprolol; LC-ESI-QTOF; MS2; 60 V
Name: Bisoprolol
Class: Pharmaceutical
Formula: C18H31NO4
Exact mass: 325.2253
SMILES: CC(C)NCC(COC1=CC=C(C=C1)COCCOC(C)C)O
InChI: InChI=1S/C18H31NO4/c1-14(2)19-11-17(20)13-23-18-7-5-16(6-8-18)12-21-9-10-22-15(3)4/h5-8,14-15,17,19-20H,9-13H2,1-4H3
Instrument: TripleTOF 6600 SCIEX
Instrument type: LC-ESI-QTOF
Ms type: MS2
Ion mode: POSITIVE
Collision energy: 60
Fragmentation mode: CID
Ionization: ESI
Column name: Zorbax Eclipse Plus C18 2.1 mm x 150 mm, 3.5 um, Agilent
Retention time: 7.01 min
Precursor m/z: 326.2326
Precursor type: [M+H]+
m/z	relative intensity
30.0333	119
39.0227	41
41.0381	104
42.0334	10
43.0173	12
43.0537	132
44.0487	25
45.0331	287
56.0489	755
57.0319	15
58.0641	79
61.0061	11
62.0143	15
63.0222	78
65.0375	53
72.0797	144
73.0267	12
74.0591	725
75.0436	10
77.0374	226
78.0447	10
79.0528	166
84.0793	36
89.0374	701
91.053	467
98.0945	41
100.1103	34
103.0524	51
105.0685	179
107.0478	999
115.0529	76
116.1054	104
117.0679	40
119.0472	91
121.063	100
133.0629	129
134.0588	16
145.0637	35
147.0777	14
