Mass spectrum: 2,4-Diaminotoluene; LC-ESI-QTOF; MS2; 50 V
Name: 2,4-Diaminotoluene
Class: Industrial_process
Formula: C7H10N2
Exact mass: 122.0844
SMILES: Cc1ccc(N)cc1N
InChI: InChI=1S/C7H10N2/c1-5-2-3-6(8)4-7(5)9/h2-4H,8-9H2,1H3
Instrument: TripleTOF 5600 SCIEX
Instrument type: LC-ESI-QTOF
Ms type: MS2
Ion mode: POSITIVE
Collision energy: 50
Fragmentation mode: CID
Ionization: ESI
Column name: Zorbax Eclipse Plus C18 2.1 mm x 150 mm, 3.5 um, Agilent
Retention time: 2.138 min
Precursor m/z: 123.0917
Precursor type: [M+H]+
m/z	relative intensity
53.0445	69
77.0411	999
79.0577	81
80.0508	487
81.0598	81
107.0594	92
108.0673	69
