Mass spectrum: Picolinafen; LC-ESI-QTOF; MS2; 150 V
Name: Picolinafen
Class: Herbicide
Formula: C19H12F4N2O2
Exact mass: 376.0835
SMILES: C1=CC(=CC(=C1)OC2=CC=CC(=N2)C(=O)NC3=CC=C(C=C3)F)C(F)(F)F
InChI: InChI=1S/C19H12F4N2O2/c20-13-7-9-14(10-8-13)24-18(26)16-5-2-6-17(25-16)27-15-4-1-3-12(11-15)19(21,22)23/h1-11H,(H,24,26)
Instrument: TripleTOF 6600 SCIEX
Instrument type: LC-ESI-QTOF
Ms type: MS2
Ion mode: POSITIVE
Collision energy: 150
Fragmentation mode: CID
Ionization: ESI
Column name: Zorbax Eclipse Plus C18 2.1 mm x 150 mm, 3.5 um, Agilent
Retention time: 15.501 min
Precursor m/z: 377.0908
Precursor type: [M+H]+
m/z	relative intensity
30.9964	13
35.9987	13
37.0067	68
38.0138	73
39.0221	114
50.0134	40
51.0025	57
51.0216	13
57.0119	57
61.0054	16
62.0132	16
63.0215	16
68.0046	16
68.9927	174
69.0115	57
73.0055	131
74.0136	999
75.0032	199
75.021	772
81.0124	27
87.0185	21
88.0134	13
92.9938	16
95.0078	19
95.0269	51
98.0125	21
99.0038	87
113.0374	21
117.0113	13
119.0085	21
122.0137	54
123.0038	13
123.0171	13
123.0292	19
125.0172	35
145.0246	19
