Mass spectrum: Acetochlor; LC-ESI-QTOF; MS2; 60 V
Name: Acetochlor
Class: Herbicide
Formula: C14H20ClNO2
Exact mass: 269.1183
SMILES: CCC1=CC=CC(=C1N(COCC)C(=O)CCl)C
InChI: InChI=1S/C14H20ClNO2/c1-4-12-8-6-7-11(3)14(12)16(10-18-5-2)13(17)9-15/h6-8H,4-5,9-10H2,1-3H3
Instrument: TripleTOF 6600 SCIEX
Instrument type: LC-ESI-QTOF
Ms type: MS2
Ion mode: POSITIVE
Collision energy: 60
Fragmentation mode: CID
Ionization: ESI
Column name: Zorbax Eclipse Plus C18 2.1 mm x 150 mm, 3.5 um, Agilent
Retention time: 13.251 min
Precursor m/z: 270.1255
Precursor type: [M+H]+
m/z	relative intensity
31.0176	88
41.0378	34
45.0329	191
48.9826	68
65.0386	29
77.0371	73
79.0527	29
90.0082	29
91.0518	172
103.0523	34
104.0499	24
105.0685	98
106.063	59
115.0541	108
116.0486	24
116.0602	19
117.0567	433
118.0632	162
119.0724	98
127.0555	24
128.058	39
129.0692	49
130.0647	108
131.0713	68
132.0791	999
133.0863	339
142.065	19
143.0742	34
144.0794	83
146.0953	182
147.1021	132
148.1097	19
156.0767	34
157.0838	29
158.0943	44
