Mass spectrum: 14-Hydroxycodeinone; LC-ESI-QTOF; MS2; 120 V
Name: 14-Hydroxycodeinone
Class: Pharmaceutical; Transformation_product
Formula: C18H19NO4
Exact mass: 313.1314
SMILES: COc1ccc2C[C@H]3N(C)CC[C@@]45C(Oc1c24)C(=O)C=C[C@@]35O
InChI: InChI=1S/C18H19NO4/c1-19-8-7-17-14-10-3-4-12(22-2)15(14)23-16(17)11(20)5-6-18(17,21)13(19)9-10/h3-6,13,16,21H,7-9H2,1-2H3/t13-,16?,17+,18-/m1/s1
Instrument: TripleTOF 5600 SCIEX
Instrument type: LC-ESI-QTOF
Ms type: MS2
Ion mode: POSITIVE
Collision energy: 120
Fragmentation mode: CID
Ionization: ESI
Column name: Zorbax Eclipse Plus C18 2.1 mm x 150 mm, 3.5 um, Agilent
Retention time: 5.367 min
Precursor m/z: 314.1387
Precursor type: [M+H]+
m/z	relative intensity
51.0286	28
65.0421	36
74.0179	30
75.0255	47
76.0337	32
77.0407	167
78.0494	23
87.0242	38
88.0314	39
89.0397	191
90.0464	18
91.0548	29
98.0158	20
99.023	16
101.0379	48
102.0458	75
103.0546	14
113.0387	145
114.045	73
115.0539	380
116.0491	30
117.0566	18
125.0391	27
126.0461	129
127.0539	210
128.061	118
129.0571	11
130.0643	15
137.0378	27
138.0453	55
139.0542	999
140.0497	293
141.0585	63
142.0644	19
149.0387	24
150.0458	160
151.0537	232
152.0615	462
153.0604	124
154.0647	86
155.0731	12
162.0458	24
163.0536	195
164.0581	140
165.0686	145
166.0648	453
167.0719	124
168.0595	12
168.0797	60
175.0531	18
176.0613	65
177.0587	30
178.0651	77
179.0729	29
180.08	115
181.065	14
181.0878	32
188.0519	10
189.0605	23
190.0633	57
191.0715	54
192.0776	11
193.0564	12
195.0654	10
204.0802	10
