Mass spectrum: Methyl 4-hydroxybenzoate; LC-ESI-QTOF; MS2; 130 V
Name: Methyl 4-hydroxybenzoate
Formula: C8H8O3
Exact mass: 152.0473
SMILES: COC(=O)C1=CC=C(C=C1)O
InChI: InChI=1S/C8H8O3/c1-11-8(10)6-2-4-7(9)5-3-6/h2-5,9H,1H3
Instrument: TripleTOF 5600 SCIEX
Instrument type: LC-ESI-QTOF
Ms type: CID
Ion mode: POSITIVE
Collision energy: 130
Ionization: ESI
Column name: Zorbax Eclipse Plus C18 2.1 mm x 150 mm, 3.5 um, Agilent
Retention time: 7.587 min
Precursor m/z: 153.0546
Precursor type: [M+H]+
m/z	relative intensity
35.9991	249
37.0069	999
38.0151	499
39.0215	249
73.0079	499
74.015	749
