Mass spectrum: 6alpha-Methylprednisolone; LC-ESI-QTOF; MS2; 50 V
Name: 6alpha-Methylprednisolone
Class: Pharmaceutical
Formula: C22H30O5
Exact mass: 374.2093
SMILES: C[C@H]1C[C@H]2[C@@H]3CC[C@](O)(C(=O)CO)[C@@]3(C)C[C@H](O)[C@@H]2[C@@]4(C)C=CC(=O)C=C14
InChI: InChI=1S/C22H30O5/c1-12-8-14-15-5-7-22(27,18(26)11-23)21(15,3)10-17(25)19(14)20(2)6-4-13(24)9-16(12)20/h4,6,9,12,14-15,17,19,23,25,27H,5,7-8,10-11H2,1-3H3/t12-,14-,15-,17-,19+,20-,21-,22-/m0/s1
Instrument: TripleTOF 5600 SCIEX
Instrument type: LC-ESI-QTOF
Ms type: MS2
Ion mode: POSITIVE
Collision energy: 50
Fragmentation mode: CID
Ionization: ESI
Column name: Zorbax Eclipse Plus C18 2.1 mm x 150 mm, 3.5 um, Agilent
Retention time: 9.016 min
Precursor m/z: 375.2166
Precursor type: [M+H]+
m/z	relative intensity
43.0262	42
67.058	53
77.0416	117
77.0563	26
79.0572	128
81.0731	64
91.0546	389
93.0697	181
95.0862	69
97.0649	21
103.0534	26
105.0695	427
107.0505	32
107.0847	203
109.064	37
109.0995	26
111.0791	21
115.0542	192
116.0596	21
117.0694	186
119.0842	251
121.0636	673
121.099	26
123.0795	42
127.0559	21
128.0603	106
129.0686	144
130.0775	42
131.0465	32
131.0842	208
132.0532	26
133.0628	74
133.099	224
135.0793	822
137.0594	53
137.0968	37
141.0683	112
142.0755	117
143.0846	208
144.0553	48
144.0915	32
145.0629	229
145.1004	117
146.0716	197
147.0802	181
147.1185	42
149.0937	32
152.0613	42
153.068	58
154.0806	26
155.0844	96
156.0948	58
157.0647	69
157.0997	106
158.0708	213
159.0802	438
159.1143	58
160.0875	69
161.0945	999
165.0695	96
166.0761	53
167.0841	74
168.0927	42
169.0996	64
170.072	64
171.08	240
171.1127	42
172.0867	154
173.0949	245
175.1091	80
177.0889	32
178.0772	96
179.0835	96
180.0907	37
181.0634	122
181.0995	74
182.0779	42
183.0795	90
183.1154	80
184.0889	101
185.0943	886
186.1014	32
187.1101	325
189.0897	74
190.0765	42
191.0856	32
192.0945	80
193.1006	267
194.0717	42
194.1056	26
195.0775	293
195.1177	42
196.0866	309
197.0954	170
197.1291	32
198.1041	58
199.1108	138
201.1253	37
202.0749	26
203.0843	64
204.0917	48
205.0981	101
206.1077	58
207.0786	58
207.1114	80
208.0866	181
209.0941	518
209.1276	37
210.1018	192
210.1383	26
211.1111	560
212.1171	58
213.1234	112
215.084	53
216.0976	37
217.1043	58
218.1083	64
219.0787	37
219.1167	48
220.1241	96
221.0933	160
221.1357	48
222.1027	240
223.1098	395
224.1175	160
225.127	149
225.1693	26
228.0974	37
229.101	32
230.1035	26
231.0748	42
231.1152	21
232.0888	32
233.0936	85
233.1317	26
234.105	90
235.1104	197
235.1464	58
236.1186	208
237.0898	26
237.1252	240
238.1336	149
239.1409	53
239.1539	26
243.1197	26
244.0873	26
245.0924	48
246.104	58
247.1108	117
247.1433	26
248.1202	58
249.1246	138
250.1346	69
251.1035	42
251.1411	213
253.116	32
253.1578	133
258.1045	42
259.1072	80
260.1141	26
261.1253	85
262.1327	64
263.1399	101
263.177	80
264.1503	32
265.1565	544
273.126	85
275.1409	26
277.1616	21
278.1644	21
279.171	64
280.1807	69
288.1469	26
