Mass spectrum: 4-(2,4-Dichlorophenoxy)butanoic acid; LC-ESI-QTOF; MS2; 60 V
Name: 4-(2,4-Dichlorophenoxy)butanoic acid
Class: Herbicide
Formula: C10H10Cl2O3
Exact mass: 248.0007
SMILES: C1=CC(=C(C=C1Cl)Cl)OCCCC(=O)O
InChI: InChI=1S/C10H10Cl2O3/c11-7-3-4-9(8(12)6-7)15-5-1-2-10(13)14/h3-4,6H,1-2,5H2,(H,13,14)
Instrument: TripleTOF 6600 SCIEX
Instrument type: LC-ESI-QTOF
Ms type: MS2
Ion mode: POSITIVE
Collision energy: 60
Fragmentation mode: CID
Ionization: ESI
Column name: Zorbax Eclipse Plus C18 2.1 mm x 150 mm, 3.5 um, Agilent
Retention time: 11.685 min
Precursor m/z: 249.008
Precursor type: [M+H]+
m/z	relative intensity
36.0003	21
37.0077	86
38.0159	108
39.0226	933
41.0382	738
43.0182	608
44.9973	130
45.0332	999
65.0368	21
65.0439	21
69.0321	152
72.9833	108
74.0133	347
75.0227	130
77.0382	86
78.0442	21
79.0523	21
82.9434	108
87.046	65
89.0372	43
91.0516	43
98.9973	65
105.0707	43
106.9443	86
108.9837	716
109.9871	43
110.9995	173
112.0058	217
115.0519	43
118.0403	21
119.0502	21
125.0153	130
132.96	477
139.003	43
144.9636	195
172.9629	65
