Mass spectrum: Erlotinib; LC-ESI-QTOF; MS2; 60 V
Name: Erlotinib
Class: Pharmaceutical
Formula: C22H23N3O4
Exact mass: 393.1689
SMILES: COCCOC1=C(C=C2C(=C1)C(=NC=N2)NC3=CC=CC(=C3)C#C)OCCOC
InChI: InChI=1S/C22H23N3O4/c1-4-16-6-5-7-17(12-16)25-22-18-13-20(28-10-8-26-2)21(29-11-9-27-3)14-19(18)23-15-24-22/h1,5-7,12-15H,8-11H2,2-3H3,(H,23,24,25)
Instrument: TripleTOF 5600 SCIEX
Instrument type: LC-ESI-QTOF
Ms type: MS2
Ion mode: POSITIVE
Collision energy: 60
Fragmentation mode: CID
Ionization: ESI
Column name: Zorbax Eclipse Plus C18 2.1 mm x 150 mm, 3.5 um, Agilent
Retention time: 7.429 min
Precursor m/z: 394.1761
Precursor type: [M+H]+
m/z	relative intensity
59.0494	13
91.0542	27
96.0447	13
101.0391	46
106.0288	10
109.029	16
116.0496	12
117.0577	19
118.0659	37
124.0398	10
128.0504	18
136.0404	33
143.0614	30
151.0522	33
161.036	101
162.0401	10
177.0564	12
178.066	28
181.0772	10
193.0767	16
195.0925	28
204.0686	12
205.0777	79
206.0622	68
207.0804	45
215.0608	11
220.0882	69
221.0743	11
221.0962	10
222.1034	30
223.0867	19
230.0738	21
231.0807	70
232.0879	46
233.0723	21
234.0667	12
235.0759	14
237.0672	55
238.075	22
247.0758	13
248.0837	93
249.0915	12
250.0989	96
251.083	39
259.0751	21
260.0829	69
261.068	49
276.0783	393
277.0843	151
278.0937	999
290.0929	24
304.1097	56
