Mass spectrum: Bexarotene; LC-ESI-QTOF; MS2; 110 V
Name: Bexarotene
Class: Pharmaceutical
Formula: C24H28O2
Exact mass: 348.2089
SMILES: Cc1cc2c(cc1C(=C)c3ccc(cc3)C(O)=O)C(C)(C)CCC2(C)C
InChI: InChI=1S/C24H28O2/c1-15-13-20-21(24(5,6)12-11-23(20,3)4)14-19(15)16(2)17-7-9-18(10-8-17)22(25)26/h7-10,13-14H,2,11-12H2,1,3-6H3,(H,25,26)
Instrument: TripleTOF 5600 SCIEX
Instrument type: LC-ESI-QTOF
Ms type: MS2
Ion mode: POSITIVE
Collision energy: 110
Fragmentation mode: CID
Ionization: ESI
Column name: Zorbax Eclipse Plus C18 2.1 mm x 150 mm, 3.5 um, Agilent
Retention time: 17.591 min
Precursor m/z: 349.2162
Precursor type: [M+H]+
m/z	relative intensity
77.0412	999
91.0591	237
115.0533	618
127.0498	285
128.0624	570
141.0698	475
151.056	285
152.0616	761
153.0691	618
165.0685	666
189.0708	856
202.0758	666
215.0843	761
228.0888	237
