Mass spectrum: Pendimethalin; LC-ESI-QTOF; MS2; 80 V
Name: Pendimethalin
Class: Herbicide
Formula: C13H19N3O4
Exact mass: 281.1376
SMILES: CCC(CC)Nc1c(cc(c(c1[N+](=O)[O-])C)C)[N+](=O)[O-]
InChI: InChI=1S/C13H19N3O4/c1-5-10(6-2)14-12-11(15(17)18)7-8(3)9(4)13(12)16(19)20/h7,10,14H,5-6H2,1-4H3
Instrument: TripleTOF 6600 SCIEX
Instrument type: LC-ESI-QTOF
Ms type: MS2
Ion mode: POSITIVE
Collision energy: 80
Fragmentation mode: CID
Ionization: ESI
Column name: Zorbax Eclipse Plus C18 2.1 mm x 150 mm, 3.5 um, Agilent
Retention time: 16.198 min
Precursor m/z: 282.1448
Precursor type: [M+H]+
m/z	relative intensity
37.0082	38
38.0029	28
38.0158	57
39.0234	389
41.0393	374
42.0345	43
43.0189	24
43.0547	201
49.0077	28
50.0157	211
51.0235	441
52.0189	115
52.0309	52
53.0137	33
53.0266	28
53.039	144
54.034	76
55.0545	24
62.0153	52
63.0235	365
64.0186	72
64.0309	100
65.0276	38
65.039	999
66.0341	158
66.0477	96
67.0421	43
67.0549	48
68.0135	24
74.016	24
75.0236	110
76.0188	105
76.0308	144
77.0259	33
77.0388	657
78.0345	316
78.0465	33
79.03	19
79.0413	38
79.0547	38
80.0495	110
89.039	360
90.034	100
90.046	62
91.0424	115
91.0546	268
92.0248	28
92.0494	374
93.0455	33
93.0583	110
94.0653	38
95.0492	38
102.0338	148
103.0277	57
103.0418	72
103.0539	28
104.0501	158
105.045	292
106.0653	33
116.0495	105
117.045	24
117.0577	43
118.0539	62
118.0656	100
119.0612	297
120.0196	19
120.0437	33
129.0452	48
130.0402	105
147.0563	48
148.0637	24
