Mass spectrum: Clindamycin; LC-ESI-QTOF; MS2; 120 V
Name: Clindamycin
Class: Antimicrobial; Pharmaceutical
Formula: C18H33ClN2O5S
Exact mass: 424.1799
SMILES: CCCC1CC(N(C1)C)C(=O)NC(C2C(C(C(C(O2)SC)O)O)O)C(C)Cl
InChI: InChI=1S/C18H33ClN2O5S/c1-5-6-10-7-11(21(3)8-10)17(25)20-12(9(2)19)16-14(23)13(22)15(24)18(26-16)27-4/h9-16,18,22-24H,5-8H2,1-4H3,(H,20,25)
Instrument: TripleTOF 5600 SCIEX
Instrument type: LC-ESI-QTOF
Ms type: MS2
Ion mode: POSITIVE
Collision energy: 120
Fragmentation mode: CID
Ionization: ESI
Column name: Zorbax Eclipse Plus C18 2.1 mm x 150 mm, 3.5 um, Agilent
Retention time: 6.261 min
Precursor m/z: 425.1871
Precursor type: [M+H]+
m/z	relative intensity
42.0464	336
44.0593	57
56.0589	18
57.0661	15
58.0731	60
65.0447	21
67.048	84
67.059	93
68.0559	408
69.0629	15
69.0747	151
70.0706	435
77.0456	21
79.0573	15
80.0542	45
81.0601	30
81.0767	12
82.0687	999
83.0768	378
84.0833	93
93.0705	18
94.0666	36
95.0879	39
96.0825	193
97.0917	48
98.096	15
124.1112	69
126.1277	929
