Mass spectrum: Parathion; LC-ESI-QTOF; MS2; 50 V
Name: Parathion
Class: Insecticide
Formula: C10H14NO5PS
Exact mass: 291.033
SMILES: CCOP(=S)(OCC)Oc1ccc(cc1)[N+](=O)[O-]
InChI: InChI=1S/C10H14NO5PS/c1-3-14-17(18,15-4-2)16-10-7-5-9(6-8-10)11(12)13/h5-8H,3-4H2,1-2H3
Instrument: TripleTOF 5600 SCIEX
Instrument type: LC-ESI-QTOF
Ms type: MS2
Ion mode: POSITIVE
Collision energy: 50
Fragmentation mode: CID
Ionization: ESI
Column name: Zorbax Eclipse Plus C18 2.1 mm x 150 mm, 3.5 um, Agilent
Retention time: 14.107 min
Precursor m/z: 292.0403
Precursor type: [M+H]+
m/z	relative intensity
65.0421	60
66.0495	86
75.0259	111
78.9415	43
92.0264	60
93.0333	103
93.054	51
94.0418	999
94.0718	51
96.9514	439
100.0064	43
109.0098	86
110.0179	594
121.0383	51
122.0212	43
123.0309	697
125.0044	60
139.0102	77
140.0338	94
150.0296	43
154.9695	120
155.9955	232
171.9728	206
184.9871	68
