Mass spectrum: Metazachlor; LC-ESI-QTOF; MS2; 130 V
Name: Metazachlor
Class: Herbicide
Formula: C14H16ClN3O
Exact mass: 277.0982
SMILES: Cc1cccc(C)c1N(Cn2cccn2)C(=O)CCl
InChI: InChI=1S/C14H16ClN3O/c1-11-5-3-6-12(2)14(11)18(13(19)9-15)10-17-8-4-7-16-17/h3-8H,9-10H2,1-2H3
Instrument: TripleTOF 5600 SCIEX
Instrument type: LC-ESI-QTOF
Ms type: MS2
Ion mode: POSITIVE
Collision energy: 130
Fragmentation mode: CID
Ionization: ESI
Column name: Zorbax Eclipse Plus C18 2.1 mm x 150 mm, 3.5 um, Agilent
Retention time: 11.114 min
Precursor m/z: 278.1055
Precursor type: [M+H]+
m/z	relative intensity
53.0428	18
64.0358	14
65.0428	89
74.019	18
76.9905	11
77.0417	999
78.0493	32
79.0566	98
89.0404	396
90.047	166
91.0539	103
102.0471	25
103.0539	110
105.0424	11
105.07	28
116.0496	21
117.0578	178
130.0654	32
