Mass spectrum: Flutamide; LC-ESI-QTOF; MS2; 100 V
Name: Flutamide
Class: Pharmaceutical
Formula: C11H11F3N2O3
Exact mass: 276.0722
SMILES: CC(C)C(=O)NC1=CC(=C(C=C1)[N+](=O)[O-])C(F)(F)F
InChI: InChI=1S/C11H11F3N2O3/c1-6(2)10(17)15-7-3-4-9(16(18)19)8(5-7)11(12,13)14/h3-6H,1-2H3,(H,15,17)
Instrument: TripleTOF 6600 SCIEX
Instrument type: LC-ESI-QTOF
Ms type: MS2
Ion mode: POSITIVE
Collision energy: 100
Fragmentation mode: CID
Ionization: ESI
Column name: Zorbax Eclipse Plus C18 2.1 mm x 150 mm, 3.5 um, Agilent
Retention time: 12.297 min
Precursor m/z: 277.0795
Precursor type: [M+H]+
m/z	relative intensity
37.0057	109
37.0126	13
38.0019	109
38.0148	109
39.0101	13
39.0226	807
40.0075	13
41.0382	999
43.0535	369
51.0029	27
52.0047	13
52.0183	27
53.0126	41
53.0385	13
57.0128	82
60.9849	13
64.0307	54
65.0351	27
65.0414	27
68.9921	13
73.0051	13
74.0131	82
75.0035	54
75.0213	177
77.0403	13
83.0271	123
84.0369	109
88.0102	109
89.019	13
91.0409	41
92.0496	27
93.0153	27
95.0276	82
99.0039	27
99.0155	13
100.0143	41
100.0218	27
101.0289	13
102.0311	41
102.0499	27
111.0463	68
113.0184	54
113.0236	27
114.0259	136
115.0557	54
120.0208	27
125.0192	27
126.0405	27
132.0183	41
133.0471	13
141.0246	13
141.0646	13
142.0468	68
160.0377	13
