Mass spectrum: Progesterone; LC-ESI-QTOF; MS2; 80 V
Name: Progesterone
Class: Pharmaceutical
Formula: C21H30O2
Exact mass: 314.2246
SMILES: CC(=O)[C@H]1CC[C@H]2[C@@H]3CCC4=CC(=O)CC[C@]4(C)[C@H]3CC[C@]12C
InChI: InChI=1S/C21H30O2/c1-13(22)17-6-7-18-16-5-4-14-12-15(23)8-10-20(14,2)19(16)9-11-21(17,18)3/h12,16-19H,4-11H2,1-3H3/t16-,17+,18-,19-,20-,21+/m0/s1
Instrument: TripleTOF 5600 SCIEX
Instrument type: LC-ESI-QTOF
Ms type: MS2
Ion mode: POSITIVE
Collision energy: 80
Fragmentation mode: CID
Ionization: ESI
Column name: Zorbax Eclipse Plus C18 2.1 mm x 150 mm, 3.5 um, Agilent
Retention time: 13.796 min
Precursor m/z: 315.2319
Precursor type: [M+H]+
m/z	relative intensity
43.0275	288
43.0531	10
51.0277	26
53.0441	68
55.0236	115
55.0602	76
57.0384	20
65.0427	157
66.0493	18
67.0585	220
69.0397	18
69.0726	68
71.0536	10
77.0423	686
79.0572	999
80.0658	10
81.0345	34
81.0723	411
82.0452	18
83.0508	41
83.0642	13
91.056	490
93.0722	76
94.041	44
95.0518	18
95.0862	68
97.0657	736
103.0537	62
105.0692	167
107.0484	44
107.0852	13
108.0565	23
109.0652	587
109.1044	10
115.0537	115
116.0631	31
117.0703	52
119.0844	55
121.0636	20
123.0794	62
127.0527	23
128.0615	125
129.0692	73
130.079	26
131.084	18
133.0983	10
141.0686	39
142.0793	26
143.0836	13
152.0622	15
153.0694	28
155.0854	18
165.0701	13
167.0864	10
169.0988	10
