Mass spectrum: Methadone; LC-ESI-QTOF; MS2; 35 V
Name: Methadone
Class: Pharmaceutical
Formula: C21H27NO
Exact mass: 309.2093
SMILES: CCC(=O)C(CC(C)N(C)C)(C1=CC=CC=C1)C2=CC=CC=C2
InChI: InChI=1S/C21H27NO/c1-5-20(23)21(16-17(2)22(3)4,18-12-8-6-9-13-18)19-14-10-7-11-15-19/h6-15,17H,5,16H2,1-4H3
Instrument: TripleTOF 5600 SCIEX
Instrument type: LC-ESI-QTOF
Ms type: MS2
Ion mode: POSITIVE
Collision energy: 35
Fragmentation mode: CID
Ionization: ESI
Column name: Zorbax Eclipse Plus C18 2.1 mm x 150 mm, 3.5 um, Agilent
Retention time: 8.79 min
Precursor m/z: 310.2166
Precursor type: [M+H]+
m/z	relative intensity
50.0147	0
51.0212	1
53.0398	0
55.053	0
57.0327	389
58.0356	0
59.0502	0
65.0373	0
67.0552	0
69.0352	2
72.0832	0
77.0389	129
78.0445	0
79.0533	1
81.0699	0
85.0617	0
91.0534	286
92.0562	0
95.0501	2
103.0567	0
105.03	522
106.0372	1
107.0492	1
115.0562	2
117.0676	219
118.0736	0
119.0881	2
127.0593	0
128.0648	1
129.07	62
130.0792	0
131.088	11
133.0695	0
135.0834	7
141.0731	3
142.0743	0
143.088	13
144.0602	0
145.0674	24
146.0645	0
147.0833	7
152.0632	10
153.0701	2
154.0803	5
155.0844	2
156.0918	0
157.1025	0
158.0739	5
159.0815	34
159.1147	207
160.1208	0
161.092	1
165.0736	41
166.079	3
167.0875	172
168.0844	0
169.1038	22
170.1067	0
172.0918	0
173.0986	0
177.215	0
178.0812	36
178.2216	0
179.0902	20
180.092	1
181.1017	0
187.116	34
190.16	0
191.0884	69
194.0754	50
194.1749	0
195.1182	669
196.127	0
202.0794	49
203.0899	151
204.0922	667
205.1024	251
207.1194	18
217.1032	59
218.1118	385
219.1171	999
223.1109	773
224.1221	5
232.1274	43
236.1221	35
247.152	92
265.1619	424
