Mass spectrum: Nifedipine; LC-ESI-QTOF; MS2; 70 V
Name: Nifedipine
Class: Pharmaceutical
Formula: C17H18N2O6
Exact mass: 346.1165
SMILES: CC1=C(C(C(=C(N1)C)C(=O)OC)C2=CC=CC=C2[N+](=O)[O-])C(=O)OC
InChI: InChI=1S/C17H18N2O6/c1-9-13(16(20)24-3)15(14(10(2)18-9)17(21)25-4)11-7-5-6-8-12(11)19(22)23/h5-8,15,18H,1-4H3
Instrument: TripleTOF 5600 SCIEX
Instrument type: LC-ESI-QTOF
Ms type: MS2
Ion mode: POSITIVE
Collision energy: 70
Fragmentation mode: CID
Ionization: ESI
Column name: Zorbax Eclipse Plus C18 2.1 mm x 150 mm, 3.5 um, Agilent
Retention time: 10.896 min
Precursor m/z: 347.1238
Precursor type: [M+H]+
m/z	relative intensity
42.0474	12
65.0457	12
75.0285	13
77.0438	46
89.043	55
91.0589	15
92.0534	10
93.0612	10
101.0421	33
102.0499	20
103.0581	15
113.041	28
114.047	47
115.0572	416
116.0518	81
117.059	48
125.0401	58
126.0486	79
127.0561	295
128.0595	323
129.0676	104
130.0669	45
139.0559	204
140.0519	330
141.0679	197
142.0661	111
143.0411	12
143.0744	67
144.0454	44
149.0484	12
150.0477	15
151.0555	90
152.054	356
153.0596	242
154.0326	13
154.0665	363
155.0693	129
156.0605	17
156.0799	24
157.0738	13
164.0516	21
165.0608	35
166.066	608
167.0736	999
168.0804	625
169.0554	11
169.0774	107
170.0611	50
170.0962	11
177.0571	19
178.0663	67
179.0611	410
180.0737	256
181.0771	272
182.0848	93
183.0928	94
184.0755	16
185.0699	14
191.0623	28
192.0689	384
193.077	953
194.0841	336
195.0919	836
196.0775	45
196.0986	24
197.0764	38
198.0913	72
208.0734	68
209.075	51
210.0909	67
211.0863	38
221.0713	105
223.0866	223
224.069	20
225.0783	22
226.0874	97
236.0705	10
238.0754	15
239.0815	54
253.0967	54
254.1025	17
