Mass spectrum: 6PPD-quinone; LC-ESI-QTOF; MS2; 50 V
Name: 6PPD-quinone
Class: Industrial_process
Formula: C18H22N2O2
Exact mass: 298.1681
SMILES: CC(C)CC(C)NC1=CC(=O)C(=CC1=O)NC2=CC=CC=C2
InChI: InChI=1S/C18H22N2O2/c1-12(2)9-13(3)19-15-10-18(22)16(11-17(15)21)20-14-7-5-4-6-8-14/h4-8,10-13,19-20H,9H2,1-3H3
Instrument: TripleTOF 6600 SCIEX
Instrument type: LC-ESI-QTOF
Ms type: MS2
Ion mode: POSITIVE
Collision energy: 50
Fragmentation mode: CID
Ionization: ESI
Column name: Zorbax Eclipse Plus C18 2.1 mm x 150 mm, 3.5 um, Agilent
Retention time: 13.951 min
Precursor m/z: 299.1754
Precursor type: [M+H]+
m/z	relative intensity
41.0384	29
43.0546	50
55.018	25
57.07	21
77.0384	61
84.0436	54
93.0573	54
94.0646	39
104.0488	101
110.0472	18
111.055	14
115.0535	65
116.0474	18
117.057	21
117.0693	21
118.0643	72
120.0802	32
128.0494	25
130.0647	25
139.0502	18
140.0487	14
142.065	90
143.0723	29
144.0432	21
144.0806	79
145.0749	21
146.0596	108
148.038	47
154.0644	43
155.0664	25
158.0824	25
159.0913	39
170.0591	130
172.0749	90
182.0589	32
186.09	18
187.0859	624
198.0532	25
199.0622	18
200.0699	123
201.0775	21
213.0641	18
213.1006	18
214.0772	69
215.081	29
216.0875	65
226.0722	72
227.0794	54
241.0969	999
256.119	14
