Mass spectrum: Citalopram-N-oxide; LC-ESI-QTOF; MS2; 30 V
Name: Citalopram-N-oxide
Class: Metabolite; Pharmaceutical; Transformation_product
Formula: C20H21FN2O2
Exact mass: 340.1587
SMILES: C[N+](C)(CCCC1(C2=C(CO1)C=C(C=C2)C#N)C3=CC=C(C=C3)F)[O-]
InChI: InChI=1S/C20H21FN2O2/c1-23(2,24)11-3-10-20(17-5-7-18(21)8-6-17)19-9-4-15(13-22)12-16(19)14-25-20/h4-9,12H,3,10-11,14H2,1-2H3
Instrument: TripleTOF 5600 SCIEX
Instrument type: LC-ESI-QTOF
Ms type: MS2
Ion mode: POSITIVE
Collision energy: 30
Fragmentation mode: CID
Ionization: ESI
Column name: Zorbax Eclipse Plus C18 2.1 mm x 150 mm, 3.5 um, Agilent
Retention time: 7.958 min
Precursor m/z: 341.166
Precursor type: [M+H]+
m/z	relative intensity
109.046	589
116.0502	131
123.0244	28
144.0447	14
156.0811	43
166.0658	97
184.0766	12
215.0861	11
221.0639	51
222.0714	19
227.0736	23
234.0719	199
235.0916	44
236.0867	13
238.0668	24
242.0965	57
246.0748	11
247.0797	105
260.0882	19
262.1033	999
280.1142	95
341.1673	85
