Mass spectrum: N-[4-(1H-benzimidazol-2-yl)phenyl]-N,N-dimethylamine; LC-ESI-QTOF; MS2; 50 V
Name: N-[4-(1H-benzimidazol-2-yl)phenyl]-N,N-dimethylamine
Class: Pharmaceutical
Formula: C15H15N3
Exact mass: 237.1266
SMILES: CN(C)C1=CC=C(C=C1)C2=NC3=CC=CC=C3N2
InChI: InChI=1S/C15H15N3/c1-18(2)12-9-7-11(8-10-12)15-16-13-5-3-4-6-14(13)17-15/h3-10H,1-2H3,(H,16,17)
Instrument: TripleTOF 5600 SCIEX
Instrument type: LC-ESI-QTOF
Ms type: MS2
Ion mode: POSITIVE
Collision energy: 50
Fragmentation mode: CID
Ionization: ESI
Column name: Zorbax Eclipse Plus C18 2.1 mm x 150 mm, 3.5 um, Agilent
Retention time: 6.517 min
Precursor m/z: 238.1339
Precursor type: [M+H]+
m/z	relative intensity
65.0462	41
92.0531	86
145.0767	52
146.0846	12
167.0725	10
192.0683	12
193.0761	159
194.0837	432
195.0919	80
206.0839	17
221.0938	20
222.102	999
223.1075	21
238.1328	41
