Mass spectrum: Metolachlor; LC-ESI-QTOF; MS2; 110 V
Name: Metolachlor
Class: Herbicide
Formula: C15H22ClNO2
Exact mass: 283.1339
SMILES: CCc1cccc(C)c1N(C(C)COC)C(=O)CCl
InChI: InChI=1S/C15H22ClNO2/c1-5-13-8-6-7-11(2)15(13)17(14(18)9-16)12(3)10-19-4/h6-8,12H,5,9-10H2,1-4H3
Instrument: TripleTOF 5600 SCIEX
Instrument type: LC-ESI-QTOF
Ms type: MS2
Ion mode: POSITIVE
Collision energy: 110
Fragmentation mode: CID
Ionization: ESI
Column name: Zorbax Eclipse Plus C18 2.1 mm x 150 mm, 3.5 um, Agilent
Retention time: 13.304 min
Precursor m/z: 284.1412
Precursor type: [M+H]+
m/z	relative intensity
45.0411	190
48.991	172
51.0289	249
52.0358	13
62.0308	11
65.0425	653
66.0495	84
67.0425	11
73.0667	31
74.0186	13
75.0248	20
76.0338	13
77.0411	999
78.0361	31
78.0487	154
79.0562	102
80.0512	13
89.0395	263
90.047	127
90.0629	11
91.0556	853
92.0497	20
93.0581	261
94.0402	11
101.0373	29
102.0463	79
103.0543	320
104.0494	61
104.0612	24
105.0688	40
106.0645	181
107.0726	15
113.0398	11
114.0453	15
115.0539	515
116.056	79
117.0575	397
118.0644	165
119.0709	27
120.0793	13
127.0542	40
128.0491	54
128.0603	45
129.0564	29
130.0648	694
130.0937	13
131.0728	52
132.0809	47
140.0508	11
141.0581	20
142.0644	68
143.0727	111
144.0805	161
146.0616	13
154.0644	11
156.0803	15
