Mass spectrum: Omeprazole; LC-ESI-QTOF; MS2; 110 V
Name: Omeprazole
Class: Pharmaceutical
Formula: C17H19N3O3S
Exact mass: 345.1147
SMILES: COc1ccc2nc([nH]c2c1)[S](=O)Cc3ncc(C)c(OC)c3C
InChI: InChI=1S/C17H19N3O3S/c1-10-8-18-15(11(2)16(10)23-4)9-24(21)17-19-13-6-5-12(22-3)7-14(13)20-17/h5-8H,9H2,1-4H3,(H,19,20)
Instrument: TripleTOF 5600 SCIEX
Instrument type: LC-ESI-QTOF
Ms type: MS2
Ion mode: POSITIVE
Collision energy: 110
Fragmentation mode: CID
Ionization: ESI
Column name: Zorbax Eclipse Plus C18 2.1 mm x 150 mm, 3.5 um, Agilent
Retention time: 6.462 min
Precursor m/z: 346.122
Precursor type: [M+H]+
m/z	relative intensity
42.0449	32
52.037	10
53.0468	60
65.0451	254
66.0531	84
67.047	43
67.0594	122
68.0575	19
68.9837	19
77.0435	778
78.0383	103
79.0583	567
80.0539	155
81.0738	73
81.9897	34
82.9888	15
82.9998	10
91.0561	215
92.0525	371
93.061	379
94.0677	107
103.0558	36
104.0504	75
105.0531	105
106.0662	863
107.074	317
108.0821	999
108.999	94
110.0075	49
111.0262	12
117.0558	23
118.0643	58
119.0734	25
120.0817	990
121.0884	304
122.0089	17
122.0974	621
123.0139	30
134.0076	10
134.0508	58
134.0948	19
135.059	12
136.0217	371
136.0766	327
136.9936	17
137.0299	30
138.0397	15
150.0355	12
150.0911	131
152.0178	19
164.0174	38
165.0245	97
166.0319	38
168.0696	15
180.051	17
