Mass spectrum: Desmethylranitidine; LC-ESI-QTOF; MS2; 100 V
Name: Desmethylranitidine
Class: Pharmaceutical; Transformation_product; Transformation_product-Metabolite
Formula: C12H20N4O3S
Exact mass: 300.1256
SMILES: CNCC1=CC=C(O1)CSCCNC(=C[N+](=O)[O-])NC
InChI: InChI=1S/C12H20N4O3S/c1-13-7-10-3-4-11(19-10)9-20-6-5-15-12(14-2)8-16(17)18/h3-4,8,13-15H,5-7,9H2,1-2H3
Instrument: TripleTOF 5600 SCIEX
Instrument type: LC-ESI-QTOF
Ms type: MS2
Ion mode: NEGATIVE
Collision energy: 100
Fragmentation mode: CID
Ionization: ESI
Column name: Zorbax Eclipse Plus C18 2.1 mm x 150 mm, 3.5 um, Agilent
Retention time: 4.769 min
Precursor m/z: 299.1183
Precursor type: [M-H]-
m/z	relative intensity
40.0098	133
40.0172	66
41.9993	266
45.9952	999
55.0297	133
56.9803	133
60.0084	932
76.97	133
84.9731	66
108.0441	133
110.9879	199
112.0006	199
116.0454	133
