Mass spectrum: Metaflumizone; LC-ESI-QTOF; MS2; 100 V
Name: Metaflumizone
Class: Insecticide; Pharmaceutical
Formula: C24H16F6N4O2
Exact mass: 506.1177
SMILES: C1=CC(=CC(=C1)C(F)(F)F)C(=NNC(=O)NC2=CC=C(C=C2)OC(F)(F)F)CC3=CC=C(C=C3)C#N
InChI: InChI=1S/C24H16F6N4O2/c25-23(26,27)18-3-1-2-17(13-18)21(12-15-4-6-16(14-31)7-5-15)33-34-22(35)32-19-8-10-20(11-9-19)36-24(28,29)30/h1-11,13H,12H2,(H2,32,34,35)
Instrument: TripleTOF 6600 SCIEX
Instrument type: LC-ESI-QTOF
Ms type: MS2
Ion mode: POSITIVE
Collision energy: 100
Fragmentation mode: CID
Ionization: ESI
Column name: Zorbax Eclipse Plus C18 2.1 mm x 150 mm, 3.5 um, Agilent
Retention time: 15.496 min
Precursor m/z: 507.125
Precursor type: [M+H]+
m/z	relative intensity
39.023	17
61.0076	18
62.0146	34
63.0226	109
64.0193	12
65.0385	158
66.0459	31
68.994	40
74.0145	20
75.0226	62
77.038	12
80.0489	59
81.0567	18
83.0293	10
88.0303	32
89.0385	959
90.0339	48
90.046	32
91.0553	14
92.0492	174
93.0348	12
93.0571	316
95.0289	75
99.0232	25
108.044	92
109.0455	29
113.0255	10
114.0334	90
115.0414	122
116.0493	611
119.0282	14
123.035	26
124.0185	15
125.0173	12
127.0389	21
129.0436	18
140.0369	17
140.0484	18
141.0441	14
142.0516	42
144.0234	25
145.0253	67
147.033	17
149.0212	15
149.0385	14
151.0355	59
152.0292	10
152.0599	12
159.0403	17
163.054	72
164.0293	32
164.0588	75
165.0694	26
169.0435	15
172.0342	65
173.0368	34
174.0335	18
175.0513	23
176.0308	26
176.0586	29
177.0399	18
177.0682	17
178.0474	58
182.0518	12
183.0591	45
187.0353	10
188.0482	39
189.0568	59
190.0651	999
191.0721	128
192.0372	20
192.0681	23
192.0796	12
193.0436	120
194.0483	42
195.0444	10
199.0405	40
200.0484	174
201.0567	50
202.066	26
203.0724	79
204.0785	14
205.0388	10
208.0557	47
212.0428	45
213.0499	32
214.058	23
215.0595	37
216.068	92
217.0753	148
218.0388	14
218.083	233
219.0474	153
220.0551	164
221.0584	58
222.0454	10
225.0501	12
226.0494	39
227.0615	45
228.0558	50
232.0509	50
233.0559	69
238.0464	21
239.0542	205
240.0612	51
245.0529	34
246.0583	92
247.066	194
250.0476	29
252.0614	34
253.0557	21
257.0411	14
258.0516	36
259.0588	10
265.0566	59
266.0648	29
267.0728	61
270.0509	29
286.0713	67
287.0795	15
