Mass spectrum: Sotalol; LC-ESI-QTOF; MS2; 60 V
Name: Sotalol
Class: Pharmaceutical
Formula: C12H20N2O3S
Exact mass: 272.1195
SMILES: CC(C)NCC(C1=CC=C(C=C1)NS(=O)(=O)C)O
InChI: InChI=1S/C12H20N2O3S/c1-9(2)13-8-12(15)10-4-6-11(7-5-10)14-18(3,16)17/h4-7,9,12-15H,8H2,1-3H3
Instrument: TripleTOF 5600 SCIEX
Instrument type: LC-ESI-QTOF
Ms type: MS2
Ion mode: POSITIVE
Collision energy: 60
Fragmentation mode: CID
Ionization: ESI
Column name: Zorbax Eclipse Plus C18 2.1 mm x 150 mm, 3.5 um, Agilent
Retention time: 4.583 min
Precursor m/z: 273.1267
Precursor type: [M+H]+
m/z	relative intensity
67.0494	15
77.043	105
78.0379	13
79.0588	204
80.054	63
81.0619	19
89.0419	56
90.0498	21
91.0564	32
92.0505	16
93.0607	34
104.051	14
106.0671	999
107.0744	236
116.0505	224
117.0588	151
118.0656	112
119.0608	60
131.063	19
132.0691	167
133.0772	737
134.0857	38
