Mass spectrum: Rhein; LC-ESI-QTOF; MS2; 80 V
Name: Rhein
Class: Metabolite
Formula: C15H8O6
Exact mass: 284.0321
SMILES: C1=CC2=C(C(=C1)O)C(=O)C3=C(C=C(C=C3C2=O)C(=O)O)O
InChI: InChI=1S/C15H8O6/c16-9-3-1-2-7-11(9)14(19)12-8(13(7)18)4-6(15(20)21)5-10(12)17/h1-5,16-17H,(H,20,21)
Instrument: TripleTOF 5600 SCIEX
Instrument type: LC-ESI-QTOF
Ms type: MS2
Ion mode: POSITIVE
Collision energy: 80
Fragmentation mode: CID
Ionization: ESI
Column name: Zorbax Eclipse Plus C18 2.1 mm x 150 mm, 3.5 um, Agilent
Retention time: 10.796 min
Precursor m/z: 285.0394
Precursor type: [M+H]+
m/z	relative intensity
39.0227	69
51.0234	108
63.0219	128
65.038	356
75.0226	197
77.0385	999
81.034	108
87.0243	118
89.0375	158
93.0326	118
101.0393	257
102.0466	79
103.0533	89
105.0329	59
109.0295	49
111.0251	69
113.0389	148
115.0543	187
119.0095	59
121.0271	59
125.0385	79
126.0462	603
127.0546	909
128.0625	652
131.049	59
137.0381	336
138.0445	128
139.0541	731
155.0484	356
