Mass spectrum: Losartan carboxylic acid; LC-ESI-QTOF; MS2; 80 V
Name: Losartan carboxylic acid
Class: Pharmaceutical; Transformation_product-Metabolite
Formula: C22H21ClN6O2
Exact mass: 436.1415
SMILES: CCCCc1nc(Cl)c(n1Cc2ccc(cc2)c3ccccc3c4n[nH]nn4)C(O)=O
InChI: InChI=1S/C22H21ClN6O2/c1-2-3-8-18-24-20(23)19(22(30)31)29(18)13-14-9-11-15(12-10-14)16-6-4-5-7-17(16)21-25-27-28-26-21/h4-7,9-12H,2-3,8,13H2,1H3,(H,30,31)(H,25,26,27,28)
Instrument: TripleTOF 5600 SCIEX
Instrument type: LC-ESI-QTOF
Ms type: MS2
Ion mode: POSITIVE
Collision energy: 80
Fragmentation mode: CID
Ionization: ESI
Column name: Zorbax Eclipse Plus C18 2.1 mm x 150 mm, 3.5 um, Agilent
Retention time: 10.786 min
Precursor m/z: 437.1487
Precursor type: [M+H]+
m/z	relative intensity
77.0406	101
80.0514	22
113.0379	14
115.0539	41
127.0537	83
128.0564	32
129.0475	12
138.046	22
139.0538	26
140.049	136
141.0637	27
150.0458	21
151.0539	285
152.0623	866
153.0697	492
154.065	42
157.0529	13
162.0451	10
163.0546	278
164.0562	148
165.0646	207
166.0648	49
167.0724	47
168.0675	32
176.062	57
177.0671	175
178.0761	761
179.0733	231
180.0805	472
181.0763	19
185.0467	41
188.0496	18
189.0567	75
190.0653	999
191.0706	203
192.068	346
205.0762	826
206.0838	260
207.0906	41
