Mass spectrum: 1-(o-Tolyl)-biguanide; LC-ESI-QTOF; MS2; 50 V
Name: 1-(o-Tolyl)-biguanide
Class: Industrial_process
Formula: C9H13N5
Exact mass: 191.1171
SMILES: Cc1ccccc1N=C(N)N=C(N)N
InChI: InChI=1S/C9H13N5/c1-6-4-2-3-5-7(6)13-9(12)14-8(10)11/h2-5H,1H3,(H6,10,11,12,13,14)
Instrument: TripleTOF 5600 SCIEX
Instrument type: LC-ESI-QTOF
Ms type: MS2
Ion mode: POSITIVE
Collision energy: 50
Fragmentation mode: CID
Ionization: ESI
Column name: Zorbax Eclipse Plus C18 2.1 mm x 150 mm, 3.5 um, Agilent
Retention time: 4.675 min
Precursor m/z: 192.1244
Precursor type: [M+H]+
m/z	relative intensity
43.0388	300
51.0287	11
60.0613	483
65.0433	358
68.0282	49
77.0414	163
78.0364	23
79.0571	174
85.0521	24
89.0403	463
90.0364	33
91.0555	997
92.0495	11
93.0586	309
104.0496	67
105.0574	12
106.0653	999
108.0807	97
114.0334	22
116.0494	814
117.057	75
118.0521	145
131.0599	74
132.0679	126
133.0758	174
141.0443	15
