Mass spectrum: Pyrimethanil; LC-ESI-QTOF; MS2; 110 V
Name: Pyrimethanil
Class: Fungicide
Formula: C12H13N3
Exact mass: 199.1109
SMILES: CC1=CC(=NC(=N1)NC2=CC=CC=C2)C
InChI: InChI=1S/C12H13N3/c1-9-8-10(2)14-12(13-9)15-11-6-4-3-5-7-11/h3-8H,1-2H3,(H,13,14,15)
Instrument: TripleTOF 6600 SCIEX
Instrument type: LC-ESI-QTOF
Ms type: MS2
Ion mode: POSITIVE
Collision energy: 110
Fragmentation mode: CID
Ionization: ESI
Column name: Zorbax Eclipse Plus C18 2.1 mm x 150 mm, 3.5 um, Agilent
Retention time: 9.225 min
Precursor m/z: 200.1182
Precursor type: [M+H]+
m/z	relative intensity
35.9995	37
37.0072	138
38.0027	15
38.0151	82
39.023	277
40.018	26
41.0253	41
42.0337	386
49.007	153
50.0151	999
51.0228	957
52.018	33
53.0379	30
61.0068	48
62.0146	97
63.0228	131
64.0177	22
65.0378	63
66.0337	15
67.0285	52
67.0403	18
73.0067	15
74.0144	146
75.022	63
76.0175	18
77.0382	52
86.0148	33
87.0221	30
89.0375	22
113.0368	22
