Mass spectrum: L-Thyronine; LC-ESI-QTOF; MS2; 60 V
Name: L-Thyronine
Class: Pharmaceutical
Formula: C15H15NO4
Exact mass: 273.1001
SMILES: N[C@@H](Cc1ccc(Oc2ccc(O)cc2)cc1)C(O)=O
InChI: InChI=1S/C15H15NO4/c16-14(15(18)19)9-10-1-5-12(6-2-10)20-13-7-3-11(17)4-8-13/h1-8,14,17H,9,16H2,(H,18,19)/t14-/m0/s1
Instrument: TripleTOF 5600 SCIEX
Instrument type: LC-ESI-QTOF
Ms type: MS2
Ion mode: POSITIVE
Collision energy: 60
Fragmentation mode: CID
Ionization: ESI
Column name: Zorbax Eclipse Plus C18 2.1 mm x 150 mm, 3.5 um, Agilent
Retention time: 5.619 min
Precursor m/z: 274.1074
Precursor type: [M+H]+
m/z	relative intensity
39.0227	12
53.0384	31
63.0228	9
65.0383	157
66.0465	70
77.0389	65
79.0543	19
81.0334	390
91.0546	230
92.0624	43
93.034	21
93.0582	29
94.0415	470
102.0458	24
103.0539	43
104.049	128
107.0519	21
109.0284	259
110.037	21
115.0542	157
117.0569	41
118.0653	999
119.0491	12
119.0734	385
127.0528	9
128.063	36
139.0558	9
141.0693	123
152.0611	26
153.0714	29
164.0639	21
165.0696	82
168.0574	38
169.061	16
181.0656	31
183.0808	9
194.0743	16
