Mass spectrum: 6PPD-quinone; LC-ESI-QTOF; MS2; 90 V
Name: 6PPD-quinone
Class: Industrial_process
Formula: C18H22N2O2
Exact mass: 298.1681
SMILES: CC(C)CC(C)NC1=CC(=O)C(=CC1=O)NC2=CC=CC=C2
InChI: InChI=1S/C18H22N2O2/c1-12(2)9-13(3)19-15-10-18(22)16(11-17(15)21)20-14-7-5-4-6-8-14/h4-8,10-13,19-20H,9H2,1-3H3
Instrument: TripleTOF 6600 SCIEX
Instrument type: LC-ESI-QTOF
Ms type: MS2
Ion mode: POSITIVE
Collision energy: 90
Fragmentation mode: CID
Ionization: ESI
Column name: Zorbax Eclipse Plus C18 2.1 mm x 150 mm, 3.5 um, Agilent
Retention time: 13.951 min
Precursor m/z: 299.1754
Precursor type: [M+H]+
m/z	relative intensity
39.0232	92
41.0391	153
50.0158	107
51.0229	276
54.0333	76
65.0386	122
68.0128	153
77.0383	999
82.0525	169
89.0375	153
90.0459	92
91.0537	292
93.0575	122
101.0399	61
103.0536	76
104.0494	107
105.0441	61
115.0534	384
116.048	76
117.0564	122
127.0535	184
128.0493	153
130.0645	61
140.0475	92
143.073	76
