Mass spectrum: Budesonide; LC-ESI-QTOF; MS2; 120 V
Name: Budesonide
Class: Pharmaceutical
Formula: C25H34O6
Exact mass: 430.2355
SMILES: CCC[C@@H]1O[C@@H]2C[C@H]3[C@@H]4CCC5=CC(=O)C=C[C@]5(C)[C@H]4[C@@H](O)C[C@]3(C)[C@@]2(O1)C(=O)CO
InChI: InChI=1S/C25H34O6/c1-4-5-21-30-20-11-17-16-7-6-14-10-15(27)8-9-23(14,2)22(16)18(28)12-24(17,3)25(20,31-21)19(29)13-26/h8-10,16-18,20-22,26,28H,4-7,11-13H2,1-3H3/t16-,17-,18-,20+,21+,22+,23-,24-,25+/m0/s1
Instrument: TripleTOF 5600 SCIEX
Instrument type: LC-ESI-QTOF
Ms type: MS2
Ion mode: POSITIVE
Collision energy: 120
Fragmentation mode: CID
Ionization: ESI
Column name: Zorbax Eclipse Plus C18 2.1 mm x 150 mm, 3.5 um, Agilent
Retention time: 11.041 min
Precursor m/z: 431.2428
Precursor type: [M+H]+
m/z	relative intensity
65.0415	147
77.0403	982
78.0488	81
79.0561	98
91.0548	884
102.0485	98
103.0537	262
105.0691	147
107.0487	114
115.0537	999
116.0617	131
117.072	98
119.0856	65
121.0633	278
127.0535	294
128.0613	769
129.0688	327
131.0474	376
131.078	65
132.056	212
141.0688	245
144.0562	114
145.0635	98
151.0539	196
152.0618	540
153.0693	262
157.0621	212
158.0745	180
164.0625	180
165.069	753
167.084	81
171.0803	65
176.0599	163
177.0659	131
178.0772	491
179.0818	81
181.0629	262
189.069	589
190.0773	180
191.0859	196
194.072	81
195.0773	147
201.0724	81
202.0757	376
203.086	98
205.0651	147
213.0718	98
215.0873	245
229.1014	114
231.0795	114
