Mass spectrum: Metaflumizone; LC-ESI-QTOF; MS2; 150 V
Name: Metaflumizone
Class: Insecticide; Pharmaceutical
Formula: C24H16F6N4O2
Exact mass: 506.1177
SMILES: C1=CC(=CC(=C1)C(F)(F)F)C(=NNC(=O)NC2=CC=C(C=C2)OC(F)(F)F)CC3=CC=C(C=C3)C#N
InChI: InChI=1S/C24H16F6N4O2/c25-23(26,27)18-3-1-2-17(13-18)21(12-15-4-6-16(14-31)7-5-15)33-34-22(35)32-19-8-10-20(11-9-19)36-24(28,29)30/h1-11,13H,12H2,(H2,32,34,35)
Instrument: TripleTOF 6600 SCIEX
Instrument type: LC-ESI-QTOF
Ms type: MS2
Ion mode: NEGATIVE
Collision energy: 150
Fragmentation mode: CID
Ionization: ESI
Column name: Zorbax Eclipse Plus C18 2.1 mm x 150 mm, 3.5 um, Agilent
Retention time: 15.496 min
Precursor m/z: 505.1105
Precursor type: [M-H]-
m/z	relative intensity
41.9976	378
64.018	275
73.0057	137
84.9889	413
88.0184	172
90.0328	275
97.0073	482
114.0339	206
115.0293	999
117.0453	654
127.0289	137
139.0303	206
141.0452	930
165.0445	447
189.0439	172
215.0593	241
225.0449	206
