Mass spectrum: 3,4-Methylenedioxy-N-ethylamphetamine; LC-ESI-QTOF; MS2; 130 V
Name: 3,4-Methylenedioxy-N-ethylamphetamine
Class: Pharmaceutical
Formula: C12H17NO2
Exact mass: 207.1259
SMILES: CCNC(C)CC1=CC2=C(C=C1)OCO2
InChI: InChI=1S/C12H17NO2/c1-3-13-9(2)6-10-4-5-11-12(7-10)15-8-14-11/h4-5,7,9,13H,3,6,8H2,1-2H3
Instrument: TripleTOF 6600 SCIEX
Instrument type: LC-ESI-QTOF
Ms type: MS2
Ion mode: POSITIVE
Collision energy: 130
Fragmentation mode: CID
Ionization: ESI
Column name: Zorbax Eclipse Plus C18 2.1 mm x 150 mm, 3.5 um, Agilent
Retention time: 5.673 min
Precursor m/z: 208.1332
Precursor type: [M+H]+
m/z	relative intensity
35.9997	42
37.0072	181
38.0032	19
38.0146	129
39.0227	244
49.0069	181
50.015	999
51.0227	718
53.0021	13
59.9991	27
61.0065	110
62.0147	175
63.0224	152
73.0068	26
74.0143	94
75.0228	12
77.0378	57
89.0369	26
