Mass spectrum: Chlorfenvinfos; LC-ESI-QTOF; MS2; 130 V
Name: Chlorfenvinfos
Class: Insecticide
Formula: C12H14Cl3O4P
Exact mass: 357.9695
SMILES: CCOP(=O)(OCC)OC(=CCl)C1=C(C=C(C=C1)Cl)Cl
InChI: InChI=1S/C12H14Cl3O4P/c1-3-17-20(16,18-4-2)19-12(8-13)10-6-5-9(14)7-11(10)15/h5-8H,3-4H2,1-2H3
Instrument: TripleTOF 6600 SCIEX
Instrument type: LC-ESI-QTOF
Ms type: MS2
Ion mode: POSITIVE
Collision energy: 130
Fragmentation mode: CID
Ionization: ESI
Column name: Zorbax Eclipse Plus C18 2.1 mm x 150 mm, 3.5 um, Agilent
Retention time: 13.629 min
Precursor m/z: 358.9768
Precursor type: [M+H]+
m/z	relative intensity
46.9651	10
50.0131	11
51.0204	11
61.0049	26
62.0125	24
62.9609	147
73.0048	42
74.0128	204
75.0204	52
80.9713	246
83.9744	35
84.9816	21
97.0047	108
98.0128	999
98.9822	19
99.0206	412
100.0273	18
107.9733	92
108.9815	78
133.9892	10
134.9962	38
169.9647	17
