Mass spectrum: Hydroquinone; LC-ESI-QTOF; MS2; 30 V
Name: Hydroquinone
Formula: C6H6O2
Exact mass: 110.0368
SMILES: C1=CC(=CC=C1O)O
InChI: InChI=1S/C6H6O2/c7-5-1-2-6(8)4-3-5/h1-4,7-8H
Instrument: TripleTOF 5600 SCIEX
Instrument type: LC-ESI-QTOF
Ms type: MS2
Ion mode: POSITIVE
Collision energy: 30
Fragmentation mode: CID
Ionization: ESI
Column name: Zorbax Eclipse Plus C18 2.1 mm x 150 mm, 3.5 um, Agilent
Retention time: 3.674 min
Precursor m/z: 111.0441
Precursor type: [M+H]+
m/z	relative intensity
37.0142	24
39.0313	216
53.0455	24
55.0597	66
56.0285	33
65.0433	999
81.038	24
82.0396	49
83.0473	41
93.0357	141
94.0436	33
110.0384	66
111.0449	116
