Mass spectrum: Codeinone; LC-ESI-QTOF; MS2; 40 V
Name: Codeinone
Class: Pharmaceutical
Formula: C18H19NO3
Exact mass: 297.1365
SMILES: CN1CCC23C4C1CC5=C2C(=C(C=C5)OC)OC3C(=O)C=C4
InChI: InChI=1S/C18H19NO3/c1-19-8-7-18-11-4-5-13(20)17(18)22-16-14(21-2)6-3-10(15(16)18)9-12(11)19/h3-6,11-12,17H,7-9H2,1-2H3
Instrument: TripleTOF 5600 SCIEX
Instrument type: LC-ESI-QTOF
Ms type: MS2
Ion mode: POSITIVE
Collision energy: 40
Fragmentation mode: CID
Ionization: ESI
Column name: Zorbax Eclipse Plus C18 2.1 mm x 150 mm, 3.5 um, Agilent
Retention time: 5.057 min
Precursor m/z: 298.1438
Precursor type: [M+H]+
m/z	relative intensity
44.0611	26
55.0272	34
58.0742	250
91.0588	13
115.0555	13
127.0562	17
128.0652	26
129.0699	27
137.0595	48
139.0536	17
140.0639	22
141.0692	61
142.0781	12
144.0554	43
148.0754	17
151.0538	17
152.0617	78
153.0697	440
154.0785	35
155.054	17
155.0855	87
156.0575	16
157.0655	12
159.0827	21
161.0589	15
165.0692	250
166.0773	16
167.0869	34
168.057	124
169.0656	39
170.0728	68
171.0804	147
175.0768	16
177.0687	20
178.0755	36
179.0859	94
180.0572	39
180.0909	11
181.0645	656
182.0726	53
183.0425	45
183.0791	178
184.0507	16
185.0609	76
185.0965	90
186.0685	35
187.0754	34
189.0688	45
190.0782	16
191.0851	15
193.0644	53
194.0735	16
195.08	143
196.0496	109
196.0876	30
197.0598	73
197.0878	10
198.0669	222
199.0751	341
205.0637	27
206.0721	26
207.0798	139
208.0524	134
208.0898	35
209.0597	145
209.0961	25
210.0663	143
211.074	535
211.1106	13
212.084	50
213.0898	293
217.0654	22
218.0696	24
219.0803	20
221.0623	29
221.0991	12
222.071	16
223.0736	310
224.048	30
224.0813	44
225.0526	97
225.0877	15
226.0612	63
227.0747	10
227.0993	16
228.1052	15
234.0657	31
234.0894	10
235.0725	35
236.0821	16
237.0538	113
237.0905	48
238.0609	11
238.1173	16
239.0694	703
240.0795	45
241.0845	859
248.1062	13
252.0774	41
253.0871	21
254.1111	36
255.0965	24
265.1058	19
266.1165	31
267.1054	43
268.0991	19
282.1061	29
283.1191	36
298.1432	999
