Mass spectrum: Gemfibrozil; LC-ESI-QTOF; MS2; 40 V
Name: Gemfibrozil
Class: Pharmaceutical
Formula: C15H22O3
Exact mass: 250.1569
SMILES: CC1=CC(=C(C=C1)C)OCCCC(C)(C)C(=O)O
InChI: InChI=1S/C15H22O3/c1-11-6-7-12(2)13(10-11)18-9-5-8-15(3,4)14(16)17/h6-7,10H,5,8-9H2,1-4H3,(H,16,17)
Instrument: TripleTOF 6600 SCIEX
Instrument type: LC-ESI-QTOF
Ms type: MS2
Ion mode: NEGATIVE
Collision energy: 40
Fragmentation mode: CID
Ionization: ESI
Column name: Zorbax Eclipse Plus C18 2.1 mm x 150 mm, 3.5 um, Agilent
Retention time: 13.701 min
Precursor m/z: 249.1508
Precursor type: [M-H]-
m/z	relative intensity
106.0427	8
120.0569	9
121.0674	999
