Mass spectrum: Tepraloxydim; LC-ESI-QTOF; MS2; 120 V
Name: Tepraloxydim
Class: Herbicide
Formula: C17H24ClNO4
Exact mass: 341.1394
SMILES: CCC(=NOCC=CCl)C1=C(CC(CC1=O)C2CCOCC2)O
InChI: InChI=1S/C17H24ClNO4/c1-2-14(19-23-7-3-6-18)17-15(20)10-13(11-16(17)21)12-4-8-22-9-5-12/h3,6,12-13,20H,2,4-5,7-11H2,1H3
Instrument: TripleTOF 6600 SCIEX
Instrument type: LC-ESI-QTOF
Ms type: MS2
Ion mode: POSITIVE
Collision energy: 120
Fragmentation mode: CID
Ionization: ESI
Column name: Zorbax Eclipse Plus C18 2.1 mm x 150 mm, 3.5 um, Agilent
Retention time: 12.248 min
Precursor m/z: 342.1467
Precursor type: [M+H]+
m/z	relative intensity
37.0067	82
38.0143	90
39.0222	396
41.0254	74
41.0378	189
42.0327	165
43.0169	132
44.012	82
46.967	82
48.9828	371
49.0062	49
50.0141	231
51.022	544
53.0013	49
53.0375	173
54.0326	107
55.0166	57
55.0527	82
56.0481	115
63.0212	74
65.0378	478
66.0328	107
66.0451	66
67.0401	115
67.0535	49
68.0115	74
68.0479	132
68.9956	33
70.0644	33
74.9982	107
77.0373	999
78.0322	57
78.0449	82
79.053	107
80.0485	198
81.0322	49
82.0638	49
89.0374	115
90.0452	41
91.0529	346
92.0475	41
93.0559	99
94.0641	90
96.0431	107
98.0593	41
102.045	57
103.0516	107
104.0491	41
105.0436	41
106.0631	57
115.0529	173
116.0596	41
117.0559	57
118.0637	41
127.0516	41
128.0594	99
130.0635	57
