Mass spectrum: Chloridazone-methyl-desphenyl; LC-ESI-QTOF; MS2; 60 V
Name: Chloridazone-methyl-desphenyl
Class: Herbicide; Transformation_product; Transformation_product-Metabolite
Formula: C5H6ClN3O
Exact mass: 159.0199
SMILES: CN1C(=O)C(=C(C=N1)N)Cl
InChI: InChI=1S/C5H6ClN3O/c1-9-5(10)4(6)3(7)2-8-9/h2H,7H2,1H3
Instrument: TripleTOF 6600 SCIEX
Instrument type: LC-ESI-QTOF
Ms type: MS2
Ion mode: POSITIVE
Collision energy: 60
Fragmentation mode: CID
Ionization: ESI
Column name: Zorbax Eclipse Plus C18 2.1 mm x 150 mm, 3.5 um, Agilent
Retention time: 4.787 min
Precursor m/z: 160.0272
Precursor type: [M+H]+
m/z	relative intensity
40.0166	142
41.0261	142
42.0331	142
51.0119	142
52.0171	999
53.0169	142
53.024	570
54.0319	285
66.0205	142
71.9737	142
73.9763	142
87.993	713
88.9965	570
