Mass spectrum: Sulfadimethoxine; LC-ESI-QTOF; MS2; 110 V
Name: Sulfadimethoxine
Class: Pharmaceutical
Formula: C12H14N4O4S
Exact mass: 310.0736
SMILES: COC1=NC(=NC(=C1)NS(=O)(=O)C2=CC=C(C=C2)N)OC
InChI: InChI=1S/C12H14N4O4S/c1-19-11-7-10(14-12(15-11)20-2)16-21(17,18)9-5-3-8(13)4-6-9/h3-7H,13H2,1-2H3,(H,14,15,16)
Instrument: TripleTOF 5600 SCIEX
Instrument type: LC-ESI-QTOF
Ms type: MS2
Ion mode: POSITIVE
Collision energy: 110
Fragmentation mode: CID
Ionization: ESI
Column name: Zorbax Eclipse Plus C18 2.1 mm x 150 mm, 3.5 um, Agilent
Retention time: 8.09 min
Precursor m/z: 311.0809
Precursor type: [M+H]+
m/z	relative intensity
37.0079	49
38.0153	42
39.0233	299
40.0184	31
41.0261	11
42.0341	27
43.029	16
44.0139	20
52.0185	20
53.039	151
54.0342	35
56.0506	12
57.0444	18
58.0286	20
63.0225	42
64.0174	12
64.0304	11
65.0145	14
65.039	999
66.0213	27
66.034	68
67.0061	16
67.0297	212
68.0134	118
68.0369	11
69.0087	62
69.0448	12
69.9924	9
77.0138	14
78.0229	11
78.035	12
79.0303	11
80.0501	505
81.0447	27
82.0291	96
85.0392	9
90.0338	27
91.0429	33
92.0504	129
93.0573	22
95.023	11
108.0442	79
109.043	11
110.0335	16
111.0183	16
117.0456	14
