Mass spectrum: 10,11-Dihydro-10,11-epoxycarbamazepine; LC-ESI-QTOF; MS2; 140 V
Name: 10,11-Dihydro-10,11-epoxycarbamazepine
Class: Metabolite
Formula: C15H12N2O2
Exact mass: 252.0899
SMILES: C1=CC=C2C(=C1)C3C(O3)C4=CC=CC=C4N2C(=O)N
InChI: InChI=1S/C15H12N2O2/c16-15(18)17-11-7-3-1-5-9(11)13-14(19-13)10-6-2-4-8-12(10)17/h1-8,13-14H,(H2,16,18)
Instrument: TripleTOF 5600 SCIEX
Instrument type: LC-ESI-QTOF
Ms type: MS2
Ion mode: POSITIVE
Collision energy: 140
Fragmentation mode: CID
Ionization: ESI
Column name: Zorbax Eclipse Plus C18 2.1 mm x 150 mm, 3.5 um, Agilent
Retention time: 7.593 min
Precursor m/z: 253.0972
Precursor type: [M+H]+
m/z	relative intensity
37.0072	21
39.023	57
44.013	35
49.0071	53
50.015	316
51.0229	485
52.031	21
59.9989	28
61.0069	179
62.0149	215
63.0224	438
64.0175	25
65.0383	43
73.0069	107
74.0147	999
75.0224	718
76.0179	46
76.0299	229
77.0382	485
78.0451	61
85.0066	125
86.0147	294
87.0223	276
88.0176	39
88.0297	46
89.0382	244
97.0071	68
98.0145	549
99.022	355
100.0301	100
101.0382	136
102.0338	32
102.0451	158
109.0059	35
110.0141	132
111.0213	79
113.0384	154
114.0342	28
115.0554	28
122.0138	86
123.0207	71
124.0307	71
125.038	172
126.0452	337
127.0403	28
127.0523	64
128.0516	50
137.0366	71
138.0464	14
139.0534	86
140.0481	57
149.0364	118
150.0458	826
151.053	495
152.0593	226
153.0551	35
161.0383	57
162.0436	39
163.055	86
164.05	43
175.0386	64
176.049	79
177.057	161
178.0662	107
179.0748	17
188.0486	21
189.0576	25
