Mass spectrum: Diazepam; LC-ESI-QTOF; MS2; 100 V
Name: Diazepam
Class: Pharmaceutical
Formula: C16H13ClN2O
Exact mass: 284.0716
SMILES: CN1C(=O)CN=C(C2=C1C=CC(=C2)Cl)C3=CC=CC=C3
InChI: InChI=1S/C16H13ClN2O/c1-19-14-8-7-12(17)9-13(14)16(18-10-15(19)20)11-5-3-2-4-6-11/h2-9H,10H2,1H3
Instrument: TripleTOF 6600 SCIEX
Instrument type: LC-ESI-QTOF
Ms type: MS2
Ion mode: POSITIVE
Collision energy: 100
Fragmentation mode: CID
Ionization: ESI
Column name: Zorbax Eclipse Plus C18 2.1 mm x 150 mm, 3.5 um, Agilent
Retention time: 11.181 min
Precursor m/z: 285.0789
Precursor type: [M+H]+
m/z	relative intensity
37.0068	21
38.0148	18
39.0227	101
50.0147	45
51.0227	155
59.9989	14
61.0068	49
62.0145	104
63.0223	308
64.0302	26
65.0382	163
72.9836	129
73.0059	31
74.0143	139
75.0223	209
76.0189	15
76.0298	30
77.0383	267
78.0328	12
78.0447	18
84.9832	18
86.0139	13
87.0217	26
88.0179	14
88.0301	26
89.0383	999
90.0457	154
91.0536	200
96.9837	13
98.014	18
99.0047	205
100.0177	312
101.0374	27
102.0346	69
103.0396	12
104.0489	44
108.9827	17
109.9915	15
110.9988	77
112.0058	12
113.0385	34
114.0339	33
115.0534	176
116.0484	127
117.0564	90
118.0649	58
122.9993	36
124.0001	11
125.0142	12
125.0375	42
126.0457	61
127.0526	50
128.0509	29
128.0614	11
130.0416	12
135.9943	52
137.0026	13
137.0386	25
138.0087	26
138.0441	18
139.0053	12
139.054	173
140.0479	47
142.0519	22
143.0605	24
149.0383	49
150.046	276
151.0535	433
152.0615	343
153.0575	52
161.037	12
162.0463	38
163.0051	13
163.0537	413
164.0015	44
164.0608	300
165.0698	412
166.0646	20
167.0738	11
175.0443	36
176.0595	164
177.0573	261
178.0653	335
179.0719	145
180.081	14
188.0495	41
189.0573	19
190.0649	104
191.072	70
192.0787	25
193.0894	13
201.0569	11
202.0604	24
203.0665	52
204.0682	39
205.0765	149
213.0329	32
239.0376	15
