Mass spectrum: Cyproterone; LC-ESI-QTOF; MS2; 70 V
Name: Cyproterone
Class: Pharmaceutical
Formula: C22H27ClO3
Exact mass: 374.1649
SMILES: CC(=O)C1(CCC2C1(CCC3C2C=C(C4=CC(=O)C5CC5C34C)Cl)C)O
InChI: InChI=1S/C22H27ClO3/c1-11(24)22(26)7-5-14-12-9-18(23)17-10-19(25)13-8-16(13)21(17,3)15(12)4-6-20(14,22)2/h9-10,12-16,26H,4-8H2,1-3H3
Instrument: TripleTOF 5600 SCIEX
Instrument type: LC-ESI-QTOF
Ms type: MS2
Ion mode: POSITIVE
Collision energy: 70
Fragmentation mode: CID
Ionization: ESI
Column name: Zorbax Eclipse Plus C18 2.1 mm x 150 mm, 3.5 um, Agilent
Retention time: 11.881 min
Precursor m/z: 375.1721
Precursor type: [M+H]+
m/z	relative intensity
43.0178	510
55.0533	79
59.0499	90
65.0394	68
67.0553	90
77.0387	374
79.0541	295
81.0697	90
83.0491	56
87.0439	56
91.0538	999
93.069	204
94.0396	56
95.0474	45
95.0836	68
103.0549	147
105.0705	726
107.0497	90
107.0858	102
109.0634	56
111.0812	113
115.0534	510
116.061	158
117.0696	340
119.0854	261
121.063	79
121.0971	56
127.055	261
128.0617	613
129.0691	454
130.0773	147
131.0478	113
131.0844	204
133.0623	56
133.1018	158
139.0298	56
141.0697	851
142.0766	544
143.0868	295
144.0576	136
145.0636	158
145.0994	79
146.0735	56
152.0623	238
153.0701	499
154.0778	181
155.0859	351
156.095	113
157.0633	170
157.0988	79
158.0686	68
159.0853	79
165.0688	919
166.0785	317
167.0858	465
168.0606	68
168.0939	136
169.0648	227
169.0993	158
170.0731	68
171.0786	136
171.1188	56
175.0299	56
178.0765	533
179.0847	771
180.0924	204
181.065	170
181.0986	295
182.0707	56
183.0784	136
183.1168	68
185.1369	56
189.0713	261
190.0782	181
191.0254	56
191.0843	578
192.0934	283
193.1014	431
194.0715	113
194.1126	79
195.0821	249
195.1163	158
196.0882	56
197.0991	68
201.0699	45
202.0736	295
203.0843	510
204.0942	181
205.0421	90
205.1008	397
206.1092	136
207.0784	158
207.1168	215
208.0871	192
208.1091	79
209.0955	136
209.1366	68
211.1033	56
213.0518	45
215.0855	295
216.0899	215
217.1035	272
218.1057	136
219.0789	79
219.1163	227
220.0831	90
220.1229	56
221.0952	283
221.1277	102
222.0953	56
223.1186	68
223.1336	45
229.1007	204
230.1078	136
231.068	45
231.1147	181
232.093	68
233.0964	192
233.1322	102
234.1008	113
235.1159	181
235.1482	56
239.0874	68
243.1107	56
245.0962	79
245.1295	147
247.1097	124
248.119	113
249.1263	56
249.1411	45
259.1124	45
261.1616	45
263.1468	158
277.1274	56
