Mass spectrum: Nilotinib; LC-ESI-QTOF; MS2; 90 V
Name: Nilotinib
Class: Pharmaceutical
Formula: C28H22F3N7O
Exact mass: 529.1838
SMILES: Cc1cn(cn1)c2cc(NC(=O)c3ccc(C)c(Nc4nccc(n4)c5cccnc5)c3)cc(c2)C(F)(F)F
InChI: InChI=1S/C28H22F3N7O/c1-17-5-6-19(10-25(17)37-27-33-9-7-24(36-27)20-4-3-8-32-14-20)26(39)35-22-11-21(28(29,30)31)12-23(13-22)38-15-18(2)34-16-38/h3-16H,1-2H3,(H,35,39)(H,33,36,37)
Instrument: TripleTOF 5600 SCIEX
Instrument type: LC-ESI-QTOF
Ms type: MS2
Ion mode: NEGATIVE
Collision energy: 90
Fragmentation mode: CID
Ionization: ESI
Column name: Zorbax Eclipse Plus C18 2.1 mm x 150 mm, 3.5 um, Agilent
Retention time: 8.404 min
Precursor m/z: 528.1765
Precursor type: [M-H]-
m/z	relative intensity
42.0029	131
81.0476	315
116.0526	78
130.053	52
130.0669	105
131.0626	78
144.0614	105
151.0309	157
153.0431	131
155.0479	236
157.0782	78
158.0261	78
160.038	105
163.0363	78
171.0684	657
172.0444	78
176.027	52
178.0422	157
179.0315	131
180.0565	105
184.0006	52
185.0372	131
187.0475	157
193.0567	289
193.074	52
196.0405	105
198.0427	289
199.0336	262
211.0116	157
211.0534	52
212.0296	52
213.0633	446
218.0587	184
219.04	78
223.04	236
224.0186	131
224.0422	52
239.0375	157
240.0738	999
266.0517	157
