Mass spectrum: Metoxuron; LC-ESI-QTOF; MS2; 80 V
Name: Metoxuron
Class: Herbicide
Formula: C10H13ClN2O2
Exact mass: 228.0666
SMILES: CN(C)C(=O)NC1=CC(=C(C=C1)OC)Cl
InChI: InChI=1S/C10H13ClN2O2/c1-13(2)10(14)12-7-4-5-9(15-3)8(11)6-7/h4-6H,1-3H3,(H,12,14)
Instrument: TripleTOF 6600 SCIEX
Instrument type: LC-ESI-QTOF
Ms type: MS2
Ion mode: POSITIVE
Collision energy: 80
Fragmentation mode: CID
Ionization: ESI
Column name: Zorbax Eclipse Plus C18 2.1 mm x 150 mm, 3.5 um, Agilent
Retention time: 8.249 min
Precursor m/z: 229.0738
Precursor type: [M+H]+
m/z	relative intensity
30.0328	106
42.0328	85
46.0641	276
50.0144	127
51.0216	233
52.0172	318
56.0122	276
63.0218	85
72.0429	999
80.0116	191
