Mass spectrum: N-Ethylcyclohexylamine; LC-ESI-QTOF; MS2; 50 V
Name: N-Ethylcyclohexylamine
Formula: C8H17N
Exact mass: 127.1361
SMILES: CCNC1CCCCC1
InChI: InChI=1S/C8H17N/c1-2-9-8-6-4-3-5-7-8/h8-9H,2-7H2,1H3
Instrument: TripleTOF 6600 SCIEX
Instrument type: LC-ESI-QTOF
Ms type: MS2
Ion mode: POSITIVE
Collision energy: 50
Fragmentation mode: CID
Ionization: ESI
Column name: Zorbax Eclipse Plus C18 2.1 mm x 150 mm, 3.5 um, Agilent
Retention time: 4.828 min
Precursor m/z: 128.1434
Precursor type: [M+H]+
m/z	relative intensity
35.9996	16
37.0081	150
38.0025	37
38.015	150
39.0236	999
41.0393	464
43.054	14
46.0654	27
53.0136	11
53.0386	58
55.0546	657
