Mass spectrum: Disperse Yellow 9; LC-ESI-QTOF; MS2; 40 V
Name: Disperse Yellow 9
Formula: C12H10N4O4
Exact mass: 274.0702
SMILES: C1=CC(=CC=C1N)NC2=C(C=C(C=C2)[N+](=O)[O-])[N+](=O)[O-]
InChI: InChI=1S/C12H10N4O4/c13-8-1-3-9(4-2-8)14-11-6-5-10(15(17)18)7-12(11)16(19)20/h1-7,14H,13H2
Instrument: TripleTOF X500R SCIEX
Instrument type: LC-ESI-QTOF
Ms type: MS2
Ion mode: NEGATIVE
Collision energy: 40
Fragmentation mode: CID
Ionization: ESI
Column name: Zorbax Eclipse Plus C18 2.1 mm x 150 mm, 3.5 um, Agilent
Retention time: 9.832 min
Precursor m/z: 273.0629
Precursor type: [M-H]-
m/z	relative intensity
45.9935	222
118.0304	74
157.077	172
167.0129	111
180.0638	148
181.0661	86
185.0708	98
195.0609	86
196.0663	320
209.0665	61
212.0574	160
213.0423	86
213.0722	123
225.0579	86
226.0639	999
242.0574	382
243.0706	98
255.0597	74
273.0629	345
273.0896	49
