Mass spectrum: Propamocarb; LC-ESI-QTOF; MS2; 80 V
Name: Propamocarb
Class: Fungicide
Formula: C9H20N2O2
Exact mass: 188.1525
SMILES: CCCOC(=O)NCCCN(C)C
InChI: InChI=1S/C9H20N2O2/c1-4-8-13-9(12)10-6-5-7-11(2)3/h4-8H2,1-3H3,(H,10,12)
Instrument: TripleTOF 6600 SCIEX
Instrument type: LC-ESI-QTOF
Ms type: MS2
Ion mode: POSITIVE
Collision energy: 80
Fragmentation mode: CID
Ionization: ESI
Column name: Zorbax Eclipse Plus C18 2.1 mm x 150 mm, 3.5 um, Agilent
Retention time: 4.882 min
Precursor m/z: 189.1598
Precursor type: [M+H]+
m/z	relative intensity
30.0342	339
35.9988	45
37.0088	210
38.0031	54
38.0151	137
39.0232	806
41.0388	384
42.0343	999
43.0419	403
44.0491	155
44.9974	229
46.0661	64
56.0128	45
56.0503	45
58.0653	247
