Mass spectrum: Metamitron; LC-ESI-QTOF; MS2; 60 V
Name: Metamitron
Class: Herbicide
Formula: C10H10N4O
Exact mass: 202.0855
SMILES: CC1=NN=C(c2ccccc2)C(=O)N1N
InChI: InChI=1S/C10H10N4O/c1-7-12-13-9(10(15)14(7)11)8-5-3-2-4-6-8/h2-6H,11H2,1H3
Instrument: TripleTOF 5600 SCIEX
Instrument type: LC-ESI-QTOF
Ms type: MS2
Ion mode: POSITIVE
Collision energy: 60
Fragmentation mode: CID
Ionization: ESI
Column name: Zorbax Eclipse Plus C18 2.1 mm x 150 mm, 3.5 um, Agilent
Retention time: 6.783 min
Precursor m/z: 203.0927
Precursor type: [M+H]+
m/z	relative intensity
42.044	536
43.0497	16
44.0579	12
55.0356	10
56.0173	10
57.0514	25
59.0341	10
65.0439	25
76.0349	10
77.0414	999
79.0561	12
83.0268	12
89.0397	76
91.0432	49
103.0438	18
104.0497	640
105.0477	10
118.0534	18
