Mass spectrum: Pantoprazole sulfide; LC-ESI-QTOF; MS2; 120 V
Name: Pantoprazole sulfide
Class: Pharmaceutical; Metabolite
Formula: C16H15F2N3O3S
Exact mass: 367.0802
SMILES: COC1=C(C(=NC=C1)CSC2=NC3=C(N2)C=CC(=C3)OC(F)F)OC
InChI: InChI=1S/C16H15F2N3O3S/c1-22-13-5-6-19-12(14(13)23-2)8-25-16-20-10-4-3-9(24-15(17)18)7-11(10)21-16/h3-7,15H,8H2,1-2H3,(H,20,21)
Instrument: TripleTOF 5600 SCIEX
Instrument type: LC-ESI-QTOF
Ms type: MS2
Ion mode: POSITIVE
Collision energy: 120
Fragmentation mode: CID
Ionization: ESI
Column name: Zorbax Eclipse Plus C18 2.1 mm x 150 mm, 3.5 um, Agilent
Retention time: 7.575 min
Precursor m/z: 368.0875
Precursor type: [M+H]+
m/z	relative intensity
42.0423	249
51.0305	985
52.0377	151
53.0445	32
65.0434	999
66.0154	65
67.0206	32
67.0453	32
68.0163	32
69.989	32
78.0369	78
79.0439	138
80.0519	157
81.0375	46
82.9953	32
90.0346	32
92.051	433
93.0585	52
94.0293	78
94.0689	65
94.996	26
96.0052	85
96.0444	52
107.0392	32
108.045	72
110.0062	118
110.0588	46
117.0458	26
118.0526	46
122.0059	46
122.06	46
123.0119	26
135.0544	52
136.0383	111
138.064	32
173.0573	26
