Mass spectrum: Oseltamivir carboxylic acid; LC-ESI-QTOF; MS2; 80 V
Name: Oseltamivir carboxylic acid
Class: Pharmaceutical; Metabolite; Transformation_product
Formula: C14H24N2O4
Exact mass: 284.1736
SMILES: CCC(CC)O[C@@H]1C=C(C[C@H](N)[C@H]1NC(C)=O)C(O)=O
InChI: InChI=1S/C14H24N2O4/c1-4-10(5-2)20-12-7-9(14(18)19)6-11(15)13(12)16-8(3)17/h7,10-13H,4-6,15H2,1-3H3,(H,16,17)(H,18,19)/t11-,12+,13+/m0/s1
Instrument: TripleTOF 5600 SCIEX
Instrument type: LC-ESI-QTOF
Ms type: MS2
Ion mode: POSITIVE
Collision energy: 80
Fragmentation mode: CID
Ionization: ESI
Column name: Zorbax Eclipse Plus C18 2.1 mm x 150 mm, 3.5 um, Agilent
Retention time: 5.65 min
Precursor m/z: 285.1809
Precursor type: [M+H]+
m/z	relative intensity
43.0245	63
53.0441	16
55.0603	20
65.0431	982
66.0492	26
67.046	53
67.0575	248
68.0549	33
77.0416	999
78.0371	30
80.052	222
81.0591	33
82.0672	111
92.0508	581
93.0336	90
93.0582	289
94.0661	353
102.0336	13
108.0683	13
109.0763	33
110.0594	47
119.0603	37
120.0447	195
