Mass spectrum: Phenacetin; LC-ESI-QTOF; MS2; 70 V
Name: Phenacetin
Class: Pharmaceutical
Formula: C10H13NO2
Exact mass: 179.0946
SMILES: CCOC1=CC=C(C=C1)NC(=O)C
InChI: InChI=1S/C10H13NO2/c1-3-13-10-6-4-9(5-7-10)11-8(2)12/h4-7H,3H2,1-2H3,(H,11,12)
Instrument: TripleTOF 5600 SCIEX
Instrument type: LC-ESI-QTOF
Ms type: MS2
Ion mode: POSITIVE
Collision energy: 70
Fragmentation mode: CID
Ionization: ESI
Column name: Zorbax Eclipse Plus C18 2.1 mm x 150 mm, 3.5 um, Agilent
Retention time: 7.622 min
Precursor m/z: 180.1019
Precursor type: [M+H]+
m/z	relative intensity
35.9992	18
37.0073	91
38.0151	64
39.0229	501
41.0264	11
42.0337	27
43.0179	448
44.0135	22
51.0227	32
53.0387	59
54.0339	20
55.0537	22
60.9861	13
65.0386	999
66.0466	108
67.0418	83
77.0392	28
78.0346	18
80.0496	397
81.0569	37
82.0644	16
92.0494	69
93.0339	40
93.0574	168
94.0417	18
108.0451	30
109.0522	100
