Mass spectrum: Ambroxol; LC-ESI-QTOF; MS2; 110 V
Name: Ambroxol
Class: Pharmaceutical
Formula: C13H18Br2N2O
Exact mass: 375.9786
SMILES: Nc1c(Br)cc(Br)cc1CNC2CCC(O)CC2
InChI: InChI=1S/C13H18Br2N2O/c14-9-5-8(13(16)12(15)6-9)7-17-10-1-3-11(18)4-2-10/h5-6,10-11,17-18H,1-4,7,16H2
Instrument: TripleTOF 5600 SCIEX
Instrument type: LC-ESI-QTOF
Ms type: MS2
Ion mode: POSITIVE
Collision energy: 110
Fragmentation mode: CID
Ionization: ESI
Column name: Zorbax Eclipse Plus C18 2.1 mm x 150 mm, 3.5 um, Agilent
Retention time: 6.498 min
Precursor m/z: 376.9859
Precursor type: [M+H]+
m/z	relative intensity
51.029	210
52.0243	21
53.0441	15
74.0189	33
75.0255	115
76.0208	27
76.0329	173
77.0412	999
77.0829	15
78.0363	164
79.0561	57
81.0714	85
102.0346	88
103.0415	261
104.0497	819
130.0386	21
154.9469	127
155.9561	79
181.9589	338
182.9678	76
261.8865	18
