Mass spectrum: Mefenpyr-diethyl; LC-ESI-QTOF; MS2; 90 V
Name: Mefenpyr-diethyl
Class: Herbicide
Formula: C16H18Cl2N2O4
Exact mass: 372.0644
SMILES: CCOC(=O)C1=NN(C(C1)(C)C(=O)OCC)C2=C(C=C(C=C2)Cl)Cl
InChI: InChI=1S/C16H18Cl2N2O4/c1-4-23-14(21)12-9-16(3,15(22)24-5-2)20(19-12)13-7-6-10(17)8-11(13)18/h6-8H,4-5,9H2,1-3H3
Instrument: TripleTOF 5600 SCIEX
Instrument type: LC-ESI-QTOF
Ms type: MS2
Ion mode: POSITIVE
Collision energy: 90
Fragmentation mode: CID
Ionization: ESI
Column name: Zorbax Eclipse Plus C18 2.1 mm x 150 mm, 3.5 um, Agilent
Retention time: 14.581 min
Precursor m/z: 373.0716
Precursor type: [M+H]+
m/z	relative intensity
72.9905	110
73.0127	12
74.0208	196
75.0287	23
82.9499	122
90.0393	20
96.9865	27
99.0031	35
101.0408	15
106.9461	45
108.9864	695
109.9937	23
111.001	10
114.0347	22
123.9971	39
125.0044	108
126.0374	18
127.0437	25
128.051	44
132.9625	999
136.0089	13
144.9622	457
147.9959	13
151.0194	35
153.0465	33
155.0623	44
156.9619	20
158.978	17
159.9719	36
160.9815	27
162.0124	18
163.0191	27
164.0272	61
172.9674	101
183.9735	12
185.9879	109
189.0227	144
190.0305	13
