Mass spectrum: Isopentyltriphenylphosphonium; LC-ESI-QTOF; MS2; 140 V
Name: Isopentyltriphenylphosphonium
Formula: [C23H26P]+
Exact mass: 333.1767
SMILES: CC(C)CC[P+](C1=CC=CC=C1)(C2=CC=CC=C2)C3=CC=CC=C3
InChI: InChI=1S/C23H26P/c1-20(2)18-19-24(21-12-6-3-7-13-21,22-14-8-4-9-15-22)23-16-10-5-11-17-23/h3-17,20H,18-19H2,1-2H3/q+1
Instrument: TripleTOF 6600 SCIEX
Instrument type: LC-ESI-QTOF
Ms type: MS2
Ion mode: POSITIVE
Collision energy: 140
Fragmentation mode: CID
Ionization: ESI
Column name: Zorbax Eclipse Plus C18 2.1 mm x 150 mm, 3.5 um, Agilent
Retention time: 9.314 min
Precursor m/z: 333.1767
Precursor type: [M]+
m/z	relative intensity
39.0217	130
50.0132	99
51.0208	84
55.9785	73
56.9866	171
61.0052	59
62.0129	111
63.0205	359
65.0361	152
74.0123	99
76.0274	93
77.0351	77
78.9693	67
79.9775	278
80.9854	349
86.0113	56
87.0188	101
89.0346	407
91.9771	54
98.0106	50
102.0424	150
103.9766	64
104.9849	57
107.0007	999
113.0343	154
115.0502	437
126.0427	417
131.0009	138
133.0163	77
139.0509	360
150.0431	415
151.0508	677
152.059	866
155.0016	116
156.0088	138
157.0168	498
179.0013	70
180.0091	115
181.0171	539
183.0331	80
224.0594	66
226.0749	79
255.033	60
