Mass spectrum: 3,6,9-Trioxaundecanedioic acid; LC-ESI-QTOF; MS2; 10 V
Name: 3,6,9-Trioxaundecanedioic acid
Formula: C8H14O7
Exact mass: 222.074
SMILES: C(COCC(=O)O)OCCOCC(=O)O
InChI: InChI=1S/C8H14O7/c9-7(10)5-14-3-1-13-2-4-15-6-8(11)12/h1-6H2,(H,9,10)(H,11,12)
Instrument: TripleTOF 6600 SCIEX
Instrument type: LC-ESI-QTOF
Ms type: MS2
Ion mode: NEGATIVE
Collision energy: 10
Fragmentation mode: CID
Ionization: ESI
Column name: Zorbax Eclipse Plus C18 2.1 mm x 150 mm, 3.5 um, Agilent
Retention time: 4.827 min
Precursor m/z: 221.0667
Precursor type: [M-H]-
m/z	relative intensity
119.0364	99
221.0702	999
