Mass spectrum: Azo Rubin S; LC-ESI-QTOF; MS2; 110 V
Name: Azo Rubin S
Formula: C20H14N2O7S2
Exact mass: 458.0242
SMILES: C1=CC=C2C(=C1)C(=CC=C2S(=O)(=O)O)N=NC3=C(C4=CC=CC=C4C(=C3)S(=O)(=O)O)O
InChI: InChI=1S/C20H14N2O7S2/c23-20-15-8-4-3-7-14(15)19(31(27,28)29)11-17(20)22-21-16-9-10-18(30(24,25)26)13-6-2-1-5-12(13)16/h1-11,23H,(H,24,25,26)(H,27,28,29)
Instrument: TripleTOF 6600 SCIEX
Instrument type: LC-ESI-QTOF
Ms type: MS2
Ion mode: POSITIVE
Collision energy: 110
Fragmentation mode: CID
Ionization: ESI
Column name: Zorbax Eclipse Plus C18 2.1 mm x 150 mm, 3.5 um, Agilent
Retention time: 7.286 min
Precursor m/z: 459.0315
Precursor type: [M+H]+
m/z	relative intensity
51.0227	41
52.018	134
63.0224	41
64.9691	32
65.0388	18
75.0222	30
77.0382	852
80.0131	148
89.038	334
91.0541	13
99.0215	25
100.0177	31
101.0373	30
102.0455	94
103.054	999
104.0488	81
105.0322	12
105.0427	14
113.038	52
114.0468	46
115.0536	978
116.0495	268
126.0316	15
127.0534	20
128.0479	38
130.0645	978
131.0504	17
140.0488	273
141.0581	16
142.0654	50
143.0741	37
158.06	66
213.0663	14
224.0636	18
226.0644	19
238.067	24
239.0699	10
240.0796	29
249.0537	10
250.0643	19
251.0731	80
252.0845	10
265.076	37
266.0835	70
267.086	10
277.079	26
278.0856	35
279.0932	34
