Mass spectrum: Metamitron; LC-ESI-QTOF; MS2; 30 V
Name: Metamitron
Class: Herbicide
Formula: C10H10N4O
Exact mass: 202.0855
SMILES: CC1=NN=C(c2ccccc2)C(=O)N1N
InChI: InChI=1S/C10H10N4O/c1-7-12-13-9(10(15)14(7)11)8-5-3-2-4-6-8/h2-6H,11H2,1H3
Instrument: TripleTOF 5600 SCIEX
Instrument type: LC-ESI-QTOF
Ms type: MS2
Ion mode: POSITIVE
Collision energy: 30
Fragmentation mode: CID
Ionization: ESI
Column name: Zorbax Eclipse Plus C18 2.1 mm x 150 mm, 3.5 um, Agilent
Retention time: 6.783 min
Precursor m/z: 203.0927
Precursor type: [M+H]+
m/z	relative intensity
42.0437	185
43.0492	13
44.0591	22
56.0189	13
57.0509	51
59.0274	17
72.0581	32
77.0418	209
79.0565	99
83.0271	53
89.0405	56
92.0502	41
93.059	10
103.0548	12
104.0499	580
105.0582	113
106.0653	96
107.0602	16
116.0488	10
117.0435	36
118.0528	36
119.0607	20
130.0656	63
134.0709	36
145.0401	91
158.0697	44
159.0781	70
173.069	10
174.0788	294
175.0975	999
203.0928	473
