Mass spectrum: Tetraphenylphosphonium; LC-ESI-QTOF; MS2; 120 V
Name: Tetraphenylphosphonium
Class: Industrial_process
Formula: [C24H20P]+
Exact mass: 339.1297
SMILES: c1ccc(cc1)[P+](c2ccccc2)(c3ccccc3)c4ccccc4
InChI: InChI=1S/C24H20P/c1-5-13-21(14-6-1)25(22-15-7-2-8-16-22,23-17-9-3-10-18-23)24-19-11-4-12-20-24/h1-20H/q+1
Instrument: TripleTOF 5600 SCIEX
Instrument type: LC-ESI-QTOF
Ms type: MS2
Ion mode: POSITIVE
Collision energy: 120
Fragmentation mode: CID
Ionization: ESI
Column name: Zorbax Eclipse Plus C18 2.1 mm x 150 mm, 3.5 um, Agilent
Retention time: 8.633 min
Precursor m/z: 339.1297
Precursor type: [M]+
m/z	relative intensity
80.9913	84
89.039	93
107.005	595
115.0544	290
126.0463	108
133.02	84
139.0542	246
150.0466	73
151.0542	259
152.0621	999
157.0203	501
181.0207	251
183.0358	323
