Mass spectrum: 5-Aminofluorescein; LC-ESI-QTOF; MS2; 50 V
Name: 5-Aminofluorescein
Class: Pharmaceutical
Formula: C20H13NO5
Exact mass: 347.0794
SMILES: Nc1ccc2c(c1)C(=O)OC23c4ccc(O)cc4Oc5cc(O)ccc35
InChI: InChI=1S/C20H13NO5/c21-10-1-4-14-13(7-10)19(24)26-20(14)15-5-2-11(22)8-17(15)25-18-9-12(23)3-6-16(18)20/h1-9,22-23H,21H2
Instrument: TripleTOF 5600 SCIEX
Instrument type: LC-ESI-QTOF
Ms type: MS2
Ion mode: POSITIVE
Collision energy: 50
Fragmentation mode: CID
Ionization: ESI
Column name: Zorbax Eclipse Plus C18 2.1 mm x 150 mm, 3.5 um, Agilent
Retention time: 8.159 min
Precursor m/z: 348.0866
Precursor type: [M+H]+
m/z	relative intensity
65.0431	12
92.0509	19
120.0452	20
154.0652	10
179.0846	10
182.0591	10
189.0697	13
191.0809	13
201.0694	29
202.0766	45
203.0849	22
204.0803	15
206.0952	20
211.061	23
213.0676	10
217.0855	37
218.0692	10
218.0957	32
219.0801	13
228.0776	19
229.0494	146
230.093	32
231.0799	54
233.0822	26
234.0894	21
237.0524	13
244.0735	12
245.0823	17
246.0905	144
247.0764	21
248.0701	13
248.1057	21
249.0824	20
256.0748	32
257.0614	40
257.0817	23
258.0747	83
259.0738	63
260.0744	24
261.0742	17
262.0873	57
264.0624	13
269.0591	14
271.0759	34
272.0678	10
273.0771	69
274.0847	146
275.0705	44
275.0916	40
276.0994	73
284.0679	14
285.0564	49
286.0608	18
286.0852	235
286.1227	14
287.069	255
288.0739	24
289.0725	43
301.0708	47
302.0806	823
303.099	13
304.0963	562
313.0508	21
314.0536	12
320.0896	32
330.0732	96
331.0832	10
348.0862	999
