Mass spectrum: Dinoseb; LC-ESI-QTOF; MS2; 50 V
Name: Dinoseb
Class: Herbicide
Formula: C10H12N2O5
Exact mass: 240.0746
SMILES: CCC(C)c1cc(cc(c1O)[N+](=O)[O-])[N+](=O)[O-]
InChI: InChI=1S/C10H12N2O5/c1-3-6(2)8-4-7(11(14)15)5-9(10(8)13)12(16)17/h4-6,13H,3H2,1-2H3
Instrument: TripleTOF 6600 SCIEX
Instrument type: LC-ESI-QTOF
Ms type: MS2
Ion mode: NEGATIVE
Collision energy: 50
Fragmentation mode: CID
Ionization: ESI
Column name: Zorbax Eclipse Plus C18 2.1 mm x 150 mm, 3.5 um, Agilent
Retention time: 13.78182 min
Precursor m/z: 239.0673
Precursor type: [M-H]-
m/z	relative intensity
45.9924	90
104.0248	12
121.0284	29
122.0361	17
134.0236	999
135.0312	221
136.0388	51
146.0355	14
148.0396	48
149.0229	20
149.0465	12
150.0541	10
162.0176	104
163.0259	256
164.0346	10
164.0464	16
176.0334	68
177.0415	39
178.0498	45
179.0207	10
192.0639	16
193.0236	102
194.0439	47
209.018	51
