Mass spectrum: N-Desmethyltramadol; LC-ESI-QTOF; MS2; 130 V
Name: N-Desmethyltramadol
Class: Transformation_product; Metabolite
Formula: C15H23NO2
Exact mass: 249.1729
SMILES: CNCC1CCCCC1(C2=CC(=CC=C2)OC)O
InChI: InChI=1S/C15H23NO2/c1-16-11-13-6-3-4-9-15(13,17)12-7-5-8-14(10-12)18-2/h5,7-8,10,13,16-17H,3-4,6,9,11H2,1-2H3
Instrument: TripleTOF 6600 SCIEX
Instrument type: LC-ESI-QTOF
Ms type: MS2
Ion mode: POSITIVE
Collision energy: 130
Fragmentation mode: CID
Ionization: ESI
Column name: Zorbax Eclipse Plus C18 2.1 mm x 150 mm, 3.5 um, Agilent
Retention time: 6.246 min
Precursor m/z: 250.1802
Precursor type: [M+H]+
m/z	relative intensity
30.0341	30
36.0002	13
37.0077	71
38.0149	52
39.0231	179
41.0261	16
41.0391	19
42.034	264
43.0179	13
43.0418	55
44.0499	999
49.007	41
50.0151	240
51.023	262
52.0305	44
54.0337	11
59.999	16
61.0071	57
62.0151	160
63.0228	347
64.0311	30
65.0385	63
74.0155	38
75.0232	38
76.0299	19
77.0383	88
78.0461	35
86.0152	13
89.0389	49
91.0544	22
102.046	30
115.0538	49
126.0455	13
127.0546	11
128.0622	16
