Mass spectrum: Clopidogrel; LC-ESI-QTOF; MS2; 150 V
Name: Clopidogrel
Class: Pharmaceutical
Formula: C16H16ClNO2S
Exact mass: 321.059
SMILES: COC(=O)C(c1ccccc1Cl)N2CCc3c(ccs3)C2
InChI: InChI=1S/C16H16ClNO2S/c1-20-16(19)15(12-4-2-3-5-13(12)17)18-8-6-14-11(10-18)7-9-21-14/h2-5,7,9,15H,6,8,10H2,1H3
Instrument: TripleTOF 5600 SCIEX
Instrument type: LC-ESI-QTOF
Ms type: MS2
Ion mode: POSITIVE
Collision energy: 150
Fragmentation mode: CID
Ionization: ESI
Column name: Zorbax Eclipse Plus C18 2.1 mm x 150 mm, 3.5 um, Agilent
Retention time: 12.465 min
Precursor m/z: 322.0663
Precursor type: [M+H]+
m/z	relative intensity
51.03	489
60.0018	10
64.0345	14
65.0422	134
72.987	151
73.0097	70
74.0184	666
75.0016	10
75.0262	999
76.0335	56
77.0418	272
84.9848	134
89.04	465
90.0469	94
91.0547	83
96.9874	10
98.9999	87
105.0316	10
109.0113	12
110.9996	580
112.0062	18
117.0559	23
125.0137	23
138.9961	101
