Mass spectrum: Baclofen; LC-ESI-QTOF; MS2; 20 V
Name: Baclofen
Class: Pharmaceutical
Formula: C10H12ClNO2
Exact mass: 213.0557
SMILES: NCC(CC(O)=O)c1ccc(Cl)cc1
InChI: InChI=1S/C10H12ClNO2/c11-9-3-1-7(2-4-9)8(6-12)5-10(13)14/h1-4,8H,5-6,12H2,(H,13,14)
Instrument: TripleTOF 5600 SCIEX
Instrument type: LC-ESI-QTOF
Ms type: MS2
Ion mode: POSITIVE
Collision energy: 20
Fragmentation mode: CID
Ionization: ESI
Column name: Zorbax Eclipse Plus C18 2.1 mm x 150 mm, 3.5 um, Agilent
Retention time: 5.336 min
Precursor m/z: 214.0629
Precursor type: [M+H]+
m/z	relative intensity
77.0409	94
115.0539	58
116.0619	50
125.0146	37
141.0004	193
143.0483	20
143.073	13
144.0564	127
151.031	999
154.0417	42
155.0255	47
158.0263	100
178.0414	77
179.0258	465
196.052	290
197.036	503
214.0623	212
