Mass spectrum: Alpha-hydroxy-metoprolol; LC-ESI-QTOF; MS2; 110 V
Name: Alpha-hydroxy-metoprolol
Class: Pharmaceutical; Metabolite; Transformation_product-Metabolite
Formula: C15H25NO4
Exact mass: 283.1784
SMILES: COCC(O)c1ccc(OCC(O)CNC(C)C)cc1
InChI: InChI=1S/C15H25NO4/c1-11(2)16-8-13(17)9-20-14-6-4-12(5-7-14)15(18)10-19-3/h4-7,11,13,15-18H,8-10H2,1-3H3
Instrument: TripleTOF 5600 SCIEX
Instrument type: LC-ESI-QTOF
Ms type: MS2
Ion mode: POSITIVE
Collision energy: 110
Fragmentation mode: CID
Ionization: ESI
Column name: Zorbax Eclipse Plus C18 2.1 mm x 150 mm, 3.5 um, Agilent
Retention time: 5.057 min
Precursor m/z: 284.1856
Precursor type: [M+H]+
m/z	relative intensity
43.0268	9
45.0401	26
45.0481	11
56.0566	112
58.0706	58
65.0436	360
72.0838	15
74.0176	11
74.0631	20
75.0271	22
76.0322	15
77.0418	999
78.0493	148
79.0566	53
89.0402	239
90.049	30
91.056	311
102.0477	28
103.0544	37
105.0353	79
105.0674	13
106.0413	13
107.0487	41
115.0543	72
127.0537	13
128.061	20
