Mass spectrum: 2-Ethoxyethyl-N-(4-methylphenyl)carbamate; LC-ESI-QTOF; MS2; 40 V
Name: 2-Ethoxyethyl-N-(4-methylphenyl)carbamate
Class: Pharmaceutical
Formula: C12H17NO3
Exact mass: 223.1208
SMILES: CCOCCOC(=O)NC1=CC=C(C=C1)C
InChI: InChI=1S/C12H17NO3/c1-3-15-8-9-16-12(14)13-11-6-4-10(2)5-7-11/h4-7H,3,8-9H2,1-2H3,(H,13,14)
Instrument: TripleTOF 5600 SCIEX
Instrument type: LC-ESI-QTOF
Ms type: MS2
Ion mode: POSITIVE
Collision energy: 40
Fragmentation mode: CID
Ionization: ESI
Column name: Zorbax Eclipse Plus C18 2.1 mm x 150 mm, 3.5 um, Agilent
Retention time: 10.768 min
Precursor m/z: 224.1281
Precursor type: [M+H]+
m/z	relative intensity
45.0471	359
73.0716	419
77.0447	139
79.0601	240
91.0596	257
91.0788	88
106.0691	999
134.0631	225
178.0871	331
192.0011	19
208.0331	17
