Mass spectrum: Disperse Yellow 9; LC-ESI-QTOF; MS2; 60 V
Name: Disperse Yellow 9
Formula: C12H10N4O4
Exact mass: 274.0702
SMILES: C1=CC(=CC=C1N)NC2=C(C=C(C=C2)[N+](=O)[O-])[N+](=O)[O-]
InChI: InChI=1S/C12H10N4O4/c13-8-1-3-9(4-2-8)14-11-6-5-10(15(17)18)7-12(11)16(19)20/h1-7,14H,13H2
Instrument: TripleTOF X500R SCIEX
Instrument type: LC-ESI-QTOF
Ms type: MS2
Ion mode: NEGATIVE
Collision energy: 60
Fragmentation mode: CID
Ionization: ESI
Column name: Zorbax Eclipse Plus C18 2.1 mm x 150 mm, 3.5 um, Agilent
Retention time: 9.832 min
Precursor m/z: 273.0629
Precursor type: [M-H]-
m/z	relative intensity
45.9934	999
117.0466	128
157.0793	128
180.0704	386
