Mass spectrum: 2-(Morpholinodithio)benzothiazole; LC-ESI-QTOF; MS2; 70 V
Name: 2-(Morpholinodithio)benzothiazole
Class: Industrial_process
Formula: C11H12N2OS3
Exact mass: 284.0112
SMILES: C1COCCN1SSC2=NC3=CC=CC=C3S2
InChI: InChI=1S/C11H12N2OS3/c1-2-4-10-9(3-1)12-11(15-10)16-17-13-5-7-14-8-6-13/h1-4H,5-8H2
Instrument: TripleTOF 5600 SCIEX
Instrument type: LC-ESI-QTOF
Ms type: MS2
Ion mode: POSITIVE
Collision energy: 70
Fragmentation mode: CID
Ionization: ESI
Column name: Zorbax Eclipse Plus C18 2.1 mm x 150 mm, 3.5 um, Agilent
Retention time: 13.833 min
Precursor m/z: 285.0185
Precursor type: [M+H]+
m/z	relative intensity
44.0616	45
56.058	131
59.0033	39
59.0102	28
59.999	999
61.0196	137
65.0474	57
77.0436	28
86.0637	91
88.0251	256
89.0081	28
90.0397	97
91.0449	62
96.0056	34
108.0041	79
109.0117	91
118.0328	313
122.0079	91
123.0156	74
134.0085	34
135.0144	142
136.0205	51
139.9766	57
165.9804	62
166.9871	176
