Mass spectrum: N-desmethyl-venlafaxine; LC-ESI-QTOF; MS2; 100 V
Name: N-desmethyl-venlafaxine
Class: Pharmaceutical; Metabolite; Transformation_product-Metabolite
Formula: C16H25NO2
Exact mass: 263.1885
SMILES: CNCC(c1ccc(cc1)OC)C2(CCCCC2)O
InChI: InChI=1S/C16H25NO2/c1-17-12-15(16(18)10-4-3-5-11-16)13-6-8-14(19-2)9-7-13/h6-9,15,17-18H,3-5,10-12H2,1-2H3
Instrument: TripleTOF 5600 SCIEX
Instrument type: LC-ESI-QTOF
Ms type: MS2
Ion mode: POSITIVE
Collision energy: 100
Fragmentation mode: CID
Ionization: ESI
Column name: Zorbax Eclipse Plus C18 2.1 mm x 150 mm, 3.5 um, Agilent
Retention time: 6.444 min
Precursor m/z: 264.1958
Precursor type: [M+H]+
m/z	relative intensity
44.0578	806
51.0281	178
52.035	93
55.059	19
65.0417	405
76.0334	39
77.0404	756
77.0795	29
78.0477	999
79.0542	103
81.0713	49
89.0407	108
91.0548	380
102.0472	34
103.0538	143
104.061	29
106.0411	24
107.0494	29
115.0527	435
116.0613	19
121.0642	108
127.0539	69
128.0604	98
131.048	49
152.0631	24
