Mass spectrum: Mirtazapine; LC-ESI-QTOF; MS2; 120 V
Name: Mirtazapine
Class: Pharmaceutical
Formula: C17H19N3
Exact mass: 265.1579
SMILES: CN1CCN2C(C1)C3=CC=CC=C3CC4=C2N=CC=C4
InChI: InChI=1S/C17H19N3/c1-19-9-10-20-16(12-19)15-7-3-2-5-13(15)11-14-6-4-8-18-17(14)20/h2-8,16H,9-12H2,1H3
Instrument: TripleTOF 5600 SCIEX
Instrument type: LC-ESI-QTOF
Ms type: MS2
Ion mode: POSITIVE
Collision energy: 120
Fragmentation mode: CID
Ionization: ESI
Column name: Zorbax Eclipse Plus C18 2.1 mm x 150 mm, 3.5 um, Agilent
Retention time: 5.459 min
Precursor m/z: 266.1652
Precursor type: [M+H]+
m/z	relative intensity
42.045	70
44.0626	21
52.0332	17
56.0559	21
58.0742	28
64.0303	28
64.0436	17
65.0454	340
66.0404	28
67.0511	24
72.0854	24
74.0204	116
75.0273	212
76.036	99
77.0436	425
78.0432	141
85.0108	24
86.0193	63
87.0261	102
88.0345	88
89.0416	425
90.0372	17
90.0485	35
91.0569	109
92.0528	46
98.0177	81
99.0251	95
100.0302	38
101.0414	74
102.0476	152
103.0555	74
104.0525	21
110.0168	28
111.025	21
113.0395	350
114.048	113
115.0555	343
116.0503	63
117.0539	38
122.0164	24
123.0192	17
124.0337	17
125.0386	88
126.0464	226
127.0537	138
128.058	70
129.0474	17
130.0656	28
137.0389	99
138.0465	184
139.0551	999
140.05	492
141.0567	31
142.0596	17
149.0399	53
150.0461	453
151.0546	371
152.0622	347
153.0609	17
161.0386	31
162.0481	70
163.0547	219
164.0494	435
165.0575	148
166.0652	283
167.0741	63
168.0724	17
174.0402	21
175.0454	24
176.0552	42
177.0545	74
178.0653	49
179.0598	21
180.075	21
188.0504	53
189.0563	46
190.0665	77
191.0632	113
192.0675	262
193.0743	31
194.0858	17
202.0626	17
203.0586	17
205.0667	21
