Mass spectrum: (S)-N-methyl-pregabalin; LC-ESI-QTOF; MS2; 40 V
Name: (S)-N-methyl-pregabalin
Formula: C9H19NO2
Exact mass: 173.1416
SMILES: CC(C)CC(CC(=O)O)CNC
InChI: InChI=1S/C9H19NO2/c1-7(2)4-8(6-10-3)5-9(11)12/h7-8,10H,4-6H2,1-3H3,(H,11,12)
Instrument: TripleTOF 5600 SCIEX
Instrument type: LC-ESI-QTOF
Ms type: MS2
Ion mode: POSITIVE
Collision energy: 40
Fragmentation mode: CID
Ionization: ESI
Column name: Zorbax Eclipse Plus C18 2.1 mm x 150 mm, 3.5 um, Agilent
Retention time: 4.84 min
Precursor m/z: 174.1489
Precursor type: [M+H]+
m/z	relative intensity
39.0235	78
41.0392	149
43.0183	44
43.0547	54
44.0501	40
45.0341	26
53.0393	25
55.0191	42
55.055	999
56.0497	10
57.0704	73
58.0293	58
59.0501	89
65.0392	12
67.0415	22
67.0543	22
69.034	33
69.0705	93
70.0656	128
77.0381	14
79.0546	54
80.0501	10
81.0579	12
81.0698	32
82.0659	158
83.0495	21
83.086	193
91.0548	50
94.0655	30
95.0796	13
96.0813	45
97.1017	22
99.0681	24
105.0713	18
107.0848	16
138.1283	48
156.1369	14
