Mass spectrum: Isorhamnetin; LC-ESI-QTOF; MS2; 80 V
Name: Isorhamnetin
Class: Pharmaceutical; Metabolite
Formula: C16H12O7
Exact mass: 316.0583
SMILES: COc1cc(ccc1O)C2=C(O)C(=O)c3c(O)cc(O)cc3O2
InChI: InChI=1S/C16H12O7/c1-22-11-4-7(2-3-9(11)18)16-15(21)14(20)13-10(19)5-8(17)6-12(13)23-16/h2-6,17-19,21H,1H3
Instrument: TripleTOF 5600 SCIEX
Instrument type: LC-ESI-QTOF
Ms type: MS2
Ion mode: POSITIVE
Collision energy: 80
Fragmentation mode: CID
Ionization: ESI
Column name: Zorbax Eclipse Plus C18 2.1 mm x 150 mm, 3.5 um, Agilent
Retention time: 9.418 min
Precursor m/z: 317.0656
Precursor type: [M+H]+
m/z	relative intensity
65.0422	390
68.9996	434
77.0437	390
81.0373	304
89.0419	173
92.0244	347
96.0203	304
103.0541	173
108.0198	347
115.0533	999
121.038	217
124.0141	260
127.054	390
131.0488	217
137.0233	304
147.0407	260
153.0176	825
155.0464	304
163.0383	217
171.044	260
189.0617	217
203.0339	521
217.0486	434
245.0459	173
