Mass spectrum: Promethazine; LC-ESI-QTOF; MS2; 150 V
Name: Promethazine
Class: Pharmaceutical
Formula: C17H20N2S
Exact mass: 284.1347
SMILES: CC(CN1c2ccccc2Sc3c1cccc3)N(C)C
InChI: InChI=1S/C17H20N2S/c1-13(18(2)3)12-19-14-8-4-6-10-16(14)20-17-11-7-5-9-15(17)19/h4-11,13H,12H2,1-3H3
Instrument: TripleTOF 5600 SCIEX
Instrument type: LC-ESI-QTOF
Ms type: MS2
Ion mode: POSITIVE
Collision energy: 150
Fragmentation mode: CID
Ionization: ESI
Column name: Zorbax Eclipse Plus C18 2.1 mm x 150 mm, 3.5 um, Agilent
Retention time: 7.995 min
Precursor m/z: 285.142
Precursor type: [M+H]+
m/z	relative intensity
41.0367	132
42.0442	265
43.0585	16
44.057	62
51.0309	497
52.0375	20
54.0415	24
56.0574	974
58.0713	124
60.0099	16
62.053	20
63.0544	41
65.0435	62
67.9767	116
68.9851	999
69.0147	29
69.0244	24
69.992	29
70.0699	91
70.9982	29
71.078	136
72.0855	33
73.0122	62
74.0203	663
75.0143	24
75.0285	621
76.0232	24
76.0342	161
77.0426	460
80.9835	37
81.9905	165
85.0109	78
86.0187	203
87.0256	232
88.0209	37
88.0348	53
89.0421	178
92.9828	207
92.9989	16
94.9973	29
98.018	265
99.0248	107
100.0338	58
101.04	74
102.0484	58
108.0049	24
109.0108	24
110.0179	53
111.025	41
112.0212	16
113.0419	186
114.0373	37
115.0555	45
116.982	37
122.0168	24
123.0233	20
125.041	91
126.0484	190
127.0442	37
127.058	33
128.0523	20
137.0398	66
138.033	20
139.0556	91
140.0549	66
149.0438	33
150.049	227
151.0569	111
152.0549	49
153.057	24
161.0405	29
162.0486	58
163.0578	116
164.0535	66
169.0165	37
174.0506	24
176.0656	29
177.0579	33
188.0504	24
190.0685	37
196.0226	20
202.0728	16
