Mass spectrum: Aclonifen; LC-ESI-QTOF; MS2; 40 V
Name: Aclonifen
Class: Herbicide
Formula: C12H9ClN2O3
Exact mass: 264.0302
SMILES: Nc1c(Cl)c(Oc2ccccc2)ccc1[N+]([O-])=O
InChI: InChI=1S/C12H9ClN2O3/c13-11-10(18-8-4-2-1-3-5-8)7-6-9(12(11)14)15(16)17/h1-7H,14H2
Instrument: TripleTOF 5600 SCIEX
Instrument type: LC-ESI-QTOF
Ms type: MS2
Ion mode: POSITIVE
Collision energy: 40
Fragmentation mode: CID
Ionization: ESI
Column name: Zorbax Eclipse Plus C18 2.1 mm x 150 mm, 3.5 um, Agilent
Retention time: 13.815 min
Precursor m/z: 265.0374
Precursor type: [M+H]+
m/z	relative intensity
51.0285	24
52.025	13
65.0434	22
77.0413	300
80.0156	198
88.0319	13
102.0428	11
112.0316	13
113.0405	13
114.0473	13
115.0536	15
125.0031	11
126.0492	11
127.054	174
128.0586	92
129.0572	13
131.0455	11
138.0329	108
139.0417	112
140.0493	35
140.9974	13
153.0552	37
154.0648	134
155.0489	183
156.0557	19
156.0776	24
162.0237	13
163.0312	37
165.0437	170
166.0515	77
167.0359	46
173.0148	11
174.0111	64
181.0514	24
182.0599	999
183.0672	192
190.0177	11
190.0409	22
193.0397	139
194.0459	285
201.0212	24
202.0039	17
203.0161	24
217.0291	205
218.0354	384
229.0145	19
247.0269	39
248.0346	943
265.0375	50
