Mass spectrum: Fluazifop; LC-ESI-QTOF; MS2; 130 V
Name: Fluazifop
Class: Herbicide; Transformation_product
Formula: C15H12F3NO4
Exact mass: 327.0718
SMILES: CC(C(=O)O)Oc1ccc(cc1)Oc2ccc(cn2)C(F)(F)F
InChI: InChI=1S/C15H12F3NO4/c1-9(14(20)21)22-11-3-5-12(6-4-11)23-13-7-2-10(8-19-13)15(16,17)18/h2-9H,1H3,(H,20,21)
Instrument: TripleTOF 6600 SCIEX
Instrument type: LC-ESI-QTOF
Ms type: MS2
Ion mode: POSITIVE
Collision energy: 130
Fragmentation mode: CID
Ionization: ESI
Column name: Zorbax Eclipse Plus C18 2.1 mm x 150 mm, 3.5 um, Agilent
Retention time: 11.668 min
Precursor m/z: 328.0791
Precursor type: [M+H]+
m/z	relative intensity
30.9982	28
35.9997	46
37.0078	207
38.0156	207
39.0236	537
49.0078	207
50.0155	744
51.0056	132
51.0235	808
52.0185	103
52.0307	57
53.0019	51
53.039	28
55.0186	34
56.0057	28
57.0141	92
59.9998	28
61.0075	207
62.0157	508
63.0233	929
64.0172	23
64.0309	86
65.0393	213
66.0469	28
68.9948	519
69.0138	46
70.0218	167
73.0072	46
74.0156	375
75.0046	999
75.0222	190
76.0188	317
76.0303	57
77.039	363
78.0336	196
79.0418	28
80.0071	28
81.0137	103
81.0336	57
82.0076	23
83.0288	40
85.0075	34
86.0148	98
87.0233	138
88.018	46
88.0306	92
89.0393	98
91.055	28
92.9953	69
96.024	23
98.0153	75
99.004	300
99.0235	40
99.9999	51
100.0119	86
101.0195	121
101.0395	46
102.0466	103
103.0526	28
104.0508	23
105.0134	34
107.0291	69
112.0147	28
113.0381	150
114.0357	63
117.0138	46
119.0091	75
122.0149	92
123.0228	40
124.0173	40
125.0185	46
126.0149	92
127.0212	28
128.0487	57
131.0275	63
132.0364	23
133.0448	40
138.0344	28
140.0497	103
141.0561	34
146.0208	46
151.0332	103
