Mass spectrum: Basic yellow 28; LC-ESI-QTOF; MS2; 120 V
Name: Basic yellow 28
Class: Pigment
Formula: [C20H24N3O]+
Exact mass: 322.1914
SMILES: CC1(C2=CC=CC=C2[N+](=C1C=NN(C)C3=CC=C(C=C3)OC)C)C
InChI: InChI=1S/C20H24N3O/c1-20(2)17-8-6-7-9-18(17)22(3)19(20)14-21-23(4)15-10-12-16(24-5)13-11-15/h6-14H,1-5H3/q+1
Instrument: TripleTOF 6600 SCIEX
Instrument type: LC-ESI-QTOF
Ms type: MS2
Ion mode: POSITIVE
Collision energy: 120
Fragmentation mode: CID
Ionization: ESI
Column name: Zorbax Eclipse Plus C18 2.1 mm x 150 mm, 3.5 um, Agilent
Retention time: 9.082 min
Precursor m/z: 322.1914
Precursor type: [M]+
m/z	relative intensity
39.0242	192
50.0159	246
51.0237	606
52.0311	66
61.0077	68
62.0155	128
63.0233	681
64.0309	191
65.0389	614
66.0465	480
67.0417	229
75.0227	139
76.0303	92
77.0385	999
78.0341	65
78.0457	184
89.0374	264
90.0457	63
91.0532	283
92.025	105
92.0484	163
101.0377	157
102.0458	330
103.0533	215
115.0535	831
116.0486	89
116.0607	78
117.0571	129
127.053	51
128.0491	398
129.0568	193
130.0646	110
140.0492	76
142.0647	172
143.0725	350
144.0806	423
