Mass spectrum: Mandipropamid; LC-ESI-QTOF; MS2; 150 V
Name: Mandipropamid
Class: Fungicide
Formula: C23H22ClNO4
Exact mass: 411.1237
SMILES: COC1=C(C=CC(=C1)CCNC(=O)C(C2=CC=C(C=C2)Cl)OCC#C)OCC#C
InChI: InChI=1S/C23H22ClNO4/c1-4-14-28-20-11-6-17(16-21(20)27-3)12-13-25-23(26)22(29-15-5-2)18-7-9-19(24)10-8-18/h1-2,6-11,16,22H,12-15H2,3H3,(H,25,26)
Instrument: TripleTOF 6600 SCIEX
Instrument type: LC-ESI-QTOF
Ms type: MS2
Ion mode: POSITIVE
Collision energy: 150
Fragmentation mode: CID
Ionization: ESI
Column name: Zorbax Eclipse Plus C18 2.1 mm x 150 mm, 3.5 um, Agilent
Retention time: 12.239 min
Precursor m/z: 412.131
Precursor type: [M+H]+
m/z	relative intensity
37.0075	44
38.0151	44
39.023	178
50.0148	111
51.0227	350
61.0071	67
62.0144	193
63.0226	521
64.0299	59
65.0382	335
72.9836	275
74.015	82
75.0225	89
76.0305	59
77.0382	700
78.0463	96
79.0542	37
89.0379	999
90.0457	305
91.0538	283
93.0563	67
94.0402	37
98.9987	260
101.0375	29
102.046	119
103.0546	67
104.0486	74
107.0492	29
115.0536	320
117.0575	149
125.0134	82
126.045	89
127.0545	67
128.0612	59
139.0533	149
150.0472	119
151.0549	126
152.0621	201
162.0462	37
163.0541	193
164.0616	141
165.069	134
176.0617	164
177.0689	37
178.0793	59
187.0534	104
189.069	104
200.0599	67
213.0684	44
