Mass spectrum: Trimethoprim; LC-ESI-QTOF; MS2; 130 V
Name: Trimethoprim
Class: Pharmaceutical
Formula: C14H18N4O3
Exact mass: 290.1379
SMILES: COC1=CC(=CC(=C1OC)OC)CC2=CN=C(N=C2N)N
InChI: InChI=1S/C14H18N4O3/c1-19-10-5-8(6-11(20-2)12(10)21-3)4-9-7-17-14(16)18-13(9)15/h5-7H,4H2,1-3H3,(H4,15,16,17,18)
Instrument: TripleTOF 5600 SCIEX
Instrument type: LC-ESI-QTOF
Ms type: MS2
Ion mode: POSITIVE
Collision energy: 130
Fragmentation mode: CID
Ionization: ESI
Column name: Zorbax Eclipse Plus C18 2.1 mm x 150 mm, 3.5 um, Agilent
Retention time: 5.112 min
Precursor m/z: 291.1452
Precursor type: [M+H]+
m/z	relative intensity
37.0067	51
38.015	42
39.0228	247
41.0259	179
42.0338	42
43.0289	503
49.0081	51
50.0152	290
51.0229	708
52.0183	384
52.0303	68
53.0027	34
53.0125	51
53.0255	34
53.0379	76
54.0337	512
55.0423	76
61.008	102
62.0153	162
63.0229	811
64.0181	298
64.0307	111
65.0387	580
66.0339	76
66.0465	111
67.0294	102
67.0413	68
67.0549	34
68.0247	85
68.037	85
68.9963	42
69.0451	34
74.015	264
75.0096	51
75.0228	597
76.018	384
76.0297	153
77.0386	999
78.0337	298
79.029	136
79.042	93
80.0498	187
81.0449	222
83.0481	42
87.0227	76
88.0191	102
88.0317	68
89.0392	725
90.0344	572
90.0484	34
91.0293	85
91.0414	128
91.054	85
92.0494	239
93.0472	76
93.0572	59
96.0587	51
98.0148	34
100.0186	68
101.0407	119
102.0339	409
103.0287	102
103.0416	34
103.0541	51
104.0488	111
105.0446	179
108.0582	51
109.052	59
113.0373	76
114.0345	204
115.0428	59
115.0553	128
116.0488	128
117.0456	409
118.0393	341
119.0619	76
120.0577	85
126.0433	51
127.0443	51
128.0514	59
129.0477	59
130.0421	102
135.0678	85
140.0538	42
141.0508	51
142.0517	42
144.0567	153
147.0637	51
