Mass spectrum: 1-Boc-4-[3-(ethoxycarbonyl)phenyl]piperazine; LC-ESI-QTOF; MS2; 150 V
Name: 1-Boc-4-[3-(ethoxycarbonyl)phenyl]piperazine
Formula: C18H26N2O4
Exact mass: 334.1893
SMILES: CCOC(=O)C1=CC(=CC=C1)N2CCN(CC2)C(=O)OC(C)(C)C
InChI: InChI=1S/C18H26N2O4/c1-5-23-16(21)14-7-6-8-15(13-14)19-9-11-20(12-10-19)17(22)24-18(2,3)4/h6-8,13H,5,9-12H2,1-4H3
Instrument: TripleTOF 6600 SCIEX
Instrument type: LC-ESI-QTOF
Ms type: MS2
Ion mode: POSITIVE
Collision energy: 150
Fragmentation mode: CID
Ionization: ESI
Column name: Zorbax Eclipse Plus C18 2.1 mm x 150 mm, 3.5 um, Agilent
Retention time: 14.611 min
Precursor m/z: 335.1965
Precursor type: [M+H]+
m/z	relative intensity
35.9993	42
37.0075	228
38.0026	58
38.015	180
39.0231	999
41.0386	122
42.0345	69
44.0494	69
49.0077	106
50.0149	584
51.023	871
52.031	21
61.0065	31
62.0147	74
63.0229	223
64.0297	26
65.0386	648
66.0456	31
73.0071	47
74.0157	292
75.0226	271
76.0308	31
77.0384	536
78.0332	47
78.0464	47
89.0384	387
90.0459	122
91.0542	472
92.0487	42
93.0577	37
103.056	21
104.0489	37
116.0493	21
117.0574	154
118.0635	95
