Mass spectrum: Icaridin acid; LC-ESI-QTOF; MS2; 100 V
Name: Icaridin acid
Formula: C12H21NO4
Exact mass: 243.1471
SMILES: CCC(C)OC(=O)N1CCCCC1CC(O)=O
InChI: InChI=1S/C12H21NO4/c1-3-9(2)17-12(16)13-7-5-4-6-10(13)8-11(14)15/h9-10H,3-8H2,1-2H3,(H,14,15)
Instrument: TripleTOF 6600 SCIEX
Instrument type: LC-ESI-QTOF
Ms type: MS2
Ion mode: POSITIVE
Collision energy: 100
Fragmentation mode: CID
Ionization: ESI
Column name: Zorbax Eclipse Plus C18 2.1 mm x 150 mm, 3.5 um, Agilent
Retention time: 9.741 min
Precursor m/z: 244.1543
Precursor type: [M+H]+
m/z	relative intensity
30.0318	142
35.9971	27
37.0052	169
38.0005	61
38.0128	154
39.0209	779
41.0363	324
42.0315	208
43.0154	34
43.0397	77
44.9953	34
52.0025	19
53.011	15
53.0366	50
54.0308	92
55.0519	185
56.0468	999
65.0361	81
67.0388	38
67.0515	84
68.0466	181
69.0546	88
77.0361	61
80.0467	19
82.0622	34
84.0776	300
