Mass spectrum: Praziquantel; LC-ESI-QTOF; MS2; 130 V
Name: Praziquantel
Class: Pharmaceutical
Formula: C19H24N2O2
Exact mass: 312.1838
SMILES: O=C1CN(CC2N1CCc3ccccc23)C(=O)C4CCCCC4
InChI: InChI=1S/C19H24N2O2/c22-18-13-20(19(23)15-7-2-1-3-8-15)12-17-16-9-5-4-6-14(16)10-11-21(17)18/h4-6,9,15,17H,1-3,7-8,10-13H2
Instrument: TripleTOF 5600 SCIEX
Instrument type: LC-ESI-QTOF
Ms type: MS2
Ion mode: POSITIVE
Collision energy: 130
Fragmentation mode: CID
Ionization: ESI
Column name: Zorbax Eclipse Plus C18 2.1 mm x 150 mm, 3.5 um, Agilent
Retention time: 10.768 min
Precursor m/z: 313.1911
Precursor type: [M+H]+
m/z	relative intensity
51.0289	131
55.06	980
65.0412	169
77.0413	735
78.0475	94
89.0388	999
90.0475	452
91.0546	188
102.0464	169
103.0542	320
105.0673	150
115.0528	735
117.0566	490
128.0632	226
130.0633	263
