Mass spectrum: Flavanone; LC-ESI-QTOF; MS2; 130 V
Name: Flavanone
Class: Personal_care_product
Formula: C15H12O2
Exact mass: 224.0837
InChI: InChI=1S/C15H12O2/c16-13-10-15(11-6-2-1-3-7-11)17-14-9-5-4-8-12(13)14/h1-9,15H,10H2
Instrument: TripleTOF 5600 SCIEX
Instrument type: LC-ESI-QTOF
Ms type: CID
Ion mode: POSITIVE
Collision energy: 130
Ionization: ESI
Column name: Zorbax Eclipse Plus C18 2.1 mm x 150 mm, 3.5 um, Agilent
Retention time: 12.61 min
Precursor m/z: 225.091
Precursor type: [M+H]+
m/z	relative intensity
35.9998	67
37.0069	229
38.0152	188
39.0229	297
49.0068	94
50.015	513
51.023	999
61.0077	108
62.0151	161
63.0235	148
73.0081	80
74.015	418
75.0226	108
77.0388	242
86.0138	80
98.015	148
110.0119	67
150.0478	108
