Mass spectrum: Abacavir carboxylic acid; LC-ESI-QTOF; MS2; 100 V
Name: Abacavir carboxylic acid
Class: Pharmaceutical; Metabolite; Transformation_product
Formula: C14H16N6O2
Exact mass: 300.1335
SMILES: C1CC1NC2=NC(=NC3=C2N=CN3C4CC(C=C4)C(=O)O)N
InChI: InChI=1S/C14H16N6O2/c15-14-18-11(17-8-2-3-8)10-12(19-14)20(6-16-10)9-4-1-7(5-9)13(21)22/h1,4,6-9H,2-3,5H2,(H,21,22)(H3,15,17,18,19)
Instrument: TripleTOF 5600 SCIEX
Instrument type: LC-ESI-QTOF
Ms type: MS2
Ion mode: POSITIVE
Collision energy: 100
Fragmentation mode: CID
Ionization: ESI
Column name: Zorbax Eclipse Plus C18 2.1 mm x 150 mm, 3.5 um, Agilent
Retention time: 5.194 min
Precursor m/z: 301.1408
Precursor type: [M+H]+
m/z	relative intensity
40.0265	38
42.0427	32
43.0369	64
45.0077	32
52.023	25
53.0185	155
53.0412	25
54.0274	90
54.0441	32
55.035	356
55.0595	71
56.0457	32
58.0684	32
65.0172	77
65.0429	999
66.024	175
67.033	90
67.0419	38
67.0579	395
68.0284	136
68.0528	64
68.0654	45
78.0364	103
79.0308	45
80.0272	363
80.054	32
81.0339	90
81.0483	71
82.0418	168
83.0506	103
92.0258	285
92.0399	38
93.0341	90
93.0502	25
94.0404	110
94.0532	25
95.0598	38
103.0296	32
105.0454	58
106.0401	77
107.036	642
108.0439	454
109.0511	304
119.0362	64
120.0555	51
121.0526	32
122.0593	25
133.0389	103
133.0549	32
134.0459	298
175.0701	45
