Mass spectrum: Sildenafil; LC-ESI-QTOF; MS2; 60 V
Name: Sildenafil
Class: Pharmaceutical
Formula: C22H30N6O4S
Exact mass: 474.2049
SMILES: CCCC1=NN(C2=C1NC(=NC2=O)C3=C(C=CC(=C3)S(=O)(=O)N4CCN(CC4)C)OCC)C
InChI: InChI=1S/C22H30N6O4S/c1-5-7-17-19-20(27(4)25-17)22(29)24-21(23-19)16-14-15(8-9-18(16)32-6-2)33(30,31)28-12-10-26(3)11-13-28/h8-9,14H,5-7,10-13H2,1-4H3,(H,23,24,29)
Instrument: TripleTOF 5600 SCIEX
Instrument type: LC-ESI-QTOF
Ms type: MS2
Ion mode: POSITIVE
Collision energy: 60
Fragmentation mode: CID
Ionization: ESI
Column name: Zorbax Eclipse Plus C18 2.1 mm x 150 mm, 3.5 um, Agilent
Retention time: 7.283 min
Precursor m/z: 475.2122
Precursor type: [M+H]+
m/z	relative intensity
42.047	22
56.0575	49
58.0741	707
70.0712	102
84.0717	19
97.0792	15
98.0864	10
99.0939	196
100.102	156
101.1087	10
136.0512	15
166.0948	46
186.0649	10
211.0981	11
212.0645	14
212.094	17
213.0781	30
223.0765	11
225.0789	37
226.0826	59
227.0903	39
228.1082	18
238.0918	17
239.056	17
239.0908	30
240.1033	18
241.0717	27
250.0758	11
253.07	50
254.0785	219
255.0909	33
255.1222	187
256.0998	31
267.086	35
267.1228	13
268.098	17
269.1055	18
269.133	19
278.1153	35
281.0948	10
282.1085	51
283.118	999
284.1223	99
285.1292	34
293.1414	18
296.13	23
297.1318	22
299.1131	216
301.1256	10
311.1489	65
312.1582	142
313.1729	14
331.0891	15
377.121	15
