Mass spectrum: Losartan; LC-ESI-QTOF; MS2; 110 V
Name: Losartan
Class: Pharmaceutical
Formula: C22H23ClN6O
Exact mass: 422.1622
SMILES: CCCCc1nc(c(n1Cc2ccc(cc2)c3ccccc3c4n[nH]nn4)CO)Cl
InChI: InChI=1S/C22H23ClN6O/c1-2-3-8-20-24-21(23)19(14-30)29(20)13-15-9-11-16(12-10-15)17-6-4-5-7-18(17)22-25-27-28-26-22/h4-7,9-12,30H,2-3,8,13-14H2,1H3,(H,25,26,27,28)
Instrument: TripleTOF 5600 SCIEX
Instrument type: LC-ESI-QTOF
Ms type: MS2
Ion mode: POSITIVE
Collision energy: 110
Fragmentation mode: CID
Ionization: ESI
Column name: Zorbax Eclipse Plus C18 2.1 mm x 150 mm, 3.5 um, Agilent
Retention time: 9.819 min
Precursor m/z: 423.1695
Precursor type: [M+H]+
m/z	relative intensity
75.0253	25
77.0416	160
78.0355	11
80.0517	27
89.0057	11
89.04	47
99.0235	13
101.039	38
102.0342	25
102.0469	19
113.038	77
114.0323	25
114.0449	28
115.0545	111
117.0567	13
125.0383	67
126.0457	66
127.0539	154
128.0505	61
128.0629	27
129.045	13
137.0384	50
138.0476	77
139.0544	182
140.0496	217
141.0592	17
142.0295	20
149.0381	28
150.0466	283
151.0549	760
152.0622	999
153.0612	136
154.0663	28
161.0409	15
162.0454	72
163.0542	371
164.0543	467
165.0698	472
166.0648	88
167.0714	20
176.0553	90
177.0576	301
178.0655	543
179.0727	179
180.0795	65
187.0504	19
188.0491	105
189.0567	79
190.0651	304
191.0606	93
192.0683	62
201.0596	11
203.0607	15
203.0725	11
204.0675	15
205.0759	530
212.0478	14
214.0642	31
239.057	11
