Mass spectrum: Tolfenamic acid; LC-ESI-QTOF; MS2; 90 V
Name: Tolfenamic acid
Class: Pharmaceutical
Formula: C14H12ClNO2
Exact mass: 261.0557
SMILES: Cc1cc(Nc2ccccc2C(O)=O)ccc1Cl
InChI: InChI=1S/C14H12ClNO2/c1-9-8-10(6-7-12(9)15)16-13-5-3-2-4-11(13)14(17)18/h2-8,16H,1H3,(H,17,18)
Instrument: TripleTOF 5600 SCIEX
Instrument type: LC-ESI-QTOF
Ms type: MS2
Ion mode: POSITIVE
Collision energy: 90
Fragmentation mode: CID
Ionization: ESI
Column name: Zorbax Eclipse Plus C18 2.1 mm x 150 mm, 3.5 um, Agilent
Retention time: 14.052 min
Precursor m/z: 262.0629
Precursor type: [M+H]+
m/z	relative intensity
64.0342	17
65.0429	29
72.9867	11
74.0168	27
75.0252	73
76.0318	14
77.0405	224
78.0498	19
87.0245	22
88.0314	14
89.0395	109
91.0574	11
92.0289	21
101.0371	78
102.0456	50
103.0584	9
110.9984	14
113.0379	145
114.0364	35
115.0531	114
116.0474	35
125.0376	40
126.0465	92
127.0531	148
128.0492	192
137.0381	47
138.0457	55
139.0538	350
139.1011	19
140.0489	524
141.0573	21
149.0404	14
150.0451	162
151.0535	516
152.0615	999
153.0578	143
154.0638	57
163.0521	39
164.0481	174
165.0557	52
166.065	140
173.0147	11
174.0098	9
176.0491	17
177.0571	128
177.0936	11
178.0649	702
179.0717	555
180.0793	286
207.0629	9
208.074	13
