Mass spectrum: Carbaryl; LC-ESI-QTOF; MS2; 60 V
Name: Carbaryl
Class: Insecticide
Formula: C12H11NO2
Exact mass: 201.079
SMILES: CNC(=O)Oc1cccc2ccccc12
InChI: InChI=1S/C12H11NO2/c1-13-12(14)15-11-8-4-6-9-5-2-3-7-10(9)11/h2-8H,1H3,(H,13,14)
Instrument: TripleTOF 5600 SCIEX
Instrument type: LC-ESI-QTOF
Ms type: MS2
Ion mode: POSITIVE
Collision energy: 60
Fragmentation mode: CID
Ionization: ESI
Column name: Zorbax Eclipse Plus C18 2.1 mm x 150 mm, 3.5 um, Agilent
Retention time: 10.147 min
Precursor m/z: 202.0863
Precursor type: [M+H]+
m/z	relative intensity
58.0333	43
65.0428	100
75.0266	58
77.0412	521
89.041	40
91.0558	587
101.04	115
102.047	10
115.0547	847
116.0621	71
117.0699	115
125.0378	12
126.0466	259
127.0546	999
128.0605	23
129.0444	16
144.0567	40
145.0654	10
155.0625	23
