Mass spectrum: Meptazinol; LC-ESI-QTOF; MS2; 120 V
Name: Meptazinol
Class: Pharmaceutical
Formula: C15H23NO
Exact mass: 233.178
SMILES: CCC1(CCCCN(C1)C)C2=CC(=CC=C2)O
InChI: InChI=1S/C15H23NO/c1-3-15(9-4-5-10-16(2)12-15)13-7-6-8-14(17)11-13/h6-8,11,17H,3-5,9-10,12H2,1-2H3
Instrument: TripleTOF 5600 SCIEX
Instrument type: LC-ESI-QTOF
Ms type: MS2
Ion mode: POSITIVE
Collision energy: 120
Fragmentation mode: CID
Ionization: ESI
Column name: Zorbax Eclipse Plus C18 2.1 mm x 150 mm, 3.5 um, Agilent
Retention time: 5.641 min
Precursor m/z: 234.1852
Precursor type: [M+H]+
m/z	relative intensity
35.9993	13
37.007	62
38.0152	39
39.0228	180
41.0392	36
42.0336	55
44.0494	199
49.007	52
50.015	294
51.0231	999
53.0382	39
54.0334	45
55.0176	49
55.0537	16
56.0497	16
61.0072	36
62.0146	81
63.0227	176
65.0385	131
68.0502	13
70.0653	52
74.0149	62
75.0228	45
76.0313	32
77.0385	900
78.0464	39
79.0542	32
81.0315	16
89.0387	98
91.0544	49
102.0475	36
103.0542	39
115.0528	150
126.0467	26
127.0507	22
128.0607	22
