Mass spectrum: N,N-bis(ethoxycarbonyl)-4-methyl-1,3-phenylenediamine; LC-ESI-QTOF; MS2; 90 V
Name: N,N-bis(ethoxycarbonyl)-4-methyl-1,3-phenylenediamine
Class: Pharmaceutical
Formula: C13H18N2O4
Exact mass: 266.1267
SMILES: CCOC(=O)NC1=CC(=C(C=C1)C)NC(=O)OCC
InChI: InChI=1S/C13H18N2O4/c1-4-18-12(16)14-10-7-6-9(3)11(8-10)15-13(17)19-5-2/h6-8H,4-5H2,1-3H3,(H,14,16)(H,15,17)
Instrument: TripleTOF 5600 SCIEX
Instrument type: LC-ESI-QTOF
Ms type: MS2
Ion mode: POSITIVE
Collision energy: 90
Fragmentation mode: CID
Ionization: ESI
Column name: Zorbax Eclipse Plus C18 2.1 mm x 150 mm, 3.5 um, Agilent
Retention time: 10.056 min
Precursor m/z: 267.1339
Precursor type: [M+H]+
m/z	relative intensity
65.0457	91
67.0483	33
67.0591	22
75.0263	15
77.0438	999
78.0387	110
79.0548	112
80.0536	51
89.0427	27
91.0446	15
91.0563	14
92.0526	56
93.0597	44
94.068	65
102.0346	16
104.0512	60
105.0467	99
106.0633	95
108.0701	13
115.0543	10
117.0591	10
118.0648	10
119.0603	14
121.0761	18
134.0464	15
147.0563	12
