Mass spectrum: 4`-Methylacetanilide; LC-ESI-QTOF; MS2; 20 V
Name: 4`-Methylacetanilide
Class: Industrial_process
Formula: C9H11NO
Exact mass: 149.0841
InChI: InChI=1S/C9H11NO/c1-7-3-5-9(6-4-7)10-8(2)11/h3-6H,1-2H3,(H,10,11)
Instrument: TripleTOF 5600 SCIEX
Instrument type: LC-ESI-QTOF
Ms type: CID
Ion mode: POSITIVE
Collision energy: 20
Ionization: ESI
Column name: Zorbax Eclipse Plus C18 2.1 mm x 150 mm, 3.5 um, Agilent
Retention time: 7.709 min
Precursor m/z: 150.0913
Precursor type: [M+H]+
m/z	relative intensity
43.0285	19
91.0543	13
93.0576	132
108.0807	999
150.0907	505
