Mass spectrum: Pregabalin; LC-ESI-QTOF; MS2; 40 V
Name: Pregabalin
Class: Pharmaceutical
Formula: C8H17NO2
Exact mass: 159.1259
SMILES: CC(C)C[C@H](CN)CC(O)=O
InChI: InChI=1S/C8H17NO2/c1-6(2)3-7(5-9)4-8(10)11/h6-7H,3-5,9H2,1-2H3,(H,10,11)/t7-/m0/s1
Instrument: TripleTOF 5600 SCIEX
Instrument type: LC-ESI-QTOF
Ms type: MS2
Ion mode: POSITIVE
Collision energy: 40
Fragmentation mode: CID
Ionization: ESI
Column name: Zorbax Eclipse Plus C18 2.1 mm x 150 mm, 3.5 um, Agilent
Retention time: 5.167 min
Precursor m/z: 160.1332
Precursor type: [M+H]+
m/z	relative intensity
45.0408	15
53.0444	33
55.0233	230
55.0439	20
55.0603	999
57.0739	41
59.054	67
65.0426	20
67.0573	23
68.0525	100
69.0366	41
69.0733	111
77.0413	33
79.0564	75
81.0723	36
82.0664	59
83.0518	33
83.0879	155
91.0551	72
97.1026	23
105.0697	25
107.0851	15
124.1113	31
