Mass spectrum: Thiabendazole; LC-ESI-QTOF; MS2; 100 V
Name: Thiabendazole
Class: Fungicide; Pharmaceutical
Formula: C10H7N3S
Exact mass: 201.0361
SMILES: [nH]1c2ccccc2nc1c3cscn3
InChI: InChI=1S/C10H7N3S/c1-2-4-8-7(3-1)12-10(13-8)9-5-14-6-11-9/h1-6H,(H,12,13)
Instrument: TripleTOF 5600 SCIEX
Instrument type: LC-ESI-QTOF
Ms type: MS2
Ion mode: POSITIVE
Collision energy: 100
Fragmentation mode: CID
Ionization: ESI
Column name: Zorbax Eclipse Plus C18 2.1 mm x 150 mm, 3.5 um, Agilent
Retention time: 5.203 min
Precursor m/z: 202.0433
Precursor type: [M+H]+
m/z	relative intensity
51.0301	369
52.0246	108
56.9851	86
62.0381	43
64.0352	97
65.043	999
68.9833	119
74.018	206
75.0111	43
75.0259	141
76.0209	65
76.0319	54
77.0401	597
91.0433	152
