Mass spectrum: Decane-1-sulfonic acid; LC-ESI-QTOF; MS2; 130 V
Name: Decane-1-sulfonic acid
Formula: C10H22O3S
Exact mass: 222.129
SMILES: CCCCCCCCCCS(=O)(=O)O
InChI: InChI=1S/C10H22O3S/c1-2-3-4-5-6-7-8-9-10-14(11,12)13/h2-10H2,1H3,(H,11,12,13)
Instrument: TripleTOF 6600 SCIEX
Instrument type: LC-ESI-QTOF
Ms type: MS2
Ion mode: NEGATIVE
Collision energy: 130
Fragmentation mode: CID
Ionization: ESI
Column name: Zorbax Eclipse Plus C18 2.1 mm x 150 mm, 3.5 um, Agilent
Retention time: 11.505 min
Precursor m/z: 221.1217
Precursor type: [M-H]-
m/z	relative intensity
47.9663	59
63.9616	562
79.9563	999
