Mass spectrum: O-desmethyl-venlafaxine; LC-ESI-QTOF; MS2; 120 V
Name: O-desmethyl-venlafaxine
Class: Metabolite; Pharmaceutical; Transformation_product-Metabolite
Formula: C16H25NO2
Exact mass: 263.1885
SMILES: CN(C)CC(C1=CC=C(C=C1)O)C2(CCCCC2)O
InChI: InChI=1S/C16H25NO2/c1-17(2)12-15(13-6-8-14(18)9-7-13)16(19)10-4-3-5-11-16/h6-9,15,18-19H,3-5,10-12H2,1-2H3
Instrument: TripleTOF 5600 SCIEX
Instrument type: LC-ESI-QTOF
Ms type: MS2
Ion mode: POSITIVE
Collision energy: 120
Fragmentation mode: CID
Ionization: ESI
Column name: Zorbax Eclipse Plus C18 2.1 mm x 150 mm, 3.5 um, Agilent
Retention time: 5.367 min
Precursor m/z: 264.1958
Precursor type: [M+H]+
m/z	relative intensity
42.0482	318
43.0555	98
44.0629	44
55.0262	60
56.0563	16
56.0661	16
58.0742	999
65.0459	159
66.0535	30
75.0291	27
77.0442	958
78.05	27
79.0593	135
81.0371	23
81.0742	54
89.0421	74
91.0569	142
102.0493	13
103.0559	33
107.0523	101
115.0556	145
126.0461	20
128.0574	20
