Mass spectrum: Primidone; LC-ESI-QTOF; MS2; 120 V
Name: Primidone
Class: Pharmaceutical
Formula: C12H14N2O2
Exact mass: 218.1055
SMILES: CCC1(C(=O)NCNC1=O)c2ccccc2
InChI: InChI=1S/C12H14N2O2/c1-2-12(9-6-4-3-5-7-9)10(15)13-8-14-11(12)16/h3-7H,2,8H2,1H3,(H,13,15)(H,14,16)
Instrument: TripleTOF 5600 SCIEX
Instrument type: LC-ESI-QTOF
Ms type: MS2
Ion mode: POSITIVE
Collision energy: 120
Fragmentation mode: CID
Ionization: ESI
Column name: Zorbax Eclipse Plus C18 2.1 mm x 150 mm, 3.5 um, Agilent
Retention time: 6.353 min
Precursor m/z: 219.1128
Precursor type: [M+H]+
m/z	relative intensity
44.0214	277
51.0273	999
65.0423	832
74.0171	333
75.0249	277
77.0403	888
77.0553	222
89.0388	555
91.0569	277
