Mass spectrum: 5-Chloro-2-hydroxybenzophenone; LC-ESI-QTOF; MS2; 90 V
Name: 5-Chloro-2-hydroxybenzophenone
Class: Industrial_process; Personal_care_product
Formula: C13H9ClO2
Exact mass: 232.0291
SMILES: Oc1ccc(Cl)cc1C(=O)c2ccccc2
InChI: InChI=1S/C13H9ClO2/c14-10-6-7-12(15)11(8-10)13(16)9-4-2-1-3-5-9/h1-8,15H
Instrument: TripleTOF 5600 SCIEX
Instrument type: LC-ESI-QTOF
Ms type: MS2
Ion mode: POSITIVE
Collision energy: 90
Fragmentation mode: CID
Ionization: ESI
Column name: Zorbax Eclipse Plus C18 2.1 mm x 150 mm, 3.5 um, Agilent
Retention time: 14.196 min
Precursor m/z: 233.0364
Precursor type: [M+H]+
m/z	relative intensity
72.9868	999
77.0416	173
98.9983	97
