Mass spectrum: 3,4,5-Trimethoxybenzoic acid; LC-ESI-QTOF; MS2; 10 V
Name: 3,4,5-Trimethoxybenzoic acid
Class: Pharmaceutical; Industrial_process; Metabolite
Formula: C10H12O5
Exact mass: 212.0685
SMILES: COc1cc(cc(OC)c1OC)C(O)=O
InChI: InChI=1S/C10H12O5/c1-13-7-4-6(10(11)12)5-8(14-2)9(7)15-3/h4-5H,1-3H3,(H,11,12)
Instrument: TripleTOF 5600 SCIEX
Instrument type: LC-ESI-QTOF
Ms type: MS2
Ion mode: POSITIVE
Collision energy: 10
Fragmentation mode: CID
Ionization: ESI
Column name: Zorbax Eclipse Plus C18 2.1 mm x 150 mm, 3.5 um, Agilent
Retention time: 7.633 min
Precursor m/z: 213.0757
Precursor type: [M+H]+
m/z	relative intensity
137.0597	14
138.0672	11
154.0626	342
169.0861	329
195.0656	12
213.0765	999
