Mass spectrum: Nifedipine; LC-ESI-QTOF; MS2; 50 V
Name: Nifedipine
Class: Pharmaceutical
Formula: C17H18N2O6
Exact mass: 346.1165
SMILES: CC1=C(C(C(=C(N1)C)C(=O)OC)C2=CC=CC=C2[N+](=O)[O-])C(=O)OC
InChI: InChI=1S/C17H18N2O6/c1-9-13(16(20)24-3)15(14(10(2)18-9)17(21)25-4)11-7-5-6-8-12(11)19(22)23/h5-8,15,18H,1-4H3
Instrument: TripleTOF 5600 SCIEX
Instrument type: LC-ESI-QTOF
Ms type: MS2
Ion mode: POSITIVE
Collision energy: 50
Fragmentation mode: CID
Ionization: ESI
Column name: Zorbax Eclipse Plus C18 2.1 mm x 150 mm, 3.5 um, Agilent
Retention time: 10.896 min
Precursor m/z: 347.1238
Precursor type: [M+H]+
m/z	relative intensity
115.0568	127
116.0506	18
117.0603	12
122.0256	38
127.0557	74
128.058	69
129.0697	43
130.0675	23
139.0561	11
140.0511	80
141.0683	58
142.0665	77
143.0751	33
144.0451	32
151.0552	37
152.0515	60
153.0587	68
154.0657	126
155.0707	44
156.0531	11
156.0819	36
166.0663	150
167.0727	321
168.0793	259
169.0761	76
170.061	103
178.0658	27
179.0614	165
180.071	115
181.0771	195
182.0846	110
183.0922	142
184.0756	26
185.0709	15
186.0557	11
192.0676	72
193.0763	578
194.0839	770
195.0915	999
196.0989	186
197.0732	31
198.0909	35
208.0751	66
209.0711	62
210.0901	79
211.0862	150
212.0971	12
213.0661	37
214.0495	19
221.0715	179
222.0792	58
223.0865	621
224.0719	44
225.0805	16
226.0863	255
228.0895	12
236.0702	34
238.0738	12
239.0815	328
240.0988	10
252.0662	33
253.0968	445
254.1039	278
268.0942	24
270.0756	68
284.0902	44
