Mass spectrum: Dicloxacillin; LC-ESI-QTOF; MS2; 50 V
Name: Dicloxacillin
Formula: C19H17Cl2N3O5S
Exact mass: 469.0266
SMILES: CC1=C(C(=NO1)C2=C(C=CC=C2Cl)Cl)C(=O)NC3C4N(C3=O)C(C(S4)(C)C)C(=O)O
InChI: InChI=1S/C19H17Cl2N3O5S/c1-7-10(12(23-29-7)11-8(20)5-4-6-9(11)21)15(25)22-13-16(26)24-14(18(27)28)19(2,3)30-17(13)24/h4-6,13-14,17H,1-3H3,(H,22,25)(H,27,28)
Instrument: TripleTOF 6600 SCIEX
Instrument type: LC-ESI-QTOF
Ms type: MS2
Ion mode: NEGATIVE
Collision energy: 50
Fragmentation mode: CID
Ionization: ESI
Column name: Zorbax Eclipse Plus C18 2.1 mm x 150 mm, 3.5 um, Agilent
Retention time: 11.23 min
Precursor m/z: 468.0193
Precursor type: [M-H]-
m/z	relative intensity
34.9686	568
41.9975	999
72.9969	117
74.9891	195
82.0279	176
83.0121	803
159.9699	235
168.0429	97
182.0123	97
190.9991	450
212.0103	254
216.0084	176
225.9822	156
232.9696	137
233.0085	959
239.9971	156
242.9933	97
248.9858	137
255.0225	78
257.0065	97
258.0151	293
275.9726	156
