Mass spectrum: Tetraethylene glycol; LC-ESI-QTOF; MS2; 140 V
Name: Tetraethylene glycol
Class: Industrial_process; Personal_care_product
Formula: C8H18O5
Exact mass: 194.1154
SMILES: C(COCCOCCOCCO)O
InChI: InChI=1S/C8H18O5/c9-1-3-11-5-7-13-8-6-12-4-2-10/h9-10H,1-8H2
Instrument: TripleTOF 6600 SCIEX
Instrument type: LC-ESI-QTOF
Ms type: MS2
Ion mode: POSITIVE
Collision energy: 140
Fragmentation mode: CID
Ionization: ESI
Column name: Zorbax Eclipse Plus C18 2.1 mm x 150 mm, 3.5 um, Agilent
Retention time: 4.68 min
Precursor m/z: 195.1227
Precursor type: [M+H]+
m/z	relative intensity
38.0024	285
42.009	742
43.0163	999
