Mass spectrum: Clopyralid; LC-ESI-QTOF; MS2; 50 V
Name: Clopyralid
Class: Herbicide
Formula: C6H3Cl2NO2
Exact mass: 190.9541
SMILES: C1=CC(=NC(=C1Cl)C(=O)O)Cl
InChI: InChI=1S/C6H3Cl2NO2/c7-3-1-2-4(8)9-5(3)6(10)11/h1-2H,(H,10,11)
Instrument: TripleTOF 6600 SCIEX
Instrument type: LC-ESI-QTOF
Ms type: MS2
Ion mode: POSITIVE
Collision energy: 50
Fragmentation mode: CID
Ionization: ESI
Column name: Zorbax Eclipse Plus C18 2.1 mm x 150 mm, 3.5 um, Agilent
Retention time: 5.727 min
Precursor m/z: 191.9614
Precursor type: [M+H]+
m/z	relative intensity
61.9785	73
75.0098	308
76.0182	16
83.9748	53
84.9837	23
109.9781	999
110.9812	19
118.9449	46
145.9541	175
