Mass spectrum: Thieno[3,2-b]pyridin-7-ol; LC-ESI-QTOF; MS2; 50 V
Name: Thieno[3,2-b]pyridin-7-ol
Formula: C7H5NOS
Exact mass: 151.0092
SMILES: C1=CNC2=C(C1=O)SC=C2
InChI: InChI=1S/C7H5NOS/c9-6-1-3-8-5-2-4-10-7(5)6/h1-4H,(H,8,9)
Instrument: TripleTOF 6600 SCIEX
Instrument type: LC-ESI-QTOF
Ms type: MS2
Ion mode: POSITIVE
Collision energy: 50
Fragmentation mode: CID
Ionization: ESI
Column name: Zorbax Eclipse Plus C18 2.1 mm x 150 mm, 3.5 um, Agilent
Retention time: 4.72 min
Precursor m/z: 152.0165
Precursor type: [M+H]+
m/z	relative intensity
37.0074	41
38.0155	39
39.0233	470
44.0137	33
44.9796	195
51.0223	30
52.0182	14
53.0026	111
53.0388	408
54.0337	30
55.0177	49
56.979	27
57.9871	29
61.0061	11
62.0148	11
63.0232	164
64.0173	13
64.0299	14
65.0379	23
66.0335	26
67.0414	189
68.0142	90
68.9794	121
69.9872	11
70.995	91
75.0104	19
76.0182	160
78.0339	30
79.0416	23
80.0496	999
80.9794	17
81.9868	13
82.9952	363
83.9902	42
84.0022	65
84.9731	12
90.0339	112
91.0411	44
94.0285	204
94.9946	16
96.0031	48
97.0105	956
98.0047	46
100.0216	59
106.9943	29
108.0434	52
110.0057	456
111.0011	74
111.9842	34
120.0436	68
122.004	15
123.0127	59
124.0205	68
134.0058	128
152.0164	234
