Mass spectrum: Temazepam; LC-ESI-QTOF; MS2; 40 V
Name: Temazepam
Class: Pharmaceutical
Formula: C16H13ClN2O2
Exact mass: 300.0666
SMILES: CN1C2=C(C=C(C=C2)Cl)C(=NC(C1=O)O)C3=CC=CC=C3
InChI: InChI=1S/C16H13ClN2O2/c1-19-13-8-7-11(17)9-12(13)14(18-15(20)16(19)21)10-5-3-2-4-6-10/h2-9,15,20H,1H3
Instrument: TripleTOF 6600 SCIEX
Instrument type: LC-ESI-QTOF
Ms type: MS2
Ion mode: POSITIVE
Collision energy: 40
Fragmentation mode: CID
Ionization: ESI
Column name: Zorbax Eclipse Plus C18 2.1 mm x 150 mm, 3.5 um, Agilent
Retention time: 10.497 min
Precursor m/z: 301.0738
Precursor type: [M+H]+
m/z	relative intensity
125.0131	13
177.0202	73
180.0204	15
193.0879	95
205.0752	10
228.0567	33
239.0366	24
255.0686	999
