Mass spectrum: Ifosfamide; LC-ESI-QTOF; MS2; 30 V
Name: Ifosfamide
Class: Pharmaceutical
Formula: C7H15Cl2N2O2P
Exact mass: 260.0248
SMILES: ClCCN[P]1(=O)OCCCN1CCCl
InChI: InChI=1S/C7H15Cl2N2O2P/c8-2-4-10-14(12)11(6-3-9)5-1-7-13-14/h1-7H2,(H,10,12)
Instrument: TripleTOF 5600 SCIEX
Instrument type: LC-ESI-QTOF
Ms type: MS2
Ion mode: POSITIVE
Collision energy: 30
Fragmentation mode: CID
Ionization: ESI
Column name: Zorbax Eclipse Plus C18 2.1 mm x 150 mm, 3.5 um, Agilent
Retention time: 7.429 min
Precursor m/z: 261.0321
Precursor type: [M+H]+
m/z	relative intensity
56.0573	23
63.0038	84
78.0136	308
82.0684	12
92.0281	802
106.0048	17
115.9645	13
118.0052	26
118.0401	13
120.0572	146
125.9502	81
126.9704	9
127.9654	32
128.0262	24
141.9814	31
146.0361	82
153.9824	999
182.0131	305
233.0001	408
261.031	324
