Mass spectrum: Sulpiride; LC-ESI-QTOF; MS2; 130 V
Name: Sulpiride
Class: Pharmaceutical
Formula: C15H23N3O4S
Exact mass: 341.1409
SMILES: CCN1CCCC1CNC(=O)c2cc(ccc2OC)[S](N)(=O)=O
InChI: InChI=1S/C15H23N3O4S/c1-3-18-8-4-5-11(18)10-17-15(19)13-9-12(23(16,20)21)6-7-14(13)22-2/h6-7,9,11H,3-5,8,10H2,1-2H3,(H,17,19)(H2,16,20,21)
Instrument: TripleTOF 5600 SCIEX
Instrument type: LC-ESI-QTOF
Ms type: MS2
Ion mode: POSITIVE
Collision energy: 130
Fragmentation mode: CID
Ionization: ESI
Column name: Zorbax Eclipse Plus C18 2.1 mm x 150 mm, 3.5 um, Agilent
Retention time: 4.958 min
Precursor m/z: 342.1482
Precursor type: [M+H]+
m/z	relative intensity
42.0433	148
51.0298	361
52.0364	159
55.0573	42
56.0548	180
56.0663	74
58.0697	191
62.0295	53
65.0419	53
67.044	42
67.0559	53
68.0544	53
70.069	276
74.018	616
75.026	999
76.0336	414
77.0432	159
78.0443	95
79.0215	116
80.0521	53
82.0667	116
84.0822	159
91.0192	244
96.079	63
98.0953	138
98.1062	53
