Mass spectrum: 3-Amino-5-methylisoxazole; LC-ESI-QTOF; MS2; 70 V
Name: 3-Amino-5-methylisoxazole
Formula: C4H6N2O
Exact mass: 98.048
SMILES: CC1=CC(=NO1)N
InChI: InChI=1S/C4H6N2O/c1-3-2-4(5)6-7-3/h2H,1H3,(H2,5,6)
Instrument: TripleTOF 6600 SCIEX
Instrument type: LC-ESI-QTOF
Ms type: MS2
Ion mode: POSITIVE
Collision energy: 70
Fragmentation mode: CID
Ionization: ESI
Column name: Zorbax Eclipse Plus C18 2.1 mm x 150 mm, 3.5 um, Agilent
Retention time: 4.412 min
Precursor m/z: 99.0553
Precursor type: [M+H]+
m/z	relative intensity
30.0333	23
37.0063	33
38.0017	47
38.0139	23
39.0214	23
40.0168	85
41.025	23
42.0203	108
42.0326	56
43.018	194
43.028	999
44.012	75
44.0484	18
