Mass spectrum: Ethyldiphenylphosphine oxide; LC-ESI-QTOF; MS2; 120 V
Name: Ethyldiphenylphosphine oxide
Class: Industrial_process
Formula: C14H15OP
Exact mass: 230.0861
SMILES: CC[P](=O)(c1ccccc1)c2ccccc2
InChI: InChI=1S/C14H15OP/c1-2-16(15,13-9-5-3-6-10-13)14-11-7-4-8-12-14/h3-12H,2H2,1H3
Instrument: TripleTOF 5600 SCIEX
Instrument type: LC-ESI-QTOF
Ms type: MS2
Ion mode: POSITIVE
Collision energy: 120
Fragmentation mode: CID
Ionization: ESI
Column name: Zorbax Eclipse Plus C18 2.1 mm x 150 mm, 3.5 um, Agilent
Retention time: 8.816 min
Precursor m/z: 231.0933
Precursor type: [M+H]+
m/z	relative intensity
47.0004	177
51.0297	999
52.0359	114
56.9937	160
65.0434	137
67.9853	63
68.9922	57
74.018	241
75.0258	97
76.0339	132
77.0412	528
78.0493	166
78.9762	57
79.9833	160
80.9912	160
86.0176	68
87.0252	114
89.0406	166
98.0158	97
99.0244	51
102.0464	160
103.9813	63
107.0046	246
113.0368	51
115.0535	103
115.9825	51
125.0395	91
126.0465	396
139.0545	80
149.0393	63
150.0464	510
151.0542	510
152.0623	373
157.0203	86
163.0531	80
179.0042	80
181.0209	109
