Mass spectrum: Albendazole; LC-ESI-QTOF; MS2; 70 V
Name: Albendazole
Class: Pharmaceutical
Formula: C12H15N3O2S
Exact mass: 265.0885
SMILES: CCCSc1ccc2nc(NC(=O)OC)[nH]c2c1
InChI: InChI=1S/C12H15N3O2S/c1-3-6-18-8-4-5-9-10(7-8)14-11(13-9)15-12(16)17-2/h4-5,7H,3,6H2,1-2H3,(H2,13,14,15,16)
Instrument: TripleTOF 5600 SCIEX
Instrument type: LC-ESI-QTOF
Ms type: MS2
Ion mode: POSITIVE
Collision energy: 70
Fragmentation mode: CID
Ionization: ESI
Column name: Zorbax Eclipse Plus C18 2.1 mm x 150 mm, 3.5 um, Agilent
Retention time: 8.546 min
Precursor m/z: 266.0958
Precursor type: [M+H]+
m/z	relative intensity
68.983	12
69.9911	21
76.0217	31
77.0296	123
78.0368	34
79.0445	44
81.9899	19
90.0356	20
92.0391	167
92.9812	10
93.0463	12
93.9887	45
94.9966	26
96.0047	62
103.0399	68
104.0385	365
105.0453	61
106.0535	12
108.999	165
109.9941	12
110.0058	19
111.015	12
116.0377	14
118.0525	11
119.0491	376
119.9905	18
120.0555	27
120.9988	161
122.0065	149
123.0141	40
130.041	121
131.0488	536
132.0555	22
133.0644	30
135.0018	32
136.0103	382
137.0175	38
147.0017	12
147.0433	80
148.0102	13
149.018	17
158.0362	68
159.0442	999
160.0515	20
162.0133	47
163.021	284
164.0286	45
190.0069	60
191.0158	339
192.0235	17
