Mass spectrum: Citalopram-N-oxide; LC-ESI-QTOF; MS2; 150 V
Name: Citalopram-N-oxide
Class: Metabolite; Pharmaceutical; Transformation_product
Formula: C20H21FN2O2
Exact mass: 340.1587
SMILES: C[N+](C)(CCCC1(C2=C(CO1)C=C(C=C2)C#N)C3=CC=C(C=C3)F)[O-]
InChI: InChI=1S/C20H21FN2O2/c1-23(2,24)11-3-10-20(17-5-7-18(21)8-6-17)19-9-4-15(13-22)12-16(19)14-25-20/h4-9,12H,3,10-11,14H2,1-2H3
Instrument: TripleTOF 5600 SCIEX
Instrument type: LC-ESI-QTOF
Ms type: MS2
Ion mode: POSITIVE
Collision energy: 150
Fragmentation mode: CID
Ionization: ESI
Column name: Zorbax Eclipse Plus C18 2.1 mm x 150 mm, 3.5 um, Agilent
Retention time: 7.958 min
Precursor m/z: 341.166
Precursor type: [M+H]+
m/z	relative intensity
42.0435	192
51.0296	142
57.0186	999
58.0706	504
59.0331	54
59.0448	32
60.0041	32
60.0486	175
63.0544	27
63.0668	27
65.0421	60
70.0247	60
73.0115	65
74.0185	817
74.0564	21
75.0123	32
75.0268	532
75.042	60
76.0339	76
77.0417	164
78.0501	32
81.0164	137
83.0316	872
85.0093	131
86.0178	268
87.0256	378
88.0193	164
88.034	49
89.0404	389
90.0342	27
94.0234	98
95.0291	98
96.0396	49
97.007	32
98.0161	620
99.0098	38
99.0236	274
100.0319	82
102.048	65
105.0138	76
107.0293	219
109.0071	49
109.0451	153
110.0156	175
111.0238	153
112.018	60
113.0393	279
114.0338	98
115.0536	60
118.0237	54
120.0379	131
121.0086	43
122.0162	477
123.0096	38
123.0239	312
124.019	27
124.0306	65
125.0396	76
126.0461	98
127.0444	32
127.0555	49
128.0623	21
131.0294	153
132.0331	49
133.0451	131
134.0146	65
135.0103	27
135.0221	49
137.0393	148
138.0348	65
139.0574	54
140.0514	93
141.0138	38
142.0217	65
143.0299	38
144.0373	219
146.0166	236
147.012	65
147.0236	98
148.0299	120
149.0386	230
150.0459	263
151.0554	38
155.0305	104
156.0369	38
157.0445	87
158.0376	43
159.0203	54
161.0392	373
162.0463	164
163.055	192
164.0494	60
166.0246	49
167.0293	126
168.0385	455
169.0451	76
170.016	43
170.0541	60
171.0239	87
172.0308	76
173.0375	109
174.0465	225
175.043	137
179.0295	241
180.0372	192
181.0452	504
182.047	71
185.0374	170
186.0421	181
187.053	301
188.0498	257
191.0319	54
192.0369	318
193.0426	137
194.0533	49
195.0467	27
196.034	49
197.0389	285
198.0468	598
199.0472	268
200.0638	120
201.0582	49
203.03	60
204.0372	104
205.0446	301
206.0429	230
207.0513	49
208.0558	32
209.0401	43
210.0465	38
211.0533	373
212.0486	148
213.0687	65
215.0317	93
216.0386	439
217.045	323
218.0528	384
219.0518	87
222.0371	49
223.0432	170
224.0498	93
225.0581	148
229.0443	131
230.0399	126
231.061	93
232.0561	32
236.0513	65
237.0585	38
238.068	38
242.0462	65
243.0492	252
244.0591	32
245.0613	38
254.041	21
256.0528	49
