Mass spectrum: Demeclocycline; LC-ESI-QTOF; MS2; 70 V
Name: Demeclocycline
Class: Antimicrobial; Pharmaceutical
Formula: C21H21ClN2O8
Exact mass: 464.0986
SMILES: CN(C)C1C2CC3C(C4=C(C=CC(=C4C(=C3C(=O)C2(C(=C(C1=O)C(=O)N)O)O)O)O)Cl)O
InChI: InChI=1S/C21H21ClN2O8/c1-24(2)14-7-5-6-10(16(27)12-9(25)4-3-8(22)11(12)15(6)26)18(29)21(7,32)19(30)13(17(14)28)20(23)31/h3-4,6-7,14-15,25-27,30,32H,5H2,1-2H3,(H2,23,31)
Instrument: TripleTOF 5600 SCIEX
Instrument type: LC-ESI-QTOF
Ms type: MS2
Ion mode: POSITIVE
Collision energy: 70
Fragmentation mode: CID
Ionization: ESI
Column name: Zorbax Eclipse Plus C18 2.1 mm x 150 mm, 3.5 um, Agilent
Retention time: 5.787 min
Precursor m/z: 465.1059
Precursor type: [M+H]+
m/z	relative intensity
70.0711	57
98.0635	346
139.0296	41
152.0617	107
166.0518	49
168.0568	115
180.0564	49
182.0703	49
187.0326	115
196.0508	99
197.0577	107
198.0668	346
199.0294	99
210.0691	99
213.058	57
215.0265	255
220.047	49
224.0498	90
225.0611	49
226.0628	313
227.0211	66
231.0193	478
233.0355	181
238.0686	107
239.0254	49
241.002	41
242.0569	49
243.0189	140
245.0338	82
247.0116	74
250.0614	90
252.0396	222
255.0194	198
259.016	313
261.031	999
271.0127	90
273.021	57
273.0369	82
276.0507	33
283.021	140
285.0365	66
287.0112	165
289.0252	231
299.0086	41
301.0337	74
311.0098	66
313.023	198
317.0201	33
339.0022	49
341.0202	33
