Mass spectrum: Picoxystrobin; LC-ESI-QTOF; MS2; 130 V
Name: Picoxystrobin
Class: Fungicide
Formula: C18H16F3NO4
Exact mass: 367.1031
SMILES: COC=C(C1=CC=CC=C1COC2=CC=CC(=N2)C(F)(F)F)C(=O)OC
InChI: InChI=1S/C18H16F3NO4/c1-24-11-14(17(23)25-2)13-7-4-3-6-12(13)10-26-16-9-5-8-15(22-16)18(19,20)21/h3-9,11H,10H2,1-2H3
Instrument: TripleTOF 6600 SCIEX
Instrument type: LC-ESI-QTOF
Ms type: MS2
Ion mode: POSITIVE
Collision energy: 130
Fragmentation mode: CID
Ionization: ESI
Column name: Zorbax Eclipse Plus C18 2.1 mm x 150 mm, 3.5 um, Agilent
Retention time: 13.935 min
Precursor m/z: 368.1104
Precursor type: [M+H]+
m/z	relative intensity
39.023	52
50.0155	137
51.023	124
52.031	39
61.0077	20
62.0151	39
63.0224	99
65.0384	89
73.008	14
74.0151	144
75.0227	38
76.031	446
77.0387	437
78.0462	30
86.014	14
87.023	29
89.0384	97
91.0542	104
101.038	12
102.0465	999
103.0544	171
105.044	10
115.0541	177
127.053	10
128.0618	20
