Mass spectrum: Hexa(methoxymethyl)melamine; LC-ESI-QTOF; MS2; 90 V
Name: Hexa(methoxymethyl)melamine
Formula: C15H30N6O6
Exact mass: 390.2227
SMILES: COCN(COC)C1=NC(=NC(=N1)N(COC)COC)N(COC)COC
InChI: InChI=1S/C15H30N6O6/c1-22-7-19(8-23-2)13-16-14(20(9-24-3)10-25-4)18-15(17-13)21(11-26-5)12-27-6/h7-12H2,1-6H3
Instrument: TripleTOF 6600 SCIEX
Instrument type: LC-ESI-QTOF
Ms type: MS2
Ion mode: POSITIVE
Collision energy: 90
Fragmentation mode: CID
Ionization: ESI
Column name: Zorbax Eclipse Plus C18 2.1 mm x 150 mm, 3.5 um, Agilent
Retention time: 9.543 min
Precursor m/z: 391.23
Precursor type: [M+H]+
m/z	relative intensity
42.0338	270
45.0336	975
53.0125	24
55.0289	101
56.0496	15
67.0293	15
68.0232	26
69.0444	999
80.0236	356
82.0394	35
94.0388	50
96.0545	53
107.0327	26
121.0498	12
148.0585	13
177.0873	85
