Mass spectrum: Sitagliptin-N-sulfate; LC-ESI-QTOF; MS2; 100 V
Name: Sitagliptin-N-sulfate
Class: Metabolite; Pharmaceutical
Formula: C16H15F6N5O4S
Exact mass: 487.0749
InChI: InChI=1S/C16H15F6N5O4S/c17-10-6-12(19)11(18)4-8(10)3-9(25-32(29,30)31)5-14(28)26-1-2-27-13(7-26)23-24-15(27)16(20,21)22/h4,6,9,25H,1-3,5,7H2,(H,29,30,31)
Instrument: TripleTOF 5600 SCIEX
Instrument type: LC-ESI-QTOF
Ms type: CID
Ion mode: POSITIVE
Collision energy: 100
Ionization: ESI
Column name: Zorbax Eclipse Plus C18 2.1 mm x 150 mm, 3.5 um, Agilent
Retention time: 8.049 min
Precursor m/z: 488.0822
Precursor type: [M+H]+
m/z	relative intensity
127.0345	999
134.0434	87
145.0242	105
150.0292	87
151.0357	105
154.0443	122
174.0537	87
