Mass spectrum: Ampicillin; LC-ESI-QTOF; MS2; 90 V
Name: Ampicillin
Class: Pharmaceutical
Formula: C16H19N3O4S
Exact mass: 349.1096
SMILES: CC1(C)S[C@@H]2[C@H](NC(=O)[C@H](N)c3ccccc3)C(=O)N2[C@H]1C(O)=O
InChI: InChI=1S/C16H19N3O4S/c1-16(2)11(15(22)23)19-13(21)10(14(19)24-16)18-12(20)9(17)8-6-4-3-5-7-8/h3-7,9-11,14H,17H2,1-2H3,(H,18,20)(H,22,23)/t9-,10-,11+,14-/m1/s1
Instrument: TripleTOF 5600 SCIEX
Instrument type: LC-ESI-QTOF
Ms type: MS2
Ion mode: POSITIVE
Collision energy: 90
Fragmentation mode: CID
Ionization: ESI
Column name: Zorbax Eclipse Plus C18 2.1 mm x 150 mm, 3.5 um, Agilent
Retention time: 5.367 min
Precursor m/z: 350.1169
Precursor type: [M+H]+
m/z	relative intensity
39.031	13
53.0453	36
59.0008	56
65.0413	144
68.0162	40
68.0516	26
70.0677	77
74.0094	16
77.041	442
78.0464	16
79.0565	814
86.0066	157
86.0239	16
87.0276	100
89.039	117
90.0471	181
91.0553	807
101.0386	26
102.0467	20
103.0532	107
104.0512	16
106.0651	999
114.0013	53
114.0361	130
115.052	33
116.0568	30
117.057	305
118.0374	16
118.0638	204
120.0823	23
121.0096	204
128.0483	50
130.0636	80
135.0242	13
147.0251	30
173.0266	23
