Mass spectrum: Trimethoprim; LC-ESI-QTOF; MS2; 50 V
Name: Trimethoprim
Class: Pharmaceutical
Formula: C14H18N4O3
Exact mass: 290.1379
SMILES: COC1=CC(=CC(=C1OC)OC)CC2=CN=C(N=C2N)N
InChI: InChI=1S/C14H18N4O3/c1-19-10-5-8(6-11(20-2)12(10)21-3)4-9-7-17-14(16)18-13(9)15/h5-7H,4H2,1-3H3,(H4,15,16,17,18)
Instrument: TripleTOF 5600 SCIEX
Instrument type: LC-ESI-QTOF
Ms type: MS2
Ion mode: POSITIVE
Collision energy: 50
Fragmentation mode: CID
Ionization: ESI
Column name: Zorbax Eclipse Plus C18 2.1 mm x 150 mm, 3.5 um, Agilent
Retention time: 5.112 min
Precursor m/z: 291.1452
Precursor type: [M+H]+
m/z	relative intensity
54.034	20
60.0557	15
68.0371	61
77.0381	14
81.0451	343
83.0474	47
91.0538	25
94.0642	12
95.0502	17
106.0406	34
107.0483	34
109.0512	47
110.0592	569
111.0663	146
115.0545	33
116.0501	14
119.05	30
120.0562	23
121.0764	17
123.0668	999
124.0751	88
128.0496	29
130.0661	13
131.057	34
132.0427	19
135.0454	13
135.0676	47
137.0601	76
140.0498	15
142.0646	54
143.0606	22
144.0591	11
145.0766	44
146.0692	84
147.0454	18
147.0667	25
148.0541	30
148.0743	34
149.0257	22
149.074	139
151.0393	94
153.0489	11
155.0603	13
156.0449	40
157.0776	24
158.0614	36
159.0903	35
160.0795	27
161.0827	198
162.0916	119
163.0981	15
165.0561	28
167.0603	14
169.0726	14
170.0654	88
171.0584	19
172.0422	18
172.0759	35
173.051	13
173.0803	66
174.0657	231
175.0403	11
175.0604	39
175.0992	49
176.0711	33
181.0869	20
182.073	23
184.0878	55
185.08	66
186.0583	44
186.0886	44
187.0974	321
188.0779	19
188.1048	12
189.0759	77
190.0866	119
191.092	80
197.0824	19
198.0661	42
199.0982	105
200.0335	12
200.0743	19
200.1065	29
201.0803	33
201.1141	392
202.0506	15
202.0883	14
202.1217	30
203.0934	95
204.0964	15
205.1081	15
211.0977	36
212.0821	30
212.0988	12
213.0787	61
213.1141	19
214.0623	14
214.0865	50
215.0628	20
215.0942	122
216.0784	46
216.1024	25
217.0658	46
217.1083	42
218.0798	25
219.0777	19
227.0951	39
228.1041	33
229.1102	624
230.0901	23
230.1169	147
231.0888	251
232.0966	520
233.1042	462
239.0953	20
242.0649	44
243.0898	40
244.074	13
245.0707	12
245.1055	355
246.1136	12
247.1181	47
255.0908	19
257.1042	549
259.0832	171
259.1209	11
261.0999	477
275.1155	325
