Mass spectrum: 2-isopropyl-5,6-dimethyl-1H-benzimidazole; LC-ESI-QTOF; MS2; 80 V
Name: 2-isopropyl-5,6-dimethyl-1H-benzimidazole
Formula: C12H16N2
Exact mass: 188.1313
SMILES: CC1=CC2=C(C=C1C)N=C(N2)C(C)C
InChI: InChI=1S/C12H16N2/c1-7(2)12-13-10-5-8(3)9(4)6-11(10)14-12/h5-7H,1-4H3,(H,13,14)
Instrument: TripleTOF 6600 SCIEX
Instrument type: LC-ESI-QTOF
Ms type: MS2
Ion mode: POSITIVE
Collision energy: 80
Fragmentation mode: CID
Ionization: ESI
Column name: Zorbax Eclipse Plus C18 2.1 mm x 150 mm, 3.5 um, Agilent
Retention time: 6.482 min
Precursor m/z: 189.1386
Precursor type: [M+H]+
m/z	relative intensity
39.0225	39
41.0379	17
50.0144	34
51.0225	208
53.0376	15
63.0219	21
65.0377	107
75.0221	13
77.0381	999
78.0333	25
78.045	103
79.0529	34
80.0481	37
89.0373	70
90.045	22
91.0531	377
92.048	15
93.0565	18
93.0673	49
102.0315	20
102.0446	14
103.0524	73
104.0484	281
105.0439	19
105.0541	26
106.0635	18
116.0481	31
117.0561	50
118.0624	65
119.0699	12
120.0798	51
129.043	21
130.0634	95
131.0592	383
132.0664	51
142.0504	40
143.0597	15
144.0671	10
145.074	35
155.0595	25
156.0654	22
157.0748	665
158.0823	41
171.0912	31
173.106	21
