Mass spectrum: Piroxicam; LC-ESI-QTOF; MS2; 40 V
Name: Piroxicam
Class: Pharmaceutical
Formula: C15H13N3O4S
Exact mass: 331.0627
SMILES: CN1C(=C(C2=CC=CC=C2S1(=O)=O)O)C(=O)NC3=CC=CC=N3
InChI: InChI=1S/C15H13N3O4S/c1-18-13(15(20)17-12-8-4-5-9-16-12)14(19)10-6-2-3-7-11(10)23(18,21)22/h2-9,19H,1H3,(H,16,17,20)
Instrument: TripleTOF 5600 SCIEX
Instrument type: LC-ESI-QTOF
Ms type: MS2
Ion mode: POSITIVE
Collision energy: 40
Fragmentation mode: CID
Ionization: ESI
Column name: Zorbax Eclipse Plus C18 2.1 mm x 150 mm, 3.5 um, Agilent
Retention time: 9.527 min
Precursor m/z: 332.07
Precursor type: [M+H]+
m/z	relative intensity
78.0397	179
95.0648	999
105.0489	23
107.0628	18
109.0121	11
121.0426	733
123.058	31
135.0574	12
136.09	25
137.0086	16
146.0598	10
148.0529	10
149.0603	24
153.0014	51
162.0665	11
164.0185	33
164.0833	99
168.9956	40
210.0217	66
