Mass spectrum: Omeprazole sulfide 5-carboxylic acid; LC-ESI-QTOF; MS2; 150 V
Name: Omeprazole sulfide 5-carboxylic acid
Class: Metabolite; Pharmaceutical
Formula: C17H17N3O4S
Exact mass: 359.094
SMILES: CC1=C(C(=CN=C1CSC2=NC3=C(N2)C=C(C=C3)OC)C(=O)O)OC
InChI: InChI=1S/C17H17N3O4S/c1-9-14(18-7-11(16(21)22)15(9)24-3)8-25-17-19-12-5-4-10(23-2)6-13(12)20-17/h4-7H,8H2,1-3H3,(H,19,20)(H,21,22)
Instrument: TripleTOF 5600 SCIEX
Instrument type: LC-ESI-QTOF
Ms type: MS2
Ion mode: POSITIVE
Collision energy: 150
Fragmentation mode: CID
Ionization: ESI
Column name: Zorbax Eclipse Plus C18 2.1 mm x 150 mm, 3.5 um, Agilent
Retention time: 5.75 min
Precursor m/z: 360.1013
Precursor type: [M+H]+
m/z	relative intensity
42.0452	184
43.0299	122
50.0255	376
52.0392	730
53.011	169
53.0467	276
54.0455	61
62.0214	84
63.0297	238
64.0262	30
64.0369	46
65.046	453
66.0405	315
66.0525	92
67.0485	122
68.0562	38
68.9837	138
69.9824	53
69.9937	53
74.0183	46
76.0225	61
77.0429	891
78.0387	645
79.0279	53
79.0477	999
80.0172	84
80.0549	345
81.9929	38
82.9984	76
89.0443	69
90.0402	53
91.0452	69
92.0536	192
93.0494	146
94.0676	38
94.9994	76
96.0055	53
97.0143	130
102.046	38
104.0522	92
105.0485	207
106.0349	38
106.0666	829
107.0754	30
110.0071	69
118.058	38
122.0063	38
134.0505	38
137.0189	122
140.0513	53
