Mass spectrum: Pyridoxine; LC-ESI-QTOF; MS2; 40 V
Name: Pyridoxine
Formula: C8H11NO3
Exact mass: 169.0739
SMILES: OC1=C(C)N=CC(CO)=C1CO
InChI: InChI=1S/C8H11NO3/c1-5-8(12)7(4-11)6(3-10)2-9-5/h2,10-12H,3-4H2,1H3
Instrument: TripleTOF 5600 SCIEX
Instrument type: LC-ESI-QTOF
Ms type: MS2
Ion mode: POSITIVE
Collision energy: 40
Fragmentation mode: CID
Ionization: ESI
Column name: Zorbax Eclipse Plus C18 2.1 mm x 150 mm, 3.5 um, Agilent
Retention time: 2.11 min
Precursor m/z: 170.0812
Precursor type: [M+H]+
m/z	relative intensity
39.0232	11
51.023	26
53.0382	24
65.0388	54
66.0467	27
67.0422	19
67.052	13
77.0385	405
78.0334	35
79.0542	196
80.0494	121
81.0572	113
93.0574	14
94.0649	98
95.0714	16
96.0817	41
106.0652	190
107.0731	14
108.0435	20
122.0598	17
123.066	45
124.0771	76
134.0599	999
137.051	16
152.0713	29
