Mass spectrum: Oxymetazoline; LC-ESI-QTOF; MS2; 50 V
Name: Oxymetazoline
Class: Pharmaceutical
Formula: C16H24N2O
Exact mass: 260.1889
SMILES: Cc1cc(c(c(c1CC2=NCCN2)C)O)C(C)(C)C
InChI: InChI=1S/C16H24N2O/c1-10-8-13(16(3,4)5)15(19)11(2)12(10)9-14-17-6-7-18-14/h8,19H,6-7,9H2,1-5H3,(H,17,18)
Instrument: TripleTOF 5600 SCIEX
Instrument type: LC-ESI-QTOF
Ms type: MS2
Ion mode: POSITIVE
Collision energy: 50
Fragmentation mode: CID
Ionization: ESI
Column name: Zorbax Eclipse Plus C18 2.1 mm x 150 mm, 3.5 um, Agilent
Retention time: 7.429 min
Precursor m/z: 261.1961
Precursor type: [M+H]+
m/z	relative intensity
42.0467	11
43.0255	26
44.0593	397
55.0462	11
55.06	50
57.0758	329
65.0425	20
67.0575	17
69.038	34
69.0744	12
71.0652	74
77.0419	140
79.0573	174
81.0711	15
83.0626	14
84.0711	182
85.0783	139
91.0568	430
93.0715	172
97.0773	23
103.055	52
104.0634	12
105.071	493
106.0774	22
107.0532	12
107.0862	216
109.1016	22
115.0548	63
115.0745	11
116.062	17
117.07	80
118.078	23
119.065	11
119.0858	332
120.0934	26
121.0652	351
121.1012	248
122.0733	42
127.0544	25
128.0622	77
129.0711	64
130.0766	31
131.0504	15
131.0857	90
132.096	12
133.0644	58
133.1015	357
134.0728	18
134.1073	30
135.0815	999
135.1153	79
136.0891	240
137.0966	110
141.07	22
142.0803	15
143.0861	185
144.0795	15
144.0916	20
145.0676	64
145.0994	53
146.0724	90
146.0941	26
147.0808	96
147.1162	88
148.0869	33
148.1013	11
148.1249	82
149.0962	435
149.1304	45
157.0995	14
158.0926	11
158.1088	106
159.0816	61
159.1178	14
160.0745	45
160.0874	49
160.1109	36
161.0967	748
162.0927	31
162.1039	22
163.1138	61
163.1478	45
171.0909	53
172.0833	12
172.1002	55
173.102	45
173.1325	39
174.0905	102
175.1077	224
176.1178	118
177.1285	148
185.1075	93
186.092	12
186.115	53
187.0909	25
187.124	61
188.1044	324
189.111	197
189.1426	17
191.1429	53
198.1157	14
199.1251	11
200.13	11
201.1061	41
201.1395	288
202.1209	36
203.1177	189
204.1256	20
205.1336	645
211.1229	45
212.1311	15
213.1385	55
215.1197	18
216.1362	63
217.1347	197
218.1412	147
225.1394	39
227.1541	189
228.1621	11
229.1685	26
231.1491	826
245.1651	234
246.1691	14
261.1964	170
