Mass spectrum: Acetochlor; LC-ESI-QTOF; MS2; 50 V
Name: Acetochlor
Class: Herbicide
Formula: C14H20ClNO2
Exact mass: 269.1183
SMILES: CCC1=CC=CC(=C1N(COCC)C(=O)CCl)C
InChI: InChI=1S/C14H20ClNO2/c1-4-12-8-6-7-11(3)14(12)16(10-18-5-2)13(17)9-15/h6-8H,4-5,9-10H2,1-3H3
Instrument: TripleTOF 6600 SCIEX
Instrument type: LC-ESI-QTOF
Ms type: MS2
Ion mode: POSITIVE
Collision energy: 50
Fragmentation mode: CID
Ionization: ESI
Column name: Zorbax Eclipse Plus C18 2.1 mm x 150 mm, 3.5 um, Agilent
Retention time: 13.251 min
Precursor m/z: 270.1255
Precursor type: [M+H]+
m/z	relative intensity
31.0172	133
41.0379	31
45.0327	325
48.983	70
59.0491	47
76.9783	27
77.0372	27
79.052	23
90.0096	78
91.0526	164
103.0524	27
105.0681	109
106.0639	23
115.0524	86
116.0607	47
117.0564	125
118.0637	105
119.0727	58
120.082	31
128.0607	39
129.0681	31
130.0618	62
130.0748	23
131.072	58
132.0793	999
133.062	19
133.0873	885
134.096	35
142.0642	19
143.0724	35
144.078	86
145.0855	27
146.0934	176
147.1023	568
148.0839	19
148.1106	133
149.0951	23
156.0815	43
157.0878	39
158.0926	27
162.1254	160
163.1105	39
168.0776	23
169.0847	19
170.0963	50
171.0997	39
206.0669	19
