Mass spectrum: Coumaphos; LC-ESI-QTOF; MS2; 100 V
Name: Coumaphos
Class: Insecticide
Formula: C14H16ClO5PS
Exact mass: 362.0145
SMILES: CCOP(=S)(OCC)OC1=CC2=C(C=C1)C(=C(C(=O)O2)Cl)C
InChI: InChI=1S/C14H16ClO5PS/c1-4-17-21(22,18-5-2)20-10-6-7-11-9(3)13(15)14(16)19-12(11)8-10/h6-8H,4-5H2,1-3H3
Instrument: TripleTOF 6600 SCIEX
Instrument type: LC-ESI-QTOF
Ms type: MS2
Ion mode: POSITIVE
Collision energy: 100
Fragmentation mode: CID
Ionization: ESI
Column name: Zorbax Eclipse Plus C18 2.1 mm x 150 mm, 3.5 um, Agilent
Retention time: 14.049 min
Precursor m/z: 363.0218
Precursor type: [M+H]+
m/z	relative intensity
39.0227	38
43.0167	21
44.9786	47
46.9674	99
49.0061	16
50.0144	57
51.0222	147
55.0163	14
62.0141	23
62.9621	30
63.0221	76
64.0298	16
64.9779	221
65.0379	290
68.9785	102
68.9961	40
70.9944	11
72.9829	19
74.0147	35
75.0222	142
76.0299	95
77.038	668
78.0459	42
78.9392	240
79.0532	19
80.9727	54
81.0323	11
87.0226	16
88.0296	23
89.0379	228
90.0452	121
91.0535	999
92.0607	19
92.9783	16
94.0396	16
94.9957	16
96.9496	342
97.009	14
98.9989	45
101.0383	111
102.0457	604
103.0536	506
104.0612	16
105.0334	28
105.0436	28
107.0487	11
108.002	52
109.0094	14
109.0169	14
110.9977	21
113.038	64
114.0452	83
115.0534	418
118.0403	47
118.9961	11
119.0479	199
120.0028	11
120.0564	66
121.0092	126
125.0142	49
129.0321	14
129.0437	61
130.0401	33
131.0486	575
132.0557	33
133.0095	30
134.0175	252
135.0254	204
136.0072	21
136.0331	16
137.014	64
138.0218	21
145.0094	59
146.0168	14
146.038	9
147.0263	66
147.0432	442
148.008	9
148.051	40
149.0145	95
153.0086	11
154.017	11
154.9714	21
155.0275	14
159.0449	21
159.0557	19
161.0061	23
162.0129	23
163.0205	252
164.0274	30
165.0097	161
166.0186	16
167.9766	11
178.97	9
180.986	11
181.0049	35
182.0114	85
193.0051	11
196.9829	16
225.9817	14
