Mass spectrum: Fipronil; LC-ESI-QTOF; MS2; 140 V
Name: Fipronil
Class: Insecticide; Biocide
Formula: C12H4Cl2F6N4OS
Exact mass: 435.9387
SMILES: C1=C(C=C(C(=C1Cl)N2C(=C(C(=N2)C#N)S(=O)C(F)(F)F)N)Cl)C(F)(F)F
InChI: InChI=1S/C12H4Cl2F6N4OS/c13-5-1-4(11(15,16)17)2-6(14)8(5)24-10(22)9(7(3-21)23-24)26(25)12(18,19)20/h1-2H,22H2
Instrument: TripleTOF 6600 SCIEX
Instrument type: LC-ESI-QTOF
Ms type: MS2
Ion mode: NEGATIVE
Collision energy: 140
Fragmentation mode: CID
Ionization: ESI
Column name: Zorbax Eclipse Plus C18 2.1 mm x 150 mm, 3.5 um, Agilent
Retention time: 13.577 min
Precursor m/z: 434.9314
Precursor type: [M-H]-
m/z	relative intensity
34.9699	999
50.0041	345
57.9755	236
74.003	199
81.9758	145
86.0035	326
98.0044	236
112.0041	272
113.0146	127
136.0031	108
143.0071	72
