Mass spectrum: Morantel; LC-ESI-QTOF; MS2; 70 V
Name: Morantel
Class: Pharmaceutical
Formula: C12H16N2S
Exact mass: 220.1034
SMILES: CN1CCCN=C1/C=C/c2sccc2C
InChI: InChI=1S/C12H16N2S/c1-10-6-9-15-11(10)4-5-12-13-7-3-8-14(12)2/h4-6,9H,3,7-8H2,1-2H3/b5-4+
Instrument: TripleTOF 5600 SCIEX
Instrument type: LC-ESI-QTOF
Ms type: MS2
Ion mode: POSITIVE
Collision energy: 70
Fragmentation mode: CID
Ionization: ESI
Column name: Zorbax Eclipse Plus C18 2.1 mm x 150 mm, 3.5 um, Agilent
Retention time: 6.042 min
Precursor m/z: 221.1107
Precursor type: [M+H]+
m/z	relative intensity
42.0424	12
44.0572	25
45.0103	12
51.0294	71
52.0234	10
53.0461	21
55.0603	23
58.9993	14
65.0431	90
66.053	12
67.0578	39
68.9849	21
69.0491	48
70.0683	10
70.9995	16
77.0423	999
77.0798	16
78.0366	18
78.049	161
79.0569	727
80.0524	12
84.0044	37
89.0407	185
90.0477	69
91.0422	14
91.0556	172
94.0659	23
94.9959	18
96.0046	42
97.0115	193
97.0755	12
102.047	10
103.055	23
103.0641	10
104.0497	65
105.058	14
105.0707	16
106.065	84
108.0039	39
109.0105	23
110.0198	21
111.0261	60
115.0545	27
116.0493	71
117.0572	147
118.0644	27
121.0109	243
122.0178	504
123.0264	361
124.0281	10
128.0594	14
130.0656	42
131.0738	16
132.0816	10
133.0108	27
133.0764	10
134.0079	94
135.0139	65
136.023	18
145.079	18
148.0218	147
149.0292	176
150.0361	25
157.0779	10
162.0375	10
163.045	10
164.054	14
177.0502	18
