Mass spectrum: Bosentan; LC-ESI-QTOF; MS2; 40 V
Name: Bosentan
Class: Pharmaceutical
Formula: C27H29N5O6S
Exact mass: 551.1839
SMILES: CC(C)(C)C1=CC=C(C=C1)S(=O)(=O)NC2=C(C(=NC(=N2)C3=NC=CC=N3)OCCO)OC4=CC=CC=C4OC
InChI: InChI=1S/C27H29N5O6S/c1-27(2,3)18-10-12-19(13-11-18)39(34,35)32-23-22(38-21-9-6-5-8-20(21)36-4)26(37-17-16-33)31-25(30-23)24-28-14-7-15-29-24/h5-15,33H,16-17H2,1-4H3,(H,30,31,32)
Instrument: TripleTOF 5600 SCIEX
Instrument type: LC-ESI-QTOF
Ms type: MS2
Ion mode: POSITIVE
Collision energy: 40
Fragmentation mode: CID
Ionization: ESI
Column name: Zorbax Eclipse Plus C18 2.1 mm x 150 mm, 3.5 um, Agilent
Retention time: 12.118 min
Precursor m/z: 552.1911
Precursor type: [M+H]+
m/z	relative intensity
95.0507	14
106.0413	10
123.045	30
123.0657	20
133.1016	19
135.0451	15
149.046	15
150.0558	14
161.1074	15
175.0598	15
189.0654	11
197.0616	23
202.0723	999
203.0756	35
204.0508	22
241.0896	48
255.1078	13
276.0874	16
280.0833	306
283.1071	12
293.0882	20
294.0984	37
310.0934	26
311.1016	442
312.1083	36
324.1084	24
338.1215	12
400.1424	27
508.1669	488
552.1919	758
