Mass spectrum: Itraconazole; LC-ESI-QTOF; MS2; 90 V
Name: Itraconazole
Class: Pharmaceutical
Formula: C35H38Cl2N8O4
Exact mass: 704.2393
SMILES: CCC(C)N1C(=O)N(C=N1)C2=CC=C(C=C2)N3CCN(CC3)C4=CC=C(C=C4)OCC5COC(O5)(CN6C=NC=N6)C7=C(C=C(C=C7)Cl)Cl
InChI: InChI=1S/C35H38Cl2N8O4/c1-3-25(2)45-34(46)44(24-40-45)29-7-5-27(6-8-29)41-14-16-42(17-15-41)28-9-11-30(12-10-28)47-19-31-20-48-35(49-31,21-43-23-38-22-39-43)32-13-4-26(36)18-33(32)37/h4-13,18,22-25,31H,3,14-17,19-21H2,1-2H3
Instrument: TripleTOF 5600 SCIEX
Instrument type: LC-ESI-QTOF
Ms type: MS2
Ion mode: POSITIVE
Collision energy: 90
Fragmentation mode: CID
Ionization: ESI
Column name: Zorbax Eclipse Plus C18 2.1 mm x 150 mm, 3.5 um, Agilent
Retention time: 13.565 min
Precursor m/z: 705.2466
Precursor type: [M+H]+
m/z	relative intensity
77.0352	199
104.0507	99
105.0717	199
107.0489	99
117.0652	599
118.0647	699
119.0724	399
120.0492	99
120.0788	399
128.0428	99
129.0663	199
130.0612	299
131.0727	99
132.0786	199
134.0586	199
134.0634	99
144.0822	199
145.09	99
146.0599	99
146.0948	99
146.1059	99
147.0675	99
148.0778	399
158.0597	99
158.9787	999
160.0774	199
172.073	99
174.0682	99
174.0932	499
187.0604	699
187.0759	299
188.0662	299
189.0763	199
189.0929	99
201.081	499
203.0943	699
215.0919	499
223.088	199
230.1399	199
243.124	499
271.1548	199
279.0764	399
279.0966	599
335.1503	199
336.1488	99
392.2141	99
