Mass spectrum: Ranitidine; LC-ESI-QTOF; MS2; 80 V
Name: Ranitidine
Class: Pharmaceutical
Formula: C13H22N4O3S
Exact mass: 314.1413
SMILES: CNC(=C[N+](=O)[O-])NCCSCC1=CC=C(O1)CN(C)C
InChI: InChI=1S/C13H22N4O3S/c1-14-13(9-17(18)19)15-6-7-21-10-12-5-4-11(20-12)8-16(2)3/h4-5,9,14-15H,6-8,10H2,1-3H3
Instrument: TripleTOF 5600 SCIEX
Instrument type: LC-ESI-QTOF
Ms type: MS2
Ion mode: POSITIVE
Collision energy: 80
Fragmentation mode: CID
Ionization: ESI
Column name: Zorbax Eclipse Plus C18 2.1 mm x 150 mm, 3.5 um, Agilent
Retention time: 4.832 min
Precursor m/z: 315.1485
Precursor type: [M+H]+
m/z	relative intensity
44.0575	21
51.0283	9
53.0439	148
54.0383	14
55.0231	12
55.0463	50
55.0605	19
56.0543	160
57.0502	57
58.0696	33
58.083	14
58.9997	48
59.0182	12
60.0068	26
65.0418	72
66.0494	19
67.0451	14
67.0577	24
68.0518	100
69.0479	12
70.0684	28
71.0624	14
74.0097	19
77.0411	304
77.0568	16
77.0764	9
78.0361	38
78.0478	28
79.056	69
80.0166	9
80.0516	100
81.0359	999
82.053	67
82.066	26
83.0618	74
84.0695	14
85.041	19
88.023	26
89.0414	16
90.0485	12
91.0545	74
92.0504	31
93.0583	105
94.0422	33
94.0661	175
95.0502	48
95.0741	33
96.0681	64
97.0118	64
97.0769	554
98.0836	31
101.016	14
101.03	14
102.0376	926
104.049	172
105.0321	21
105.0571	33
106.0402	16
106.0652	79
107.0491	300
108.0799	38
109.0742	31
110.0687	21
110.0984	21
114.0365	12
115.0312	28
116.0486	12
117.0555	74
118.0651	84
119.0579	48
120.0674	36
120.0781	26
121.0766	76
122.0594	24
123.0253	24
125.0054	146
129.0475	50
130.0552	69
131.0302	9
131.061	14
132.0436	180
133.0114	14
133.0518	148
133.0719	40
134.0612	36
135.027	14
135.0918	52
137.007	12
139.0324	12
145.0772	12
147.0584	19
147.091	12
148.0739	62
150.0374	31
151.0241	14
163.0833	12
