Mass spectrum: Flavanone; LC-ESI-QTOF; MS2; 20 V
Name: Flavanone
Class: Personal_care_product
Formula: C15H12O2
Exact mass: 224.0837
SMILES: C1C(OC2=CC=CC=C2C1=O)C3=CC=CC=C3
InChI: InChI=1S/C15H12O2/c16-13-10-15(11-6-2-1-3-7-11)17-14-9-5-4-8-12(13)14/h1-9,15H,10H2
Instrument: TripleTOF 5600 SCIEX
Instrument type: LC-ESI-QTOF
Ms type: MS2
Ion mode: POSITIVE
Collision energy: 20
Fragmentation mode: CID
Ionization: ESI
Column name: Zorbax Eclipse Plus C18 2.1 mm x 150 mm, 3.5 um, Agilent
Retention time: 12.61 min
Precursor m/z: 225.091
Precursor type: [M+H]+
m/z	relative intensity
93.0328	10
103.0535	29
105.0338	11
119.0473	10
121.0283	520
131.0492	153
147.0437	108
178.0791	12
179.0854	175
207.0805	137
210.0674	283
225.0913	999
