Mass spectrum: Guaifenesin; LC-ESI-QTOF; MS2; 30 V
Name: Guaifenesin
Formula: C10H14O4
Exact mass: 198.0892
SMILES: COC1=CC=CC=C1OCC(CO)O
InChI: InChI=1S/C10H14O4/c1-13-9-4-2-3-5-10(9)14-7-8(12)6-11/h2-5,8,11-12H,6-7H2,1H3
Instrument: TripleTOF X500R SCIEX
Instrument type: LC-ESI-QTOF
Ms type: MS2
Ion mode: POSITIVE
Collision energy: 30
Fragmentation mode: CID
Ionization: ESI
Column name: Zorbax Eclipse Plus C18 2.1 mm x 150 mm, 3.5 um, Agilent
Retention time: 6.298 min
Precursor m/z: 199.0965
Precursor type: [M+H]+
m/z	relative intensity
41.0385	22
45.0335	111
55.0519	22
57.0332	222
65.0399	166
72.988	88
77.0389	288
79.0565	77
91.0546	177
92.0622	11
93.0137	22
93.0337	466
93.0693	122
95.0488	288
100.0767	199
102.0485	33
103.0547	210
105.0711	299
107.0508	44
108.0578	66
110.0368	510
115.0517	11
116.9766	244
120.054	55
121.029	344
121.0649	77
122.0362	999
123.0451	88
125.061	222
131.0484	66
132.0558	33
135.0622	11
135.0807	99
136.0509	88
137.0637	33
145.0695	22
147.0422	11
148.0451	22
151.0798	33
163.0752	66
