Mass spectrum: 14-Hydroxycodeinone; LC-ESI-QTOF; MS2; 140 V
Name: 14-Hydroxycodeinone
Class: Pharmaceutical; Transformation_product
Formula: C18H19NO4
Exact mass: 313.1314
SMILES: COc1ccc2C[C@H]3N(C)CC[C@@]45C(Oc1c24)C(=O)C=C[C@@]35O
InChI: InChI=1S/C18H19NO4/c1-19-8-7-17-14-10-3-4-12(22-2)15(14)23-16(17)11(20)5-6-18(17,21)13(19)9-10/h3-6,13,16,21H,7-9H2,1-2H3/t13-,16?,17+,18-/m1/s1
Instrument: TripleTOF 5600 SCIEX
Instrument type: LC-ESI-QTOF
Ms type: MS2
Ion mode: POSITIVE
Collision energy: 140
Fragmentation mode: CID
Ionization: ESI
Column name: Zorbax Eclipse Plus C18 2.1 mm x 150 mm, 3.5 um, Agilent
Retention time: 5.367 min
Precursor m/z: 314.1387
Precursor type: [M+H]+
m/z	relative intensity
51.0285	83
60.0035	12
62.0343	10
65.0423	85
73.0105	20
74.0176	124
75.0256	102
76.0322	71
77.0408	253
78.0479	44
85.008	22
86.0161	69
87.0239	116
88.0317	87
89.0397	379
90.0462	16
91.0552	24
98.0156	57
99.0236	53
100.0305	38
101.0387	71
102.0464	120
110.0143	14
111.0219	14
113.0378	304
114.0324	24
114.046	61
114.0859	10
115.0538	339
116.0495	38
117.061	12
122.0163	18
123.0215	14
125.0372	44
126.0458	255
127.0539	157
128.0482	12
128.0616	75
137.038	75
138.0458	116
139.0538	999
140.0487	355
141.0565	42
142.066	16
149.0373	28
150.0456	163
151.0537	273
152.0613	355
153.0565	87
154.0658	34
161.0381	14
162.0457	51
163.0528	292
164.0535	165
165.0641	106
166.0647	181
167.0714	44
168.0789	20
174.0437	18
175.0516	16
176.0607	42
177.0566	26
178.0637	49
179.0735	14
180.0817	30
187.0529	14
188.0511	24
190.064	32
191.0718	20
192.0719	12
