Mass spectrum: Beclomethasone; LC-ESI-QTOF; MS2; 90 V
Name: Beclomethasone
Class: Pharmaceutical
Formula: C22H29ClO5
Exact mass: 408.1704
SMILES: CC1CC2C3CCC4=CC(=O)C=CC4(C3(C(CC2(C1(C(=O)CO)O)C)O)Cl)C
InChI: InChI=1S/C22H29ClO5/c1-12-8-16-15-5-4-13-9-14(25)6-7-19(13,2)21(15,23)17(26)10-20(16,3)22(12,28)18(27)11-24/h6-7,9,12,15-17,24,26,28H,4-5,8,10-11H2,1-3H3
Instrument: TripleTOF 5600 SCIEX
Instrument type: LC-ESI-QTOF
Ms type: MS2
Ion mode: POSITIVE
Collision energy: 90
Fragmentation mode: CID
Ionization: ESI
Column name: Zorbax Eclipse Plus C18 2.1 mm x 150 mm, 3.5 um, Agilent
Retention time: 9.326 min
Precursor m/z: 409.1776
Precursor type: [M+H]+
m/z	relative intensity
77.0383	621
79.055	155
91.0543	999
93.0688	111
103.0545	177
105.0708	244
115.0547	643
116.0597	133
117.0714	133
119.0851	155
121.0653	577
127.0546	222
128.0638	532
129.069	310
131.0481	155
131.0868	88
132.0586	133
135.0812	133
141.0704	355
142.075	111
143.087	133
145.066	177
146.0718	155
147.0809	133
152.0634	266
153.0691	266
157.0658	111
158.0734	88
159.0819	133
165.0715	510
166.0793	133
167.0885	111
171.0869	88
176.0618	88
177.0702	155
178.0781	355
179.0865	266
181.0679	244
189.0703	333
190.0792	199
191.0884	177
193.1015	155
194.0692	266
195.082	177
202.0751	222
203.0854	266
205.0978	111
209.0922	111
215.0849	288
219.0794	111
219.0911	88
221.0981	155
228.0989	222
229.1004	177
231.0806	244
232.0832	177
233.0984	355
247.1142	111
