Mass spectrum: 4-(Dimethylamino)azobenzene; LC-ESI-QTOF; MS2; 100 V
Name: 4-(Dimethylamino)azobenzene
Formula: C14H15N3
Exact mass: 225.1266
SMILES: CN(C)C1=CC=C(C=C1)N=NC2=CC=CC=C2
InChI: InChI=1S/C14H15N3/c1-17(2)14-10-8-13(9-11-14)16-15-12-6-4-3-5-7-12/h3-11H,1-2H3
Instrument: TripleTOF 6600 SCIEX
Instrument type: LC-ESI-QTOF
Ms type: MS2
Ion mode: POSITIVE
Collision energy: 100
Fragmentation mode: CID
Ionization: ESI
Column name: Zorbax Eclipse Plus C18 2.1 mm x 150 mm, 3.5 um, Agilent
Retention time: 15.513 min
Precursor m/z: 226.1339
Precursor type: [M+H]+
m/z	relative intensity
37.0066	38
38.0142	29
39.0223	167
42.033	36
49.0062	41
50.0145	418
51.0223	999
52.0172	27
61.0061	11
62.0136	22
63.0217	114
64.0173	22
64.029	29
65.0374	128
66.0325	18
67.0401	37
68.0485	11
74.013	28
76.0161	11
77.0374	513
78.0326	40
78.0441	13
80.0478	23
90.0322	25
91.0403	73
92.0473	23
93.0537	11
104.0476	85
105.0547	12
117.0434	11
118.0504	23
