Mass spectrum: Sulfadimethoxine; LC-ESI-QTOF; MS2; 140 V
Name: Sulfadimethoxine
Class: Pharmaceutical
Formula: C12H14N4O4S
Exact mass: 310.0736
SMILES: COC1=NC(=NC(=C1)NS(=O)(=O)C2=CC=C(C=C2)N)OC
InChI: InChI=1S/C12H14N4O4S/c1-19-11-7-10(14-12(15-11)20-2)16-21(17,18)9-5-3-8(13)4-6-9/h3-7H,13H2,1-2H3,(H,14,15,16)
Instrument: TripleTOF 5600 SCIEX
Instrument type: LC-ESI-QTOF
Ms type: MS2
Ion mode: POSITIVE
Collision energy: 140
Fragmentation mode: CID
Ionization: ESI
Column name: Zorbax Eclipse Plus C18 2.1 mm x 150 mm, 3.5 um, Agilent
Retention time: 8.09 min
Precursor m/z: 311.0809
Precursor type: [M+H]+
m/z	relative intensity
35.9996	45
37.0077	186
38.0151	146
39.023	756
40.0185	141
41.0258	45
42.0336	67
43.0288	45
44.0131	39
50.0158	33
51.0231	56
52.0187	67
53.0151	28
53.0386	237
54.0339	62
57.0458	28
58.0284	33
62.0148	50
63.0233	112
64.0181	45
64.0308	28
65.0145	45
65.0257	22
65.0388	999
66.0221	56
66.0333	50
67.0071	28
67.0294	225
68.0132	214
69.0085	158
69.0453	33
69.9922	33
74.0146	33
77.0131	39
77.0387	28
80.0495	366
82.0282	50
91.0414	28
92.049	67
