Mass spectrum: Tebuconazole; LC-ESI-QTOF; MS2; 130 V
Name: Tebuconazole
Class: Fungicide
Formula: C16H22ClN3O
Exact mass: 307.1451
SMILES: CC(C)(C)C(O)(CCc1ccc(Cl)cc1)Cn2cncn2
InChI: InChI=1S/C16H22ClN3O/c1-15(2,3)16(21,10-20-12-18-11-19-20)9-8-13-4-6-14(17)7-5-13/h4-7,11-12,21H,8-10H2,1-3H3
Instrument: TripleTOF 5600 SCIEX
Instrument type: LC-ESI-QTOF
Ms type: MS2
Ion mode: POSITIVE
Collision energy: 130
Fragmentation mode: CID
Ionization: ESI
Column name: Zorbax Eclipse Plus C18 2.1 mm x 150 mm, 3.5 um, Agilent
Retention time: 12.72 min
Precursor m/z: 308.1524
Precursor type: [M+H]+
m/z	relative intensity
42.0314	17
43.0396	200
57.0759	21
59.0546	38
64.035	15
65.043	30
70.0458	999
72.9884	140
74.0181	15
75.0259	18
77.042	47
82.0426	30
89.0417	373
90.0483	63
99.0014	118
102.0469	10
115.0549	146
125.0155	42
127.0538	10
128.0621	19
