Mass spectrum: Quinoxyfen; LC-ESI-QTOF; MS2; 130 V
Name: Quinoxyfen
Class: Fungicide
Formula: C15H8Cl2FNO
Exact mass: 306.9967
SMILES: C1=CC(=CC=C1OC2=C3C(=CC(=CC3=NC=C2)Cl)Cl)F
InChI: InChI=1S/C15H8Cl2FNO/c16-9-7-12(17)15-13(8-9)19-6-5-14(15)20-11-3-1-10(18)2-4-11/h1-8H
Instrument: TripleTOF 6600 SCIEX
Instrument type: LC-ESI-QTOF
Ms type: MS2
Ion mode: POSITIVE
Collision energy: 130
Fragmentation mode: CID
Ionization: ESI
Column name: Zorbax Eclipse Plus C18 2.1 mm x 150 mm, 3.5 um, Agilent
Retention time: 15.195 min
Precursor m/z: 308.004
Precursor type: [M+H]+
m/z	relative intensity
37.0064	17
38.0141	17
39.0227	17
49.006	17
50.014	58
51.0217	26
59.9977	15
61.0057	68
62.0141	122
63.0217	76
68.0035	10
69.0124	40
72.9832	86
73.0055	172
74.0139	999
75.0216	228
76.0169	43
84.9824	17
85.0052	19
86.0137	48
87.0208	66
88.0286	63
89.0371	59
96.9825	47
97.0052	31
98.0136	363
99.0206	192
100.0166	67
100.028	21
107.0261	10
108.9814	27
110.0111	15
114.0322	34
115.04	23
122.013	10
122.999	92
127.0398	28
155.0292	10
161.0366	19
179.0272	18
180.0362	19
181.043	46
188.0478	12
206.0402	19
