Mass spectrum: Fluazifop; LC-ESI-QTOF; MS2; 40 V
Name: Fluazifop
Class: Herbicide; Transformation_product
Formula: C15H12F3NO4
Exact mass: 327.0718
SMILES: CC(C(=O)O)Oc1ccc(cc1)Oc2ccc(cn2)C(F)(F)F
InChI: InChI=1S/C15H12F3NO4/c1-9(14(20)21)22-11-3-5-12(6-4-11)23-13-7-2-10(8-19-13)15(16,17)18/h2-9H,1H3,(H,20,21)
Instrument: TripleTOF 6600 SCIEX
Instrument type: LC-ESI-QTOF
Ms type: MS2
Ion mode: NEGATIVE
Collision energy: 40
Fragmentation mode: CID
Ionization: ESI
Column name: Zorbax Eclipse Plus C18 2.1 mm x 150 mm, 3.5 um, Agilent
Retention time: 11.668 min
Precursor m/z: 326.0646
Precursor type: [M-H]-
m/z	relative intensity
71.0127	30
79.0176	11
108.0207	309
138.0335	14
146.0203	11
150.0339	40
158.0405	22
160.0372	35
162.0165	75
163.0364	26
164.0297	13
166.0299	19
170.0415	40
178.0464	105
184.0375	54
186.0177	43
186.0353	41
190.0463	70
192.0268	11
196.037	18
198.0524	156
199.024	130
200.0314	53
206.0415	508
207.0255	11
208.0373	10
210.052	110
212.0318	154
214.0307	28
225.0402	22
226.0476	903
227.0317	13
234.0362	119
252.0275	10
253.0345	244
254.0423	999
