Mass spectrum: Chloroxuron; LC-ESI-QTOF; MS2; 30 V
Name: Chloroxuron
Class: Herbicide
Formula: C15H15ClN2O2
Exact mass: 290.0822
SMILES: CN(C)C(=O)Nc1ccc(Oc2ccc(Cl)cc2)cc1
InChI: InChI=1S/C15H15ClN2O2/c1-18(2)15(19)17-12-5-9-14(10-6-12)20-13-7-3-11(16)4-8-13/h3-10H,1-2H3,(H,17,19)
Instrument: TripleTOF 5600 SCIEX
Instrument type: LC-ESI-QTOF
Ms type: MS2
Ion mode: POSITIVE
Collision energy: 30
Fragmentation mode: CID
Ionization: ESI
Column name: Zorbax Eclipse Plus C18 2.1 mm x 150 mm, 3.5 um, Agilent
Retention time: 12.103 min
Precursor m/z: 291.0895
Precursor type: [M+H]+
m/z	relative intensity
72.0487	999
118.0643	19
119.072	24
163.03	13
163.0858	15
164.0934	59
218.0358	143
291.0882	180
