Mass spectrum: Octocrylene; LC-ESI-QTOF; MS2; 150 V
Name: Octocrylene
Class: Industrial_process; Personal_care_product
Formula: C24H27NO2
Exact mass: 361.2042
SMILES: CCCCC(CC)COC(=O)C(=C(C1=CC=CC=C1)C2=CC=CC=C2)C#N
InChI: InChI=1S/C24H27NO2/c1-3-5-12-19(4-2)18-27-24(26)22(17-25)23(20-13-8-6-9-14-20)21-15-10-7-11-16-21/h6-11,13-16,19H,3-5,12,18H2,1-2H3
Instrument: TripleTOF 5600 SCIEX
Instrument type: LC-ESI-QTOF
Ms type: MS2
Ion mode: POSITIVE
Collision energy: 150
Fragmentation mode: CID
Ionization: ESI
Column name: Zorbax Eclipse Plus C18 2.1 mm x 150 mm, 3.5 um, Agilent
Retention time: 17.664 min
Precursor m/z: 362.2115
Precursor type: [M+H]+
m/z	relative intensity
75.0272	249
77.0415	449
126.0467	349
149.0402	449
150.0477	999
151.0528	349
174.0423	499
175.0525	249
176.0633	299
201.0513	299
