Mass spectrum: 17alpha-Methyltestosterone; LC-ESI-QTOF; MS2; 110 V
Name: 17alpha-Methyltestosterone
Class: Pharmaceutical
Formula: C20H30O2
Exact mass: 302.2246
SMILES: C[C@]1(O)CC[C@H]2[C@@H]3CCC4=CC(=O)CC[C@]4(C)[C@H]3CC[C@]12C
InChI: InChI=1S/C20H30O2/c1-18-9-6-14(21)12-13(18)4-5-15-16(18)7-10-19(2)17(15)8-11-20(19,3)22/h12,15-17,22H,4-11H2,1-3H3/t15-,16+,17+,18+,19+,20+/m1/s1
Instrument: TripleTOF 5600 SCIEX
Instrument type: LC-ESI-QTOF
Ms type: MS2
Ion mode: POSITIVE
Collision energy: 110
Fragmentation mode: CID
Ionization: ESI
Column name: Zorbax Eclipse Plus C18 2.1 mm x 150 mm, 3.5 um, Agilent
Retention time: 11.57 min
Precursor m/z: 303.2319
Precursor type: [M+H]+
m/z	relative intensity
43.0274	128
53.0438	79
55.0581	49
65.0429	291
66.0503	34
67.0572	98
69.0726	24
77.0408	999
77.0694	44
78.0503	34
79.0568	415
81.0362	34
81.072	64
83.0509	29
89.0384	24
91.0562	464
91.0781	29
94.0431	29
97.0649	153
102.0455	24
103.0532	44
105.0692	69
107.0509	64
109.064	69
115.0538	257
117.0674	19
127.0533	59
128.062	192
129.0699	44
141.0685	54
152.062	44
165.0673	49
