Mass spectrum: Celiprolol; LC-ESI-QTOF; MS2; 50 V
Name: Celiprolol
Class: Pharmaceutical
Formula: C20H33N3O4
Exact mass: 379.2471
SMILES: CCN(CC)C(=O)NC1=CC(=C(C=C1)OCC(CNC(C)(C)C)O)C(=O)C
InChI: InChI=1S/C20H33N3O4/c1-7-23(8-2)19(26)22-15-9-10-18(17(11-15)14(3)24)27-13-16(25)12-21-20(4,5)6/h9-11,16,21,25H,7-8,12-13H2,1-6H3,(H,22,26)
Instrument: TripleTOF 5600 SCIEX
Instrument type: LC-ESI-QTOF
Ms type: MS2
Ion mode: POSITIVE
Collision energy: 50
Fragmentation mode: CID
Ionization: ESI
Column name: Zorbax Eclipse Plus C18 2.1 mm x 150 mm, 3.5 um, Agilent
Retention time: 6.532 min
Precursor m/z: 380.2544
Precursor type: [M+H]+
m/z	relative intensity
43.0275	36
44.0218	16
44.0575	11
56.0567	703
57.0755	76
72.0487	301
72.0836	10
74.0645	999
74.0994	152
100.0769	496
130.0651	12
130.1223	12
132.0443	35
146.0596	26
148.0401	358
148.0723	17
150.055	42
158.0603	24
160.0396	14
160.0762	15
162.0179	15
170.0596	23
172.0397	30
174.0554	43
176.071	195
178.0496	59
186.0555	218
188.07	13
190.0494	25
198.0545	25
204.0659	377
209.1274	15
216.066	403
233.0919	196
251.1028	36
251.1387	166
