Mass spectrum: Desethylterbuthylazine; LC-ESI-QTOF; MS2; 80 V
Name: Desethylterbuthylazine
Class: Herbicide; Transformation_product; Metabolite; Transformation_product-Metabolite
Formula: C7H12ClN5
Exact mass: 201.0781
SMILES: CC(C)(C)NC1=NC(=NC(=N1)N)Cl
InChI: InChI=1S/C7H12ClN5/c1-7(2,3)13-6-11-4(8)10-5(9)12-6/h1-3H3,(H3,9,10,11,12,13)
Instrument: TripleTOF 6600 SCIEX
Instrument type: LC-ESI-QTOF
Ms type: MS2
Ion mode: POSITIVE
Collision energy: 80
Fragmentation mode: CID
Ionization: ESI
Column name: Zorbax Eclipse Plus C18 2.1 mm x 150 mm, 3.5 um, Agilent
Retention time: 9.136 min
Precursor m/z: 202.0854
Precursor type: [M+H]+
m/z	relative intensity
37.0071	16
38.015	15
39.0231	93
41.0135	30
41.0384	27
42.0213	31
43.0296	917
53.0132	11
61.9795	999
68.0247	515
79.0057	26
86.9739	10
