Mass spectrum: Tenamfetamine; LC-ESI-QTOF; MS2; 120 V
Name: Tenamfetamine
Class: Pharmaceutical
Formula: C10H13NO2
Exact mass: 179.0946
SMILES: CC(CC1=CC2=C(C=C1)OCO2)N
InChI: InChI=1S/C10H13NO2/c1-7(11)4-8-2-3-9-10(5-8)13-6-12-9/h2-3,5,7H,4,6,11H2,1H3
Instrument: TripleTOF 6600 SCIEX
Instrument type: LC-ESI-QTOF
Ms type: MS2
Ion mode: POSITIVE
Collision energy: 120
Fragmentation mode: CID
Ionization: ESI
Column name: Zorbax Eclipse Plus C18 2.1 mm x 150 mm, 3.5 um, Agilent
Retention time: 5.295 min
Precursor m/z: 180.1019
Precursor type: [M+H]+
m/z	relative intensity
35.9989	68
37.0069	268
38.0015	16
38.0152	188
39.0225	224
49.0068	200
50.0145	999
51.0224	605
52.0251	20
53.0023	20
59.9984	40
61.0063	208
62.0145	204
63.0218	200
64.0269	24
73.0061	36
74.0146	108
75.0183	16
89.0397	16
