Mass spectrum: Losartan; LC-ESI-QTOF; MS2; 90 V
Name: Losartan
Class: Pharmaceutical
Formula: C22H23ClN6O
Exact mass: 422.1622
SMILES: CCCCc1nc(c(n1Cc2ccc(cc2)c3ccccc3c4n[nH]nn4)CO)Cl
InChI: InChI=1S/C22H23ClN6O/c1-2-3-8-20-24-21(23)19(14-30)29(20)13-15-9-11-16(12-10-15)17-6-4-5-7-18(17)22-25-27-28-26-22/h4-7,9-12,30H,2-3,8,13-14H2,1H3,(H,25,26,27,28)
Instrument: TripleTOF 5600 SCIEX
Instrument type: LC-ESI-QTOF
Ms type: MS2
Ion mode: POSITIVE
Collision energy: 90
Fragmentation mode: CID
Ionization: ESI
Column name: Zorbax Eclipse Plus C18 2.1 mm x 150 mm, 3.5 um, Agilent
Retention time: 9.819 min
Precursor m/z: 423.1695
Precursor type: [M+H]+
m/z	relative intensity
51.0274	12
77.0414	114
78.0368	12
80.0511	36
89.0388	12
102.0335	14
113.0379	26
114.0454	12
115.0532	56
116.0498	14
117.0566	10
125.0383	16
126.0458	19
127.054	107
128.0521	63
129.0449	28
137.0386	12
138.0466	33
139.0539	97
140.0492	152
141.0588	10
142.0292	64
150.0455	85
151.0544	527
152.0621	837
153.0685	182
154.0645	32
162.0466	27
163.054	262
164.0553	299
165.0693	553
166.0645	96
167.0721	55
168.0683	19
176.0545	53
177.0575	219
178.0658	551
179.0722	331
180.0808	218
181.0761	15
187.0557	10
188.0479	39
189.0565	71
190.0654	429
191.0641	123
192.0686	217
203.0602	10
204.0705	15
205.076	999
206.0839	75
207.0917	14
214.0642	50
216.0796	12
239.06	19
240.0761	10
241.0755	10
