Mass spectrum: Metobromuron; LC-ESI-QTOF; MS2; 40 V
Name: Metobromuron
Class: Herbicide
Formula: C9H11BrN2O2
Exact mass: 258.0004
SMILES: CN(C(=O)NC1=CC=C(C=C1)Br)OC
InChI: InChI=1S/C9H11BrN2O2/c1-12(14-2)9(13)11-8-5-3-7(10)4-6-8/h3-6H,1-2H3,(H,11,13)
Instrument: TripleTOF 6600 SCIEX
Instrument type: LC-ESI-QTOF
Ms type: MS2
Ion mode: POSITIVE
Collision energy: 40
Fragmentation mode: CID
Ionization: ESI
Column name: Zorbax Eclipse Plus C18 2.1 mm x 150 mm, 3.5 um, Agilent
Retention time: 10.623 min
Precursor m/z: 259.0077
Precursor type: [M+H]+
m/z	relative intensity
60.0417	28
62.057	18
63.0201	19
64.0278	16
65.0356	39
90.0309	25
91.0386	993
92.0464	111
93.054	19
116.9289	18
119.0568	414
129.0409	18
131.0566	30
142.9453	326
147.0515	156
148.0592	201
169.9564	999
170.9642	726
183.9723	23
226.9772	68
