Mass spectrum: Food Yellow 3 free acid; LC-ESI-QTOF; MS2; 120 V
Name: Food Yellow 3 free acid
Formula: C16H12N2O7S2
Exact mass: 408.0086
SMILES: C1=CC(=CC=C1N=NC2=C(C=CC3=C2C=CC(=C3)S(=O)(=O)O)O)S(=O)(=O)O
InChI: InChI=1S/C16H12N2O7S2/c19-15-8-1-10-9-13(27(23,24)25)6-7-14(10)16(15)18-17-11-2-4-12(5-3-11)26(20,21)22/h1-9,19H,(H,20,21,22)(H,23,24,25)
Instrument: TripleTOF 6600 SCIEX
Instrument type: LC-ESI-QTOF
Ms type: MS2
Ion mode: POSITIVE
Collision energy: 120
Fragmentation mode: CID
Ionization: ESI
Column name: Zorbax Eclipse Plus C18 2.1 mm x 150 mm, 3.5 um, Agilent
Retention time: 5.59 min
Precursor m/z: 409.0159
Precursor type: [M+H]+
m/z	relative intensity
37.0065	15
38.016	14
39.023	159
50.0151	99
51.0226	82
52.0307	21
53.0385	278
61.0067	34
62.015	88
63.0226	318
64.0169	12
64.9681	46
65.0385	362
66.0336	15
73.0061	30
74.0147	760
75.0105	40
75.0222	139
76.018	26
76.0299	164
77.0383	63
80.0495	999
81.0324	36
86.0146	10
87.0222	37
88.0185	11
88.0299	35
89.0381	302
90.0333	24
92.0485	70
98.0153	137
99.0099	101
99.0212	154
100.0291	546
101.0253	77
102.045	29
108.044	96
109.0501	11
114.0336	44
115.0544	11
126.041	33
127.0415	230
128.0465	11
139.0535	9
149.0377	14
150.0441	14
151.0507	12
163.051	18
164.0495	15
174.0435	27
175.0528	45
176.0512	26
188.0479	19
189.0563	19
190.0648	41
200.0502	10
201.0575	70
202.0661	18
203.0637	14
216.0701	47
217.0732	12
227.0583	23
228.0676	28
229.0753	30
