Mass spectrum: Levetiracetam acid; LC-ESI-QTOF; MS2; 20 V
Name: Levetiracetam acid
Class: Pharmaceutical; Transformation_product
Formula: C8H13NO3
Exact mass: 171.0895
SMILES: CC[C@@H](C(=O)O)N1CCCC1=O
InChI: InChI=1S/C8H13NO3/c1-2-6(8(11)12)9-5-3-4-7(9)10/h6H,2-5H2,1H3,(H,11,12)/t6-/m0/s1
Instrument: TripleTOF 5600 SCIEX
Instrument type: LC-ESI-QTOF
Ms type: MS2
Ion mode: NEGATIVE
Collision energy: 20
Fragmentation mode: CID
Ionization: ESI
Column name: Zorbax Eclipse Plus C18 2.1 mm x 150 mm, 3.5 um, Agilent
Retention time: 5.699 min
Precursor m/z: 170.0823
Precursor type: [M-H]-
m/z	relative intensity
170.0837	999
