Mass spectrum: Deisopropylatrazine; LC-ESI-QTOF; MS2; 20 V
Name: Deisopropylatrazine
Class: Transformation_product
Formula: C5H8ClN5
Exact mass: 173.0468
SMILES: CCNC1=NC(=NC(=N1)N)Cl
InChI: InChI=1S/C5H8ClN5/c1-2-8-5-10-3(6)9-4(7)11-5/h2H2,1H3,(H3,7,8,9,10,11)
Instrument: TripleTOF 6600 SCIEX
Instrument type: LC-ESI-QTOF
Ms type: MS2
Ion mode: POSITIVE
Collision energy: 20
Fragmentation mode: CID
Ionization: ESI
Column name: Zorbax Eclipse Plus C18 2.1 mm x 150 mm, 3.5 um, Agilent
Retention time: 5.858 min
Precursor m/z: 174.0541
Precursor type: [M+H]+
m/z	relative intensity
43.0282	37
68.0236	84
71.0588	32
79.0053	131
96.0542	206
97.0572	56
103.9994	93
132.0301	206
133.0321	37
138.0755	37
146.0202	145
147.0232	42
174.0526	999
175.0543	459
