Mass spectrum: Ranitidine-N-oxide; LC-ESI-QTOF; MS2; 40 V
Name: Ranitidine-N-oxide
Class: Pharmaceutical; Transformation_product
Formula: C13H22N4O4S
Exact mass: 330.1362
SMILES: CNC(/NCCSCc1oc(C[N+](C)(C)[O-])cc1)=C\[N+]([O-])=O
InChI: InChI=1S/C13H22N4O4S/c1-14-13(8-16(18)19)15-6-7-22-10-12-5-4-11(21-12)9-17(2,3)20/h4-5,8,14-15H,6-7,9-10H2,1-3H3/b13-8+
Instrument: TripleTOF 5600 SCIEX
Instrument type: LC-ESI-QTOF
Ms type: MS2
Ion mode: POSITIVE
Collision energy: 40
Fragmentation mode: CID
Ionization: ESI
Column name: Zorbax Eclipse Plus C18 2.1 mm x 150 mm, 3.5 um, Agilent
Retention time: 4.879 min
Precursor m/z: 331.1435
Precursor type: [M+H]+
m/z	relative intensity
55.047	20
56.0559	31
68.0518	11
71.0655	20
77.0406	11
81.036	291
81.0777	11
83.0624	41
84.0699	57
85.0774	11
88.0218	47
94.0426	18
94.0655	11
95.05	57
97.0112	18
97.0774	282
98.0845	476
98.1081	13
101.0301	36
102.0377	761
102.0887	11
104.0175	15
104.0488	11
105.0584	15
107.0494	132
108.0767	15
109.074	13
110.0601	34
113.0681	20
114.0795	25
115.0314	13
117.0488	41
118.0309	20
118.066	20
120.081	11
121.0759	98
122.0836	25
123.0915	11
124.0756	184
125.0057	999
129.0471	31
130.0559	969
131.0627	38
132.045	36
133.0517	27
134.0586	15
135.0281	18
135.0913	123
137.1084	18
140.0541	13
144.0764	75
145.0437	13
146.0506	20
147.0638	45
147.0897	11
148.0757	171
149.0713	43
149.1087	11
151.0211	18
153.0359	52
163.0862	79
164.0945	63
165.1015	200
167.064	59
167.077	11
170.0629	66
176.0486	759
177.1005	145
178.032	43
178.1076	25
181.0606	18
181.0784	116
191.1177	241
192.0465	68
193.0557	61
194.0595	20
195.068	22
223.0854	25
224.0973	164
225.1102	11
270.0892	54
331.1415	11
