Mass spectrum: Sulcotrione; LC-ESI-QTOF; MS2; 130 V
Name: Sulcotrione
Class: Herbicide
Formula: C14H13ClO5S
Exact mass: 328.0172
SMILES: CS(=O)(=O)C1=CC(=C(C=C1)C(=O)C2C(=O)CCCC2=O)Cl
InChI: InChI=1S/C14H13ClO5S/c1-21(19,20)8-5-6-9(10(15)7-8)14(18)13-11(16)3-2-4-12(13)17/h5-7,13H,2-4H2,1H3
Instrument: TripleTOF 6600 SCIEX
Instrument type: LC-ESI-QTOF
Ms type: MS2
Ion mode: POSITIVE
Collision energy: 130
Fragmentation mode: CID
Ionization: ESI
Column name: Zorbax Eclipse Plus C18 2.1 mm x 150 mm, 3.5 um, Agilent
Retention time: 9.651 min
Precursor m/z: 329.0245
Precursor type: [M+H]+
m/z	relative intensity
37.0074	21
38.0157	17
39.023	38
41.0032	447
50.0161	38
51.0236	34
53.0023	30
55.018	30
61.0085	30
62.0146	47
63.0231	60
68.9974	999
72.9835	77
73.0057	30
74.0155	116
75.0233	81
77.0024	94
77.0394	21
83.9762	43
85.0071	17
86.0153	51
87.0229	60
89.0412	21
98.0151	116
99.0235	47
102.046	17
107.9767	86
115.0511	25
128.0594	25
139.0545	38
