Mass spectrum: Tetraoctylphosphonium; LC-ESI-QTOF; MS2; 140 V
Name: Tetraoctylphosphonium
Formula: [C32H68P]+
Exact mass: 483.5053
SMILES: CCCCCCCC[P+](CCCCCCCC)(CCCCCCCC)CCCCCCCC
InChI: InChI=1S/C32H68P/c1-5-9-13-17-21-25-29-33(30-26-22-18-14-10-6-2,31-27-23-19-15-11-7-3)32-28-24-20-16-12-8-4/h5-32H2,1-4H3/q+1
Instrument: TripleTOF 5600 SCIEX
Instrument type: LC-ESI-QTOF
Ms type: MS2
Ion mode: POSITIVE
Collision energy: 140
Fragmentation mode: CID
Ionization: ESI
Column name: Zorbax Eclipse Plus C18 2.1 mm x 150 mm, 3.5 um, Agilent
Retention time: 16.405 min
Precursor m/z: 483.5053
Precursor type: [M]+
m/z	relative intensity
39.0234	221
41.0389	418
43.9814	239
44.9888	228
45.9969	439
47.0049	168
48.0124	186
55.0542	204
56.9886	436
59.0042	559
61.0199	999
62.0275	809
69.0689	59
71.0035	84
73.0191	232
74.0267	109
75.0348	671
76.0427	889
85.0176	59
87.0342	109
88.0421	189
89.0493	200
90.0572	161
101.0495	172
103.0652	154
115.0651	172
117.0813	98
129.0815	77
131.0967	84
143.0966	84
145.1126	56
157.1118	52
