Mass spectrum: Iohexol; LC-ESI-QTOF; MS2; 70 V
Name: Iohexol
Class: Pharmaceutical
Formula: C19H26I3N3O9
Exact mass: 820.8803
SMILES: CC(=O)N(CC(O)CO)c1c(I)c(C(=O)NCC(O)CO)c(I)c(C(=O)NCC(O)CO)c1I
InChI: InChI=1S/C19H26I3N3O9/c1-8(29)25(4-11(32)7-28)17-15(21)12(18(33)23-2-9(30)5-26)14(20)13(16(17)22)19(34)24-3-10(31)6-27/h9-11,26-28,30-32H,2-7H2,1H3,(H,23,33)(H,24,34)
Instrument: TripleTOF 5600 SCIEX
Instrument type: LC-ESI-QTOF
Ms type: MS2
Ion mode: POSITIVE
Collision energy: 70
Fragmentation mode: CID
Ionization: ESI
Column name: Zorbax Eclipse Plus C18 2.1 mm x 150 mm, 3.5 um, Agilent
Retention time: 4.533 min
Precursor m/z: 821.8876
Precursor type: [M+H]+
m/z	relative intensity
144.0425	17
158.0209	17
173.0437	26
175.0266	39
185.0453	17
204.0521	57
205.0755	26
228.9388	35
229.0672	22
247.0677	26
248.081	26
249.0854	26
257.9377	39
258.9501	22
273.9344	66
275.9476	30
284.9322	22
285.933	26
286.9342	39
291.0965	22
296.929	35
297.9352	26
299.9188	26
299.9473	30
300.9505	57
301.9314	387
307.0922	35
311.9573	22
313.9317	22
313.9635	35
314.9604	39
315.947	44
321.1063	105
323.9144	26
323.9505	26
324.9252	26
325.9328	30
326.9525	22
327.9105	22
327.9434	22
328.9797	26
329.962	52
338.9664	17
339.9457	101
342.9322	26
344.9744	30
345.9551	17
350.9875	57
355.8457	30
356.9727	48
357.9586	264
359.9702	26
362.9873	96
367.8429	30
372.9683	39
373.9833	30
374.9835	999
375.971	30
382.8296	17
383.8351	35
384.8578	39
385.8122	22
388.9962	35
395.8454	22
396.8396	22
397.8029	22
397.8204	26
397.848	35
403.0181	44
409.8127	22
410.8268	79
411.8339	110
412.8768	17
413.0001	44
413.8156	127
413.8635	22
416.9926	35
423.798	17
424.8421	22
425.816	154
426.8436	48
427.839	22
431.0081	70
433.0306	22
435.0039	48
438.8463	30
439.8294	74
441.8458	44
449.021	149
451.8293	312
458.8869	26
469.8325	105
482.8732	39
484.8537	22
486.8616	22
498.8677	83
500.8821	783
501.8877	48
509.7319	39
510.871	30
512.891	79
514.8434	35
514.8678	105
524.8772	52
528.878	387
542.8955	193
560.9034	96
579.7382	30
626.7798	352
652.7772	44
656.8023	22
