Mass spectrum: Sildenafil; LC-ESI-QTOF; MS2; 120 V
Name: Sildenafil
Class: Pharmaceutical
Formula: C22H30N6O4S
Exact mass: 474.2049
SMILES: CCCC1=NN(C2=C1NC(=NC2=O)C3=C(C=CC(=C3)S(=O)(=O)N4CCN(CC4)C)OCC)C
InChI: InChI=1S/C22H30N6O4S/c1-5-7-17-19-20(27(4)25-17)22(29)24-21(23-19)16-14-15(8-9-18(16)32-6-2)33(30,31)28-12-10-26(3)11-13-28/h8-9,14H,5-7,10-13H2,1-4H3,(H,23,24,29)
Instrument: TripleTOF 5600 SCIEX
Instrument type: LC-ESI-QTOF
Ms type: MS2
Ion mode: NEGATIVE
Collision energy: 120
Fragmentation mode: CID
Ionization: ESI
Column name: Zorbax Eclipse Plus C18 2.1 mm x 150 mm, 3.5 um, Agilent
Retention time: 7.283 min
Precursor m/z: 473.1976
Precursor type: [M-H]-
m/z	relative intensity
41.9995	68
65.9982	68
89.026	120
90.0339	430
105.032	51
115.0303	275
117.0213	206
118.0299	809
132.0339	51
143.0251	258
144.0111	51
153.0431	51
154.048	51
170.0339	51
171.0317	258
181.0446	155
182.0522	68
186.0532	86
195.0309	68
196.0534	86
196.0729	51
209.0469	999
210.0518	51
222.0561	86
224.0692	51
237.042	447
238.0508	327
238.0832	68
