Mass spectrum: 2-Methoxyethyl-N-(3-aminophenyl)carbamate; LC-ESI-QTOF; MS2; 40 V
Name: 2-Methoxyethyl-N-(3-aminophenyl)carbamate
Class: Industrial_process
Formula: C10H14N2O3
Exact mass: 210.1004
SMILES: COCCOC(=O)NC1=CC=CC(=C1)N
InChI: InChI=1S/C10H14N2O3/c1-14-5-6-15-10(13)12-9-4-2-3-8(11)7-9/h2-4,7H,5-6,11H2,1H3,(H,12,13)
Instrument: TripleTOF 5600 SCIEX
Instrument type: LC-ESI-QTOF
Ms type: MS2
Ion mode: POSITIVE
Collision energy: 40
Fragmentation mode: CID
Ionization: ESI
Column name: Zorbax Eclipse Plus C18 2.1 mm x 150 mm, 3.5 um, Agilent
Retention time: 4.802 min
Precursor m/z: 211.1077
Precursor type: [M+H]+
m/z	relative intensity
43.0329	13
45.0435	20
59.0574	504
65.0457	268
77.064	20
80.0551	142
90.0372	153
91.057	27
92.0528	999
93.0605	313
106.0567	17
107.0622	247
108.0458	24
109.0784	66
118.0288	24
134.0507	41
135.0563	772
