Mass spectrum: Flumequin; LC-ESI-QTOF; MS2; 150 V
Name: Flumequin
Class: Pharmaceutical; Antimicrobial
Formula: C14H12FNO3
Exact mass: 261.0801
SMILES: CC1CCc2cc(F)cc3C(=O)C(=CN1c23)C(O)=O
InChI: InChI=1S/C14H12FNO3/c1-7-2-3-8-4-9(15)5-10-12(8)16(7)6-11(13(10)17)14(18)19/h4-7H,2-3H2,1H3,(H,18,19)
Instrument: TripleTOF 5600 SCIEX
Instrument type: LC-ESI-QTOF
Ms type: MS2
Ion mode: POSITIVE
Collision energy: 150
Fragmentation mode: CID
Ionization: ESI
Column name: Zorbax Eclipse Plus C18 2.1 mm x 150 mm, 3.5 um, Agilent
Retention time: 9.545 min
Precursor m/z: 262.0874
Precursor type: [M+H]+
m/z	relative intensity
51.0297	44
53.0081	76
57.0167	22
68.0092	31
73.0102	246
74.0184	622
75.0243	179
76.0208	31
81.0161	44
85.01	58
86.0165	44
92.0074	53
93.0158	58
94.0243	22
97.008	264
98.016	999
98.0412	22
98.0555	22
99.0111	403
100.0214	53
