Mass spectrum: Venlafaxine-N-oxide; LC-ESI-QTOF; MS2; 80 V
Name: Venlafaxine-N-oxide
Class: Pharmaceutical; Metabolite; Transformation_product
Formula: C17H27NO3
Exact mass: 293.1991
SMILES: C[N+](C)(CC(c1ccc(cc1)OC)C2(CCCCC2)O)[O-]
InChI: InChI=1S/C17H27NO3/c1-18(2,20)13-16(17(19)11-5-4-6-12-17)14-7-9-15(21-3)10-8-14/h7-10,16,19H,4-6,11-13H2,1-3H3
Instrument: TripleTOF 5600 SCIEX
Instrument type: LC-ESI-QTOF
Ms type: MS2
Ion mode: POSITIVE
Collision energy: 80
Fragmentation mode: CID
Ionization: ESI
Column name: Zorbax Eclipse Plus C18 2.1 mm x 150 mm, 3.5 um, Agilent
Retention time: 7.246 min
Precursor m/z: 294.2064
Precursor type: [M+H]+
m/z	relative intensity
55.0578	14
65.0433	79
77.0418	506
78.0496	620
79.0566	72
81.0723	90
91.0562	378
93.0704	15
99.0825	14
103.0546	29
106.042	77
107.0491	23
115.0534	27
121.0647	999
