Mass spectrum: 2-Piperidin-3-yl-benzothiazole; LC-ESI-QTOF; MS2; 110 V
Name: 2-Piperidin-3-yl-benzothiazole
Formula: C12H14N2S
Exact mass: 218.0878
SMILES: C1CC(CNC1)C2=NC3=CC=CC=C3S2
InChI: InChI=1S/C12H14N2S/c1-2-6-11-10(5-1)14-12(15-11)9-4-3-7-13-8-9/h1-2,5-6,9,13H,3-4,7-8H2
Instrument: TripleTOF 5600 SCIEX
Instrument type: LC-ESI-QTOF
Ms type: MS2
Ion mode: POSITIVE
Collision energy: 110
Fragmentation mode: CID
Ionization: ESI
Column name: Zorbax Eclipse Plus C18 2.1 mm x 150 mm, 3.5 um, Agilent
Retention time: 5.623 min
Precursor m/z: 219.095
Precursor type: [M+H]+
m/z	relative intensity
37.0072	27
38.0151	24
39.0228	96
42.0332	12
43.972	9
44.0496	37
44.9791	149
49.0068	12
50.015	52
51.0231	121
57.9868	64
61.0077	19
62.0154	29
63.0229	114
65.0388	236
67.9715	49
68.9792	999
74.0154	57
75.0225	54
76.0187	19
76.0297	22
77.0385	161
80.9784	29
81.9868	283
82.9962	9
89.0384	79
90.0462	17
91.9728	9
92.9789	114
94.9946	14
95.9999	12
102.0459	12
104.0499	12
106.9957	39
108.0019	139
109.011	52
115.0522	12
121.0104	49
128.0586	9
148.0235	19
