Mass spectrum: Lamotrigine; LC-ESI-QTOF; MS2; 60 V
Name: Lamotrigine
Class: Pharmaceutical
Formula: C9H7Cl2N5
Exact mass: 255.0079
SMILES: Nc1nnc(c(N)n1)c2cccc(Cl)c2Cl
InChI: InChI=1S/C9H7Cl2N5/c10-5-3-1-2-4(6(5)11)7-8(12)14-9(13)16-15-7/h1-3H,(H4,12,13,14,16)
Instrument: TripleTOF 5600 SCIEX
Instrument type: LC-ESI-QTOF
Ms type: MS2
Ion mode: POSITIVE
Collision energy: 60
Fragmentation mode: CID
Ionization: ESI
Column name: Zorbax Eclipse Plus C18 2.1 mm x 150 mm, 3.5 um, Agilent
Retention time: 6.024 min
Precursor m/z: 256.0151
Precursor type: [M+H]+
m/z	relative intensity
43.0383	731
44.0449	67
58.0444	178
68.0285	49
72.9866	67
74.0178	192
75.0258	35
77.0412	21
82.9478	14
87.0263	17
88.0208	28
88.031	28
89.0404	199
90.0372	39
96.9843	64
99.0001	49
99.0122	14
100.0181	235
102.0333	42
104.0495	28
106.9452	46
108.9842	999
109.9905	21
110.9995	78
112.0096	14
114.034	121
115.0314	57
115.0413	32
116.0369	21
116.049	89
117.0427	28
120.9832	17
121.9931	32
122.9996	417
123.995	460
124.0269	14
125.0019	117
129.0452	24
130.0432	17
131.0599	174
132.9606	396
132.9812	14
135.9952	203
137.0032	21
138.0112	192
139.0163	35
144.9608	927
145.9706	17
147.9935	92
149.0026	35
150.0107	49
151.0183	210
152.0137	388
156.9608	777
157.9555	17
158.9762	285
159.9726	178
159.9944	39
163.0067	21
164.0019	117
165.02	135
166.0299	124
170.9635	303
171.9726	135
172.9669	174
173.9876	17
176.0152	21
178.0189	24
179.0219	14
182.9598	17
183.9709	181
184.9766	67
186.9811	46
194.9629	203
210.9818	89
211.9779	42
