Mass spectrum: Candesartan; LC-ESI-QTOF; MS2; 110 V
Name: Candesartan
Class: Pharmaceutical
Formula: C24H20N6O3
Exact mass: 440.1597
SMILES: CCOc1nc2cccc(C(O)=O)c2n1Cc3ccc(cc3)c4ccccc4c5n[nH]nn5
InChI: InChI=1S/C24H20N6O3/c1-2-33-24-25-20-9-5-8-19(23(31)32)21(20)30(24)14-15-10-12-16(13-11-15)17-6-3-4-7-18(17)22-26-28-29-27-22/h3-13H,2,14H2,1H3,(H,31,32)(H,26,27,28,29)
Instrument: TripleTOF 5600 SCIEX
Instrument type: LC-ESI-QTOF
Ms type: MS2
Ion mode: NEGATIVE
Collision energy: 110
Fragmentation mode: CID
Ionization: ESI
Column name: Zorbax Eclipse Plus C18 2.1 mm x 150 mm, 3.5 um, Agilent
Retention time: 10.001 min
Precursor m/z: 439.1524
Precursor type: [M-H]-
m/z	relative intensity
42.0011	70
42.0113	58
104.0376	105
117.0449	123
132.032	999
133.0403	769
190.0666	76
278.0843	70
280.0974	76
