Mass spectrum: Propiconazole; LC-ESI-QTOF; MS2; 130 V
Name: Propiconazole
Class: Fungicide; Biocide
Formula: C15H17Cl2N3O2
Exact mass: 341.0698
SMILES: CCCC1COC(Cn2cncn2)(O1)c3ccc(Cl)cc3Cl
InChI: InChI=1S/C15H17Cl2N3O2/c1-2-3-12-7-21-15(22-12,8-20-10-18-9-19-20)13-5-4-11(16)6-14(13)17/h4-6,9-10,12H,2-3,7-8H2,1H3
Instrument: TripleTOF 5600 SCIEX
Instrument type: LC-ESI-QTOF
Ms type: MS2
Ion mode: POSITIVE
Collision energy: 130
Fragmentation mode: CID
Ionization: ESI
Column name: Zorbax Eclipse Plus C18 2.1 mm x 150 mm, 3.5 um, Agilent
Retention time: 13.45 min
Precursor m/z: 342.0771
Precursor type: [M+H]+
m/z	relative intensity
48.9905	10
69.0722	13
70.0422	41
72.9879	527
74.0184	459
75.0252	77
82.9456	49
83.9766	10
84.9849	12
86.0162	20
87.0241	32
88.031	81
89.0408	999
96.9845	148
99.0001	137
106.9446	19
108.9832	231
109.9909	10
122.999	191
124.0061	47
132.9599	69
144.9586	18
158.9739	22
