Mass spectrum: Metachrome Yellow free acid; LC-ESI-QTOF; MS2; 90 V
Name: Metachrome Yellow free acid
Formula: C13H9N3O5
Exact mass: 287.0542
SMILES: C1=CC(=CC(=C1)[N+](=O)[O-])N=NC2=CC(=C(C=C2)O)C(=O)O
InChI: InChI=1S/C13H9N3O5/c17-12-5-4-9(7-11(12)13(18)19)15-14-8-2-1-3-10(6-8)16(20)21/h1-7,17H,(H,18,19)
Instrument: TripleTOF 6600 SCIEX
Instrument type: LC-ESI-QTOF
Ms type: MS2
Ion mode: NEGATIVE
Collision energy: 90
Fragmentation mode: CID
Ionization: ESI
Column name: Zorbax Eclipse Plus C18 2.1 mm x 150 mm, 3.5 um, Agilent
Retention time: 11.919 min
Precursor m/z: 286.0469
Precursor type: [M-H]-
m/z	relative intensity
41.0034	65
45.9936	999
49.0101	12
92.0263	260
