Mass spectrum: 10,11-Dihydrocarbamazepine; LC-ESI-QTOF; MS2; 120 V
Name: 10,11-Dihydrocarbamazepine
Class: Pharmaceutical; Metabolite
Formula: C15H14N2O
Exact mass: 238.1106
SMILES: NC(=O)N1c2ccccc2CCc3ccccc13
InChI: InChI=1S/C15H14N2O/c16-15(18)17-13-7-3-1-5-11(13)9-10-12-6-2-4-8-14(12)17/h1-8H,9-10H2,(H2,16,18)
Instrument: TripleTOF 5600 SCIEX
Instrument type: LC-ESI-QTOF
Ms type: MS2
Ion mode: POSITIVE
Collision energy: 120
Fragmentation mode: CID
Ionization: ESI
Column name: Zorbax Eclipse Plus C18 2.1 mm x 150 mm, 3.5 um, Agilent
Retention time: 9.235 min
Precursor m/z: 239.1179
Precursor type: [M+H]+
m/z	relative intensity
44.0197	55
63.0597	27
64.0348	27
65.0433	764
66.0516	48
73.0104	62
74.018	530
74.04	34
75.0256	626
76.0204	27
76.0331	192
77.0411	688
77.0669	41
78.0478	110
85.0114	48
86.0164	103
87.0242	172
88.0324	48
89.0401	702
90.0484	82
91.0555	365
98.0161	227
99.0235	144
100.0302	62
101.0389	192
102.0463	172
110.0147	68
111.0239	48
113.0374	337
114.0333	41
114.0473	48
115.0536	179
116.0522	48
117.0565	55
122.0156	62
123.023	34
124.03	27
125.0395	206
126.0463	482
127.0407	27
127.0532	165
128.0533	130
137.0368	103
138.0464	89
139.054	289
140.0487	220
141.0598	34
149.0384	137
150.0463	999
151.0545	902
152.0617	523
153.0568	103
161.0373	34
162.0447	103
163.054	440
164.0569	186
165.069	82
166.0669	62
174.0445	75
175.0486	62
176.0557	117
177.0571	227
178.065	344
179.0722	62
188.0481	96
189.0569	137
190.0669	172
191.0724	110
