Mass spectrum: 3,5-bis(hexanoylamino)-2,4,6-triiodobenzoic acid; LC-ESI-QTOF; MS2; 80 V
Name: 3,5-bis(hexanoylamino)-2,4,6-triiodobenzoic acid
Class: Pharmaceutical; Transformation_product
Formula: C19H25I3N2O4
Exact mass: 725.8949
SMILES: CCCCCC(=O)Nc1c(I)c(NC(=O)CCCCC)c(I)c(C(O)=O)c1I
InChI: InChI=1S/C19H25I3N2O4/c1-3-5-7-9-11(25)23-17-14(20)13(19(27)28)15(21)18(16(17)22)24-12(26)10-8-6-4-2/h3-10H2,1-2H3,(H,23,25)(H,24,26)(H,27,28)
Instrument: TripleTOF 5600 SCIEX
Instrument type: LC-ESI-QTOF
Ms type: MS2
Ion mode: POSITIVE
Collision energy: 80
Fragmentation mode: CID
Ionization: ESI
Column name: Zorbax Eclipse Plus C18 2.1 mm x 150 mm, 3.5 um, Agilent
Retention time: 11.575 min
Precursor m/z: 726.9021
Precursor type: [M+H]+
m/z	relative intensity
148.0384	21
148.0616	20
161.0463	20
161.0703	97
162.0543	10
174.0417	12
186.0432	12
187.0499	24
188.0585	25
192.0526	38
200.0573	11
201.0644	21
202.1097	21
204.1021	345
205.0616	17
213.0677	12
231.1136	17
232.0479	17
242.1061	27
244.1199	53
245.1277	10
248.1152	53
256.1198	23
257.0911	19
257.1271	29
270.0985	21
271.1081	19
275.1027	99
288.1106	118
289.1186	70
299.1752	21
301.1201	17
301.1911	67
303.1349	153
317.1516	12
317.9508	39
345.1819	999
375.0197	133
473.0948	12
