Mass spectrum: Citalopram-N-oxide; LC-ESI-QTOF; MS2; 10 V
Name: Citalopram-N-oxide
Class: Metabolite; Pharmaceutical; Transformation_product; Transformation_product-Metabolite
Formula: C20H21FN2O2
Exact mass: 340.1587
SMILES: C[N+](C)(CCCC1(C2=C(CO1)C=C(C=C2)C#N)C3=CC=C(C=C3)F)[O-]
InChI: InChI=1S/C20H21FN2O2/c1-23(2,24)11-3-10-20(17-5-7-18(21)8-6-17)19-9-4-15(13-22)12-16(19)14-25-20/h4-9,12H,3,10-11,14H2,1-2H3
Instrument: TripleTOF 5600 SCIEX
Instrument type: LC-ESI-QTOF
Ms type: MS2
Ion mode: POSITIVE
Collision energy: 10
Fragmentation mode: CID
Ionization: ESI
Column name: Zorbax Eclipse Plus C18 2.1 mm x 150 mm, 3.5 um, Agilent
Retention time: 7.958 min
Precursor m/z: 341.166
Precursor type: [M+H]+
m/z	relative intensity
262.1037	44
280.1149	46
341.1676	999
