Mass spectrum: 2,4-Dihydroxybenzophenone; LC-ESI-QTOF; MS2; 60 V
Name: 2,4-Dihydroxybenzophenone
Class: Personal_care_product
Formula: C13H10O3
Exact mass: 214.063
SMILES: Oc1ccc(c(O)c1)C(=O)c2ccccc2
InChI: InChI=1S/C13H10O3/c14-10-6-7-11(12(15)8-10)13(16)9-4-2-1-3-5-9/h1-8,14-15H
Instrument: TripleTOF 5600 SCIEX
Instrument type: LC-ESI-QTOF
Ms type: MS2
Ion mode: NEGATIVE
Collision energy: 60
Fragmentation mode: CID
Ionization: ESI
Column name: Zorbax Eclipse Plus C18 2.1 mm x 150 mm, 3.5 um, Agilent
Retention time: 10.97 min
Precursor m/z: 213.0557
Precursor type: [M-H]-
m/z	relative intensity
41.007	546
65.0048	750
91.0195	999
