Mass spectrum: 3,4,5-Trimethoxybenzoic acid; LC-ESI-QTOF; MS2; 40 V
Name: 3,4,5-Trimethoxybenzoic acid
Class: Pharmaceutical; Industrial_process; Metabolite
Formula: C10H12O5
Exact mass: 212.0685
SMILES: COc1cc(cc(OC)c1OC)C(O)=O
InChI: InChI=1S/C10H12O5/c1-13-7-4-6(10(11)12)5-8(14-2)9(7)15-3/h4-5H,1-3H3,(H,11,12)
Instrument: TripleTOF 5600 SCIEX
Instrument type: LC-ESI-QTOF
Ms type: MS2
Ion mode: POSITIVE
Collision energy: 40
Fragmentation mode: CID
Ionization: ESI
Column name: Zorbax Eclipse Plus C18 2.1 mm x 150 mm, 3.5 um, Agilent
Retention time: 7.633 min
Precursor m/z: 213.0757
Precursor type: [M+H]+
m/z	relative intensity
53.0447	23
55.0596	16
65.0425	430
66.0483	16
67.0581	20
68.029	50
69.0018	16
77.0409	149
78.0493	57
79.0566	33
81.0366	91
83.0518	67
91.0541	13
92.0299	37
93.0346	423
94.0424	54
95.0138	27
95.0509	203
96.0219	94
96.0591	23
96.0675	16
107.0125	54
107.0498	37
108.0574	37
109.0287	108
109.065	94
110.0364	44
111.0442	524
121.0279	57
122.0364	30
123.0439	399
124.0512	71
125.0607	108
137.0231	44
138.0673	145
139.039	999
151.0394	47
152.0476	44
153.0564	40
154.0623	538
