Mass spectrum: N,N-Dimethyldecanamide; LC-ESI-QTOF; MS2; 80 V
Name: N,N-Dimethyldecanamide
Class: Industrial_process
Formula: C12H25NO
Exact mass: 199.1936
SMILES: CCCCCCCCCC(=O)N(C)C
InChI: InChI=1S/C12H25NO/c1-4-5-6-7-8-9-10-11-12(14)13(2)3/h4-11H2,1-3H3
Instrument: TripleTOF 6600 SCIEX
Instrument type: LC-ESI-QTOF
Ms type: MS2
Ion mode: POSITIVE
Collision energy: 80
Fragmentation mode: CID
Ionization: ESI
Column name: Zorbax Eclipse Plus C18 2.1 mm x 150 mm, 3.5 um, Agilent
Retention time: 13.577 min
Precursor m/z: 200.2009
Precursor type: [M+H]+
m/z	relative intensity
30.0334	27
37.0068	46
38.0024	26
38.0144	38
39.0227	379
41.0383	272
42.0331	29
43.0173	116
43.0538	18
44.0494	999
45.0563	27
46.0647	116
55.0174	85
56.0124	20
58.0278	71
72.0437	106
