Mass spectrum: 1,5-Naphthalenediamine; LC-ESI-QTOF; MS2; 30 V
Name: 1,5-Naphthalenediamine
Formula: C10H10N2
Exact mass: 158.0844
SMILES: C1=CC2=C(C=CC=C2N)C(=C1)N
InChI: InChI=1S/C10H10N2/c11-9-5-1-3-7-8(9)4-2-6-10(7)12/h1-6H,11-12H2
Instrument: TripleTOF X500R SCIEX
Instrument type: LC-ESI-QTOF
Ms type: MS2
Ion mode: POSITIVE
Collision energy: 30
Fragmentation mode: CID
Ionization: ESI
Column name: Zorbax Eclipse Plus C18 2.1 mm x 150 mm, 3.5 um, Agilent
Retention time: 2.752 min
Precursor m/z: 159.0917
Precursor type: [M+H]+
m/z	relative intensity
41.0403	22
91.0514	33
93.0574	11
103.0547	11
115.0543	718
116.064	78
117.0572	11
118.0675	11
130.0645	67
131.0742	22
132.0801	123
140.0463	22
141.0566	168
142.0654	606
143.0733	999
157.078	22
158.0852	684
159.0923	314
