Mass spectrum: Trazodone; LC-ESI-QTOF; MS2; 140 V
Name: Trazodone
Class: Pharmaceutical
Formula: C19H22ClN5O
Exact mass: 371.1513
SMILES: C1CN(CCN1CCCN2C(=O)N3C=CC=CC3=N2)C4=CC(=CC=C4)Cl
InChI: InChI=1S/C19H22ClN5O/c20-16-5-3-6-17(15-16)23-13-11-22(12-14-23)8-4-10-25-19(26)24-9-2-1-7-18(24)21-25/h1-3,5-7,9,15H,4,8,10-14H2
Instrument: TripleTOF 6600 SCIEX
Instrument type: LC-ESI-QTOF
Ms type: MS2
Ion mode: POSITIVE
Collision energy: 140
Fragmentation mode: CID
Ionization: ESI
Column name: Zorbax Eclipse Plus C18 2.1 mm x 150 mm, 3.5 um, Agilent
Retention time: 7.095 min
Precursor m/z: 372.1586
Precursor type: [M+H]+
m/z	relative intensity
35.9984	15
37.0059	84
38.014	171
39.0218	238
40.0163	18
41.0247	82
41.0369	14
42.0323	49
49.0056	39
50.0136	329
51.0218	991
52.0174	99
52.0282	48
63.0215	20
64.0169	118
65.0242	188
65.0365	34
66.0196	35
66.0311	57
67.0398	41
73.0051	17
74.0134	166
75.0215	259
76.0278	13
77.0365	80
78.0321	999
79.0402	92
80.0478	20
84.9815	33
89.0364	52
90.0441	17
91.0522	100
92.0355	117
93.0416	34
104.0475	19
110.9971	120
117.0555	31
118.0616	33
119.0592	55
120.0293	13
130.0635	18
131.0587	18
138.0086	15
139.0029	19
