Mass spectrum: Estrone; LC-ESI-QTOF; MS2; 110 V
Name: Estrone
Class: Pharmaceutical
Formula: C18H22O2
Exact mass: 270.162
SMILES: CC12CCC3C(C1CCC2=O)CCC4=C3C=CC(=C4)O
InChI: InChI=1S/C18H22O2/c1-18-9-8-14-13-5-3-12(19)10-11(13)2-4-15(14)16(18)6-7-17(18)20/h3,5,10,14-16,19H,2,4,6-9H2,1H3
Instrument: TripleTOF 5600 SCIEX
Instrument type: LC-ESI-QTOF
Ms type: MS2
Ion mode: POSITIVE
Collision energy: 110
Fragmentation mode: CID
Ionization: ESI
Column name: Zorbax Eclipse Plus C18 2.1 mm x 150 mm, 3.5 um, Agilent
Retention time: 11.224 min
Precursor m/z: 271.1693
Precursor type: [M+H]+
m/z	relative intensity
39.023	42
41.0386	15
43.018	35
50.0151	48
51.0231	168
53.0387	12
55.0176	19
61.0068	15
62.0151	34
63.0229	125
65.0386	193
66.046	20
67.0539	14
74.0147	33
75.0225	57
76.0305	29
77.0382	743
78.046	66
79.054	106
86.0144	10
87.0226	23
88.0303	10
89.0385	329
90.0457	12
91.0541	170
94.041	32
101.0384	27
102.0462	135
103.054	146
105.0697	28
107.0486	55
113.0376	22
114.0463	24
115.0538	999
116.0616	55
118.041	13
126.0459	106
127.0539	193
128.0615	316
129.069	12
131.0487	72
139.0539	99
141.0694	26
144.0566	30
150.0461	53
151.0538	107
152.0617	318
153.0695	30
157.0642	13
163.0536	71
164.0619	47
165.0693	113
176.0619	40
178.0787	14
181.0645	21
189.0685	12
