Mass spectrum: Disperse orange 3; LC-ESI-QTOF; MS2; 130 V
Name: Disperse orange 3
Formula: C12H10N4O2
Exact mass: 242.0804
SMILES: C1=CC(=CC=C1N)N=NC2=CC=C(C=C2)[N+](=O)[O-]
InChI: InChI=1S/C12H10N4O2/c13-9-1-3-10(4-2-9)14-15-11-5-7-12(8-6-11)16(17)18/h1-8H,13H2
Instrument: TripleTOF 6600 SCIEX
Instrument type: LC-ESI-QTOF
Ms type: MS2
Ion mode: POSITIVE
Collision energy: 130
Fragmentation mode: CID
Ionization: ESI
Column name: Zorbax Eclipse Plus C18 2.1 mm x 150 mm, 3.5 um, Agilent
Retention time: 12.729 min
Precursor m/z: 243.0877
Precursor type: [M+H]+
m/z	relative intensity
35.9983	15
37.0064	87
38.0142	49
39.0219	120
49.0062	309
50.0143	999
51.0214	115
52.0173	49
52.0295	23
53.0373	11
61.0062	33
62.0138	72
63.0214	61
65.0377	45
73.0055	232
74.0137	847
75.0217	123
76.0294	14
78.0333	23
