Mass spectrum: Reserpine; LC-ESI-QTOF; MS2; 40 V
Name: Reserpine
Class: Natural_product; Pharmaceutical
Formula: C33H40N2O9
Exact mass: 608.2734
SMILES: COC1C(CC2CN3CCC4=C(C3CC2C1C(=O)OC)NC5=C4C=CC(=C5)OC)OC(=O)C6=CC(=C(C(=C6)OC)OC)OC
InChI: InChI=1S/C33H40N2O9/c1-38-19-7-8-20-21-9-10-35-16-18-13-27(44-32(36)17-11-25(39-2)30(41-4)26(12-17)40-3)31(42-5)28(33(37)43-6)22(18)15-24(35)29(21)34-23(20)14-19/h7-8,11-12,14,18,22,24,27-28,31,34H,9-10,13,15-16H2,1-6H3
Instrument: TripleTOF 5600 SCIEX
Instrument type: LC-ESI-QTOF
Ms type: MS2
Ion mode: POSITIVE
Collision energy: 40
Fragmentation mode: CID
Ionization: ESI
Column name: Zorbax Eclipse Plus C18 2.1 mm x 150 mm, 3.5 um, Agilent
Retention time: 8.6 min
Precursor m/z: 609.2807
Precursor type: [M+H]+
m/z	relative intensity
174.0918	223
188.1064	11
192.1025	32
195.065	440
200.1064	11
204.1035	11
215.1186	12
224.1275	44
236.1281	84
333.1557	13
336.1585	37
348.1599	23
365.1846	142
368.1831	38
380.1857	15
397.2108	609
434.1813	26
436.196	76
448.1953	384
577.2536	93
607.3412	10
608.2685	11
609.2782	999
