Mass spectrum: Pentoxifylline; LC-ESI-QTOF; MS2; 50 V
Name: Pentoxifylline
Class: Pharmaceutical
Formula: C13H18N4O3
Exact mass: 278.1379
SMILES: Cn1cnc2N(C)C(=O)N(CCCCC(C)=O)C(=O)c12
InChI: InChI=1S/C13H18N4O3/c1-9(18)6-4-5-7-17-12(19)10-11(14-8-15(10)2)16(3)13(17)20/h8H,4-7H2,1-3H3
Instrument: TripleTOF 5600 SCIEX
Instrument type: LC-ESI-QTOF
Ms type: MS2
Ion mode: POSITIVE
Collision energy: 50
Fragmentation mode: CID
Ionization: ESI
Column name: Zorbax Eclipse Plus C18 2.1 mm x 150 mm, 3.5 um, Agilent
Retention time: 6.772 min
Precursor m/z: 279.1452
Precursor type: [M+H]+
m/z	relative intensity
42.0429	173
43.0266	238
56.0553	41
67.0333	122
69.0483	172
81.0462	25
82.0544	11
83.0631	273
94.0421	20
96.0575	27
97.0409	11
99.0814	52
108.0557	178
109.0394	42
110.0721	517
111.0549	21
113.0351	50
122.059	81
123.0432	113
135.0665	127
136.0507	21
137.0825	112
138.0668	999
163.0615	282
181.0722	438
193.0712	21
