Mass spectrum: Fenarimol; LC-ESI-QTOF; MS2; 40 V
Name: Fenarimol
Class: Fungicide
Formula: C17H12Cl2N2O
Exact mass: 330.0327
SMILES: C1=CC=C(C(=C1)C(C2=CC=C(C=C2)Cl)(C3=CN=CN=C3)O)Cl
InChI: InChI=1S/C17H12Cl2N2O/c18-14-7-5-12(6-8-14)17(22,13-9-20-11-21-10-13)15-3-1-2-4-16(15)19/h1-11,22H
Instrument: TripleTOF 6600 SCIEX
Instrument type: LC-ESI-QTOF
Ms type: MS2
Ion mode: POSITIVE
Collision energy: 40
Fragmentation mode: CID
Ionization: ESI
Column name: Zorbax Eclipse Plus C18 2.1 mm x 150 mm, 3.5 um, Agilent
Retention time: 11.9 min
Precursor m/z: 331.04
Precursor type: [M+H]+
m/z	relative intensity
54.0336	65
81.0449	703
110.9994	27
138.9948	660
140.0251	12
156.0672	17
157.0751	22
164.0256	11
178.0762	11
183.0543	14
184.0609	11
189.0703	244
192.0197	11
192.0443	12
199.0307	13
200.0383	11
203.0747	11
204.0814	60
205.0648	24
205.0877	21
206.0955	11
216.0813	14
217.0673	19
219.0312	14
223.0313	131
224.0391	37
225.046	15
232.0754	41
232.9923	21
233.084	92
235.0089	22
238.0426	68
240.0579	85
241.0419	43
241.0625	17
242.0844	12
243.092	22
250.042	45
251.0036	97
251.0495	74
252.034	221
259.0088	450
266.0365	46
267.0453	27
267.0696	44
268.0537	999
276.0334	24
277.0537	17
278.0614	81
286.0205	14
295.0649	11
304.0293	12
331.04	43
