Mass spectrum: Sulfisoxazole; LC-ESI-QTOF; MS2; 30 V
Name: Sulfisoxazole
Class: Antimicrobial; Metabolite; Pharmaceutical
Formula: C11H13N3O3S
Exact mass: 267.0678
InChI: InChI=1S/C11H13N3O3S/c1-7-8(2)13-17-11(7)14-18(15,16)10-5-3-9(12)4-6-10/h3-6,14H,12H2,1-2H3
Instrument: TripleTOF 5600 SCIEX
Instrument type: LC-ESI-QTOF
Ms type: CID
Ion mode: POSITIVE
Collision energy: 30
Ionization: ESI
Column name: Zorbax Eclipse Plus C18 2.1 mm x 150 mm, 3.5 um, Agilent
Retention time: 7.557 min
Precursor m/z: 268.075
Precursor type: [M+H]+
m/z	relative intensity
44.061	23
55.0275	14
65.0454	96
68.0556	31
71.0664	67
72.0531	11
80.0533	29
85.0789	11
86.0635	19
92.0526	999
96.0475	79
108.046	958
113.0721	852
140.0155	15
156.0117	952
173.0143	12
