Mass spectrum: Valsartanic acid; LC-ESI-QTOF; MS2; 110 V
Name: Valsartanic acid
Class: Pharmaceutical; Transformation_product; Transformation_product-Metabolite
Formula: C14H10N4O2
Exact mass: 266.0804
SMILES: O=C(O)C(C=C1)=CC=C1C2=CC=CC=C2C3=NN=NN3
InChI: InChI=1S/C14H10N4O2/c19-14(20)10-7-5-9(6-8-10)11-3-1-2-4-12(11)13-15-17-18-16-13/h1-8H,(H,19,20)(H,15,16,17,18)
Instrument: TripleTOF 5600 SCIEX
Instrument type: LC-ESI-QTOF
Ms type: MS2
Ion mode: POSITIVE
Collision energy: 110
Fragmentation mode: CID
Ionization: ESI
Column name: Zorbax Eclipse Plus C18 2.1 mm x 150 mm, 3.5 um, Agilent
Retention time: 8.027 min
Precursor m/z: 267.0877
Precursor type: [M+H]+
m/z	relative intensity
73.0094	17
74.0184	248
75.0259	286
76.0208	11
76.0332	106
77.0415	267
78.0482	24
86.0165	28
87.0249	47
89.0402	22
97.0162	9
98.016	301
99.0102	13
99.0234	206
100.03	75
101.0399	41
102.0464	83
110.0149	49
111.0223	30
113.0384	36
122.0156	72
123.0107	17
123.0229	53
124.0174	11
124.0302	54
125.0391	106
126.0467	144
127.0436	45
137.0381	15
139.0544	17
140.0497	11
148.0343	17
149.0382	229
150.047	999
151.0525	191
152.0623	47
163.0524	22
164.0506	13
175.0418	77
176.0501	43
177.0589	45
