Mass spectrum: Tepraloxydim; LC-ESI-QTOF; MS2; 50 V
Name: Tepraloxydim
Class: Herbicide
Formula: C17H24ClNO4
Exact mass: 341.1394
SMILES: CCC(=NOCC=CCl)C1=C(CC(CC1=O)C2CCOCC2)O
InChI: InChI=1S/C17H24ClNO4/c1-2-14(19-23-7-3-6-18)17-15(20)10-13(11-16(17)21)12-4-8-22-9-5-12/h3,6,12-13,20H,2,4-5,7-11H2,1H3
Instrument: TripleTOF 6600 SCIEX
Instrument type: LC-ESI-QTOF
Ms type: MS2
Ion mode: NEGATIVE
Collision energy: 50
Fragmentation mode: CID
Ionization: ESI
Column name: Zorbax Eclipse Plus C18 2.1 mm x 150 mm, 3.5 um, Agilent
Retention time: 12.248 min
Precursor m/z: 340.1321
Precursor type: [M-H]-
m/z	relative intensity
34.9677	66
65.9962	74
66.0321	14
92.0465	12
108.044	10
109.027	50
120.0061	25
120.0781	10
134.0221	224
135.0301	32
150.0898	20
153.0886	23
162.0529	23
165.0758	40
178.0837	25
195.0994	32
220.0946	999
221.1155	32
233.1021	16
248.1251	172
