Mass spectrum: 2-Morpholin-4-yl-benzothiazole; LC-ESI-QTOF; MS2; 90 V
Name: 2-Morpholin-4-yl-benzothiazole
Class: Industrial_process
Formula: C11H12N2OS
Exact mass: 220.067
SMILES: c1ccc2c(c1)nc(s2)N3CCOCC3
InChI: InChI=1S/C11H12N2OS/c1-2-4-10-9(3-1)12-11(15-10)13-5-7-14-8-6-13/h1-4H,5-8H2
Instrument: TripleTOF 5600 SCIEX
Instrument type: LC-ESI-QTOF
Ms type: MS2
Ion mode: POSITIVE
Collision energy: 90
Fragmentation mode: CID
Ionization: ESI
Column name: Zorbax Eclipse Plus C18 2.1 mm x 150 mm, 3.5 um, Agilent
Retention time: 9.363 min
Precursor m/z: 221.0743
Precursor type: [M+H]+
m/z	relative intensity
42.0417	13
45.0395	17
51.0288	133
52.0351	11
53.0459	60
57.9916	40
64.0347	40
65.0433	999
67.9762	40
68.9837	865
69.0158	13
69.0269	11
69.9908	100
74.0197	20
75.0261	20
76.0346	17
77.0414	305
78.0363	31
78.0494	26
79.0565	15
80.0519	171
80.9816	24
81.99	187
82.9969	17
89.0399	178
90.0356	107
90.0475	80
91.0432	80
91.0556	53
92.0495	13
92.9801	73
94.9959	147
96.0031	287
97.011	17
103.0532	15
104.0486	11
105.0441	22
106.9953	40
108.003	483
109.0104	437
115.0553	13
117.0572	44
118.0527	26
121.012	31
122.0057	46
123.015	11
124.0214	15
128.0613	17
132.9968	15
134.0047	24
135.0139	17
136.0218	31
148.0225	13
