Mass spectrum: Flumequin; LC-ESI-QTOF; MS2; 60 V
Name: Flumequin
Class: Pharmaceutical; Antimicrobial
Formula: C14H12FNO3
Exact mass: 261.0801
SMILES: CC1CCc2cc(F)cc3C(=O)C(=CN1c23)C(O)=O
InChI: InChI=1S/C14H12FNO3/c1-7-2-3-8-4-9(15)5-10-12(8)16(7)6-11(13(10)17)14(18)19/h4-7H,2-3H2,1H3,(H,18,19)
Instrument: TripleTOF 5600 SCIEX
Instrument type: LC-ESI-QTOF
Ms type: MS2
Ion mode: POSITIVE
Collision energy: 60
Fragmentation mode: CID
Ionization: ESI
Column name: Zorbax Eclipse Plus C18 2.1 mm x 150 mm, 3.5 um, Agilent
Retention time: 9.545 min
Precursor m/z: 262.0874
Precursor type: [M+H]+
m/z	relative intensity
53.0085	36
74.0191	12
75.0258	53
75.0398	12
95.0297	38
98.0149	17
99.0228	243
100.0181	127
119.0281	150
120.0312	69
126.0339	897
133.0434	22
144.0437	10
145.0313	12
146.0398	591
147.0327	36
147.0466	105
148.0547	19
154.0399	376
158.0392	36
159.0469	19
161.0635	12
172.0554	48
174.0346	693
200.0503	24
200.088	10
202.0293	999
244.0774	15
