Mass spectrum: Cybutryne; LC-ESI-QTOF; MS2; 40 V
Name: Cybutryne
Class: Antimicrobial; Herbicide; Biocide
Formula: C11H19N5S
Exact mass: 253.1361
SMILES: CSc1nc(NC2CC2)nc(NC(C)(C)C)n1
InChI: InChI=1S/C11H19N5S/c1-11(2,3)16-9-13-8(12-7-5-6-7)14-10(15-9)17-4/h7H,5-6H2,1-4H3,(H2,12,13,14,15,16)
Instrument: TripleTOF 5600 SCIEX
Instrument type: LC-ESI-QTOF
Ms type: MS2
Ion mode: POSITIVE
Collision energy: 40
Fragmentation mode: CID
Ionization: ESI
Column name: Zorbax Eclipse Plus C18 2.1 mm x 150 mm, 3.5 um, Agilent
Retention time: 10.202 min
Precursor m/z: 254.1434
Precursor type: [M+H]+
m/z	relative intensity
56.0544	148
57.075	20
58.0696	20
68.0279	156
74.0086	216
81.0465	67
83.063	599
85.0517	18
87.0281	44
91.034	511
108.0555	506
114.0161	10
114.0369	75
116.0278	161
125.0823	174
150.0759	122
156.0338	41
156.0582	198
158.0481	18
168.0338	13
170.0486	57
171.0683	20
182.0545	10
198.0804	999
