Mass spectrum: Albendazole; LC-ESI-QTOF; MS2; 120 V
Name: Albendazole
Class: Pharmaceutical
Formula: C12H15N3O2S
Exact mass: 265.0885
SMILES: CCCSc1ccc2nc(NC(=O)OC)[nH]c2c1
InChI: InChI=1S/C12H15N3O2S/c1-3-6-18-8-4-5-9-10(7-8)14-11(13-9)15-12(16)17-2/h4-5,7H,3,6H2,1-2H3,(H2,13,14,15,16)
Instrument: TripleTOF 5600 SCIEX
Instrument type: LC-ESI-QTOF
Ms type: MS2
Ion mode: POSITIVE
Collision energy: 120
Fragmentation mode: CID
Ionization: ESI
Column name: Zorbax Eclipse Plus C18 2.1 mm x 150 mm, 3.5 um, Agilent
Retention time: 8.546 min
Precursor m/z: 266.0958
Precursor type: [M+H]+
m/z	relative intensity
51.0167	13
51.0297	168
52.0241	94
52.0354	59
53.019	19
53.0311	15
56.9843	34
57.9914	61
59.9936	9
65.0306	247
66.0245	28
66.0386	104
67.0452	32
67.9751	25
68.9834	589
69.0101	75
69.9908	115
70.9984	25
75.0139	206
76.0218	999
77.0157	13
77.0291	658
77.0577	13
78.0367	224
79.0443	98
80.0536	15
80.9817	56
81.9897	419
82.9854	154
83.9918	71
84.0062	11
84.9871	21
88.021	21
89.0297	11
90.0366	36
91.0302	15
91.0434	46
91.9739	9
92.0385	289
92.981	345
93.0461	17
93.9754	57
93.9886	75
94.0584	11
94.9816	9
94.9961	173
96.0026	69
102.0377	9
103.0302	137
104.0374	187
105.0459	114
106.0516	13
107.9895	13
108.999	112
110.006	34
118.0384	19
119.0473	21
119.064	11
119.9908	92
120.997	13
122.0056	52
123.0122	19
130.0406	50
131.0478	30
135	25
146.0353	11
158.0333	11
