Mass spectrum: Dehydroepiandrosterone; LC-ESI-QTOF; MS2; 70 V
Name: Dehydroepiandrosterone
Class: Pharmaceutical
Formula: C19H28O2
Exact mass: 288.2089
SMILES: C[C@]12CC[C@H]3[C@@H](CC=C4C[C@@H](O)CC[C@]34C)[C@@H]1CCC2=O
InChI: InChI=1S/C19H28O2/c1-18-9-7-13(20)11-12(18)3-4-14-15-5-6-17(21)19(15,2)10-8-16(14)18/h3,13-16,20H,4-11H2,1-2H3/t13-,14-,15-,16-,18-,19-/m0/s1
Instrument: TripleTOF 5600 SCIEX
Instrument type: LC-ESI-QTOF
Ms type: MS2
Ion mode: POSITIVE
Collision energy: 70
Fragmentation mode: CID
Ionization: ESI
Column name: Zorbax Eclipse Plus C18 2.1 mm x 150 mm, 3.5 um, Agilent
Retention time: 11.589 min
Precursor m/z: 289.2162
Precursor type: [M+H]+
m/z	relative intensity
67.0553	108
77.0407	304
79.0556	217
81.0719	217
91.0555	999
93.072	108
103.0538	108
105.0697	347
115.0538	564
116.0642	130
117.0714	217
127.0533	217
128.0619	608
129.0725	456
130.0788	130
131.0863	108
141.0698	608
142.0771	195
143.0859	195
152.0606	86
153.0716	238
154.0762	130
155.0869	152
165.0684	130
167.0844	238
181.0988	108
