Mass spectrum: Sitagliptin; LC-ESI-QTOF; MS2; 120 V
Name: Sitagliptin
Class: Pharmaceutical
Formula: C16H15F6N5O
Exact mass: 407.1181
SMILES: c1c(c(cc(c1F)F)F)C[C@H](CC(=O)N2CCn3c(nnc3C(F)(F)F)C2)N
InChI: InChI=1S/C16H15F6N5O/c17-10-6-12(19)11(18)4-8(10)3-9(23)5-14(28)26-1-2-27-13(7-26)24-25-15(27)16(20,21)22/h4,6,9H,1-3,5,7,23H2/t9-/m1/s1
Instrument: TripleTOF 5600 SCIEX
Instrument type: LC-ESI-QTOF
Ms type: MS2
Ion mode: POSITIVE
Collision energy: 120
Fragmentation mode: CID
Ionization: ESI
Column name: Zorbax Eclipse Plus C18 2.1 mm x 150 mm, 3.5 um, Agilent
Retention time: 6.571 min
Precursor m/z: 408.1254
Precursor type: [M+H]+
m/z	relative intensity
51.0107	10
55.0352	17
56.0538	27
57.0179	29
68.9974	15
75.0078	47
75.0244	20
77.0237	26
77.0415	77
81.0162	47
83.0306	15
86.0173	40
87.0247	159
91.0112	46
95.0306	26
98.0154	13
101.0207	386
107.03	342
111.0041	11
117.013	42
118.0217	39
119.0097	21
125.0196	130
126.0283	56
127.0362	999
131.0295	15
134.0404	36
137.0201	74
138.028	14
145.026	129
151.0358	76
153.0393	58
154.0459	19
169.0267	19
