Mass spectrum: 4-Ethoxybenzyltriphenylphosphonium; LC-ESI-QTOF; MS2; 50 V
Name: 4-Ethoxybenzyltriphenylphosphonium
Formula: C27H26OP
Exact mass: 397.1716
InChI: InChI=1S/C27H26OP/c1-2-28-24-20-18-23(19-21-24)22-29(25-12-6-3-7-13-25,26-14-8-4-9-15-26)27-16-10-5-11-17-27/h3-21H,2,22H2,1H3/q+1
Instrument: TripleTOF 5600 SCIEX
Instrument type: LC-ESI-QTOF
Ms type: CID
Ion mode: POSITIVE
Collision energy: 50
Ionization: ESI
Column name: Zorbax Eclipse Plus C18 2.1 mm x 150 mm, 3.5 um, Agilent
Retention time: 9.454 min
Precursor m/z: 397.1716
Precursor type: [M]+
m/z	relative intensity
77.0376	84
107.0477	999
135.0797	462
