Mass spectrum: Acridine; LC-ESI-QTOF; MS2; 10 V
Name: Acridine
Class: Industrial_process
Formula: C13H9N
Exact mass: 179.0735
SMILES: c1ccc2nc3ccccc3cc2c1
InChI: InChI=1S/C13H9N/c1-3-7-12-10(5-1)9-11-6-2-4-8-13(11)14-12/h1-9H
Instrument: TripleTOF 5600 SCIEX
Instrument type: LC-ESI-QTOF
Ms type: MS2
Ion mode: POSITIVE
Collision energy: 10
Fragmentation mode: CID
Ionization: ESI
Column name: Zorbax Eclipse Plus C18 2.1 mm x 150 mm, 3.5 um, Agilent
Retention time: 5.776 min
Precursor m/z: 180.0808
Precursor type: [M+H]+
m/z	relative intensity
180.0822	999
