Mass spectrum: Flunixin; LC-ESI-QTOF; MS2; 140 V
Name: Flunixin
Class: Pharmaceutical
Formula: C14H11F3N2O2
Exact mass: 296.0773
SMILES: CC1=C(C=CC=C1NC2=C(C=CC=N2)C(=O)O)C(F)(F)F
InChI: InChI=1S/C14H11F3N2O2/c1-8-10(14(15,16)17)5-2-6-11(8)19-12-9(13(20)21)4-3-7-18-12/h2-7H,1H3,(H,18,19)(H,20,21)
Instrument: TripleTOF 5600 SCIEX
Instrument type: LC-ESI-QTOF
Ms type: MS2
Ion mode: POSITIVE
Collision energy: 140
Fragmentation mode: CID
Ionization: ESI
Column name: Zorbax Eclipse Plus C18 2.1 mm x 150 mm, 3.5 um, Agilent
Retention time: 11.023 min
Precursor m/z: 297.0845
Precursor type: [M+H]+
m/z	relative intensity
51.0176	14
51.0332	173
52.0271	12
57.0231	418
59.0393	23
60.0072	27
65.0449	22
68.0148	18
69.0005	32
69.0229	22
73.013	72
74.0209	488
75.0285	335
76.0261	103
77.0439	187
78.0382	53
80.0086	12
81.0187	136
82.0256	11
83.0337	309
84.0042	14
85.0117	103
86.0191	209
87.0272	231
88.0245	126
89.0422	152
90.0433	18
92.0095	64
93.0159	99
93.0493	12
94.0247	16
95.0332	11
97.0099	121
98.018	999
99.0244	246
100.0212	112
101.0232	12
101.041	47
102.039	37
105.0159	64
106.0218	53
107.0314	112
108.0253	10
109.0079	24
109.0468	34
110.0169	80
111.0119	33
111.0228	55
112.0183	67
113.0398	126
114.0341	81
115.0447	10
116.0054	16
117.0139	18
120.0011	19
121.0097	20
122.0158	103
123.0112	99
124.02	41
125.0215	14
125.0396	58
126.0467	104
127.0503	75
128.0527	15
129.0116	14
129.0465	15
131.03	94
132.0272	34
135.0106	11
136.0166	12
137.0387	20
138.0335	59
139.0444	29
140.0495	41
141.0171	11
146.0159	20
147.0113	58
148.0217	18
149.0184	10
151.0411	23
152.0515	58
153.0559	32
154.0639	11
155.0305	33
156.0214	12
158.0419	28
162.0276	12
163.0464	11
164.0456	18
166.0528	10
169.0325	11
179.0611	38
182.0396	27
