Mass spectrum: Azacyclonol; LC-ESI-QTOF; MS2; 40 V
Name: Azacyclonol
Class: Pharmaceutical
Formula: C18H21NO
Exact mass: 267.1623
SMILES: OC(C1CCNCC1)(C2=CC=CC=C2)C3=CC=CC=C3
InChI: InChI=1S/C18H21NO/c20-18(15-7-3-1-4-8-15,16-9-5-2-6-10-16)17-11-13-19-14-12-17/h1-10,17,19-20H,11-14H2
Instrument: TripleTOF 5600 SCIEX
Instrument type: LC-ESI-QTOF
Ms type: MS2
Ion mode: POSITIVE
Collision energy: 40
Fragmentation mode: CID
Ionization: ESI
Column name: Zorbax Eclipse Plus C18 2.1 mm x 150 mm, 3.5 um, Agilent
Retention time: 6.644 min
Precursor m/z: 268.1696
Precursor type: [M+H]+
m/z	relative intensity
42.0339	11
44.0498	31
56.0495	54
65.039	60
68.0495	13
70.0653	25
77.0383	42
79.0549	17
80.0495	23
82.0656	150
91.0548	999
102.046	11
103.0543	107
105.0703	252
115.0553	140
117.0689	138
127.0553	121
128.0628	588
129.0695	104
130.0662	82
131.0871	10
132.0808	192
141.0695	53
142.0792	16
143.086	446
144.0813	14
145.088	25
146.0967	13
152.0632	78
155.0839	17
165.0711	115
166.0798	79
167.0863	192
172.1083	13
178.079	45
179.0882	23
181.1014	110
190.0826	11
191.0869	23
192.094	14
202.0796	11
203.0846	23
204.0935	45
205.1013	20
207.117	14
219.121	10
250.159	230
