Mass spectrum: Dimethyldioctadecylammonium; LC-ESI-QTOF; MS2; 20 V
Name: Dimethyldioctadecylammonium
Class: Industrial_process; Personal_care_product
Formula: [C38H80N]+
Exact mass: 550.6285
SMILES: CCCCCCCCCCCCCCCCCC[N+](C)(C)CCCCCCCCCCCCCCCCCC
InChI: InChI=1S/C38H80N/c1-5-7-9-11-13-15-17-19-21-23-25-27-29-31-33-35-37-39(3,4)38-36-34-32-30-28-26-24-22-20-18-16-14-12-10-8-6-2/h5-38H2,1-4H3/q+1
Instrument: TripleTOF 6600 SCIEX
Instrument type: LC-ESI-QTOF
Ms type: MS2
Ion mode: POSITIVE
Collision energy: 20
Fragmentation mode: CID
Ionization: ESI
Column name: Zorbax Eclipse Plus C18 2.1 mm x 150 mm, 3.5 um, Agilent
Retention time: 24.796 min
Precursor m/z: 550.6285
Precursor type: [M]+
m/z	relative intensity
550.6287	999
