Mass spectrum: Diclofenac; LC-ESI-QTOF; MS2; 130 V
Name: Diclofenac
Class: Pharmaceutical
Formula: C14H11Cl2NO2
Exact mass: 295.0167
SMILES: OC(Cc1c(Nc2c(Cl)cccc2Cl)cccc1)=O
InChI: InChI=1S/C14H11Cl2NO2/c15-10-5-3-6-11(16)14(10)17-12-7-2-1-4-9(12)8-13(18)19/h1-7,17H,8H2,(H,18,19)
Instrument: TripleTOF 5600 SCIEX
Instrument type: LC-ESI-QTOF
Ms type: MS2
Ion mode: POSITIVE
Collision energy: 130
Fragmentation mode: CID
Ionization: ESI
Column name: Zorbax Eclipse Plus C18 2.1 mm x 150 mm, 3.5 um, Agilent
Retention time: 12.622 min
Precursor m/z: 296.024
Precursor type: [M+H]+
m/z	relative intensity
74.0188	161
75.0256	198
76.0317	73
77.0413	257
98.016	139
99.0234	146
100.0313	36
101.0386	58
102.0469	80
122.0159	51
123.0196	29
124.0307	58
125.0387	139
126.0479	176
127.042	44
139.057	44
140.0507	44
149.0389	132
150.0464	999
150.0807	36
151.0532	514
152.0604	168
153.0545	58
175.0434	88
176.0499	102
177.0584	293
178.0645	110
