Mass spectrum: N,N`-diphenyl-p-phenylenediamine; LC-ESI-QTOF; MS2; 50 V
Name: N,N`-diphenyl-p-phenylenediamine
Class: Industrial_process
Formula: C18H16N2
Exact mass: 260.1313
SMILES: N(c1ccccc1)c2ccc(Nc3ccccc3)cc2
InChI: InChI=1S/C18H16N2/c1-3-7-15(8-4-1)19-17-11-13-18(14-12-17)20-16-9-5-2-6-10-16/h1-14,19-20H
Instrument: TripleTOF 5600 SCIEX
Instrument type: LC-ESI-QTOF
Ms type: MS2
Ion mode: POSITIVE
Collision energy: 50
Fragmentation mode: CID
Ionization: ESI
Column name: Zorbax Eclipse Plus C18 2.1 mm x 150 mm, 3.5 um, Agilent
Retention time: 14.544 min
Precursor m/z: 261.1386
Precursor type: [M+H]+
m/z	relative intensity
66.0497	10
77.0415	10
80.0526	54
81.0601	25
93.0583	19
106.0526	10
107.0615	259
117.0571	10
118.0531	38
128.061	22
129.0692	48
130.0705	40
140.055	15
143.0734	20
144.0789	16
154.0639	10
155.0698	11
156.0803	50
157.0863	45
166.0651	94
167.0726	92
168.0784	164
169.0845	66
181.0757	12
182.083	57
183.0916	351
184.0989	999
261.1322	16
