Mass spectrum: Triclabendazole; LC-ESI-QTOF; MS2; 90 V
Name: Triclabendazole
Class: Pharmaceutical
Formula: C14H9Cl3N2OS
Exact mass: 357.9501
SMILES: CSc1[nH]c2cc(Cl)c(Oc3cccc(Cl)c3Cl)cc2n1
InChI: InChI=1S/C14H9Cl3N2OS/c1-21-14-18-9-5-8(16)12(6-10(9)19-14)20-11-4-2-3-7(15)13(11)17/h2-6H,1H3,(H,18,19)
Instrument: TripleTOF 5600 SCIEX
Instrument type: LC-ESI-QTOF
Ms type: MS2
Ion mode: POSITIVE
Collision energy: 90
Fragmentation mode: CID
Ionization: ESI
Column name: Zorbax Eclipse Plus C18 2.1 mm x 150 mm, 3.5 um, Agilent
Retention time: 13.11 min
Precursor m/z: 358.9574
Precursor type: [M+H]+
m/z	relative intensity
44.9799	42
52.0175	10
61.9796	11
63.0235	18
64.0187	62
68.9802	16
72.9845	25
74.015	13
75.0237	25
76.0185	84
78.0336	35
78.9407	15
84.9852	11
85.9791	30
90.0363	22
91.0292	86
92.0374	49
93.9875	15
96.9837	22
99.0222	16
99.9954	142
102.034	22
103.0291	55
104.037	22
107.9904	74
108.9975	33
111.0006	33
111.995	72
113.0037	28
113.9759	10
116.0377	11
116.9573	13
117.0439	16
118.0543	15
119.9918	25
120.9976	42
123.9941	18
124.0308	15
125.0044	15
125.0383	55
126.0465	108
127.0065	512
128.956	49
129.0463	11
130.0521	15
135.0027	74
136.007	50
136.9905	16
138.0109	28
138.0392	11
139.0057	127
140.0497	76
143.9666	110
147.0005	13
148.0092	332
150.0386	11
151.0426	88
152.0493	128
153.0246	35
153.0573	88
155.9681	59
159.0035	11
160.0072	147
161.0152	93
163.0328	135
165.02	33
165.0452	11
167.0404	10
167.0625	15
169.9687	16
170.9783	999
174.0096	44
176.0061	13
177.0456	23
178.0542	32
179.0589	127
180.0454	123
181.0547	25
182.9785	33
183.0127	33
184.021	33
185.0136	22
186.01	88
187.0181	91
188.0253	110
189.0106	212
193.9664	22
194.9761	15
195.0553	20
195.9803	16
196.9921	11
198.9721	45
200.0122	13
202.0069	11
202.0259	11
203.0151	25
207.0564	45
210.024	16
211.0328	232
212.0175	98
213.0222	44
214.006	186
215.0133	71
216.0182	81
218.992	11
219.9733	23
220.9855	22
221.9938	10
222.9694	33
223.9817	13
229.0178	27
238.0256	11
239.0276	106
241.0168	66
242.025	686
244.994	20
245.9786	81
248.9746	11
249.9821	23
250.9898	81
272.9876	37
273.9983	74
275.9854	47
