Mass spectrum: Dimethachlor ESA; LC-ESI-QTOF; MS2; 30 V
Name: Dimethachlor ESA
Class: Transformation_product; Herbicide
Formula: C13H19NO5S
Exact mass: 301.0984
SMILES: Cc1cccc(c1N(CCOC)C(=O)CS(=O)(=O)O)C
InChI: InChI=1S/C13H19NO5S/c1-10-5-4-6-11(2)13(10)14(7-8-19-3)12(15)9-20(16,17)18/h4-6H,7-9H2,1-3H3,(H,16,17,18)
Instrument: TripleTOF 6600 SCIEX
Instrument type: LC-ESI-QTOF
Ms type: MS2
Ion mode: NEGATIVE
Collision energy: 30
Fragmentation mode: CID
Ionization: ESI
Column name: Zorbax Eclipse Plus C18 2.1 mm x 150 mm, 3.5 um, Agilent
Retention time: 6.763 min
Precursor m/z: 300.0911
Precursor type: [M-H]-
m/z	relative intensity
76.969	95
79.9561	749
118.9687	12
119.9756	17
120.9596	606
121.0658	22
146.0972	71
178.1236	38
268.0643	25
300.0909	999
