Mass spectrum: Acetylsulfamethoxazole; LC-ESI-QTOF; MS2; 110 V
Name: Acetylsulfamethoxazole
Class: Metabolite; Pharmaceutical
Formula: C12H13N3O4S
Exact mass: 295.0627
SMILES: CC1=CC(=NO1)NS(=O)(=O)C2=CC=C(C=C2)NC(=O)C
InChI: InChI=1S/C12H13N3O4S/c1-8-7-12(14-19-8)15-20(17,18)11-5-3-10(4-6-11)13-9(2)16/h3-7H,1-2H3,(H,13,16)(H,14,15)
Instrument: TripleTOF 5600 SCIEX
Instrument type: LC-ESI-QTOF
Ms type: MS2
Ion mode: POSITIVE
Collision energy: 110
Fragmentation mode: CID
Ionization: ESI
Column name: Zorbax Eclipse Plus C18 2.1 mm x 150 mm, 3.5 um, Agilent
Retention time: 7.411 min
Precursor m/z: 296.07
Precursor type: [M+H]+
m/z	relative intensity
43.0301	184
43.0388	67
51.0304	77
65.0454	999
66.0514	96
77.0431	329
78.0372	48
80.054	426
91.0411	48
92.0529	96
93.0592	135
102.0318	38
108.0456	58
