Mass spectrum: 10,11-Dihydro-10,11-epoxycarbamazepine; LC-ESI-QTOF; MS2; 90 V
Name: 10,11-Dihydro-10,11-epoxycarbamazepine
Class: Metabolite
Formula: C15H12N2O2
Exact mass: 252.0899
SMILES: C1=CC=C2C(=C1)C3C(O3)C4=CC=CC=C4N2C(=O)N
InChI: InChI=1S/C15H12N2O2/c16-15(18)17-11-7-3-1-5-9(11)13-14(19-13)10-6-2-4-8-12(10)17/h1-8,13-14H,(H2,16,18)
Instrument: TripleTOF 5600 SCIEX
Instrument type: LC-ESI-QTOF
Ms type: MS2
Ion mode: POSITIVE
Collision energy: 90
Fragmentation mode: CID
Ionization: ESI
Column name: Zorbax Eclipse Plus C18 2.1 mm x 150 mm, 3.5 um, Agilent
Retention time: 7.593 min
Precursor m/z: 253.0972
Precursor type: [M+H]+
m/z	relative intensity
50.0149	12
51.0232	43
63.0225	29
74.0149	28
75.0229	86
76.0313	15
77.0389	188
78.0456	13
87.0237	11
89.0387	76
90.0465	11
99.023	16
100.0292	10
101.0384	137
102.0334	15
102.0459	37
113.0384	70
114.046	22
115.0543	87
116.0492	19
117.0576	13
125.0382	48
126.0462	137
127.0538	208
128.0497	200
129.0524	27
137.0395	10
138.0478	11
139.0541	228
140.0497	200
141.0579	25
149.0398	16
150.0465	184
151.0544	625
152.0617	999
153.0591	175
154.0648	52
163.0556	67
164.0566	73
165.0646	64
166.0655	160
167.0729	74
176.0504	28
177.0578	181
178.0655	777
179.0729	548
180.0808	521
190.0649	47
191.0714	48
