Mass spectrum: Rhodamine B base; LC-ESI-QTOF; MS2; 70 V
Name: Rhodamine B base
Formula: C28H30N2O3
Exact mass: 442.2256
SMILES: CCN(CC)C1=CC2=C(C=C1)C3(C4=C(O2)C=C(C=C4)N(CC)CC)C5=CC=CC=C5C(=O)O3
InChI: InChI=1S/C28H30N2O3/c1-5-29(6-2)19-13-15-23-25(17-19)32-26-18-20(30(7-3)8-4)14-16-24(26)28(23)22-12-10-9-11-21(22)27(31)33-28/h9-18H,5-8H2,1-4H3
Instrument: TripleTOF X500R SCIEX
Instrument type: LC-ESI-QTOF
Ms type: MS2
Ion mode: POSITIVE
Collision energy: 70
Fragmentation mode: CID
Ionization: ESI
Column name: Zorbax Eclipse Plus C18 2.1 mm x 150 mm, 3.5 um, Agilent
Retention time: 10.788 min
Precursor m/z: 443.2329
Precursor type: [M+H]+
m/z	relative intensity
255.0808	12
263.1174	22
268.0895	12
282.0916	36
311.1183	31
315.0891	11
326.0811	19
327.0889	104
328.0977	40
341.1043	216
342.1034	24
343.1126	12
355.0578	22
355.1059	983
356.118	17
369.1224	242
370.1438	47
371.1412	190
383.1391	55
385.1664	157
399.1167	26
399.1685	999
413.1861	106
427.2019	17
443.2333	33
