Mass spectrum: Propaquizafop; LC-ESI-QTOF; MS2; 50 V
Name: Propaquizafop
Class: Herbicide
Formula: C22H22ClN3O5
Exact mass: 443.1248
SMILES: CC(Oc1ccc(Oc2cnc3cc(Cl)ccc3n2)cc1)C(=O)OCCON=C(C)C
InChI: InChI=1S/C22H22ClN3O5/c1-14(2)26-29-11-10-28-22(27)15(3)30-17-5-7-18(8-6-17)31-21-13-24-20-12-16(23)4-9-19(20)25-21/h4-9,12-13,15H,10-11H2,1-3H3
Instrument: TripleTOF 6600 SCIEX
Instrument type: LC-ESI-QTOF
Ms type: MS2
Ion mode: POSITIVE
Collision energy: 50
Fragmentation mode: CID
Ionization: ESI
Column name: Zorbax Eclipse Plus C18 2.1 mm x 150 mm, 3.5 um, Agilent
Retention time: 15.307 min
Precursor m/z: 444.1321
Precursor type: [M+H]+
m/z	relative intensity
55.0186	23
56.0494	629
65.0388	34
70.0652	971
73.0281	27
91.0543	540
99.0441	217
100.0518	349
100.0751	999
104.0614	23
119.049	124
120.0567	46
121.0266	19
133.0661	42
135.994	34
145.0643	15
147.0449	97
148.0506	38
153.0203	15
163.0061	544
164.0001	31
164.0131	89
165.0231	50
165.0603	27
177.0229	27
177.054	15
179.0623	27
181.0162	42
189.0212	15
191.0691	66
192.0702	229
193.0749	89
202.0308	19
203.0359	19
207.093	108
208.0634	50
208.0983	89
215.0377	124
216.0575	19
217.0546	54
218.0858	54
220.0597	19
221.0711	54
226.0278	31
227.0377	69
228.046	120
229.0522	54
235.0859	42
236.0955	116
239.0403	23
241.056	27
243.0319	244
243.0687	427
244.0413	42
252.0446	19
253.0531	198
255.0324	913
256.0382	97
257.0475	139
268.0409	23
269.0481	15
270.0223	19
270.055	15
271.0648	443
272.0362	34
281.0475	66
283.0641	27
284.0372	62
285.0438	345
297.0455	19
299.059	551
309.0419	23
327.052	50
