Mass spectrum: Daidzein; LC-ESI-QTOF; MS2; 40 V
Name: Daidzein
Class: Pharmaceutical; Natural_product
Formula: C15H10O4
Exact mass: 254.0579
SMILES: Oc1ccc(cc1)C2=COc3cc(O)ccc3C2=O
InChI: InChI=1S/C15H10O4/c16-10-3-1-9(2-4-10)13-8-19-14-7-11(17)5-6-12(14)15(13)18/h1-8,16-17H
Instrument: TripleTOF 5600 SCIEX
Instrument type: LC-ESI-QTOF
Ms type: MS2
Ion mode: NEGATIVE
Collision energy: 40
Fragmentation mode: CID
Ionization: ESI
Column name: Zorbax Eclipse Plus C18 2.1 mm x 150 mm, 3.5 um, Agilent
Retention time: 7.744 min
Precursor m/z: 253.0506
Precursor type: [M-H]-
m/z	relative intensity
91.0195	176
132.0228	154
133.03	156
135.0087	94
169.0667	51
180.0579	97
195.045	153
196.0528	92
197.0593	63
208.0533	237
209.0604	124
223.0399	266
224.0475	250
225.0551	100
252.0412	63
253.0499	999
