Mass spectrum: Omeprazole sulfide 5-carboxylic acid; LC-ESI-QTOF; MS2; 70 V
Name: Omeprazole sulfide 5-carboxylic acid
Class: Metabolite; Pharmaceutical
Formula: C17H17N3O4S
Exact mass: 359.094
SMILES: CC1=C(C(=CN=C1CSC2=NC3=C(N2)C=C(C=C3)OC)C(=O)O)OC
InChI: InChI=1S/C17H17N3O4S/c1-9-14(18-7-11(16(21)22)15(9)24-3)8-25-17-19-12-5-4-10(23-2)6-13(12)20-17/h4-7H,8H2,1-3H3,(H,19,20)(H,21,22)
Instrument: TripleTOF 5600 SCIEX
Instrument type: LC-ESI-QTOF
Ms type: MS2
Ion mode: POSITIVE
Collision energy: 70
Fragmentation mode: CID
Ionization: ESI
Column name: Zorbax Eclipse Plus C18 2.1 mm x 150 mm, 3.5 um, Agilent
Retention time: 5.75 min
Precursor m/z: 360.1013
Precursor type: [M+H]+
m/z	relative intensity
42.0454	15
43.0298	48
53.0439	19
65.0444	43
66.0524	24
67.0607	39
77.0442	58
78.0392	31
79.0242	15
79.0482	130
80.0546	152
83	16
85.0144	54
90.0366	15
91.0468	10
92.0532	100
93.0475	39
93.0612	16
94.0688	41
97.0141	149
104.0512	23
105.0475	20
105.0593	12
106.0625	816
107.0754	627
108.0465	73
108.0818	42
109.0138	38
110.0081	66
110.9913	27
112.0234	81
118.0301	23
118.0548	10
119.0634	16
120.0451	54
122.0098	15
122.062	167
123.0144	31
123.0696	19
124.0228	158
132.0458	12
133.0416	16
134.0066	36
134.0488	999
135.0681	29
136.0223	193
136.0767	37
137.0181	316
138.0256	9
146.025	10
147.0567	45
148.04	41
148.0637	21
149.0717	380
150.056	77
151.0087	16
152.017	264
152.0701	38
153.0261	27
162.0806	35
165.0122	577
166.0272	43
177.9955	36
179.0614	12
180.0126	322
180.0338	51
180.0699	13
181.0402	13
192.0664	10
194.0721	48
195.079	18
208.0859	19
210.0238	18
210.1012	32
212.0384	57
222.0651	36
223.0736	52
224.084	31
225.0879	15
236.0789	15
237.0892	31
238.0982	25
251.0719	23
252.0764	14
253.0828	14
266.0916	14
269.0689	12
284.1041	27
