Mass spectrum: Flusilazole; LC-ESI-QTOF; MS2; 30 V
Name: Flusilazole
Class: Fungicide
Formula: C16H15F2N3Si
Exact mass: 315.1003
SMILES: C[Si](CN1C=NC=N1)(C2=CC=C(C=C2)F)C3=CC=C(C=C3)F
InChI: InChI=1S/C16H15F2N3Si/c1-22(12-21-11-19-10-20-21,15-6-2-13(17)3-7-15)16-8-4-14(18)5-9-16/h2-11H,12H2,1H3
Instrument: TripleTOF 6600 SCIEX
Instrument type: LC-ESI-QTOF
Ms type: MS2
Ion mode: POSITIVE
Collision energy: 30
Fragmentation mode: CID
Ionization: ESI
Column name: Zorbax Eclipse Plus C18 2.1 mm x 150 mm, 3.5 um, Agilent
Retention time: 12.729 min
Precursor m/z: 316.1076
Precursor type: [M+H]+
m/z	relative intensity
77.0376	17
80.9962	78
91.0533	11
105.069	21
125.0206	40
141.0692	25
143.0111	14
149.0206	12
151.0368	143
152.0613	38
153.0685	11
157.0274	104
165.0695	972
166.0772	180
169.0464	80
171.0432	63
178.0767	15
179.0851	28
183.0596	40
185.0757	135
199.0367	40
217.0274	15
219.0437	232
227.0681	77
231.0431	16
232.0509	18
247.0752	999
316.1086	137
