Mass spectrum: Dimethachlor ESA; LC-ESI-QTOF; MS2; 120 V
Name: Dimethachlor ESA
Class: Transformation_product; Herbicide
Formula: C13H19NO5S
Exact mass: 301.0984
SMILES: Cc1cccc(c1N(CCOC)C(=O)CS(=O)(=O)O)C
InChI: InChI=1S/C13H19NO5S/c1-10-5-4-6-11(2)13(10)14(7-8-19-3)12(15)9-20(16,17)18/h4-6H,7-9H2,1-3H3,(H,16,17,18)
Instrument: TripleTOF 6600 SCIEX
Instrument type: LC-ESI-QTOF
Ms type: MS2
Ion mode: POSITIVE
Collision energy: 120
Fragmentation mode: CID
Ionization: ESI
Column name: Zorbax Eclipse Plus C18 2.1 mm x 150 mm, 3.5 um, Agilent
Retention time: 6.763 min
Precursor m/z: 302.1057
Precursor type: [M+H]+
m/z	relative intensity
50.015	179
51.0231	563
63.0235	204
77.0388	999
79.0542	128
89.0381	640
90.0459	461
91.0542	256
103.054	307
105.0702	102
115.0561	153
117.0573	409
128.0482	128
130.0653	486
