Mass spectrum: Pyridoxine; LC-ESI-QTOF; MS2; 140 V
Name: Pyridoxine
Formula: C8H11NO3
Exact mass: 169.0739
SMILES: OC1=C(C)N=CC(CO)=C1CO
InChI: InChI=1S/C8H11NO3/c1-5-8(12)7(4-11)6(3-10)2-9-5/h2,10-12H,3-4H2,1H3
Instrument: TripleTOF 5600 SCIEX
Instrument type: LC-ESI-QTOF
Ms type: MS2
Ion mode: POSITIVE
Collision energy: 140
Fragmentation mode: CID
Ionization: ESI
Column name: Zorbax Eclipse Plus C18 2.1 mm x 150 mm, 3.5 um, Agilent
Retention time: 2.11 min
Precursor m/z: 170.0812
Precursor type: [M+H]+
m/z	relative intensity
35.9997	181
37.0069	499
38.0154	272
39.023	317
42.0335	181
49.0075	317
50.0151	999
51.023	272
52.0194	272
