Mass spectrum: Mandipropamid; LC-ESI-QTOF; MS2; 70 V
Name: Mandipropamid
Class: Fungicide
Formula: C23H22ClNO4
Exact mass: 411.1237
SMILES: COC1=C(C=CC(=C1)CCNC(=O)C(C2=CC=C(C=C2)Cl)OCC#C)OCC#C
InChI: InChI=1S/C23H22ClNO4/c1-4-14-28-20-11-6-17(16-21(20)27-3)12-13-25-23(26)22(29-15-5-2)18-7-9-19(24)10-8-18/h1-2,6-11,16,22H,12-15H2,3H3,(H,25,26)
Instrument: TripleTOF 6600 SCIEX
Instrument type: LC-ESI-QTOF
Ms type: MS2
Ion mode: POSITIVE
Collision energy: 70
Fragmentation mode: CID
Ionization: ESI
Column name: Zorbax Eclipse Plus C18 2.1 mm x 150 mm, 3.5 um, Agilent
Retention time: 12.239 min
Precursor m/z: 412.131
Precursor type: [M+H]+
m/z	relative intensity
65.0379	11
77.0383	30
79.054	15
89.0378	92
90.0457	26
91.0536	131
93.0689	14
98.9988	37
103.0535	42
107.0479	25
115.0532	49
116.0616	24
117.0568	13
117.0685	36
118.0637	59
119.0482	24
121.0634	46
122.059	31
125.0146	999
127.0536	26
128.0615	63
129.0692	19
130.0641	17
131.0479	53
132.0565	10
133.0276	12
133.0514	12
134.059	30
135.0431	44
136.0764	26
137.0594	10
140.0256	14
144.0557	15
145.063	20
146.0595	36
147.0428	53
148.051	28
148.075	22
149.0596	16
150.0541	36
152.0254	26
160.0738	11
162.0551	14
164.0698	34
165.0692	52
166.0764	14
176.0684	20
177.0691	11
178.0771	50
179.0846	25
182.0717	13
189.0692	16
190.0767	16
191.0846	29
193.0947	13
194.0717	32
202.0763	25
203.0843	26
204.092	12
205.0982	14
207.082	13
208.0878	28
210.0675	13
215.0848	41
217.0891	11
229.0408	12
231.0788	15
234.0902	13
