Mass spectrum: Carbamazepine; LC-ESI-QTOF; MS2; 50 V
Name: Carbamazepine
Class: Pharmaceutical
Formula: C15H12N2O
Exact mass: 236.095
SMILES: NC(=O)N1c2ccccc2C=Cc3ccccc13
InChI: InChI=1S/C15H12N2O/c16-15(18)17-13-7-3-1-5-11(13)9-10-12-6-2-4-8-14(12)17/h1-10H,(H2,16,18)
Instrument: TripleTOF 5600 SCIEX
Instrument type: LC-ESI-QTOF
Ms type: MS2
Ion mode: POSITIVE
Collision energy: 50
Fragmentation mode: CID
Ionization: ESI
Column name: Zorbax Eclipse Plus C18 2.1 mm x 150 mm, 3.5 um, Agilent
Retention time: 8.87 min
Precursor m/z: 237.1022
Precursor type: [M+H]+
m/z	relative intensity
89.0399	23
90.0486	18
91.0559	17
115.0532	12
116.0484	31
117.0566	39
128.0581	18
139.0532	25
151.0536	58
152.0619	137
153.0561	26
163.051	11
164.0616	34
165.0695	428
166.0703	75
167.0733	221
176.0612	45
177.0604	52
178.0659	207
179.0725	530
190.0646	120
191.073	404
192.0804	661
193.0881	999
194.0964	451
