Mass spectrum: Spiramycin; LC-ESI-QTOF; MS2; 80 V
Name: Spiramycin
Class: Antimicrobial; Pharmaceutical
Formula: C43H74N2O14
Exact mass: 842.514
SMILES: CC1CC=CC=CC(C(CC(C(C(C(CC(=O)O1)O)OC)OC2C(C(C(C(O2)C)OC3CC(C(C(O3)C)O)(C)O)N(C)C)O)CC=O)C)OC4CCC(C(O4)C)N(C)C
InChI: InChI=1S/C43H74N2O14/c1-24-21-29(19-20-46)39(59-42-37(49)36(45(9)10)38(27(4)56-42)58-35-23-43(6,51)41(50)28(5)55-35)40(52-11)31(47)22-33(48)53-25(2)15-13-12-14-16-32(24)57-34-18-17-30(44(7)8)26(3)54-34/h12-14,16,20,24-32,34-42,47,49-51H,15,17-19,21-23H2,1-11H3
Instrument: TripleTOF 5600 SCIEX
Instrument type: LC-ESI-QTOF
Ms type: MS2
Ion mode: POSITIVE
Collision energy: 80
Fragmentation mode: CID
Ionization: ESI
Column name: Zorbax Eclipse Plus C18 2.1 mm x 150 mm, 3.5 um, Agilent
Retention time: 5.771 min
Precursor m/z: 843.5213
Precursor type: [M+H]+
m/z	relative intensity
43.0304	260
58.073	54
83.0522	445
85.0331	54
87.0465	108
88.0786	575
98.0978	358
100.078	86
101.0603	662
114.0914	130
115.0995	97
116.0704	282
127.0764	108
132.0984	97
142.1213	499
145.089	76
156.1021	228
174.1103	999
