Mass spectrum: Flecainide; LC-ESI-QTOF; MS2; 90 V
Name: Flecainide
Class: Pharmaceutical
Formula: C17H20F6N2O3
Exact mass: 414.1378
SMILES: FC(F)(F)COc1ccc(OCC(F)(F)F)c(c1)C(=O)NCC2CCCCN2
InChI: InChI=1S/C17H20F6N2O3/c18-16(19,20)9-27-12-4-5-14(28-10-17(21,22)23)13(7-12)15(26)25-8-11-3-1-2-6-24-11/h4-5,7,11,24H,1-3,6,8-10H2,(H,25,26)
Instrument: TripleTOF 5600 SCIEX
Instrument type: LC-ESI-QTOF
Ms type: MS2
Ion mode: POSITIVE
Collision energy: 90
Fragmentation mode: CID
Ionization: ESI
Column name: Zorbax Eclipse Plus C18 2.1 mm x 150 mm, 3.5 um, Agilent
Retention time: 7.983 min
Precursor m/z: 415.1451
Precursor type: [M+H]+
m/z	relative intensity
44.0576	73
51.0295	100
53.0439	33
55.0603	36
56.0543	59
64.0341	17
65.042	22
69.0737	16
70.0683	22
77.0409	82
79.0212	738
79.0575	106
81.0722	106
82.0673	74
83.0133	225
83.0289	62
84.0825	102
92.027	70
95.0291	18
96.081	17
98.0973	93
99.0246	179
101.0204	55
105.0329	9
107.0138	999
107.0491	12
111.0237	16
114.0276	144
127.0196	279
129.0133	19
133.0255	13
135.0082	486
142.0219	32
143.0303	16
145.0259	12
163.0354	10
171.0247	26
181.0274	87
187.0369	14
190.0242	55
203.0308	12
209.0227	251
218.0184	58
219.0258	31
225.0335	95
232.0954	21
253.0288	12
