Mass spectrum: Chlorothiazide; LC-ESI-QTOF; MS2; 140 V
Name: Chlorothiazide
Class: Pharmaceutical
Formula: C7H6ClN3O4S2
Exact mass: 294.9488
InChI: InChI=1S/C7H6ClN3O4S2/c8-4-1-5-7(2-6(4)16(9,12)13)17(14,15)11-3-10-5/h1-3H,(H,10,11)(H2,9,12,13)
Instrument: TripleTOF 5600 SCIEX
Instrument type: LC-ESI-QTOF
Ms type: CID
Ion mode: NEGATIVE
Collision energy: 140
Ionization: ESI
Column name: Zorbax Eclipse Plus C18 2.1 mm x 150 mm, 3.5 um, Agilent
Retention time: 5.43 min
Precursor m/z: 293.9415
Precursor type: [M-H]-
m/z	relative intensity
34.9717	999
41.0145	99
50.0039	899
56.9794	99
57.9748	99
59.9998	199
61.9695	349
62.0035	49
63.0104	199
63.9609	99
63.9662	49
64.0064	549
65.0146	699
65.9988	99
74.0027	149
77.9651	99
86.0024	349
87.0101	149
88.0051	249
88.0226	99
89.0132	99
112.0074	149
113.0111	149
