Mass spectrum: (Methoxycarbonylmethyl)triphenylphosphonium; LC-ESI-QTOF; MS2; 120 V
Name: (Methoxycarbonylmethyl)triphenylphosphonium
Class: Industrial_process
Formula: [C21H20O2P]+
Exact mass: 335.1195
SMILES: COC(=O)C[P+](c1ccccc1)(c2ccccc2)c3ccccc3
InChI: InChI=1S/C21H20O2P/c1-23-21(22)17-24(18-11-5-2-6-12-18,19-13-7-3-8-14-19)20-15-9-4-10-16-20/h2-16H,17H2,1H3/q+1
Instrument: TripleTOF 5600 SCIEX
Instrument type: LC-ESI-QTOF
Ms type: MS2
Ion mode: POSITIVE
Collision energy: 120
Fragmentation mode: CID
Ionization: ESI
Column name: Zorbax Eclipse Plus C18 2.1 mm x 150 mm, 3.5 um, Agilent
Retention time: 7.721 min
Precursor m/z: 335.1195
Precursor type: [M]+
m/z	relative intensity
77.0407	60
79.983	54
80.9902	87
89.0392	111
107.0046	556
115.0547	316
126.0465	138
133.0192	82
139.0542	293
150.0465	94
151.0543	294
152.062	999
156.0117	52
157.0201	537
163.0538	57
165.0694	113
181.02	285
183.036	312
226.0782	96
257.0503	95
