Mass spectrum: Dicloxacillin; LC-ESI-QTOF; MS2; 60 V
Name: Dicloxacillin
Formula: C19H17Cl2N3O5S
Exact mass: 469.0266
SMILES: CC1=C(C(=NO1)C2=C(C=CC=C2Cl)Cl)C(=O)NC3C4N(C3=O)C(C(S4)(C)C)C(=O)O
InChI: InChI=1S/C19H17Cl2N3O5S/c1-7-10(12(23-29-7)11-8(20)5-4-6-9(11)21)15(25)22-13-16(26)24-14(18(27)28)19(2,3)30-17(13)24/h4-6,13-14,17H,1-3H3,(H,22,25)(H,27,28)
Instrument: TripleTOF 6600 SCIEX
Instrument type: LC-ESI-QTOF
Ms type: MS2
Ion mode: POSITIVE
Collision energy: 60
Fragmentation mode: CID
Ionization: ESI
Column name: Zorbax Eclipse Plus C18 2.1 mm x 150 mm, 3.5 um, Agilent
Retention time: 11.23 min
Precursor m/z: 470.0339
Precursor type: [M+H]+
m/z	relative intensity
43.0139	18
70.0587	30
87.0185	158
114.0271	999
142.0187	37
144.9483	33
147.9825	26
156.9457	49
160.0281	188
170.963	26
171.9565	45
172.9502	41
183.9555	294
185.9709	56
190.0125	15
195.9546	203
197.9704	531
209.9687	22
211.9483	542
213.9634	173
224.9809	18
239.9783	26
255.9712	71
