Mass spectrum: Chloroxuron; LC-ESI-QTOF; MS2; 150 V
Name: Chloroxuron
Class: Herbicide
Formula: C15H15ClN2O2
Exact mass: 290.0822
SMILES: CN(C)C(=O)Nc1ccc(Oc2ccc(Cl)cc2)cc1
InChI: InChI=1S/C15H15ClN2O2/c1-18(2)15(19)17-12-5-9-14(10-6-12)20-13-7-3-11(16)4-8-13/h3-10H,1-2H3,(H,17,19)
Instrument: TripleTOF 5600 SCIEX
Instrument type: LC-ESI-QTOF
Ms type: MS2
Ion mode: POSITIVE
Collision energy: 150
Fragmentation mode: CID
Ionization: ESI
Column name: Zorbax Eclipse Plus C18 2.1 mm x 150 mm, 3.5 um, Agilent
Retention time: 12.103 min
Precursor m/z: 291.0895
Precursor type: [M+H]+
m/z	relative intensity
42.042	29
44.0582	38
51.0279	107
56.0179	214
72.0475	706
72.9852	43
73.0093	126
74.0185	999
75.0263	238
76.0321	19
77.0401	24
80.0541	24
84.9866	58
86.0189	58
87.0247	53
88.0325	34
89.0407	38
98.0146	29
102.0484	29
113.0384	53
126.0491	24
139.0545	29
