Mass spectrum: Butylphosphonic acid; LC-ESI-QTOF; MS2; 40 V
Name: Butylphosphonic acid
Formula: C4H11O3P
Exact mass: 138.0446
SMILES: CCCCP(=O)(O)O
InChI: InChI=1S/C4H11O3P/c1-2-3-4-8(5,6)7/h2-4H2,1H3,(H2,5,6,7)
Instrument: TripleTOF 5600 SCIEX
Instrument type: LC-ESI-QTOF
Ms type: MS2
Ion mode: POSITIVE
Collision energy: 40
Fragmentation mode: CID
Ionization: ESI
Column name: Zorbax Eclipse Plus C18 2.1 mm x 150 mm, 3.5 um, Agilent
Retention time: 4.77 min
Precursor m/z: 139.0519
Precursor type: [M+H]+
m/z	relative intensity
35.9998	49
37.0073	149
38.0145	99
39.0227	749
41.0382	999
46.9682	399
53.0399	99
55.0543	799
57.0705	349
60.9867	149
64.9781	899
66.9947	99
77.9841	99
78.9944	99
80.9724	149
81.983	99
82.9902	99
85.0171	49
86.9976	49
95.9989	149
120.9599	99
