Mass spectrum: Norgestrel; LC-ESI-QTOF; MS2; 60 V
Name: Norgestrel
Class: Pharmaceutical
Formula: C21H28O2
Exact mass: 312.2089
SMILES: CCC12CCC3C(C1CCC2(C#C)O)CCC4=CC(=O)CCC34
InChI: InChI=1S/C21H28O2/c1-3-20-11-9-17-16-8-6-15(22)13-14(16)5-7-18(17)19(20)10-12-21(20,23)4-2/h2,13,16-19,23H,3,5-12H2,1H3
Instrument: TripleTOF 5600 SCIEX
Instrument type: LC-ESI-QTOF
Ms type: MS2
Ion mode: POSITIVE
Collision energy: 60
Fragmentation mode: CID
Ionization: ESI
Column name: Zorbax Eclipse Plus C18 2.1 mm x 150 mm, 3.5 um, Agilent
Retention time: 12.063 min
Precursor m/z: 313.2162
Precursor type: [M+H]+
m/z	relative intensity
43.0302	12
55.0273	32
65.0452	68
67.0613	161
77.0445	446
79.0601	576
81.0404	31
81.0756	313
83.0545	275
89.0418	10
91.0593	999
92.0675	12
93.0745	208
94.0462	15
95.0545	28
95.09	76
97.0699	17
102.0497	10
103.0579	109
104.0665	21
105.0738	405
107.0522	203
107.0898	81
109.0683	455
109.1032	17
115.0569	355
116.0645	126
117.0732	311
118.0809	15
119.0888	144
121.0668	25
121.105	18
123.0835	32
127.0576	87
128.0644	399
129.0728	388
130.0793	82
131.0514	20
131.0874	148
133.0677	40
133.1031	56
135.0819	104
135.12	14
141.0717	241
142.0786	145
143.0872	144
144.097	21
145.0696	14
145.1036	78
146.0737	12
147.0823	31
147.1183	15
149.0983	18
152.0626	40
153.0707	98
154.0789	54
155.0606	20
155.0867	126
156.0947	36
157.1024	65
159.0811	25
159.1199	14
161.0964	40
165.0711	114
166.0792	43
167.0865	73
168.097	29
169.1027	53
170.1122	18
171.1195	20
175.1122	18
175.1519	10
178.0784	62
179.0867	56
180.0948	25
181.1017	28
183.1183	25
185.1336	14
187.114	17
188.1199	12
190.0787	17
191.0849	28
192.0921	31
193.0997	31
195.1156	17
202.08	10
203.0877	10
207.1142	12
219.1202	14
