Mass spectrum: 3,7-Dimethylxanthine; LC-ESI-QTOF; MS2; 40 V
Name: 3,7-Dimethylxanthine
Class: Pharmaceutical; Natural_product
Formula: C7H8N4O2
Exact mass: 180.0647
SMILES: Cn1cnc2N(C)C(=O)NC(=O)c12
InChI: InChI=1S/C7H8N4O2/c1-10-3-8-5-4(10)6(12)9-7(13)11(5)2/h3H,1-2H3,(H,9,12,13)
Instrument: TripleTOF 5600 SCIEX
Instrument type: LC-ESI-QTOF
Ms type: MS2
Ion mode: POSITIVE
Collision energy: 40
Fragmentation mode: CID
Ionization: ESI
Column name: Zorbax Eclipse Plus C18 2.1 mm x 150 mm, 3.5 um, Agilent
Retention time: 5.242 min
Precursor m/z: 181.072
Precursor type: [M+H]+
m/z	relative intensity
67.0315	999
68.0398	111
69.0482	360
83.0605	305
108.0547	305
109.0377	166
110.0707	444
113.0322	138
122.0557	360
123.042	277
135.0647	166
138.0639	388
163.0609	249
