Mass spectrum: 2-(Ethylthio)benzothiazole; LC-ESI-QTOF; MS2; 70 V
Name: 2-(Ethylthio)benzothiazole
Class: Pharmaceutical
Formula: C9H9NS2
Exact mass: 195.0176
SMILES: CCSc1sc2ccccc2n1
InChI: InChI=1S/C9H9NS2/c1-2-11-9-10-7-5-3-4-6-8(7)12-9/h3-6H,2H2,1H3
Instrument: TripleTOF 5600 SCIEX
Instrument type: LC-ESI-QTOF
Ms type: MS2
Ion mode: POSITIVE
Collision energy: 70
Fragmentation mode: CID
Ionization: ESI
Column name: Zorbax Eclipse Plus C18 2.1 mm x 150 mm, 3.5 um, Agilent
Retention time: 13.742 min
Precursor m/z: 196.0249
Precursor type: [M+H]+
m/z	relative intensity
51.0278	83
64.0366	83
65.0419	999
66.0485	97
68.9828	485
77.041	832
80.0524	277
81.9896	124
90.036	83
96.0017	97
108.0023	527
109.0091	388
110.0187	83
124.021	55
134.0078	83
135.0131	319
136.021	194
