Mass spectrum: Iopromide; LC-ESI-QTOF; MS2; 80 V
Name: Iopromide
Class: Pharmaceutical
Formula: C18H24I3N3O8
Exact mass: 790.8698
SMILES: COCC(=O)Nc1c(I)c(C(=O)NCC(O)CO)c(I)c(c1I)C(=O)N(C)CC(O)CO
InChI: InChI=1S/C18H24I3N3O8/c1-24(4-9(28)6-26)18(31)12-13(19)11(17(30)22-3-8(27)5-25)14(20)16(15(12)21)23-10(29)7-32-2/h8-9,25-28H,3-7H2,1-2H3,(H,22,30)(H,23,29)
Instrument: TripleTOF 5600 SCIEX
Instrument type: LC-ESI-QTOF
Ms type: MS2
Ion mode: POSITIVE
Collision energy: 80
Fragmentation mode: CID
Ionization: ESI
Column name: Zorbax Eclipse Plus C18 2.1 mm x 150 mm, 3.5 um, Agilent
Retention time: 4.895 min
Precursor m/z: 791.877
Precursor type: [M+H]+
m/z	relative intensity
117.02	14
141.9904	14
172.0017	25
173.0109	20
188.0335	14
203.0235	14
204.0323	14
227.9335	12
242.9149	14
243.9252	14
255.9256	35
259.0717	31
269.939	16
270.9143	14
271.9223	29
282.919	11
283.9218	55
284.9301	27
285.9351	18
286.9471	11
287.9456	12
291.1014	18
297.9023	11
297.9627	12
298.9056	66
298.9264	29
298.9693	27
299.9158	999
301.9324	12
311.9161	14
311.9409	11
312.9457	64
313.9308	101
314.9353	14
325.9337	14
326.902	81
326.9647	12
327.9469	11
329.9604	11
330.9307	11
341.8231	9
343.9585	16
355.8113	18
357.9226	81
369.8248	16
372.9694	25
382.8306	40
385.8206	27
386.9847	31
398.8283	16
400.9967	38
404.9939	12
409.8231	35
410.8298	42
413.8132	24
413.8507	11
413.9696	20
422.8274	18
423.7978	312
425.8141	84
425.8451	25
426.8314	20
440.8307	25
441.843	20
485.8347	18
496.8471	11
527.8645	24
541.8894	16
558.889	49
572.8973	14
