Mass spectrum: Ethyl 4-dimethylaminobenzoate; LC-ESI-QTOF; MS2; 70 V
Name: Ethyl 4-dimethylaminobenzoate
Formula: C11H15NO2
Exact mass: 193.1103
SMILES: O=C(OCC)C1=CC=C(C=C1)N(C)C
InChI: InChI=1S/C11H15NO2/c1-4-14-11(13)9-5-7-10(8-6-9)12(2)3/h5-8H,4H2,1-3H3
Instrument: TripleTOF X500R SCIEX
Instrument type: LC-ESI-QTOF
Ms type: MS2
Ion mode: POSITIVE
Collision energy: 70
Fragmentation mode: CID
Ionization: ESI
Column name: Zorbax Eclipse Plus C18 2.1 mm x 150 mm, 3.5 um, Agilent
Retention time: 11.941 min
Precursor m/z: 194.1176
Precursor type: [M+H]+
m/z	relative intensity
37.0072	17
38.0147	23
39.023	225
50.0148	20
51.0229	156
53.0383	15
64.0311	25
65.0382	536
66.0463	12
67.0419	23
75.0227	46
77.0384	999
78.0462	148
79.054	410
80.0498	23
91.0416	71
93.034	12
103.0163	17
104.0496	146
105.0567	43
106.0651	372
107.0553	12
120.0795	10
121.0294	30
132.0434	17
134.0603	215
150.0554	338
151.0617	20
