Mass spectrum: Bisphenol-A bis(diphenyl phosphate); LC-ESI-QTOF; MS2; 130 V
Name: Bisphenol-A bis(diphenyl phosphate)
Class: Industrial_process
Formula: C39H34O8P2
Exact mass: 692.1729
SMILES: CC(C)(C1=CC=C(C=C1)OP(=O)(OC2=CC=CC=C2)OC3=CC=CC=C3)C4=CC=C(C=C4)OP(=O)(OC5=CC=CC=C5)OC6=CC=CC=C6
InChI: InChI=1S/C39H34O8P2/c1-39(2,31-23-27-37(28-24-31)46-48(40,42-33-15-7-3-8-16-33)43-34-17-9-4-10-18-34)32-25-29-38(30-26-32)47-49(41,44-35-19-11-5-12-20-35)45-36-21-13-6-14-22-36/h3-30H,1-2H3
Instrument: TripleTOF 6600 SCIEX
Instrument type: LC-ESI-QTOF
Ms type: MS2
Ion mode: POSITIVE
Collision energy: 130
Fragmentation mode: CID
Ionization: ESI
Column name: Zorbax Eclipse Plus C18 2.1 mm x 150 mm, 3.5 um, Agilent
Retention time: 17.714 min
Precursor m/z: 693.1802
Precursor type: [M+H]+
m/z	relative intensity
51.0222	61
65.0381	79
77.038	465
79.0526	36
89.0389	55
91.0534	337
103.0523	24
105.0693	55
107.0486	36
115.0537	999
116.0611	73
117.069	24
127.0528	49
128.0614	61
133.018	36
138.994	30
139.0537	67
141.0685	42
151.0531	226
152.0615	839
153.0696	104
154.0712	30
155.0858	36
164.0605	55
165.0678	214
168.0563	790
169.0612	24
175.0132	30
176.0604	171
177.0676	171
178.0768	619
179.026	30
179.0554	30
179.0856	30
187.0294	55
189.0691	67
191.0847	79
193.0647	36
202.0779	24
207.0791	42
215.0245	245
226.0764	67
227.0845	61
228.0909	85
239.0844	91
252.0926	134
