Mass spectrum: Disperse Red 1; LC-ESI-QTOF; MS2; 40 V
Name: Disperse Red 1
Formula: C16H18N4O3
Exact mass: 314.1379
SMILES: CCN(CCO)C1=CC=C(C=C1)N=NC2=CC=C(C=C2)[N+](=O)[O-]
InChI: InChI=1S/C16H18N4O3/c1-2-19(11-12-21)15-7-3-13(4-8-15)17-18-14-5-9-16(10-6-14)20(22)23/h3-10,21H,2,11-12H2,1H3
Instrument: TripleTOF X500R SCIEX
Instrument type: LC-ESI-QTOF
Ms type: MS2
Ion mode: POSITIVE
Collision energy: 40
Fragmentation mode: CID
Ionization: ESI
Column name: Zorbax Eclipse Plus C18 2.1 mm x 150 mm, 3.5 um, Agilent
Retention time: 12.973 min
Precursor m/z: 315.1452
Precursor type: [M+H]+
m/z	relative intensity
75.0237	27
76.0312	20
91.0543	11
92.0266	56
92.0499	25
93.058	9
94.0663	9
103.0546	11
104.0465	19
105.0438	25
105.0566	27
106.0655	147
118.0649	22
119.0608	84
120.0814	172
122.0241	156
132.0814	57
133.0753	30
134.0969	810
136.0764	65
140.0348	22
145.076	19
146.0922	14
147.0934	357
148.0886	22
149.0681	17
150.0308	228
163.0858	19
164.0827	11
178.1104	59
181.0892	11
209.0955	49
224.1157	14
237.1276	19
238.134	20
251.1427	25
255.0558	25
255.0885	999
269.1037	22
269.1541	153
270.1153	11
284.1281	91
315.1456	60
