Mass spectrum: Acridine-9-carboxylic acid; LC-ESI-QTOF; MS2; 150 V
Name: Acridine-9-carboxylic acid
Class: Pharmaceutical; Metabolite; Transformation_product
Formula: C14H9NO2
Exact mass: 223.0633
SMILES: OC(=O)c1c2ccccc2nc3ccccc13
InChI: InChI=1S/C14H9NO2/c16-14(17)13-9-5-1-3-7-11(9)15-12-8-4-2-6-10(12)13/h1-8H,(H,16,17)
Instrument: TripleTOF 5600 SCIEX
Instrument type: LC-ESI-QTOF
Ms type: CID
Ion mode: POSITIVE
Collision energy: 150
Ionization: ESI
Column name: Zorbax Eclipse Plus C18 2.1 mm x 150 mm, 3.5 um, Agilent
Retention time: 4.656 min
Precursor m/z: 224.0706
Precursor type: [M+H]+
m/z	relative intensity
51.027	197
60.0051	65
73.0101	236
74.0179	999
75.0252	341
84.001	78
85.0098	315
86.0173	315
87.025	131
89.038	78
97.0085	184
98.0151	657
99.0118	65
99.0236	65
109.0069	157
110.015	144
122.0137	92
