Mass spectrum: Budesonide; LC-ESI-QTOF; MS2; 70 V
Name: Budesonide
Class: Pharmaceutical
Formula: C25H34O6
Exact mass: 430.2355
SMILES: CCC[C@@H]1O[C@@H]2C[C@H]3[C@@H]4CCC5=CC(=O)C=C[C@]5(C)[C@H]4[C@@H](O)C[C@]3(C)[C@@]2(O1)C(=O)CO
InChI: InChI=1S/C25H34O6/c1-4-5-21-30-20-11-17-16-7-6-14-10-15(27)8-9-23(14,2)22(16)18(28)12-24(17,3)25(20,31-21)19(29)13-26/h8-10,16-18,20-22,26,28H,4-7,11-13H2,1-3H3/t16-,17-,18-,20+,21+,22+,23-,24-,25+/m0/s1
Instrument: TripleTOF 5600 SCIEX
Instrument type: LC-ESI-QTOF
Ms type: MS2
Ion mode: POSITIVE
Collision energy: 70
Fragmentation mode: CID
Ionization: ESI
Column name: Zorbax Eclipse Plus C18 2.1 mm x 150 mm, 3.5 um, Agilent
Retention time: 11.041 min
Precursor m/z: 431.2428
Precursor type: [M+H]+
m/z	relative intensity
67.0583	58
77.0408	246
79.0565	152
81.0724	58
91.0553	634
93.0702	129
103.0539	58
105.0695	305
107.0471	70
107.0825	47
109.0639	70
115.0537	199
115.0686	47
117.069	199
119.0856	376
121.0632	611
127.0541	94
128.0618	305
129.0696	223
130.0774	94
131.0467	47
131.0866	70
132.0553	188
135.0802	94
141.0698	199
142.078	82
143.0846	141
144.0559	94
145.0631	94
145.073	58
145.1029	164
146.0734	141
147.0793	999
152.0601	58
153.0706	199
154.0766	82
155.062	58
155.0847	164
157.0626	94
158.0719	517
159.0796	211
161.0928	82
165.0682	188
166.0756	105
167.0852	82
169.0647	58
169.0996	94
170.0726	94
171.0794	528
173.0932	364
177.068	47
178.0774	188
179.0841	223
181.0637	235
182.0711	105
183.0786	94
184.0859	58
185.0945	129
189.0721	117
190.0761	94
191.0868	164
192.0923	223
193.1009	188
194.0728	105
194.1066	70
195.0805	340
196.0888	223
197.0947	105
202.077	70
203.0858	94
205.1006	117
206.0744	47
206.1034	58
207.0801	94
207.115	105
208.0873	211
209.0957	199
210.1035	176
211.1103	270
215.0884	105
216.0938	82
219.0795	141
219.1173	105
220.0842	58
221.0942	152
222.1033	164
223.1106	70
225.125	47
228.0902	58
229.0999	105
230.1076	47
231.0826	117
232.0912	129
233.0952	152
234.1015	129
235.1134	188
236.1196	58
245.0952	105
246.106	70
247.111	94
248.1149	58
249.1267	105
251.1077	47
262.135	58
271.1103	47
