Mass spectrum: Prallethrin; LC-ESI-QTOF; MS2; 120 V
Name: Prallethrin
Class: Insecticide
Formula: C19H24O3
Exact mass: 300.1725
SMILES: CC1=C(C(=O)CC1OC(=O)C2C(C2(C)C)C=C(C)C)CC#C
InChI: InChI=1S/C19H24O3/c1-7-8-13-12(4)16(10-15(13)20)22-18(21)17-14(9-11(2)3)19(17,5)6/h1,9,14,16-17H,8,10H2,2-6H3
Instrument: TripleTOF 6600 SCIEX
Instrument type: LC-ESI-QTOF
Ms type: MS2
Ion mode: POSITIVE
Collision energy: 120
Fragmentation mode: CID
Ionization: ESI
Column name: Zorbax Eclipse Plus C18 2.1 mm x 150 mm, 3.5 um, Agilent
Retention time: 14.861 min
Precursor m/z: 301.1798
Precursor type: [M+H]+
m/z	relative intensity
37.0078	43
38.0156	47
39.0235	261
41.039	71
43.018	19
49.0076	75
50.016	428
51.0238	999
53.039	59
61.0089	23
62.0158	39
63.0234	111
65.0394	95
74.0161	31
75.0237	23
77.0394	622
78.0463	31
79.0548	39
89.0392	51
91.0533	43
102.0478	19
115.0572	39
