Mass spectrum: Sitagliptin; LC-ESI-QTOF; MS2; 140 V
Name: Sitagliptin
Class: Pharmaceutical
Formula: C16H15F6N5O
Exact mass: 407.1181
SMILES: c1c(c(cc(c1F)F)F)C[C@H](CC(=O)N2CCn3c(nnc3C(F)(F)F)C2)N
InChI: InChI=1S/C16H15F6N5O/c17-10-6-12(19)11(18)4-8(10)3-9(23)5-14(28)26-1-2-27-13(7-26)24-25-15(27)16(20,21)22/h4,6,9H,1-3,5,7,23H2/t9-/m1/s1
Instrument: TripleTOF 5600 SCIEX
Instrument type: LC-ESI-QTOF
Ms type: MS2
Ion mode: POSITIVE
Collision energy: 140
Fragmentation mode: CID
Ionization: ESI
Column name: Zorbax Eclipse Plus C18 2.1 mm x 150 mm, 3.5 um, Agilent
Retention time: 6.571 min
Precursor m/z: 408.1254
Precursor type: [M+H]+
m/z	relative intensity
42.0415	11
51.009	27
51.0288	41
55.0342	27
56.0547	30
57.0185	112
68.9975	57
74.017	38
75.0068	211
75.0244	49
77.0221	88
77.0404	140
81.0153	195
83.0313	38
85.009	44
86.0158	170
87.0097	13
87.0244	462
91.0112	88
95.0135	13
95.0298	44
96.0364	11
97.0051	13
98.0151	85
99.0053	30
101.0203	913
101.0567	11
105.0145	27
107.0295	657
111.0046	27
114.0291	19
116.0048	24
117.0127	79
118.0204	38
119.0088	55
125.0199	363
126.0278	93
127.0352	999
131.027	27
133.0338	11
134.0409	24
135.0494	16
137.0185	93
145.0254	154
150.0294	16
151.0342	63
153.0377	63
154.0474	11
169.0277	16
