Mass spectrum: Telmisartan; LC-ESI-QTOF; MS2; 130 V
Name: Telmisartan
Class: Pharmaceutical
Formula: C33H30N4O2
Exact mass: 514.2369
SMILES: CCCc1nc2c(C)cc(cc2n1Cc3ccc(cc3)c4ccccc4C(O)=O)c5nc6ccccc6n5C
InChI: InChI=1S/C33H30N4O2/c1-4-9-30-35-31-21(2)18-24(32-34-27-12-7-8-13-28(27)36(32)3)19-29(31)37(30)20-22-14-16-23(17-15-22)25-10-5-6-11-26(25)33(38)39/h5-8,10-19H,4,9,20H2,1-3H3,(H,38,39)
Instrument: TripleTOF 5600 SCIEX
Instrument type: LC-ESI-QTOF
Ms type: MS2
Ion mode: POSITIVE
Collision energy: 130
Fragmentation mode: CID
Ionization: ESI
Column name: Zorbax Eclipse Plus C18 2.1 mm x 150 mm, 3.5 um, Agilent
Retention time: 8.861 min
Precursor m/z: 515.2442
Precursor type: [M+H]+
m/z	relative intensity
65.0423	237
77.0404	428
92.0505	523
115.0543	380
116.0524	237
139.0527	333
152.0652	475
163.053	237
164.0601	428
165.07	999
168.062	237
192.0699	333
193.0773	475
205.0754	428
206.0848	475
207.0887	285
218.0741	333
219.0815	333
220.0862	333
231.0821	333
232.0858	428
233.0892	237
234.1002	190
245.0828	190
246.0957	428
247.0972	285
259.0989	903
260.1042	428
261.1152	428
273.1129	523
275.135	190
