Mass spectrum: Triamterene; LC-ESI-QTOF; MS2; 40 V
Name: Triamterene
Class: Pharmaceutical
Formula: C12H11N7
Exact mass: 253.1076
SMILES: C1=CC=C(C=C1)C2=NC3=C(N=C2N)N=C(N=C3N)N
InChI: InChI=1S/C12H11N7/c13-9-7(6-4-2-1-3-5-6)16-8-10(14)18-12(15)19-11(8)17-9/h1-5H,(H6,13,14,15,17,18,19)
Instrument: TripleTOF 5600 SCIEX
Instrument type: LC-ESI-QTOF
Ms type: MS2
Ion mode: POSITIVE
Collision energy: 40
Fragmentation mode: CID
Ionization: ESI
Column name: Zorbax Eclipse Plus C18 2.1 mm x 150 mm, 3.5 um, Agilent
Retention time: 5.203 min
Precursor m/z: 254.1149
Precursor type: [M+H]+
m/z	relative intensity
77.0432	11
92.0275	25
104.0519	225
116.0508	54
131.062	10
134.0482	11
141.046	67
142.0525	14
143.0617	119
168.0563	195
183.0674	45
185.0827	39
193.0515	21
195.0671	292
210.078	147
212.0942	112
220.0623	46
227.1033	47
237.0883	999
254.1156	553
