Mass spectrum: Fingolimod; LC-ESI-QTOF; MS2; 80 V
Name: Fingolimod
Class: Pharmaceutical
Formula: C19H33NO2
Exact mass: 307.2511
SMILES: CCCCCCCCC1=CC=C(C=C1)CCC(CO)(CO)N
InChI: InChI=1S/C19H33NO2/c1-2-3-4-5-6-7-8-17-9-11-18(12-10-17)13-14-19(20,15-21)16-22/h9-12,21-22H,2-8,13-16,20H2,1H3
Instrument: TripleTOF 6600 SCIEX
Instrument type: LC-ESI-QTOF
Ms type: MS2
Ion mode: POSITIVE
Collision energy: 80
Fragmentation mode: CID
Ionization: ESI
Column name: Zorbax Eclipse Plus C18 2.1 mm x 150 mm, 3.5 um, Agilent
Retention time: 10.17 min
Precursor m/z: 308.2584
Precursor type: [M+H]+
m/z	relative intensity
37.0061	34
38.0015	28
39.0218	137
41.0378	229
43.0534	97
51.0223	86
55.0538	28
57.0688	86
65.0375	378
77.0369	453
78.0454	40
79.0527	246
89.0366	22
91.0527	999
102.0453	57
103.0534	172
104.0612	34
105.0683	252
115.0525	344
116.0609	57
117.0682	57
127.0522	183
128.0601	660
129.0683	80
131.0811	28
141.0683	327
142.0752	40
155.0579	28
155.0837	45
