Mass spectrum: Isopyrazam; LC-ESI-QTOF; MS2; 110 V
Name: Isopyrazam
Class: Fungicide
Formula: C20H23F2N3O
Exact mass: 359.1809
SMILES: CC(C)C1C2CCC1C3=C2C=CC=C3NC(=O)C4=CN(N=C4C(F)F)C
InChI: InChI=1S/C20H23F2N3O/c1-10(2)16-12-7-8-13(16)17-11(12)5-4-6-15(17)23-20(26)14-9-25(3)24-18(14)19(21)22/h4-6,9-10,12-13,16,19H,7-8H2,1-3H3,(H,23,26)
Instrument: TripleTOF 6600 SCIEX
Instrument type: LC-ESI-QTOF
Ms type: MS2
Ion mode: POSITIVE
Collision energy: 110
Fragmentation mode: CID
Ionization: ESI
Column name: Zorbax Eclipse Plus C18 2.1 mm x 150 mm, 3.5 um, Agilent
Retention time: 14.619 min
Precursor m/z: 360.1882
Precursor type: [M+H]+
m/z	relative intensity
37.0079	54
38.0031	9
38.0148	54
39.023	282
41.0387	218
42.0343	170
43.0292	61
50.015	22
51.004	34
51.0227	141
52.0191	18
53.0023	11
53.0125	11
53.0393	29
54.0341	20
55.0426	11
55.0545	27
57.0141	102
61.0069	25
62.0153	47
63.0233	177
64.0175	13
65.0385	143
66.0347	13
67.0177	11
67.0541	38
68.0085	20
69.0128	13
70.008	18
73.0068	11
74.0139	86
75.0056	11
75.0228	211
76.0313	84
77.0211	13
77.0381	598
77.9974	13
78.0328	34
78.046	91
79.0545	36
81.0149	11
81.0435	9
82.0276	34
83.028	59
84.0253	34
85.0064	11
86.0152	29
87.0226	56
88.0138	56
88.0299	63
89.0383	377
90.033	20
90.0442	34
91.0537	93
95.0302	11
95.0599	15
98.0078	25
98.0163	27
99.0232	100
100.0185	25
100.0302	29
101.0382	245
102.0332	43
102.0453	220
103.0407	13
103.0535	38
104.0486	22
105.0456	25
106.0195	13
106.0624	11
107.0282	61
109.0404	63
111.0308	40
112.029	13
113.0378	204
114.0313	65
114.0452	106
115.0538	999
116.0495	77
117.0568	43
119.0259	20
120.0345	36
123.021	15
124.0303	11
125.0373	207
126.0457	359
127.0532	682
128.0605	755
129.0447	122
130.0375	25
130.0651	70
131.0286	25
131.0432	31
131.0593	18
132.0239	11
132.038	20
133.0432	72
134.0363	36
136.0263	11
137.0367	47
138.0327	36
138.0452	65
139.0533	523
140.0489	568
141.0686	309
142.0507	31
142.0622	27
143.0563	15
143.0733	13
144.0347	13
145.0451	45
146.0438	47
147.0462	22
148.0539	11
149.0381	47
150.046	252
151.0535	425
152.0564	612
153.0548	268
154.0647	284
155.0289	34
155.0594	161
156.0366	31
156.0778	11
157.0421	43
157.0679	11
158.0385	50
159.0377	120
162.0453	15
163.0535	188
164.0503	366
165.0638	341
166.0628	339
167.0725	232
168.0692	86
169.0459	22
169.0728	50
170.0512	29
171.0363	9
171.0477	13
172.0543	36
173.0502	45
174.0468	11
175.0475	52
176.0564	193
177.0565	279
178.0639	309
179.0607	398
180.0526	72
180.076	104
181.0759	47
182.0399	20
182.0725	29
183.0382	22
184.0612	25
185.0651	31
187.0558	20
188.0515	86
189.0636	150
190.0655	252
191.0699	316
192.0709	309
193.0761	97
194.0678	50
194.095	11
195.0399	13
197.0556	20
200.0563	15
201.0606	31
202.0666	93
203.0692	106
204.0563	40
204.08	177
205.076	188
206.0713	168
207.0534	22
207.0831	29
208.0867	27
210.0641	11
211.0508	11
213.0695	15
214.0604	36
215.0702	45
216.0652	20
216.0775	45
217.0635	45
217.0819	45
218.0738	50
218.0886	27
218.0992	13
219.0886	63
220.0849	56
221.088	25
224.0614	11
228.0789	29
229.0807	31
230.0739	27
231.0853	15
232.0866	52
233.0606	15
233.1045	22
234.0859	13
235.0878	11
236.087	15
241.0782	13
242.0806	22
245.0959	18
246.0708	13
248.0796	15
249.0943	13
250.093	13
260.0786	9
274.097	11
