Mass spectrum: Atenolol; LC-ESI-QTOF; MS2; 40 V
Name: Atenolol
Class: Pharmaceutical
Formula: C14H22N2O3
Exact mass: 266.163
SMILES: CC(C)NCC(O)COc1ccc(CC(N)=O)cc1
InChI: InChI=1S/C14H22N2O3/c1-10(2)16-8-12(17)9-19-13-5-3-11(4-6-13)7-14(15)18/h3-6,10,12,16-17H,7-9H2,1-2H3,(H2,15,18)
Instrument: TripleTOF 5600 SCIEX
Instrument type: LC-ESI-QTOF
Ms type: MS2
Ion mode: POSITIVE
Collision energy: 40
Fragmentation mode: CID
Ionization: ESI
Column name: Zorbax Eclipse Plus C18 2.1 mm x 150 mm, 3.5 um, Agilent
Retention time: 4.619 min
Precursor m/z: 267.1703
Precursor type: [M+H]+
m/z	relative intensity
56.0547	223
58.0705	21
72.0842	103
74.063	299
77.0402	27
79.0577	19
84.0815	10
89.0393	31
91.0554	88
93.0713	46
98.0978	59
103.0563	14
105.0703	48
106.065	35
107.0485	120
115.0537	59
116.0485	23
116.1055	99
117.0692	109
119.0481	95
119.0903	16
121.0647	124
122.0609	23
127.0536	21
131.0476	23
133.0647	367
134.0601	78
145.0645	999
147.0443	73
152.0712	12
162.066	19
162.0918	42
163.0774	14
164.0702	57
173.0605	46
178.0863	73
190.085	78
208.0934	21
225.1231	12
267.1686	12
