Mass spectrum: Rhein; LC-ESI-QTOF; MS2; 70 V
Name: Rhein
Class: Metabolite
Formula: C15H8O6
Exact mass: 284.0321
SMILES: C1=CC2=C(C(=C1)O)C(=O)C3=C(C=C(C=C3C2=O)C(=O)O)O
InChI: InChI=1S/C15H8O6/c16-9-3-1-2-7-11(9)14(19)12-8(13(7)18)4-6(15(20)21)5-10(12)17/h1-5,16-17H,(H,20,21)
Instrument: TripleTOF 5600 SCIEX
Instrument type: LC-ESI-QTOF
Ms type: MS2
Ion mode: POSITIVE
Collision energy: 70
Fragmentation mode: CID
Ionization: ESI
Column name: Zorbax Eclipse Plus C18 2.1 mm x 150 mm, 3.5 um, Agilent
Retention time: 10.796 min
Precursor m/z: 285.0394
Precursor type: [M+H]+
m/z	relative intensity
63.0241	41
65.038	194
75.0226	55
77.0384	423
81.0329	97
89.0381	62
91.0184	34
93.0331	138
101.0388	138
102.0476	34
103.0546	76
109.0291	34
113.0399	62
115.0551	131
119.012	34
121.0294	145
125.0402	27
126.0458	333
127.0538	999
128.0616	457
129.0671	27
131.0487	83
137.0383	187
138.0447	62
139.0538	666
155.049	686
157.0659	34
165.0322	62
183.0452	117
193.0262	27
