Mass spectrum: 4-[(4-Aminophenyl)(4-iminocyclohexa-2,5-dien-1-ylidene)methyl]-2-methylaniline; LC-ESI-QTOF; MS2; 80 V
Name: 4-[(4-Aminophenyl)(4-iminocyclohexa-2,5-dien-1-ylidene)methyl]-2-methylaniline
Formula: C20H19N3
Exact mass: 301.1579
SMILES: CC1=CC(=C(C2=CC=C(C=C2)N)C3=CC=C(C=C3)N)C=CC1=N
InChI: InChI=1S/C20H19N3/c1-13-12-16(6-11-19(13)23)20(14-2-7-17(21)8-3-14)15-4-9-18(22)10-5-15/h2-12,23H,21-22H2,1H3
Instrument: TripleTOF X500R SCIEX
Instrument type: LC-ESI-QTOF
Ms type: MS2
Ion mode: POSITIVE
Collision energy: 80
Fragmentation mode: CID
Ionization: ESI
Column name: Zorbax Eclipse Plus C18 2.1 mm x 150 mm, 3.5 um, Agilent
Retention time: 7.598 min
Precursor m/z: 302.1652
Precursor type: [M+H]+
m/z	relative intensity
42.0346	18
77.0393	113
79.0541	58
89.0385	25
91.0545	22
93.058	33
101.0394	25
103.055	33
106.0659	80
113.0397	36
114.0463	33
115.0549	389
116.0487	18
116.0634	66
117.058	69
118.0645	22
125.0383	69
126.0467	73
127.0551	194
128.0621	117
130.0654	84
139.0549	378
140.055	352
141.0685	161
142.0657	47
143.0734	128
149.0405	73
150.0476	444
151.0545	752
152.0616	404
153.0681	249
154.0651	117
155.0648	44
156.0814	25
163.0548	216
164.0624	319
165.0702	822
166.0651	547
167.0734	999
168.0785	179
169.0761	44
174.0448	18
175.0503	58
176.0561	224
177.0578	330
178.066	293
179.0671	121
180.0814	844
181.0878	190
182.0886	36
187.0535	47
188.0615	51
189.0696	315
190.0662	337
191.0731	348
192.0731	363
193.0799	492
194.0848	132
194.1075	14
195.0914	146
199.0542	25
200.0619	143
201.0691	172
202.0776	341
203.0768	121
204.0814	190
205.0774	69
206.0869	44
207.093	157
208.0997	154
209.1085	22
213.07	213
214.0686	176
215.0843	290
216.0814	150
217.0902	275
218.0945	80
219.0922	161
224.0644	113
225.0689	213
226.0771	503
227.0745	301
228.0825	312
229.0879	117
230.0977	308
231.0961	80
232.1011	77
233.1052	22
237.0721	106
238.0685	132
239.0863	315
240.0828	404
241.0884	499
242.0931	246
243.0982	205
244.1024	106
245.1068	168
246.1066	14
248.0618	25
249.0637	36
250.0757	198
251.0743	367
252.0826	381
253.0877	326
254.0971	440
255.0928	209
256.1013	102
257.1041	102
258.1125	110
259.1211	55
264.0822	73
265.0858	77
266.0918	209
267.0987	238
268.1008	282
269.1082	506
270.1035	161
271.1228	95
271.1632	14
281.1076	58
282.1152	58
283.1201	88
284.1172	77
285.1348	40
286.1338	66
