Mass spectrum: Dimethachlor; LC-ESI-QTOF; MS2; 50 V
Name: Dimethachlor
Class: Herbicide
Formula: C13H18ClNO2
Exact mass: 255.1026
SMILES: CC1=C(C(=CC=C1)C)N(CCOC)C(=O)CCl
InChI: InChI=1S/C13H18ClNO2/c1-10-5-4-6-11(2)13(10)15(7-8-17-3)12(16)9-14/h4-6H,7-9H2,1-3H3
Instrument: TripleTOF 6600 SCIEX
Instrument type: LC-ESI-QTOF
Ms type: MS2
Ion mode: POSITIVE
Collision energy: 50
Fragmentation mode: CID
Ionization: ESI
Column name: Zorbax Eclipse Plus C18 2.1 mm x 150 mm, 3.5 um, Agilent
Retention time: 10.992 min
Precursor m/z: 256.1099
Precursor type: [M+H]+
m/z	relative intensity
46.9688	18
48.9843	240
50.0158	13
51.0235	33
59.0493	16
65.0385	15
76.979	97
77.0389	384
79.0546	419
91.0541	208
93.0703	35
103.0543	318
105.0433	11
105.07	891
106.0655	10
106.0781	62
107.0731	42
107.0847	32
115.0548	30
116.0623	33
117.0573	225
118.0651	308
119.0723	21
119.0851	70
120.0806	107
121.0657	38
121.0891	20
121.1014	16
122.0965	28
129.0696	30
130.0652	92
131.0727	190
132.0809	729
133.0885	326
134.0971	28
144.081	42
146.0963	146
147.0677	11
147.1037	15
148.1122	999
158.0961	10
174.0913	48
224.0835	48
