Mass spectrum: Foramsulfuron; LC-ESI-QTOF; MS2; 60 V
Name: Foramsulfuron
Class: Herbicide
Formula: C17H20N6O7S
Exact mass: 452.1114
SMILES: CN(C)C(=O)C1=C(C=C(C=C1)NC=O)S(=O)(=O)NC(=O)NC2=NC(=CC(=N2)OC)OC
InChI: InChI=1S/C17H20N6O7S/c1-23(2)15(25)11-6-5-10(18-9-24)7-12(11)31(27,28)22-17(26)21-16-19-13(29-3)8-14(20-16)30-4/h5-9H,1-4H3,(H,18,24)(H2,19,20,21,22,26)
Instrument: TripleTOF 6600 SCIEX
Instrument type: LC-ESI-QTOF
Ms type: MS2
Ion mode: NEGATIVE
Collision energy: 60
Fragmentation mode: CID
Ionization: ESI
Column name: Zorbax Eclipse Plus C18 2.1 mm x 150 mm, 3.5 um, Agilent
Retention time: 8.823 min
Precursor m/z: 451.1041
Precursor type: [M-H]-
m/z	relative intensity
41.9992	366
61.9685	10
65.0149	46
65.9986	64
92.0172	15
105.9611	80
107.0133	69
116.0146	75
117.0456	14
118.0305	66
122.0371	112
124.053	11
133.0434	21
134.0248	14
139.0393	54
143.0243	12
145.0464	23
154.0635	188
159.0213	21
160.0043	71
161.0405	17
161.0749	37
176.0845	16
195.994	40
197.0011	31
204.0757	13
205.0647	95
209.0264	24
222.9847	39
224.0495	33
224.997	110
236.0146	40
252.0449	71
268.0402	999
270.054	14
