Mass spectrum: Promethazine; LC-ESI-QTOF; MS2; 110 V
Name: Promethazine
Class: Pharmaceutical
Formula: C17H20N2S
Exact mass: 284.1347
SMILES: CC(CN1c2ccccc2Sc3c1cccc3)N(C)C
InChI: InChI=1S/C17H20N2S/c1-13(18(2)3)12-19-14-8-4-6-10-16(14)20-17-11-7-5-9-15(17)19/h4-11,13H,12H2,1-3H3
Instrument: TripleTOF 5600 SCIEX
Instrument type: LC-ESI-QTOF
Ms type: MS2
Ion mode: POSITIVE
Collision energy: 110
Fragmentation mode: CID
Ionization: ESI
Column name: Zorbax Eclipse Plus C18 2.1 mm x 150 mm, 3.5 um, Agilent
Retention time: 7.995 min
Precursor m/z: 285.142
Precursor type: [M+H]+
m/z	relative intensity
41.0348	28
42.0445	100
43.0504	39
44.0584	41
51.0309	143
56.0572	999
58.0719	66
65.0434	77
67.9757	13
68.9848	350
69.9921	18
70.0696	140
70.9992	11
71.0781	605
74.0191	66
75.0265	204
76.0356	18
77.043	546
78.0495	13
81.9905	111
84.085	35
86.0196	18
86.0997	219
87.0265	41
88.035	30
89.0425	153
91.0587	18
92.9826	47
94.9977	30
98.0174	22
99.0255	30
100.0322	26
100.0487	13
101.0412	219
102.0356	37
102.049	54
103.0573	37
107.0006	11
108.0039	85
109.0139	32
112.0348	11
113.0407	143
114.0362	28
114.0485	22
115.0556	66
116.0508	24
121.0149	39
124.0313	11
125.0406	81
126.0489	372
127.0567	304
128.051	240
129.0461	18
130.0673	35
137.0408	51
138.0372	11
138.0508	26
139.056	240
140.052	270
140.0769	15
145.0138	34
146.0115	32
150.0495	88
151.0575	153
152.0583	228
153.0596	160
154.0673	41
158.0216	13
159.0153	17
162.0496	17
163.0566	81
164.053	113
165.0712	70
166.0681	66
169.0154	51
170.0207	39
171.0299	37
175.0604	11
176.0642	30
177.0621	41
178.0696	90
179.0754	18
188.0566	11
189.0611	18
190.0689	70
191.0785	30
195.0292	45
196.0243	136
197.0319	68
202.0665	13
203.0799	15
204.0834	20
222.0407	77
223.0486	32
