Mass spectrum: Allethrin; LC-ESI-QTOF; MS2; 30 V
Name: Allethrin
Class: Insecticide
Formula: C19H26O3
Exact mass: 302.1882
SMILES: CC(C)=CC1C(C(=O)OC2CC(=O)C(=C2C)CC=C)C1(C)C
InChI: InChI=1S/C19H26O3/c1-7-8-13-12(4)16(10-15(13)20)22-18(21)17-14(9-11(2)3)19(17,5)6/h7,9,14,16-17H,1,8,10H2,2-6H3
Instrument: TripleTOF 5600 SCIEX
Instrument type: LC-ESI-QTOF
Ms type: MS2
Ion mode: POSITIVE
Collision energy: 30
Fragmentation mode: CID
Ionization: ESI
Column name: Zorbax Eclipse Plus C18 2.1 mm x 150 mm, 3.5 um, Agilent
Retention time: 16.132 min
Precursor m/z: 303.1955
Precursor type: [M+H]+
m/z	relative intensity
55.0213	12
57.0733	12
65.041	14
67.0575	34
69.0733	51
77.0401	58
79.0567	353
81.0717	223
83.0495	12
83.0882	17
85.0673	17
91.0557	326
91.0898	12
93.0707	527
95.0494	27
95.0857	83
97.0667	14
105.0695	147
107.0489	63
107.0856	677
109.0644	108
109.1	49
111.0446	19
113.0581	24
115.0536	85
117.0691	191
119.0859	41
121.0632	100
121.1008	432
123.0786	19
123.1165	645
125.0586	19
131.0842	24
133.0609	24
133.0996	44
135.08	999
135.1164	14
137.0953	83
139.1114	66
143.0844	36
145.1008	27
147.0788	14
147.1169	24
149.0952	282
151.1115	125
157.1008	36
159.079	12
159.1158	31
161.0945	29
161.1318	29
163.1093	27
167.1048	31
169.1023	9
169.1237	31
171.1162	14
173.0958	22
173.1316	34
175.1087	22
175.146	12
183.1161	22
185.1314	14
187.1117	27
189.1286	27
189.162	9
197.1307	12
199.15	27
201.1251	34
203.1424	24
215.1408	34
215.1774	14
217.1571	12
243.1418	14
