Mass spectrum: Nitrazepam; LC-ESI-QTOF; MS2; 40 V
Name: Nitrazepam
Class: Pharmaceutical
Formula: C15H11N3O3
Exact mass: 281.08
SMILES: C1C(=O)NC2=C(C=C(C=C2)[N+](=O)[O-])C(=N1)C3=CC=CC=C3
InChI: InChI=1S/C15H11N3O3/c19-14-9-16-15(10-4-2-1-3-5-10)12-8-11(18(20)21)6-7-13(12)17-14/h1-8H,9H2,(H,17,19)
Instrument: TripleTOF 6600 SCIEX
Instrument type: LC-ESI-QTOF
Ms type: MS2
Ion mode: POSITIVE
Collision energy: 40
Fragmentation mode: CID
Ionization: ESI
Column name: Zorbax Eclipse Plus C18 2.1 mm x 150 mm, 3.5 um, Agilent
Retention time: 9.435 min
Precursor m/z: 282.0873
Precursor type: [M+H]+
m/z	relative intensity
91.0531	28
103.0401	23
104.0486	42
105.0563	19
129.0442	15
130.051	63
152.0596	39
153.0681	27
158.048	11
164.0599	17
165.0682	22
167.0765	21
168.0749	22
176.0448	17
178.0634	12
179.0711	52
180.0798	764
181.0848	10
190.0637	131
191.0714	49
192.0779	44
193.0833	37
194.0927	34
195.091	19
196.0749	19
205.0738	14
206.0823	96
207.0911	695
208.0984	125
217.0746	10
223.0839	21
235.0856	115
236.0941	999
251.0788	19
282.0863	128
