Mass spectrum: Etrimfos; LC-ESI-QTOF; MS2; 50 V
Name: Etrimfos
Class: Insecticide
Formula: C10H17N2O4PS
Exact mass: 292.0647
SMILES: CCC1=NC(=CC(=N1)OP(=S)(OC)OC)OCC
InChI: InChI=1S/C10H17N2O4PS/c1-5-8-11-9(15-6-2)7-10(12-8)16-17(18,13-3)14-4/h7H,5-6H2,1-4H3
Instrument: TripleTOF 6600 SCIEX
Instrument type: LC-ESI-QTOF
Ms type: MS2
Ion mode: POSITIVE
Collision energy: 50
Fragmentation mode: CID
Ionization: ESI
Column name: Zorbax Eclipse Plus C18 2.1 mm x 150 mm, 3.5 um, Agilent
Retention time: 14.241 min
Precursor m/z: 293.072
Precursor type: [M+H]+
m/z	relative intensity
44.9789	55
46.9938	244
56.0492	119
62.0176	40
68.0124	106
70.0643	14
78.9937	546
93.0092	20
94.0039	26
100.0379	27
109.004	315
109.9806	12
110.9655	216
123.054	33
124.9811	999
127.0145	39
134.9648	18
142.9915	80
155.0794	10
