Mass spectrum: Erlotinib; LC-ESI-QTOF; MS2; 150 V
Name: Erlotinib
Class: Pharmaceutical
Formula: C22H23N3O4
Exact mass: 393.1689
SMILES: COCCOC1=C(C=C2C(=C1)C(=NC=N2)NC3=CC=CC(=C3)C#C)OCCOC
InChI: InChI=1S/C22H23N3O4/c1-4-16-6-5-7-17(12-16)25-22-18-13-20(28-10-8-26-2)21(29-11-9-27-3)14-19(18)23-15-24-22/h1,5-7,12-15H,8-11H2,2-3H3,(H,23,24,25)
Instrument: TripleTOF 5600 SCIEX
Instrument type: LC-ESI-QTOF
Ms type: MS2
Ion mode: POSITIVE
Collision energy: 150
Fragmentation mode: CID
Ionization: ESI
Column name: Zorbax Eclipse Plus C18 2.1 mm x 150 mm, 3.5 um, Agilent
Retention time: 7.429 min
Precursor m/z: 394.1761
Precursor type: [M+H]+
m/z	relative intensity
39.023	35
43.0169	11
49.007	17
50.0152	143
51.0231	287
52.0186	59
53.038	12
55.0182	24
59.0499	19
61.0069	46
62.0152	38
63.0229	87
64.0193	11
65.0385	40
66.0338	29
68.0132	14
73.0076	48
74.0153	689
75.0231	999
76.018	100
76.0301	30
77.0266	51
77.0381	104
78.0345	46
79.0181	16
80.013	20
81.0324	11
86.0156	30
87.0232	53
88.0176	74
88.0305	20
89.0386	156
90.0467	22
91.0548	11
93.044	29
98.0155	82
99.0237	145
100.0181	29
100.0304	19
101.0384	111
102.0453	29
103.0273	11
104.0371	16
106.03	16
108.0201	24
111.0224	22
112.0179	14
112.0318	11
113.0388	75
114.0368	41
115.0417	11
115.0548	30
116.0489	24
121.0397	11
122.0163	35
123.0236	93
124.0241	41
125.0389	88
126.0445	106
127.0477	40
128.0486	27
137.0393	72
138.0389	85
139.0541	116
140.0501	77
148.0301	17
149.0392	114
150.0462	263
151.0495	129
152.0498	90
153.0533	46
161.0399	30
162.0325	17
162.0476	14
163.0489	75
164.0495	225
165.0509	66
166.0598	20
167.0628	11
174.0356	20
175.0425	190
176.0504	133
177.0556	87
178.0636	17
179.0628	11
186.0333	24
187.0401	19
188.0514	43
189.0495	33
190.0552	20
191.0611	59
192.0704	35
201.0466	14
202.0537	37
203.0606	77
204.0598	17
213.0478	16
217.0679	11
218.0724	12
230.0686	20
