Mass spectrum: Rhein; LC-ESI-QTOF; MS2; 110 V
Name: Rhein
Class: Metabolite
Formula: C15H8O6
Exact mass: 284.0321
SMILES: C1=CC2=C(C(=C1)O)C(=O)C3=C(C=C(C=C3C2=O)C(=O)O)O
InChI: InChI=1S/C15H8O6/c16-9-3-1-2-7-11(9)14(19)12-8(13(7)18)4-6(15(20)21)5-10(12)17/h1-5,16-17H,(H,20,21)
Instrument: TripleTOF 5600 SCIEX
Instrument type: LC-ESI-QTOF
Ms type: MS2
Ion mode: POSITIVE
Collision energy: 110
Fragmentation mode: CID
Ionization: ESI
Column name: Zorbax Eclipse Plus C18 2.1 mm x 150 mm, 3.5 um, Agilent
Retention time: 10.796 min
Precursor m/z: 285.0394
Precursor type: [M+H]+
m/z	relative intensity
39.0225	291
50.0149	249
51.0225	790
62.0142	333
63.0221	666
65.0373	541
74.0135	457
75.0235	707
76.0295	166
77.0385	999
85.0073	166
86.0144	333
87.0209	457
89.038	249
98.0144	249
101.0381	166
102.0462	333
111.0238	208
113.038	249
126.0462	624
127.0551	374
128.0606	249
137.0381	166
139.0518	374
