Mass spectrum: N-Cyclohexyl-1,3-benzothiazol-2-amine; LC-ESI-QTOF; MS2; 90 V
Name: N-Cyclohexyl-1,3-benzothiazol-2-amine
Formula: C13H16N2S
Exact mass: 232.1034
SMILES: C1CCC(CC1)NC2=NC3=CC=CC=C3S2
InChI: InChI=1S/C13H16N2S/c1-2-6-10(7-3-1)14-13-15-11-8-4-5-9-12(11)16-13/h4-5,8-10H,1-3,6-7H2,(H,14,15)
Instrument: TripleTOF 6600 SCIEX
Instrument type: LC-ESI-QTOF
Ms type: MS2
Ion mode: POSITIVE
Collision energy: 90
Fragmentation mode: CID
Ionization: ESI
Column name: Zorbax Eclipse Plus C18 2.1 mm x 150 mm, 3.5 um, Agilent
Retention time: 9.082 min
Precursor m/z: 233.1107
Precursor type: [M+H]+
m/z	relative intensity
37.007	82
38.0143	88
39.0227	586
41.038	76
44.9786	14
50.0144	22
51.022	65
53.0379	147
55.0533	167
59.9891	10
62.0141	11
63.0218	79
64.0171	29
64.029	16
65.0379	999
68.9785	403
77.0373	89
80.0486	339
81.9859	14
90.0325	24
91.0403	52
96.0017	16
97.0089	20
108.0012	72
109.0094	230
118.0507	24
124.0196	12
