Mass spectrum: 1-Benzothiazol-2-yl-ethylamine; LC-ESI-QTOF; MS2; 130 V
Name: 1-Benzothiazol-2-yl-ethylamine
Formula: C9H10N2S
Exact mass: 178.0565
SMILES: CC(C1=NC2=CC=CC=C2S1)N
InChI: InChI=1S/C9H10N2S/c1-6(10)9-11-7-4-2-3-5-8(7)12-9/h2-6H,10H2,1H3
Instrument: TripleTOF 6600 SCIEX
Instrument type: LC-ESI-QTOF
Ms type: MS2
Ion mode: POSITIVE
Collision energy: 130
Fragmentation mode: CID
Ionization: ESI
Column name: Zorbax Eclipse Plus C18 2.1 mm x 150 mm, 3.5 um, Agilent
Retention time: 5.162 min
Precursor m/z: 179.0638
Precursor type: [M+H]+
m/z	relative intensity
35.9988	124
37.0067	758
38.0037	62
38.0144	606
39.0224	686
42.0333	133
43.9705	98
44.0486	98
44.9784	240
49.0065	133
50.0144	347
51.022	89
57.9865	35
61.0061	107
62.014	178
63.0219	98
67.9708	312
68.9785	999
73.0059	35
74.0136	89
92.9782	62
