Mass spectrum: 16alpha-hydroxyestrone; LC-ESI-QTOF; MS2; 20 V
Name: 16alpha-hydroxyestrone
Class: Pharmaceutical; Metabolite
Formula: C18H22O3
Exact mass: 286.1569
SMILES: C[C@]12CC[C@@H]3[C@H](CCc4cc(O)ccc34)[C@H]1C[C@@H](O)C2=O
InChI: InChI=1S/C18H22O3/c1-18-7-6-13-12-5-3-11(19)8-10(12)2-4-14(13)15(18)9-16(20)17(18)21/h3,5,8,13-16,19-20H,2,4,6-7,9H2,1H3/t13-,14-,15+,16+,18-/m0/s1
Instrument: TripleTOF 5600 SCIEX
Instrument type: LC-ESI-QTOF
Ms type: MS2
Ion mode: POSITIVE
Collision energy: 20
Fragmentation mode: CID
Ionization: ESI
Column name: Zorbax Eclipse Plus C18 2.1 mm x 150 mm, 3.5 um, Agilent
Retention time: 8.67 min
Precursor m/z: 287.1642
Precursor type: [M+H]+
m/z	relative intensity
81.0721	19
105.0695	13
107.0491	32
107.0848	19
109.0646	12
121.064	10
123.0803	19
133.0655	376
145.0644	22
147.0805	14
157.0653	186
159.0809	316
161.0964	10
171.0806	15
173.096	61
175.0752	24
183.0802	24
185.0963	44
195.0806	87
196.0877	15
197.0962	510
199.1115	811
201.1275	32
209.0962	90
211.112	88
213.1273	446
215.1067	15
222.1035	11
223.1115	27
225.1277	243
227.1437	73
241.1589	72
251.1429	999
269.1531	751
287.1637	784
