Mass spectrum: 2`-Deoxyadenosine; LC-ESI-QTOF; MS2; 90 V
Name: 2`-Deoxyadenosine
Class: Natural_product
Formula: C10H13N5O3
Exact mass: 251.1018
SMILES: Nc1ncnc2n(cnc12)C3CC(O)C(CO)O3
InChI: InChI=1S/C10H13N5O3/c11-9-8-10(13-3-12-9)15(4-14-8)7-1-5(17)6(2-16)18-7/h3-7,16-17H,1-2H2,(H2,11,12,13)
Instrument: TripleTOF 5600 SCIEX
Instrument type: LC-ESI-QTOF
Ms type: MS2
Ion mode: POSITIVE
Collision energy: 90
Fragmentation mode: CID
Ionization: ESI
Column name: Zorbax Eclipse Plus C18 2.1 mm x 150 mm, 3.5 um, Agilent
Retention time: 3.397 min
Precursor m/z: 252.1091
Precursor type: [M+H]+
m/z	relative intensity
65.0177	519
67.0326	239
92.0261	839
119.0355	999
