Mass spectrum: Thioridazine; LC-ESI-QTOF; MS2; 70 V
Name: Thioridazine
Class: Pharmaceutical
Formula: C21H26N2S2
Exact mass: 370.1537
SMILES: CN1CCCCC1CCN2C3=CC=CC=C3SC4=C2C=C(C=C4)SC
InChI: InChI=1S/C21H26N2S2/c1-22-13-6-5-7-16(22)12-14-23-18-8-3-4-9-20(18)25-21-11-10-17(24-2)15-19(21)23/h3-4,8-11,15-16H,5-7,12-14H2,1-2H3
Instrument: TripleTOF 5600 SCIEX
Instrument type: LC-ESI-QTOF
Ms type: MS2
Ion mode: POSITIVE
Collision energy: 70
Fragmentation mode: CID
Ionization: ESI
Column name: Zorbax Eclipse Plus C18 2.1 mm x 150 mm, 3.5 um, Agilent
Retention time: 9.472 min
Precursor m/z: 371.161
Precursor type: [M+H]+
m/z	relative intensity
42.043	33
44.0587	14
55.0605	34
58.0717	111
68.0533	20
70.0702	322
82.068	10
83.0758	14
84.083	31
96.0817	20
98.0987	999
126.128	173
166.0637	25
167.0729	134
177.0576	13
178.0645	30
179.0724	115
186.0374	17
198.0358	22
199.0446	57
209.0291	16
210.0367	68
211.0446	243
212.0516	11
226.068	91
230.008	19
242.0074	19
243.0164	28
