Mass spectrum: Torasemide; LC-ESI-QTOF; MS2; 50 V
Name: Torasemide
Class: Pharmaceutical
Formula: C16H20N4O3S
Exact mass: 348.1256
SMILES: CC(C)NC(=O)N[S](=O)(=O)c1cnccc1Nc2cccc(C)c2
InChI: InChI=1S/C16H20N4O3S/c1-11(2)18-16(21)20-24(22,23)15-10-17-8-7-14(15)19-13-6-4-5-12(3)9-13/h4-11H,1-3H3,(H,17,19)(H2,18,20,21)
Instrument: TripleTOF 5600 SCIEX
Instrument type: LC-ESI-QTOF
Ms type: MS2
Ion mode: NEGATIVE
Collision energy: 50
Fragmentation mode: CID
Ionization: ESI
Column name: Zorbax Eclipse Plus C18 2.1 mm x 150 mm, 3.5 um, Agilent
Retention time: 7.633 min
Precursor m/z: 347.1183
Precursor type: [M-H]-
m/z	relative intensity
48.9771	85
77.9656	139
92.0376	156
93.0455	62
108.033	274
150.9971	56
181.0745	337
182.0722	59
183.0931	183
194.0729	72
195.0808	665
196.0887	600
198.1041	190
226.0462	119
262.0674	999
