Mass spectrum: Penconazol; LC-ESI-QTOF; MS2; 40 V
Name: Penconazol
Class: Fungicide
Formula: C13H15Cl2N3
Exact mass: 283.0643
InChI: InChI=1S/C13H15Cl2N3/c1-2-3-10(7-18-9-16-8-17-18)12-5-4-11(14)6-13(12)15/h4-6,8-10H,2-3,7H2,1H3
Instrument: TripleTOF 6600 SCIEX
Instrument type: LC-ESI-QTOF
Ms type: CID
Ion mode: POSITIVE
Collision energy: 40
Ionization: ESI
Column name: Zorbax Eclipse Plus C18 2.1 mm x 150 mm, 3.5 um, Agilent
Retention time: 12.845 min
Precursor m/z: 284.0716
Precursor type: [M+H]+
m/z	relative intensity
70.0409	522
102.047	12
123.0002	35
124.008	10
137.0162	33
158.9778	999
172.9934	48
