Mass spectrum: 2-Phenylbenzimidazole-5-sulfonic acid; LC-ESI-QTOF; MS2; 110 V
Name: 2-Phenylbenzimidazole-5-sulfonic acid
Class: Personal_care_product
Formula: C13H10N2O3S
Exact mass: 274.0412
SMILES: C1=CC=C(C=C1)C2=NC3=C(N2)C=C(C=C3)S(=O)(=O)O
InChI: InChI=1S/C13H10N2O3S/c16-19(17,18)10-6-7-11-12(8-10)15-13(14-11)9-4-2-1-3-5-9/h1-8H,(H,14,15)(H,16,17,18)
Instrument: TripleTOF 5600 SCIEX
Instrument type: LC-ESI-QTOF
Ms type: MS2
Ion mode: POSITIVE
Collision energy: 110
Fragmentation mode: CID
Ionization: ESI
Column name: Zorbax Eclipse Plus C18 2.1 mm x 150 mm, 3.5 um, Agilent
Retention time: 5.039 min
Precursor m/z: 275.0485
Precursor type: [M+H]+
m/z	relative intensity
52.0276	84
62.0327	70
64.0373	225
65.0439	154
74.0214	56
77.0444	576
89.0434	999
90.0495	98
104.0543	140
113.0409	365
114.0495	70
115.0574	168
116.0532	70
126.0497	70
137.0395	112
138.0467	168
139.0564	675
140.0508	393
164.0497	548
165.0529	154
166.0665	112
191.0615	126
192.0687	112
