Mass spectrum: Iminostilbene; LC-ESI-QTOF; MS2; 100 V
Name: Iminostilbene
Class: Pharmaceutical
Formula: C14H11N
Exact mass: 193.0891
SMILES: C1=CC=C2C(=C1)C=CC3=CC=CC=C3N2
InChI: InChI=1S/C14H11N/c1-3-7-13-11(5-1)9-10-12-6-2-4-8-14(12)15-13/h1-10,15H
Instrument: TripleTOF 6600 SCIEX
Instrument type: LC-ESI-QTOF
Ms type: MS2
Ion mode: POSITIVE
Collision energy: 100
Fragmentation mode: CID
Ionization: ESI
Column name: Zorbax Eclipse Plus C18 2.1 mm x 150 mm, 3.5 um, Agilent
Retention time: 13.175 min
Precursor m/z: 194.0964
Precursor type: [M+H]+
m/z	relative intensity
35.9963	24
37.0042	123
38.0117	108
39.0197	385
41.0349	11
49.003	76
50.011	552
51.0186	670
52.0136	10
52.0259	46
61.0018	163
62.0096	395
63.0175	999
64.0125	23
64.0243	36
65.0328	157
73.0007	50
74.0085	576
75.0162	444
76.0116	24
76.0239	165
77.0317	244
78.0392	37
84.9993	68
86.0073	213
87.015	297
88.0102	45
88.0222	61
89.0307	689
90.0255	13
90.0381	20
91.0455	15
96.9987	21
98.0064	344
99.0013	23
99.0134	182
100.0093	15
100.0217	49
101.0294	63
102.0251	16
102.0369	92
108.9971	22
110.0051	89
111.0126	70
112.0085	12
112.0201	10
113.0283	318
114.024	54
114.0348	25
115.0438	194
116.0389	15
122.004	57
123.0116	31
124.0196	21
125.0275	63
126.0353	118
127.0304	26
127.0422	10
128.0373	23
129.0327	18
137.0261	159
138.0212	17
138.0334	62
139.0418	302
140.0369	194
149.0253	67
150.0327	321
151.0282	23
151.0402	65
152.0363	22
152.0482	12
161.0239	108
162.0318	216
163.04	761
164.0367	248
165.0547	27
166.051	10
174.029	10
175.026	25
176.0335	35
177.0413	22
188.0327	136
189.0401	148
190.0481	167
191.0557	34
