Mass spectrum: Doxepin; LC-ESI-QTOF; MS2; 90 V
Name: Doxepin
Class: Pharmaceutical
Formula: C19H21NO
Exact mass: 279.1623
SMILES: CN(C)CCC=C1C2=CC=CC=C2COC3=CC=CC=C31
InChI: InChI=1S/C19H21NO/c1-20(2)13-7-11-17-16-9-4-3-8-15(16)14-21-19-12-6-5-10-18(17)19/h3-6,8-12H,7,13-14H2,1-2H3
Instrument: TripleTOF 5600 SCIEX
Instrument type: LC-ESI-QTOF
Ms type: MS2
Ion mode: POSITIVE
Collision energy: 90
Fragmentation mode: CID
Ionization: ESI
Column name: Zorbax Eclipse Plus C18 2.1 mm x 150 mm, 3.5 um, Agilent
Retention time: 7.447 min
Precursor m/z: 280.1696
Precursor type: [M+H]+
m/z	relative intensity
42.0473	29
58.0734	56
65.0456	178
68.0571	12
70.0708	19
75.0287	12
77.0446	744
78.0522	20
79.0598	70
84.086	23
89.0429	121
91.0586	276
101.0432	11
102.0497	60
103.0572	20
107.0523	46
113.0408	15
115.0569	775
117.0719	10
125.043	11
126.0484	25
127.0566	90
128.0642	241
139.0559	192
141.0714	72
149.0417	10
150.0466	93
151.0552	272
152.0631	419
162.048	10
163.0548	211
164.0626	320
165.0705	999
168.0578	14
174.0464	27
175.0543	46
176.0623	322
177.0698	103
178.0781	184
187.0552	57
188.0618	64
189.0699	894
190.078	103
191.0844	48
198.0432	11
199.0538	29
200.062	414
201.0702	166
202.0772	186
213.0696	168
214.0756	19
215.0851	109
218.0726	49
