Mass spectrum: Quinoxyfen; LC-ESI-QTOF; MS2; 120 V
Name: Quinoxyfen
Class: Fungicide
Formula: C15H8Cl2FNO
Exact mass: 306.9967
SMILES: C1=CC(=CC=C1OC2=C3C(=CC(=CC3=NC=C2)Cl)Cl)F
InChI: InChI=1S/C15H8Cl2FNO/c16-9-7-12(17)15-13(8-9)19-6-5-14(15)20-11-3-1-10(18)2-4-11/h1-8H
Instrument: TripleTOF 6600 SCIEX
Instrument type: LC-ESI-QTOF
Ms type: MS2
Ion mode: POSITIVE
Collision energy: 120
Fragmentation mode: CID
Ionization: ESI
Column name: Zorbax Eclipse Plus C18 2.1 mm x 150 mm, 3.5 um, Agilent
Retention time: 15.195 min
Precursor m/z: 308.004
Precursor type: [M+H]+
m/z	relative intensity
37.0064	12
38.0148	14
39.0223	16
49.007	10
50.0144	45
51.0219	28
57.0122	10
59.9984	15
61.0058	62
62.014	119
63.0216	95
68.0052	11
69.0125	43
72.9834	103
73.0054	138
74.0141	999
75.0216	318
76.0172	63
84.9824	21
85.0059	17
86.0138	39
87.0217	56
88.0175	18
88.0292	74
89.0372	87
96.9828	48
97.0055	23
98.0138	346
99.021	281
100.017	93
100.028	32
107.0281	10
108.9826	45
111.9937	17
114.0315	48
115.0399	51
116.0472	9
122.999	145
124.0137	10
126.0318	14
127.04	53
135.0007	15
155.028	11
157.0441	10
161.0365	31
162.0453	12
163.0527	20
179.0285	20
180.0355	31
181.044	85
182.0392	12
188.048	24
206.0374	17
208.054	12
