Mass spectrum: Voriconazole-N-oxide; LC-ESI-QTOF; MS2; 110 V
Name: Voriconazole-N-oxide
Class: Metabolite; Pharmaceutical
Formula: C16H14F3N5O2
Exact mass: 365.11
SMILES: CC(C1=NC=[N+](C=C1F)[O-])C(CN2C=NC=N2)(C3=C(C=C(C=C3)F)F)O
InChI: InChI=1S/C16H14F3N5O2/c1-10(15-14(19)5-24(26)9-21-15)16(25,6-23-8-20-7-22-23)12-3-2-11(17)4-13(12)18/h2-5,7-10,25H,6H2,1H3
Instrument: TripleTOF 5600 SCIEX
Instrument type: LC-ESI-QTOF
Ms type: MS2
Ion mode: POSITIVE
Collision energy: 110
Fragmentation mode: CID
Ionization: ESI
Column name: Zorbax Eclipse Plus C18 2.1 mm x 150 mm, 3.5 um, Agilent
Retention time: 7.739 min
Precursor m/z: 366.1172
Precursor type: [M+H]+
m/z	relative intensity
51.0086	27
51.0292	36
52.0235	36
55.0333	31
57.0162	91
70.0427	36
71.0198	63
71.0303	31
72.0263	27
75.0068	91
77.0224	114
77.0399	150
78.0373	50
81.0159	132
82.0423	36
83.0298	36
95.0607	18
96.0245	18
97.0186	41
97.0348	31
98.0284	50
98.0396	59
99.0341	41
101.0199	843
105.045	54
107.0287	542
107.0621	22
113.0215	31
125.0233	18
125.0504	999
126.0582	63
127.0348	944
141.0157	36
