Mass spectrum: Azo Rubin S; LC-ESI-QTOF; MS2; 100 V
Name: Azo Rubin S
Formula: C20H14N2O7S2
Exact mass: 458.0242
SMILES: C1=CC=C2C(=C1)C(=CC=C2S(=O)(=O)O)N=NC3=C(C4=CC=CC=C4C(=C3)S(=O)(=O)O)O
InChI: InChI=1S/C20H14N2O7S2/c23-20-15-8-4-3-7-14(15)19(31(27,28)29)11-17(20)22-21-16-9-10-18(30(24,25)26)13-6-2-1-5-12(13)16/h1-11,23H,(H,24,25,26)(H,27,28,29)
Instrument: TripleTOF 6600 SCIEX
Instrument type: LC-ESI-QTOF
Ms type: MS2
Ion mode: POSITIVE
Collision energy: 100
Fragmentation mode: CID
Ionization: ESI
Column name: Zorbax Eclipse Plus C18 2.1 mm x 150 mm, 3.5 um, Agilent
Retention time: 7.286 min
Precursor m/z: 459.0315
Precursor type: [M+H]+
m/z	relative intensity
51.0227	13
52.0182	81
63.0225	15
64.9682	26
75.0229	9
77.0383	444
80.0126	145
89.0381	151
100.0175	10
101.038	22
102.0466	41
103.0538	681
104.0492	65
105.0351	28
113.0385	19
114.0443	28
115.0536	609
116.0495	188
126.034	24
127.0546	11
128.0482	21
130.0648	999
131.0485	22
140.0493	160
141.0569	10
142.0647	71
143.0725	42
154.0349	10
158.0593	108
240.0815	29
251.0744	52
252.0781	14
265.0733	21
266.0842	69
267.0888	23
268.1021	10
278.0854	25
279.0928	44
