Mass spectrum: Tepraloxydim; LC-ESI-QTOF; MS2; 100 V
Name: Tepraloxydim
Class: Herbicide
Formula: C17H24ClNO4
Exact mass: 341.1394
SMILES: CCC(=NOCC=CCl)C1=C(CC(CC1=O)C2CCOCC2)O
InChI: InChI=1S/C17H24ClNO4/c1-2-14(19-23-7-3-6-18)17-15(20)10-13(11-16(17)21)12-4-8-22-9-5-12/h3,6,12-13,20H,2,4-5,7-11H2,1H3
Instrument: TripleTOF 6600 SCIEX
Instrument type: LC-ESI-QTOF
Ms type: MS2
Ion mode: POSITIVE
Collision energy: 100
Fragmentation mode: CID
Ionization: ESI
Column name: Zorbax Eclipse Plus C18 2.1 mm x 150 mm, 3.5 um, Agilent
Retention time: 12.248 min
Precursor m/z: 342.1467
Precursor type: [M+H]+
m/z	relative intensity
37.0064	39
38.0146	29
39.0222	238
41.0254	24
41.0376	173
42.0333	188
43.017	119
44.0122	64
46.9672	29
48.9829	223
49.0072	24
50.014	89
51.022	253
52.0301	24
53.0014	29
53.0375	168
54.0329	69
55.0168	54
55.0534	99
56.0487	139
63.0208	34
65.0374	318
66.0327	64
66.0456	49
67.0162	19
67.0403	104
67.0531	94
68.0126	39
68.0483	159
68.9955	24
69.0317	24
70.0639	29
74.9986	104
77.0375	999
78.0333	34
78.0454	49
79.0158	29
79.0529	193
80.0487	149
81.0322	39
81.0563	54
81.0686	34
82.0638	89
89.0372	59
90.0449	19
91.0528	437
92.0484	39
93.0559	114
93.0686	49
94.0424	19
94.0638	99
95.0482	54
95.071	19
96.0428	168
96.0767	19
98.0584	173
102.0451	39
103.0531	203
104.0464	24
105.0426	49
105.0672	54
106.064	54
107.0479	34
108.079	69
109.0501	34
110.0589	34
115.0525	193
117.0555	74
118.0652	34
121.0631	34
122.0578	29
127.0521	44
128.0613	94
129.0697	29
130.063	74
131.0478	19
132.0789	34
133.0499	24
143.0717	39
144.079	24
152.0597	24
