Mass spectrum: Chlorotoluron; LC-ESI-QTOF; MS2; 80 V
Name: Chlorotoluron
Class: Herbicide
Formula: C10H13ClN2O
Exact mass: 212.0716
SMILES: CC1=C(C=C(C=C1)NC(=O)N(C)C)Cl
InChI: InChI=1S/C10H13ClN2O/c1-7-4-5-8(6-9(7)11)12-10(14)13(2)3/h4-6H,1-3H3,(H,12,14)
Instrument: TripleTOF 6600 SCIEX
Instrument type: LC-ESI-QTOF
Ms type: MS2
Ion mode: POSITIVE
Collision energy: 80
Fragmentation mode: CID
Ionization: ESI
Column name: Zorbax Eclipse Plus C18 2.1 mm x 150 mm, 3.5 um, Agilent
Retention time: 9.778 min
Precursor m/z: 213.0789
Precursor type: [M+H]+
m/z	relative intensity
30.0341	75
39.0236	53
42.0345	118
44.0507	75
46.0654	214
48.9846	42
49.0074	42
50.0155	118
51.023	365
56.0134	375
62.015	85
63.0232	300
72.0447	999
72.9835	204
77.0388	333
78.0471	85
89.0379	300
99.0	118
104.0487	75
