Mass spectrum: Azo Rubin S; LC-ESI-QTOF; MS2; 50 V
Name: Azo Rubin S
Formula: C20H14N2O7S2
Exact mass: 458.0242
SMILES: C1=CC=C2C(=C1)C(=CC=C2S(=O)(=O)O)N=NC3=C(C4=CC=CC=C4C(=C3)S(=O)(=O)O)O
InChI: InChI=1S/C20H14N2O7S2/c23-20-15-8-4-3-7-14(15)19(31(27,28)29)11-17(20)22-21-16-9-10-18(30(24,25)26)13-6-2-1-5-12(13)16/h1-11,23H,(H,24,25,26)(H,27,28,29)
Instrument: TripleTOF 6600 SCIEX
Instrument type: LC-ESI-QTOF
Ms type: MS2
Ion mode: NEGATIVE
Collision energy: 50
Fragmentation mode: CID
Ionization: ESI
Column name: Zorbax Eclipse Plus C18 2.1 mm x 150 mm, 3.5 um, Agilent
Retention time: 7.286 min
Precursor m/z: 228.0053
Precursor type: [M-2H]2-
m/z	relative intensity
38.0035	1
50.0035	3
63.9626	63
65.9987	96
79.7094	2
79.9577	631
80.9654	7
88.0323	1
101.0398	2
102.0349	85
113.0269	0
114.0351	1
115.042	5
126.0357	2
140.0506	23
142.03	12
143.0499	2
145.0298	16
157.0529	1
169.0161	1
169.4921	4
170.0255	999
171.028	7
172.0395	2
194.0032	1
206.0056	4
221.015	10
