Mass spectrum: 2-Hydroxy-n-methyl-n-phenylpropanamide; LC-ESI-QTOF; MS2; 40 V
Name: 2-Hydroxy-n-methyl-n-phenylpropanamide
Formula: C10H13NO2
Exact mass: 179.0946
SMILES: CC(C(=O)N(C)C1=CC=CC=C1)O
InChI: InChI=1S/C10H13NO2/c1-8(12)10(13)11(2)9-6-4-3-5-7-9/h3-8,12H,1-2H3
Instrument: TripleTOF 5600 SCIEX
Instrument type: LC-ESI-QTOF
Ms type: MS2
Ion mode: POSITIVE
Collision energy: 40
Fragmentation mode: CID
Ionization: ESI
Column name: Zorbax Eclipse Plus C18 2.1 mm x 150 mm, 3.5 um, Agilent
Retention time: 6.763 min
Precursor m/z: 180.1019
Precursor type: [M+H]+
m/z	relative intensity
42.0341	33
45.0335	57
51.0226	67
55.0175	33
56.0494	213
65.0386	26
66.0457	23
77.0384	744
78.047	41
79.0538	291
91.0538	293
92.0479	18
92.0624	31
93.0572	517
94.0659	62
103.0538	309
104.0492	447
105.0697	580
106.065	522
107.0714	148
108.0799	192
115.0551	67
117.0586	65
117.0707	18
118.065	741
119.0726	999
120.0813	15
132.0815	184
133.0875	80
134.0959	767
146.0614	31
147.0672	20
162.0923	23
