Mass spectrum: 2-(Morpholinodithio)benzothiazole; LC-ESI-QTOF; MS2; 60 V
Name: 2-(Morpholinodithio)benzothiazole
Class: Industrial_process
Formula: C11H12N2OS3
Exact mass: 284.0112
SMILES: C1COCCN1SSC2=NC3=CC=CC=C3S2
InChI: InChI=1S/C11H12N2OS3/c1-2-4-10-9(3-1)12-11(15-10)16-17-13-5-7-14-8-6-13/h1-4H,5-8H2
Instrument: TripleTOF 5600 SCIEX
Instrument type: LC-ESI-QTOF
Ms type: MS2
Ion mode: POSITIVE
Collision energy: 60
Fragmentation mode: CID
Ionization: ESI
Column name: Zorbax Eclipse Plus C18 2.1 mm x 150 mm, 3.5 um, Agilent
Retention time: 13.833 min
Precursor m/z: 285.0185
Precursor type: [M+H]+
m/z	relative intensity
56.0581	123
58.0771	27
59.0067	34
59.9992	999
74.0116	41
74.0677	34
86.0631	150
88.0259	451
89.008	61
90.0404	218
91.0438	41
96.0053	34
102.0345	34
108.0043	95
109.0119	109
118.0329	732
122.0051	54
123.0133	61
124.0234	82
134.0069	54
135.0134	177
136.0205	34
139.974	95
165.9777	184
166.9842	383
167.9938	198
