Mass spectrum: Aldicarb; LC-ESI-QTOF; MS2; 120 V
Name: Aldicarb
Class: Insecticide
Formula: C7H14N2O2S
Exact mass: 190.0776
SMILES: CC(C)(C=NOC(=O)NC)SC
InChI: InChI=1S/C7H14N2O2S/c1-7(2,12-4)5-9-11-6(10)8-3/h5H,1-4H3,(H,8,10)
Instrument: TripleTOF 6600 SCIEX
Instrument type: LC-ESI-QTOF
Ms type: MS2
Ion mode: POSITIVE
Collision energy: 120
Fragmentation mode: CID
Ionization: ESI
Column name: Zorbax Eclipse Plus C18 2.1 mm x 150 mm, 3.5 um, Agilent
Retention time: 8.404 min
Precursor m/z: 213.0668
Precursor type: [M+Na]+
m/z	relative intensity
37.0078	77
38.0159	100
39.0234	255
44.9795	193
46.996	61
57.9874	185
58.9956	999
