Mass spectrum: Verapamil; LC-ESI-QTOF; MS2; 70 V
Name: Verapamil
Class: Pharmaceutical
Formula: C27H38N2O4
Exact mass: 454.2832
SMILES: CC(C)C(CCCN(C)CCc1ccc(c(c1)OC)OC)(C#N)c2ccc(c(c2)OC)OC
InChI: InChI=1S/C27H38N2O4/c1-20(2)27(19-28,22-10-12-24(31-5)26(18-22)33-7)14-8-15-29(3)16-13-21-9-11-23(30-4)25(17-21)32-6/h9-12,17-18,20H,8,13-16H2,1-7H3
Instrument: TripleTOF 5600 SCIEX
Instrument type: LC-ESI-QTOF
Ms type: MS2
Ion mode: POSITIVE
Collision energy: 70
Fragmentation mode: CID
Ionization: ESI
Column name: Zorbax Eclipse Plus C18 2.1 mm x 150 mm, 3.5 um, Agilent
Retention time: 8.542 min
Precursor m/z: 455.2904
Precursor type: [M+H]+
m/z	relative intensity
58.0704	38
77.0421	130
78.0492	19
79.0576	185
84.0826	26
90.0483	27
91.0564	138
92.063	14
93.071	22
102.0472	10
103.0555	203
104.0627	52
105.0709	278
107.0499	152
108.0577	15
109.0646	13
115.0542	11
118.0418	105
119.0496	116
120.0573	83
121.0651	177
122.0726	39
122.0958	11
123.0438	12
124.0515	13
131.0492	59
132.0564	14
133.065	183
134.0728	295
135.0444	338
135.0771	36
136.0515	29
137.06	35
138.0672	30
139.0749	12
146.0722	35
149.0598	63
150.068	999
151.0755	119
152.0832	11
160.0838	16
164.0827	10
165.0914	403
172.0746	15
174.0917	11
176.0716	21
177.0908	47
187.0986	20
191.1066	18
202.0863	31
203.0927	14
214.1227	12
218.1177	19
