Mass spectrum: Oxytetracycline; LC-ESI-QTOF; MS2; 90 V
Name: Oxytetracycline
Class: Pharmaceutical
Formula: C22H24N2O9
Exact mass: 460.1482
SMILES: CC1(C2C(C3C(C(=O)C(=C(C3(C(=O)C2=C(C4=C1C=CC=C4O)O)O)O)C(=O)N)N(C)C)O)O
InChI: InChI=1S/C22H24N2O9/c1-21(32)7-5-4-6-8(25)9(7)15(26)10-12(21)17(28)13-14(24(2)3)16(27)11(20(23)31)19(30)22(13,33)18(10)29/h4-6,12-14,17,25-26,28,30,32-33H,1-3H3,(H2,23,31)
Instrument: TripleTOF 5600 SCIEX
Instrument type: LC-ESI-QTOF
Ms type: MS2
Ion mode: POSITIVE
Collision energy: 90
Fragmentation mode: CID
Ionization: ESI
Column name: Zorbax Eclipse Plus C18 2.1 mm x 150 mm, 3.5 um, Agilent
Retention time: 5.586 min
Precursor m/z: 461.1555
Precursor type: [M+H]+
m/z	relative intensity
55.0214	20
58.0683	57
69.0022	26
70.0671	47
77.0403	62
79.0209	26
86.062	20
91.0568	52
95.0132	20
98.0619	135
115.053	167
117.0684	88
123.0063	31
126.0483	57
127.0545	967
128.0616	402
129.0688	151
131.0505	26
137.0218	20
139.054	62
140.063	26
141.0686	67
144.0598	57
145.0643	209
151.0557	26
152.0607	130
153.0173	26
153.0682	62
155.048	313
155.0872	26
156.0571	47
157.0626	109
160.0476	20
163.0515	41
164.0613	52
165.0696	219
167.0513	26
167.0872	20
168.0561	167
169.0639	36
171.045	26
171.0815	41
173.0606	47
176.0639	57
177.0669	52
178.0794	94
179.0829	20
180.0592	31
181.0624	99
182.0701	36
183.0794	41
184.0517	999
185.0592	78
186.0318	47
186.0779	20
187.0383	88
187.0732	31
189.071	73
192.0539	41
193.0636	31
195.0785	41
196.0519	120
197.0614	62
198.0696	41
201.0533	203
205.065	52
208.0477	31
209.0654	20
210.0659	41
211.0382	31
211.0753	104
212.0464	674
213.0546	94
214.058	26
221.0582	36
223.0753	47
224.0444	36
225.0512	20
226.0619	67
233.0589	20
236.0499	41
237.0566	41
238.0632	47
239.0335	31
239.0696	36
240.0424	99
242.0569	94
250.0579	26
252.049	26
254.0547	57
258.0511	47
265.0501	52
266.0592	52
268.0351	151
321.0445	31
