Mass spectrum: Benzyl-(1-methoxycarbonyl-undecyl)-dimethyl-ammonium; LC-ESI-QTOF; MS2; 60 V
Name: Benzyl-(1-methoxycarbonyl-undecyl)-dimethyl-ammonium
Formula: [C22H38NO2]+
Exact mass: 348.2897
SMILES: CCCCCCCCCCC(C(=O)OC)[N+](C)(C)Cc1ccccc1
InChI: InChI=1S/C22H38NO2/c1-5-6-7-8-9-10-11-15-18-21(22(24)25-4)23(2,3)19-20-16-13-12-14-17-20/h12-14,16-17,21H,5-11,15,18-19H2,1-4H3/q+1
Instrument: TripleTOF 5600 SCIEX
Instrument type: LC-ESI-QTOF
Ms type: MS2
Ion mode: POSITIVE
Collision energy: 60
Fragmentation mode: CID
Ionization: ESI
Column name: Zorbax Eclipse Plus C18 2.1 mm x 150 mm, 3.5 um, Agilent
Retention time: 11.242 min
Precursor m/z: 348.2897
Precursor type: [M]+
m/z	relative intensity
65.0421	64
91.0556	999
116.0699	79
198.2205	60
