Mass spectrum: O-desmethyl-metoprolol; LC-ESI-QTOF; MS2; 30 V
Name: O-desmethyl-metoprolol
Class: Pharmaceutical; Metabolite; Transformation_product
Formula: C14H23NO3
Exact mass: 253.1678
SMILES: CC(C)NCC(O)COc1ccc(CCO)cc1
InChI: InChI=1S/C14H23NO3/c1-11(2)15-9-13(17)10-18-14-5-3-12(4-6-14)7-8-16/h3-6,11,13,15-17H,7-10H2,1-2H3
Instrument: TripleTOF 5600 SCIEX
Instrument type: LC-ESI-QTOF
Ms type: MS2
Ion mode: POSITIVE
Collision energy: 30
Fragmentation mode: CID
Ionization: ESI
Column name: Zorbax Eclipse Plus C18 2.1 mm x 150 mm, 3.5 um, Agilent
Retention time: 5.112 min
Precursor m/z: 254.1751
Precursor type: [M+H]+
m/z	relative intensity
43.0272	15
56.0567	228
58.0707	42
72.0847	356
74.0635	283
77.0415	37
79.0578	18
91.0561	90
93.0708	13
98.0972	331
100.1132	17
103.0548	32
105.0701	101
115.0534	18
116.0628	16
116.1067	387
117.0701	28
119.0855	12
121.0645	176
129.0688	32
131.0519	13
131.0854	146
133.0646	445
135.0795	23
141.0698	58
144.0565	65
147.0805	41
148.0752	96
149.0692	64
151.0754	265
159.0804	514
165.0903	45
176.1058	71
177.0907	843
212.1287	210
218.1527	16
236.1636	36
254.1752	999
