Mass spectrum: 3,4-Methylenedioxymethamphetamine; LC-ESI-QTOF; MS2; 130 V
Name: 3,4-Methylenedioxymethamphetamine
Class: Pharmaceutical
Formula: C11H15NO2
Exact mass: 193.1103
SMILES: CC(CC1=CC2=C(C=C1)OCO2)NC
InChI: InChI=1S/C11H15NO2/c1-8(12-2)5-9-3-4-10-11(6-9)14-7-13-10/h3-4,6,8,12H,5,7H2,1-2H3
Instrument: TripleTOF 6600 SCIEX
Instrument type: LC-ESI-QTOF
Ms type: MS2
Ion mode: POSITIVE
Collision energy: 130
Fragmentation mode: CID
Ionization: ESI
Column name: Zorbax Eclipse Plus C18 2.1 mm x 150 mm, 3.5 um, Agilent
Retention time: 5.421 min
Precursor m/z: 194.1176
Precursor type: [M+H]+
m/z	relative intensity
35.9988	51
37.0068	202
38.0032	17
38.0144	163
39.0226	228
42.0331	20
44.049	9
49.0066	227
50.0146	999
51.0224	525
53.0013	9
59.9983	28
61.0064	145
62.0147	205
63.022	152
73.0053	33
74.0142	102
75.0214	11
77.0374	23
89.0387	12
