Mass spectrum: Loratadine; LC-ESI-QTOF; MS2; 80 V
Name: Loratadine
Class: Pharmaceutical
Formula: C22H23ClN2O2
Exact mass: 382.1448
SMILES: CCOC(=O)N1CCC(=C2C3=C(CCC4=C2N=CC=C4)C=C(C=C3)Cl)CC1
InChI: InChI=1S/C22H23ClN2O2/c1-2-27-22(26)25-12-9-15(10-13-25)20-19-8-7-18(23)14-17(19)6-5-16-4-3-11-24-21(16)20/h3-4,7-8,11,14H,2,5-6,9-10,12-13H2,1H3
Instrument: TripleTOF 6600 SCIEX
Instrument type: LC-ESI-QTOF
Ms type: MS2
Ion mode: POSITIVE
Collision energy: 80
Fragmentation mode: CID
Ionization: ESI
Column name: Zorbax Eclipse Plus C18 2.1 mm x 150 mm, 3.5 um, Agilent
Retention time: 9.41 min
Precursor m/z: 383.1521
Precursor type: [M+H]+
m/z	relative intensity
80.0488	13
82.0644	20
115.0539	10
117.0576	13
130.0642	19
154.0632	16
164.0615	10
165.0679	33
167.0723	22
178.0627	24
179.0723	139
180.0794	16
189.0697	38
190.063	24
191.0715	63
192.0806	86
193.0874	102
201.0678	14
202.077	58
203.0725	26
203.0847	19
204.0798	79
205.0852	11
213.033	13
214.0412	205
214.0624	10
215.0721	20
215.0834	27
216.08	387
217.0877	528
218.0955	120
219.1024	44
226.0407	36
227.0474	24
227.0753	19
228.0562	93
228.0801	255
229.0877	253
230.0952	888
231.1032	494
232.1106	111
238.0415	95
240.0578	13
240.08	33
241.0877	265
242.0959	673
243.1036	999
244.1114	589
245.119	281
246.1262	38
250.0403	63
251.049	522
252.0568	467
253.0649	29
254.0944	33
255.1026	16
256.1108	261
257.119	92
258.1271	425
259.1343	20
262.0407	11
264.0565	217
265.0655	178
266.0721	790
267.0793	63
275.0496	13
276.0579	33
277.0627	76
278.0715	177
279.0794	48
280.0884	237
290.0724	27
292.0866	32
