Mass spectrum: 4-Acetamidobenzoic acid; LC-ESI-QTOF; MS2; 40 V
Name: 4-Acetamidobenzoic acid
Class: Pharmaceutical
Formula: C9H9NO3
Exact mass: 179.0582
SMILES: CC(=O)NC1=CC=C(C=C1)C(=O)O
InChI: InChI=1S/C9H9NO3/c1-6(11)10-8-4-2-7(3-5-8)9(12)13/h2-5H,1H3,(H,10,11)(H,12,13)
Instrument: TripleTOF 6600 SCIEX
Instrument type: LC-ESI-QTOF
Ms type: MS2
Ion mode: POSITIVE
Collision energy: 40
Fragmentation mode: CID
Ionization: ESI
Column name: Zorbax Eclipse Plus C18 2.1 mm x 150 mm, 3.5 um, Agilent
Retention time: 5.59 min
Precursor m/z: 180.0655
Precursor type: [M+H]+
m/z	relative intensity
39.0233	12
43.0178	231
50.0151	16
51.0229	144
65.0387	44
67.0544	16
77.0385	999
92.0491	83
93.057	112
94.0649	639
105.0447	41
120.0431	48
