Mass spectrum: Climbazole; LC-ESI-QTOF; MS2; 60 V
Name: Climbazole
Class: Pharmaceutical; Personal_care_product
Formula: C15H17ClN2O2
Exact mass: 292.0979
SMILES: CC(C)(C)C(=O)C(Oc1ccc(Cl)cc1)n2ccnc2
InChI: InChI=1S/C15H17ClN2O2/c1-15(2,3)13(19)14(18-9-8-17-10-18)20-12-6-4-11(16)5-7-12/h4-10,14H,1-3H3
Instrument: TripleTOF 5600 SCIEX
Instrument type: LC-ESI-QTOF
Ms type: MS2
Ion mode: POSITIVE
Collision energy: 60
Fragmentation mode: CID
Ionization: ESI
Column name: Zorbax Eclipse Plus C18 2.1 mm x 150 mm, 3.5 um, Agilent
Retention time: 8.761 min
Precursor m/z: 293.1051
Precursor type: [M+H]+
m/z	relative intensity
55.0595	189
57.0758	422
65.0414	69
67.0589	11
69.0477	33
69.073	219
70.0813	113
72.9864	138
74.0173	67
75.0255	270
77.0412	204
78.0488	15
81.0464	121
82.0539	43
84.9828	10
91.0547	121
93.0353	59
94.042	109
99.0004	999
99.0442	13
102.0476	15
107.0491	11
109.0385	106
110.9994	814
113.0149	94
119.0473	13
120.0563	28
125.0151	16
126.9938	262
128.0015	10
128.0636	10
129.0087	108
129.0253	13
139.0049	74
141.0094	160
147.0798	13
155.0256	30
175.0719	20
