Mass spectrum: Cocaethylene; LC-ESI-QTOF; MS2; 80 V
Name: Cocaethylene
Class: Metabolite
Formula: C18H23NO4
Exact mass: 317.1627
SMILES: CCOC(=O)C1C2CCC(N2C)CC1OC(=O)C3=CC=CC=C3
InChI: InChI=1S/C18H23NO4/c1-3-22-18(21)16-14-10-9-13(19(14)2)11-15(16)23-17(20)12-7-5-4-6-8-12/h4-8,13-16H,3,9-11H2,1-2H3
Instrument: TripleTOF 6600 SCIEX
Instrument type: LC-ESI-QTOF
Ms type: MS2
Ion mode: POSITIVE
Collision energy: 80
Fragmentation mode: CID
Ionization: ESI
Column name: Zorbax Eclipse Plus C18 2.1 mm x 150 mm, 3.5 um, Agilent
Retention time: 7.013 min
Precursor m/z: 318.17
Precursor type: [M+H]+
m/z	relative intensity
39.0241	36
41.0398	47
42.0353	51
44.0506	13
50.0163	37
51.024	174
53.0393	15
55.0188	13
55.0551	36
56.0506	20
57.0586	15
65.0396	149
67.043	145
67.054	77
68.0505	144
70.0665	9
77.0398	999
78.0343	15
79.0555	28
80.0504	39
81.0577	11
81.0706	11
82.0662	521
83.0497	28
83.0738	39
91.0549	208
93.034	11
93.0594	9
94.0657	142
96.0802	11
105.0339	83
106.0661	20
107.0737	17
108.0816	18
117.0576	15
119.05	17
