Mass spectrum: Thioridazine; LC-ESI-QTOF; MS2; 60 V
Name: Thioridazine
Class: Pharmaceutical
Formula: C21H26N2S2
Exact mass: 370.1537
SMILES: CN1CCCCC1CCN2C3=CC=CC=C3SC4=C2C=C(C=C4)SC
InChI: InChI=1S/C21H26N2S2/c1-22-13-6-5-7-16(22)12-14-23-18-8-3-4-9-20(18)25-21-11-10-17(24-2)15-19(21)23/h3-4,8-11,15-16H,5-7,12-14H2,1-2H3
Instrument: TripleTOF 5600 SCIEX
Instrument type: LC-ESI-QTOF
Ms type: MS2
Ion mode: POSITIVE
Collision energy: 60
Fragmentation mode: CID
Ionization: ESI
Column name: Zorbax Eclipse Plus C18 2.1 mm x 150 mm, 3.5 um, Agilent
Retention time: 9.472 min
Precursor m/z: 371.161
Precursor type: [M+H]+
m/z	relative intensity
42.0434	16
58.0718	98
68.0538	10
70.0702	220
84.0838	28
96.0826	15
98.0989	999
126.1287	341
167.0726	44
179.073	76
198.0368	17
199.0444	34
210.0376	35
211.0457	162
212.0531	17
225.0611	13
226.0689	147
230.0082	22
242.0095	11
243.017	54
258.0421	16
