Mass spectrum: C-desmethyl-metoprolol; LC-ESI-QTOF; MS2; 40 V
Name: C-desmethyl-metoprolol
Formula: C14H23NO3
Exact mass: 253.1678
SMILES: CCNCC(COC1=CC=C(C=C1)CCOC)O
InChI: InChI=1S/C14H23NO3/c1-3-15-10-13(16)11-18-14-6-4-12(5-7-14)8-9-17-2/h4-7,13,15-16H,3,8-11H2,1-2H3
Instrument: TripleTOF 5600 SCIEX
Instrument type: LC-ESI-QTOF
Ms type: MS2
Ion mode: POSITIVE
Collision energy: 40
Fragmentation mode: CID
Ionization: ESI
Column name: Zorbax Eclipse Plus C18 2.1 mm x 150 mm, 3.5 um, Agilent
Retention time: 5.422 min
Precursor m/z: 254.1751
Precursor type: [M+H]+
m/z	relative intensity
42.034	31
43.0183	18
44.0503	32
45.0341	10
55.0184	24
56.0498	127
57.0696	37
58.0659	999
65.0392	15
67.0547	43
70.0656	44
72.0813	22
77.0395	198
79.055	160
84.0815	622
86.0969	63
91.0548	239
93.0718	25
102.0499	13
102.0923	519
103.0549	396
104.0643	17
105.0706	396
107.0507	12
115.0553	84
116.0627	46
117.0703	27
119.049	13
120.059	25
121.065	98
128.0609	15
129.0704	48
131.0493	22
131.0857	84
133.0656	538
135.0818	93
141.0694	51
144.0577	110
159.0809	113
161.0952	10
163.0881	70
165.0914	22
191.1127	18
