Mass spectrum: Phloretin; LC-ESI-QTOF; MS2; 30 V
Name: Phloretin
Class: Pharmaceutical
Formula: C15H14O5
Exact mass: 274.0841
SMILES: Oc1ccc(CCC(=O)c2c(O)cc(O)cc2O)cc1
InChI: InChI=1S/C15H14O5/c16-10-4-1-9(2-5-10)3-6-12(18)15-13(19)7-11(17)8-14(15)20/h1-2,4-5,7-8,16-17,19-20H,3,6H2
Instrument: TripleTOF 5600 SCIEX
Instrument type: LC-ESI-QTOF
Ms type: MS2
Ion mode: POSITIVE
Collision energy: 30
Fragmentation mode: CID
Ionization: ESI
Column name: Zorbax Eclipse Plus C18 2.1 mm x 150 mm, 3.5 um, Agilent
Retention time: 8.766 min
Precursor m/z: 275.0914
Precursor type: [M+H]+
m/z	relative intensity
77.0413	19
107.0497	999
127.0401	14
151.0385	26
169.0488	126
