Mass spectrum: Benzenesulfonic acid; LC-ESI-QTOF; MS2; 80 V
Name: Benzenesulfonic acid
Class: Industrial_process; Transformation_product
Formula: C6H6O3S
Exact mass: 158.0038
InChI: InChI=1S/C6H6O3S/c7-10(8,9)6-4-2-1-3-5-6/h1-5H,(H,7,8,9)
Instrument: TripleTOF 6600 SCIEX
Instrument type: LC-ESI-QTOF
Ms type: CID
Ion mode: NEGATIVE
Collision energy: 80
Ionization: ESI
Column name: Zorbax Eclipse Plus C18 2.1 mm x 150 mm, 3.5 um, Agilent
Retention time: 4.342 min
Precursor m/z: 156.9965
Precursor type: [M-H]-
m/z	relative intensity
63.9619	199
79.9571	999
