Mass spectrum: Sildenafil; LC-ESI-QTOF; MS2; 110 V
Name: Sildenafil
Class: Pharmaceutical
Formula: C22H30N6O4S
Exact mass: 474.2049
SMILES: CCCC1=NN(C2=C1NC(=NC2=O)C3=C(C=CC(=C3)S(=O)(=O)N4CCN(CC4)C)OCC)C
InChI: InChI=1S/C22H30N6O4S/c1-5-7-17-19-20(27(4)25-17)22(29)24-21(23-19)16-14-15(8-9-18(16)32-6-2)33(30,31)28-12-10-26(3)11-13-28/h8-9,14H,5-7,10-13H2,1-4H3,(H,23,24,29)
Instrument: TripleTOF 5600 SCIEX
Instrument type: LC-ESI-QTOF
Ms type: MS2
Ion mode: POSITIVE
Collision energy: 110
Fragmentation mode: CID
Ionization: ESI
Column name: Zorbax Eclipse Plus C18 2.1 mm x 150 mm, 3.5 um, Agilent
Retention time: 7.283 min
Precursor m/z: 475.2122
Precursor type: [M+H]+
m/z	relative intensity
42.0498	53
43.0533	12
44.0615	16
56.0582	98
58.074	999
66.0435	10
68.0424	20
69.0559	14
70.0704	55
77.0436	18
78.0381	18
80.0529	16
81.0487	12
83.07	12
84.0705	16
89.0374	12
90.0378	20
91.0509	16
92.0493	12
93.0463	14
95.0612	12
97.0806	14
99.0951	16
100.1055	10
101.0407	18
102.0362	24
103.0442	28
104.0508	32
105.0475	22
114.036	16
115.0507	16
116.0448	38
117.0447	34
118.0538	14
119.0467	20
120.0484	20
127.0424	14
128.0517	51
129.0458	49
130.0547	22
131.0588	16
132.0501	12
136.0535	46
140.0495	20
141.0463	12
142.0512	24
143.0583	51
144.0311	12
144.0593	16
145.0409	16
145.0712	10
153.0468	10
154.0529	18
154.0642	14
155.0609	61
156.0566	57
156.0777	12
157.0406	22
157.0638	28
158.0471	10
167.0609	12
168.0692	10
169.0661	26
170.0727	63
171.0645	24
171.0817	28
179.0627	14
180.055	18
181.0591	18
182.0593	12
182.0744	20
183.0569	44
184.0485	28
184.0816	34
185.0823	24
186.0645	30
193.0644	12
194.0701	16
195.064	24
196.0727	26
197.083	55
198.064	42
199.0625	10
199.0794	12
208.0511	16
210.0525	10
211.0582	51
212.0624	12
213.0644	10
213.0808	10
224.0735	24
225.0744	126
226.0913	22
227.0914	28
237.0733	12
238.0859	12
239.0947	24
253.0724	36
