Mass spectrum: Propranolol; LC-ESI-QTOF; MS2; 40 V
Name: Propranolol
Class: Pharmaceutical
Formula: C16H21NO2
Exact mass: 259.1572
SMILES: CC(C)NCC(O)COc1cccc2ccccc12
InChI: InChI=1S/C16H21NO2/c1-12(2)17-10-14(18)11-19-16-9-5-7-13-6-3-4-8-15(13)16/h3-9,12,14,17-18H,10-11H2,1-2H3
Instrument: TripleTOF 5600 SCIEX
Instrument type: LC-ESI-QTOF
Ms type: MS2
Ion mode: POSITIVE
Collision energy: 40
Fragmentation mode: CID
Ionization: ESI
Column name: Zorbax Eclipse Plus C18 2.1 mm x 150 mm, 3.5 um, Agilent
Retention time: 7.356 min
Precursor m/z: 260.1645
Precursor type: [M+H]+
m/z	relative intensity
44.0578	41
56.0559	718
58.0706	547
60.0851	17
72.0844	509
74.0638	678
75.0716	9
77.041	60
84.0831	69
86.0981	42
91.0561	28
98.0974	350
100.1126	225
101.0404	11
115.0545	310
116.0652	11
116.1077	761
117.0696	63
127.0547	602
128.0626	396
129.0707	700
139.055	15
140.0648	11
141.0697	212
143.0489	53
144.0568	30
145.0647	163
151.0529	12
152.0623	79
153.0704	523
154.0778	172
155.0574	41
155.0857	999
157.0652	692
164.0626	14
165.0705	526
168.0567	131
171.08	36
181.0655	39
182.0728	31
183.0809	750
218.117	95
242.1546	14
260.1651	651
