Mass spectrum: Abacavir carboxylic acid; LC-ESI-QTOF; MS2; 50 V
Name: Abacavir carboxylic acid
Class: Pharmaceutical; Metabolite; Transformation_product
Formula: C14H16N6O2
Exact mass: 300.1335
SMILES: C1CC1NC2=NC(=NC3=C2N=CN3C4CC(C=C4)C(=O)O)N
InChI: InChI=1S/C14H16N6O2/c15-14-18-11(17-8-2-3-8)10-12(19-14)20(6-16-10)9-4-1-7(5-9)13(21)22/h1,4,6-9H,2-3,5H2,(H,21,22)(H3,15,17,18,19)
Instrument: TripleTOF 5600 SCIEX
Instrument type: LC-ESI-QTOF
Ms type: MS2
Ion mode: POSITIVE
Collision energy: 50
Fragmentation mode: CID
Ionization: ESI
Column name: Zorbax Eclipse Plus C18 2.1 mm x 150 mm, 3.5 um, Agilent
Retention time: 5.194 min
Precursor m/z: 301.1408
Precursor type: [M+H]+
m/z	relative intensity
55.059	17
58.0696	90
65.0429	113
67.058	229
80.0272	12
82.0423	20
83.0508	91
92.0251	17
93.0341	53
94.0402	10
95.0604	23
105.0442	19
107.0352	99
108.0433	88
109.0512	242
111.0429	29
119.0355	62
120.0557	36
121.0506	13
122.0707	45
123.0529	12
132.0549	36
133.043	44
134.0465	734
135.0553	13
136.0606	38
147.0657	86
148.0615	21
149.0817	144
150.0652	999
151.0726	60
157.0516	19
162.0767	11
163.0718	41
164.0919	95
173.0684	22
174.0775	565
175.0717	106
191.104	555
