Mass spectrum: 1,4-Dimethoxybenzene; LC-ESI-QTOF; MS2; 30 V
Name: 1,4-Dimethoxybenzene
Class: Food_additive
Formula: C8H10O2
Exact mass: 138.0681
SMILES: COc1ccc(OC)cc1
InChI: InChI=1S/C8H10O2/c1-9-7-3-5-8(10-2)6-4-7/h3-6H,1-2H3
Instrument: TripleTOF 5600 SCIEX
Instrument type: LC-ESI-QTOF
Ms type: MS2
Ion mode: POSITIVE
Collision energy: 30
Fragmentation mode: CID
Ionization: ESI
Column name: Zorbax Eclipse Plus C18 2.1 mm x 150 mm, 3.5 um, Agilent
Retention time: 10.084 min
Precursor m/z: 139.0754
Precursor type: [M+H]+
m/z	relative intensity
53.0445	137
65.0424	114
66.0514	114
77.0413	688
78.0502	424
79.0593	91
81.0361	378
92.0269	333
93.0362	80
94.042	91
95.0506	103
96.0574	654
107.0494	57
108.0558	780
109.0281	999
109.0642	45
123.0456	103
124.0508	941
139.0769	206
