Mass spectrum: Chlorpropham; LC-ESI-QTOF; MS2; 60 V
Name: Chlorpropham
Class: Herbicide; Biocide; Rodenticide
Formula: C10H12ClNO2
Exact mass: 213.0557
SMILES: CC(C)OC(=O)NC1=CC(=CC=C1)Cl
InChI: InChI=1S/C10H12ClNO2/c1-7(2)14-10(13)12-9-5-3-4-8(11)6-9/h3-7H,1-2H3,(H,12,13)
Instrument: TripleTOF 5600 SCIEX
Instrument type: LC-ESI-QTOF
Ms type: MS2
Ion mode: POSITIVE
Collision energy: 60
Fragmentation mode: CID
Ionization: ESI
Column name: Zorbax Eclipse Plus C18 2.1 mm x 150 mm, 3.5 um, Agilent
Retention time: 12.592 min
Precursor m/z: 214.0629
Precursor type: [M+H]+
m/z	relative intensity
65.038	118
66.0454	214
72.9829	118
74.0142	142
75.0232	499
77.0379	285
92.0502	118
93.0569	999
98.9988	642
110.9999	618
126.0088	237
