Mass spectrum: Citalopram-N-oxide; LC-ESI-QTOF; MS2; 40 V
Name: Citalopram-N-oxide
Class: Metabolite; Pharmaceutical; Transformation_product
Formula: C20H21FN2O2
Exact mass: 340.1587
SMILES: C[N+](C)(CCCC1(C2=C(CO1)C=C(C=C2)C#N)C3=CC=C(C=C3)F)[O-]
InChI: InChI=1S/C20H21FN2O2/c1-23(2,24)11-3-10-20(17-5-7-18(21)8-6-17)19-9-4-15(13-22)12-16(19)14-25-20/h4-9,12H,3,10-11,14H2,1-2H3
Instrument: TripleTOF 5600 SCIEX
Instrument type: LC-ESI-QTOF
Ms type: MS2
Ion mode: POSITIVE
Collision energy: 40
Fragmentation mode: CID
Ionization: ESI
Column name: Zorbax Eclipse Plus C18 2.1 mm x 150 mm, 3.5 um, Agilent
Retention time: 7.958 min
Precursor m/z: 341.166
Precursor type: [M+H]+
m/z	relative intensity
58.0706	17
83.031	14
89.0398	10
109.0459	999
116.0501	236
123.0242	31
129.0698	23
140.0496	16
144.0439	20
156.0806	56
166.0653	172
215.0853	59
218.0589	23
220.0657	45
221.0634	135
222.0709	66
227.073	134
233.0747	30
234.0714	493
235.0907	70
236.0865	15
238.0662	56
240.0802	35
241.0877	39
242.0964	100
245.0733	22
246.0724	84
247.0793	403
260.0869	38
261.0946	46
262.1028	505
