Mass spectrum: Triadimefon; LC-ESI-QTOF; MS2; 90 V
Name: Triadimefon
Class: Fungicide; Transformation_product
Formula: C14H16ClN3O2
Exact mass: 293.0931
SMILES: CC(C)(C)C(=O)C(N1C=NC=N1)OC2=CC=C(C=C2)Cl
InChI: InChI=1S/C14H16ClN3O2/c1-14(2,3)12(19)13(18-9-16-8-17-18)20-11-6-4-10(15)5-7-11/h4-9,13H,1-3H3
Instrument: TripleTOF 5600 SCIEX
Instrument type: LC-ESI-QTOF
Ms type: MS2
Ion mode: POSITIVE
Collision energy: 90
Fragmentation mode: CID
Ionization: ESI
Column name: Zorbax Eclipse Plus C18 2.1 mm x 150 mm, 3.5 um, Agilent
Retention time: 12.319 min
Precursor m/z: 294.1004
Precursor type: [M+H]+
m/z	relative intensity
37.0077	34
38.0148	37
39.0233	254
41.0386	292
42.0462	14
48.9835	20
50.0152	43
51.0232	69
55.0549	141
57.0702	306
62.015	14
63.0232	57
65.0386	110
66.0471	20
69.0704	40
70.0403	46
70.0783	23
72.9844	509
73.0078	34
74.0159	431
75.0235	999
76.0325	28
77.0392	162
78.0466	26
82.0407	14
84.9836	112
89.0399	17
91.0552	81
93.0337	23
94.0414	66
99	573
100.006	17
101.0396	14
102.0467	28
103.0557	14
111.0002	495
125.0154	14
126.9932	14
127.0575	11
128.0014	28
128.062	17
131.0497	14
139.0062	46
141.0125	17
