Mass spectrum: Cyproconazole; LC-ESI-QTOF; MS2; 150 V
Name: Cyproconazole
Class: Fungicide
Formula: C15H18ClN3O
Exact mass: 291.1138
SMILES: CC(C1CC1)C(CN2C=NC=N2)(C3=CC=C(C=C3)Cl)O
InChI: InChI=1S/C15H18ClN3O/c1-11(12-2-3-12)15(20,8-19-10-17-9-18-19)13-4-6-14(16)7-5-13/h4-7,9-12,20H,2-3,8H2,1H3
Instrument: TripleTOF 6600 SCIEX
Instrument type: LC-ESI-QTOF
Ms type: MS2
Ion mode: POSITIVE
Collision energy: 150
Fragmentation mode: CID
Ionization: ESI
Column name: Zorbax Eclipse Plus C18 2.1 mm x 150 mm, 3.5 um, Agilent
Retention time: 11.30515 min
Precursor m/z: 292.1211
Precursor type: [M+H]+
m/z	relative intensity
35.9966	30
37.0042	157
38.0117	164
39.0195	365
41.035	11
42.0173	117
43.0253	603
46.9639	104
48.9794	189
49.0029	74
50.0104	326
51.0181	178
59.9936	32
60.9775	13
61.0016	268
62.0093	619
63.0171	999
64.0245	57
65.0323	18
70.0333	370
72.9774	568
73.0003	90
74.0082	760
75.0159	208
76.0255	11
77.0311	20
84.9759	50
89.0303	548
90.0383	16
98.9907	53
102.0379	16
