Mass spectrum: 2,2,4-Trimethyl-1,2-dihydroquinoline; LC-ESI-QTOF; MS2; 120 V
Name: 2,2,4-Trimethyl-1,2-dihydroquinoline
Class: Industrial_process
Formula: C12H15N
Exact mass: 173.1204
SMILES: CC1=CC(NC2=CC=CC=C12)(C)C
InChI: InChI=1S/C12H15N/c1-9-8-12(2,3)13-11-7-5-4-6-10(9)11/h4-8,13H,1-3H3
Instrument: TripleTOF 6600 SCIEX
Instrument type: LC-ESI-QTOF
Ms type: MS2
Ion mode: POSITIVE
Collision energy: 120
Fragmentation mode: CID
Ionization: ESI
Column name: Zorbax Eclipse Plus C18 2.1 mm x 150 mm, 3.5 um, Agilent
Retention time: 12.497 min
Precursor m/z: 174.1277
Precursor type: [M+H]+
m/z	relative intensity
35.9991	62
37.0069	422
38.0031	13
38.0145	315
39.0226	754
41.0374	13
42.0333	14
49.0068	143
50.0146	999
51.0224	731
52.0173	20
52.0302	11
59.9987	11
61.0065	177
62.0144	388
63.0221	446
64.0294	13
65.0376	61
73.0058	46
74.0142	337
75.022	74
76.0169	11
76.0286	11
77.0373	44
85.0057	19
86.0145	49
87.0217	20
89.0376	101
98.0135	13
113.0363	10
115.0524	25
