Mass spectrum: 6PPD-quinone; LC-ESI-QTOF; MS2; 40 V
Name: 6PPD-quinone
Class: Industrial_process
Formula: C18H22N2O2
Exact mass: 298.1681
SMILES: CC(C)CC(C)NC1=CC(=O)C(=CC1=O)NC2=CC=CC=C2
InChI: InChI=1S/C18H22N2O2/c1-12(2)9-13(3)19-15-10-18(22)16(11-17(15)21)20-14-7-5-4-6-8-14/h4-8,10-13,19-20H,9H2,1-3H3
Instrument: TripleTOF 6600 SCIEX
Instrument type: LC-ESI-QTOF
Ms type: MS2
Ion mode: POSITIVE
Collision energy: 40
Fragmentation mode: CID
Ionization: ESI
Column name: Zorbax Eclipse Plus C18 2.1 mm x 150 mm, 3.5 um, Agilent
Retention time: 13.951 min
Precursor m/z: 299.1754
Precursor type: [M+H]+
m/z	relative intensity
41.0386	11
43.0545	29
55.018	11
57.0698	11
77.0383	24
84.0435	29
93.0569	15
94.0647	22
104.049	45
115.0536	18
118.0645	27
120.0807	15
128.0487	18
142.065	27
143.0732	22
144.0802	18
146.0592	40
154.0638	27
158.082	15
159.0918	24
170.0592	70
172.0755	52
182.0581	11
187.0861	710
198.0535	13
199.0609	13
199.0857	18
200.0707	93
201.0771	22
213.102	11
214.0727	24
214.0856	11
215.0813	149
216.088	52
226.0731	13
227.0808	29
241.0974	999
243.1141	34
256.1198	95
257.1291	11
299.1746	113
