Mass spectrum: Coumaphos; LC-ESI-QTOF; MS2; 70 V
Name: Coumaphos
Class: Insecticide
Formula: C14H16ClO5PS
Exact mass: 362.0145
SMILES: CCOP(=S)(OCC)OC1=CC2=C(C=C1)C(=C(C(=O)O2)Cl)C
InChI: InChI=1S/C14H16ClO5PS/c1-4-17-21(22,18-5-2)20-10-6-7-11-9(3)13(15)14(16)19-12(11)8-10/h6-8H,4-5H2,1-3H3
Instrument: TripleTOF 6600 SCIEX
Instrument type: LC-ESI-QTOF
Ms type: MS2
Ion mode: POSITIVE
Collision energy: 70
Fragmentation mode: CID
Ionization: ESI
Column name: Zorbax Eclipse Plus C18 2.1 mm x 150 mm, 3.5 um, Agilent
Retention time: 14.049 min
Precursor m/z: 363.0218
Precursor type: [M+H]+
m/z	relative intensity
44.979	33
46.9672	22
51.0224	18
62.9626	11
63.0218	11
64.978	59
65.0376	54
68.9783	54
68.9958	24
75.0222	24
77.0377	203
78.0463	18
78.9391	69
80.9726	61
89.0379	48
90.0453	28
90.9927	26
91.0534	490
96.9497	550
98.9984	11
101.0378	57
102.0455	252
103.0534	372
104.0615	37
105.0325	13
107.0476	16
108.0022	18
109.0095	22
113.0375	11
114.0451	41
114.9599	11
115.0536	733
117.0322	16
118.0398	22
119.0483	203
120.0564	59
121.0095	82
123.0258	26
125.014	86
129.0429	44
130.0406	39
131.0485	999
132.0561	198
133.0097	33
134.0177	144
135.0254	359
136.0066	14
136.0329	35
137.0145	115
138.022	44
141.0096	20
145.0103	31
146.0166	29
146.0356	14
147.0267	334
147.0419	432
148.0345	50
148.0508	218
149.0141	207
150.0228	89
151.9941	22
153.0097	48
154.0173	26
155.0251	76
159.0435	217
161.0051	11
162.0121	76
163.0205	555
164.0285	306
165.0095	230
166.0172	198
168.9864	50
171.0028	65
175.0389	43
177.0086	28
178.9701	14
179.9788	26
180.9859	22
181.0045	72
182.0121	308
191.0162	159
191.9937	14
192.0231	24
193.0042	67
194.0119	231
195.0186	14
196.9829	69
197.99	59
207.9731	24
209.0	46
210.0071	54
211.0161	160
224.9768	39
225.9851	456
226.9639	16
226.9931	314
242.9421	20
256.9761	160
270.9387	16
272.9702	11
288.9487	22
