Mass spectrum: Cyclamate; LC-ESI-QTOF; MS2; 40 V
Name: Cyclamate
Class: Food_additive; Personal_care_product
Formula: C6H13NO3S
Exact mass: 179.0616
SMILES: C1CCC(CC1)NS(=O)(=O)O
InChI: InChI=1S/C6H13NO3S/c8-11(9,10)7-6-4-2-1-3-5-6/h6-7H,1-5H2,(H,8,9,10)
Instrument: TripleTOF 5600 SCIEX
Instrument type: LC-ESI-QTOF
Ms type: MS2
Ion mode: NEGATIVE
Collision energy: 40
Fragmentation mode: CID
Ionization: ESI
Column name: Zorbax Eclipse Plus C18 2.1 mm x 150 mm, 3.5 um, Agilent
Retention time: 5.069 min
Precursor m/z: 178.0543
Precursor type: [M-H]-
m/z	relative intensity
79.9607	999
178.0558	204
