Mass spectrum: Chlorothiazide; LC-ESI-QTOF; MS2; 50 V
Name: Chlorothiazide
Class: Pharmaceutical; Transformation_product-Metabolite
Formula: C7H6ClN3O4S2
Exact mass: 294.9488
SMILES: N[S](=O)(=O)c1cc2c(NC=N[S]2(=O)=O)cc1Cl
InChI: InChI=1S/C7H6ClN3O4S2/c8-4-1-5-7(2-6(4)16(9,12)13)17(14,15)11-3-10-5/h1-3H,(H,10,11)(H2,9,12,13)
Instrument: TripleTOF 5600 SCIEX
Instrument type: LC-ESI-QTOF
Ms type: MS2
Ion mode: POSITIVE
Collision energy: 50
Fragmentation mode: CID
Ionization: ESI
Column name: Zorbax Eclipse Plus C18 2.1 mm x 150 mm, 3.5 um, Agilent
Retention time: 5.43 min
Precursor m/z: 295.9561
Precursor type: [M+H]+
m/z	relative intensity
78.0351	88
89.0265	177
93.0456	133
96.9831	133
97.9799	444
99.9977	88
104.9556	310
106.9811	222
111.9963	177
113.9742	244
114.0124	155
117.0439	266
117.0597	88
123.9937	999
125.0008	288
129.0206	355
130.0052	244
131.9665	244
139.9889	799
141.9508	444
151.0042	155
152.015	333
154.9981	621
155.9825	799
157.0169	333
169.9443	177
187.9563	199
203.9502	111
204.9835	155
220.9771	111
