Mass spectrum: Metoprolol; LC-ESI-QTOF; MS2; 60 V
Name: Metoprolol
Class: Pharmaceutical
Formula: C15H25NO3
Exact mass: 267.1834
SMILES: CC(C)NCC(COC1=CC=C(C=C1)CCOC)O
InChI: InChI=1S/C15H25NO3/c1-12(2)16-10-14(17)11-19-15-6-4-13(5-7-15)8-9-18-3/h4-7,12,14,16-17H,8-11H2,1-3H3
Instrument: TripleTOF 6600 SCIEX
Instrument type: LC-ESI-QTOF
Ms type: MS2
Ion mode: POSITIVE
Collision energy: 60
Fragmentation mode: CID
Ionization: ESI
Column name: Zorbax Eclipse Plus C18 2.1 mm x 150 mm, 3.5 um, Agilent
Retention time: 6.14 min
Precursor m/z: 268.1907
Precursor type: [M+H]+
m/z	relative intensity
30.0337	77
39.0228	47
41.0382	110
43.0174	18
43.054	71
44.0487	13
45.0328	27
51.022	44
55.0171	14
56.049	225
58.0645	41
65.0378	53
72.0803	24
74.0591	94
77.038	999
78.0456	14
79.0533	239
84.0805	12
89.0372	11
91.0532	443
92.0615	12
93.0691	55
95.048	12
100.1099	10
102.0448	53
103.0532	532
104.0609	36
105.0428	27
105.0684	163
107.0475	17
115.0531	187
116.0603	77
117.0685	17
119.0488	27
120.0563	16
121.0637	77
127.0525	11
128.061	32
129.069	17
131.0465	24
133.0633	45
141.0662	11
144.0559	49
148.0742	12
