Mass spectrum: Isopropyl diphenyl phosphate; LC-ESI-QTOF; MS2; 40 V
Name: Isopropyl diphenyl phosphate
Formula: C15H17O4P
Exact mass: 292.0864
SMILES: CC(C)OP(=O)(OC1=CC=CC=C1)OC2=CC=CC=C2
InChI: InChI=1S/C15H17O4P/c1-13(2)17-20(16,18-14-9-5-3-6-10-14)19-15-11-7-4-8-12-15/h3-13H,1-2H3
Instrument: TripleTOF 6600 SCIEX
Instrument type: LC-ESI-QTOF
Ms type: MS2
Ion mode: POSITIVE
Collision energy: 40
Fragmentation mode: CID
Ionization: ESI
Column name: Zorbax Eclipse Plus C18 2.1 mm x 150 mm, 3.5 um, Agilent
Retention time: 12.828 min
Precursor m/z: 293.0937
Precursor type: [M+H]+
m/z	relative intensity
50.0147	17
51.0227	79
77.0382	999
95.0481	113
105.0442	27
151.0522	43
152.0613	365
153.0688	305
157.0036	33
168.0557	49
175.0144	137
215.0247	179
233.0358	69
251.0467	865
