Mass spectrum: Fipronil; LC-ESI-QTOF; MS2; 100 V
Name: Fipronil
Class: Insecticide; Biocide
Formula: C12H4Cl2F6N4OS
Exact mass: 435.9387
SMILES: C1=C(C=C(C(=C1Cl)N2C(=C(C(=N2)C#N)S(=O)C(F)(F)F)N)Cl)C(F)(F)F
InChI: InChI=1S/C12H4Cl2F6N4OS/c13-5-1-4(11(15,16)17)2-6(14)8(5)24-10(22)9(7(3-21)23-24)26(25)12(18,19)20/h1-2H,22H2
Instrument: TripleTOF 6600 SCIEX
Instrument type: LC-ESI-QTOF
Ms type: MS2
Ion mode: NEGATIVE
Collision energy: 100
Fragmentation mode: CID
Ionization: ESI
Column name: Zorbax Eclipse Plus C18 2.1 mm x 150 mm, 3.5 um, Agilent
Retention time: 13.577 min
Precursor m/z: 434.9314
Precursor type: [M-H]-
m/z	relative intensity
34.9699	367
50.0038	97
57.9755	104
74.0036	62
81.9746	69
86.0025	138
87.9995	83
90.0091	48
98.0029	166
112.0014	263
113.0148	298
136.001	124
143.0051	999
148.0064	48
154.9992	55
162.0068	27
163.0113	228
179.0035	41
181.0017	48
183.017	111
188.006	48
205.001	41
212.0051	62
232.0089	48
