Mass spectrum: Flunixin; LC-ESI-QTOF; MS2; 90 V
Name: Flunixin
Class: Pharmaceutical
Formula: C14H11F3N2O2
Exact mass: 296.0773
SMILES: CC1=C(C=CC=C1NC2=C(C=CC=N2)C(=O)O)C(F)(F)F
InChI: InChI=1S/C14H11F3N2O2/c1-8-10(14(15,16)17)5-2-6-11(8)19-12-9(13(20)21)4-3-7-18-12/h2-7H,1H3,(H,18,19)(H,20,21)
Instrument: TripleTOF 5600 SCIEX
Instrument type: LC-ESI-QTOF
Ms type: MS2
Ion mode: POSITIVE
Collision energy: 90
Fragmentation mode: CID
Ionization: ESI
Column name: Zorbax Eclipse Plus C18 2.1 mm x 150 mm, 3.5 um, Agilent
Retention time: 11.023 min
Precursor m/z: 297.0845
Precursor type: [M+H]+
m/z	relative intensity
51.0342	57
57.0231	133
59.0376	49
65.0443	20
66.0404	13
69.0215	9
74.0206	55
75.0119	17
75.0285	90
76.0249	22
77.0443	116
78.0393	144
79.0495	26
81.0192	30
83.0341	850
86.0202	26
87.0267	57
88.0182	16
88.0313	33
89.0429	224
90.0491	39
92.0406	22
93.0174	104
93.0489	18
95.0318	51
97.0121	10
98.0179	369
99.0257	738
100.0202	18
101.0411	51
102.0417	21
103.0333	19
104.0517	13
106.0234	32
106.0673	46
107.0303	96
108.0392	36
109.0468	999
111.0246	21
112.0187	16
112.0319	12
113.0157	11
113.0399	302
114.0349	123
115.0515	54
116.0504	22
117.0578	18
118.0242	11
119.0311	172
120.0272	15
123.0239	39
124.0187	27
125.0204	50
125.0387	47
126.0481	107
127.0551	454
128.0511	139
129.049	31
131.0314	92
132.038	196
133.0442	86
134.042	28
135.049	29
136.0449	22
137.0209	12
137.0389	90
138.0326	169
139.0425	171
140.0505	944
141.0181	19
141.0481	46
142.0536	33
143.0127	20
143.0288	42
144.0223	45
145.0278	109
146.0418	16
147.0343	55
148.0187	44
149.0175	16
150.0346	50
151.035	54
152.0507	83
153.0573	167
154.066	294
155.0331	19
155.0603	87
156.0337	58
157.045	233
158.0408	401
159.0481	105
160.043	39
161.0218	30
162.0277	115
163.0379	133
164.0496	275
165.044	132
166.053	232
167.0343	27
167.0612	131
168.0261	84
168.0707	12
169.0327	56
170.0299	117
171.0448	24
172.0324	9
172.0562	10
174.0348	15
174.0498	21
175.0347	55
176.0318	49
177.0453	29
178.0515	16
179.0607	342
180.0688	209
181.0254	40
181.0767	390
182.038	277
183.0446	114
184.0548	105
185.0486	65
186.0251	24
186.0598	222
187.0346	19
188.0312	115
189.0385	193
190.0469	121
191.0475	29
191.0628	22
192.0696	16
193.0314	30
194.04	13
195.0401	49
196.0406	31
197.0512	92
199.0679	22
202.0471	55
203.0488	21
207.0333	28
208.0359	124
209.0505	160
210.0572	137
211.0643	11
213.0398	28
215.0407	157
216.0498	29
217.0583	228
222.0508	10
228.0502	34
229.0582	25
235.0469	164
236.0526	68
249.0637	21
263.0448	9
