Mass spectrum: Remdesivir; LC-ESI-QTOF; MS2; 80 V
Name: Remdesivir
Class: Pharmaceutical
Formula: C27H35N6O8P
Exact mass: 602.2254
SMILES: CCC(CC)COC(=O)C(C)NP(=O)(OCC1C(C(C(O1)(C#N)C2=CC=C3N2N=CN=C3N)O)O)OC4=CC=CC=C4
InChI: InChI=1S/C27H35N6O8P/c1-4-18(5-2)13-38-26(36)17(3)32-42(37,41-19-9-7-6-8-10-19)39-14-21-23(34)24(35)27(15-28,40-21)22-12-11-20-25(29)30-16-31-33(20)22/h6-12,16-18,21,23-24,34-35H,4-5,13-14H2,1-3H3,(H,32,37)(H2,29,30,31)
Instrument: TripleTOF 6600 SCIEX
Instrument type: LC-ESI-QTOF
Ms type: MS2
Ion mode: NEGATIVE
Collision energy: 80
Fragmentation mode: CID
Ionization: ESI
Column name: Zorbax Eclipse Plus C18 2.1 mm x 150 mm, 3.5 um, Agilent
Retention time: 9.974 min
Precursor m/z: 601.2181
Precursor type: [M-H]-
m/z	relative intensity
62.9623	98
76.978	505
78.9573	999
91.028	95
93.0332	167
99.0798	70
103.9894	880
105.9685	18
119.0241	173
122.0003	215
131.9848	111
133.0511	24
133.9626	40
145.0503	23
149.9952	17
161.0458	256
170.0455	20
190.0623	26
198.031	19
206.0943	769
234.0889	67
