Mass spectrum: Azithromycin; LC-ESI-QTOF; MS2; 110 V
Name: Azithromycin
Class: Pharmaceutical
Formula: C38H72N2O12
Exact mass: 748.5085
SMILES: CC[C@H]1OC(=O)[C@H](C)[C@@H](O[C@H]2C[C@@](C)(OC)[C@@H](O)[C@H](C)O2)C(C)[C@@H](O[C@@H]3O[C@H](C)C[C@@H]([C@H]3O)N(C)C)[C@](C)(O)C[C@@H](C)CN(C)[C@H](C)[C@@H](O)[C@]1(C)O
InChI: InChI=1S/C38H72N2O12/c1-15-27-38(10,46)31(42)24(6)40(13)19-20(2)17-36(8,45)33(52-35-29(41)26(39(11)12)16-21(3)48-35)22(4)30(23(5)34(44)50-27)51-28-18-37(9,47-14)32(43)25(7)49-28/h20-33,35,41-43,45-46H,15-19H2,1-14H3/t20-,21-,22?,23-,24-,25+,26+,27-,28+,29-,30+,31-,32+,33-,35+,36-,37-,38-/m1/s1
Instrument: TripleTOF 5600 SCIEX
Instrument type: LC-ESI-QTOF
Ms type: MS2
Ion mode: POSITIVE
Collision energy: 110
Fragmentation mode: CID
Ionization: ESI
Column name: Zorbax Eclipse Plus C18 2.1 mm x 150 mm, 3.5 um, Agilent
Retention time: 6.249 min
Precursor m/z: 749.5158
Precursor type: [M+H]+
m/z	relative intensity
43.0258	48
44.0582	27
45.0416	51
57.0627	34
58.0695	37
59.0538	48
70.0689	34
72.0846	521
73.0558	24
79.0567	13
81.0715	41
83.0518	999
84.0817	72
85.0297	20
85.0728	17
87.045	106
87.0704	13
88.0777	106
95.0483	13
98.06	24
98.0973	357
99.0806	13
99.1025	20
100.0753	24
110.0991	27
113.0593	17
116.0718	113
116.1073	205
121.1023	13
138.1277	27
158.12	27
