Mass spectrum: Resorcinol bis(diphenyl phosphate); LC-ESI-QTOF; MS2; 100 V
Name: Resorcinol bis(diphenyl phosphate)
Class: Industrial_process
Formula: C30H24O8P2
Exact mass: 574.0946
SMILES: C1=CC=C(C=C1)OP(=O)(OC2=CC=CC=C2)OC3=CC(=CC=C3)OP(=O)(OC4=CC=CC=C4)OC5=CC=CC=C5
InChI: InChI=1S/C30H24O8P2/c31-39(33-25-14-5-1-6-15-25,34-26-16-7-2-8-17-26)37-29-22-13-23-30(24-29)38-40(32,35-27-18-9-3-10-19-27)36-28-20-11-4-12-21-28/h1-24H
Instrument: TripleTOF 6600 SCIEX
Instrument type: LC-ESI-QTOF
Ms type: MS2
Ion mode: POSITIVE
Collision energy: 100
Fragmentation mode: CID
Ionization: ESI
Column name: Zorbax Eclipse Plus C18 2.1 mm x 150 mm, 3.5 um, Agilent
Retention time: 15.87 min
Precursor m/z: 575.1019
Precursor type: [M+H]+
m/z	relative intensity
50.0152	17
51.023	114
63.023	11
65.0385	49
74.0147	14
75.0228	17
77.0389	669
89.0392	19
91.0538	22
92.0264	19
93.0339	19
95.0492	37
99.0231	12
102.0462	32
105.0449	27
114.0466	12
115.0546	424
121.0251	12
125.0393	37
126.0465	24
127.0543	75
128.0621	189
129.0707	33
130.0434	9
131.0495	24
133.0207	43
138.9947	41
139.0552	313
140.0624	65
141.0703	278
145.0215	24
147.035	19
149.0157	27
149.0391	22
150.0468	263
151.0553	387
152.0632	999
153.0705	82
154.9898	28
155.0517	70
156.0575	75
157.02	53
157.0655	33
159.0366	25
165.0697	33
167.0507	30
168.0581	641
169.0663	64
170.0729	25
173.0163	32
175.0163	35
175.0309	57
177.0111	96
178.0782	59
179.061	46
183.0437	30
184.0524	205
185.0147	17
185.0622	17
186.0238	20
187.0317	62
187.0518	12
189.0115	16
189.0711	123
190.0776	35
191.0868	77
200.0638	65
201.0113	25
201.0704	51
202.0793	273
203.0271	90
203.0872	32
204.0955	20
205.0063	94
205.0671	28
206.0744	25
206.9611	12
207.0375	14
207.0823	25
209.0549	12
213.0105	33
213.0721	80
214.0204	12
214.0791	46
215.0277	136
215.0565	20
215.0874	296
216.0947	38
217.0652	19
217.1017	20
218.0736	117
218.9611	14
219.0233	11
219.0814	12
220.0473	20
222.0101	127
223.0164	77
224.0628	61
225.0712	109
226.0799	717
227.0867	80
228.0959	70
229.0073	43
229.0688	14
231.0222	157
231.082	59
232.0309	9
232.09	27
233.0526	69
234.0689	45
234.9591	16
242.0744	172
243.0839	45
244.0901	59
247.0174	35
248.025	38
249.0317	11
249.0463	20
251.0489	38
252.0981	11
253.0438	38
258.0717	32
260.0398	61
260.0846	51
261.0488	30
263.0861	19
276.0966	51
277.1027	14
279.06	12
287.0886	16
289.0433	37
289.1034	53
291.117	17
292.9756	24
298.0452	19
299.0506	16
300.0966	112
301.1047	28
302.1111	61
305.037	12
305.0981	19
307.0558	35
309.0339	20
310.9902	45
316.0852	11
318.106	24
329.0017	11
