Mass spectrum: Methylecgonidine; LC-ESI-QTOF; MS2; 20 V
Name: Methylecgonidine
Class: Metabolite
Formula: C10H15NO2
Exact mass: 181.1103
SMILES: CN1C2CCC1C(=CC2)C(=O)OC
InChI: InChI=1S/C10H15NO2/c1-11-7-3-5-8(10(12)13-2)9(11)6-4-7/h5,7,9H,3-4,6H2,1-2H3
Instrument: TripleTOF 6600 SCIEX
Instrument type: LC-ESI-QTOF
Ms type: MS2
Ion mode: POSITIVE
Collision energy: 20
Fragmentation mode: CID
Ionization: ESI
Column name: Zorbax Eclipse Plus C18 2.1 mm x 150 mm, 3.5 um, Agilent
Retention time: 4.43 min
Precursor m/z: 182.1176
Precursor type: [M+H]+
m/z	relative intensity
91.0537	24
105.0689	11
118.0408	47
119.0484	14
122.0959	44
133.0639	27
150.0905	47
151.0744	50
164.1056	13
182.1174	999
