Mass spectrum: Benzylhexyldimethylammonium; LC-ESI-QTOF; MS2; 20 V
Name: Benzylhexyldimethylammonium
Class: Antimicrobial; Pharmaceutical
Formula: [C15H26N]+
Exact mass: 220.206
SMILES: CCCCCC[N+](C)(Cc1ccccc1)C
InChI: InChI=1S/C15H26N/c1-4-5-6-10-13-16(2,3)14-15-11-8-7-9-12-15/h7-9,11-12H,4-6,10,13-14H2,1-3H3/q+1
Instrument: TripleTOF 5600 SCIEX
Instrument type: LC-ESI-QTOF
Ms type: MS2
Ion mode: POSITIVE
Collision energy: 20
Fragmentation mode: CID
Ionization: ESI
Column name: Zorbax Eclipse Plus C18 2.1 mm x 150 mm, 3.5 um, Agilent
Retention time: 7.465 min
Precursor m/z: 220.206
Precursor type: [M]+
m/z	relative intensity
91.0556	315
128.1437	195
220.2061	999
