Mass spectrum: Chlormethiazole; LC-ESI-QTOF; MS2; 60 V
Name: Chlormethiazole
Class: Pharmaceutical
Formula: C6H8ClNS
Exact mass: 161.0066
SMILES: CC1=C(SC=N1)CCCl
InChI: InChI=1S/C6H8ClNS/c1-5-6(2-3-7)9-4-8-5/h4H,2-3H2,1H3
Instrument: TripleTOF 6600 SCIEX
Instrument type: LC-ESI-QTOF
Ms type: MS2
Ion mode: POSITIVE
Collision energy: 60
Fragmentation mode: CID
Ionization: ESI
Column name: Zorbax Eclipse Plus C18 2.1 mm x 150 mm, 3.5 um, Agilent
Retention time: 7.946 min
Precursor m/z: 162.0139
Precursor type: [M+H]+
m/z	relative intensity
37.0071	41
38.0158	31
39.0231	227
41.0251	25
41.0386	77
42.0337	279
44.9794	564
50.0149	25
51.0225	51
52.0311	25
53.0383	201
54.0336	98
55.0418	67
55.0546	56
57.9861	31
58.995	144
65.0384	160
66.0458	31
68.0494	93
68.9787	36
69.0574	25
70.9947	947
72.0026	98
78.0332	72
80.0494	186
84.0019	56
85.01	471
86.0186	31
94.9946	31
97.0098	41
98.003	77
112.0207	999
113.0285	201
126.0376	72
