Mass spectrum: 2-Phenylbenzimidazole-5-sulfonic acid; LC-ESI-QTOF; MS2; 140 V
Name: 2-Phenylbenzimidazole-5-sulfonic acid
Class: Personal_care_product
Formula: C13H10N2O3S
Exact mass: 274.0412
SMILES: C1=CC=C(C=C1)C2=NC3=C(N2)C=C(C=C3)S(=O)(=O)O
InChI: InChI=1S/C13H10N2O3S/c16-19(17,18)10-6-7-11-12(8-10)15-13(14-11)9-4-2-1-3-5-9/h1-8H,(H,14,15)(H,16,17,18)
Instrument: TripleTOF 5600 SCIEX
Instrument type: LC-ESI-QTOF
Ms type: MS2
Ion mode: POSITIVE
Collision energy: 140
Fragmentation mode: CID
Ionization: ESI
Column name: Zorbax Eclipse Plus C18 2.1 mm x 150 mm, 3.5 um, Agilent
Retention time: 5.039 min
Precursor m/z: 275.0485
Precursor type: [M+H]+
m/z	relative intensity
51.0324	999
52.0276	280
60.0101	156
64.0321	249
74.0227	280
75.0307	187
77.0457	811
86.0173	249
87.0274	374
88.0303	124
89.043	967
113.0415	312
114.0361	187
137.0381	187
138.0342	124
138.0479	124
139.06	187
140.0496	156
164.054	249
