Mass spectrum: Pendimethalin; LC-ESI-QTOF; MS2; 50 V
Name: Pendimethalin
Class: Herbicide
Formula: C13H19N3O4
Exact mass: 281.1376
SMILES: CCC(CC)Nc1c(cc(c(c1[N+](=O)[O-])C)C)[N+](=O)[O-]
InChI: InChI=1S/C13H19N3O4/c1-5-10(6-2)14-12-11(15(17)18)7-8(3)9(4)13(12)16(19)20/h7,10,14H,5-6H2,1-4H3
Instrument: TripleTOF 6600 SCIEX
Instrument type: LC-ESI-QTOF
Ms type: MS2
Ion mode: POSITIVE
Collision energy: 50
Fragmentation mode: CID
Ionization: ESI
Column name: Zorbax Eclipse Plus C18 2.1 mm x 150 mm, 3.5 um, Agilent
Retention time: 16.198 min
Precursor m/z: 282.1448
Precursor type: [M+H]+
m/z	relative intensity
39.0233	83
40.0188	16
41.027	19
41.0391	268
42.0344	12
43.0186	41
43.0549	617
50.0159	28
51.0233	128
52.0186	48
52.0317	35
53.0153	19
53.028	19
53.0393	211
54.035	32
55.0547	41
63.0234	86
64.0189	16
64.0312	160
65.0266	19
65.039	698
66.0214	16
66.0341	208
66.0465	156
67.0306	12
67.0427	99
67.0551	38
68.0142	25
68.05	41
69.9936	19
71.086	25
76.0184	41
76.0313	80
77.0264	67
77.0389	358
78.0345	374
78.0473	25
79.03	25
79.043	70
79.0547	102
80.0499	329
81.034	35
81.0573	67
82.0425	12
89.039	86
90.0344	150
90.0459	73
91.0423	563
91.0542	134
92.0375	32
92.0499	906
93.0086	38
93.0446	83
93.058	140
94.0293	57
94.0643	115
95.0493	35
96.0574	60
102.0338	67
103.0419	502
104.0383	54
104.0492	333
105.0449	454
106.0291	86
106.0529	41
106.0658	80
107.0359	28
107.0597	60
108.0454	44
108.0676	16
109.0394	28
116.0494	105
117.0447	211
117.0571	83
118.0524	214
118.0643	144
119.0607	999
120.019	121
120.0439	163
120.0687	243
121.0034	16
121.0396	105
121.0768	22
122.047	57
122.0621	16
126.0557	25
129.0446	227
130.0402	108
130.0517	105
131.0603	316
132.0559	150
133.0406	102
133.0636	48
134.0616	19
135.0563	60
136.0631	51
145.0395	54
146.0464	16
147.055	284
148.0632	864
149.0598	83
150.0655	19
160.0508	73
162.0339	12
164.0577	44
166.0749	25
176.045	54
177.0524	89
178.0604	166
194.0564	60
195.0642	54
