Mass spectrum: Propiconazole; LC-ESI-QTOF; MS2; 70 V
Name: Propiconazole
Class: Fungicide
Formula: C15H17Cl2N3O2
Exact mass: 341.0698
SMILES: CCCC1COC(Cn2cncn2)(O1)c3ccc(Cl)cc3Cl
InChI: InChI=1S/C15H17Cl2N3O2/c1-2-3-12-7-21-15(22-12,8-20-10-18-9-19-20)13-5-4-11(16)6-14(13)17/h4-6,9-10,12H,2-3,7-8H2,1H3
Instrument: TripleTOF 5600 SCIEX
Instrument type: LC-ESI-QTOF
Ms type: MS2
Ion mode: POSITIVE
Collision energy: 70
Fragmentation mode: CID
Ionization: ESI
Column name: Zorbax Eclipse Plus C18 2.1 mm x 150 mm, 3.5 um, Agilent
Retention time: 13.45 min
Precursor m/z: 342.0771
Precursor type: [M+H]+
m/z	relative intensity
69.0735	18
70.043	18
72.9873	17
89.0409	94
99.0001	62
108.9838	24
110.9997	10
123.0004	292
124.007	110
132.96	46
144.9603	82
158.9765	999
172.9573	109
