Mass spectrum: Mesosulfuron-methyl; LC-ESI-QTOF; MS2; 80 V
Name: Mesosulfuron-methyl
Class: Herbicide
Formula: C17H21N5O9S2
Exact mass: 503.0781
SMILES: COC(=O)c1ccc(CN[S](C)(=O)=O)cc1[S](=O)(=O)NC(=O)Nc2nc(OC)cc(OC)n2
InChI: InChI=1S/C17H21N5O9S2/c1-29-13-8-14(30-2)20-16(19-13)21-17(24)22-33(27,28)12-7-10(9-18-32(4,25)26)5-6-11(12)15(23)31-3/h5-8,18H,9H2,1-4H3,(H2,19,20,21,22,24)
Instrument: TripleTOF 5600 SCIEX
Instrument type: LC-ESI-QTOF
Ms type: MS2
Ion mode: POSITIVE
Collision energy: 80
Fragmentation mode: CID
Ionization: ESI
Column name: Zorbax Eclipse Plus C18 2.1 mm x 150 mm, 3.5 um, Agilent
Retention time: 10.025 min
Precursor m/z: 504.0853
Precursor type: [M+H]+
m/z	relative intensity
68.0188	13
69.0015	29
71.0632	42
77.0413	69
79.0561	21
81.0476	21
82.0316	50
83.0266	879
92.0265	23
93.0098	85
100.0399	92
104.0505	85
106.0638	10
107.0298	13
107.0499	15
109.0385	31
118.029	10
119.0373	26
124.0488	18
132.0442	13
134.0621	31
135.0433	61
138.0298	13
139.0505	999
140.0446	15
141.0555	15
147.0554	23
156.0773	50
157.0676	13
162.0551	241
166.024	13
173.0371	18
182.0562	510
