Mass spectrum: Sulfamethazine; LC-ESI-QTOF; MS2; 130 V
Name: Sulfamethazine
Class: Antimicrobial; Pharmaceutical
Formula: C12H14N4O2S
Exact mass: 278.0837
SMILES: CC1=CC(=NC(=N1)NS(=O)(=O)C2=CC=C(C=C2)N)C
InChI: InChI=1S/C12H14N4O2S/c1-8-7-9(2)15-12(14-8)16-19(17,18)11-5-3-10(13)4-6-11/h3-7H,13H2,1-2H3,(H,14,15,16)
Instrument: TripleTOF 5600 SCIEX
Instrument type: LC-ESI-QTOF
Ms type: MS2
Ion mode: POSITIVE
Collision energy: 130
Fragmentation mode: CID
Ionization: ESI
Column name: Zorbax Eclipse Plus C18 2.1 mm x 150 mm, 3.5 um, Agilent
Retention time: 6.115 min
Precursor m/z: 279.091
Precursor type: [M+H]+
m/z	relative intensity
40.0314	33
42.0467	158
43.0437	39
51.0322	79
54.0432	46
64.0339	39
65.0467	999
66.0414	99
66.0533	26
67.0365	535
68.058	79
74.0199	59
78.0399	79
80.0563	423
92.0554	59
93.0617	26
95.0652	238
