Mass spectrum: Ethyl 2,4-diaminopyrimidine-5-carboxylate; LC-ESI-QTOF; MS2; 100 V
Name: Ethyl 2,4-diaminopyrimidine-5-carboxylate
Class: Pharmaceutical
Formula: C7H10N4O2
Exact mass: 182.0804
SMILES: CCOC(=O)C1=CN=C(N=C1N)N
InChI: InChI=1S/C7H10N4O2/c1-2-13-6(12)4-3-10-7(9)11-5(4)8/h3H,2H2,1H3,(H4,8,9,10,11)
Instrument: TripleTOF 5600 SCIEX
Instrument type: LC-ESI-QTOF
Ms type: MS2
Ion mode: POSITIVE
Collision energy: 100
Fragmentation mode: CID
Ionization: ESI
Column name: Zorbax Eclipse Plus C18 2.1 mm x 150 mm, 3.5 um, Agilent
Retention time: 4.607 min
Precursor m/z: 183.0877
Precursor type: [M+H]+
m/z	relative intensity
38.0174	60
40.0331	346
41.0337	219
42.0458	115
43.042	341
44.0268	9
51.0199	14
52.028	226
53.0124	166
55.0396	36
65.0198	69
66.0271	28
67.0356	84
68.03	999
69.0039	12
69.0156	21
70.0347	38
