Mass spectrum: Metoxuron; LC-ESI-QTOF; MS2; 70 V
Name: Metoxuron
Class: Herbicide
Formula: C10H13ClN2O2
Exact mass: 228.0666
SMILES: CN(C)C(=O)NC1=CC(=C(C=C1)OC)Cl
InChI: InChI=1S/C10H13ClN2O2/c1-13(2)10(14)12-7-4-5-9(15-3)8(11)6-7/h4-6H,1-3H3,(H,12,14)
Instrument: TripleTOF 6600 SCIEX
Instrument type: LC-ESI-QTOF
Ms type: MS2
Ion mode: POSITIVE
Collision energy: 70
Fragmentation mode: CID
Ionization: ESI
Column name: Zorbax Eclipse Plus C18 2.1 mm x 150 mm, 3.5 um, Agilent
Retention time: 8.249 min
Precursor m/z: 229.0738
Precursor type: [M+H]+
m/z	relative intensity
30.0331	53
42.0326	40
44.0484	60
46.0642	167
51.0218	100
52.0175	113
56.0121	140
72.0435	999
78.0322	80
80.0121	160
106.0264	40
