Mass spectrum: Diuron; LC-ESI-QTOF; MS2; 70 V
Name: Diuron
Class: Herbicide
Formula: C9H10Cl2N2O
Exact mass: 232.017
SMILES: CN(C)C(=O)Nc1ccc(Cl)c(Cl)c1
InChI: InChI=1S/C9H10Cl2N2O/c1-13(2)9(14)12-6-3-4-7(10)8(11)5-6/h3-5H,1-2H3,(H,12,14)
Instrument: TripleTOF 5600 SCIEX
Instrument type: LC-ESI-QTOF
Ms type: MS2
Ion mode: POSITIVE
Collision energy: 70
Fragmentation mode: CID
Ionization: ESI
Column name: Zorbax Eclipse Plus C18 2.1 mm x 150 mm, 3.5 um, Agilent
Retention time: 10.497 min
Precursor m/z: 233.0243
Precursor type: [M+H]+
m/z	relative intensity
56.0178	72
72.0479	999
72.9859	54
74.0187	70
82.9467	25
90.0348	21
96.9853	10
106.9454	16
108.9831	75
123.995	14
125.002	84
132.9596	162
