Mass spectrum: Carbamazepine; LC-ESI-QTOF; MS2; 110 V
Name: Carbamazepine
Class: Pharmaceutical
Formula: C15H12N2O
Exact mass: 236.095
SMILES: NC(=O)N1c2ccccc2C=Cc3ccccc13
InChI: InChI=1S/C15H12N2O/c16-15(18)17-13-7-3-1-5-11(13)9-10-12-6-2-4-8-14(12)17/h1-10H,(H2,16,18)
Instrument: TripleTOF 5600 SCIEX
Instrument type: LC-ESI-QTOF
Ms type: MS2
Ion mode: POSITIVE
Collision energy: 110
Fragmentation mode: CID
Ionization: ESI
Column name: Zorbax Eclipse Plus C18 2.1 mm x 150 mm, 3.5 um, Agilent
Retention time: 8.87 min
Precursor m/z: 237.1022
Precursor type: [M+H]+
m/z	relative intensity
44.0213	28
60.0061	20
64.034	22
65.043	74
73.0132	31
74.0176	226
75.0251	200
76.034	134
77.0411	197
78.0496	31
85.0084	42
86.0161	103
87.0256	200
88.0188	17
88.0317	40
89.04	558
90.0509	34
91.0565	20
98.0147	174
99.0231	80
100.0311	42
101.0412	54
102.0468	91
110.0158	42
111.0218	57
113.0387	266
114.0332	37
114.0451	20
115.0546	226
116.0494	20
122.0155	25
123.0227	20
124.0311	25
125.0379	62
126.0462	140
127.0468	48
128.0522	34
134.0159	11
137.0383	140
138.0493	88
139.0545	432
140.0496	240
149.0378	68
150.0465	397
151.0525	145
152.0543	85
161.0385	128
162.0477	228
163.0541	999
163.0967	14
164.0564	360
165.0685	94
166.0688	34
174.0439	17
175.0415	17
176.0508	37
177.0563	45
187.0404	11
188.0508	208
189.0585	191
190.0655	392
191.0728	97
