Mass spectrum: Valsartan; LC-ESI-QTOF; MS2; 110 V
Name: Valsartan
Class: Pharmaceutical
Formula: C24H29N5O3
Exact mass: 435.227
SMILES: CCCCC(=O)N(Cc1ccc(cc1)c2ccccc2c3n[nH]nn3)[C@@H](C(C)C)C(O)=O
InChI: InChI=1S/C24H29N5O3/c1-4-5-10-21(30)29(22(16(2)3)24(31)32)15-17-11-13-18(14-12-17)19-8-6-7-9-20(19)23-25-27-28-26-23/h6-9,11-14,16,22H,4-5,10,15H2,1-3H3,(H,31,32)(H,25,26,27,28)/t22-/m0/s1
Instrument: TripleTOF 5600 SCIEX
Instrument type: LC-ESI-QTOF
Ms type: MS2
Ion mode: NEGATIVE
Collision energy: 110
Fragmentation mode: CID
Ionization: ESI
Column name: Zorbax Eclipse Plus C18 2.1 mm x 150 mm, 3.5 um, Agilent
Retention time: 11.443 min
Precursor m/z: 434.2198
Precursor type: [M-H]-
m/z	relative intensity
41.0165	117
42.0012	176
42.0122	999
101.0612	58
116.0717	88
164.0564	88
164.0627	58
165.0725	117
177.0772	117
178.0787	440
179.0863	235
189.0543	88
189.0717	58
190.0474	58
190.0663	617
192.0824	117
203.0694	146
203.0859	146
204.0709	323
206.0837	58
