Mass spectrum: Myclobutanil; LC-ESI-QTOF; MS2; 140 V
Name: Myclobutanil
Class: Fungicide
Formula: C15H17ClN4
Exact mass: 288.1142
SMILES: CCCCC(Cn1cncn1)(C#N)c2ccc(Cl)cc2
InChI: InChI=1S/C15H17ClN4/c1-2-3-8-15(9-17,10-20-12-18-11-19-20)13-4-6-14(16)7-5-13/h4-7,11-12H,2-3,8,10H2,1H3
Instrument: TripleTOF 6600 SCIEX
Instrument type: LC-ESI-QTOF
Ms type: MS2
Ion mode: POSITIVE
Collision energy: 140
Fragmentation mode: CID
Ionization: ESI
Column name: Zorbax Eclipse Plus C18 2.1 mm x 150 mm, 3.5 um, Agilent
Retention time: 12.025 min
Precursor m/z: 289.1215
Precursor type: [M+H]+
m/z	relative intensity
35.9995	47
37.0073	136
38.0152	130
39.0228	297
42.0216	71
43.0292	505
46.9682	118
48.9837	190
49.0066	77
50.0152	303
51.0229	285
60.0003	47
61.007	261
62.0152	606
63.0229	999
64.0302	71
65.0378	47
70.0397	166
72.9838	481
73.0079	53
74.0149	624
75.0228	327
76.0198	35
76.0307	53
77.0386	107
85.0061	29
86.0146	59
87.0224	41
89.0384	618
90.0461	59
98.0159	35
98.9991	59
102.0472	41
115.0541	112
127.0547	29
