Mass spectrum: Trifloxystrobin; LC-ESI-QTOF; MS2; 130 V
Name: Trifloxystrobin
Class: Fungicide
Formula: C20H19F3N2O4
Exact mass: 408.1297
SMILES: CC(=NOCC1=CC=CC=C1C(=NOC)C(=O)OC)C2=CC(=CC=C2)C(F)(F)F
InChI: InChI=1S/C20H19F3N2O4/c1-13(14-8-6-9-16(11-14)20(21,22)23)24-29-12-15-7-4-5-10-17(15)18(25-28-3)19(26)27-2/h4-11H,12H2,1-3H3
Instrument: TripleTOF 5600 SCIEX
Instrument type: LC-ESI-QTOF
Ms type: MS2
Ion mode: POSITIVE
Collision energy: 130
Fragmentation mode: CID
Ionization: ESI
Column name: Zorbax Eclipse Plus C18 2.1 mm x 150 mm, 3.5 um, Agilent
Retention time: 15.037 min
Precursor m/z: 409.137
Precursor type: [M+H]+
m/z	relative intensity
57.0226	18
65.0461	78
69.0015	64
73.0129	18
74.0213	236
75.0276	708
77.0439	192
78.0516	21
81.0187	25
89.0428	999
90.05	144
91.0583	138
95.0326	534
99.007	65
102.0476	10
103.057	105
104.0557	23
114.035	20
115.0452	18
116.0514	279
117.0595	76
118.0669	82
119.0121	42
123.0369	20
125.0215	198
130.0668	183
131.0742	39
145.0273	275
