Mass spectrum: Nitrazepam; LC-ESI-QTOF; MS2; 100 V
Name: Nitrazepam
Class: Pharmaceutical
Formula: C15H11N3O3
Exact mass: 281.08
InChI: InChI=1S/C15H11N3O3/c19-14-9-16-15(10-4-2-1-3-5-10)12-8-11(18(20)21)6-7-13(12)17-14/h1-8H,9H2,(H,17,19)
Instrument: TripleTOF 6600 SCIEX
Instrument type: LC-ESI-QTOF
Ms type: CID
Ion mode: NEGATIVE
Collision energy: 100
Ionization: ESI
Column name: Zorbax Eclipse Plus C18 2.1 mm x 150 mm, 3.5 um, Agilent
Retention time: 9.435 min
Precursor m/z: 280.0727
Precursor type: [M-H]-
m/z	relative intensity
41.9986	638
45.9933	999
50.0032	61
90.0335	92
101.039	247
113.0393	175
115.0557	123
125.038	72
164.0514	51
166.0689	82
