Mass spectrum: (3-Methyl-2-butenyl)(triphenyl)phosphorane; LC-ESI-QTOF; MS2; 140 V
Name: (3-Methyl-2-butenyl)(triphenyl)phosphorane
Class: Industrial_process
Formula: [C23H24P]+
Exact mass: 331.161
SMILES: CC(=CC[P+](C1=CC=CC=C1)(C2=CC=CC=C2)C3=CC=CC=C3)C
InChI: InChI=1S/C23H24P/c1-20(2)18-19-24(21-12-6-3-7-13-21,22-14-8-4-9-15-22)23-16-10-5-11-17-23/h3-18H,19H2,1-2H3/q+1
Instrument: TripleTOF 6600 SCIEX
Instrument type: LC-ESI-QTOF
Ms type: MS2
Ion mode: POSITIVE
Collision energy: 140
Fragmentation mode: CID
Ionization: ESI
Column name: Zorbax Eclipse Plus C18 2.1 mm x 150 mm, 3.5 um, Agilent
Retention time: 9.017 min
Precursor m/z: 331.161
Precursor type: [M]+
m/z	relative intensity
41.0435	198
50.0194	50
51.0271	53
55.9852	58
56.9933	158
62.0195	117
63.0269	301
65.0422	103
74.0189	130
76.0343	114
78.9762	91
79.9843	326
80.9918	367
86.0173	58
87.0257	114
89.0406	374
98.0176	66
102.0485	166
103.983	75
107.007	999
113.041	122
115.0563	264
126.0487	364
131.0066	119
139.0565	187
150.0483	359
151.0568	490
152.0645	476
155.0064	83
156.014	117
157.0223	284
179.0061	74
180.0155	119
181.0222	443
