Mass spectrum: 4-Carboxy-9-acridanone; LC-ESI-QTOF; MS2; 80 V
Name: 4-Carboxy-9-acridanone
Class: Pharmaceutical; Antimicrobial
Formula: C14H9NO3
Exact mass: 239.0582
SMILES: c1ccc2c(c1)c(=O)c3cccc(c3[nH]2)C(=O)O
InChI: InChI=1S/C14H9NO3/c16-13-8-4-1-2-7-11(8)15-12-9(13)5-3-6-10(12)14(17)18/h1-7H,(H,15,16)(H,17,18)
Instrument: TripleTOF 5600 SCIEX
Instrument type: LC-ESI-QTOF
Ms type: MS2
Ion mode: POSITIVE
Collision energy: 80
Fragmentation mode: CID
Ionization: ESI
Column name: Zorbax Eclipse Plus C18 2.1 mm x 150 mm, 3.5 um, Agilent
Retention time: 8.816 min
Precursor m/z: 240.0655
Precursor type: [M+H]+
m/z	relative intensity
65.0423	49
74.0188	10
75.0268	17
76.033	170
86.0169	19
87.0248	93
88.0192	19
88.0302	12
89.0404	267
89.0662	14
90.0339	52
102.0455	10
113.0382	600
114.0327	123
115.054	267
116.0485	68
126.0465	22
137.0381	44
138.0451	81
139.0541	657
140.0496	999
164.0489	93
165.0578	24
166.0649	24
