Mass spectrum: N-acetyl-sitagliptin; LC-ESI-QTOF; MS2; 140 V
Name: N-acetyl-sitagliptin
Class: Metabolite; Pharmaceutical
Formula: C18H17F6N5O2
Exact mass: 449.1286
SMILES: CC(=O)NC(CC1=CC(=C(C=C1F)F)F)CC(=O)N2CCN3C(=NN=C3C(F)(F)F)C2
InChI: InChI=1S/C18H17F6N5O2/c1-9(30)25-11(4-10-5-13(20)14(21)7-12(10)19)6-16(31)28-2-3-29-15(8-28)26-27-17(29)18(22,23)24/h5,7,11H,2-4,6,8H2,1H3,(H,25,30)
Instrument: TripleTOF 5600 SCIEX
Instrument type: LC-ESI-QTOF
Ms type: MS2
Ion mode: POSITIVE
Collision energy: 140
Fragmentation mode: CID
Ionization: ESI
Column name: Zorbax Eclipse Plus C18 2.1 mm x 150 mm, 3.5 um, Agilent
Retention time: 8.852 min
Precursor m/z: 450.1359
Precursor type: [M+H]+
m/z	relative intensity
43.0247	25
43.0337	11
51.0079	12
56.0551	14
57.0169	33
68.9991	24
74.0177	24
74.0308	12
75.0068	79
75.0243	51
77.0223	38
77.0414	72
81.0149	87
83.0309	20
86.0163	25
87.0244	153
91.0116	25
95.0119	11
95.0305	85
98.0168	14
99.0045	25
101.0205	441
105.0141	25
107.0297	307
117.0138	38
118.0214	20
119.0106	72
120.0386	20
125.0197	385
125.0458	11
126.0282	44
127.0358	999
131.0284	74
134.0403	37
137.02	85
145.026	429
149.0182	22
150.0271	22
151.0351	331
153.0388	66
154.0465	20
165.0254	11
169.0267	83
