Mass spectrum: Malathion; LC-ESI-QTOF; MS2; 30 V
Name: Malathion
Class: Insecticide
Formula: C10H19O6PS2
Exact mass: 330.0361
SMILES: CCOC(=O)CC(C(=O)OCC)SP(=S)(OC)OC
InChI: InChI=1S/C10H19O6PS2/c1-5-15-9(11)7-8(10(12)16-6-2)19-17(18,13-3)14-4/h8H,5-7H2,1-4H3
Instrument: TripleTOF 5600 SCIEX
Instrument type: LC-ESI-QTOF
Ms type: MS2
Ion mode: POSITIVE
Collision energy: 30
Fragmentation mode: CID
Ionization: ESI
Column name: Zorbax Eclipse Plus C18 2.1 mm x 150 mm, 3.5 um, Agilent
Retention time: 12.939 min
Precursor m/z: 331.0433
Precursor type: [M+H]+
m/z	relative intensity
71.0131	22
78.9949	20
86.9898	20
98.9852	22
99.0077	999
99.043	24
108.0453	11
110.9672	13
114.9851	24
117.0003	18
118.9615	11
124.9818	467
127.0393	361
146.9932	31
158.9696	15
210.9652	122
257.0031	31
