Mass spectrum: Benalaxyl; LC-ESI-QTOF; MS2; 80 V
Name: Benalaxyl
Class: Fungicide
Formula: C20H23NO3
Exact mass: 325.1678
SMILES: CC1=C(C(=CC=C1)C)N(C(C)C(=O)OC)C(=O)CC2=CC=CC=C2
InChI: InChI=1S/C20H23NO3/c1-14-9-8-10-15(2)19(14)21(16(3)20(23)24-4)18(22)13-17-11-6-5-7-12-17/h5-12,16H,13H2,1-4H3
Instrument: TripleTOF 6600 SCIEX
Instrument type: LC-ESI-QTOF
Ms type: MS2
Ion mode: POSITIVE
Collision energy: 80
Fragmentation mode: CID
Ionization: ESI
Column name: Zorbax Eclipse Plus C18 2.1 mm x 150 mm, 3.5 um, Agilent
Retention time: 13.881 min
Precursor m/z: 326.1751
Precursor type: [M+H]+
m/z	relative intensity
39.0226	47
41.0379	14
51.0227	17
63.0219	17
65.0381	319
77.038	215
78.0453	20
79.0535	151
91.0538	999
93.0697	11
103.0536	102
104.0602	11
105.069	120
106.0645	390
107.0714	17
117.0558	17
118.0643	76
120.0798	227
121.0878	75
132.0798	60
133.0875	38
148.1124	41
180.0802	16
