Mass spectrum: Ketoconazole; LC-ESI-QTOF; MS2; 90 V
Name: Ketoconazole
Class: Fungicide; Pharmaceutical
Formula: C26H28Cl2N4O4
Exact mass: 530.1488
SMILES: CC(=O)N1CCN(CC1)C2=CC=C(C=C2)OCC3COC(O3)(CN4C=CN=C4)C5=C(C=C(C=C5)Cl)Cl
InChI: InChI=1S/C26H28Cl2N4O4/c1-19(33)31-10-12-32(13-11-31)21-3-5-22(6-4-21)34-15-23-16-35-26(36-23,17-30-9-8-29-18-30)24-7-2-20(27)14-25(24)28/h2-9,14,18,23H,10-13,15-17H2,1H3
Instrument: TripleTOF 5600 SCIEX
Instrument type: LC-ESI-QTOF
Ms type: MS2
Ion mode: POSITIVE
Collision energy: 90
Fragmentation mode: CID
Ionization: ESI
Column name: Zorbax Eclipse Plus C18 2.1 mm x 150 mm, 3.5 um, Agilent
Retention time: 7.94 min
Precursor m/z: 531.156
Precursor type: [M+H]+
m/z	relative intensity
43.0304	18
54.0438	37
56.0583	41
68.0406	14
68.0524	14
69.0518	86
70.0703	142
71.065	44
77.0422	86
79.0598	56
80.057	14
81.0492	999
82.057	707
83.0634	18
86.0638	37
89.0394	14
91.0581	89
93.0354	59
94.0453	26
99.0288	18
103.0564	101
104.0525	29
105.0701	41
106.0667	41
107.0502	101
109.0421	59
111.0025	22
112.0767	187
114.0504	18
115.0556	123
116.0581	26
117.0607	67
117.0728	37
118.0668	101
119.0736	22
119.0796	29
120.0449	531
120.0813	86
121.0503	48
122.0608	254
123.0003	217
124.0119	14
125.0173	33
127.0515	377
128.0606	41
129.0703	41
130.0646	190
131.052	67
131.0736	59
132.059	22
132.0822	56
133.0545	41
133.0687	14
134.0606	228
134.0861	14
134.9996	26
135.0677	93
136.0083	67
136.0758	217
139.0312	18
141.0637	14
142.0629	14
143.0723	41
144.0811	97
144.962	56
145.0863	37
146.0603	119
146.0957	104
147.0694	26
148.0748	164
149.014	89
150.0233	130
151.0358	14
154.0663	18
156.0762	26
157.0881	22
157.9679	224
158.0615	29
158.097	59
158.9756	564
159.0658	56
160.0762	52
162.0883	26
167.027	33
167.0828	149
169.9682	448
170.0626	22
170.9779	48
172.0735	29
172.9561	280
174.0886	123
174.9729	29
176.0786	18
177.1023	56
179.0374	18
182.9703	26
184.9915	41
185.9625	149
186.9694	26
190.0855	14
191.0396	18
192.105	48
203.0368	119
204.0343	18
205.0255	44
212.0044	26
219.0225	14
239.0083	18
248.9923	26
252.9898	37
255.0108	86
255.0328	14
267.0091	86
