Mass spectrum: 1H,1H,2H,2H-Perfluorohexanesulphonic acid; LC-ESI-QTOF; MS2; 140 V
Name: 1H,1H,2H,2H-Perfluorohexanesulphonic acid
Class: Industrial_process; PFAS
Formula: C6H5F9O3S
Exact mass: 327.9816
SMILES: C(CS(=O)(=O)O)C(C(C(C(F)(F)F)(F)F)(F)F)(F)F
InChI: InChI=1S/C6H5F9O3S/c7-3(8,1-2-19(16,17)18)4(9,10)5(11,12)6(13,14)15/h1-2H2,(H,16,17,18)
Instrument: TripleTOF 6600 SCIEX
Instrument type: LC-ESI-QTOF
Ms type: MS2
Ion mode: NEGATIVE
Collision energy: 140
Fragmentation mode: CID
Ionization: ESI
Column name: Zorbax Eclipse Plus C18 2.1 mm x 150 mm, 3.5 um, Agilent
Retention time: 10.117 min
Precursor m/z: 326.9743
Precursor type: [M-H]-
m/z	relative intensity
63.9601	252
79.9544	999
80.9619	168
