Mass spectrum: Allethrin; LC-ESI-QTOF; MS2; 80 V
Name: Allethrin
Class: Insecticide
Formula: C19H26O3
Exact mass: 302.1882
SMILES: CC(C)=CC1C(C(=O)OC2CC(=O)C(=C2C)CC=C)C1(C)C
InChI: InChI=1S/C19H26O3/c1-7-8-13-12(4)16(10-15(13)20)22-18(21)17-14(9-11(2)3)19(17,5)6/h7,9,14,16-17H,1,8,10H2,2-6H3
Instrument: TripleTOF 5600 SCIEX
Instrument type: LC-ESI-QTOF
Ms type: MS2
Ion mode: POSITIVE
Collision energy: 80
Fragmentation mode: CID
Ionization: ESI
Column name: Zorbax Eclipse Plus C18 2.1 mm x 150 mm, 3.5 um, Agilent
Retention time: 16.132 min
Precursor m/z: 303.1955
Precursor type: [M+H]+
m/z	relative intensity
43.0256	16
55.0589	26
59.0556	16
65.0427	305
67.0579	87
69.0725	30
77.0414	636
78.0485	16
79.0568	395
81.0725	127
91.0558	999
91.0843	20
92.0619	23
93.0707	73
94.043	26
95.0864	16
103.0555	70
105.0698	204
107.0487	36
107.0861	33
109.0647	13
115.0541	258
116.0619	30
117.0693	30
119.0854	30
121.0632	20
121.1037	20
127.0548	13
128.0629	36
129.0685	36
141.0718	20
142.078	13
157.069	13
