Mass spectrum: Mebendazole; LC-ESI-QTOF; MS2; 110 V
Name: Mebendazole
Class: Pharmaceutical
Formula: C16H13N3O3
Exact mass: 295.0957
SMILES: COC(=O)Nc1[nH]c2cc(ccc2n1)C(=O)c3ccccc3
InChI: InChI=1S/C16H13N3O3/c1-22-16(21)19-15-17-12-8-7-11(9-13(12)18-15)14(20)10-5-3-2-4-6-10/h2-9H,1H3,(H2,17,18,19,21)
Instrument: TripleTOF 5600 SCIEX
Instrument type: LC-ESI-QTOF
Ms type: MS2
Ion mode: POSITIVE
Collision energy: 110
Fragmentation mode: CID
Ionization: ESI
Column name: Zorbax Eclipse Plus C18 2.1 mm x 150 mm, 3.5 um, Agilent
Retention time: 8.672 min
Precursor m/z: 296.103
Precursor type: [M+H]+
m/z	relative intensity
52.0236	15
64.0348	23
69.0122	25
74.0176	11
75.0129	27
75.0248	9
76.0206	251
77.0414	999
77.0677	19
78.0359	191
87.0238	11
89.0416	17
90.0359	19
103.0299	56
104.0371	114
105.0448	112
113.0374	25
115.0547	29
126.0456	11
127.0539	23
128.0632	21
130.0403	25
131.0463	17
139.0528	63
140.0496	34
164.0482	19
