Mass spectrum: Entacapone; LC-ESI-QTOF; MS2; 80 V
Name: Entacapone
Class: Pharmaceutical
Formula: C14H15N3O5
Exact mass: 305.1012
SMILES: CCN(CC)C(=O)C(=CC1=CC(=C(C(=C1)O)O)[N+](=O)[O-])C#N
InChI: InChI=1S/C14H15N3O5/c1-3-16(4-2)14(20)10(8-15)5-9-6-11(17(21)22)13(19)12(18)7-9/h5-7,18-19H,3-4H2,1-2H3
Instrument: TripleTOF 5600 SCIEX
Instrument type: LC-ESI-QTOF
Ms type: MS2
Ion mode: POSITIVE
Collision energy: 80
Fragmentation mode: CID
Ionization: ESI
Column name: Zorbax Eclipse Plus C18 2.1 mm x 150 mm, 3.5 um, Agilent
Retention time: 9.381 min
Precursor m/z: 306.1084
Precursor type: [M+H]+
m/z	relative intensity
43.0435	107
44.0255	130
52.033	53
72.0492	46
74.0199	184
75.0161	391
75.0287	84
76.0268	999
77.0302	84
77.0425	84
78.0371	69
80.0167	76
86.019	46
87.014	514
88.0217	422
89.028	61
89.0392	61
90.0379	176
91.0414	38
94.0442	30
100.0217	38
101.0277	422
102.0144	53
102.0346	153
103.0292	61
103.0422	99
104.0147	53
104.0387	46
104.0503	84
105.0481	84
113.0253	76
114.023	230
115.0299	61
116.0432	38
117.0455	53
121.0381	38
122.0394	30
130.029	46
130.0393	69
131.0397	46
131.0602	30
132.0212	76
132.0445	46
142.0208	46
158.0235	38
