Mass spectrum: Dimethachlor; LC-ESI-QTOF; MS2; 100 V
Name: Dimethachlor
Class: Herbicide
Formula: C13H18ClNO2
Exact mass: 255.1026
SMILES: CC1=C(C(=CC=C1)C)N(CCOC)C(=O)CCl
InChI: InChI=1S/C13H18ClNO2/c1-10-5-4-6-11(2)13(10)15(7-8-17-3)12(16)9-14/h4-6H,7-9H2,1-3H3
Instrument: TripleTOF 6600 SCIEX
Instrument type: LC-ESI-QTOF
Ms type: MS2
Ion mode: POSITIVE
Collision energy: 100
Fragmentation mode: CID
Ionization: ESI
Column name: Zorbax Eclipse Plus C18 2.1 mm x 150 mm, 3.5 um, Agilent
Retention time: 10.992 min
Precursor m/z: 256.1099
Precursor type: [M+H]+
m/z	relative intensity
37.0075	18
39.0234	63
46.9686	51
48.9843	258
49.0075	51
50.0153	236
51.0234	686
53.0387	21
61.0071	12
62.0153	21
63.0233	66
64.031	18
65.0386	151
66.0461	15
74.0154	21
75.0242	18
77.0389	999
78.047	33
79.0545	109
89.0388	273
90.0467	167
91.0544	215
102.0468	30
103.0542	78
104.0495	21
105.0449	36
105.0689	36
106.0656	51
115.0545	51
116.0487	18
117.0566	227
118.0654	30
130.0652	151
131.0719	12
143.0717	15
