Mass spectrum: 2-isopropyl-5,6-dimethyl-1H-benzimidazole; LC-ESI-QTOF; MS2; 70 V
Name: 2-isopropyl-5,6-dimethyl-1H-benzimidazole
Formula: C12H16N2
Exact mass: 188.1313
SMILES: CC1=CC2=C(C=C1C)N=C(N2)C(C)C
InChI: InChI=1S/C12H16N2/c1-7(2)12-13-10-5-8(3)9(4)6-11(10)14-12/h5-7H,1-4H3,(H,13,14)
Instrument: TripleTOF 6600 SCIEX
Instrument type: LC-ESI-QTOF
Ms type: MS2
Ion mode: POSITIVE
Collision energy: 70
Fragmentation mode: CID
Ionization: ESI
Column name: Zorbax Eclipse Plus C18 2.1 mm x 150 mm, 3.5 um, Agilent
Retention time: 6.482 min
Precursor m/z: 189.1386
Precursor type: [M+H]+
m/z	relative intensity
39.0224	17
41.0384	14
51.0225	75
65.0376	57
77.0381	745
78.0327	10
78.0449	62
79.0532	37
80.0484	42
89.0373	27
90.045	11
91.0533	398
92.0483	21
93.0681	147
102.0439	10
103.053	86
104.0482	192
105.0431	14
105.0551	45
106.0634	17
116.0477	20
117.0556	42
118.063	60
119.0719	25
120.0799	205
129.0429	13
130.0631	76
131.0595	416
132.0667	87
142.0514	23
143.0584	15
144.0681	17
145.0745	68
147.0903	21
155.0588	11
156.0674	20
157.0751	999
158.0827	179
171.0899	56
172.098	13
173.1056	166
