Mass spectrum: Metachrome Yellow free acid; LC-ESI-QTOF; MS2; 110 V
Name: Metachrome Yellow free acid
Formula: C13H9N3O5
Exact mass: 287.0542
SMILES: C1=CC(=CC(=C1)[N+](=O)[O-])N=NC2=CC(=C(C=C2)O)C(=O)O
InChI: InChI=1S/C13H9N3O5/c17-12-5-4-9(7-11(12)13(18)19)15-14-8-2-1-3-10(6-8)16(20)21/h1-7,17H,(H,18,19)
Instrument: TripleTOF 6600 SCIEX
Instrument type: LC-ESI-QTOF
Ms type: MS2
Ion mode: POSITIVE
Collision energy: 110
Fragmentation mode: CID
Ionization: ESI
Column name: Zorbax Eclipse Plus C18 2.1 mm x 150 mm, 3.5 um, Agilent
Retention time: 11.919 min
Precursor m/z: 288.0615
Precursor type: [M+H]+
m/z	relative intensity
37.0064	56
38.0147	67
39.0217	56
49.007	28
50.0143	348
51.0223	124
52.0173	149
53.0012	85
59.9987	21
61.0061	135
62.0143	359
63.022	999
64.0287	46
73.0066	42
74.0137	565
75.0214	657
76.0163	35
76.0294	81
80.0116	28
86.0154	31
87.0226	92
88.0238	63
89.0368	71
113.0366	110
114.0323	60
138.0321	24
139.0523	31
140.0469	35
166.0498	24
