Mass spectrum: Gabapentin; LC-ESI-QTOF; MS2; 40 V
Name: Gabapentin
Class: Pharmaceutical
Formula: C9H17NO2
Exact mass: 171.1259
SMILES: NCC1(CCCCC1)CC(O)=O
InChI: InChI=1S/C9H17NO2/c10-7-9(6-8(11)12)4-2-1-3-5-9/h1-7,10H2,(H,11,12)
Instrument: TripleTOF 5600 SCIEX
Instrument type: LC-ESI-QTOF
Ms type: MS2
Ion mode: POSITIVE
Collision energy: 40
Fragmentation mode: CID
Ionization: ESI
Column name: Zorbax Eclipse Plus C18 2.1 mm x 150 mm, 3.5 um, Agilent
Retention time: 4.875 min
Precursor m/z: 172.1332
Precursor type: [M+H]+
m/z	relative intensity
55.0225	408
55.0598	272
67.057	999
77.0409	272
91.055	499
93.0718	363
95.0847	726
109.0998	181
119.0824	227
137.0957	363
154.1198	227
