Mass spectrum: O-tolidine; LC-ESI-QTOF; MS2; 110 V
Name: O-tolidine
Formula: C14H16N2
Exact mass: 212.1313
SMILES: CC1=C(C=CC(=C1)C2=CC(=C(C=C2)N)C)N
InChI: InChI=1S/C14H16N2/c1-9-7-11(3-5-13(9)15)12-4-6-14(16)10(2)8-12/h3-8H,15-16H2,1-2H3
Instrument: TripleTOF 6600 SCIEX
Instrument type: LC-ESI-QTOF
Ms type: MS2
Ion mode: POSITIVE
Collision energy: 110
Fragmentation mode: CID
Ionization: ESI
Column name: Zorbax Eclipse Plus C18 2.1 mm x 150 mm, 3.5 um, Agilent
Retention time: 5.073 min
Precursor m/z: 213.1386
Precursor type: [M+H]+
m/z	relative intensity
50.0158	170
51.0244	341
62.0162	170
63.0239	268
74.0148	536
75.0235	243
76.0322	194
77.0394	877
78.0456	121
85.0104	146
86.0155	170
87.0236	268
89.0392	341
98.0184	194
99.0229	97
102.0467	146
126.0477	341
127.0539	97
128.0628	121
139.0548	121
150.0457	999
151.0548	487
152.063	414
162.0463	194
163.0489	146
164.0645	97
176.0644	97
