Mass spectrum: Lenalidomide; LC-ESI-QTOF; MS2; 40 V
Name: Lenalidomide
Class: Pharmaceutical
Formula: C13H13N3O3
Exact mass: 259.0957
SMILES: Nc1cccc2C(=O)N(Cc12)C3CCC(=O)NC3=O
InChI: InChI=1S/C13H13N3O3/c14-9-3-1-2-7-8(9)6-16(13(7)19)10-4-5-11(17)15-12(10)18/h1-3,10H,4-6,14H2,(H,15,17,18)
Instrument: TripleTOF 5600 SCIEX
Instrument type: LC-ESI-QTOF
Ms type: MS2
Ion mode: POSITIVE
Collision energy: 40
Fragmentation mode: CID
Ionization: ESI
Column name: Zorbax Eclipse Plus C18 2.1 mm x 150 mm, 3.5 um, Agilent
Retention time: 5.24 min
Precursor m/z: 260.103
Precursor type: [M+H]+
m/z	relative intensity
77.0417	20
84.0464	68
92.0497	13
104.0485	51
106.0652	427
119.0578	23
120.0434	54
131.0591	109
132.0432	17
132.0668	20
132.0787	44
133.0537	20
142.0653	20
143.0637	20
144.0788	37
147.0556	68
149.0706	999
158.0832	23
159.0912	188
169.0756	27
187.0865	821
