Mass spectrum: Sethoxydim; LC-ESI-QTOF; MS2; 100 V
Name: Sethoxydim
Class: Herbicide
Formula: C17H29NO3S
Exact mass: 327.1868
SMILES: CCCC(=C1C(=O)CC(CC1=O)CC(C)SCC)NOCC
InChI: InChI=1S/C17H29NO3S/c1-5-8-14(18-21-6-2)17-15(19)10-13(11-16(17)20)9-12(4)22-7-3/h12-13,18H,5-11H2,1-4H3
Instrument: TripleTOF 5600 SCIEX
Instrument type: LC-ESI-QTOF
Ms type: MS2
Ion mode: POSITIVE
Collision energy: 100
Fragmentation mode: CID
Ionization: ESI
Column name: Zorbax Eclipse Plus C18 2.1 mm x 150 mm, 3.5 um, Agilent
Retention time: 16.132 min
Precursor m/z: 328.1941
Precursor type: [M+H]+
m/z	relative intensity
67.0587	222
77.041	999
91.0552	610
107.0476	222
