Mass spectrum: Epirubicin; LC-ESI-QTOF; MS2; 110 V
Name: Epirubicin
Class: Pharmaceutical
Formula: C27H29NO11
Exact mass: 543.1741
SMILES: CC1C(C(CC(O1)OC2CC(CC3=C(C4=C(C(=C23)O)C(=O)C5=C(C4=O)C=CC=C5OC)O)(C(=O)CO)O)N)O
InChI: InChI=1S/C27H29NO11/c1-10-22(31)13(28)6-17(38-10)39-15-8-27(36,16(30)9-29)7-12-19(15)26(35)21-20(24(12)33)23(32)11-4-3-5-14(37-2)18(11)25(21)34/h3-5,10,13,15,17,22,29,31,33,35-36H,6-9,28H2,1-2H3
Instrument: TripleTOF 5600 SCIEX
Instrument type: LC-ESI-QTOF
Ms type: MS2
Ion mode: NEGATIVE
Collision energy: 110
Fragmentation mode: CID
Ionization: ESI
Column name: Zorbax Eclipse Plus C18 2.1 mm x 150 mm, 3.5 um, Agilent
Retention time: 7.492 min
Precursor m/z: 542.1668
Precursor type: [M-H]-
m/z	relative intensity
93.0374	101
116.0295	61
117.0344	122
129.0368	81
145.0297	203
157.0324	101
165.0717	61
167.0494	81
172.0213	101
173.0274	265
176.0659	61
179.0514	61
180.0631	61
182.0445	61
191.0491	265
192.0587	40
193.0708	203
195.0487	224
204.0624	81
205.0734	61
206.0409	81
207.0484	203
208.0546	265
209.0676	101
210.0325	81
211.0413	81
219.0474	570
220.052	265
221.0627	224
223.0438	142
232.054	224
233.0625	122
235.0477	265
236.0491	163
237.0589	448
239.0361	101
247.0436	754
248.0511	999
249.0588	407
250.0292	81
251.0339	244
252.0504	101
253.0545	81
259.0412	81
260.0492	142
261.0632	142
263.0394	591
264.047	652
265.0532	591
266.0618	101
275.0387	163
275.0637	40
276.0478	428
277.0499	326
279.0295	203
289.0635	81
291.0353	285
292.0404	591
293.051	897
303.0473	61
304.0386	142
305.0547	122
307.0312	81
317.0511	101
320.0358	224
321.0319	142
321.0457	163
349.0391	142
