Mass spectrum: (Benzotriazol-1-yloxy)-tris(dimethylamino)phosphonium; LC-ESI-QTOF; MS2; 70 V
Name: (Benzotriazol-1-yloxy)-tris(dimethylamino)phosphonium
Class: Industrial_process
Formula: [C12H22N6OP]+
Exact mass: 297.1587
SMILES: CN(C)[P+](On1nnc2ccccc12)(N(C)C)N(C)C
InChI: InChI=1S/C12H22N6OP/c1-15(2)20(16(3)4,17(5)6)19-18-12-10-8-7-9-11(12)13-14-18/h7-10H,1-6H3/q+1
Instrument: TripleTOF 5600 SCIEX
Instrument type: LC-ESI-QTOF
Ms type: MS2
Ion mode: POSITIVE
Collision energy: 70
Fragmentation mode: CID
Ionization: ESI
Column name: Zorbax Eclipse Plus C18 2.1 mm x 150 mm, 3.5 um, Agilent
Retention time: 5.969 min
Precursor m/z: 297.1587
Precursor type: [M]+
m/z	relative intensity
76.0335	792
90.0341	999
91.0432	482
92.0264	310
135.0682	378
138.0111	930
