Mass spectrum: Drometrizole; LC-ESI-QTOF; MS2; 80 V
Name: Drometrizole
Class: Industrial_process
Formula: C13H11N3O
Exact mass: 225.0902
SMILES: CC1=CC(=C(C=C1)O)N2N=C3C=CC=CC3=N2
InChI: InChI=1S/C13H11N3O/c1-9-6-7-13(17)12(8-9)16-14-10-4-2-3-5-11(10)15-16/h2-8,17H,1H3
Instrument: TripleTOF 5600 SCIEX
Instrument type: LC-ESI-QTOF
Ms type: MS2
Ion mode: POSITIVE
Collision energy: 80
Fragmentation mode: CID
Ionization: ESI
Column name: Zorbax Eclipse Plus C18 2.1 mm x 150 mm, 3.5 um, Agilent
Retention time: 15.201 min
Precursor m/z: 226.0975
Precursor type: [M+H]+
m/z	relative intensity
64.0319	16
74.0205	19
75.0281	39
76.0369	19
77.0441	999
78.0388	125
79.0469	148
80.0551	26
89.0421	13
92.0546	33
93.0611	13
101.041	46
102.0473	59
103.0452	19
105.047	234
115.0538	52
120.0584	16
126.0462	76
127.0558	175
128.0511	62
128.0632	29
129.0482	16
139.0544	29
140.0496	19
150.0464	29
151.0563	26
152.062	49
153.0563	26
154.0648	49
155.0605	19
164.0512	33
166.0621	33
167.0745	29
178.0652	13
181.0748	36
182.0748	13
