Mass spectrum: Proquinazid; LC-ESI-QTOF; MS2; 70 V
Name: Proquinazid
Class: Fungicide
Formula: C14H17IN2O2
Exact mass: 372.0335
SMILES: CCCN1C(=O)C2=C(C=CC(=C2)I)N=C1OCCC
InChI: InChI=1S/C14H17IN2O2/c1-3-7-17-13(18)11-9-10(15)5-6-12(11)16-14(17)19-8-4-2/h5-6,9H,3-4,7-8H2,1-2H3
Instrument: TripleTOF 6600 SCIEX
Instrument type: LC-ESI-QTOF
Ms type: MS2
Ion mode: POSITIVE
Collision energy: 70
Fragmentation mode: CID
Ionization: ESI
Column name: Zorbax Eclipse Plus C18 2.1 mm x 150 mm, 3.5 um, Agilent
Retention time: 17.121 min
Precursor m/z: 373.0408
Precursor type: [M+H]+
m/z	relative intensity
41.0425	11
62.0187	19
88.0214	12
89.0295	67
91.0449	13
92.0288	19
116.0394	34
117.0239	155
119.0394	52
144.0338	30
145.0182	248
162.0445	77
215.9307	999
242.9407	24
270.9346	51
271.9191	408
288.9453	22
