Mass spectrum: Oxfendazole; LC-ESI-QTOF; MS2; 100 V
Name: Oxfendazole
Class: Pharmaceutical
Formula: C15H13N3O3S
Exact mass: 315.0678
SMILES: COC(=O)Nc1[nH]c2cc(ccc2n1)[S](=O)c3ccccc3
InChI: InChI=1S/C15H13N3O3S/c1-21-15(19)18-14-16-12-8-7-11(9-13(12)17-14)22(20)10-5-3-2-4-6-10/h2-9H,1H3,(H2,16,17,18,19)
Instrument: TripleTOF 5600 SCIEX
Instrument type: LC-ESI-QTOF
Ms type: MS2
Ion mode: NEGATIVE
Collision energy: 100
Fragmentation mode: CID
Ionization: ESI
Column name: Zorbax Eclipse Plus C18 2.1 mm x 150 mm, 3.5 um, Agilent
Retention time: 6.579 min
Precursor m/z: 314.0605
Precursor type: [M-H]-
m/z	relative intensity
42.002	444
42.0091	111
42.0153	222
65.0162	333
76.0171	111
115.0275	888
129.0323	999
144.0209	555
145.0331	111
156.0178	111
157.0287	666
173.0166	111
