Mass spectrum: Fluopyram; LC-ESI-QTOF; MS2; 150 V
Name: Fluopyram
Class: Fungicide
Formula: C16H11ClF6N2O
Exact mass: 396.0464
SMILES: C1=CC=C(C(=C1)C(=O)NCCC2=C(C=C(C=N2)C(F)(F)F)Cl)C(F)(F)F
InChI: InChI=1S/C16H11ClF6N2O/c17-12-7-9(15(18,19)20)8-25-13(12)5-6-24-14(26)10-3-1-2-4-11(10)16(21,22)23/h1-4,7-8H,5-6H2,(H,24,26)
Instrument: TripleTOF 6600 SCIEX
Instrument type: LC-ESI-QTOF
Ms type: MS2
Ion mode: POSITIVE
Collision energy: 150
Fragmentation mode: CID
Ionization: ESI
Column name: Zorbax Eclipse Plus C18 2.1 mm x 150 mm, 3.5 um, Agilent
Retention time: 12.765 min
Precursor m/z: 397.0537
Precursor type: [M+H]+
m/z	relative intensity
50.015	38
51.0042	62
51.0218	23
57.013	26
68.995	190
69.0113	36
73.0071	85
74.0149	754
75.021	999
76.0178	18
81.013	24
92.9927	15
95.0288	133
99.0036	73
109.9781	12
119.0091	15
123.0348	20
125.0191	56
145.0243	27
