Mass spectrum: DEET; LC-ESI-QTOF; MS2; 110 V
Name: DEET
Class: Insecticide; Personal_care_product; Biocide
Formula: C12H17NO
Exact mass: 191.131
SMILES: CCN(CC)C(=O)c1cccc(C)c1
InChI: InChI=1S/C12H17NO/c1-4-13(5-2)12(14)11-8-6-7-10(3)9-11/h6-9H,4-5H2,1-3H3
Instrument: TripleTOF 5600 SCIEX
Instrument type: LC-ESI-QTOF
Ms type: MS2
Ion mode: POSITIVE
Collision energy: 110
Fragmentation mode: CID
Ionization: ESI
Column name: Zorbax Eclipse Plus C18 2.1 mm x 150 mm, 3.5 um, Agilent
Retention time: 10.421 min
Precursor m/z: 192.1383
Precursor type: [M+H]+
m/z	relative intensity
44.0202	546
51.0276	418
60.007	29
63.0494	29
65.0427	999
73.0105	24
74.0182	88
75.0247	34
77.0417	132
89.0396	49
91.0567	108
