Mass spectrum: Fluconazole; LC-ESI-QTOF; MS2; 150 V
Name: Fluconazole
Class: Pharmaceutical
Formula: C13H12F2N6O
Exact mass: 306.1041
SMILES: OC(Cn1cncn1)(Cn2cncn2)c3ccc(F)cc3F
InChI: InChI=1S/C13H12F2N6O/c14-10-1-2-11(12(15)3-10)13(22,4-20-8-16-6-18-20)5-21-9-17-7-19-21/h1-3,6-9,22H,4-5H2
Instrument: TripleTOF 5600 SCIEX
Instrument type: LC-ESI-QTOF
Ms type: MS2
Ion mode: POSITIVE
Collision energy: 150
Fragmentation mode: CID
Ionization: ESI
Column name: Zorbax Eclipse Plus C18 2.1 mm x 150 mm, 3.5 um, Agilent
Retention time: 6.343 min
Precursor m/z: 307.1113
Precursor type: [M+H]+
m/z	relative intensity
43.0368	151
51.0101	70
51.0286	121
57.0174	141
69.0166	50
70.0433	403
73.0105	80
74.0185	999
75.0068	171
75.0264	433
75.0433	70
81.0156	111
92.0079	40
93.0152	70
97.0075	100
98.0163	877
98.0385	40
99.0235	90
101.0201	70
105.0138	50
