Mass spectrum: Trifloxystrobin; LC-ESI-QTOF; MS2; 90 V
Name: Trifloxystrobin
Class: Fungicide
Formula: C20H19F3N2O4
Exact mass: 408.1297
SMILES: CC(=NOCC1=CC=CC=C1C(=NOC)C(=O)OC)C2=CC(=CC=C2)C(F)(F)F
InChI: InChI=1S/C20H19F3N2O4/c1-13(14-8-6-9-16(11-14)20(21,22)23)24-29-12-15-7-4-5-10-17(15)18(25-28-3)19(26)27-2/h4-11H,12H2,1-3H3
Instrument: TripleTOF 5600 SCIEX
Instrument type: LC-ESI-QTOF
Ms type: MS2
Ion mode: POSITIVE
Collision energy: 90
Fragmentation mode: CID
Ionization: ESI
Column name: Zorbax Eclipse Plus C18 2.1 mm x 150 mm, 3.5 um, Agilent
Retention time: 15.037 min
Precursor m/z: 409.137
Precursor type: [M+H]+
m/z	relative intensity
65.046	24
74.0207	32
75.0278	120
77.0443	51
78.0519	11
79.0586	10
89.0426	334
90.0496	100
91.058	114
95.0322	436
99.0067	14
103.0563	46
104.0586	23
105.0713	12
115.0441	32
116.0511	363
117.059	108
118.0663	122
119.0118	20
119.0492	10
123.0363	17
125.021	193
130.0664	233
131.074	170
132.0814	20
145.0262	999
146.0626	25
173.0328	20
186.0533	45
