Mass spectrum: (Benzyloxycarbonylmethyl)triphenylphosphonium; LC-ESI-QTOF; MS2; 90 V
Name: (Benzyloxycarbonylmethyl)triphenylphosphonium
Formula: [C27H24O2P]+
Exact mass: 411.1508
SMILES: C1=CC=C(C=C1)COC(=O)C[P+](C2=CC=CC=C2)(C3=CC=CC=C3)C4=CC=CC=C4
InChI: InChI=1S/C27H24O2P/c28-27(29-21-23-13-5-1-6-14-23)22-30(24-15-7-2-8-16-24,25-17-9-3-10-18-25)26-19-11-4-12-20-26/h1-20H,21-22H2/q+1
Instrument: TripleTOF 6600 SCIEX
Instrument type: LC-ESI-QTOF
Ms type: MS2
Ion mode: POSITIVE
Collision energy: 90
Fragmentation mode: CID
Ionization: ESI
Column name: Zorbax Eclipse Plus C18 2.1 mm x 150 mm, 3.5 um, Agilent
Retention time: 9.196 min
Precursor m/z: 411.1508
Precursor type: [M]+
m/z	relative intensity
65.0364	142
91.0508	398
152.0594	106
183.0337	999
228.0913	202
257.0496	164
259.0654	517
260.0727	56
275.0963	97
