Mass spectrum: 3,5-Dichloroaniline; LC-ESI-QTOF; MS2; 30 V
Name: 3,5-Dichloroaniline
Formula: C6H5Cl2N
Exact mass: 160.9799
SMILES: C1=C(C=C(C=C1Cl)Cl)N
InChI: InChI=1S/C6H5Cl2N/c7-4-1-5(8)3-6(9)2-4/h1-3H,9H2
Instrument: TripleTOF X500R SCIEX
Instrument type: LC-ESI-QTOF
Ms type: MS2
Ion mode: POSITIVE
Collision energy: 30
Fragmentation mode: CID
Ionization: ESI
Column name: Zorbax Eclipse Plus C18 2.1 mm x 150 mm, 3.5 um, Agilent
Retention time: 11.205 min
Precursor m/z: 161.9872
Precursor type: [M+H]+
m/z	relative intensity
90.0349	12
92.05	32
99.0002	18
100.0079	54
108.9843	116
126.0114	15
127.0181	999
144.9612	155
161.9875	175
172.9673	56
