Mass spectrum: Icaridin acid; LC-ESI-QTOF; MS2; 70 V
Name: Icaridin acid
Formula: C12H21NO4
Exact mass: 243.1471
SMILES: CCC(C)OC(=O)N1CCCCC1CC(O)=O
InChI: InChI=1S/C12H21NO4/c1-3-9(2)17-12(16)13-7-5-4-6-10(13)8-11(14)15/h9-10H,3-8H2,1-2H3,(H,14,15)
Instrument: TripleTOF 6600 SCIEX
Instrument type: LC-ESI-QTOF
Ms type: MS2
Ion mode: POSITIVE
Collision energy: 70
Fragmentation mode: CID
Ionization: ESI
Column name: Zorbax Eclipse Plus C18 2.1 mm x 150 mm, 3.5 um, Agilent
Retention time: 9.741 min
Precursor m/z: 244.1543
Precursor type: [M+H]+
m/z	relative intensity
30.0319	14
39.0208	51
41.0364	53
42.0316	40
55.0519	87
56.0475	535
57.0669	10
65.0363	15
67.0514	70
68.0471	15
69.0547	27
79.0518	15
82.0619	26
84.0785	999
