Mass spectrum: 3,7-Dimethylxanthine; LC-ESI-QTOF; MS2; 40 V
Name: 3,7-Dimethylxanthine
Class: Pharmaceutical; Natural_product
Formula: C7H8N4O2
Exact mass: 180.0647
SMILES: Cn1cnc2N(C)C(=O)NC(=O)c12
InChI: InChI=1S/C7H8N4O2/c1-10-3-8-5-4(10)6(12)9-7(13)11(5)2/h3H,1-2H3,(H,9,12,13)
Instrument: TripleTOF 5600 SCIEX
Instrument type: LC-ESI-QTOF
Ms type: MS2
Ion mode: NEGATIVE
Collision energy: 40
Fragmentation mode: CID
Ionization: ESI
Column name: Zorbax Eclipse Plus C18 2.1 mm x 150 mm, 3.5 um, Agilent
Retention time: 5.242 min
Precursor m/z: 179.0574
Precursor type: [M-H]-
m/z	relative intensity
45.0005	984
47.0107	313
65.9985	256
67.0293	57
79.0176	242
90.9975	999
92.0232	57
94.0412	328
107.0121	242
109.0287	71
122.036	570
134.9873	328
135.0058	242
135.0333	242
136.0384	71
164.0328	941
179.0573	542
