Mass spectrum: Methabenzthiazuron; LC-ESI-QTOF; MS2; 50 V
Name: Methabenzthiazuron
Class: Herbicide
Formula: C10H11N3OS
Exact mass: 221.0623
SMILES: CNC(=O)N(C)c1sc2ccccc2n1
InChI: InChI=1S/C10H11N3OS/c1-11-9(14)13(2)10-12-7-5-3-4-6-8(7)15-10/h3-6H,1-2H3,(H,11,14)
Instrument: TripleTOF 5600 SCIEX
Instrument type: LC-ESI-QTOF
Ms type: MS2
Ion mode: POSITIVE
Collision energy: 50
Fragmentation mode: CID
Ionization: ESI
Column name: Zorbax Eclipse Plus C18 2.1 mm x 150 mm, 3.5 um, Agilent
Retention time: 9.783 min
Precursor m/z: 222.0696
Precursor type: [M+H]+
m/z	relative intensity
65.043	22
80.0519	70
92.051	35
96.0041	131
106.0524	13
109.0106	57
118.0519	22
122.0055	17
123.0139	217
124.0211	134
132.0677	15
150.0247	999
165.0478	174
