Mass spectrum: Carbamazepine; LC-ESI-QTOF; MS2; 60 V
Name: Carbamazepine
Class: Pharmaceutical
Formula: C15H12N2O
Exact mass: 236.095
SMILES: NC(=O)N1c2ccccc2C=Cc3ccccc13
InChI: InChI=1S/C15H12N2O/c16-15(18)17-13-7-3-1-5-11(13)9-10-12-6-2-4-8-14(12)17/h1-10H,(H2,16,18)
Instrument: TripleTOF 5600 SCIEX
Instrument type: LC-ESI-QTOF
Ms type: MS2
Ion mode: POSITIVE
Collision energy: 60
Fragmentation mode: CID
Ionization: ESI
Column name: Zorbax Eclipse Plus C18 2.1 mm x 150 mm, 3.5 um, Agilent
Retention time: 8.87 min
Precursor m/z: 237.1022
Precursor type: [M+H]+
m/z	relative intensity
65.0429	17
77.041	10
89.0403	102
90.0483	55
91.0564	24
115.0541	55
116.05	29
117.0581	51
126.0437	10
127.0544	14
128.0538	48
139.054	84
140.0499	60
141.0701	10
150.0457	36
151.0552	199
152.0616	311
153.0582	74
163.0537	69
164.0615	156
165.0702	724
166.0669	151
167.0735	321
176.0617	60
177.0584	114
178.0656	452
179.0729	472
189.0626	10
190.0658	303
191.0733	911
192.0812	999
193.0889	720
194.0966	94
