Mass spectrum: Parathion-methyl; LC-ESI-QTOF; MS2; 40 V
Name: Parathion-methyl
Class: Insecticide
Formula: C8H10NO5PS
Exact mass: 263.0017
SMILES: COP(=S)(OC)OC1=CC=C(C=C1)[N+](=O)[O-]
InChI: InChI=1S/C8H10NO5PS/c1-12-15(16,13-2)14-8-5-3-7(4-6-8)9(10)11/h3-6H,1-2H3
Instrument: TripleTOF 6600 SCIEX
Instrument type: LC-ESI-QTOF
Ms type: MS2
Ion mode: POSITIVE
Collision energy: 40
Fragmentation mode: CID
Ionization: ESI
Column name: Zorbax Eclipse Plus C18 2.1 mm x 150 mm, 3.5 um, Agilent
Retention time: 12.495 min
Precursor m/z: 264.009
Precursor type: [M+H]+
m/z	relative intensity
44.9787	55
46.9677	23
46.9939	186
62.0171	55
62.9458	15
63.0217	43
64.0282	59
65.0381	23
69.9857	15
75.0212	340
76.0292	27
78.993	642
91.0544	19
92.024	309
93.0091	35
93.0332	31
96.0012	111
107.9996	43
109.0028	360
110.0203	27
122.023	51
123.0289	67
123.9972	71
124.9801	999
125.0085	19
125.9682	19
126.9747	19
127.0146	43
137.9849	15
139.0174	59
141.9652	23
142.9958	39
150.0282	154
152.9558	31
153.9623	372
154.9696	471
155.9776	55
156.9858	23
170.9626	55
184.981	114
185.9885	182
199.9564	170
214.976	51
214.9852	23
218.0187	31
231.9813	95
