Mass spectrum: Fenoprop; LC-ESI-QTOF; MS2; 110 V
Name: Fenoprop
Class: Herbicide
Formula: C9H7Cl3O3
Exact mass: 267.9461
SMILES: CC(C(=O)O)OC1=CC(=C(C=C1Cl)Cl)Cl
InChI: InChI=1S/C9H7Cl3O3/c1-4(9(13)14)15-8-3-6(11)5(10)2-7(8)12/h2-4H,1H3,(H,13,14)
Instrument: TripleTOF 5600 SCIEX
Instrument type: LC-ESI-QTOF
Ms type: MS2
Ion mode: NEGATIVE
Collision energy: 110
Fragmentation mode: CID
Ionization: ESI
Column name: Zorbax Eclipse Plus C18 2.1 mm x 150 mm, 3.5 um, Agilent
Retention time: 12.087 min
Precursor m/z: 266.9388
Precursor type: [M-H]-
m/z	relative intensity
34.9691	999
59.9995	90
94.9685	181
