Mass spectrum: Fenarimol; LC-ESI-QTOF; MS2; 140 V
Name: Fenarimol
Class: Fungicide
Formula: C17H12Cl2N2O
Exact mass: 330.0327
SMILES: C1=CC=C(C(=C1)C(C2=CC=C(C=C2)Cl)(C3=CN=CN=C3)O)Cl
InChI: InChI=1S/C17H12Cl2N2O/c18-14-7-5-12(6-8-14)17(22,13-9-20-11-21-10-13)15-3-1-2-4-16(15)19/h1-11,22H
Instrument: TripleTOF 6600 SCIEX
Instrument type: LC-ESI-QTOF
Ms type: MS2
Ion mode: POSITIVE
Collision energy: 140
Fragmentation mode: CID
Ionization: ESI
Column name: Zorbax Eclipse Plus C18 2.1 mm x 150 mm, 3.5 um, Agilent
Retention time: 11.9 min
Precursor m/z: 331.04
Precursor type: [M+H]+
m/z	relative intensity
49.0065	37
50.0148	170
51.023	79
52.0179	31
54.0333	37
62.0142	21
63.0229	85
73.0065	100
74.0148	999
75.0227	531
76.0304	42
77.0379	37
84.9831	95
85.0062	31
86.0148	53
87.0222	90
89.0383	42
98.0136	53
99.0227	26
102.0455	37
110.0139	37
110.9987	47
111.0219	26
113.0381	37
115.0536	26
122.0144	26
126.0469	26
134.0148	26
137.0377	53
139.0541	37
149.0382	26
150.0459	95
151.0532	47
161.0389	111
162.0462	47
163.0547	116
174.046	26
176.0612	53
185.0377	138
186.0469	127
187.0541	276
212.0502	31
