Mass spectrum: 4'-O-Demethyl pantoprazole sulfide; LC-ESI-QTOF; MS2; 90 V
Name: 4'-O-Demethyl pantoprazole sulfide
Class: Pharmaceutical; Transformation_product-Metabolite
Formula: C15H13F2N3O3S
Exact mass: 353.0646
SMILES: COC1=C(NC=CC1=O)CSC2=NC3=C(N2)C=C(C=C3)OC(F)F
InChI: InChI=1S/C15H13F2N3O3S/c1-22-13-11(18-5-4-12(13)21)7-24-15-19-9-3-2-8(23-14(16)17)6-10(9)20-15/h2-6,14H,7H2,1H3,(H,18,21)(H,19,20)
Instrument: TripleTOF 6600 SCIEX
Instrument type: LC-ESI-QTOF
Ms type: MS2
Ion mode: POSITIVE
Collision energy: 90
Fragmentation mode: CID
Ionization: ESI
Column name: Zorbax Eclipse Plus C18 2.1 mm x 150 mm, 3.5 um, Agilent
Retention time: 7.57 min
Precursor m/z: 354.0719
Precursor type: [M+H]+
m/z	relative intensity
37.0064	35
38.014	35
39.0221	312
41.0251	44
41.038	22
42.033	189
43.0173	35
44.0123	15
51.0221	34
52.0181	19
53.0008	55
53.0378	999
54.033	49
55.0178	66
62.0153	26
63.022	282
64.0167	49
65.0377	115
66.0089	145
66.032	78
66.0445	33
67.017	334
67.0399	304
68.0116	122
68.0484	30
70.0277	72
70.9932	15
72.0017	11
78.033	61
79.0401	31
80.0117	37
80.0484	527
81.0323	108
82.0285	16
82.0628	52
83.0353	49
86.0034	34
90.0323	129
91.0416	24
92.0482	127
93.0564	81
94.0276	188
95.0343	213
96.0431	178
98.005	22
98.0594	13
99.0112	79
106.0501	28
107.0592	67
108.0427	265
109.0506	31
110.059	85
111.0303	41
117.0432	111
118.0513	136
120.0425	41
125.999	338
126.0517	11
127.007	101
134.045	22
135.0529	291
136.0375	290
137.0143	31
138.0004	11
138.0522	31
140.0168	20
142.0497	20
147.053	9
155.0038	27
159.0555	24
165.0077	11
166.0164	37
