Mass spectrum: Betamethasone; LC-ESI-QTOF; MS2; 40 V
Name: Betamethasone
Class: Pharmaceutical
Formula: C22H29FO5
Exact mass: 392.1999
SMILES: C[C@H]1C[C@H]2[C@@H]3CCC4=CC(=O)C=C[C@@]4([C@]3([C@H](C[C@@]2([C@]1(C(=O)CO)O)C)O)F)C
InChI: InChI=1S/C22H29FO5/c1-12-8-16-15-5-4-13-9-14(25)6-7-19(13,2)21(15,23)17(26)10-20(16,3)22(12,28)18(27)11-24/h6-7,9,12,15-17,24,26,28H,4-5,8,10-11H2,1-3H3/t12-,15-,16-,17-,19-,20-,21-,22-/m0/s1
Instrument: TripleTOF 5600 SCIEX
Instrument type: LC-ESI-QTOF
Ms type: MS2
Ion mode: POSITIVE
Collision energy: 40
Fragmentation mode: CID
Ionization: ESI
Column name: Zorbax Eclipse Plus C18 2.1 mm x 150 mm, 3.5 um, Agilent
Retention time: 9.016 min
Precursor m/z: 393.2072
Precursor type: [M+H]+
m/z	relative intensity
43.0318	17
55.0261	9
57.0428	11
67.0599	19
69.0401	15
69.0755	19
77.0427	27
79.0591	39
81.0737	27
83.0536	13
91.0584	81
93.0715	97
95.0522	19
95.0875	128
97.0676	33
103.0571	11
105.0716	130
107.0539	17
107.0874	210
109.0668	37
109.1011	99
111.0823	19
115.0531	27
117.071	39
119.0484	9
119.0862	152
121.0656	305
121.1022	95
123.0812	103
125.0611	35
125.0972	27
127.0556	9
128.0645	41
129.0687	25
131.0856	136
132.0579	17
133.0638	77
133.1025	61
135.0815	301
135.1178	11
137.0593	31
137.0971	69
141.0699	35
142.0776	23
143.0861	124
144.0572	11
145.065	120
145.1021	73
146.072	13
147.0808	999
147.1125	19
149.094	140
151.0734	51
151.1098	13
153.0688	9
153.0921	55
153.1098	9
155.0852	69
157.0612	11
157.1033	47
158.0709	41
159.0808	338
159.1157	11
160.0871	19
161.0611	13
161.0957	227
163.0758	23
163.1103	19
165.0654	17
165.0865	17
167.0867	31
167.109	29
168.092	13
169.0668	31
169.1022	23
170.0716	11
171.0809	600
171.1156	31
172.084	19
173.0955	362
175.0772	15
175.1117	37
177.0909	53
178.0747	19
179.0877	71
181.066	27
181.0986	41
182.0738	19
182.1048	11
183.0818	57
183.115	19
184.0899	17
185.0677	11
185.096	271
187.0734	128
187.1129	79
189.0734	15
189.0892	21
190.076	17
191.0874	25
192.0922	23
193.1011	77
194.0704	11
194.1079	23
195.0825	67
195.1155	47
196.0905	53
197.0969	241
197.1323	19
198.1067	23
199.0764	15
199.1107	144
201.0949	15
202.0778	15
203.0852	15
203.1029	23
204.0936	47
205.1003	37
206.0711	17
206.1119	15
207.0765	11
207.1166	57
208.0873	97
209.0949	198
209.1327	43
210.1066	75
210.125	9
211.0783	23
211.1114	279
211.1435	19
212.121	71
213.0938	23
213.1284	144
215.0817	9
215.1063	162
216.0908	15
217.1021	29
218.1085	15
219.0847	13
219.1151	91
220.0892	19
220.1255	21
221.0934	166
221.1292	45
222.1054	180
223.1122	327
224.1196	103
225.0973	13
225.1281	118
226.0989	11
227.0902	13
227.1093	13
227.1461	37
229.095	15
230.1108	33
231.0846	9
231.1192	45
232.0885	11
232.1215	25
233.0932	25
233.1306	23
234.1049	91
235.111	265
235.1541	21
236.1198	47
236.1486	11
236.1618	17
237.0922	23
237.1277	378
238.1276	19
239.1097	59
239.1433	247
241.1199	23
241.1657	9
242.1067	19
243.1177	35
244.1235	35
245.1021	25
245.1318	37
246.1043	35
246.1399	17
247.1095	67
247.1493	31
248.1181	160
248.1521	11
249.1274	216
249.1628	19
250.1338	49
250.1677	17
251.1035	33
251.144	71
251.1746	19
252.1513	59
253.121	53
253.1576	89
255.1173	13
255.1368	13
257.0957	9
257.128	27
258.1045	11
258.1451	25
259.1125	87
259.1423	37
260.1182	83
261.1281	162
261.1631	17
262.1334	178
263.101	13
263.143	451
263.1845	13
264.1103	21
264.1505	85
265.1213	11
265.1566	65
266.167	15
267.1257	13
267.143	25
267.1728	13
268.1299	17
271.1113	39
271.1499	15
272.1176	51
273.1271	31
274.1362	81
275.1033	15
275.1425	103
276.109	9
276.1502	130
277.1169	13
277.1321	21
277.1588	259
278.1212	23
278.1675	196
279.1439	21
279.1748	493
281.15	23
281.1819	15
283.1503	19
285.127	15
286.1352	83
287.1452	21
289.1234	39
289.1583	99
290.1267	11
290.162	13
291.1409	29
291.1728	120
293.1524	27
294.16	11
295.1347	17
295.1692	53
296.1814	17
297.1783	17
301.1608	93
304.1418	27
306.1638	37
307.1663	51
309.1886	41
311.1641	25
319.1725	81
337.1776	27
337.1929	13
355.1889	21
