Mass spectrum: 7-Amino-4-methylcoumarin; LC-ESI-QTOF; MS2; 10 V
Name: 7-Amino-4-methylcoumarin
Formula: C10H9NO2
Exact mass: 175.0633
SMILES: CC1=CC(=O)OC2=C1C=CC(=C2)N
InChI: InChI=1S/C10H9NO2/c1-6-4-10(12)13-9-5-7(11)2-3-8(6)9/h2-5H,11H2,1H3
Instrument: TripleTOF X500R SCIEX
Instrument type: LC-ESI-QTOF
Ms type: MS2
Ion mode: POSITIVE
Collision energy: 10
Fragmentation mode: CID
Ionization: ESI
Column name: Zorbax Eclipse Plus C18 2.1 mm x 150 mm, 3.5 um, Agilent
Retention time: 7.107 min
Precursor m/z: 176.0706
Precursor type: [M+H]+
m/z	relative intensity
176.0706	999
