Mass spectrum: Oxadixyl; LC-ESI-QTOF; MS2; 50 V
Name: Oxadixyl
Class: Fungicide
Formula: C14H18N2O4
Exact mass: 278.1267
SMILES: CC1=C(C(=CC=C1)C)N(C(=O)COC)N2CCOC2=O
InChI: InChI=1S/C14H18N2O4/c1-10-5-4-6-11(2)13(10)16(12(17)9-19-3)15-7-8-20-14(15)18/h4-6H,7-9H2,1-3H3
Instrument: TripleTOF 6600 SCIEX
Instrument type: LC-ESI-QTOF
Ms type: MS2
Ion mode: POSITIVE
Collision energy: 50
Fragmentation mode: CID
Ionization: ESI
Column name: Zorbax Eclipse Plus C18 2.1 mm x 150 mm, 3.5 um, Agilent
Retention time: 8.678 min
Precursor m/z: 279.1339
Precursor type: [M+H]+
m/z	relative intensity
45.0325	89
77.0366	56
79.0524	20
91.0522	72
102.0526	16
103.0526	16
105.0681	101
115.0529	12
117.0556	260
118.063	118
119.0834	64
120.0786	58
130.0641	12
131.0715	10
132.079	999
133.0867	72
134.0934	20
145.0732	10
201.0422	10
