Mass spectrum: 2-Methyl-4`-(methylthio)-2-morpholinopropiophenone; LC-ESI-QTOF; MS2; 40 V
Name: 2-Methyl-4`-(methylthio)-2-morpholinopropiophenone
Class: Industrial_process
Formula: C15H21NO2S
Exact mass: 279.1293
SMILES: CC(C)(C(=O)C1=CC=C(C=C1)SC)N2CCOCC2
InChI: InChI=1S/C15H21NO2S/c1-15(2,16-8-10-18-11-9-16)14(17)12-4-6-13(19-3)7-5-12/h4-7H,8-11H2,1-3H3
Instrument: TripleTOF 6600 SCIEX
Instrument type: LC-ESI-QTOF
Ms type: MS2
Ion mode: POSITIVE
Collision energy: 40
Fragmentation mode: CID
Ionization: ESI
Column name: Zorbax Eclipse Plus C18 2.1 mm x 150 mm, 3.5 um, Agilent
Retention time: 7.548 min
Precursor m/z: 280.1366
Precursor type: [M+H]+
m/z	relative intensity
70.0652	79
88.0759	297
91.0538	14
115.0538	61
117.0698	418
118.0774	88
125.0413	19
128.1064	117
131.0485	29
135.0255	27
137.0418	284
145.0639	16
146.0725	103
149.0409	11
150.0494	90
165.0734	999
