Mass spectrum: Sethoxydim; LC-ESI-QTOF; MS2; 30 V
Name: Sethoxydim
Class: Herbicide
Formula: C17H29NO3S
Exact mass: 327.1868
SMILES: CCCC(=C1C(=O)CC(CC1=O)CC(C)SCC)NOCC
InChI: InChI=1S/C17H29NO3S/c1-5-8-14(18-21-6-2)17-15(19)10-13(11-16(17)20)9-12(4)22-7-3/h12-13,18H,5-11H2,1-4H3
Instrument: TripleTOF 5600 SCIEX
Instrument type: LC-ESI-QTOF
Ms type: MS2
Ion mode: POSITIVE
Collision energy: 30
Fragmentation mode: CID
Ionization: ESI
Column name: Zorbax Eclipse Plus C18 2.1 mm x 150 mm, 3.5 um, Agilent
Retention time: 16.132 min
Precursor m/z: 328.1941
Precursor type: [M+H]+
m/z	relative intensity
89.0433	33
95.0509	53
105.069	39
109.0642	33
110.0606	99
112.0754	86
117.0684	39
122.093	26
133.0661	26
134.0601	66
150.0902	139
160.0759	26
161.0597	59
163.0788	26
176.1072	59
178.0862	999
178.1276	26
180.1019	499
180.138	26
192.1378	113
203.1055	39
220.1336	153
222.1483	39
223.1611	33
254.1213	139
282.1469	39
