Mass spectrum: 2,2,4-Trimethyl-1,2-dihydroquinoline; LC-ESI-QTOF; MS2; 80 V
Name: 2,2,4-Trimethyl-1,2-dihydroquinoline
Class: Industrial_process
Formula: C12H15N
Exact mass: 173.1204
SMILES: CC1=CC(NC2=CC=CC=C12)(C)C
InChI: InChI=1S/C12H15N/c1-9-8-12(2,3)13-11-7-5-4-6-10(9)11/h4-8,13H,1-3H3
Instrument: TripleTOF 6600 SCIEX
Instrument type: LC-ESI-QTOF
Ms type: MS2
Ion mode: POSITIVE
Collision energy: 80
Fragmentation mode: CID
Ionization: ESI
Column name: Zorbax Eclipse Plus C18 2.1 mm x 150 mm, 3.5 um, Agilent
Retention time: 12.497 min
Precursor m/z: 174.1277
Precursor type: [M+H]+
m/z	relative intensity
35.9986	19
37.0067	125
38.0028	11
38.0143	111
39.0226	754
41.0378	63
42.0329	14
49.0061	26
50.0143	248
51.0223	999
52.0175	16
52.0301	12
53.0372	13
61.0059	17
62.0141	84
63.0221	352
64.0299	41
65.0378	609
66.0452	13
67.0405	12
74.0137	81
75.0217	139
76.0294	34
77.0377	960
78.0446	24
79.0525	9
86.0134	9
87.0219	13
89.0375	826
90.045	132
91.053	260
93.0556	16
101.0367	33
102.0442	61
103.0529	81
105.0424	13
114.0442	13
115.0528	733
116.0478	24
116.0601	52
117.0552	69
126.0448	58
127.0518	54
128.049	43
128.0591	42
129.044	13
130.0636	61
140.0481	14
141.0558	13
142.0636	27
143.0708	52
144.0794	9
156.079	9
