Mass spectrum: Dronabinol; LC-ESI-QTOF; MS2; 60 V
Name: Dronabinol
Class: Pharmaceutical
Formula: C21H30O2
Exact mass: 314.2246
SMILES: CCCCCC1=CC(=C2C3C=C(CCC3C(OC2=C1)(C)C)C)O
InChI: InChI=1S/C21H30O2/c1-5-6-7-8-15-12-18(22)20-16-11-14(2)9-10-17(16)21(3,4)23-19(20)13-15/h11-13,16-17,22H,5-10H2,1-4H3
Instrument: TripleTOF 6600 SCIEX
Instrument type: LC-ESI-QTOF
Ms type: MS2
Ion mode: POSITIVE
Collision energy: 60
Fragmentation mode: CID
Ionization: ESI
Column name: Zorbax Eclipse Plus C18 2.1 mm x 150 mm, 3.5 um, Agilent
Retention time: 17.589 min
Precursor m/z: 315.2319
Precursor type: [M+H]+
m/z	relative intensity
37.0065	22
38.0146	15
39.0226	198
41.0383	476
43.0164	26
43.0538	213
51.0217	17
53.0377	47
55.0172	71
55.0535	96
57.0685	22
65.0375	145
67.0535	432
68.9974	10
69.0319	43
69.069	227
77.0376	699
79.0528	510
80.0599	19
81.0324	26
81.0692	529
83.0116	33
83.0474	19
91.0532	715
92.061	12
93.0316	15
93.0688	329
95.0482	238
95.0835	40
103.0518	56
105.0407	17
105.0691	241
107.0477	236
107.0844	154
108.0558	68
109.0277	21
109.0639	157
109.1003	49
111.0428	38
115.0541	64
116.0602	19
117.0693	45
119.0522	29
119.0847	57
121.0639	96
121.0992	38
123.0427	999
127.0514	28
128.0606	64
129.0688	33
130.0758	10
131.0472	38
131.0847	35
132.0548	12
133.0635	43
133.0993	19
135.0425	24
135.08	15
136.0505	113
137.058	154
141.0688	54
142.0754	22
143.0824	15
144.0576	22
145.0633	43
145.1004	17
147.0425	75
147.0777	24
153.068	12
155.0835	12
157.0605	19
157.0982	10
158.0731	17
159.0441	12
159.0773	26
160.0509	91
161.0571	99
161.0709	12
162.0636	12
165.0719	10
165.0908	12
169.0703	14
171.0805	29
173.0571	52
174.065	120
175.0765	47
177.1264	31
184.0834	10
184.0953	14
185.0924	12
187.0751	87
188.0787	19
188.0898	12
193.121	138
201.0864	10
202.097	26
217.1192	24
231.1405	42
259.1646	10
