Mass spectrum: Dimoxystrobin; LC-ESI-QTOF; MS2; 20 V
Name: Dimoxystrobin
Class: Fungicide
Formula: C19H22N2O3
Exact mass: 326.163
SMILES: CC1=CC(=C(C=C1)C)OCC2=CC=CC=C2C(=NOC)C(=O)NC
InChI: InChI=1S/C19H22N2O3/c1-13-9-10-14(2)17(11-13)24-12-15-7-5-6-8-16(15)18(21-23-4)19(22)20-3/h5-11H,12H2,1-4H3,(H,20,22)
Instrument: TripleTOF 6600 SCIEX
Instrument type: LC-ESI-QTOF
Ms type: MS2
Ion mode: POSITIVE
Collision energy: 20
Fragmentation mode: CID
Ionization: ESI
Column name: Zorbax Eclipse Plus C18 2.1 mm x 150 mm, 3.5 um, Agilent
Retention time: 13.184 min
Precursor m/z: 327.1703
Precursor type: [M+H]+
m/z	relative intensity
58.0299	83
116.0506	489
205.0981	999
210.1282	16
223.1005	20
238.1233	116
280.1333	16
