Mass spectrum: Butyl-triphenylphosphonium; LC-ESI-QTOF; MS2; 130 V
Name: Butyl-triphenylphosphonium
Class: Industrial_process
Formula: [C22H24P]+
Exact mass: 319.161
SMILES: CCCC[P+](c1ccccc1)(c2ccccc2)c3ccccc3
InChI: InChI=1S/C22H24P/c1-2-3-19-23(20-13-7-4-8-14-20,21-15-9-5-10-16-21)22-17-11-6-12-18-22/h4-18H,2-3,19H2,1H3/q+1
Instrument: TripleTOF 5600 SCIEX
Instrument type: LC-ESI-QTOF
Ms type: MS2
Ion mode: POSITIVE
Collision energy: 130
Fragmentation mode: CID
Ionization: ESI
Column name: Zorbax Eclipse Plus C18 2.1 mm x 150 mm, 3.5 um, Agilent
Retention time: 8.852 min
Precursor m/z: 319.161
Precursor type: [M]+
m/z	relative intensity
65.0415	63
79.9833	121
80.9911	204
89.0394	255
102.0464	111
107.0049	886
113.0384	100
115.0546	392
126.046	273
131.0053	100
133.0214	90
139.0552	337
150.0466	214
151.0549	548
152.0628	999
155.0049	50
156.0136	104
157.0206	560
180.013	76
181.0205	434
183.0365	184
226.0807	69
255.0351	53
