Mass spectrum: Estrone; LC-ESI-QTOF; MS2; 70 V
Name: Estrone
Class: Pharmaceutical
Formula: C18H22O2
Exact mass: 270.162
SMILES: CC12CCC3C(C1CCC2=O)CCC4=C3C=CC(=C4)O
InChI: InChI=1S/C18H22O2/c1-18-9-8-14-13-5-3-12(19)10-11(13)2-4-15(14)16(18)6-7-17(18)20/h3,5,10,14-16,19H,2,4,6-9H2,1H3
Instrument: TripleTOF 5600 SCIEX
Instrument type: LC-ESI-QTOF
Ms type: MS2
Ion mode: POSITIVE
Collision energy: 70
Fragmentation mode: CID
Ionization: ESI
Column name: Zorbax Eclipse Plus C18 2.1 mm x 150 mm, 3.5 um, Agilent
Retention time: 11.224 min
Precursor m/z: 271.1693
Precursor type: [M+H]+
m/z	relative intensity
39.0228	22
41.0385	25
43.0177	55
51.0228	43
53.0384	18
55.0177	35
55.0539	14
63.0227	14
65.0385	99
67.0542	62
71.0488	15
77.0384	647
78.0465	15
79.0541	381
81.0698	55
89.0385	59
91.0541	480
93.0698	18
94.0412	47
101.039	11
102.0461	28
103.054	381
104.0618	14
105.0697	546
107.0491	302
114.0471	10
115.0539	999
116.0619	408
117.0699	58
118.0403	21
121.0644	19
126.0461	35
127.0541	465
128.0616	678
129.0697	221
130.077	14
131.0492	378
131.083	27
132.0564	64
133.0645	295
139.0545	51
140.0615	15
141.0698	298
142.0776	16
143.0489	18
143.0847	10
144.0567	680
145.0637	59
151.0543	61
152.062	295
153.0699	222
154.0777	44
155.0844	51
157.0649	406
158.0731	29
159.0804	55
163.0553	10
164.0621	34
165.0698	362
166.0775	37
167.0844	45
168.056	24
169.065	68
170.0718	35
171.0803	32
176.062	26
177.0691	47
178.0774	143
179.0856	74
181.0651	349
182.0723	87
183.081	48
189.0694	16
191.0858	12
194.0729	28
195.0801	35
197.0959	17
