Mass spectrum: Azacyclonol; LC-ESI-QTOF; MS2; 140 V
Name: Azacyclonol
Class: Pharmaceutical
Formula: C18H21NO
Exact mass: 267.1623
SMILES: OC(C1CCNCC1)(C2=CC=CC=C2)C3=CC=CC=C3
InChI: InChI=1S/C18H21NO/c20-18(15-7-3-1-4-8-15,16-9-5-2-6-10-16)17-11-13-19-14-12-17/h1-10,17,19-20H,11-14H2
Instrument: TripleTOF 5600 SCIEX
Instrument type: LC-ESI-QTOF
Ms type: MS2
Ion mode: POSITIVE
Collision energy: 140
Fragmentation mode: CID
Ionization: ESI
Column name: Zorbax Eclipse Plus C18 2.1 mm x 150 mm, 3.5 um, Agilent
Retention time: 6.644 min
Precursor m/z: 268.1696
Precursor type: [M+H]+
m/z	relative intensity
37.0078	164
38.0149	89
39.0231	566
42.0346	134
50.0154	342
51.0231	999
52.0307	89
56.0499	164
61.0069	164
62.0148	342
63.0227	626
65.0387	834
67.0402	59
74.0151	372
75.0225	223
76.0306	283
77.0389	760
78.0469	193
84.0799	104
86.0138	104
87.0224	104
89.039	313
91.0537	298
98.0158	134
101.0376	89
102.0462	328
113.0416	74
115.0542	328
126.0453	178
127.0534	193
128.0622	89
139.0572	89
150.0497	223
151.0539	164
152.0597	89
163.0522	283
164.0599	89
176.0589	89
186.0445	59
187.0524	134
200.0649	74
