Mass spectrum: Reserpine; LC-ESI-QTOF; MS2; 150 V
Name: Reserpine
Class: Natural_product; Pharmaceutical
Formula: C33H40N2O9
Exact mass: 608.2734
SMILES: COC1C(CC2CN3CCC4=C(C3CC2C1C(=O)OC)NC5=C4C=CC(=C5)OC)OC(=O)C6=CC(=C(C(=C6)OC)OC)OC
InChI: InChI=1S/C33H40N2O9/c1-38-19-7-8-20-21-9-10-35-16-18-13-27(44-32(36)17-11-25(39-2)30(41-4)26(12-17)40-3)31(42-5)28(33(37)43-6)22(18)15-24(35)29(21)34-23(20)14-19/h7-8,11-12,14,18,22,24,27-28,31,34H,9-10,13,15-16H2,1-6H3
Instrument: TripleTOF 5600 SCIEX
Instrument type: LC-ESI-QTOF
Ms type: MS2
Ion mode: POSITIVE
Collision energy: 150
Fragmentation mode: CID
Ionization: ESI
Column name: Zorbax Eclipse Plus C18 2.1 mm x 150 mm, 3.5 um, Agilent
Retention time: 8.6 min
Precursor m/z: 609.2807
Precursor type: [M+H]+
m/z	relative intensity
65.0456	53
66.0528	31
67.0602	17
77.0442	226
78.0513	57
79.0234	13
79.0591	38
80.0538	13
81.0384	111
89.0429	56
90.0512	52
91.0585	124
92.0291	42
92.0522	11
93.0369	14
93.0608	21
94.0089	32
94.045	24
94.0685	11
95.0529	26
96.0611	13
102.0502	26
103.0578	167
104.0529	78
105.0373	14
105.0614	33
106.0687	11
107.0166	80
108.0227	16
108.0615	13
109.0305	92
114.0503	11
115.0567	273
116.0586	96
117.0602	207
118.068	74
121.031	105
121.0649	11
122.04	35
127.0561	49
128.0568	105
129.0616	15
129.0729	13
130.0673	999
131.0515	15
131.0747	583
132.0449	59
132.082	12
137.0245	76
139.0549	17
140.0534	31
141.0604	51
142.0666	128
143.0744	209
144.0573	13
144.0828	65
145.0551	31
145.0905	10
146.0605	36
151.0396	112
152.0624	64
153.065	28
154.0657	130
155.0716	64
156.0796	65
158.0612	85
159.0692	102
160.0784	19
164.0617	11
165.0721	50
166.0655	42
167.0736	124
168.0804	76
169.0566	10
169.0787	31
170.0592	74
171.0711	14
172.0764	21
173.0848	20
174.0926	24
176.0609	26
177.0668	20
178.0682	45
179.0748	28
180.0813	103
181.0876	36
182.0601	18
182.0868	16
183.0676	16
184.0754	19
189.0725	32
190.067	37
191.0737	94
192.0821	97
193.0824	57
194.0918	51
195.0954	23
196.0772	20
197.0742	11
199.0925	11
202.0749	35
203.0745	47
204.0809	148
205.0877	62
206.0889	67
207.092	62
208.0786	22
208.0999	11
210.0943	11
215.0794	20
216.0808	60
217.0886	112
218.0957	57
219.0954	27
220.0753	23
220.1	11
221.0793	20
221.1071	21
222.0868	11
228.0808	25
229.0873	24
230.0927	43
231.1047	18
232.0775	12
232.1045	11
233.0849	14
234.0862	16
236.0937	10
241.0875	13
245.1045	18
246.0896	23
