Mass spectrum: Mesotrione; LC-ESI-QTOF; MS2; 90 V
Name: Mesotrione
Class: Herbicide
Formula: C14H13NO7S
Exact mass: 339.0413
SMILES: CS(=O)(=O)C1=CC(=C(C=C1)C(=O)C2C(=O)CCCC2=O)[N+](=O)[O-]
InChI: InChI=1S/C14H13NO7S/c1-23(21,22)8-5-6-9(10(7-8)15(19)20)14(18)13-11(16)3-2-4-12(13)17/h5-7,13H,2-4H2,1H3
Instrument: TripleTOF 6600 SCIEX
Instrument type: LC-ESI-QTOF
Ms type: MS2
Ion mode: POSITIVE
Collision energy: 90
Fragmentation mode: CID
Ionization: ESI
Column name: Zorbax Eclipse Plus C18 2.1 mm x 150 mm, 3.5 um, Agilent
Retention time: 9.26 min
Precursor m/z: 340.0486
Precursor type: [M+H]+
m/z	relative intensity
39.0229	121
49.0076	60
50.0148	287
51.0229	181
53.0017	514
55.0176	136
62.0143	121
62.9891	90
63.0222	302
68.9964	272
74.0145	272
75.0105	302
75.0223	877
76.0177	999
77.0253	166
77.0377	75
91.0165	90
92.0255	136
102.046	75
103.0169	75
104.0137	105
115.0525	75
139.054	151
