Mass spectrum: Clodinafop-Propargyl; LC-ESI-QTOF; MS2; 10 V
Name: Clodinafop-Propargyl
Class: Herbicide
Formula: C17H13ClFNO4
Exact mass: 349.0517
SMILES: CC(C(=O)OCC#C)OC1=CC=C(C=C1)OC2=C(C=C(C=N2)Cl)F
InChI: InChI=1S/C17H13ClFNO4/c1-3-8-22-17(21)11(2)23-13-4-6-14(7-5-13)24-16-15(19)9-12(18)10-20-16/h1,4-7,9-11H,8H2,2H3
Instrument: TripleTOF 6600 SCIEX
Instrument type: LC-ESI-QTOF
Ms type: MS2
Ion mode: POSITIVE
Collision energy: 10
Fragmentation mode: CID
Ionization: ESI
Column name: Zorbax Eclipse Plus C18 2.1 mm x 150 mm, 3.5 um, Agilent
Retention time: 13.951 min
Precursor m/z: 350.059
Precursor type: [M+H]+
m/z	relative intensity
266.0369	41
350.0599	999
