Mass spectrum: 4-Aminoazobenzene; LC-ESI-QTOF; MS2; 80 V
Name: 4-Aminoazobenzene
Formula: C12H11N3
Exact mass: 197.0953
SMILES: C1=CC=C(C=C1)N=NC2=CC=C(C=C2)N
InChI: InChI=1S/C12H11N3/c13-10-6-8-12(9-7-10)15-14-11-4-2-1-3-5-11/h1-9H,13H2
Instrument: TripleTOF 6600 SCIEX
Instrument type: LC-ESI-QTOF
Ms type: MS2
Ion mode: POSITIVE
Collision energy: 80
Fragmentation mode: CID
Ionization: ESI
Column name: Zorbax Eclipse Plus C18 2.1 mm x 150 mm, 3.5 um, Agilent
Retention time: 12.247 min
Precursor m/z: 198.1026
Precursor type: [M+H]+
m/z	relative intensity
37.0071	15
39.0228	48
49.0072	52
50.0153	671
51.023	999
52.0182	10
52.0303	48
65.0377	64
66.0457	31
74.0144	59
75.0218	33
76.0299	127
77.0379	157
78.033	71
79.0404	12
92.0483	12
93.0558	14
105.0436	92
