Mass spectrum: Amisulpride; LC-ESI-QTOF; MS2; 70 V
Name: Amisulpride
Class: Pharmaceutical
Formula: C17H27N3O4S
Exact mass: 369.1722
SMILES: CCN1CCCC1CNC(=O)c2cc(c(N)cc2OC)[S](=O)(=O)CC
InChI: InChI=1S/C17H27N3O4S/c1-4-20-8-6-7-12(20)11-19-17(21)13-9-16(25(22,23)5-2)14(18)10-15(13)24-3/h9-10,12H,4-8,11,18H2,1-3H3,(H,19,21)
Instrument: TripleTOF 5600 SCIEX
Instrument type: LC-ESI-QTOF
Ms type: MS2
Ion mode: POSITIVE
Collision energy: 70
Fragmentation mode: CID
Ionization: ESI
Column name: Zorbax Eclipse Plus C18 2.1 mm x 150 mm, 3.5 um, Agilent
Retention time: 5.568 min
Precursor m/z: 370.1795
Precursor type: [M+H]+
m/z	relative intensity
56.0559	20
58.0703	15
65.0423	15
66.0509	90
78.0371	17
81.0357	11
82.9977	18
84.0835	120
85.0125	17
91.0435	28
92.051	30
93.0586	35
94.0417	26
96.0455	14
98.0973	18
106.0288	29
107.0134	43
107.0362	24
107.9903	46
108.0446	47
110.0062	65
112.0218	13
112.1127	145
113.0055	15
120.0447	44
121.0527	165
122.0362	137
124.0393	13
124.9933	30
132.0084	162
135.9853	14
138.0004	36
140.0168	134
147.0317	240
148.0033	11
149.0478	534
150.0006	33
150.0545	20
152.9876	13
163.0267	13
168.0119	345
177.9957	125
196.0068	999
214.017	44
242.048	74
