Mass spectrum: Amethopterin; LC-ESI-QTOF; MS2; 110 V
Name: Amethopterin
Class: Pharmaceutical
Formula: C20H22N8O5
Exact mass: 454.1713
SMILES: CN(Cc1cnc2nc(N)nc(N)c2n1)c3ccc(cc3)C(=O)NC(CCC(O)=O)C(O)=O
InChI: InChI=1S/C20H22N8O5/c1-28(9-11-8-23-17-15(24-11)16(21)26-20(22)27-17)12-4-2-10(3-5-12)18(31)25-13(19(32)33)6-7-14(29)30/h2-5,8,13H,6-7,9H2,1H3,(H,25,31)(H,29,30)(H,32,33)(H4,21,22,23,26,27)
Instrument: TripleTOF 5600 SCIEX
Instrument type: LC-ESI-QTOF
Ms type: MS2
Ion mode: POSITIVE
Collision energy: 110
Fragmentation mode: CID
Ionization: ESI
Column name: Zorbax Eclipse Plus C18 2.1 mm x 150 mm, 3.5 um, Agilent
Retention time: 5.057 min
Precursor m/z: 455.1786
Precursor type: [M+H]+
m/z	relative intensity
42.0343	35
43.0292	105
54.0338	61
65.0385	52
66.021	61
67.0292	61
68.0257	35
77.0142	52
77.0389	324
79.0291	297
79.0544	192
80.0241	236
80.0362	78
94.0409	61
104.0256	43
105.0391	52
106.04	999
106.0649	131
107.0471	131
108.0422	35
108.0554	96
121.052	280
131.0374	52
132.047	105
133.0516	885
134.0475	43
134.0611	184
146.0452	52
148.0613	105
150.0776	87
158.0471	70
159.0538	122
160.0622	87
175.0727	280
176.0787	43
