Mass spectrum: Tolfenamic acid; LC-ESI-QTOF; MS2; 80 V
Name: Tolfenamic acid
Class: Pharmaceutical
Formula: C14H12ClNO2
Exact mass: 261.0557
SMILES: Cc1cc(Nc2ccccc2C(O)=O)ccc1Cl
InChI: InChI=1S/C14H12ClNO2/c1-9-8-10(6-7-12(9)15)16-13-5-3-2-4-11(13)14(17)18/h2-8,16H,1H3,(H,17,18)
Instrument: TripleTOF 5600 SCIEX
Instrument type: LC-ESI-QTOF
Ms type: MS2
Ion mode: POSITIVE
Collision energy: 80
Fragmentation mode: CID
Ionization: ESI
Column name: Zorbax Eclipse Plus C18 2.1 mm x 150 mm, 3.5 um, Agilent
Retention time: 14.052 min
Precursor m/z: 262.0629
Precursor type: [M+H]+
m/z	relative intensity
65.0415	9
75.0242	43
76.0341	11
77.0405	169
78.0488	13
87.0248	12
89.0389	54
91.0528	12
92.0271	25
101.0384	50
102.0333	11
102.0459	16
110.9996	9
113.0374	64
113.0528	9
114.0336	12
115.0531	76
116.0481	29
125.0384	13
126.0451	50
127.0534	94
128.0482	189
130.0645	12
137.0372	16
138.0444	48
139.0534	344
140.0483	526
141.0558	15
149.0352	13
150.0442	68
151.0527	377
152.0611	999
153.0636	203
154.0639	94
163.0527	30
164.0482	158
165.0556	65
165.0727	11
166.0632	363
173.0166	13
174.0112	9
176.0472	12
177.0567	91
178.0634	608
179.072	778
180.0796	829
190.0633	18
191.0726	11
200.0247	18
201.0323	25
207.0655	19
208.0744	83
214.0404	25
