Mass spectrum: Mefenpyr-diethyl; LC-ESI-QTOF; MS2; 120 V
Name: Mefenpyr-diethyl
Class: Herbicide
Formula: C16H18Cl2N2O4
Exact mass: 372.0644
SMILES: CCOC(=O)C1=NN(C(C1)(C)C(=O)OCC)C2=C(C=C(C=C2)Cl)Cl
InChI: InChI=1S/C16H18Cl2N2O4/c1-4-23-14(21)12-9-16(3,15(22)24-5-2)20(19-12)13-7-6-10(17)8-11(13)18/h6-8H,4-5,9H2,1-3H3
Instrument: TripleTOF 5600 SCIEX
Instrument type: LC-ESI-QTOF
Ms type: MS2
Ion mode: POSITIVE
Collision energy: 120
Fragmentation mode: CID
Ionization: ESI
Column name: Zorbax Eclipse Plus C18 2.1 mm x 150 mm, 3.5 um, Agilent
Retention time: 14.581 min
Precursor m/z: 373.0716
Precursor type: [M+H]+
m/z	relative intensity
48.9947	18
72.99	403
73.0121	57
74.0214	999
75.0288	153
77.0429	29
82.9498	388
83.9804	19
84.9878	33
88.0212	21
89.0428	26
90.0387	64
96.9869	90
97.9957	25
99.003	40
99.0243	35
100.0227	43
101.0411	50
102.036	14
102.0489	16
106.9472	114
108.9862	996
109.9935	53
111.0009	12
114.0358	40
123.0002	16
123.9987	28
125.0044	90
126.0362	52
127.0432	59
128.0508	56
129.0503	14
130.0671	11
132.9621	605
136.0073	25
144.9617	156
147.9954	18
151.0193	16
153.0447	39
154.0489	31
155.0637	16
162.0113	22
164.0266	38
172.9688	31
189.0236	32
