Mass spectrum: Isorhamnetin; LC-ESI-QTOF; MS2; 70 V
Name: Isorhamnetin
Class: Pharmaceutical; Metabolite
Formula: C16H12O7
Exact mass: 316.0583
SMILES: COc1cc(ccc1O)C2=C(O)C(=O)c3c(O)cc(O)cc3O2
InChI: InChI=1S/C16H12O7/c1-22-11-4-7(2-3-9(11)18)16-15(21)14(20)13-10(19)5-8(17)6-12(13)23-16/h2-6,17-19,21H,1H3
Instrument: TripleTOF 5600 SCIEX
Instrument type: LC-ESI-QTOF
Ms type: MS2
Ion mode: NEGATIVE
Collision energy: 70
Fragmentation mode: CID
Ionization: ESI
Column name: Zorbax Eclipse Plus C18 2.1 mm x 150 mm, 3.5 um, Agilent
Retention time: 9.418 min
Precursor m/z: 315.051
Precursor type: [M-H]-
m/z	relative intensity
41.0036	112
65.0027	853
68.9994	80
83.0127	322
91.0184	80
95.0135	161
107.0136	290
108.0217	999
109.0292	112
117.0333	225
119.0151	96
120.0213	209
133.0296	128
135.0095	418
136.0162	64
141.0348	96
143.0515	145
145.0288	193
147.0082	96
148.0182	338
153.0346	80
154.0425	80
155.0502	145
157.0284	96
159.0437	112
161.0244	80
163.0037	660
169.029	145
171.0448	257
173.0251	145
174.0344	145
182.0368	193
183.0449	338
185.0242	128
187.0405	225
189.0236	128
197.0207	128
198.0315	64
198.0411	48
199.0417	241
201.0206	128
211.0425	64
215.0367	112
226.0301	48
227.036	161
242.0204	64
243.0307	96
243.0416	112
255.0276	161
271.0261	112
