Mass spectrum: Fluazifop; LC-ESI-QTOF; MS2; 100 V
Name: Fluazifop
Class: Herbicide; Transformation_product
Formula: C15H12F3NO4
Exact mass: 327.0718
SMILES: CC(C(=O)O)Oc1ccc(cc1)Oc2ccc(cn2)C(F)(F)F
InChI: InChI=1S/C15H12F3NO4/c1-9(14(20)21)22-11-3-5-12(6-4-11)23-13-7-2-10(8-19-13)15(16,17)18/h2-9H,1H3,(H,20,21)
Instrument: TripleTOF 6600 SCIEX
Instrument type: LC-ESI-QTOF
Ms type: MS2
Ion mode: POSITIVE
Collision energy: 100
Fragmentation mode: CID
Ionization: ESI
Column name: Zorbax Eclipse Plus C18 2.1 mm x 150 mm, 3.5 um, Agilent
Retention time: 11.668 min
Precursor m/z: 328.0791
Precursor type: [M+H]+
m/z	relative intensity
36.0	20
37.0081	87
38.0156	107
39.0238	493
41.0398	16
49.0079	66
50.0156	294
51.0053	74
51.0236	514
52.0191	58
52.032	33
53.0029	29
53.0391	70
55.0186	41
57.0137	74
61.0081	78
62.0158	207
63.0237	812
64.019	24
64.0317	203
65.0391	858
66.0469	82
68.995	327
69.013	16
70.0223	174
73.0078	20
74.0157	223
75.0049	999
75.0217	194
76.0187	236
76.0307	45
77.0279	53
77.0391	630
78.0346	455
79.0421	20
79.0552	29
80.0061	33
81.015	29
81.0334	149
82.0089	16
83.0295	53
86.0159	41
87.0235	99
88.0197	16
88.0313	120
89.0396	103
90.045	29
91.0429	58
91.0542	136
92.0255	33
92.9949	24
93.0345	45
94.0411	58
96.0248	66
97.0329	103
98.0149	20
99.0044	364
99.0219	49
100.0122	493
101.0205	107
101.0386	87
102.0334	24
102.0466	174
103.0549	286
104.0502	66
105.0337	33
105.0458	20
106.0086	37
106.0218	24
107.0169	103
107.0294	78
108.0223	16
109.0278	24
110.0376	41
111.0228	20
112.0136	20
113.02	45
113.0385	310
114.034	49
114.0468	178
115.0416	53
115.053	78
116.0316	33
117.0133	49
117.0571	20
119.0108	194
119.0394	58
120.0179	140
120.0416	33
121.0412	37
122.0152	58
122.0375	16
123.0229	124
124.0183	78
125.0197	45
125.0364	24
126.0153	741
127.0232	298
128.0283	20
128.0506	182
129.0441	66
129.0568	107
130.0422	33
130.0652	62
131.0135	20
131.03	91
131.0491	232
132.02	16
132.0381	99
133.0449	203
134.0401	45
135.049	29
137.0196	58
138.0297	45
139.0432	24
139.0526	49
140.0328	24
140.0496	368
141.0262	20
141.0574	215
142.0407	20
143.0295	78
144.0357	24
145.0251	24
146.0214	397
147.0291	149
148.0181	20
148.0325	37
148.0542	41
149.04	24
150.0321	37
151.0358	443
152.0305	45
154.0677	20
156.0447	53
157.0289	33
157.0545	33
158.041	161
158.0601	20
159.0471	87
162.027	70
163.0335	45
164.0307	37
165.0343	20
166.0472	24
168.0252	20
168.0445	62
169.0279	37
169.0504	16
170.0401	62
172.034	33
177.0374	41
178.0457	70
182.0323	53
184.0406	41
185.0462	41
188.0314	16
189.0372	49
190.0464	74
191.0447	20
196.0375	20
197.0468	24
198.0534	66
207.029	29
208.0389	53
209.0448	49
218.0417	29
236.0333	45
