Mass spectrum: Pentaethyleneglycol dimethyl ether-candidate; LC-ESI-QTOF; MS2; 40 V
Name: Pentaethyleneglycol dimethyl ether-candidate
Class: Industrial_process
Formula: C12H26O6
Exact mass: 266.1729
SMILES: COCCOCCOCCOCCOCCOC
InChI: InChI=1S/C12H26O6/c1-13-3-5-15-7-9-17-11-12-18-10-8-16-6-4-14-2/h3-12H2,1-2H3
Instrument: TripleTOF 6600 SCIEX
Instrument type: LC-ESI-QTOF
Ms type: MS2
Ion mode: POSITIVE
Collision energy: 40
Fragmentation mode: CID
Ionization: ESI
Column name: Zorbax Eclipse Plus C18 2.1 mm x 150 mm, 3.5 um, Agilent
Retention time: 6.36 min
Precursor m/z: 289.1618
Precursor type: [M+Na]+
m/z	relative intensity
225.0779	15
288.2354	11
289.1568	999
