Mass spectrum: Syringic acid; LC-ESI-QTOF; MS2; 20 V
Name: Syringic acid
Class: Food_additive
Formula: C9H10O5
Exact mass: 198.0528
SMILES: COC1=CC(=CC(=C1O)OC)C(=O)O
InChI: InChI=1S/C9H10O5/c1-13-6-3-5(9(11)12)4-7(14-2)8(6)10/h3-4,10H,1-2H3,(H,11,12)
Instrument: TripleTOF 5600 SCIEX
Instrument type: LC-ESI-QTOF
Ms type: MS2
Ion mode: POSITIVE
Collision energy: 20
Fragmentation mode: CID
Ionization: ESI
Column name: Zorbax Eclipse Plus C18 2.1 mm x 150 mm, 3.5 um, Agilent
Retention time: 5.696 min
Precursor m/z: 199.0601
Precursor type: [M+H]+
m/z	relative intensity
77.0425	105
93.0375	24
95.0519	140
116.9764	65
121.0295	34
123.0441	177
125.0229	59
140.0465	999
155.0698	211
158.0015	40
167.0328	28
181.0487	80
199.0604	28
