Mass spectrum: Fluorescein; LC-ESI-QTOF; MS2; 140 V
Name: Fluorescein
Class: Industrial_process; Pharmaceutical
Formula: C20H12O5
Exact mass: 332.0685
SMILES: C1=CC=C2C(=C1)C(=O)OC23C4=C(C=C(C=C4)O)OC5=C3C=CC(=C5)O
InChI: InChI=1S/C20H12O5/c21-11-5-7-15-17(9-11)24-18-10-12(22)6-8-16(18)20(15)14-4-2-1-3-13(14)19(23)25-20/h1-10,21-22H
Instrument: TripleTOF 5600 SCIEX
Instrument type: LC-ESI-QTOF
Ms type: MS2
Ion mode: POSITIVE
Collision energy: 140
Fragmentation mode: CID
Ionization: ESI
Column name: Zorbax Eclipse Plus C18 2.1 mm x 150 mm, 3.5 um, Agilent
Retention time: 9.527 min
Precursor m/z: 333.0757
Precursor type: [M+H]+
m/z	relative intensity
50.0145	15
51.0228	39
62.0151	18
63.023	39
65.038	15
68.9976	24
74.0144	57
75.0224	45
76.0308	42
77.0379	63
78.0464	18
85.007	15
86.0153	33
87.0234	39
89.0387	48
98.0148	54
99.0226	21
100.0303	15
102.0466	48
110.0156	39
111.0227	30
113.0386	27
115.0549	57
122.0139	42
123.0225	21
124.0301	21
125.0396	18
126.0464	78
127.0543	27
134.0152	39
137.039	21
139.0541	66
149.0381	106
150.0462	461
151.0542	191
152.0624	97
161.0387	78
162.0477	75
163.055	215
164.06	21
165.0693	15
173.0408	33
174.0467	285
175.0536	124
176.0628	127
185.0403	100
186.0454	136
187.0547	382
188.0607	69
189.0701	85
198.0473	179
199.0532	291
200.0326	15
200.0618	999
201.0708	124
202.0778	54
209.0394	30
210.0475	54
211.0541	245
212.0582	30
213.0711	97
221.0427	12
222.0454	18
224.0629	18
229.0668	21
