Mass spectrum: 4-(4-Chloro-2-methylphenoxy)butanoic acid; LC-ESI-QTOF; MS2; 30 V
Name: 4-(4-Chloro-2-methylphenoxy)butanoic acid
Class: Herbicide
Formula: C11H13ClO3
Exact mass: 228.0553
SMILES: CC1=C(C=CC(=C1)Cl)OCCCC(=O)O
InChI: InChI=1S/C11H13ClO3/c1-8-7-9(12)4-5-10(8)15-6-2-3-11(13)14/h4-5,7H,2-3,6H2,1H3,(H,13,14)
Instrument: TripleTOF 6600 SCIEX
Instrument type: LC-ESI-QTOF
Ms type: MS2
Ion mode: POSITIVE
Collision energy: 30
Fragmentation mode: CID
Ionization: ESI
Column name: Zorbax Eclipse Plus C18 2.1 mm x 150 mm, 3.5 um, Agilent
Retention time: 11.775 min
Precursor m/z: 229.0626
Precursor type: [M+H]+
m/z	relative intensity
38.0149	20
39.0227	129
41.0382	233
43.0177	349
45.033	328
57.0686	24
65.0372	12
69.0329	786
69.0712	12
71.0853	20
87.0431	999
89.0375	16
91.0536	91
98.9997	12
105.0716	16
107.0503	16
108.0603	16
113.0589	41
115.0533	16
119.0614	12
119.0877	33
125.0148	95
127.0306	58
128.0637	20
129.0687	104
130.0765	99
133.0632	16
139.0298	54
141.0098	20
141.044	16
143.0255	33
147.0808	12
148.086	49
155.0247	774
157.0579	16
158.0712	120
165.0442	79
167.0248	37
169.0033	16
169.0398	29
183.0587	20
193.0412	91
211.0521	8
