Mass spectrum: 1-Ethyl-3-methylimidazolium; LC-ESI-QTOF; MS2; 40 V
Name: 1-Ethyl-3-methylimidazolium
Class: Industrial_process
Formula: [C6H11N2]+
Exact mass: 111.0917
SMILES: CCN1C=C[N+](=C1)C
InChI: InChI=1S/C6H11N2/c1-3-8-5-4-7(2)6-8/h4-6H,3H2,1-2H3/q+1
Instrument: TripleTOF 6600 SCIEX
Instrument type: LC-ESI-QTOF
Ms type: MS2
Ion mode: POSITIVE
Collision energy: 40
Fragmentation mode: CID
Ionization: ESI
Column name: Zorbax Eclipse Plus C18 2.1 mm x 150 mm, 3.5 um, Agilent
Retention time: 1.341 min
Precursor m/z: 111.0917
Precursor type: [M]+
m/z	relative intensity
42.0382	653
54.0373	53
56.0531	282
68.0398	67
81.0467	155
83.0625	999
95.0617	181
96.0698	64
