Mass spectrum: Mefloquine; LC-ESI-QTOF; MS2; 70 V
Name: Mefloquine
Class: Pharmaceutical
Formula: C17H16F6N2O
Exact mass: 378.1167
SMILES: C1CCNC(C1)C(C2=CC(=NC3=C2C=CC=C3C(F)(F)F)C(F)(F)F)O
InChI: InChI=1S/C17H16F6N2O/c18-16(19,20)11-5-3-4-9-10(15(26)12-6-1-2-7-24-12)8-13(17(21,22)23)25-14(9)11/h3-5,8,12,15,24,26H,1-2,6-7H2
Instrument: TripleTOF 5600 SCIEX
Instrument type: LC-ESI-QTOF
Ms type: MS2
Ion mode: POSITIVE
Collision energy: 70
Fragmentation mode: CID
Ionization: ESI
Column name: Zorbax Eclipse Plus C18 2.1 mm x 150 mm, 3.5 um, Agilent
Retention time: 8.432 min
Precursor m/z: 379.124
Precursor type: [M+H]+
m/z	relative intensity
42.0459	12
54.0432	30
56.0578	91
67.0483	75
68.0563	328
69.0003	49
70.0707	127
77.045	17
80.0546	96
82.0698	800
83.0772	120
84.0845	288
96.0827	38
128.0568	12
132.0349	14
133.0465	62
140.0502	120
141.0595	12
143.0325	11
145.0275	19
151.0396	22
151.0545	32
152.0505	98
153.057	43
154.0644	29
158.042	35
159.0432	17
161.0219	16
162.0271	11
163.0382	58
164.051	24
165.0576	159
166.0658	98
167.0677	37
168.0253	16
168.0379	9
168.0815	19
169.0296	53
169.0456	49
170.0429	41
171.0383	56
174.019	11
174.0354	9
175.0382	19
176.0299	116
177.0517	136
178.0662	109
179.0627	106
180.0524	14
180.0718	38
181.0295	14
181.049	24
181.0777	49
182.0375	153
183.043	240
184.0557	88
187.0375	66
188.0348	109
189.0405	394
190.0523	165
191.0674	82
192.0681	51
193.0286	20
193.0777	48
194.022	283
194.0819	32
195.0472	104
195.0933	32
196.0413	267
197.0249	9
197.0584	90
198.0561	20
199.0342	22
200.0309	33
200.0462	17
201.0336	122
202.0474	547
203.0572	161
204.0555	29
204.0775	104
205.0242	11
205.0825	54
206.0384	33
206.0836	19
206.0978	20
207.0314	19
207.0485	41
208.0423	302
209.0508	285
210.058	180
211.0202	17
211.0704	30
212.03	56
213.0357	165
214.0312	999
215.0538	642
216.0627	310
217.0618	90
218.0248	41
218.0695	11
218.087	12
219.0393	87
219.0908	25
220.0386	277
220.1051	17
221.0358	153
221.107	56
222.0549	190
222.1149	14
223.0669	238
224.0277	16
224.0639	16
224.0761	41
225.0359	32
226.0462	360
227.0466	194
228.0521	278
229.0615	349
230.0667	331
231.028	82
231.084	48
232.0368	114
233.045	186
234.0539	633
235.0552	220
236.0602	270
237.0387	30
237.0688	30
238.0287	779
239.0424	154
240.0526	246
241.0605	116
242.0665	82
243.0274	11
243.0737	552
244.0272	269
244.0825	77
245.0213	24
245.0394	104
246.0499	876
247.0586	348
248.0634	182
249.0643	468
250.0454	74
250.0725	130
251.0326	133
251.099	58
252.0453	721
253.0576	335
254.0426	12
254.0711	141
255.0745	117
256.0379	22
256.0808	41
257.0443	33
257.0946	11
258.0348	689
259.0483	370
260.0585	323
261.0683	98
262.0327	19
262.0725	72
263.0334	16
263.0809	178
264.0416	826
264.0894	19
265.0492	228
266.0592	280
267.0606	88
268.0748	27
269.0426	12
269.0913	174
270.0345	356
270.097	95
271.0344	157
271.1047	747
272.0525	327
273.0631	510
274.0843	74
275.0793	58
276.042	120
277.0428	37
277.0575	17
278.0419	720
279.0562	375
280.0675	125
281.0854	69
282.0339	40
283.0418	270
284.0516	412
285.0518	310
286.0263	12
286.0718	95
287.0815	14
288.0481	27
289.0584	19
289.0955	29
290.1	24
291.0467	72
291.1114	49
292.0646	61
293.0698	264
296.0494	404
297.0458	132
298.0543	288
299.0662	120
300.0895	29
301.0973	62
302.0408	80
304.0647	48
305.0626	124
308.0479	20
309.058	19
311.0631	58
312.0694	17
313.0772	85
316.0489	11
316.0661	17
317.0532	61
318.0657	16
319.086	48
320.092	41
321.1071	40
322.0483	12
323.0593	80
324.0716	12
325.0741	12
331.0724	12
333.0835	24
339.0954	46
