Mass spectrum: Cyprodinil; LC-ESI-QTOF; MS2; 120 V
Name: Cyprodinil
Class: Fungicide
Formula: C14H15N3
Exact mass: 225.1266
SMILES: CC1=CC(=NC(=N1)NC2=CC=CC=C2)C3CC3
InChI: InChI=1S/C14H15N3/c1-10-9-13(11-7-8-11)17-14(15-10)16-12-5-3-2-4-6-12/h2-6,9,11H,7-8H2,1H3,(H,15,16,17)
Instrument: TripleTOF 6600 SCIEX
Instrument type: LC-ESI-QTOF
Ms type: MS2
Ion mode: POSITIVE
Collision energy: 120
Fragmentation mode: CID
Ionization: ESI
Column name: Zorbax Eclipse Plus C18 2.1 mm x 150 mm, 3.5 um, Agilent
Retention time: 10.83 min
Precursor m/z: 226.1339
Precursor type: [M+H]+
m/z	relative intensity
35.9993	28
37.0072	170
38.0032	20
38.015	135
39.0231	583
40.0182	25
41.0263	49
41.0378	31
42.034	138
49.007	213
50.0152	947
51.0115	11
51.0229	999
52.0177	77
52.0303	14
53.0134	20
53.0382	46
54.0338	40
59.9986	11
61.0072	80
62.0149	124
63.0226	228
64.0183	31
64.0306	20
65.0261	17
65.0388	202
66.0334	31
66.0461	63
67.028	20
67.0413	34
73.0068	17
74.015	103
75.0112	14
75.0225	54
76.0184	43
77.0382	118
78.0336	40
80.0492	43
86.0148	20
87.0227	25
89.0378	49
92.049	40
93.0579	14
98.0147	17
113.0379	20
114.0324	11
126.0426	11
