Mass spectrum: 2-(Ethylthio)benzothiazole; LC-ESI-QTOF; MS2; 100 V
Name: 2-(Ethylthio)benzothiazole
Class: Pharmaceutical
Formula: C9H9NS2
Exact mass: 195.0176
SMILES: CCSc1sc2ccccc2n1
InChI: InChI=1S/C9H9NS2/c1-2-11-9-10-7-5-3-4-6-8(7)12-9/h3-6H,2H2,1H3
Instrument: TripleTOF 5600 SCIEX
Instrument type: LC-ESI-QTOF
Ms type: MS2
Ion mode: POSITIVE
Collision energy: 100
Fragmentation mode: CID
Ionization: ESI
Column name: Zorbax Eclipse Plus C18 2.1 mm x 150 mm, 3.5 um, Agilent
Retention time: 13.742 min
Precursor m/z: 196.0249
Precursor type: [M+H]+
m/z	relative intensity
51.0281	263
65.0429	207
67.9759	94
68.9825	999
77.0411	75
81.9895	188
92.9829	131
108.0029	75
