Mass spectrum: Metconazole; LC-ESI-QTOF; MS2; 130 V
Name: Metconazole
Class: Fungicide
Formula: C17H22ClN3O
Exact mass: 319.1451
SMILES: CC1(CCC(C1(CN2C=NC=N2)O)CC3=CC=C(C=C3)Cl)C
InChI: InChI=1S/C17H22ClN3O/c1-16(2)8-7-14(9-13-3-5-15(18)6-4-13)17(16,22)10-21-12-19-11-20-21/h3-6,11-12,14,22H,7-10H2,1-2H3
Instrument: TripleTOF 6600 SCIEX
Instrument type: LC-ESI-QTOF
Ms type: MS2
Ion mode: POSITIVE
Collision energy: 130
Fragmentation mode: CID
Ionization: ESI
Column name: Zorbax Eclipse Plus C18 2.1 mm x 150 mm, 3.5 um, Agilent
Retention time: 13.024 min
Precursor m/z: 320.1524
Precursor type: [M+H]+
m/z	relative intensity
37.0068	21
38.0148	24
39.0229	86
41.0386	15
42.0212	52
43.0292	710
46.968	17
48.9836	46
50.015	34
51.0225	45
61.007	54
62.0148	136
63.023	374
64.0303	31
65.038	38
70.0399	999
72.9836	239
74.0149	31
74.9989	12
75.0224	32
76.0303	12
77.0379	37
89.038	463
90.0455	65
91.0533	13
96.9829	10
98.999	98
102.0453	25
115.0536	120
125.0144	17
127.0533	15
128.0609	26
