Mass spectrum: Norethynodrel; LC-ESI-QTOF; MS2; 90 V
Name: Norethynodrel
Class: Pharmaceutical
Formula: C20H26O2
Exact mass: 298.1933
SMILES: C[C@]12CC[C@H]3[C@@H](CCC4=C3CCC(=O)C4)[C@@H]1CC[C@@]2(O)C#C
InChI: InChI=1S/C20H26O2/c1-3-20(22)11-9-18-17-6-4-13-12-14(21)5-7-15(13)16(17)8-10-19(18,20)2/h1,16-18,22H,4-12H2,2H3/t16-,17-,18+,19+,20+/m1/s1
Instrument: TripleTOF 5600 SCIEX
Instrument type: LC-ESI-QTOF
Ms type: MS2
Ion mode: POSITIVE
Collision energy: 90
Fragmentation mode: CID
Ionization: ESI
Column name: Zorbax Eclipse Plus C18 2.1 mm x 150 mm, 3.5 um, Agilent
Retention time: 11.133 min
Precursor m/z: 299.2006
Precursor type: [M+H]+
m/z	relative intensity
43.0259	29
53.0432	56
55.0221	31
55.0595	103
65.0421	351
66.049	14
67.0569	95
75.026	10
76.0372	10
77.0416	999
78.0488	39
79.0569	452
81.0351	14
81.0718	110
83.051	156
89.0398	54
91.0555	816
93.0706	32
94.042	26
95.0852	10
102.0469	65
103.054	110
104.0608	20
105.0697	107
107.048	62
109.0646	92
109.0974	10
115.0539	719
116.0611	53
117.0686	71
119.0863	10
126.0447	21
127.0537	174
128.0611	540
129.0691	110
130.0782	10
131.0474	12
131.0846	10
139.0554	15
141.0687	168
142.0769	14
143.0839	15
151.0547	24
152.0607	137
153.0689	84
154.0783	12
155.0831	15
164.0625	18
165.0693	135
167.0859	10
176.0584	9
177.0665	10
178.076	53
189.0704	29
191.0838	23
202.0784	20
