Mass spectrum: Guaifenesin; LC-ESI-QTOF; MS2; 70 V
Name: Guaifenesin
Formula: C10H14O4
Exact mass: 198.0892
SMILES: COC1=CC=CC=C1OCC(CO)O
InChI: InChI=1S/C10H14O4/c1-13-9-4-2-3-5-10(9)14-7-8(12)6-11/h2-5,8,11-12H,6-7H2,1H3
Instrument: TripleTOF X500R SCIEX
Instrument type: LC-ESI-QTOF
Ms type: MS2
Ion mode: POSITIVE
Collision energy: 70
Fragmentation mode: CID
Ionization: ESI
Column name: Zorbax Eclipse Plus C18 2.1 mm x 150 mm, 3.5 um, Agilent
Retention time: 6.298 min
Precursor m/z: 199.0965
Precursor type: [M+H]+
m/z	relative intensity
31.0175	99
37.0082	49
38.0143	99
39.0235	549
41.0382	99
43.0172	99
45.0335	99
51.0223	949
52.0309	49
57.034	49
60.988	99
64.0313	449
65.0392	399
66.0479	49
77.039	799
82.0422	49
91.0561	149
92.026	149
102.0455	49
103.0565	49
110.037	149
121.0294	999
