Mass spectrum: Hexa(methoxymethyl)melamine; LC-ESI-QTOF; MS2; 60 V
Name: Hexa(methoxymethyl)melamine
Formula: C15H30N6O6
Exact mass: 390.2227
SMILES: COCN(COC)C1=NC(=NC(=N1)N(COC)COC)N(COC)COC
InChI: InChI=1S/C15H30N6O6/c1-22-7-19(8-23-2)13-16-14(20(9-24-3)10-25-4)18-15(17-13)21(11-26-5)12-27-6/h7-12H2,1-6H3
Instrument: TripleTOF 6600 SCIEX
Instrument type: LC-ESI-QTOF
Ms type: MS2
Ion mode: POSITIVE
Collision energy: 60
Fragmentation mode: CID
Ionization: ESI
Column name: Zorbax Eclipse Plus C18 2.1 mm x 150 mm, 3.5 um, Agilent
Retention time: 9.543 min
Precursor m/z: 391.23
Precursor type: [M+H]+
m/z	relative intensity
42.034	74
45.0336	284
55.0285	10
69.0445	223
82.0388	12
94.039	11
96.0552	70
121.0506	12
123.0659	25
136.0603	10
148.0602	23
150.0768	18
177.0882	999
