Mass spectrum: Tiamulin; LC-ESI-QTOF; MS2; 100 V
Name: Tiamulin
Class: Antimicrobial; Pharmaceutical
Formula: C28H47NO4S
Exact mass: 493.3226
SMILES: CCN(CC)CCSCC(=O)OC1CC(C(C(C23CCC(C1(C2C(=O)CC3)C)C)C)O)(C)C=C
InChI: InChI=1S/C28H47NO4S/c1-8-26(6)17-22(33-23(31)18-34-16-15-29(9-2)10-3)27(7)19(4)11-13-28(20(5)25(26)32)14-12-21(30)24(27)28/h8,19-20,22,24-25,32H,1,9-18H2,2-7H3
Instrument: TripleTOF 6600 SCIEX
Instrument type: LC-ESI-QTOF
Ms type: MS2
Ion mode: POSITIVE
Collision energy: 100
Fragmentation mode: CID
Ionization: ESI
Column name: Zorbax Eclipse Plus C18 2.1 mm x 150 mm, 3.5 um, Agilent
Retention time: 8.661 min
Precursor m/z: 494.3299
Precursor type: [M+H]+
m/z	relative intensity
37.0067	9
38.0146	13
39.0227	113
41.0383	196
43.0177	154
43.0543	23
44.0491	22
44.9792	514
45.0337	31
46.9947	79
51.022	20
53.0383	60
55.0174	33
55.0537	182
61.01	25
62.9891	27
65.0378	109
66.0446	12
67.0533	229
69.0333	12
69.0693	50
71.049	16
72.0803	31
73.0099	999
74.0954	119
77.0377	560
78.0467	20
79.0534	579
80.0605	9
81.0691	283
83.0487	28
90.9839	22
91.0534	978
92.0601	15
93.0689	361
95.0475	21
95.0847	109
97.0632	26
100.1098	29
101.0043	22
103.0535	144
104.0606	38
105.069	691
106.0772	11
107.0488	22
107.0844	165
109.0635	62
109.099	16
111.0799	11
115.0528	227
116.0611	75
117.0689	258
118.0774	27
119.0148	137
119.0625	15
119.0841	331
121.0645	32
121.1	106
123.0786	22
127.0522	65
128.0608	271
129.0687	260
130.0763	96
131.047	12
131.0838	185
132.0919	11
133.0636	35
133.1007	147
135.0786	26
135.1158	10
141.0688	222
142.0759	153
143.0845	147
144.0912	43
145.0628	23
145.0998	93
147.079	25
147.1165	29
149.0948	45
152.0611	44
153.0681	95
154.0748	42
155.0581	10
155.0846	103
156.092	55
157.1002	61
158.1078	11
159.0781	15
159.1161	35
161.0936	16
163.1119	12
165.068	62
166.0757	25
167.0838	67
168.0889	29
169.1005	64
170.1101	20
171.1175	17
173.1325	10
179.0863	19
180.0919	12
181.0993	36
182.1079	12
183.1158	15
