Mass spectrum: Torasemide; LC-ESI-QTOF; MS2; 40 V
Name: Torasemide
Class: Pharmaceutical
Formula: C16H20N4O3S
Exact mass: 348.1256
SMILES: CC(C)NC(=O)N[S](=O)(=O)c1cnccc1Nc2cccc(C)c2
InChI: InChI=1S/C16H20N4O3S/c1-11(2)18-16(21)20-24(22,23)15-10-17-8-7-14(15)19-13-6-4-5-12(3)9-13/h4-11H,1-3H3,(H,17,19)(H2,18,20,21)
Instrument: TripleTOF 5600 SCIEX
Instrument type: LC-ESI-QTOF
Ms type: MS2
Ion mode: POSITIVE
Collision energy: 40
Fragmentation mode: CID
Ionization: ESI
Column name: Zorbax Eclipse Plus C18 2.1 mm x 150 mm, 3.5 um, Agilent
Retention time: 7.633 min
Precursor m/z: 349.1329
Precursor type: [M+H]+
m/z	relative intensity
67.0456	14
98.0055	13
122.0597	43
125.0167	206
128.0614	15
129.0697	24
137.0163	36
140.0486	16
141.0568	26
156.0798	33
167.0603	20
168.0682	438
169.0755	25
176.0403	13
181.076	91
182.0838	224
183.0912	775
184.0624	9
185.07	26
191.0627	87
197.0706	15
198.0784	110
199.0858	156
201.0473	116
202.0549	10
214.0723	21
219.0579	208
229.0418	46
230.0504	216
247.0529	206
264.0792	999
290.0591	312
