Mass spectrum: Indoxacarb; LC-ESI-QTOF; MS2; 40 V
Name: Indoxacarb
Class: Insecticide
Formula: C22H17ClF3N3O7
Exact mass: 527.0707
SMILES: COC(=O)[C@]12Cc3cc(ccc3C1=NN(CO2)C(=O)N(c4ccc(cc4)OC(F)(F)F)C(=O)OC)Cl
InChI: InChI=1S/C22H17ClF3N3O7/c1-33-18(30)21-10-12-9-13(23)3-8-16(12)17(21)27-28(11-35-21)19(31)29(20(32)34-2)14-4-6-15(7-5-14)36-22(24,25)26/h3-9H,10-11H2,1-2H3/t21-/m0/s1
Instrument: TripleTOF 5600 SCIEX
Instrument type: LC-ESI-QTOF
Ms type: MS2
Ion mode: POSITIVE
Collision energy: 40
Fragmentation mode: CID
Ionization: ESI
Column name: Zorbax Eclipse Plus C18 2.1 mm x 150 mm, 3.5 um, Agilent
Retention time: 15.019 min
Precursor m/z: 528.078
Precursor type: [M+H]+
m/z	relative intensity
45.0413	21
56.02	119
59.0189	26
75.0469	25
77.0419	10
81.0173	25
104.0505	53
115.0544	11
123.0007	13
127.044	32
128.062	24
132.0452	123
134.0248	42
137.0162	26
142.0664	12
149.0163	38
150.0113	999
155.061	52
160.0512	33
161.0149	27
162.0117	229
163.0311	52
164.0266	46
165.0336	15
167.0264	62
175.0001	38
176.0245	30
177.0314	47
178.0063	74
178.0393	14
179.0267	84
189.0223	209
190.0069	645
190.0459	24
192.0214	24
195.0218	154
203.0198	778
204.0091	68
206.0371	18
207.0229	162
214.0747	57
215.0426	35
216.0268	14
217.0175	379
218.0427	739
219.0325	232
221.047	22
222.0323	10
223.0161	240
230.9963	68
235.0266	23
249.0432	296
262.0327	11
263.0226	124
265.0371	43
267.0532	21
291.0595	13
293.0334	124
325.0578	14
390.0246	17
422.051	21
452.0619	24
454.0782	18
484.0889	33
496.0537	63
498.0701	13
528.079	78
