Mass spectrum: Aspartame; LC-ESI-QTOF; MS2; 40 V
Name: Aspartame
Class: Food_additive
Formula: C14H18N2O5
Exact mass: 294.1216
SMILES: COC(=O)C(Cc1ccccc1)NC(=O)C(N)CC(O)=O
InChI: InChI=1S/C14H18N2O5/c1-21-14(20)11(7-9-5-3-2-4-6-9)16-13(19)10(15)8-12(17)18/h2-6,10-11H,7-8,15H2,1H3,(H,16,19)(H,17,18)
Instrument: TripleTOF 5600 SCIEX
Instrument type: LC-ESI-QTOF
Ms type: MS2
Ion mode: NEGATIVE
Collision energy: 40
Fragmentation mode: CID
Ionization: ESI
Column name: Zorbax Eclipse Plus C18 2.1 mm x 150 mm, 3.5 um, Agilent
Retention time: 5.761 min
Precursor m/z: 293.1143
Precursor type: [M-H]-
m/z	relative intensity
42.0018	207
70.0301	284
81.022	180
81.0432	49
91.0556	198
97.0401	519
99.0573	63
109.0168	67
113.0353	85
116.0513	90
118.0657	329
125.0356	63
126.0432	244
146.0598	357
156.0812	67
157.0765	94
172.0779	58
173.1086	194
174.0552	122
189.1026	149
200.072	999
201.0664	131
217.0992	266
243.0787	81
261.0878	167
