Mass spectrum: Fenarimol; LC-ESI-QTOF; MS2; 50 V
Name: Fenarimol
Class: Fungicide
Formula: C17H12Cl2N2O
Exact mass: 330.0327
SMILES: C1=CC=C(C(=C1)C(C2=CC=C(C=C2)Cl)(C3=CN=CN=C3)O)Cl
InChI: InChI=1S/C17H12Cl2N2O/c18-14-7-5-12(6-8-14)17(22,13-9-20-11-21-10-13)15-3-1-2-4-16(15)19/h1-11,22H
Instrument: TripleTOF 6600 SCIEX
Instrument type: LC-ESI-QTOF
Ms type: MS2
Ion mode: POSITIVE
Collision energy: 50
Fragmentation mode: CID
Ionization: ESI
Column name: Zorbax Eclipse Plus C18 2.1 mm x 150 mm, 3.5 um, Agilent
Retention time: 11.9 min
Precursor m/z: 331.04
Precursor type: [M+H]+
m/z	relative intensity
54.0336	140
75.0227	13
81.0449	679
110.9993	126
128.0482	14
130.064	13
138.9953	999
149.015	11
156.0672	16
157.0744	12
158.0595	11
164.025	16
165.0689	22
176.0622	13
177.0692	13
178.0773	40
184.0622	13
188.0621	20
189.0703	672
190.0757	12
192.0209	18
199.0315	25
203.0739	23
204.0812	140
205.0652	55
205.0881	24
206.0744	12
212.0383	19
214.0639	13
215.0739	12
216.0815	61
217.0643	32
217.0894	13
219.0325	17
223.0314	213
224.0389	32
232.0759	51
232.9925	40
233.0836	96
238.0421	104
240.0577	76
241.0427	76
241.0644	9
242.0828	23
243.0911	20
250.0406	50
251.002	14
251.05	48
252.0347	160
259.0074	115
266.0364	44
267.0459	18
267.0694	17
268.0528	156
277.0536	16
278.0606	30
