Mass spectrum: Omeprazole sulfide 5-carboxylic acid; LC-ESI-QTOF; MS2; 120 V
Name: Omeprazole sulfide 5-carboxylic acid
Class: Metabolite; Pharmaceutical
Formula: C17H17N3O4S
Exact mass: 359.094
SMILES: CC1=C(C(=CN=C1CSC2=NC3=C(N2)C=C(C=C3)OC)C(=O)O)OC
InChI: InChI=1S/C17H17N3O4S/c1-9-14(18-7-11(16(21)22)15(9)24-3)8-25-17-19-12-5-4-10(23-2)6-13(12)20-17/h4-7H,8H2,1-3H3,(H,19,20)(H,21,22)
Instrument: TripleTOF 5600 SCIEX
Instrument type: LC-ESI-QTOF
Ms type: MS2
Ion mode: POSITIVE
Collision energy: 120
Fragmentation mode: CID
Ionization: ESI
Column name: Zorbax Eclipse Plus C18 2.1 mm x 150 mm, 3.5 um, Agilent
Retention time: 5.75 min
Precursor m/z: 360.1013
Precursor type: [M+H]+
m/z	relative intensity
42.0452	66
43.0302	63
50.024	49
51.0324	154
52.0385	179
53.0103	34
53.0168	22
53.0468	108
54.0399	12
55.0302	9
62.0249	27
63.029	63
64.037	12
65.0457	193
66.0429	144
67.0463	31
67.0529	14
67.062	22
68.0183	9
68.0573	9
68.985	44
69.9928	22
71.996	14
76.0231	19
77.0437	292
78.0381	238
79.025	24
79.0475	652
80.0172	68
80.0361	17
80.0538	220
81.9907	12
83.0005	54
84.0016	12
85.015	12
89.0423	41
90.0372	31
91.0448	58
92.0529	169
93.0487	242
94.0677	36
94.998	31
96.0073	36
97.0141	115
102.0368	12
104.0519	51
105.0473	130
106.0331	12
106.0638	999
107.0754	88
108.0496	17
108.0828	31
109.0106	19
110.009	100
117.0486	9
118.0306	14
118.0529	9
119.0588	14
120.0485	17
122.0083	39
123.0165	27
124.0235	22
133.0419	27
134.0102	36
134.0484	125
136.0243	29
137.0172	304
138.029	14
140.0532	14
151.0112	17
152.0177	34
153.0412	12
155.0633	12
165.0125	31
166.035	12
166.0615	9
167.0595	24
168.0685	14
179.0627	14
194.0729	22
222.0687	9
