Mass spectrum: Terbutrynesulfoxide; LC-ESI-QTOF; MS2; 70 V
Name: Terbutrynesulfoxide
Class: Transformation_product; Herbicide; Pesticide; Transformation_product-Metabolite
Formula: C10H19N5OS
Exact mass: 257.131
SMILES: CCNC1=NC(=NC(=N1)S(=O)C)NC(C)(C)C
InChI: InChI=1S/C10H19N5OS/c1-6-11-7-12-8(15-10(2,3)4)14-9(13-7)17(5)16/h6H2,1-5H3,(H2,11,12,13,14,15)
Instrument: TripleTOF 5600 SCIEX
Instrument type: LC-ESI-QTOF
Ms type: MS2
Ion mode: POSITIVE
Collision energy: 70
Fragmentation mode: CID
Ionization: ESI
Column name: Zorbax Eclipse Plus C18 2.1 mm x 150 mm, 3.5 um, Agilent
Retention time: 8.816 min
Precursor m/z: 258.1383
Precursor type: [M+H]+
m/z	relative intensity
42.0352	14
43.0425	254
44.0586	46
44.9925	12
47.0073	19
55.0392	48
56.0449	34
57.0522	10
57.9834	17
58.0741	11
59.0564	36
67.0358	10
68.0319	999
69.0156	664
69.0381	136
70.0474	101
71.0664	100
71.9968	82
82.0451	17
84.0602	18
84.9909	493
85.057	14
86.0395	144
86.0632	10
94.0447	31
95.0505	14
96.0605	105
97.0511	123
98.0629	31
99.0053	23
110.049	26
111.0349	26
111.066	137
112.0657	163
113.0217	17
114.0701	28
121.0539	57
122.0637	15
124.0644	55
127.0117	25
138.0794	48
139.088	20
155.0414	10
