Mass spectrum: Atenolol; LC-ESI-QTOF; MS2; 70 V
Name: Atenolol
Class: Pharmaceutical
Formula: C14H22N2O3
Exact mass: 266.163
SMILES: CC(C)NCC(O)COc1ccc(CC(N)=O)cc1
InChI: InChI=1S/C14H22N2O3/c1-10(2)16-8-12(17)9-19-13-5-3-11(4-6-13)7-14(15)18/h3-6,10,12,16-17H,7-9H2,1-2H3,(H2,15,18)
Instrument: TripleTOF 5600 SCIEX
Instrument type: LC-ESI-QTOF
Ms type: MS2
Ion mode: POSITIVE
Collision energy: 70
Fragmentation mode: CID
Ionization: ESI
Column name: Zorbax Eclipse Plus C18 2.1 mm x 150 mm, 3.5 um, Agilent
Retention time: 4.619 min
Precursor m/z: 267.1703
Precursor type: [M+H]+
m/z	relative intensity
56.0531	217
65.0429	245
72.084	54
74.062	108
77.0411	944
79.0562	336
89.0409	999
91.0556	908
91.0812	63
93.0728	54
103.0553	118
105.0707	99
106.0652	108
107.0494	890
107.0684	45
115.0541	808
116.0492	108
116.0624	81
117.0577	36
117.0699	108
119.0483	45
121.0624	54
127.0547	45
131.0501	72
133.0654	81
144.0534	54
145.0644	172
