Mass spectrum: Nitenpyram; LC-ESI-QTOF; MS2; 80 V
Name: Nitenpyram
Class: Pharmaceutical; Insecticide
Formula: C11H15ClN4O2
Exact mass: 270.0884
SMILES: CCN(Cc1ccc(Cl)nc1)\C(NC)=C\[N+]([O-])=O
InChI: InChI=1S/C11H15ClN4O2/c1-3-15(11(13-2)8-16(17)18)7-9-4-5-10(12)14-6-9/h4-6,8,13H,3,7H2,1-2H3/b11-8+
Instrument: TripleTOF 5600 SCIEX
Instrument type: LC-ESI-QTOF
Ms type: MS2
Ion mode: POSITIVE
Collision energy: 80
Fragmentation mode: CID
Ionization: ESI
Column name: Zorbax Eclipse Plus C18 2.1 mm x 150 mm, 3.5 um, Agilent
Retention time: 5.386 min
Precursor m/z: 271.0956
Precursor type: [M+H]+
m/z	relative intensity
55.0363	17
56.0558	999
57.0489	21
57.0623	17
58.0691	28
64.0337	14
65.0428	21
72.9872	371
73.0135	14
73.0296	17
75.0258	14
76.0214	24
77.0422	42
78.0359	56
84.984	17
89.0417	17
90.0354	245
91.0438	112
92.0514	28
99.0006	308
102.0342	84
104.0499	24
106.0624	14
111.9929	38
114.0099	21
116.0496	31
117.044	24
117.0584	45
118.0525	28
119.0599	17
126.01	241
127.0171	17
129.0456	17
131.06	49
132.0697	21
138.0094	24
139.0051	31
144.0551	17
145.0683	28
151.0194	21
152.0196	21
165.021	24
180.0308	17
