Mass spectrum: Diazepam; LC-ESI-QTOF; MS2; 40 V
Name: Diazepam
Class: Pharmaceutical
Formula: C16H13ClN2O
Exact mass: 284.0716
SMILES: CN1C(=O)CN=C(C2=C1C=CC(=C2)Cl)C3=CC=CC=C3
InChI: InChI=1S/C16H13ClN2O/c1-19-14-8-7-12(17)9-13(14)16(18-10-15(19)20)11-5-3-2-4-6-11/h2-9H,10H2,1H3
Instrument: TripleTOF 6600 SCIEX
Instrument type: LC-ESI-QTOF
Ms type: MS2
Ion mode: POSITIVE
Collision energy: 40
Fragmentation mode: CID
Ionization: ESI
Column name: Zorbax Eclipse Plus C18 2.1 mm x 150 mm, 3.5 um, Agilent
Retention time: 11.181 min
Precursor m/z: 285.0789
Precursor type: [M+H]+
m/z	relative intensity
58.0282	10
77.0376	24
89.0379	32
90.0454	15
91.0537	153
104.0483	23
105.0325	32
116.0485	46
117.0565	79
118.0645	67
119.0725	43
125.0148	82
126.0226	11
131.0599	11
138.0102	22
139.0169	21
140.025	19
141.0332	19
143.0594	56
144.0676	24
147.067	28
150.0098	30
152.0257	21
154.0415	605
163.0046	18
165.0688	54
166.0777	13
167.0129	56
172.0628	79
177.0212	26
179.0369	81
180.0209	52
180.0804	36
181.0881	11
182.0359	50
191.0729	26
192.0804	67
193.0886	999
194.0963	47
204.08	67
205.0838	34
206.0843	116
207.091	88
214.0437	14
216.0571	47
220.1003	15
221.1072	132
222.1158	513
226.0415	22
227.0492	96
228.0578	287
230.073	23
239.0365	11
240.0537	31
241.0533	283
242.0602	37
255.0684	94
257.0847	256
269.0461	15
285.0799	686
