Mass spectrum: 2-(3-Hydroxyquinolin-2-yl)indene-1,3-dione; LC-ESI-QTOF; MS2; 70 V
Name: 2-(3-Hydroxyquinolin-2-yl)indene-1,3-dione
Class: Industrial_process; Personal_care_product; Pigment
Formula: C18H11NO3
Exact mass: 289.0739
SMILES: C1=CC=C2C(=C1)C=C(C(=N2)C3C(=O)C4=CC=CC=C4C3=O)O
InChI: InChI=1S/C18H11NO3/c20-14-9-10-5-1-4-8-13(10)19-16(14)15-17(21)11-6-2-3-7-12(11)18(15)22/h1-9,15,20H
Instrument: TripleTOF 6600 SCIEX
Instrument type: LC-ESI-QTOF
Ms type: MS2
Ion mode: POSITIVE
Collision energy: 70
Fragmentation mode: CID
Ionization: ESI
Column name: Zorbax Eclipse Plus C18 2.1 mm x 150 mm, 3.5 um, Agilent
Retention time: 14.718 min
Precursor m/z: 290.0812
Precursor type: [M+H]+
m/z	relative intensity
51.0236	64
63.023	71
65.0397	64
77.0388	299
89.0386	285
91.0544	35
103.0545	99
113.0372	35
115.0547	156
116.049	85
117.0578	42
128.0496	92
130.0649	185
139.0536	78
140.0499	92
151.0581	35
152.0611	42
163.0537	228
164.0631	28
165.0692	107
166.0641	28
176.0622	57
177.0593	107
178.0766	121
187.0544	206
188.0611	392
189.0688	849
190.0637	449
191.0738	35
201.058	35
203.0717	49
204.0804	492
213.0579	42
214.0647	999
215.0725	606
216.0797	563
217.0883	192
232.0711	85
243.0651	28
