Mass spectrum: Fenpropimorph; LC-ESI-QTOF; MS2; 150 V
Name: Fenpropimorph
Class: Pharmaceutical; Fungicide
Formula: C20H33NO
Exact mass: 303.2562
SMILES: CC(CN1C[C@H](C)O[C@H](C)C1)Cc2ccc(cc2)C(C)(C)C
InChI: InChI=1S/C20H33NO/c1-15(12-21-13-16(2)22-17(3)14-21)11-18-7-9-19(10-8-18)20(4,5)6/h7-10,15-17H,11-14H2,1-6H3/t15?,16-,17+
Instrument: TripleTOF 5600 SCIEX
Instrument type: LC-ESI-QTOF
Ms type: MS2
Ion mode: POSITIVE
Collision energy: 150
Fragmentation mode: CID
Ionization: ESI
Column name: Zorbax Eclipse Plus C18 2.1 mm x 150 mm, 3.5 um, Agilent
Retention time: 9.527 min
Precursor m/z: 304.2635
Precursor type: [M+H]+
m/z	relative intensity
42.0421	21
57.0754	10
65.0434	566
74.0173	41
75.0252	41
76.0333	28
77.0416	347
78.0488	118
79.0568	26
89.0401	261
91.0562	913
102.0461	76
103.0544	73
115.0545	999
116.0613	58
117.0693	61
127.0544	19
128.061	44
