Mass spectrum: N,N-Dimethyldecanamide; LC-ESI-QTOF; MS2; 70 V
Name: N,N-Dimethyldecanamide
Class: Industrial_process
Formula: C12H25NO
Exact mass: 199.1936
SMILES: CCCCCCCCCC(=O)N(C)C
InChI: InChI=1S/C12H25NO/c1-4-5-6-7-8-9-10-11-12(14)13(2)3/h4-11H2,1-3H3
Instrument: TripleTOF 6600 SCIEX
Instrument type: LC-ESI-QTOF
Ms type: MS2
Ion mode: POSITIVE
Collision energy: 70
Fragmentation mode: CID
Ionization: ESI
Column name: Zorbax Eclipse Plus C18 2.1 mm x 150 mm, 3.5 um, Agilent
Retention time: 13.577 min
Precursor m/z: 200.2009
Precursor type: [M+H]+
m/z	relative intensity
30.0334	34
37.0068	45
38.0025	26
38.0143	37
39.0227	379
41.0383	490
42.033	27
43.0175	100
43.0537	86
44.0494	999
45.0567	72
46.0647	255
55.0173	125
55.0401	16
55.0532	17
56.012	29
57.0321	13
58.0279	57
72.0437	220
100.0747	19
