Mass spectrum: Disperse Red 1; LC-ESI-QTOF; MS2; 80 V
Name: Disperse Red 1
Formula: C16H18N4O3
Exact mass: 314.1379
SMILES: CCN(CCO)C1=CC=C(C=C1)N=NC2=CC=C(C=C2)[N+](=O)[O-]
InChI: InChI=1S/C16H18N4O3/c1-2-19(11-12-21)15-7-3-13(4-8-15)17-18-14-5-9-16(10-6-14)20(22)23/h3-10,21H,2,11-12H2,1H3
Instrument: TripleTOF X500R SCIEX
Instrument type: LC-ESI-QTOF
Ms type: MS2
Ion mode: POSITIVE
Collision energy: 80
Fragmentation mode: CID
Ionization: ESI
Column name: Zorbax Eclipse Plus C18 2.1 mm x 150 mm, 3.5 um, Agilent
Retention time: 12.973 min
Precursor m/z: 315.1452
Precursor type: [M+H]+
m/z	relative intensity
39.0227	82
50.0155	302
51.0235	73
63.0234	192
64.0308	137
65.0389	256
75.0238	999
76.0314	522
77.0396	449
78.0452	109
79.0539	174
91.0551	238
92.0259	100
92.0504	293
94.0662	54
104.0497	449
105.0574	577
106.0655	733
117.0594	119
118.0658	192
119.0615	256
120.0802	64
130.0482	45
131.06	64
132.0814	91
133.0907	64
134.0964	146
145.0744	91
147.0938	45
152.0623	100
209.0992	64
