Mass spectrum: Terbutaline; LC-ESI-QTOF; MS2; 60 V
Name: Terbutaline
Class: Pharmaceutical
Formula: C12H19NO3
Exact mass: 225.1365
SMILES: CC(C)(C)NCC(C1=CC(=CC(=C1)O)O)O
InChI: InChI=1S/C12H19NO3/c1-12(2,3)13-7-11(16)8-4-9(14)6-10(15)5-8/h4-6,11,13-16H,7H2,1-3H3
Instrument: TripleTOF 5600 SCIEX
Instrument type: LC-ESI-QTOF
Ms type: MS2
Ion mode: POSITIVE
Collision energy: 60
Fragmentation mode: CID
Ionization: ESI
Column name: Zorbax Eclipse Plus C18 2.1 mm x 150 mm, 3.5 um, Agilent
Retention time: 4.546 min
Precursor m/z: 226.1438
Precursor type: [M+H]+
m/z	relative intensity
41.038	53
51.0219	41
55.0177	53
57.0696	95
65.0382	35
67.0434	29
67.0543	29
68.9971	196
77.0386	999
79.0542	249
81.0346	29
82.0431	41
89.0377	41
92.0483	29
106.0668	23
107.0489	939
110.036	344
116.0482	29
125.0586	71
