Mass spectrum: 2H,2H,3H,3H-Perfluorodecanoic acid; LC-ESI-QTOF; MS2; 50 V
Name: 2H,2H,3H,3H-Perfluorodecanoic acid
Formula: C10H5F15O2
Exact mass: 442.005
SMILES: C(CC(C(C(C(C(C(C(F)(F)F)(F)F)(F)F)(F)F)(F)F)(F)F)(F)F)C(=O)O
InChI: InChI=1S/C10H5F15O2/c11-4(12,2-1-3(26)27)5(13,14)6(15,16)7(17,18)8(19,20)9(21,22)10(23,24)25/h1-2H2,(H,26,27)
Instrument: TripleTOF 6600 SCIEX
Instrument type: LC-ESI-QTOF
Ms type: MS2
Ion mode: NEGATIVE
Collision energy: 50
Fragmentation mode: CID
Ionization: ESI
Column name: Zorbax Eclipse Plus C18 2.1 mm x 150 mm, 3.5 um, Agilent
Retention time: 14.147 min
Precursor m/z: 440.9977
Precursor type: [M-H]-
m/z	relative intensity
39.0032	38
62.9855	38
92.9928	49
97.9942	35
116.9924	24
147.9915	49
154.9885	28
166.9902	56
197.9878	105
216.9843	66
242.9818	63
247.984	59
266.9825	942
316.9786	999
332.9771	24
336.9886	17
