Mass spectrum: Norlidocaine; LC-ESI-QTOF; MS2; 150 V
Name: Norlidocaine
Class: Pharmaceutical; Metabolite
Formula: C12H18N2O
Exact mass: 206.1419
InChI: InChI=1S/C12H18N2O/c1-4-13-8-11(15)14-12-9(2)6-5-7-10(12)3/h5-7,13H,4,8H2,1-3H3,(H,14,15)
Instrument: TripleTOF 6600 SCIEX
Instrument type: LC-ESI-QTOF
Ms type: CID
Ion mode: POSITIVE
Collision energy: 150
Ionization: ESI
Column name: Zorbax Eclipse Plus C18 2.1 mm x 150 mm, 3.5 um, Agilent
Retention time: 5.349 min
Precursor m/z: 207.1492
Precursor type: [M+H]+
m/z	relative intensity
30.0342	83
35.9997	90
37.007	263
38.0023	138
38.0154	152
39.0235	277
40.0064	27
41.0262	41
42.0336	138
49.0076	242
50.0151	999
51.0229	541
52.0052	41
52.0181	27
53.0132	62
61.0071	166
62.0148	235
63.0233	173
65.0399	34
74.0147	97
77.0379	41
