Mass spectrum: (1-Ethoxyvinyl)triphenylphosphonium; LC-ESI-QTOF; MS2; 130 V
Name: (1-Ethoxyvinyl)triphenylphosphonium
Class: Industrial_process
Formula: [C22H22OP]+
Exact mass: 333.1403
SMILES: CCOC(=C)[P+](C1=CC=CC=C1)(C2=CC=CC=C2)C3=CC=CC=C3
InChI: InChI=1S/C22H22OP/c1-3-23-19(2)24(20-13-7-4-8-14-20,21-15-9-5-10-16-21)22-17-11-6-12-18-22/h4-18H,2-3H2,1H3/q+1
Instrument: TripleTOF 6600 SCIEX
Instrument type: LC-ESI-QTOF
Ms type: MS2
Ion mode: POSITIVE
Collision energy: 130
Fragmentation mode: CID
Ionization: ESI
Column name: Zorbax Eclipse Plus C18 2.1 mm x 150 mm, 3.5 um, Agilent
Retention time: 9.296 min
Precursor m/z: 333.1403
Precursor type: [M]+
m/z	relative intensity
39.0233	63
43.0179	55
50.0151	67
51.0227	67
55.981	78
56.9883	142
62.0145	67
63.0226	238
65.0382	136
74.0145	71
76.0296	80
77.0378	67
78.0453	53
79.9797	211
80.9874	304
87.0213	82
89.0366	355
102.0448	152
103.9796	71
107.0029	985
113.0364	128
115.0528	497
126.0449	311
131.0036	150
133.0186	100
139.0532	406
150.0458	321
151.0539	679
152.0615	999
155.0036	108
156.0121	126
157.0193	544
180.0118	96
181.0201	515
183.0365	114
