Mass spectrum: 4-Aminoantipyrine; LC-ESI-QTOF; MS2; 50 V
Name: 4-Aminoantipyrine
Class: Transformation_product
Formula: C11H13N3O
Exact mass: 203.1059
SMILES: CC1=C(C(=O)N(N1C)C2=CC=CC=C2)N
InChI: InChI=1S/C11H13N3O/c1-8-10(12)11(15)14(13(8)2)9-6-4-3-5-7-9/h3-7H,12H2,1-2H3
Instrument: TripleTOF 5600 SCIEX
Instrument type: LC-ESI-QTOF
Ms type: MS2
Ion mode: POSITIVE
Collision energy: 50
Fragmentation mode: CID
Ionization: ESI
Column name: Zorbax Eclipse Plus C18 2.1 mm x 150 mm, 3.5 um, Agilent
Retention time: 4.783 min
Precursor m/z: 204.1131
Precursor type: [M+H]+
m/z	relative intensity
42.0341	29
44.0492	10
51.023	17
56.0497	999
58.0651	18
68.0492	10
77.0387	307
83.0604	63
91.0536	19
93.057	15
94.0653	123
101.0392	13
103.0538	10
104.049	25
115.0555	13
117.0573	25
118.0653	15
128.049	32
130.0654	16
132.0804	17
