Mass spectrum: Clomazone; LC-ESI-QTOF; MS2; 90 V
Name: Clomazone
Class: Herbicide
Formula: C12H14ClNO2
Exact mass: 239.0713
SMILES: CC1(CON(C1=O)CC2=CC=CC=C2Cl)C
InChI: InChI=1S/C12H14ClNO2/c1-12(2)8-16-14(11(12)15)7-9-5-3-4-6-10(9)13/h3-6H,7-8H2,1-2H3
Instrument: TripleTOF 6600 SCIEX
Instrument type: LC-ESI-QTOF
Ms type: MS2
Ion mode: POSITIVE
Collision energy: 90
Fragmentation mode: CID
Ionization: ESI
Column name: Zorbax Eclipse Plus C18 2.1 mm x 150 mm, 3.5 um, Agilent
Retention time: 11.289 min
Precursor m/z: 240.0786
Precursor type: [M+H]+
m/z	relative intensity
37.0058	38
38.0137	47
39.0214	139
46.9661	23
48.9814	56
50.0131	19
51.0204	14
59.9975	25
61.0055	101
62.0129	198
63.0208	528
64.0281	57
65.0367	51
72.9817	475
74.0131	16
74.9972	25
75.0209	15
89.0364	999
90.044	153
96.9812	21
98.9972	266
125.0131	36
