Mass spectrum: Carbadox; LC-ESI-QTOF; MS2; 60 V
Name: Carbadox
Class: Antimicrobial; Pharmaceutical
Formula: C11H10N4O4
Exact mass: 262.0702
SMILES: COC(=O)N=NC=C1C=[N+]([O-])c2ccccc2N1O
InChI: InChI=1S/C11H10N4O4/c1-19-11(16)13-12-6-8-7-14(17)9-4-2-3-5-10(9)15(8)18/h2-7,18H,1H3
Instrument: TripleTOF 5600 SCIEX
Instrument type: LC-ESI-QTOF
Ms type: MS2
Ion mode: POSITIVE
Collision energy: 60
Fragmentation mode: CID
Ionization: ESI
Column name: Zorbax Eclipse Plus C18 2.1 mm x 150 mm, 3.5 um, Agilent
Retention time: 5.823 min
Precursor m/z: 263.0775
Precursor type: [M+H]+
m/z	relative intensity
51.0286	135
52.0223	13
64.034	78
65.0437	98
69.011	15
74.0192	24
75.026	225
76.0215	39
76.0331	218
77.0416	424
78.0361	100
78.0468	28
88.0317	13
89.0321	98
90.036	732
91.043	135
92.0501	13
101.0384	30
102.0349	999
102.0738	10
103.0422	629
104.0486	111
105.0449	26
114.0325	28
115.0417	37
116.0368	308
117.0449	13
117.0552	15
118.0529	39
128.0503	41
129.0447	682
130.0405	397
131.0592	28
142.0501	41
143.0474	190
145.0399	39
155.0469	85
171.042	39
172.0514	17
