Mass spectrum: N,N`-diphenyl-p-phenylenediamine; LC-ESI-QTOF; MS2; 150 V
Name: N,N`-diphenyl-p-phenylenediamine
Class: Industrial_process
Formula: C18H16N2
Exact mass: 260.1313
SMILES: N(c1ccccc1)c2ccc(Nc3ccccc3)cc2
InChI: InChI=1S/C18H16N2/c1-3-7-15(8-4-1)19-17-11-13-18(14-12-17)20-16-9-5-2-6-10-16/h1-14,19-20H
Instrument: TripleTOF 5600 SCIEX
Instrument type: LC-ESI-QTOF
Ms type: MS2
Ion mode: POSITIVE
Collision energy: 150
Fragmentation mode: CID
Ionization: ESI
Column name: Zorbax Eclipse Plus C18 2.1 mm x 150 mm, 3.5 um, Agilent
Retention time: 14.544 min
Precursor m/z: 261.1386
Precursor type: [M+H]+
m/z	relative intensity
52.0329	374
54.0422	160
65.0451	392
66.0497	107
73.0106	107
74.0195	999
75.0256	749
76.0248	89
76.0334	231
77.0414	731
78.0471	142
80.0526	677
85.0098	249
86.0169	410
87.0245	517
88.0261	71
88.0363	89
89.041	802
90.0432	178
98.0162	196
99.0203	124
100.0298	107
101.0385	107
102.047	214
103.0525	124
110.0159	107
113.0394	463
114.0401	142
115.055	160
126.0496	196
127.0522	142
127.0691	107
128.0598	160
139.0554	303
140.05	178
