Mass spectrum: 2-Ethyl-6-methylaniline; LC-ESI-QTOF; MS2; 120 V
Name: 2-Ethyl-6-methylaniline
Class: Industrial_process
Formula: C9H13N
Exact mass: 135.1048
SMILES: CCC1=CC=CC(=C1N)C
InChI: InChI=1S/C9H13N/c1-3-8-6-4-5-7(2)9(8)10/h4-6H,3,10H2,1-2H3
Instrument: TripleTOF 5600 SCIEX
Instrument type: LC-ESI-QTOF
Ms type: CID
Ion mode: POSITIVE
Collision energy: 120
Ionization: ESI
Column name: Zorbax Eclipse Plus C18 2.1 mm x 150 mm, 3.5 um, Agilent
Retention time: 7.958 min
Precursor m/z: 136.1121
Precursor type: [M+H]+
m/z	relative intensity
35.9991	102
37.0073	264
38.0147	102
39.0227	176
49.0072	205
50.0154	999
51.0232	146
61.0073	220
62.0148	235
63.0219	73
74.0152	58
