Mass spectrum: Leucomalachite green; LC-ESI-QTOF; MS2; 120 V
Name: Leucomalachite green
Class: Metabolite
Formula: C23H26N2
Exact mass: 330.2096
SMILES: CN(C)C1=CC=C(C=C1)C(C2=CC=CC=C2)C3=CC=C(C=C3)N(C)C
InChI: InChI=1S/C23H26N2/c1-24(2)21-14-10-19(11-15-21)23(18-8-6-5-7-9-18)20-12-16-22(17-13-20)25(3)4/h5-17,23H,1-4H3
Instrument: TripleTOF 6600 SCIEX
Instrument type: LC-ESI-QTOF
Ms type: MS2
Ion mode: POSITIVE
Collision energy: 120
Fragmentation mode: CID
Ionization: ESI
Column name: Zorbax Eclipse Plus C18 2.1 mm x 150 mm, 3.5 um, Agilent
Retention time: 9.974 min
Precursor m/z: 331.2169
Precursor type: [M+H]+
m/z	relative intensity
51.0218	10
63.0226	20
65.0383	20
77.0372	46
78.0459	10
89.0368	35
91.0525	18
102.045	27
115.0526	132
125.0367	13
126.0453	49
127.0528	92
128.061	47
139.0532	124
140.051	18
140.0609	10
141.0692	23
142.0647	10
150.0449	56
151.0535	262
152.0608	999
153.0682	371
154.0643	15
154.0743	11
155.0593	10
162.043	15
163.053	173
164.0605	144
165.0685	521
166.071	80
167.0735	30
168.0797	13
176.0595	11
177.0548	15
178.064	52
179.0702	69
180.0795	158
181.0858	20
182.0971	13
189.068	22
190.0636	17
191.0708	18
192.0816	18
193.0877	15
194.0954	129
195.1035	15
196.1114	11
200.0606	15
201.0667	13
202.0762	51
205.0743	10
207.0915	28
208.0968	11
213.068	37
214.0801	10
215.0841	27
224.0673	13
225.068	22
226.0759	107
227.084	39
228.0935	25
237.0679	30
238.0767	13
239.0847	63
240.0806	20
241.0867	15
253.0898	18
254.0931	32
