Mass spectrum: 4-Hydroxytrimethoprim; LC-ESI-QTOF; MS2; 70 V
Name: 4-Hydroxytrimethoprim
Class: Pharmaceutical; Transformation_product
Formula: C14H18N4O4
Exact mass: 306.1328
SMILES: COc1cc(cc(c1OC)OC)Cc2c(nc(nc2O)N)N
InChI: InChI=1S/C14H18N4O4/c1-20-9-5-7(6-10(21-2)11(9)22-3)4-8-12(15)17-14(16)18-13(8)19/h5-6H,4H2,1-3H3,(H5,15,16,17,18,19)
Instrument: TripleTOF 5600 SCIEX
Instrument type: LC-ESI-QTOF
Ms type: MS2
Ion mode: POSITIVE
Collision energy: 70
Fragmentation mode: CID
Ionization: ESI
Column name: Zorbax Eclipse Plus C18 2.1 mm x 150 mm, 3.5 um, Agilent
Retention time: 5.43 min
Precursor m/z: 307.1401
Precursor type: [M+H]+
m/z	relative intensity
43.0373	185
52.024	176
54.0384	130
55.0229	229
60.0597	24
65.0426	16
69.01	28
69.0238	14
69.0485	217
77.0405	69
78.0493	28
79.0565	31
79.0675	16
80.0155	528
86.036	14
89.04	84
90.0485	55
91.0551	111
93.0415	12
94.0421	36
95.0493	26
97.0404	999
105.0334	24
106.0423	12
107.048	45
109.0634	19
116.0511	14
120.0579	16
121.0265	16
122.0362	53
123.0443	33
136.0511	38
137.0602	96
138.0673	14
139.0614	323
144.0449	16
148.0519	127
149.0227	19
151.0382	19
158.0225	16
165.0527	21
181.0849	24
