Mass spectrum: Sudan I; LC-ESI-QTOF; MS2; 150 V
Name: Sudan I
Formula: C16H12N2O
Exact mass: 248.095
SMILES: C1=CC=C(C=C1)N=NC2=C(C=CC3=CC=CC=C32)O
InChI: InChI=1S/C16H12N2O/c19-15-11-10-12-6-4-5-9-14(12)16(15)18-17-13-7-2-1-3-8-13/h1-11,19H
Instrument: TripleTOF 6600 SCIEX
Instrument type: LC-ESI-QTOF
Ms type: MS2
Ion mode: POSITIVE
Collision energy: 150
Fragmentation mode: CID
Ionization: ESI
Column name: Zorbax Eclipse Plus C18 2.1 mm x 150 mm, 3.5 um, Agilent
Retention time: 15.674 min
Precursor m/z: 249.1023
Precursor type: [M+H]+
m/z	relative intensity
36.0002	19
37.0074	156
38.0152	163
39.023	353
41.0261	25
42.0339	19
49.0072	90
50.0152	468
51.0227	300
52.0178	76
54.0344	15
61.0073	34
62.015	47
63.0226	41
65.0385	95
73.0071	198
74.0148	999
75.0099	48
75.0223	117
76.0172	40
86.0144	11
98.0149	34
