Mass spectrum: Gemcitabine; LC-ESI-QTOF; MS2; 20 V
Name: Gemcitabine
Class: Pharmaceutical
Formula: C9H11F2N3O4
Exact mass: 263.0718
SMILES: C1=CN(C(=O)N=C1N)C2C(C(C(O2)CO)O)(F)F
InChI: InChI=1S/C9H11F2N3O4/c10-9(11)6(16)4(3-15)18-7(9)14-2-1-5(12)13-8(14)17/h1-2,4,6-7,15-16H,3H2,(H2,12,13,17)
Instrument: TripleTOF 5600 SCIEX
Instrument type: LC-ESI-QTOF
Ms type: CID
Ion mode: POSITIVE
Collision energy: 20
Ionization: ESI
Column name: Zorbax Eclipse Plus C18 2.1 mm x 150 mm, 3.5 um, Agilent
Retention time: 2.43 min
Precursor m/z: 264.079
Precursor type: [M+H]+
m/z	relative intensity
87.0237	18
95.0261	12
112.0502	999
112.0852	15
264.0775	658
