Mass spectrum: Pyroxsulam; LC-ESI-QTOF; MS2; 40 V
Name: Pyroxsulam
Class: Herbicide
Formula: C14H13F3N6O5S
Exact mass: 434.062
SMILES: COC1=CC(=NC2=NC(=NN12)NS(=O)(=O)C3=C(C=CN=C3OC)C(F)(F)F)OC
InChI: InChI=1S/C14H13F3N6O5S/c1-26-8-6-9(27-2)23-13(19-8)20-12(21-23)22-29(24,25)10-7(14(15,16)17)4-5-18-11(10)28-3/h4-6H,1-3H3,(H,21,22)
Instrument: TripleTOF 6600 SCIEX
Instrument type: LC-ESI-QTOF
Ms type: MS2
Ion mode: NEGATIVE
Collision energy: 40
Fragmentation mode: CID
Ionization: ESI
Column name: Zorbax Eclipse Plus C18 2.1 mm x 150 mm, 3.5 um, Agilent
Retention time: 9.651 min
Precursor m/z: 433.0547
Precursor type: [M-H]-
m/z	relative intensity
65.9965	19
66.0082	27
68.9938	88
111.066	17
116.0121	12
123.0184	68
128.031	301
136.0186	196
146.0223	341
149.0049	13
150.0299	58
156.0263	606
162.0408	103
164.0337	93
165.0418	125
174.0155	16
176.0314	561
177.0051	17
179.0555	555
180.0533	62
187.0103	11
193.0605	73
208.978	10
216.0364	113
227.0155	28
230.04	72
237.0382	20
238.0216	13
240.0379	15
251.0127	25
252.0192	17
253.0436	25
254.0501	14
255.0538	15
267.0476	210
268.0373	12
270.0478	20
283.0425	191
285.0698	281
291.0216	47
292.0317	148
293.0424	21
296.039	18
303.0376	10
307.0526	452
314.0567	42
317.0168	10
323.0495	999
324.0492	12
329.0795	121
338.0657	20
338.083	12
339.035	12
339.0661	21
349.0367	85
354.067	32
387.0085	47
433.0466	12
433.0669	13
