Mass spectrum: Enrofloxacin; LC-ESI-QTOF; MS2; 70 V
Name: Enrofloxacin
Class: Pharmaceutical; Antimicrobial
Formula: C19H22FN3O3
Exact mass: 359.1645
SMILES: CCN1CCN(CC1)c2cc3N(C=C(C(O)=O)C(=O)c3cc2F)C4CC4
InChI: InChI=1S/C19H22FN3O3/c1-2-21-5-7-22(8-6-21)17-10-16-13(9-15(17)20)18(24)14(19(25)26)11-23(16)12-3-4-12/h9-12H,2-8H2,1H3,(H,25,26)
Instrument: TripleTOF 5600 SCIEX
Instrument type: LC-ESI-QTOF
Ms type: MS2
Ion mode: POSITIVE
Collision energy: 70
Fragmentation mode: CID
Ionization: ESI
Column name: Zorbax Eclipse Plus C18 2.1 mm x 150 mm, 3.5 um, Agilent
Retention time: 5.696 min
Precursor m/z: 360.1718
Precursor type: [M+H]+
m/z	relative intensity
42.0422	100
56.0566	55
57.0621	39
70.0694	318
72.0839	27
83.0692	27
84.0835	167
89.0419	39
107.0298	55
108.04	33
109.0455	33
115.0564	55
116.0487	66
127.0554	66
128.0482	22
128.0593	50
129.0557	72
130.0674	27
132.0246	50
133.0327	44
133.0444	50
134.0392	167
135.0479	133
136.0544	100
140.0502	44
141.0457	27
141.063	39
142.0302	39
142.0531	27
142.0674	27
144.0843	22
146.0383	55
146.0544	33
147.0475	66
148.0559	262
149.0594	61
154.0631	156
155.0602	78
156.0682	44
156.0798	33
157.0761	50
159.041	33
159.0529	33
160.0192	27
160.0527	66
161.026	72
161.0507	117
162.0347	139
162.0601	100
163.0428	22
163.0674	39
167.0584	55
168.0689	89
169.078	72
172.0555	139
172.0772	22
173.0571	133
174.0345	279
174.0667	178
175.0424	33
175.0658	156
176.0483	44
176.0738	167
180.0737	22
181.0745	72
182.0805	66
184.0593	39
185.0632	89
186.0598	27
186.0703	44
187.0308	72
187.0663	139
188.0143	251
188.0406	89
188.0738	44
189.0456	373
189.0809	33
190.0532	44
190.0744	22
195.0147	33
195.0932	44
197.0687	39
200.0501	78
200.0893	22
201.0578	66
201.0802	66
202.0291	145
202.0669	139
203.036	50
203.0613	435
204.0331	22
204.0692	72
205.0791	66
208.0866	50
209.0729	39
210.0431	22
214.0597	39
215.0249	999
215.0629	27
215.0775	50
216.0331	66
216.0811	39
217.0409	507
217.0742	44
217.109	27
223.0833	22
224.0471	33
229.0433	55
229.0753	78
230.0775	55
231.0568	44
231.0911	27
236.0844	22
242.0336	22
243.0558	340
245.1077	61
256.0505	61
258.0662	122
270.0665	66
271.0738	346
286.0973	111
300.1135	66
