Mass spectrum: Metolachlor; LC-ESI-QTOF; MS2; 10 V
Name: Metolachlor
Class: Herbicide
Formula: C15H22ClNO2
Exact mass: 283.1339
SMILES: CCc1cccc(C)c1N(C(C)COC)C(=O)CCl
InChI: InChI=1S/C15H22ClNO2/c1-5-13-8-6-7-11(2)15(13)17(14(18)9-16)12(3)10-19-4/h6-8,12H,5,9-10H2,1-4H3
Instrument: TripleTOF 5600 SCIEX
Instrument type: LC-ESI-QTOF
Ms type: MS2
Ion mode: POSITIVE
Collision energy: 10
Fragmentation mode: CID
Ionization: ESI
Column name: Zorbax Eclipse Plus C18 2.1 mm x 150 mm, 3.5 um, Agilent
Retention time: 13.304 min
Precursor m/z: 284.1412
Precursor type: [M+H]+
m/z	relative intensity
252.1153	707
284.1418	999
