Mass spectrum: 1,7-Dimethylxanthine; LC-ESI-QTOF; MS2; 50 V
Name: 1,7-Dimethylxanthine
Class: Pharmaceutical; Metabolite
Formula: C7H8N4O2
Exact mass: 180.0647
SMILES: Cn1cnc2NC(=O)N(C)C(=O)c12
InChI: InChI=1S/C7H8N4O2/c1-10-3-8-5-4(10)6(12)11(2)7(13)9-5/h3H,1-2H3,(H,9,13)
Instrument: TripleTOF 5600 SCIEX
Instrument type: LC-ESI-QTOF
Ms type: MS2
Ion mode: POSITIVE
Collision energy: 50
Fragmentation mode: CID
Ionization: ESI
Column name: Zorbax Eclipse Plus C18 2.1 mm x 150 mm, 3.5 um, Agilent
Retention time: 5.064 min
Precursor m/z: 181.072
Precursor type: [M+H]+
m/z	relative intensity
42.0428	999
53.0173	18
53.0235	18
54.0253	28
54.0377	47
55.0346	376
56.0204	23
67.0328	527
67.0466	42
67.056	37
69.0483	909
70.0306	37
79.0286	23
83.0252	18
94.0407	23
96.0563	179
97.039	23
109.0266	75
124.0505	424
153.0525	23
154.0671	32
181.0747	32
