Mass spectrum: 2-Hydroxycarbamazepine; LC-ESI-QTOF; MS2; 140 V
Name: 2-Hydroxycarbamazepine
Class: Pharmaceutical; Metabolite; Transformation_product-Metabolite
Formula: C15H12N2O2
Exact mass: 252.0899
SMILES: NC(=O)N1c2ccccc2C=Cc3cc(O)ccc13
InChI: InChI=1S/C15H12N2O2/c16-15(19)17-13-4-2-1-3-10(13)5-6-11-9-12(18)7-8-14(11)17/h1-9,18H,(H2,16,19)
Instrument: TripleTOF 5600 SCIEX
Instrument type: LC-ESI-QTOF
Ms type: MS2
Ion mode: POSITIVE
Collision energy: 140
Fragmentation mode: CID
Ionization: ESI
Column name: Zorbax Eclipse Plus C18 2.1 mm x 150 mm, 3.5 um, Agilent
Retention time: 7.476 min
Precursor m/z: 253.0972
Precursor type: [M+H]+
m/z	relative intensity
44.0214	75
60.0039	34
64.0333	27
65.0424	96
73.0111	96
74.0189	999
74.045	55
75.0257	695
76.0329	227
77.042	434
78.0504	68
85.01	192
86.0173	502
87.0246	454
88.0215	96
88.0324	27
89.041	530
98.0165	509
99.0238	199
100.0322	82
101.0397	75
102.0479	124
109.0072	96
110.0151	199
111.0234	110
113.039	268
114.0337	68
115.0547	55
122.0147	82
123.0099	27
124.0291	27
125.0389	89
126.0456	227
127.0556	34
137.0384	165
138.0462	96
139.0539	124
140.0497	82
149.0396	68
150.0471	530
151.0552	261
152.0592	179
153.0575	48
161.039	137
162.0482	179
163.0553	199
164.0485	55
175.0423	27
176.05	75
177.0591	89
178.0652	48
187.0405	48
188.0494	75
