Mass spectrum: Iopromide-d3; LC-ESI-QTOF; MS2; 40 V
Name: Iopromide-d3
Class: Surrogate_standard
Formula: C18H21I3N3O8 2H3
Exact mass: 793.8886
SMILES: [2H]C([2H])([2H])OCC(=O)NC1=C(C(=C(C(=C1I)C(=O)N(C)CC(CO)O)I)C(=O)NCC(CO)O)I
InChI: InChI=1S/C18H24I3N3O8/c1-24(4-9(28)6-26)18(31)12-13(19)11(17(30)22-3-8(27)5-25)14(20)16(15(12)21)23-10(29)7-32-2/h8-9,25-28H,3-7H2,1-2H3,(H,22,30)(H,23,29)/i2D3
Instrument: TripleTOF 5600 SCIEX
Instrument type: LC-ESI-QTOF
Ms type: CID
Ion mode: NEGATIVE
Collision energy: 40
Ionization: ESI
Column name: Zorbax Eclipse Plus C18 2.1 mm x 150 mm, 3.5 um, Agilent
Retention time: 4.82 min
Precursor m/z: 792.8807
Precursor type: [M-H]-
m/z	relative intensity
126.9017	999
