Mass spectrum: Thieno[3,2-b]pyridin-7-ol; LC-ESI-QTOF; MS2; 80 V
Name: Thieno[3,2-b]pyridin-7-ol
Formula: C7H5NOS
Exact mass: 151.0092
SMILES: C1=CNC2=C(C1=O)SC=C2
InChI: InChI=1S/C7H5NOS/c9-6-1-3-8-5-2-4-10-7(5)6/h1-4H,(H,8,9)
Instrument: TripleTOF 6600 SCIEX
Instrument type: LC-ESI-QTOF
Ms type: MS2
Ion mode: NEGATIVE
Collision energy: 80
Fragmentation mode: CID
Ionization: ESI
Column name: Zorbax Eclipse Plus C18 2.1 mm x 150 mm, 3.5 um, Agilent
Retention time: 4.72 min
Precursor m/z: 150.0019
Precursor type: [M-H]-
m/z	relative intensity
32.98	108
38.0039	81
41.0026	81
48.0005	45
49.0078	317
50.0027	999
56.9794	122
57.974	158
65.9973	317
80.9791	86
81.9742	585
83.9905	22
