Mass spectrum: Food Yellow 3 free acid; LC-ESI-QTOF; MS2; 90 V
Name: Food Yellow 3 free acid
Formula: C16H12N2O7S2
Exact mass: 408.0086
SMILES: C1=CC(=CC=C1N=NC2=C(C=CC3=C2C=CC(=C3)S(=O)(=O)O)O)S(=O)(=O)O
InChI: InChI=1S/C16H12N2O7S2/c19-15-8-1-10-9-13(27(23,24)25)6-7-14(10)16(15)18-17-11-2-4-12(5-3-11)26(20,21)22/h1-9,19H,(H,20,21,22)(H,23,24,25)
Instrument: TripleTOF 6600 SCIEX
Instrument type: LC-ESI-QTOF
Ms type: MS2
Ion mode: POSITIVE
Collision energy: 90
Fragmentation mode: CID
Ionization: ESI
Column name: Zorbax Eclipse Plus C18 2.1 mm x 150 mm, 3.5 um, Agilent
Retention time: 5.59 min
Precursor m/z: 409.0159
Precursor type: [M+H]+
m/z	relative intensity
39.0229	27
50.0151	12
51.023	20
53.0386	105
62.0145	24
63.0223	136
64.9687	25
65.0384	184
74.0147	186
75.0224	85
76.0302	92
77.0379	55
80.0492	999
81.0336	40
87.023	12
88.0293	19
89.0383	514
90.0333	23
92.0488	156
98.0143	23
99.0221	148
100.03	436
101.0244	22
101.037	43
102.041	20
108.0441	415
109.0514	43
114.0336	27
115.0417	27
116.048	33
126.0334	104
127.0412	750
128.0485	21
129.0531	19
154.0401	14
175.0514	16
190.0634	34
191.0722	16
201.0578	26
202.0647	25
203.065	12
216.0669	36
217.0744	51
218.0833	31
228.0681	27
229.0756	198
230.0865	18
245.076	19
246.0777	10
