Mass spectrum: Paroxetine; LC-ESI-QTOF; MS2; 30 V
Name: Paroxetine
Class: Pharmaceutical
Formula: C19H20FNO3
Exact mass: 329.1427
SMILES: C1CNCC(C1C2=CC=C(C=C2)F)COC3=CC4=C(C=C3)OCO4
InChI: InChI=1S/C19H20FNO3/c20-15-3-1-13(2-4-15)17-7-8-21-10-14(17)11-22-16-5-6-18-19(9-16)24-12-23-18/h1-6,9,14,17,21H,7-8,10-12H2
Instrument: TripleTOF 5600 SCIEX
Instrument type: LC-ESI-QTOF
Ms type: MS2
Ion mode: POSITIVE
Collision energy: 30
Fragmentation mode: CID
Ionization: ESI
Column name: Zorbax Eclipse Plus C18 2.1 mm x 150 mm, 3.5 um, Agilent
Retention time: 7.812 min
Precursor m/z: 330.15
Precursor type: [M+H]+
m/z	relative intensity
44.0497	40
70.0654	142
97.0882	12
109.0448	26
123.0595	56
135.0604	22
137.0767	10
150.0712	11
151.039	74
161.0763	20
163.0919	50
164.0878	12
176.1001	16
178.103	53
192.1185	555
193.1264	26
313.1262	19
330.1496	999
