Mass spectrum: Metaflumizone; LC-ESI-QTOF; MS2; 40 V
Name: Metaflumizone
Class: Insecticide; Pharmaceutical
Formula: C24H16F6N4O2
Exact mass: 506.1177
SMILES: C1=CC(=CC(=C1)C(F)(F)F)C(=NNC(=O)NC2=CC=C(C=C2)OC(F)(F)F)CC3=CC=C(C=C3)C#N
InChI: InChI=1S/C24H16F6N4O2/c25-23(26,27)18-3-1-2-17(13-18)21(12-15-4-6-16(14-31)7-5-15)33-34-22(35)32-19-8-10-20(11-9-19)36-24(28,29)30/h1-11,13H,12H2,(H2,32,34,35)
Instrument: TripleTOF 6600 SCIEX
Instrument type: LC-ESI-QTOF
Ms type: MS2
Ion mode: POSITIVE
Collision energy: 40
Fragmentation mode: CID
Ionization: ESI
Column name: Zorbax Eclipse Plus C18 2.1 mm x 150 mm, 3.5 um, Agilent
Retention time: 15.496 min
Precursor m/z: 507.125
Precursor type: [M+H]+
m/z	relative intensity
89.0379	16
92.0493	23
93.0564	11
116.0495	337
171.041	10
174.0511	12
176.0307	11
177.0389	22
178.0474	910
204.0263	12
218.0834	128
220.0546	10
221.0529	257
240.0616	39
247.0665	136
260.0675	63
267.0727	414
273.0681	14
286.0716	10
287.0794	999
288.0869	209
304.1056	35
330.0846	239
507.1243	235
