Mass spectrum: Kresoxim-methyl; LC-ESI-QTOF; MS2; 40 V
Name: Kresoxim-methyl
Class: Fungicide
Formula: C18H19NO4
Exact mass: 313.1314
SMILES: CC1=CC=CC=C1OCC2=CC=CC=C2C(=NOC)C(=O)OC
InChI: InChI=1S/C18H19NO4/c1-13-8-4-7-11-16(13)23-12-14-9-5-6-10-15(14)17(19-22-3)18(20)21-2/h4-11H,12H2,1-3H3
Instrument: TripleTOF 6600 SCIEX
Instrument type: LC-ESI-QTOF
Ms type: MS2
Ion mode: POSITIVE
Collision energy: 40
Fragmentation mode: CID
Ionization: ESI
Column name: Zorbax Eclipse Plus C18 2.1 mm x 150 mm, 3.5 um, Agilent
Retention time: 13.809 min
Precursor m/z: 314.1387
Precursor type: [M+H]+
m/z	relative intensity
65.0373	13
77.0367	51
79.0524	17
89.0368	104
90.0457	17
91.0531	224
103.0521	13
105.0688	22
107.0477	27
115.0523	24
116.0487	482
117.0555	106
118.0636	92
119.047	24
121.0644	75
128.0467	12
128.0573	15
130.0635	97
131.0713	308
132.0428	66
132.0793	51
135.0421	61
140.0497	10
141.0694	12
146.0583	192
151.0525	29
152.06	96
153.0678	60
154.065	24
165.0683	176
166.0726	102
167.0823	188
168.0798	39
176.0615	51
177.0687	130
178.0763	425
179.0831	362
180.079	516
181.0637	42
181.0894	25
182.0721	13
182.0957	13
189.0686	17
190.0706	41
191.0713	10
191.0841	17
192.0784	58
193.088	274
194.0956	999
195.0798	115
195.1041	77
196.0731	18
203.0707	132
204.0778	334
205.0656	15
205.0849	30
206.0581	147
206.0956	80
207.0736	940
208.0859	429
209.0838	18
210.0721	15
210.0914	15
220.0761	70
221.0828	65
222.0907	913
223.0986	744
224.1061	56
225.0858	13
232.0768	17
234.088	17
235.0706	278
236.0747	39
236.1097	25
237.1165	24
238.0836	13
250.0869	20
254.1194	13
