Mass spectrum: Ofloxacin; LC-ESI-QTOF; MS2; 40 V
Name: Ofloxacin
Class: Antimicrobial; Pharmaceutical
Formula: C18H20FN3O4
Exact mass: 361.1438
SMILES: CC1COC2=C3N1C=C(C(=O)C3=CC(=C2N4CCN(CC4)C)F)C(=O)O
InChI: InChI=1S/C18H20FN3O4/c1-10-9-26-17-14-11(16(23)12(18(24)25)8-22(10)14)7-13(19)15(17)21-5-3-20(2)4-6-21/h7-8,10H,3-6,9H2,1-2H3,(H,24,25)
Instrument: TripleTOF 5600 SCIEX
Instrument type: LC-ESI-QTOF
Ms type: MS2
Ion mode: POSITIVE
Collision energy: 40
Fragmentation mode: CID
Ionization: ESI
Column name: Zorbax Eclipse Plus C18 2.1 mm x 150 mm, 3.5 um, Agilent
Retention time: 5.185 min
Precursor m/z: 362.1511
Precursor type: [M+H]+
m/z	relative intensity
58.0732	16
70.0707	20
72.0861	13
178.0296	13
179.0373	27
188.0498	10
192.0414	10
193.0421	22
194.0552	17
199.0536	24
202.0619	15
205.0419	63
205.0746	33
217.0426	10
218.0549	13
219.057	110
220.0695	19
221.0729	144
227.0707	12
233.0741	64
241.0965	35
243.0802	13
245.0732	20
247.0867	71
253.1205	34
254.0909	15
255.1012	17
261.1033	999
267.0835	14
268.072	19
268.1089	97
268.1473	21
270.1211	25
273.1042	30
275.12	13
281.0936	18
282.0881	10
296.1091	60
296.1364	76
298.154	15
301.0866	120
316.1155	106
316.1445	52
318.1626	290
324.1335	77
344.1402	617
362.1478	14
