Mass spectrum: Ethyl-2-cyano-3.3-diphenylacrylate; LC-ESI-QTOF; MS2; 90 V
Name: Ethyl-2-cyano-3.3-diphenylacrylate
Class: Industrial_process; Personal_care_product
Formula: C18H15NO2
Exact mass: 277.1103
SMILES: CCOC(=O)C(=C(C1=CC=CC=C1)C2=CC=CC=C2)C#N
InChI: InChI=1S/C18H15NO2/c1-2-21-18(20)16(13-19)17(14-9-5-3-6-10-14)15-11-7-4-8-12-15/h3-12H,2H2,1H3
Instrument: TripleTOF 5600 SCIEX
Instrument type: LC-ESI-QTOF
Ms type: MS2
Ion mode: POSITIVE
Collision energy: 90
Fragmentation mode: CID
Ionization: ESI
Column name: Zorbax Eclipse Plus C18 2.1 mm x 150 mm, 3.5 um, Agilent
Retention time: 13.596 min
Precursor m/z: 278.1176
Precursor type: [M+H]+
m/z	relative intensity
74.0246	33
75.0268	82
77.0437	623
99.0232	33
100.0277	22
101.0404	66
102.0496	60
104.0504	38
125.0396	104
126.0488	88
127.053	33
128.0568	27
129.0348	27
139.0566	44
149.0393	149
150.0461	844
151.0543	601
152.0631	259
153.0606	38
163.0564	55
164.0532	22
174.0481	160
175.0543	452
176.0613	999
177.0588	187
178.0804	38
200.0594	27
201.0566	391
202.0643	160
203.0768	60
