Mass spectrum: Solvent Yellow 124; LC-ESI-QTOF; MS2; 80 V
Name: Solvent Yellow 124
Formula: C22H31N3O2
Exact mass: 369.2416
SMILES: CCN(CCOC(C)OCC(C)C)C1=CC=C(C=C1)N=NC2=CC=CC=C2
InChI: InChI=1S/C22H31N3O2/c1-5-25(15-16-26-19(4)27-17-18(2)3)22-13-11-21(12-14-22)24-23-20-9-7-6-8-10-20/h6-14,18-19H,5,15-17H2,1-4H3
Instrument: TripleTOF X500R SCIEX
Instrument type: LC-ESI-QTOF
Ms type: MS2
Ion mode: POSITIVE
Collision energy: 80
Fragmentation mode: CID
Ionization: ESI
Column name: Zorbax Eclipse Plus C18 2.1 mm x 150 mm, 3.5 um, Agilent
Retention time: 18.347 min
Precursor m/z: 370.2489
Precursor type: [M+H]+
m/z	relative intensity
41.0393	18
45.0339	33
51.0228	153
57.07	18
77.0391	999
78.0348	24
79.0538	39
91.0554	36
92.05	60
93.056	15
95.0504	33
103.0546	18
104.0497	57
105.0535	144
106.0655	325
117.0572	69
118.0662	57
119.0606	135
120.082	42
130.0654	18
131.0629	36
132.0804	111
133.0864	39
134.0968	165
145.0769	42
146.0946	15
147.092	69
154.0801	18
181.0775	45
196.099	27
210.1033	108
