Mass spectrum: Methadone; LC-ESI-QTOF; MS2; 110 V
Name: Methadone
Class: Pharmaceutical
Formula: C21H27NO
Exact mass: 309.2093
SMILES: CCC(=O)C(CC(C)N(C)C)(C1=CC=CC=C1)C2=CC=CC=C2
InChI: InChI=1S/C21H27NO/c1-5-20(23)21(16-17(2)22(3)4,18-12-8-6-9-13-18)19-14-10-7-11-15-19/h6-15,17H,5,16H2,1-4H3
Instrument: TripleTOF 6600 SCIEX
Instrument type: LC-ESI-QTOF
Ms type: MS2
Ion mode: POSITIVE
Collision energy: 110
Fragmentation mode: CID
Ionization: ESI
Column name: Zorbax Eclipse Plus C18 2.1 mm x 150 mm, 3.5 um, Agilent
Retention time: 8.79 min
Precursor m/z: 310.2166
Precursor type: [M+H]+
m/z	relative intensity
37.0068	22
38.0151	14
39.0228	106
41.0383	23
42.0335	13
43.0175	12
49.0066	11
50.0149	133
51.0227	638
61.0066	13
62.0141	21
63.022	57
65.0382	288
72.0802	10
74.0144	25
75.0225	17
76.0296	14
77.0383	999
78.0462	27
79.0535	13
87.0222	10
89.0379	109
91.0537	345
102.0453	66
103.0532	22
105.0419	22
113.0376	15
115.0537	435
126.0454	53
127.0531	68
128.0615	149
139.0535	117
141.0685	11
150.0457	48
151.0539	104
152.0615	169
162.0452	13
163.054	175
164.0616	194
165.0694	434
174.0444	10
175.0541	18
176.0619	97
177.0672	23
178.0767	61
187.0547	27
188.0616	20
189.069	119
199.054	12
200.0613	173
201.0697	143
202.0774	304
213.0694	61
214.0765	10
215.0858	116
