Mass spectrum: 2,2`-Dihydroxy-4-methoxybenzophenone; LC-ESI-QTOF; MS2; 130 V
Name: 2,2`-Dihydroxy-4-methoxybenzophenone
Class: Personal_care_product
Formula: C14H12O4
Exact mass: 244.0736
SMILES: COc1ccc(c(O)c1)C(=O)c2ccccc2O
InChI: InChI=1S/C14H12O4/c1-18-9-6-7-11(13(16)8-9)14(17)10-4-2-3-5-12(10)15/h2-8,15-16H,1H3
Instrument: TripleTOF 5600 SCIEX
Instrument type: LC-ESI-QTOF
Ms type: MS2
Ion mode: POSITIVE
Collision energy: 130
Fragmentation mode: CID
Ionization: ESI
Column name: Zorbax Eclipse Plus C18 2.1 mm x 150 mm, 3.5 um, Agilent
Retention time: 11.753 min
Precursor m/z: 245.0808
Precursor type: [M+H]+
m/z	relative intensity
51.0289	999
53.0078	549
65.0412	499
74.0192	799
75.0254	349
77.0398	299
86.0156	249
