Mass spectrum: 4`-Aminoacetanilide; LC-ESI-QTOF; MS2; 80 V
Name: 4`-Aminoacetanilide
Formula: C8H10N2O
Exact mass: 150.0793
SMILES: CC(=O)NC1=CC=C(C=C1)N
InChI: InChI=1S/C8H10N2O/c1-6(11)10-8-4-2-7(9)3-5-8/h2-5H,9H2,1H3,(H,10,11)
Instrument: TripleTOF X500R SCIEX
Instrument type: LC-ESI-QTOF
Ms type: MS2
Ion mode: POSITIVE
Collision energy: 80
Fragmentation mode: CID
Ionization: ESI
Column name: Zorbax Eclipse Plus C18 2.1 mm x 150 mm, 3.5 um, Agilent
Retention time: 2.212 min
Precursor m/z: 151.0866
Precursor type: [M+H]+
m/z	relative intensity
37.0066	232
38.0152	243
39.0229	999
43.0183	487
53.038	104
54.0343	69
63.0224	69
65.0381	174
66.0451	58
80.0488	127
93.0551	46
