Mass spectrum: Meperidine; LC-ESI-QTOF; MS2; 80 V
Name: Meperidine
Class: Pharmaceutical
Formula: C15H21NO2
Exact mass: 247.1572
SMILES: CCOC(=O)C1(CCN(CC1)C)C2=CC=CC=C2
InChI: InChI=1S/C15H21NO2/c1-3-18-14(17)15(9-11-16(2)12-10-15)13-7-5-4-6-8-13/h4-8H,3,9-12H2,1-2H3
Instrument: TripleTOF 6600 SCIEX
Instrument type: LC-ESI-QTOF
Ms type: MS2
Ion mode: POSITIVE
Collision energy: 80
Fragmentation mode: CID
Ionization: ESI
Column name: Zorbax Eclipse Plus C18 2.1 mm x 150 mm, 3.5 um, Agilent
Retention time: 6.573 min
Precursor m/z: 248.1645
Precursor type: [M+H]+
m/z	relative intensity
39.0225	62
41.0382	28
42.0335	421
43.041	21
44.0493	342
50.014	14
51.0224	96
53.0383	29
55.0532	15
56.0497	9
57.0561	13
58.064	11
63.0224	28
65.038	313
67.0402	14
68.0488	13
70.0644	166
77.0379	838
78.0455	14
79.0538	45
80.0484	31
81.0564	22
82.0643	62
89.0376	78
91.0536	999
94.0632	22
96.0807	48
102.0457	61
103.0534	370
105.0442	15
105.0684	21
115.0535	724
116.0614	107
117.0684	20
127.0526	69
128.0611	243
129.0686	48
141.0686	9
143.0715	13
158.0949	10
167.0722	13
