Mass spectrum: 5-Aminofluorescein; LC-ESI-QTOF; MS2; 130 V
Name: 5-Aminofluorescein
Class: Pharmaceutical
Formula: C20H13NO5
Exact mass: 347.0794
SMILES: Nc1ccc2c(c1)C(=O)OC23c4ccc(O)cc4Oc5cc(O)ccc35
InChI: InChI=1S/C20H13NO5/c21-10-1-4-14-13(7-10)19(24)26-20(14)15-5-2-11(22)8-17(15)25-18-9-12(23)3-6-16(18)20/h1-9,22-23H,21H2
Instrument: TripleTOF 5600 SCIEX
Instrument type: LC-ESI-QTOF
Ms type: MS2
Ion mode: POSITIVE
Collision energy: 130
Fragmentation mode: CID
Ionization: ESI
Column name: Zorbax Eclipse Plus C18 2.1 mm x 150 mm, 3.5 um, Agilent
Retention time: 8.159 min
Precursor m/z: 348.0866
Precursor type: [M+H]+
m/z	relative intensity
65.0438	31
69.004	22
74.0185	40
75.0242	40
76.0332	22
77.0413	103
87.0235	22
89.0402	63
91.0573	31
98.0145	27
98.0233	18
99.0233	31
100.0317	22
102.0474	67
111.0223	18
113.039	45
115.0535	144
122.0158	36
125.0384	49
126.0449	94
127.0531	63
128.0615	40
137.038	27
138.046	31
139.0547	149
140.0487	22
149.0393	99
150.0446	411
150.0745	27
151.0534	280
152.0616	176
155.0459	18
161.0357	58
162.0456	113
163.0533	420
164.0607	94
165.0667	45
173.0382	40
174.0466	230
175.0528	185
176.0609	352
177.0566	31
185.0363	45
186.0456	103
187.0528	537
187.0845	18
187.1084	22
188.06	248
189.069	565
190.0651	90
198.0446	158
199.0527	275
200.0612	999
201.0533	54
201.0694	171
202.0751	122
202.1047	22
203.075	31
204.0777	22
211.0523	180
212.056	45
213.0684	103
214.0649	135
215.0724	40
216.0798	36
224.0561	22
225.0572	40
226.067	49
227.0738	58
229.0583	22
