Mass spectrum: 4,4`-Methylenebis(2-chloroaniline); LC-ESI-QTOF; MS2; 50 V
Name: 4,4`-Methylenebis(2-chloroaniline)
Formula: C13H12Cl2N2
Exact mass: 266.0378
SMILES: C1=CC(=C(C=C1CC2=CC(=C(C=C2)N)Cl)Cl)N
InChI: InChI=1S/C13H12Cl2N2/c14-10-6-8(1-3-12(10)16)5-9-2-4-13(17)11(15)7-9/h1-4,6-7H,5,16-17H2
Instrument: TripleTOF 6600 SCIEX
Instrument type: LC-ESI-QTOF
Ms type: MS2
Ion mode: POSITIVE
Collision energy: 50
Fragmentation mode: CID
Ionization: ESI
Column name: Zorbax Eclipse Plus C18 2.1 mm x 150 mm, 3.5 um, Agilent
Retention time: 11.747 min
Precursor m/z: 267.045
Precursor type: [M+H]+
m/z	relative intensity
77.0384	157
78.0337	14
104.0494	358
105.057	24
113.0153	18
115.0548	40
127.0199	15
127.0551	11
130.0645	11
140.026	727
141.0702	104
143.0731	23
150.0457	11
151.0534	259
152.0619	112
153.0578	53
154.0656	62
155.0659	19
164.0257	24
166.0657	20
167.0726	324
168.0799	336
169.0881	43
177.0571	49
178.0651	195
179.069	145
180.0807	344
181.0764	30
193.0764	54
194.0839	84
195.0917	999
196.0998	64
197.016	10
214.0421	76
216.0461	16
229.0523	22
231.0698	14
