Mass spectrum: 3,3`-Dimethoxybenzidine; LC-ESI-QTOF; MS2; 140 V
Name: 3,3`-Dimethoxybenzidine
Formula: C14H16N2O2
Exact mass: 244.1212
SMILES: COC1=C(C=CC(=C1)C2=CC(=C(C=C2)N)OC)N
InChI: InChI=1S/C14H16N2O2/c1-17-13-7-9(3-5-11(13)15)10-4-6-12(16)14(8-10)18-2/h3-8H,15-16H2,1-2H3
Instrument: TripleTOF 6600 SCIEX
Instrument type: LC-ESI-QTOF
Ms type: MS2
Ion mode: POSITIVE
Collision energy: 140
Fragmentation mode: CID
Ionization: ESI
Column name: Zorbax Eclipse Plus C18 2.1 mm x 150 mm, 3.5 um, Agilent
Retention time: 5.188 min
Precursor m/z: 245.1285
Precursor type: [M+H]+
m/z	relative intensity
37.0066	194
39.0233	389
50.0144	462
51.0226	877
52.0191	121
61.0076	268
62.0144	730
63.0223	999
64.022	170
65.0371	121
74.0143	974
75.0216	389
77.0385	389
78.0408	146
86.014	219
87.0216	268
88.0314	97
89.0385	511
98.0147	341
102.0457	97
113.0382	194
114.0385	170
115.0557	121
