Mass spectrum: 1,3-Bis(2-methylphenyl)urea; LC-ESI-QTOF; MS2; 20 V
Name: 1,3-Bis(2-methylphenyl)urea
Formula: C15H16N2O
Exact mass: 240.1263
SMILES: CC1=CC=CC=C1NC(=O)NC2=CC=CC=C2C
InChI: InChI=1S/C15H16N2O/c1-11-7-3-5-9-13(11)16-15(18)17-14-10-6-4-8-12(14)2/h3-10H,1-2H3,(H2,16,17,18)
Instrument: TripleTOF 6600 SCIEX
Instrument type: LC-ESI-QTOF
Ms type: MS2
Ion mode: POSITIVE
Collision energy: 20
Fragmentation mode: CID
Ionization: ESI
Column name: Zorbax Eclipse Plus C18 2.1 mm x 150 mm, 3.5 um, Agilent
Retention time: 11.062 min
Precursor m/z: 241.1336
Precursor type: [M+H]+
m/z	relative intensity
93.0565	20
108.0804	633
134.0587	14
241.1334	999
