Mass spectrum: Topramezone; LC-ESI-QTOF; MS2; 80 V
Name: Topramezone
Class: Herbicide
Formula: C16H17N3O5S
Exact mass: 363.0889
SMILES: CC1=C(C=CC(=C1C2=NOCC2)S(=O)(=O)C)C(=O)C3=CNN(C3=O)C
InChI: InChI=1S/C16H17N3O5S/c1-9-10(15(20)11-8-17-19(2)16(11)21)4-5-13(25(3,22)23)14(9)12-6-7-24-18-12/h4-5,8,17H,6-7H2,1-3H3
Instrument: TripleTOF 6600 SCIEX
Instrument type: LC-ESI-QTOF
Ms type: MS2
Ion mode: NEGATIVE
Collision energy: 80
Fragmentation mode: CID
Ionization: ESI
Column name: Zorbax Eclipse Plus C18 2.1 mm x 150 mm, 3.5 um, Agilent
Retention time: 6.915 min
Precursor m/z: 362.0816
Precursor type: [M-H]-
m/z	relative intensity
41.9976	207
63.9605	999
65.9977	235
78.9838	518
82.0143	405
97.039	395
101.0379	141
102.0338	56
113.0239	103
114.0339	292
115.0423	716
116.0503	160
129.0574	160
130.0661	235
131.0375	207
138.0336	37
139.0427	122
140.0527	94
141.0362	65
142.0298	65
155.0386	56
156.0434	47
158.0602	47
166.033	65
167.0379	56
168.0432	75
179.0227	37
180.0332	47
182.0253	37
192.0093	47
210.0571	47
