Mass spectrum: Basic yellow 28; LC-ESI-QTOF; MS2; 110 V
Name: Basic yellow 28
Class: Pigment
Formula: [C20H24N3O]+
Exact mass: 322.1914
SMILES: CC1(C2=CC=CC=C2[N+](=C1C=NN(C)C3=CC=C(C=C3)OC)C)C
InChI: InChI=1S/C20H24N3O/c1-20(2)17-8-6-7-9-18(17)22(3)19(20)14-21-23(4)15-10-12-16(24-5)13-11-15/h6-14H,1-5H3/q+1
Instrument: TripleTOF 6600 SCIEX
Instrument type: LC-ESI-QTOF
Ms type: MS2
Ion mode: POSITIVE
Collision energy: 110
Fragmentation mode: CID
Ionization: ESI
Column name: Zorbax Eclipse Plus C18 2.1 mm x 150 mm, 3.5 um, Agilent
Retention time: 9.082 min
Precursor m/z: 322.1914
Precursor type: [M]+
m/z	relative intensity
39.024	128
50.0159	171
51.0237	474
52.0309	57
62.0154	70
63.0236	513
64.0309	236
65.039	685
66.0467	705
67.0421	348
75.023	86
76.0305	54
77.0385	999
78.0346	71
78.0458	230
89.0373	141
90.0452	50
91.0531	289
92.0248	167
92.0488	192
93.0559	117
101.0378	132
102.0455	237
103.0531	249
115.0537	773
116.0496	65
116.0608	80
117.0572	161
127.0531	99
128.0495	438
129.0565	249
130.065	192
140.049	63
142.0647	218
143.0728	445
144.0807	876
155.0602	68
158.0966	63
169.0755	55
