Mass spectrum: Solway Green G; LC-ESI-QTOF; MS2; 30 V
Name: Solway Green G
Formula: C28H22N2O8S2
Exact mass: 578.0818
SMILES: CC1=CC(=C(C=C1)NC2=C3C(=C(C=C2)NC4=C(C=C(C=C4)C)S(=O)(=O)O)C(=O)C5=CC=CC=C5C3=O)S(=O)(=O)O
InChI: InChI=1S/C28H22N2O8S2/c1-15-7-9-19(23(13-15)39(33,34)35)29-21-11-12-22(30-20-10-8-16(2)14-24(20)40(36,37)38)26-25(21)27(31)17-5-3-4-6-18(17)28(26)32/h3-14,29-30H,1-2H3,(H,33,34,35)(H,36,37,38)
Instrument: TripleTOF 6600 SCIEX
Instrument type: LC-ESI-QTOF
Ms type: MS2
Ion mode: NEGATIVE
Collision energy: 30
Fragmentation mode: CID
Ionization: ESI
Column name: Zorbax Eclipse Plus C18 2.1 mm x 150 mm, 3.5 um, Agilent
Retention time: 10.62 min
Precursor m/z: 288.0336
Precursor type: [M-2H]2-
m/z	relative intensity
79.9568	999
80.9642	41
121.0504	7
132.0433	5
170.0035	36
184.0084	10
185.0136	74
186.0222	66
196.0048	5
288.0331	567
288.5348	15
299.0942	20
300.103	13
310.086	72
311.093	5
315.0919	5
324.0896	8
325.0974	6
326.0823	5
339.1183	5
379.0493	14
385.1302	9
387.1443	25
390.0366	9
397.1322	6
398.1426	5
399.1487	18
401.13	14
413.1323	7
414.1348	33
415.1423	152
416.1499	50
431.1432	10
432.1424	12
439.1112	8
467.1058	55
478.0922	6
479.1117	9
481.0875	7
483.0988	9
495.0997	94
496.106	37
511.0938	18
512.1033	6
