Mass spectrum: Candesartan; LC-ESI-QTOF; MS2; 30 V
Name: Candesartan
Class: Pharmaceutical
Formula: C24H20N6O3
Exact mass: 440.1597
SMILES: CCOc1nc2cccc(C(O)=O)c2n1Cc3ccc(cc3)c4ccccc4c5n[nH]nn5
InChI: InChI=1S/C24H20N6O3/c1-2-33-24-25-20-9-5-8-19(23(31)32)21(20)30(24)14-15-10-12-16(13-11-15)17-6-3-4-7-18(17)22-26-28-29-27-22/h3-13H,2,14H2,1H3,(H,31,32)(H,26,27,28,29)
Instrument: TripleTOF 5600 SCIEX
Instrument type: LC-ESI-QTOF
Ms type: MS2
Ion mode: POSITIVE
Collision energy: 30
Fragmentation mode: CID
Ionization: ESI
Column name: Zorbax Eclipse Plus C18 2.1 mm x 150 mm, 3.5 um, Agilent
Retention time: 10.001 min
Precursor m/z: 441.167
Precursor type: [M+H]+
m/z	relative intensity
153.0697	11
161.0339	18
165.0689	27
167.0843	23
178.0771	37
179.0838	18
180.0799	77
189.0649	56
190.0641	67
191.0439	22
191.0719	20
192.0804	494
193.0878	79
194.0958	189
205.0751	19
206.0842	58
206.1068	24
207.0909	530
208.1113	89
217.0884	10
218.0959	69
219.0919	18
220.0988	82
233.1067	26
234.1142	75
235.1191	691
262.1097	10
263.1287	999
308.119	10
309.1026	37
310.1106	17
337.098	60
338.1054	470
339.1133	10
349.1085	106
