Mass spectrum: Benzophenone-3; LC-ESI-QTOF; MS2; 10 V
Name: Benzophenone-3
Class: Personal_care_product; Industrial_process
Formula: C14H12O3
Exact mass: 228.0786
SMILES: COc1ccc(c(O)c1)C(=O)c2ccccc2
InChI: InChI=1S/C14H12O3/c1-17-11-7-8-12(13(15)9-11)14(16)10-5-3-2-4-6-10/h2-9,15H,1H3
Instrument: TripleTOF 5600 SCIEX
Instrument type: LC-ESI-QTOF
Ms type: MS2
Ion mode: POSITIVE
Collision energy: 10
Fragmentation mode: CID
Ionization: ESI
Column name: Zorbax Eclipse Plus C18 2.1 mm x 150 mm, 3.5 um, Agilent
Retention time: 13.504 min
Precursor m/z: 229.0859
Precursor type: [M+H]+
m/z	relative intensity
105.0333	13
151.0384	45
229.0854	999
