Mass spectrum: 3,5-Dichloroaniline; LC-ESI-QTOF; MS2; 60 V
Name: 3,5-Dichloroaniline
Formula: C6H5Cl2N
Exact mass: 160.9799
SMILES: C1=C(C=C(C=C1Cl)Cl)N
InChI: InChI=1S/C6H5Cl2N/c7-4-1-5(8)3-6(9)2-4/h1-3H,9H2
Instrument: TripleTOF X500R SCIEX
Instrument type: LC-ESI-QTOF
Ms type: MS2
Ion mode: POSITIVE
Collision energy: 60
Fragmentation mode: CID
Ionization: ESI
Column name: Zorbax Eclipse Plus C18 2.1 mm x 150 mm, 3.5 um, Agilent
Retention time: 11.205 min
Precursor m/z: 161.9872
Precursor type: [M+H]+
m/z	relative intensity
37.0071	15
38.0153	19
39.023	138
50.0151	17
52.0183	16
60.9844	10
63.0229	61
64.0309	29
65.0384	378
66.0332	14
72.9847	57
73.0071	19
74.015	999
75.0231	166
83.9765	33
84.9843	31
91.0427	39
92.0494	125
98.9995	59
100.0076	100
107.976	18
108.9841	326
109.9922	32
127.0186	136
