Mass spectrum: Propyzamid; LC-ESI-QTOF; MS2; 30 V
Name: Propyzamid
Class: Herbicide
Formula: C12H11Cl2NO
Exact mass: 255.0218
SMILES: CC(C)(C#C)NC(=O)c1cc(cc(c1)Cl)Cl
InChI: InChI=1S/C12H11Cl2NO/c1-4-12(2,3)15-11(16)8-5-9(13)7-10(14)6-8/h1,5-7H,2-3H3,(H,15,16)
Instrument: TripleTOF 6600 SCIEX
Instrument type: LC-ESI-QTOF
Ms type: MS2
Ion mode: POSITIVE
Collision energy: 30
Fragmentation mode: CID
Ionization: ESI
Column name: Zorbax Eclipse Plus C18 2.1 mm x 150 mm, 3.5 um, Agilent
Retention time: 12.435 min
Precursor m/z: 256.0291
Precursor type: [M+H]+
m/z	relative intensity
41.0386	18
44.0132	82
65.0382	31
67.0543	135
144.9606	80
146.9766	75
171.9722	11
172.9566	999
189.9826	708
256.0299	14
