Mass spectrum: 4-Amino-2,6-dimethoxypyrimidine; LC-ESI-QTOF; MS2; 50 V
Name: 4-Amino-2,6-dimethoxypyrimidine
Class: Pharmaceutical
Formula: C6H9N3O2
Exact mass: 155.0695
SMILES: COC1=NC(=NC(=C1)N)OC
InChI: InChI=1S/C6H9N3O2/c1-10-5-3-4(7)8-6(9-5)11-2/h3H,1-2H3,(H2,7,8,9)
Instrument: TripleTOF 5600 SCIEX
Instrument type: LC-ESI-QTOF
Ms type: MS2
Ion mode: POSITIVE
Collision energy: 50
Fragmentation mode: CID
Ionization: ESI
Column name: Zorbax Eclipse Plus C18 2.1 mm x 150 mm, 3.5 um, Agilent
Retention time: 4.656 min
Precursor m/z: 156.0768
Precursor type: [M+H]+
m/z	relative intensity
40.0332	72
41.0364	25
41.0432	12
43.0411	65
44.0206	19
44.0261	10
45.0556	16
54.0427	80
55.0313	108
56.0455	23
56.0575	33
57.0538	195
58.0372	137
65.0196	57
66.028	133
67.0108	10
67.0357	598
68.0196	538
68.043	12
69.0154	142
69.0492	16
69.9978	16
72.0503	76
81.0502	46
82.0333	999
83.0293	16
83.0509	40
84.036	36
84.0593	59
92.0265	69
95.0268	36
98.0375	118
99.0214	31
99.0575	27
101.0359	12
111.0201	190
111.0435	16
112.0532	33
113.0607	67
140.0492	12
