Mass spectrum: Loratadine; LC-ESI-QTOF; MS2; 130 V
Name: Loratadine
Class: Pharmaceutical
Formula: C22H23ClN2O2
Exact mass: 382.1448
SMILES: CCOC(=O)N1CCC(=C2C3=C(CCC4=C2N=CC=C4)C=C(C=C3)Cl)CC1
InChI: InChI=1S/C22H23ClN2O2/c1-2-27-22(26)25-12-9-15(10-13-25)20-19-8-7-18(23)14-17(19)6-5-16-4-3-11-24-21(16)20/h3-4,7-8,11,14H,2,5-6,9-10,12-13H2,1H3
Instrument: TripleTOF 6600 SCIEX
Instrument type: LC-ESI-QTOF
Ms type: MS2
Ion mode: POSITIVE
Collision energy: 130
Fragmentation mode: CID
Ionization: ESI
Column name: Zorbax Eclipse Plus C18 2.1 mm x 150 mm, 3.5 um, Agilent
Retention time: 9.41 min
Precursor m/z: 383.1521
Precursor type: [M+H]+
m/z	relative intensity
63.0224	14
77.0383	14
78.0337	10
89.0376	30
115.0537	40
126.0456	23
127.0535	12
128.0608	21
139.053	61
140.0484	21
149.0378	10
150.0454	74
151.0533	138
152.0609	104
153.0552	14
154.0634	19
162.0444	15
163.0531	209
164.0482	14
164.0606	67
165.069	129
166.0643	24
167.0717	21
174.0441	15
175.0527	58
176.0605	139
177.0565	60
178.0637	72
179.0721	56
187.0534	178
188.0606	161
189.0686	423
190.064	170
191.0715	141
192.08	42
199.0539	24
200.061	230
201.0673	260
202.0756	455
203.0715	134
204.0789	63
211.0538	10
212.0586	19
213.0685	184
214.0641	356
215.0718	322
216.0796	579
217.0874	92
218.0921	10
223.0309	12
225.0571	23
226.0642	72
227.0718	382
228.0801	981
229.0872	283
230.0943	138
238.0405	15
238.0631	46
239.0712	83
240.0796	703
241.0875	999
242.0949	294
243.102	72
244.1098	26
250.041	72
251.0478	35
252.0791	30
253.0875	17
254.0945	127
255.1034	14
256.1103	26
262.0396	24
264.0551	37
275.0484	15
