Mass spectrum: Codeinone; LC-ESI-QTOF; MS2; 60 V
Name: Codeinone
Class: Pharmaceutical
Formula: C18H19NO3
Exact mass: 297.1365
SMILES: CN1CCC23C4C1CC5=C2C(=C(C=C5)OC)OC3C(=O)C=C4
InChI: InChI=1S/C18H19NO3/c1-19-8-7-18-11-4-5-13(20)17(18)22-16-14(21-2)6-3-10(15(16)18)9-12(11)19/h3-6,11-12,17H,7-9H2,1-2H3
Instrument: TripleTOF 5600 SCIEX
Instrument type: LC-ESI-QTOF
Ms type: MS2
Ion mode: POSITIVE
Collision energy: 60
Fragmentation mode: CID
Ionization: ESI
Column name: Zorbax Eclipse Plus C18 2.1 mm x 150 mm, 3.5 um, Agilent
Retention time: 5.057 min
Precursor m/z: 298.1438
Precursor type: [M+H]+
m/z	relative intensity
44.0621	29
55.0272	19
58.0741	101
77.0437	21
91.0574	29
94.0693	19
102.0507	13
103.056	23
114.0498	21
115.0549	194
116.0633	34
126.047	11
127.0544	143
128.0631	272
129.0717	79
131.0492	34
137.0613	25
139.0548	384
140.063	472
141.0703	314
142.0784	66
143.0483	23
144.0575	62
145.0637	23
146.064	13
148.0745	11
150.0491	13
151.0535	145
152.0623	999
153.0702	861
154.0775	114
155.049	112
155.086	122
156.0582	56
157.0661	31
158.0757	17
159.0764	11
160.077	11
161.0574	13
163.0539	11
164.0628	68
165.0699	658
166.0789	46
167.0464	29
167.0836	64
168.0571	756
169.0649	227
170.0376	54
170.0727	97
171.0459	36
171.0807	101
172.0723	9
176.0625	34
177.0701	46
178.0767	186
179.0452	13
179.0868	79
180.0575	136
180.0871	15
181.064	406
182.0723	114
183.0449	345
183.0811	149
184.0512	44
184.0785	11
185.0599	104
185.0989	27
186.0673	11
189.0698	97
190.077	17
191.0821	15
192.0576	13
193.0649	46
194.0753	42
195.0388	21
195.0811	66
196.0526	241
197.0585	149
198.0666	167
199.0741	66
201.0746	17
205.0645	54
206.0633	13
206.0749	15
207.0367	17
207.0818	58
208.049	132
208.0912	13
209.06	116
210.0681	50
211.0394	11
211.0745	209
212.0845	17
213.0829	17
213.0954	11
217.0683	13
218.0743	13
220.1092	19
221.0612	31
223.0425	36
223.0749	62
224.0458	40
225.054	46
226.0619	27
226.082	15
234.0715	15
237.0528	56
238.0819	17
239.0709	69
241.0834	27
254.1094	11
266.0883	11
266.1205	11
