Mass spectrum: 2-Methyl-4`-(methylthio)-2-morpholinopropiophenone; LC-ESI-QTOF; MS2; 60 V
Name: 2-Methyl-4`-(methylthio)-2-morpholinopropiophenone
Class: Industrial_process
Formula: C15H21NO2S
Exact mass: 279.1293
SMILES: CC(C)(C(=O)C1=CC=C(C=C1)SC)N2CCOCC2
InChI: InChI=1S/C15H21NO2S/c1-15(2,16-8-10-18-11-9-16)14(17)12-4-6-13(19-3)7-5-12/h4-7H,8-11H2,1-3H3
Instrument: TripleTOF 6600 SCIEX
Instrument type: LC-ESI-QTOF
Ms type: MS2
Ion mode: POSITIVE
Collision energy: 60
Fragmentation mode: CID
Ionization: ESI
Column name: Zorbax Eclipse Plus C18 2.1 mm x 150 mm, 3.5 um, Agilent
Retention time: 7.548 min
Precursor m/z: 280.1366
Precursor type: [M+H]+
m/z	relative intensity
42.0341	29
44.0497	31
44.9794	10
45.0337	12
65.0381	11
70.065	97
77.0382	23
78.0461	32
84.0803	22
88.0752	86
91.054	262
103.0533	51
105.069	16
109.0099	59
110.0171	10
115.054	383
116.0611	31
117.0698	999
118.0773	127
121.0098	36
122.0181	172
124.0338	20
125.0408	16
128.1062	38
131.0484	138
134.0174	15
135.0256	209
137.0416	372
145.0635	45
146.0714	12
149.0409	29
150.0489	114
165.0723	35
