Mass spectrum: Omeprazole; LC-ESI-QTOF; MS2; 70 V
Name: Omeprazole
Class: Pharmaceutical
Formula: C17H19N3O3S
Exact mass: 345.1147
SMILES: COc1ccc2nc([nH]c2c1)[S](=O)Cc3ncc(C)c(OC)c3C
InChI: InChI=1S/C17H19N3O3S/c1-10-8-18-15(11(2)16(10)23-4)9-24(21)17-19-13-6-5-12(22-3)7-14(13)20-17/h5-8H,9H2,1-4H3,(H,19,20)
Instrument: TripleTOF 5600 SCIEX
Instrument type: LC-ESI-QTOF
Ms type: MS2
Ion mode: POSITIVE
Collision energy: 70
Fragmentation mode: CID
Ionization: ESI
Column name: Zorbax Eclipse Plus C18 2.1 mm x 150 mm, 3.5 um, Agilent
Retention time: 6.462 min
Precursor m/z: 346.122
Precursor type: [M+H]+
m/z	relative intensity
65.045	26
67.06	19
77.0436	81
79.0574	96
80.053	14
81.0728	14
91.0569	35
92.0519	54
93.0676	83
94.0669	23
104.0496	16
106.0654	204
107.0742	63
108.0817	501
108.9984	22
118.0651	11
120.0812	329
121.0894	406
122.0963	324
134.048	128
135.0675	19
136.021	40
136.076	999
136.9927	22
137.0292	46
138.0347	15
149.0703	87
150.0917	382
151.0993	113
152.0159	119
163.047	12
164.0148	47
165.0245	280
166.032	177
179.0268	32
180.0477	299
181.0558	74
