Mass spectrum: 4-amino-2-nitrophenol; LC-ESI-QTOF; MS2; 50 V
Name: 4-amino-2-nitrophenol
Class: Personal_care_product
Formula: C6H6N2O3
Exact mass: 154.0378
SMILES: Nc1ccc(O)c(c1)[N+]([O-])=O
InChI: InChI=1S/C6H6N2O3/c7-4-1-2-6(9)5(3-4)8(10)11/h1-3,9H,7H2
Instrument: TripleTOF 5600 SCIEX
Instrument type: LC-ESI-QTOF
Ms type: MS2
Ion mode: POSITIVE
Collision energy: 50
Fragmentation mode: CID
Ionization: ESI
Column name: Zorbax Eclipse Plus C18 2.1 mm x 150 mm, 3.5 um, Agilent
Retention time: 4.692 min
Precursor m/z: 155.0451
Precursor type: [M+H]+
m/z	relative intensity
53.008	486
64.0354	204
80.0515	999
81.0589	128
92.0289	409
108.0445	256
