Mass spectrum: Aclonifen; LC-ESI-QTOF; MS2; 100 V
Name: Aclonifen
Class: Herbicide
Formula: C12H9ClN2O3
Exact mass: 264.0302
SMILES: Nc1c(Cl)c(Oc2ccccc2)ccc1[N+]([O-])=O
InChI: InChI=1S/C12H9ClN2O3/c13-11-10(18-8-4-2-1-3-5-8)7-6-9(12(11)14)15(16)17/h1-7H,14H2
Instrument: TripleTOF 5600 SCIEX
Instrument type: LC-ESI-QTOF
Ms type: MS2
Ion mode: POSITIVE
Collision energy: 100
Fragmentation mode: CID
Ionization: ESI
Column name: Zorbax Eclipse Plus C18 2.1 mm x 150 mm, 3.5 um, Agilent
Retention time: 13.815 min
Precursor m/z: 265.0374
Precursor type: [M+H]+
m/z	relative intensity
52.0236	175
65.043	36
72.9885	65
74.0189	102
74.0309	29
75.0128	29
75.0254	226
76.0202	43
76.0327	43
76.0409	36
77.0414	999
78.0469	58
84.9867	51
85.009	36
85.9806	36
86.0161	116
87.0243	72
88.0182	29
88.0317	65
89.0394	65
98.0158	36
99.0218	36
101.0396	167
102.047	204
111.016	58
112.0188	36
112.9832	29
113.0383	80
115.0533	29
125.0368	29
126.0466	379
127.0533	459
128.0563	109
129.0423	36
137.0385	43
138.0335	87
152.05	29
153.0575	58
155.0472	36
