Mass spectrum: 2-Aminobenzimidazole; LC-ESI-QTOF; MS2; 130 V
Name: 2-Aminobenzimidazole
Class: Transformation_product; Fungicide; Transformation_product-Metabolite
Formula: C7H7N3
Exact mass: 133.064
SMILES: C1=CC=C2C(=C1)NC(=N2)N
InChI: InChI=1S/C7H7N3/c8-7-9-5-3-1-2-4-6(5)10-7/h1-4H,(H3,8,9,10)
Instrument: TripleTOF 6600 SCIEX
Instrument type: LC-ESI-QTOF
Ms type: MS2
Ion mode: POSITIVE
Collision energy: 130
Fragmentation mode: CID
Ionization: ESI
Column name: Zorbax Eclipse Plus C18 2.1 mm x 150 mm, 3.5 um, Agilent
Retention time: 4.787 min
Precursor m/z: 134.0713
Precursor type: [M+H]+
m/z	relative intensity
35.9991	383
37.0071	999
38.0031	151
38.0149	442
39.0226	167
42.021	86
43.0289	194
49.0071	205
50.0144	221
51.0098	81
51.0228	32
52.0173	97
59.9995	81
61.0064	345
62.0147	178
63.0224	32
73.0069	27
