Mass spectrum: Thieno[3,2-b]pyridin-7-ol; LC-ESI-QTOF; MS2; 40 V
Name: Thieno[3,2-b]pyridin-7-ol
Formula: C7H5NOS
Exact mass: 151.0092
SMILES: C1=CNC2=C(C1=O)SC=C2
InChI: InChI=1S/C7H5NOS/c9-6-1-3-8-5-2-4-10-7(5)6/h1-4H,(H,8,9)
Instrument: TripleTOF 6600 SCIEX
Instrument type: LC-ESI-QTOF
Ms type: MS2
Ion mode: POSITIVE
Collision energy: 40
Fragmentation mode: CID
Ionization: ESI
Column name: Zorbax Eclipse Plus C18 2.1 mm x 150 mm, 3.5 um, Agilent
Retention time: 4.72 min
Precursor m/z: 152.0165
Precursor type: [M+H]+
m/z	relative intensity
39.0233	106
44.9799	42
51.0225	13
53.0025	31
53.0389	81
55.0177	13
63.0228	36
67.0416	36
68.0126	24
68.9794	29
70.9947	17
76.0181	35
78.0341	11
80.0497	465
82.995	132
83.9904	15
84.0025	24
90.0333	38
91.041	15
94.0286	83
96.002	11
97.0107	501
98.0043	16
100.0207	35
106.9951	14
108.0445	60
110.006	341
111.0008	35
111.9834	23
120.0432	34
123.0136	29
124.0214	137
134.0048	133
152.0163	999
