Mass spectrum: Irbesartan; LC-ESI-QTOF; MS2; 110 V
Name: Irbesartan
Class: Pharmaceutical
Formula: C25H28N6O
Exact mass: 428.2325
SMILES: CCCCC1=NC2(CCCC2)C(=O)N1Cc3ccc(cc3)c4ccccc4c5n[nH]nn5
InChI: InChI=1S/C25H28N6O/c1-2-3-10-22-26-25(15-6-7-16-25)24(32)31(22)17-18-11-13-19(14-12-18)20-8-4-5-9-21(20)23-27-29-30-28-23/h4-5,8-9,11-14H,2-3,6-7,10,15-17H2,1H3,(H,27,28,29,30)
Instrument: TripleTOF 5600 SCIEX
Instrument type: LC-ESI-QTOF
Ms type: MS2
Ion mode: POSITIVE
Collision energy: 110
Fragmentation mode: CID
Ionization: ESI
Column name: Zorbax Eclipse Plus C18 2.1 mm x 150 mm, 3.5 um, Agilent
Retention time: 9.345 min
Precursor m/z: 429.2397
Precursor type: [M+H]+
m/z	relative intensity
67.0581	34
75.0256	24
77.0414	157
78.0355	17
80.0519	26
84.0828	59
87.025	12
89.0405	39
99.0232	14
101.0392	34
102.0346	28
102.0469	10
113.0391	62
114.0337	10
114.0457	20
115.0545	107
116.05	12
125.0397	32
126.0466	51
127.0548	155
128.0522	71
129.0441	12
137.0387	41
138.047	61
139.0548	141
140.0499	231
141.0581	18
149.0382	23
150.047	240
151.0551	854
152.0624	999
153.0622	145
154.0657	34
161.039	12
162.0468	58
163.055	392
164.0546	833
165.0697	576
166.0653	98
167.0732	30
176.0566	65
177.0582	311
178.066	575
179.0727	196
180.0812	86
188.0494	110
189.0577	91
190.0657	471
191.0622	103
192.069	95
203.0601	19
204.067	16
205.077	733
206.0834	13
