Mass spectrum: Syringic acid; LC-ESI-QTOF; MS2; 50 V
Name: Syringic acid
Class: Food_additive
Formula: C9H10O5
Exact mass: 198.0528
SMILES: COC1=CC(=CC(=C1O)OC)C(=O)O
InChI: InChI=1S/C9H10O5/c1-13-6-3-5(9(11)12)4-7(14-2)8(6)10/h3-4,10H,1-2H3,(H,11,12)
Instrument: TripleTOF 5600 SCIEX
Instrument type: LC-ESI-QTOF
Ms type: CID
Ion mode: POSITIVE
Collision energy: 50
Ionization: ESI
Column name: Zorbax Eclipse Plus C18 2.1 mm x 150 mm, 3.5 um, Agilent
Retention time: 5.696 min
Precursor m/z: 199.0601
Precursor type: [M+H]+
m/z	relative intensity
55.0267	139
65.0447	319
72.9916	119
77.0432	539
79.0219	99
95.0506	179
97.0312	999
107.0136	179
108.021	79
125.0234	739
140.046	79
