Mass spectrum: 3,4,5-Trimethoxybenzoic acid; LC-ESI-QTOF; MS2; 50 V
Name: 3,4,5-Trimethoxybenzoic acid
Class: Pharmaceutical; Industrial_process; Metabolite
Formula: C10H12O5
Exact mass: 212.0685
SMILES: COc1cc(cc(OC)c1OC)C(O)=O
InChI: InChI=1S/C10H12O5/c1-13-7-4-6(10(11)12)5-8(14-2)9(7)15-3/h4-5H,1-3H3,(H,11,12)
Instrument: TripleTOF 5600 SCIEX
Instrument type: LC-ESI-QTOF
Ms type: MS2
Ion mode: POSITIVE
Collision energy: 50
Fragmentation mode: CID
Ionization: ESI
Column name: Zorbax Eclipse Plus C18 2.1 mm x 150 mm, 3.5 um, Agilent
Retention time: 7.633 min
Precursor m/z: 213.0757
Precursor type: [M+H]+
m/z	relative intensity
51.0285	46
53.044	99
55.0227	61
55.0603	46
65.0429	999
66.05	53
67.0578	38
68.0299	276
69.0009	53
77.0413	376
78.0487	115
79.02	69
79.0554	38
80.0308	30
81.0349	238
82.0442	38
83.0515	115
92.0259	38
93.0344	461
94.0412	69
95.0137	92
95.0501	453
96.0215	499
96.0582	38
107.0128	184
108.02	38
108.0563	38
109.0289	161
109.0651	99
110.0374	92
111.0439	753
121.0291	122
122.0365	38
123.0447	391
124.0526	38
125.058	69
137.0224	99
138.0683	53
139.0388	453
151.0427	61
154.0605	84
