Mass spectrum: Pyroxsulam; LC-ESI-QTOF; MS2; 70 V
Name: Pyroxsulam
Class: Herbicide
Formula: C14H13F3N6O5S
Exact mass: 434.062
SMILES: COC1=CC(=NC2=NC(=NN12)NS(=O)(=O)C3=C(C=CN=C3OC)C(F)(F)F)OC
InChI: InChI=1S/C14H13F3N6O5S/c1-26-8-6-9(27-2)23-13(19-8)20-12(21-23)22-29(24,25)10-7(14(15,16)17)4-5-18-11(10)28-3/h4-6H,1-3H3,(H,21,22)
Instrument: TripleTOF 6600 SCIEX
Instrument type: LC-ESI-QTOF
Ms type: MS2
Ion mode: NEGATIVE
Collision energy: 70
Fragmentation mode: CID
Ionization: ESI
Column name: Zorbax Eclipse Plus C18 2.1 mm x 150 mm, 3.5 um, Agilent
Retention time: 9.651 min
Precursor m/z: 433.0547
Precursor type: [M-H]-
m/z	relative intensity
40.0052	29
41.0145	25
41.9974	14
64.006	22
65.0122	92
66.0082	737
68.9952	228
76.0183	14
79.0253	14
81.0201	22
88.0179	117
89.0021	62
90.0069	25
92.0113	25
93.0086	162
106.0077	36
106.03	29
107.011	51
108.0003	14
108.0258	246
109.02	40
111.0694	29
116.0126	331
117.0292	25
119.0097	33
122.013	18
123.0187	416
125.0311	18
126.0163	33
128.0307	763
129.0028	25
133.0147	36
134.0142	14
135.006	81
135.0286	22
135.0395	14
136.0188	328
146.0222	999
147.0202	272
148.0278	70
149.009	151
150.027	47
152.0055	25
156.026	622
157.0376	14
158.011	18
159.0116	25
159.0262	25
161.0206	18
162.0415	324
163.0192	33
164.034	95
165.03	62
171.0419	22
172.0229	103
173.0198	81
174.0284	33
179.0607	33
180.0538	44
184.0082	29
185.0171	88
186.0275	40
187.0138	47
187.0492	25
200.0375	29
201.0155	165
202.0238	14
208.9894	22
211.0222	243
216.0394	36
224.0065	14
224.0263	22
225.0242	276
227.0187	390
230.039	22
237.0268	22
238.0197	95
238.0337	29
239.0366	51
240.0253	25
240.0418	25
251.0182	221
251.9997	22
252.0309	92
253.0453	77
254.0479	33
254.0617	18
255.0448	22
264.0375	77
265.0273	22
266.0305	33
267.0235	73
270.0412	36
286.0654	18
290.026	33
291.0289	169
292.0275	29
301.9601	22
301.9935	25
317.0164	70
323.05	18
354.9697	40
