Mass spectrum: Bisphenol-A bis(diphenyl phosphate); LC-ESI-QTOF; MS2; 50 V
Name: Bisphenol-A bis(diphenyl phosphate)
Class: Industrial_process
Formula: C39H34O8P2
Exact mass: 692.1729
SMILES: CC(C)(C1=CC=C(C=C1)OP(=O)(OC2=CC=CC=C2)OC3=CC=CC=C3)C4=CC=C(C=C4)OP(=O)(OC5=CC=CC=C5)OC6=CC=CC=C6
InChI: InChI=1S/C39H34O8P2/c1-39(2,31-23-27-37(28-24-31)46-48(40,42-33-15-7-3-8-16-33)43-34-17-9-4-10-18-34)32-25-29-38(30-26-32)47-49(41,44-35-19-11-5-12-20-35)45-36-21-13-6-14-22-36/h3-30H,1-2H3
Instrument: TripleTOF 6600 SCIEX
Instrument type: LC-ESI-QTOF
Ms type: MS2
Ion mode: POSITIVE
Collision energy: 50
Fragmentation mode: CID
Ionization: ESI
Column name: Zorbax Eclipse Plus C18 2.1 mm x 150 mm, 3.5 um, Agilent
Retention time: 17.714 min
Precursor m/z: 693.1802
Precursor type: [M+H]+
m/z	relative intensity
327.0782	33
339.0761	11
367.1104	999
