Mass spectrum: Testosterone; LC-ESI-QTOF; MS2; 80 V
Name: Testosterone
Class: Pharmaceutical
Formula: C19H28O2
Exact mass: 288.2089
SMILES: C[C@]12CC[C@H]3[C@@H](CCC4=CC(=O)CC[C@]34C)[C@@H]1CC[C@@H]2O
InChI: InChI=1S/C19H28O2/c1-18-9-7-13(20)11-12(18)3-4-14-15-5-6-17(21)19(15,2)10-8-16(14)18/h11,14-17,21H,3-10H2,1-2H3/t14-,15-,16-,17-,18-,19-/m0/s1
Instrument: TripleTOF 5600 SCIEX
Instrument type: LC-ESI-QTOF
Ms type: MS2
Ion mode: POSITIVE
Collision energy: 80
Fragmentation mode: CID
Ionization: ESI
Column name: Zorbax Eclipse Plus C18 2.1 mm x 150 mm, 3.5 um, Agilent
Retention time: 10.968 min
Precursor m/z: 289.2162
Precursor type: [M+H]+
m/z	relative intensity
43.0276	108
43.0371	33
55.0239	67
55.0337	26
55.0608	93
57.0469	18
65.0436	208
66.054	26
67.0603	242
69.0376	22
69.0759	59
77.0431	999
77.0689	41
78.054	18
79.0587	928
81.0371	33
81.0518	14
81.0736	316
82.0469	37
83.0527	63
91.0577	577
93.0734	96
94.0445	44
95.0515	18
95.0883	52
97.0676	723
102.0487	14
103.0563	74
105.0722	242
107.0518	63
107.0858	18
108.058	18
109.0665	473
115.0569	149
116.0641	44
117.0725	59
119.0856	26
123.0828	70
127.0587	33
128.065	134
129.0717	55
131.0895	26
141.0707	85
142.0826	26
153.072	44
155.0896	29
