Mass spectrum: Tenamfetamine; LC-ESI-QTOF; MS2; 150 V
Name: Tenamfetamine
Class: Pharmaceutical
Formula: C10H13NO2
Exact mass: 179.0946
SMILES: CC(CC1=CC2=C(C=C1)OCO2)N
InChI: InChI=1S/C10H13NO2/c1-7(11)4-8-2-3-9-10(5-8)13-6-12-9/h2-3,5,7H,4,6,11H2,1H3
Instrument: TripleTOF 6600 SCIEX
Instrument type: LC-ESI-QTOF
Ms type: MS2
Ion mode: POSITIVE
Collision energy: 150
Fragmentation mode: CID
Ionization: ESI
Column name: Zorbax Eclipse Plus C18 2.1 mm x 150 mm, 3.5 um, Agilent
Retention time: 5.295 min
Precursor m/z: 180.1019
Precursor type: [M+H]+
m/z	relative intensity
35.999	170
37.0068	526
38.0032	54
38.0142	247
39.0227	131
49.0069	495
50.0142	999
51.021	185
59.9996	77
61.0062	294
62.0147	294
63.0207	77
73.0054	54
74.0144	85
