Mass spectrum: Coumaphos; LC-ESI-QTOF; MS2; 120 V
Name: Coumaphos
Class: Insecticide
Formula: C14H16ClO5PS
Exact mass: 362.0145
SMILES: CCOP(=S)(OCC)OC1=CC2=C(C=C1)C(=C(C(=O)O2)Cl)C
InChI: InChI=1S/C14H16ClO5PS/c1-4-17-21(22,18-5-2)20-10-6-7-11-9(3)13(15)14(16)19-12(11)8-10/h6-8H,4-5H2,1-3H3
Instrument: TripleTOF 6600 SCIEX
Instrument type: LC-ESI-QTOF
Ms type: MS2
Ion mode: POSITIVE
Collision energy: 120
Fragmentation mode: CID
Ionization: ESI
Column name: Zorbax Eclipse Plus C18 2.1 mm x 150 mm, 3.5 um, Agilent
Retention time: 14.049 min
Precursor m/z: 363.0218
Precursor type: [M+H]+
m/z	relative intensity
37.0067	35
38.0146	14
39.0224	107
41.0385	17
43.0168	35
44.9788	60
46.9673	264
49.0064	35
50.0146	199
51.0223	403
52.0296	32
53.0007	24
53.038	21
55.0169	32
61.0065	32
62.0141	67
62.9623	67
63.0222	249
64.0303	46
64.9779	328
65.0105	21
65.0377	585
68.9783	178
68.996	53
70.9937	32
72.983	46
74.0142	146
75.0218	313
76.03	189
77.0378	999
78.0452	57
78.939	274
79.0537	21
80.9726	53
81.9866	24
86.0146	17
87.022	35
88.0304	46
89.0376	399
90.0453	124
91.0535	934
92.9782	39
94.0404	17
94.994	28
96.9497	281
98.9987	28
101.0375	110
102.0455	620
103.0531	360
105.0329	35
105.0429	32
107.0027	14
108.0016	49
109.0109	24
110.9983	24
113.0371	74
114.046	60
115.0538	303
118.0406	53
119.0483	146
120.0565	17
121.0094	110
122.9989	14
125.0135	32
129.0329	21
129.0443	42
130.0396	60
131.0479	292
133.0099	28
134.0174	171
135.0255	67
136.0065	14
145.0103	67
147.0261	32
147.0428	278
149.0125	42
154.9706	14
163.0202	99
165.0101	92
181.0028	14
