Mass spectrum: Enrofloxacin; LC-ESI-QTOF; MS2; 60 V
Name: Enrofloxacin
Class: Pharmaceutical; Antimicrobial
Formula: C19H22FN3O3
Exact mass: 359.1645
SMILES: CCN1CCN(CC1)c2cc3N(C=C(C(O)=O)C(=O)c3cc2F)C4CC4
InChI: InChI=1S/C19H22FN3O3/c1-2-21-5-7-22(8-6-21)17-10-16-13(9-15(17)20)18(24)14(19(25)26)11-23(16)12-3-4-12/h9-12H,2-8H2,1H3,(H,25,26)
Instrument: TripleTOF 5600 SCIEX
Instrument type: LC-ESI-QTOF
Ms type: MS2
Ion mode: POSITIVE
Collision energy: 60
Fragmentation mode: CID
Ionization: ESI
Column name: Zorbax Eclipse Plus C18 2.1 mm x 150 mm, 3.5 um, Agilent
Retention time: 5.696 min
Precursor m/z: 360.1718
Precursor type: [M+H]+
m/z	relative intensity
44.0582	37
56.0536	53
57.063	53
70.0682	520
72.0838	74
72.0948	26
83.0732	26
84.0828	324
86.0989	37
89.0434	26
107.0297	26
109.0433	21
115.0526	26
116.0485	74
117.0554	21
127.054	37
128.0479	21
128.0593	37
130.0655	37
134.039	69
135.0462	138
136.0546	85
141.0586	31
142.0632	37
143.0609	42
144.0834	26
146.0389	31
147.0512	69
148.0552	154
149.0638	26
154.0639	106
155.0619	106
156.0658	53
156.0842	37
160.0487	47
161.027	42
161.0502	90
162.0341	79
162.0651	42
163.0415	37
167.0586	26
167.0751	26
168.0715	63
169.0745	47
171.0908	21
172.0546	100
173.0606	111
174.0342	122
174.0575	85
174.0729	85
175.0422	42
175.067	185
176.0474	47
176.0723	191
181.0821	31
182.083	58
183.0668	37
183.0904	26
184.0615	69
184.074	26
185.0649	63
186.0646	42
187.0355	42
187.067	143
188.0143	85
188.0453	116
188.0817	37
189.0445	456
189.0794	63
190.0553	100
191.0622	42
191.0987	26
195.0907	37
196.0703	21
197.0684	63
199.0733	42
200.0492	31
200.0781	37
201.0401	21
201.0577	63
201.0802	47
202.0293	212
202.0642	122
203.0376	74
203.0611	642
203.1012	31
204.0333	37
204.0695	180
205.0762	58
208.085	47
209.0748	26
209.108	21
210.0435	42
210.0996	26
214.0377	31
214.0654	26
215.0252	940
215.062	85
215.0947	42
216.0322	127
216.0688	79
216.1027	42
217.0409	775
217.0756	111
217.1097	26
218.0905	26
223.0494	42
224.0603	42
225.0728	74
225.1004	53
227.0935	31
229.04	90
229.0782	170
230.0518	37
230.0774	79
231.0553	122
231.0919	47
236.125	26
238.0978	26
238.1327	21
243.056	999
243.0874	58
245.0715	26
245.1065	329
245.1359	26
252.0741	31
252.1097	26
255.056	42
256.0507	53
257.1067	26
258.0677	377
258.0983	37
266.1273	42
270.0626	37
270.1126	26
271.074	680
285.0934	47
286.0981	924
286.1381	42
300.1147	191
342.1681	63
