Mass spectrum: Reserpine; LC-ESI-QTOF; MS2; 110 V
Name: Reserpine
Class: Natural_product; Pharmaceutical
Formula: C33H40N2O9
Exact mass: 608.2734
SMILES: COC1C(CC2CN3CCC4=C(C3CC2C1C(=O)OC)NC5=C4C=CC(=C5)OC)OC(=O)C6=CC(=C(C(=C6)OC)OC)OC
InChI: InChI=1S/C33H40N2O9/c1-38-19-7-8-20-21-9-10-35-16-18-13-27(44-32(36)17-11-25(39-2)30(41-4)26(12-17)40-3)31(42-5)28(33(37)43-6)22(18)15-24(35)29(21)34-23(20)14-19/h7-8,11-12,14,18,22,24,27-28,31,34H,9-10,13,15-16H2,1-6H3
Instrument: TripleTOF 5600 SCIEX
Instrument type: LC-ESI-QTOF
Ms type: MS2
Ion mode: POSITIVE
Collision energy: 110
Fragmentation mode: CID
Ionization: ESI
Column name: Zorbax Eclipse Plus C18 2.1 mm x 150 mm, 3.5 um, Agilent
Retention time: 8.6 min
Precursor m/z: 609.2807
Precursor type: [M+H]+
m/z	relative intensity
65.0461	23
66.0512	14
67.06	15
77.0444	152
78.052	29
79.0598	84
80.0564	12
81.0384	160
81.0752	19
89.043	21
90.0525	13
91.058	119
92.0295	25
93.0367	15
93.0619	23
94.0445	42
94.07	27
95.0533	34
96.0609	80
102.0501	11
103.0568	80
104.0521	29
104.0661	14
105.0364	33
105.0664	48
106.0448	26
106.0672	21
107.0153	51
107.0528	22
107.076	10
108.0601	53
109.031	81
109.0671	51
111.0463	12
113.0629	15
115.0566	221
116.0627	57
117.0617	196
118.0672	54
119.0513	12
120.0822	17
121.0305	113
121.0664	25
122.0386	102
123.0465	18
124.0535	101
127.0563	42
128.0611	64
129.0689	42
130.0672	734
131.0748	999
132.0492	64
132.0831	45
133.0548	23
134.0381	23
136.0778	12
137.0249	162
137.0636	10
139.0771	70
140.0524	14
141.0634	24
142.0669	106
143.0744	487
144.0579	28
144.0817	137
145.053	65
145.0894	33
146.0614	108
146.0996	12
147.0735	74
148.0781	23
151.0398	191
152.0484	268
153.0678	13
154.066	79
155.0734	54
156.0809	56
157.0888	31
158.0611	186
158.0937	11
159.0688	704
160.0759	103
161.083	27
162.0961	10
165.0697	20
166.0673	18
167.0731	116
168.0809	51
169.0537	21
169.0865	24
170.0609	105
171.0661	25
172.0763	80
173.0841	99
174.0913	355
178.069	23
180.0816	67
181.0881	59
182.0587	51
182.0955	12
183.0689	49
183.095	14
184.0742	93
184.1013	12
185.0829	25
186.0895	51
187.0988	17
189.0737	12
190.0759	14
191.0725	39
192.0805	62
193.0885	48
194.0953	51
195.067	105
195.1019	12
196.0756	52
197.0792	39
198.0896	46
199.0885	44
200.105	10
202.0812	10
203.0826	15
204.0794	88
205.0884	63
206.0933	61
207.0939	47
208.0757	64
208.0985	28
209.0805	33
210.093	58
211.1023	12
212.0982	15
213.1044	12
215.0766	12
216.08	25
217.0883	76
218.0959	78
219.0743	25
219.1008	45
220.0754	39
220.1045	30
221.0793	43
221.1044	32
222.0896	73
222.1132	19
223.0907	43
224.1054	51
225.1011	12
228.0813	12
229.0871	14
230.0949	58
231.1035	37
232.0782	48
232.112	28
233.0828	37
233.1076	29
234.0892	79
235.0878	43
236.0978	93
237.1009	23
238.1153	15
239.1166	20
241.0868	11
242.0963	18
243.1052	14
244.1108	21
245.0798	20
246.0898	99
247.0971	52
248.1023	43
249.1005	57
250.1065	38
251.1175	76
256.1124	12
257.089	10
258.0915	31
259.0994	12
260.106	61
261.1122	32
262.1186	40
263.1116	11
265.1349	15
272.1033	17
273.1137	12
274.0936	12
274.1206	18
275.1173	16
276.1016	10
276.1321	15
277.1326	12
289.1301	13
290.1387	13
