Mass spectrum: Caffeine; LC-ESI-QTOF; MS2; 60 V
Name: Caffeine
Class: Food_additive; Natural_product; Personal_care_product
Formula: C8H10N4O2
Exact mass: 194.0804
SMILES: Cn1cnc2N(C)C(=O)N(C)C(=O)c12
InChI: InChI=1S/C8H10N4O2/c1-10-4-9-6-5(10)7(13)12(3)8(14)11(6)2/h4H,1-3H3
Instrument: TripleTOF 5600 SCIEX
Instrument type: LC-ESI-QTOF
Ms type: MS2
Ion mode: POSITIVE
Collision energy: 60
Fragmentation mode: CID
Ionization: ESI
Column name: Zorbax Eclipse Plus C18 2.1 mm x 150 mm, 3.5 um, Agilent
Retention time: 5.509 min
Precursor m/z: 195.0877
Precursor type: [M+H]+
m/z	relative intensity
41.0362	42
42.0443	999
53.0212	256
54.0373	162
56.0548	128
67.0348	51
68.0423	350
69.0488	111
81.0471	76
82.0552	76
83.0629	136
94.0437	42
109.0392	51
110.0687	42
123.044	409
