Mass spectrum: Voriconazole-N-oxide; LC-ESI-QTOF; MS2; 130 V
Name: Voriconazole-N-oxide
Class: Metabolite; Pharmaceutical
Formula: C16H14F3N5O2
Exact mass: 365.11
SMILES: CC(C1=NC=[N+](C=C1F)[O-])C(CN2C=NC=N2)(C3=C(C=C(C=C3)F)F)O
InChI: InChI=1S/C16H14F3N5O2/c1-10(15-14(19)5-24(26)9-21-15)16(25,6-23-8-20-7-22-23)12-3-2-11(17)4-13(12)18/h2-5,7-10,25H,6H2,1H3
Instrument: TripleTOF 5600 SCIEX
Instrument type: LC-ESI-QTOF
Ms type: MS2
Ion mode: POSITIVE
Collision energy: 130
Fragmentation mode: CID
Ionization: ESI
Column name: Zorbax Eclipse Plus C18 2.1 mm x 150 mm, 3.5 um, Agilent
Retention time: 7.739 min
Precursor m/z: 366.1172
Precursor type: [M+H]+
m/z	relative intensity
51.0098	81
51.0278	73
52.023	57
52.0363	40
57.0194	229
70.0129	40
70.0242	40
70.0418	147
71.0205	114
71.031	40
75.007	286
77.0203	139
77.041	98
78.0362	106
81.0154	262
83.0321	65
96.0351	49
97.0202	57
97.0326	49
98.0406	188
99.0384	49
101.0199	999
105.0447	81
107.0289	483
113.0195	40
125.0223	40
125.0505	630
127.0349	360
