Mass spectrum: Sulfadimethoxine; LC-ESI-QTOF; MS2; 100 V
Name: Sulfadimethoxine
Class: Pharmaceutical
Formula: C12H14N4O4S
Exact mass: 310.0736
SMILES: COC1=NC(=NC(=C1)NS(=O)(=O)C2=CC=C(C=C2)N)OC
InChI: InChI=1S/C12H14N4O4S/c1-19-11-7-10(14-12(15-11)20-2)16-21(17,18)9-5-3-8(13)4-6-9/h3-7H,13H2,1-2H3,(H,14,15,16)
Instrument: TripleTOF 5600 SCIEX
Instrument type: LC-ESI-QTOF
Ms type: MS2
Ion mode: POSITIVE
Collision energy: 100
Fragmentation mode: CID
Ionization: ESI
Column name: Zorbax Eclipse Plus C18 2.1 mm x 150 mm, 3.5 um, Agilent
Retention time: 8.09 min
Precursor m/z: 311.0809
Precursor type: [M+H]+
m/z	relative intensity
35.9992	10
37.0069	29
38.0149	29
39.0233	211
40.0186	15
42.0345	21
43.0297	10
52.0177	15
53.039	128
54.0334	26
56.0495	12
57.0445	27
58.0289	24
63.0223	24
65.0142	10
65.0387	999
66.0218	15
66.0337	55
66.0457	13
67.0064	15
67.0293	197
68.0129	91
69.0084	44
69.044	13
72.0448	10
79.0287	10
80.0495	508
81.0445	34
82.0288	126
84.0322	10
90.034	23
91.0416	34
92.0495	188
93.0559	26
98.0328	10
108.0447	145
109.0414	12
110.0362	27
111.0188	23
117.0441	26
118.0505	15
144.0548	17
