Mass spectrum: Nilotinib; LC-ESI-QTOF; MS2; 100 V
Name: Nilotinib
Class: Pharmaceutical
Formula: C28H22F3N7O
Exact mass: 529.1838
SMILES: Cc1cn(cn1)c2cc(NC(=O)c3ccc(C)c(Nc4nccc(n4)c5cccnc5)c3)cc(c2)C(F)(F)F
InChI: InChI=1S/C28H22F3N7O/c1-17-5-6-19(10-25(17)37-27-33-9-7-24(36-27)20-4-3-8-32-14-20)26(39)35-22-11-21(28(29,30)31)12-23(13-22)38-15-18(2)34-16-38/h3-16H,1-2H3,(H,35,39)(H,33,36,37)
Instrument: TripleTOF 5600 SCIEX
Instrument type: LC-ESI-QTOF
Ms type: MS2
Ion mode: NEGATIVE
Collision energy: 100
Fragmentation mode: CID
Ionization: ESI
Column name: Zorbax Eclipse Plus C18 2.1 mm x 150 mm, 3.5 um, Agilent
Retention time: 8.404 min
Precursor m/z: 528.1765
Precursor type: [M-H]-
m/z	relative intensity
42.0019	222
42.0255	37
65.0156	111
67.0293	74
78.0356	148
79.0303	74
81.0464	628
92.0265	74
98.0014	74
103.03	185
105.0458	74
118.0085	111
129.0454	37
129.0627	37
130.0685	74
131.0663	148
136.0192	74
138.0135	74
141.0434	37
144.0524	111
151.0319	185
153.0454	222
155.0498	222
157.0803	111
158.0268	148
171.0359	333
171.069	999
172.0455	111
173.0514	259
176.0256	74
177.0322	111
178.0314	111
178.0421	259
179.0224	74
179.0474	148
180.055	148
183.0363	111
185.0299	111
185.0414	111
186.0192	74
187.049	148
193.0571	407
193.0745	74
196.0377	185
198.0385	444
199.034	222
211.0096	185
211.0509	222
213.0674	333
218.0562	148
219.036	111
223.0449	148
223.0583	37
224.0506	111
236.0469	37
239.0426	296
240.0752	518
266.0564	185
