Mass spectrum: Spirodiclofen-enol; LC-ESI-QTOF; MS2; 110 V
Name: Spirodiclofen-enol
Formula: C15H14Cl2O3
Exact mass: 312.032
SMILES: C1CCC2(CC1)C(=C(C(=O)O2)C3=C(C=C(C=C3)Cl)Cl)O
InChI: InChI=1S/C15H14Cl2O3/c16-9-4-5-10(11(17)8-9)12-13(18)15(20-14(12)19)6-2-1-3-7-15/h4-5,8,18H,1-3,6-7H2
Instrument: TripleTOF 6600 SCIEX
Instrument type: LC-ESI-QTOF
Ms type: MS2
Ion mode: POSITIVE
Collision energy: 110
Fragmentation mode: CID
Ionization: ESI
Column name: Zorbax Eclipse Plus C18 2.1 mm x 150 mm, 3.5 um, Agilent
Retention time: 12.261 min
Precursor m/z: 313.0393
Precursor type: [M+H]+
m/z	relative intensity
37.0073	39
38.0145	34
39.0232	121
41.0389	68
46.9679	37
50.0145	52
51.0227	100
59.9986	18
61.0062	118
62.0158	269
62.9623	31
63.0228	280
65.0386	44
67.053	13
70.9683	15
71.976	105
72.984	999
73.0069	47
74.0154	779
75.0228	549
76.0299	44
77.0385	359
78.0457	18
79.0538	18
82.9445	222
83.9993	10
84.9832	55
85.0064	66
86.0146	367
87.0225	935
88.0302	79
89.0389	602
95.976	76
96.9834	473
98.0153	150
98.9977	47
99.0226	68
100.0297	18
101.0375	63
102.0458	103
103.0536	15
106.9444	642
108.9825	100
110.9986	84
112.0044	15
113.0385	253
114.0452	71
115.0539	343
120.9825	42
121.9914	333
122.9975	116
124.0069	15
125.0384	29
126.0455	126
127.0537	108
128.0621	95
129.0437	21
130.9432	44
132.9596	18
136.0052	34
137.0377	26
138.046	21
139.0023	21
139.0535	195
148.008	15
149.0143	39
149.0378	26
150.0464	182
151.0538	327
152.0614	436
153.0688	21
155.0611	18
156.9605	383
158.976	29
162.0456	34
163.0537	187
164.0618	95
165.0688	161
173.0139	10
174.0491	15
175.0537	37
176.0607	309
177.0684	71
178.0771	206
