Mass spectrum: Clonazepam; LC-ESI-QTOF; MS2; 70 V
Name: Clonazepam
Class: Pharmaceutical
Formula: C15H10ClN3O3
Exact mass: 315.0411
SMILES: C1C(=O)NC2=C(C=C(C=C2)[N+](=O)[O-])C(=N1)C3=CC=CC=C3Cl
InChI: InChI=1S/C15H10ClN3O3/c16-12-4-2-1-3-10(12)15-11-7-9(19(21)22)5-6-13(11)18-14(20)8-17-15/h1-7H,8H2,(H,18,20)
Instrument: TripleTOF 6600 SCIEX
Instrument type: LC-ESI-QTOF
Ms type: MS2
Ion mode: POSITIVE
Collision energy: 70
Fragmentation mode: CID
Ionization: ESI
Column name: Zorbax Eclipse Plus C18 2.1 mm x 150 mm, 3.5 um, Agilent
Retention time: 9.867 min
Precursor m/z: 316.0484
Precursor type: [M+H]+
m/z	relative intensity
51.0221	13
75.0225	25
76.0303	25
77.038	104
78.0335	29
78.0456	25
89.0372	24
102.0334	76
103.0407	81
104.0491	174
105.0513	12
115.0522	28
116.0472	17
125.014	24
125.0377	18
126.0445	14
127.0527	52
128.0605	44
129.0442	152
130.0405	63
138.0101	25
138.0454	15
139.0522	92
140.0487	84
149.0142	12
149.0381	15
150.0446	127
151.0535	987
152.0615	726
153.0676	211
154.0643	50
155.0612	15
162.0198	15
162.0456	20
163.0542	186
164.0594	174
165.0687	200
166.0639	125
167.0727	178
168.0784	11
174.0111	22
176.05	70
177.0574	536
178.0644	813
179.0718	768
180.0799	246
186.0225	132
187.0291	40
188.0469	48
189.0554	81
190.065	589
191.0717	133
192.0726	123
193.0843	37
197.0123	17
198.0235	10
199.0305	82
201.0334	28
202.0322	20
203.0615	37
204.0689	132
205.075	999
206.0841	340
207.0905	31
212.0224	13
213.0339	77
214.0416	885
216.0682	11
224.0261	184
226.0317	16
227.0492	14
239.0375	120
240.0451	67
241.0532	240
