Mass spectrum: Parathion-methyl; LC-ESI-QTOF; MS2; 70 V
Name: Parathion-methyl
Class: Insecticide
Formula: C8H10NO5PS
Exact mass: 263.0017
SMILES: COP(=S)(OC)OC1=CC=C(C=C1)[N+](=O)[O-]
InChI: InChI=1S/C8H10NO5PS/c1-12-15(16,13-2)14-8-5-3-7(4-6-8)9(10)11/h3-6H,1-2H3
Instrument: TripleTOF 6600 SCIEX
Instrument type: LC-ESI-QTOF
Ms type: MS2
Ion mode: POSITIVE
Collision energy: 70
Fragmentation mode: CID
Ionization: ESI
Column name: Zorbax Eclipse Plus C18 2.1 mm x 150 mm, 3.5 um, Agilent
Retention time: 12.495 min
Precursor m/z: 264.009
Precursor type: [M+H]+
m/z	relative intensity
44.9782	384
46.9669	208
46.9938	450
50.0143	164
62.0163	120
62.9437	164
62.9977	87
63.022	406
64.0307	98
65.0357	54
68.979	230
69.9861	87
74.0138	307
75.0214	999
76.0294	109
77.0359	65
78.9919	406
81.9855	98
83.0032	65
93.0078	76
94.9936	109
108.001	296
109.0067	43
125.9681	65
152.9507	76
153.9644	98
154.9691	230
