Mass spectrum: Propamocarb; LC-ESI-QTOF; MS2; 60 V
Name: Propamocarb
Class: Fungicide
Formula: C9H20N2O2
Exact mass: 188.1525
SMILES: CCCOC(=O)NCCCN(C)C
InChI: InChI=1S/C9H20N2O2/c1-4-8-13-9(12)10-6-5-7-11(2)3/h4-8H2,1-3H3,(H,10,12)
Instrument: TripleTOF 6600 SCIEX
Instrument type: LC-ESI-QTOF
Ms type: MS2
Ion mode: POSITIVE
Collision energy: 60
Fragmentation mode: CID
Ionization: ESI
Column name: Zorbax Eclipse Plus C18 2.1 mm x 150 mm, 3.5 um, Agilent
Retention time: 4.882 min
Precursor m/z: 189.1598
Precursor type: [M+H]+
m/z	relative intensity
30.0344	662
37.0076	72
38.0024	46
38.0152	72
39.0234	569
41.0391	838
42.0342	465
43.0428	408
43.0543	93
44.049	25
44.9975	113
46.0658	103
56.0132	77
56.0491	56
58.0656	999
71.0725	20
74.0236	688
86.098	25
102.054	77
