Mass spectrum: Hydroxyatenolol; LC-ESI-QTOF; MS2; 60 V
Name: Hydroxyatenolol
Class: Pharmaceutical
Formula: C14H22N2O4
Exact mass: 282.158
SMILES: CC(C)NCC(COc1ccc(cc1)C(C(=O)N)O)O
InChI: InChI=1S/C14H22N2O4/c1-9(2)16-7-11(17)8-20-12-5-3-10(4-6-12)13(18)14(15)19/h3-6,9,11,13,16-18H,7-8H2,1-2H3,(H2,15,19)
Instrument: TripleTOF 5600 SCIEX
Instrument type: LC-ESI-QTOF
Ms type: MS2
Ion mode: POSITIVE
Collision energy: 60
Fragmentation mode: CID
Ionization: ESI
Column name: Zorbax Eclipse Plus C18 2.1 mm x 150 mm, 3.5 um, Agilent
Retention time: 3.214 min
Precursor m/z: 283.1652
Precursor type: [M+H]+
m/z	relative intensity
56.0553	825
74.0625	999
77.0425	347
77.0563	86
79.0567	195
95.0506	325
104.0498	108
105.0707	108
106.0633	108
116.1072	130
122.0593	390
132.0436	108
133.0534	108
