Mass spectrum: 2,6-Dichlorodiphenylamine; LC-ESI-QTOF; MS2; 110 V
Name: 2,6-Dichlorodiphenylamine
Class: Pharmaceutical
Formula: C12H9Cl2N
Exact mass: 237.0112
SMILES: C1=CC=C(C=C1)NC2=C(C=CC=C2Cl)Cl
InChI: InChI=1S/C12H9Cl2N/c13-10-7-4-8-11(14)12(10)15-9-5-2-1-3-6-9/h1-8,15H
Instrument: TripleTOF 5600 SCIEX
Instrument type: LC-ESI-QTOF
Ms type: MS2
Ion mode: POSITIVE
Collision energy: 110
Fragmentation mode: CID
Ionization: ESI
Column name: Zorbax Eclipse Plus C18 2.1 mm x 150 mm, 3.5 um, Agilent
Retention time: 14.125 min
Precursor m/z: 238.0185
Precursor type: [M+H]+
m/z	relative intensity
52.0292	227
65.0456	726
66.0521	544
72.9896	999
74.0201	227
77.0411	363
87.0263	363
88.0192	181
89.0399	317
90.0363	272
92.0511	363
93.0596	317
96.9881	227
99.0015	181
113.0405	544
115.0534	272
139.0566	681
140.0507	454
