Mass spectrum: Fenarimol; LC-ESI-QTOF; MS2; 40 V
Name: Fenarimol
Class: Fungicide
Formula: C17H12Cl2N2O
Exact mass: 330.0327
SMILES: C1=CC=C(C(=C1)C(C2=CC=C(C=C2)Cl)(C3=CN=CN=C3)O)Cl
InChI: InChI=1S/C17H12Cl2N2O/c18-14-7-5-12(6-8-14)17(22,13-9-20-11-21-10-13)15-3-1-2-4-16(15)19/h1-11,22H
Instrument: TripleTOF 6600 SCIEX
Instrument type: LC-ESI-QTOF
Ms type: MS2
Ion mode: POSITIVE
Collision energy: 40
Fragmentation mode: CID
Ionization: ESI
Column name: Zorbax Eclipse Plus C18 2.1 mm x 150 mm, 3.5 um, Agilent
Retention time: 11.9 min
Precursor m/z: 331.04
Precursor type: [M+H]+
m/z	relative intensity
54.0336	89
81.0446	684
110.999	62
138.9948	690
149.0147	12
156.0672	23
157.0757	16
164.0265	22
165.0704	17
178.077	22
184.0621	15
185.0691	12
189.0701	343
191.0342	15
192.0201	11
192.0435	12
199.03	13
200.0391	17
203.0719	12
204.0808	77
205.0644	33
205.0869	17
216.0814	22
217.0647	23
219.0312	26
223.0308	141
224.0375	29
225.0456	15
232.0759	33
232.9915	24
233.0828	89
235.0073	22
238.0423	89
240.0568	71
241.0434	45
241.0634	12
242.0823	13
243.092	17
250.042	53
251.0021	118
251.049	65
252.034	210
259.0083	412
266.0366	33
267.0431	19
267.0672	34
268.0535	999
276.034	27
277.0536	13
278.0616	59
286.0162	13
287.0002	11
295.0661	16
304.0285	47
313.0308	13
331.0401	225
