Mass spectrum: Flumequin; LC-ESI-QTOF; MS2; 130 V
Name: Flumequin
Class: Pharmaceutical; Antimicrobial
Formula: C14H12FNO3
Exact mass: 261.0801
SMILES: CC1CCc2cc(F)cc3C(=O)C(=CN1c23)C(O)=O
InChI: InChI=1S/C14H12FNO3/c1-7-2-3-8-4-9(15)5-10-12(8)16(7)6-11(13(10)17)14(18)19/h4-7H,2-3H2,1H3,(H,18,19)
Instrument: TripleTOF 5600 SCIEX
Instrument type: LC-ESI-QTOF
Ms type: MS2
Ion mode: POSITIVE
Collision energy: 130
Fragmentation mode: CID
Ionization: ESI
Column name: Zorbax Eclipse Plus C18 2.1 mm x 150 mm, 3.5 um, Agilent
Retention time: 9.545 min
Precursor m/z: 262.0874
Precursor type: [M+H]+
m/z	relative intensity
51.0283	27
53.0082	61
57.0182	18
68.0087	15
69.0179	18
70.0256	21
73.0106	113
74.018	442
74.0385	21
75.0121	36
75.0253	141
76.0197	24
77.0417	15
81.0164	33
85.0086	36
86.0182	30
87.024	18
92.0073	30
93.0136	73
94.0223	18
97.0075	107
98.016	999
98.0463	12
99.0137	516
99.0382	12
99.0558	15
100.0183	144
105.0138	27
106.0224	18
107.0305	18
120.0486	18
122.0157	12
123.01	21
131.034	12
