Mass spectrum: Benzothiazole-2-sulfonic acid; LC-ESI-QTOF; MS2; 110 V
Name: Benzothiazole-2-sulfonic acid
Class: Industrial_process; Transformation_product-Metabolite
Formula: C7H5NO3S2
Exact mass: 214.9711
SMILES: C1=CC=C2C(=C1)N=C(S2)S(=O)(=O)O
InChI: InChI=1S/C7H5NO3S2/c9-13(10,11)7-8-5-3-1-2-4-6(5)12-7/h1-4H,(H,9,10,11)
Instrument: TripleTOF 6600 SCIEX
Instrument type: LC-ESI-QTOF
Ms type: MS2
Ion mode: NEGATIVE
Collision energy: 110
Fragmentation mode: CID
Ionization: ESI
Column name: Zorbax Eclipse Plus C18 2.1 mm x 150 mm, 3.5 um, Agilent
Retention time: 6.5 min
Precursor m/z: 213.9638
Precursor type: [M-H]-
m/z	relative intensity
32.9802	37
50.0031	17
56.98	26
57.9749	999
