Mass spectrum: Diethylamino hydroxybenzoyl hexyl benzoate; LC-ESI-QTOF; MS2; 100 V
Name: Diethylamino hydroxybenzoyl hexyl benzoate
Formula: C24H31NO4
Exact mass: 397.2253
SMILES: CCCCCCOC(=O)C1=CC=CC=C1C(=O)C2=C(C=C(C=C2)N(CC)CC)O
InChI: InChI=1S/C24H31NO4/c1-4-7-8-11-16-29-24(28)20-13-10-9-12-19(20)23(27)21-15-14-18(17-22(21)26)25(5-2)6-3/h9-10,12-15,17,26H,4-8,11,16H2,1-3H3
Instrument: TripleTOF 6600 SCIEX
Instrument type: LC-ESI-QTOF
Ms type: MS2
Ion mode: POSITIVE
Collision energy: 100
Fragmentation mode: CID
Ionization: ESI
Column name: Zorbax Eclipse Plus C18 2.1 mm x 150 mm, 3.5 um, Agilent
Retention time: 17.769 min
Precursor m/z: 398.2326
Precursor type: [M+H]+
m/z	relative intensity
39.023	81
41.0386	42
43.0542	30
51.0227	11
53.0384	15
63.0228	10
65.0386	419
68.013	14
77.0384	146
78.0328	12
80.0492	163
89.0376	39
91.0534	26
92.0494	15
93.0331	103
94.0403	13
101.0374	12
102.045	20
105.033	59
108.0435	51
109.0514	13
113.0382	31
114.0453	21
115.054	257
119.0122	29
121.0301	105
122.0597	18
125.0378	13
126.0453	35
127.0536	156
128.0611	184
129.0692	20
138.0459	50
139.0542	999
140.0574	128
141.069	124
149.0229	41
150.0457	38
151.0537	185
152.0608	262
153.0662	75
154.0647	163
155.0514	46
156.0555	19
156.0802	24
164.0628	48
165.0686	84
166.0407	14
166.0642	78
167.0509	107
167.0697	98
168.0565	292
169.0633	28
176.0612	27
177.0573	39
178.0639	39
179.0632	14
180.0538	30
180.0787	22
181.0637	33
182.0591	67
183.0439	33
183.0663	21
184.0517	144
191.072	20
192.0787	11
194.0353	56
194.0585	47
195.0659	278
196.0525	192
197.0587	99
204.0784	16
206.0593	20
208.0737	12
210.0315	88
211.0605	32
212.0689	28
220.0736	31
222.0298	10
222.0542	27
223.0621	145
224.0704	56
238.0522	14
