Mass spectrum: Meptazinol; LC-ESI-QTOF; MS2; 50 V
Name: Meptazinol
Class: Pharmaceutical
Formula: C15H23NO
Exact mass: 233.178
SMILES: CCC1(CCCCN(C1)C)C2=CC(=CC=C2)O
InChI: InChI=1S/C15H23NO/c1-3-15(9-4-5-10-16(2)12-15)13-7-6-8-14(17)11-13/h6-8,11,17H,3-5,9-10,12H2,1-2H3
Instrument: TripleTOF 5600 SCIEX
Instrument type: LC-ESI-QTOF
Ms type: MS2
Ion mode: POSITIVE
Collision energy: 50
Fragmentation mode: CID
Ionization: ESI
Column name: Zorbax Eclipse Plus C18 2.1 mm x 150 mm, 3.5 um, Agilent
Retention time: 5.641 min
Precursor m/z: 234.1852
Precursor type: [M+H]+
m/z	relative intensity
41.0383	12
44.0493	58
51.0233	13
55.0542	36
67.054	35
70.0655	21
77.0388	417
79.0544	185
84.0805	12
91.0542	103
93.0697	18
103.0542	70
105.0703	169
107.0494	999
115.054	34
117.0698	19
119.086	16
121.0642	44
127.0547	15
128.0616	24
131.049	54
132.0563	50
133.0649	113
145.0651	34
146.0727	29
147.0804	25
161.0966	12
