Mass spectrum: Dimethenamid; LC-ESI-QTOF; MS2; 40 V
Name: Dimethenamid
Class: Herbicide
Formula: C12H18ClNO2S
Exact mass: 275.0747
SMILES: CC1=CSC(=C1N(C(C)COC)C(=O)CCl)C
InChI: InChI=1S/C12H18ClNO2S/c1-8-7-17-10(3)12(8)14(11(15)5-13)9(2)6-16-4/h7,9H,5-6H2,1-4H3
Instrument: TripleTOF 6600 SCIEX
Instrument type: LC-ESI-QTOF
Ms type: MS2
Ion mode: POSITIVE
Collision energy: 40
Fragmentation mode: CID
Ionization: ESI
Column name: Zorbax Eclipse Plus C18 2.1 mm x 150 mm, 3.5 um, Agilent
Retention time: 11.971 min
Precursor m/z: 276.082
Precursor type: [M+H]+
m/z	relative intensity
39.0238	12
41.0392	20
45.034	27
48.9843	42
58.9954	20
67.0543	26
73.0647	41
76.9787	47
77.0394	31
78.0471	10
79.0549	15
91.0542	12
93.0579	10
93.0695	27
94.0653	33
95.0733	55
97.0097	20
99.0261	27
101.042	12
105.057	19
107.0851	11
108.081	35
110.0188	10
111.0266	459
112.0341	41
113.0418	36
114.0375	10
117.0583	15
117.0701	16
118.0647	16
119.0723	14
120.0808	40
122.0965	16
123.0267	13
124.021	10
124.0345	28
125.0415	69
126.0375	297
127.0211	20
127.0453	31
127.0566	29
128.0534	86
129.0362	27
134.0963	39
135.0263	12
135.1043	86
136.023	28
137.0293	54
138.0372	149
139.0564	13
140.0528	24
149.0417	11
150.0371	74
151.0572	98
152.0173	72
152.0529	171
153.0243	97
153.0611	50
154.0317	25
154.0687	20
158.037	10
166.032	36
166.068	37
167.0766	81
168.0502	14
168.0845	999
174.0151	12
186.0139	69
202.0087	20
203.0164	43
204.024	20
244.0559	707
