Mass spectrum: Paroxetine; LC-ESI-QTOF; MS2; 50 V
Name: Paroxetine
Class: Pharmaceutical
Formula: C19H20FNO3
Exact mass: 329.1427
SMILES: C1CNCC(C1C2=CC=C(C=C2)F)COC3=CC4=C(C=C3)OCO4
InChI: InChI=1S/C19H20FNO3/c20-15-3-1-13(2-4-15)17-7-8-21-10-14(17)11-22-16-5-6-18-19(9-16)24-12-23-18/h1-6,9,14,17,21H,7-8,10-12H2
Instrument: TripleTOF 5600 SCIEX
Instrument type: LC-ESI-QTOF
Ms type: MS2
Ion mode: POSITIVE
Collision energy: 50
Fragmentation mode: CID
Ionization: ESI
Column name: Zorbax Eclipse Plus C18 2.1 mm x 150 mm, 3.5 um, Agilent
Retention time: 7.812 min
Precursor m/z: 330.15
Precursor type: [M+H]+
m/z	relative intensity
39.0227	34
41.0385	74
42.0339	32
43.0542	18
44.0492	209
56.0495	51
65.0378	15
67.0541	14
68.0498	60
70.0652	999
71.0728	11
77.0389	13
81.032	10
82.0652	71
83.0297	13
83.0718	12
84.0805	21
93.0335	62
96.0796	18
97.0888	15
103.0543	96
109.0447	416
115.054	75
121.0289	18
121.0452	25
123.0601	302
127.0536	17
128.0606	23
133.0445	73
134.0533	17
135.0607	540
136.0679	106
138.0728	12
139.04	10
143.0857	15
146.0521	49
147.0601	120
148.0677	112
149.075	41
150.07	47
151.0388	183
161.0763	148
162.0727	11
163.0917	171
164.0866	46
178.1011	75
192.1188	223
