Mass spectrum: Azacyclonol; LC-ESI-QTOF; MS2; 130 V
Name: Azacyclonol
Class: Pharmaceutical
Formula: C18H21NO
Exact mass: 267.1623
SMILES: OC(C1CCNCC1)(C2=CC=CC=C2)C3=CC=CC=C3
InChI: InChI=1S/C18H21NO/c20-18(15-7-3-1-4-8-15,16-9-5-2-6-10-16)17-11-13-19-14-12-17/h1-10,17,19-20H,11-14H2
Instrument: TripleTOF 5600 SCIEX
Instrument type: LC-ESI-QTOF
Ms type: MS2
Ion mode: POSITIVE
Collision energy: 130
Fragmentation mode: CID
Ionization: ESI
Column name: Zorbax Eclipse Plus C18 2.1 mm x 150 mm, 3.5 um, Agilent
Retention time: 6.644 min
Precursor m/z: 268.1696
Precursor type: [M+H]+
m/z	relative intensity
37.0072	117
38.015	68
39.0228	342
42.0347	78
44.0489	39
49.007	48
50.0152	313
51.0232	548
52.0306	39
56.0493	107
61.0078	107
62.0148	244
63.0229	460
65.0385	999
67.0414	58
68.0486	48
74.0148	244
75.0224	186
76.0308	195
77.0385	812
78.0457	205
84.0808	78
86.015	68
87.0223	88
89.0386	313
91.0539	479
98.0153	78
101.0382	48
102.0463	401
113.036	39
115.0531	489
126.0465	235
127.054	195
128.0625	215
139.0547	166
150.0466	195
151.0552	166
152.0625	39
162.048	58
163.0535	284
164.0621	88
165.0684	78
176.0549	39
176.0661	78
186.0453	48
187.0573	107
189.0682	78
200.0654	88
