Mass spectrum: Spinosad A; LC-ESI-QTOF; MS2; 50 V
Name: Spinosad A
Class: Insecticide
Formula: C41H65NO10
Exact mass: 731.4608
SMILES: CCC1CCCC(C(C(=O)C2=CC3C4CC(CC4C=CC3C2CC(=O)O1)OC5C(C(C(C(O5)C)OC)OC)OC)C)OC6CCC(C(O6)C)N(C)C
InChI: InChI=1S/C41H65NO10/c1-10-26-12-11-13-34(52-36-17-16-33(42(5)6)23(3)48-36)22(2)37(44)32-20-30-28(31(32)21-35(43)50-26)15-14-25-18-27(19-29(25)30)51-41-40(47-9)39(46-8)38(45-7)24(4)49-41/h14-15,20,22-31,33-34,36,38-41H,10-13,16-19,21H2,1-9H3
Instrument: TripleTOF 6600 SCIEX
Instrument type: LC-ESI-QTOF
Ms type: MS2
Ion mode: POSITIVE
Collision energy: 50
Fragmentation mode: CID
Ionization: ESI
Column name: Zorbax Eclipse Plus C18 2.1 mm x 150 mm, 3.5 um, Agilent
Retention time: 10.391 min
Precursor m/z: 732.4681
Precursor type: [M+H]+
m/z	relative intensity
75.0431	14
97.0638	37
98.0956	88
99.0434	22
99.0792	25
101.0587	15
125.0585	11
142.1224	999
145.0852	14
157.0848	23
160.1326	19
189.1117	42
732.4699	16
