Mass spectrum: Imidacloprid; LC-ESI-QTOF; MS2; 20 V
Name: Imidacloprid
Class: Insecticide
Formula: C9H10ClN5O2
Exact mass: 255.0523
SMILES: [O-][N+](=O)NC1=NCCN1Cc2ccc(Cl)nc2
InChI: InChI=1S/C9H10ClN5O2/c10-8-2-1-7(5-12-8)6-14-4-3-11-9(14)13-15(16)17/h1-2,5H,3-4,6H2,(H,11,13)
Instrument: TripleTOF 5600 SCIEX
Instrument type: LC-ESI-QTOF
Ms type: MS2
Ion mode: NEGATIVE
Collision energy: 20
Fragmentation mode: CID
Ionization: ESI
Column name: Zorbax Eclipse Plus C18 2.1 mm x 150 mm, 3.5 um, Agilent
Retention time: 7.098 min
Precursor m/z: 254.045
Precursor type: [M-H]-
m/z	relative intensity
45.9964	76
208.9704	288
253.9666	96
254.047	999
