Mass spectrum: Ethyl-N-(4-aminophenyl)carbamate; LC-ESI-QTOF; MS2; 80 V
Name: Ethyl-N-(4-aminophenyl)carbamate
Class: Industrial_process
Formula: C9H12N2O2
Exact mass: 180.0899
SMILES: CCOC(=O)Nc1ccc(cc1)N
InChI: InChI=1S/C9H12N2O2/c1-2-13-9(12)11-8-5-3-7(10)4-6-8/h3-6H,2,10H2,1H3,(H,11,12)
Instrument: TripleTOF 5600 SCIEX
Instrument type: LC-ESI-QTOF
Ms type: MS2
Ion mode: POSITIVE
Collision energy: 80
Fragmentation mode: CID
Ionization: ESI
Column name: Zorbax Eclipse Plus C18 2.1 mm x 150 mm, 3.5 um, Agilent
Retention time: 4.863 min
Precursor m/z: 181.0972
Precursor type: [M+H]+
m/z	relative intensity
51.029	134
52.0221	18
52.0366	37
53.0433	578
54.04	74
65.03	23
65.0422	786
66.0375	37
66.0491	277
67.0458	41
77.0402	27
78.0351	60
79.0431	50
80.0511	999
81.0598	55
90.0342	337
91.0429	32
92.0508	166
93.0574	430
105.0435	69
106.0518	32
107.0595	198
108.0683	55
