Mass spectrum: Brilliant Blue FCF; LC-ESI-QTOF; MS2; 140 V
Name: Brilliant Blue FCF
Class: Food_additive; Pigment
Formula: [C37H37N2O9S3]+
Exact mass: 749.1656
SMILES: CCN(CC1=CC(=CC=C1)S(=O)(=O)O)C2=CC=C(C=C2)C(=C3C=CC(=[N+](CC)CC4=CC(=CC=C4)S(=O)(=O)O)C=C3)C5=CC=CC=C5S(=O)(=O)O
InChI: InChI=1S/C37H36N2O9S3/c1-3-38(25-27-9-7-11-33(23-27)49(40,41)42)31-19-15-29(16-20-31)37(35-13-5-6-14-36(35)51(46,47)48)30-17-21-32(22-18-30)39(4-2)26-28-10-8-12-34(24-28)50(43,44)45/h5-24H,3-4,25-26H2,1-2H3,(H2-,40,41,42,43,44,45,46,47,48)/p+1
Instrument: TripleTOF 6600 SCIEX
Instrument type: LC-ESI-QTOF
Ms type: MS2
Ion mode: POSITIVE
Collision energy: 140
Fragmentation mode: CID
Ionization: ESI
Column name: Zorbax Eclipse Plus C18 2.1 mm x 150 mm, 3.5 um, Agilent
Retention time: 7.077 min
Precursor m/z: 749.1656
Precursor type: [M]+
m/z	relative intensity
151.052	217
152.0602	521
180.0548	390
239.0821	999
240.0941	477
241.1018	304
266.0989	217
267.1056	217
268.1122	999
