Mass spectrum: Fluxapyroxad; LC-ESI-QTOF; MS2; 140 V
Name: Fluxapyroxad
Class: Fungicide
Formula: C18H12F5N3O
Exact mass: 381.0901
SMILES: Cn1cc(c(n1)C(F)F)C(=O)Nc2ccccc2c3cc(c(c(c3)F)F)F
InChI: InChI=1S/C18H12F5N3O/c1-26-8-11(16(25-26)17(22)23)18(27)24-14-5-3-2-4-10(14)9-6-12(19)15(21)13(20)7-9/h2-8,17H,1H3,(H,24,27)
Instrument: TripleTOF 6600 SCIEX
Instrument type: LC-ESI-QTOF
Ms type: MS2
Ion mode: POSITIVE
Collision energy: 140
Fragmentation mode: CID
Ionization: ESI
Column name: Zorbax Eclipse Plus C18 2.1 mm x 150 mm, 3.5 um, Agilent
Retention time: 12.239 min
Precursor m/z: 382.0973
Precursor type: [M+H]+
m/z	relative intensity
42.0333	62
50.0142	52
51.0036	62
51.0222	52
57.0127	176
61.0063	62
62.0141	104
63.0221	104
74.0141	239
75.0032	145
75.0217	62
81.0122	145
85.0062	197
86.0143	197
87.0216	104
88.0114	72
92.0045	114
94.0222	41
98.0142	426
99.0029	93
99.0211	72
101.0182	62
105.0124	176
106.0194	62
109.0064	239
110.0137	395
111.022	260
112.0117	104
114.0317	41
116.004	145
117.0129	83
118.0206	62
119.9987	52
121.0067	93
122.0139	499
123.005	166
123.0209	72
125.0189	93
128.0032	62
129.0123	176
130.0205	52
131.0292	72
131.9985	62
133.0072	104
134.0139	478
135.0078	114
135.0216	374
136.0137	114
138.0286	93
140.0047	135
141.0124	208
143.0079	83
145.0064	62
146.014	738
147.0086	156
147.0205	280
148.0177	72
149.0189	135
151.0338	83
153.0126	62
154.0178	52
155.0283	312
156.0176	83
156.0356	83
157.0432	41
159.0066	83
160.0132	114
161.0195	52
162.027	83
165.012	114
166.0201	145
167.0094	41
167.0278	218
168.0355	208
169.0252	72
171.0102	333
172.0172	62
173.0184	124
174.027	83
175.0353	187
179.0282	135
180.0177	218
184.0105	135
185.0186	395
186.0269	999
187.0353	135
187.0513	72
188.0424	72
191.0089	62
191.0291	52
192.0333	83
193.0292	166
194.0202	41
197.0187	218
198.0245	114
199.0343	156
200.0287	52
203.0275	114
204.0179	582
205.0243	176
205.0414	62
206.036	280
207.054	52
210.0271	83
211.0215	93
216.0198	72
217.0268	218
218.0376	52
221.0188	83
222.0272	145
223.033	228
224.0308	124
231.0366	62
238.0401	52
240.0207	72
241.0264	135
242.027	62
