Mass spectrum: Torasemide; LC-ESI-QTOF; MS2; 100 V
Name: Torasemide
Class: Pharmaceutical
Formula: C16H20N4O3S
Exact mass: 348.1256
SMILES: CC(C)NC(=O)N[S](=O)(=O)c1cnccc1Nc2cccc(C)c2
InChI: InChI=1S/C16H20N4O3S/c1-11(2)18-16(21)20-24(22,23)15-10-17-8-7-14(15)19-13-6-4-5-12(3)9-13/h4-11H,1-3H3,(H,17,19)(H2,18,20,21)
Instrument: TripleTOF 5600 SCIEX
Instrument type: LC-ESI-QTOF
Ms type: MS2
Ion mode: POSITIVE
Collision energy: 100
Fragmentation mode: CID
Ionization: ESI
Column name: Zorbax Eclipse Plus C18 2.1 mm x 150 mm, 3.5 um, Agilent
Retention time: 7.633 min
Precursor m/z: 349.1329
Precursor type: [M+H]+
m/z	relative intensity
65.0426	17
67.0456	15
74.0177	11
75.0261	22
77.041	95
78.0357	13
79.0434	16
81.0465	21
87.0243	12
88.0322	79
89.0397	171
90.0478	101
91.0553	14
98.0062	10
101.0389	60
102.0472	29
103.0538	25
104.0505	10
113.0385	149
114.0463	504
115.0474	175
116.0489	36
117.0573	254
118.052	17
126.0451	24
127.0542	234
128.056	475
129.065	44
130.0643	18
137.0159	11
139.0408	32
140.0497	927
141.0571	370
142.0524	121
152.0498	17
153.0564	48
154.0647	238
155.0596	101
156.0699	36
166.0522	72
167.0601	222
168.0681	999
169.0751	34
175.031	15
179.0601	52
180.0676	71
181.0759	873
182.0834	154
183.0913	172
201.0472	13
