Mass spectrum: Carbendazim; LC-ESI-QTOF; MS2; 60 V
Name: Carbendazim
Class: Fungicide; Metabolite; Pharmaceutical
Formula: C9H9N3O2
Exact mass: 191.0695
SMILES: COC(=O)Nc1[nH]c2ccccc2n1
InChI: InChI=1S/C9H9N3O2/c1-14-9(13)12-8-10-6-4-2-3-5-7(6)11-8/h2-5H,1H3,(H2,10,11,12,13)
Instrument: TripleTOF 5600 SCIEX
Instrument type: LC-ESI-QTOF
Ms type: MS2
Ion mode: POSITIVE
Collision energy: 60
Fragmentation mode: CID
Ionization: ESI
Column name: Zorbax Eclipse Plus C18 2.1 mm x 150 mm, 3.5 um, Agilent
Retention time: 5.075 min
Precursor m/z: 192.0768
Precursor type: [M+H]+
m/z	relative intensity
51.0288	37
63.0461	18
65.0437	749
77.0302	10
78.0362	200
79.0432	59
80.0528	33
80.0679	12
90.0354	592
90.0688	18
91.0445	37
92.051	224
104.0357	12
105.0454	999
106.03	16
106.0531	70
117.0457	111
117.0656	10
118.0537	26
131.0471	12
132.0557	357
133.0623	43
159.0436	18
160.0489	148
