Mass spectrum: Oxibendazole; LC-ESI-QTOF; MS2; 90 V
Name: Oxibendazole
Class: Pharmaceutical
Formula: C12H15N3O3
Exact mass: 249.1113
SMILES: CCCOC1=CC2=C(C=C1)N=C(N2)NC(=O)OC
InChI: InChI=1S/C12H15N3O3/c1-3-6-18-8-4-5-9-10(7-8)14-11(13-9)15-12(16)17-2/h4-5,7H,3,6H2,1-2H3,(H2,13,14,15,16)
Instrument: TripleTOF 5600 SCIEX
Instrument type: LC-ESI-QTOF
Ms type: MS2
Ion mode: POSITIVE
Collision energy: 90
Fragmentation mode: CID
Ionization: ESI
Column name: Zorbax Eclipse Plus C18 2.1 mm x 150 mm, 3.5 um, Agilent
Retention time: 6.663 min
Precursor m/z: 250.1186
Precursor type: [M+H]+
m/z	relative intensity
38.0151	34
39.023	136
43.0284	85
50.0152	145
51.0232	469
52.0181	179
52.0304	204
53.0023	42
53.0386	640
54.0335	42
62.0147	42
63.0229	85
64.0178	102
65.014	76
65.0262	247
66.0209	76
66.0337	700
67.0305	51
67.0411	170
68.0129	247
69.0088	136
70.0298	42
75.0105	76
76.0183	674
77.0264	93
78.034	563
79.0176	76
79.0419	307
80.013	111
80.0491	230
81.0336	999
92.0372	674
93.009	247
93.0441	358
94.0305	51
94.0523	42
96.0436	85
103.029	350
104.0392	51
105.046	170
106.0294	486
107.0365	51
108.0455	128
119.0483	93
120.0566	145
121.0394	700
122.0236	42
130.0402	179
131.0243	42
131.0495	59
133.0426	34
134.0475	128
147.0417	68
148.0492	111
