Mass spectrum: Valsartan; LC-ESI-QTOF; MS2; 70 V
Name: Valsartan
Class: Pharmaceutical
Formula: C24H29N5O3
Exact mass: 435.227
SMILES: CCCCC(=O)N(Cc1ccc(cc1)c2ccccc2c3n[nH]nn3)[C@@H](C(C)C)C(O)=O
InChI: InChI=1S/C24H29N5O3/c1-4-5-10-21(30)29(22(16(2)3)24(31)32)15-17-11-13-18(14-12-17)19-8-6-7-9-20(19)23-25-27-28-26-23/h6-9,11-14,16,22H,4-5,10,15H2,1-3H3,(H,31,32)(H,25,26,27,28)/t22-/m0/s1
Instrument: TripleTOF 5600 SCIEX
Instrument type: LC-ESI-QTOF
Ms type: MS2
Ion mode: POSITIVE
Collision energy: 70
Fragmentation mode: CID
Ionization: ESI
Column name: Zorbax Eclipse Plus C18 2.1 mm x 150 mm, 3.5 um, Agilent
Retention time: 11.443 min
Precursor m/z: 436.2343
Precursor type: [M+H]+
m/z	relative intensity
57.0748	11
77.0409	63
80.0509	16
115.0536	31
127.0546	30
128.0606	16
129.0446	14
129.0702	10
139.0539	19
140.05	100
141.0697	10
151.0546	133
152.0621	473
153.0703	549
154.067	22
163.0543	169
164.061	66
165.0693	262
166.0663	78
167.0725	81
168.0683	27
176.061	28
177.0624	83
178.0763	686
179.0732	288
180.0811	999
181.0693	52
189.0571	37
190.0653	935
191.0724	182
192.0685	516
193.088	76
194.0953	26
195.0791	14
205.0763	708
206.0836	559
207.0914	297
208.0749	78
209.1049	13
