Mass spectrum: 2,4,6-Triiodoaniline; LC-ESI-QTOF; MS2; 60 V
Name: 2,4,6-Triiodoaniline
Class: Pharmaceutical; Transformation_product
Formula: C6H4I3N
Exact mass: 470.7478
SMILES: Nc1c(I)cc(I)cc1I
InChI: InChI=1S/C6H4I3N/c7-3-1-4(8)6(10)5(9)2-3/h1-2H,10H2
Instrument: TripleTOF 5600 SCIEX
Instrument type: LC-ESI-QTOF
Ms type: MS2
Ion mode: POSITIVE
Collision energy: 60
Fragmentation mode: CID
Ionization: ESI
Column name: Zorbax Eclipse Plus C18 2.1 mm x 150 mm, 3.5 um, Agilent
Retention time: 16.077 min
Precursor m/z: 471.7551
Precursor type: [M+H]+
m/z	relative intensity
64.034	22
89.0285	12
90.0356	290
91.043	404
188.9167	20
190.9349	44
200.9188	14
215.9296	72
216.9386	159
217.9461	999
343.8411	103
344.8505	607
