Mass spectrum: Amantadine; LC-ESI-QTOF; MS2; 90 V
Name: Amantadine
Class: Pharmaceutical
Formula: C10H17N
Exact mass: 151.1361
SMILES: C1C2CC3CC1CC(C2)(C3)N
InChI: InChI=1S/C10H17N/c11-10-4-7-1-8(5-10)3-9(2-7)6-10/h7-9H,1-6,11H2
Instrument: TripleTOF 5600 SCIEX
Instrument type: LC-ESI-QTOF
Ms type: MS2
Ion mode: POSITIVE
Collision energy: 90
Fragmentation mode: CID
Ionization: ESI
Column name: Zorbax Eclipse Plus C18 2.1 mm x 150 mm, 3.5 um, Agilent
Retention time: 5.148 min
Precursor m/z: 152.1434
Precursor type: [M+H]+
m/z	relative intensity
37.007	79
38.0148	66
39.0229	279
41.0388	106
49.0068	66
50.0153	466
51.0233	839
53.0387	53
63.024	53
65.0384	293
74.015	53
77.0385	999
78.0484	79
79.0542	93
91.0542	173
