Mass spectrum: Zoxamide; LC-ESI-QTOF; MS2; 80 V
Name: Zoxamide
Class: Fungicide
Formula: C14H16Cl3NO2
Exact mass: 335.0247
SMILES: CCC(C)(C(=O)CCl)NC(=O)C1=CC(=C(C(=C1)Cl)C)Cl
InChI: InChI=1S/C14H16Cl3NO2/c1-4-14(3,12(19)7-15)18-13(20)9-5-10(16)8(2)11(17)6-9/h5-6H,4,7H2,1-3H3,(H,18,20)
Instrument: TripleTOF 6600 SCIEX
Instrument type: LC-ESI-QTOF
Ms type: MS2
Ion mode: POSITIVE
Collision energy: 80
Fragmentation mode: CID
Ionization: ESI
Column name: Zorbax Eclipse Plus C18 2.1 mm x 150 mm, 3.5 um, Agilent
Retention time: 14.13 min
Precursor m/z: 336.032
Precursor type: [M+H]+
m/z	relative intensity
44.0129	22
48.984	25
62.015	36
63.0227	84
72.9834	270
82.9448	19
87.0216	16
88.0304	64
89.0384	892
96.9835	104
98.9991	275
122.9992	999
124.0071	320
132.9593	211
158.9755	506
186.9736	19
