Mass spectrum: Indigo; LC-ESI-QTOF; MS2; 50 V
Name: Indigo
Formula: C16H10N2O2
Exact mass: 262.0742
SMILES: C1=CC=C2C(=C1)C(=C(N2)C3=NC4=CC=CC=C4C3=O)O
InChI: InChI=1S/C16H10N2O2/c19-15-9-5-1-3-7-11(9)17-13(15)14-16(20)10-6-2-4-8-12(10)18-14/h1-8,17,19H
Instrument: TripleTOF X500R SCIEX
Instrument type: LC-ESI-QTOF
Ms type: MS2
Ion mode: POSITIVE
Collision energy: 50
Fragmentation mode: CID
Ionization: ESI
Column name: Zorbax Eclipse Plus C18 2.1 mm x 150 mm, 3.5 um, Agilent
Retention time: 11.892 min
Precursor m/z: 263.0815
Precursor type: [M+H]+
m/z	relative intensity
51.0225	86
77.0389	475
89.0399	129
90.046	27
102.0347	70
103.0409	81
104.0257	64
104.0496	226
105.0341	135
116.0493	81
117.0572	70
120.0445	21
129.0443	27
130.0316	54
131.0356	27
132.0448	594
140.0522	32
151.0545	75
152.0618	221
153.0683	64
157.0407	37
158.0483	113
163.0543	91
164.0639	70
165.0707	167
178.0666	97
179.0732	496
180.0818	410
181.0626	54
189.0628	32
190.0661	610
191.0725	70
192.0696	59
205.076	799
206.0595	43
206.0846	999
207.0918	64
208.0766	140
215.0629	64
216.0686	129
217.0777	156
218.0619	32
218.0837	226
219.0928	199
233.072	124
234.0795	491
235.0861	205
262.075	280
263.0835	140
