Mass spectrum: Ethyl-2-cyano-3.3-diphenylacrylate; LC-ESI-QTOF; MS2; 150 V
Name: Ethyl-2-cyano-3.3-diphenylacrylate
Class: Industrial_process; Personal_care_product
Formula: C18H15NO2
Exact mass: 277.1103
SMILES: CCOC(=O)C(=C(C1=CC=CC=C1)C2=CC=CC=C2)C#N
InChI: InChI=1S/C18H15NO2/c1-2-21-18(20)16(13-19)17(14-9-5-3-6-10-14)15-11-7-4-8-12-15/h3-12H,2H2,1H3
Instrument: TripleTOF 5600 SCIEX
Instrument type: LC-ESI-QTOF
Ms type: MS2
Ion mode: POSITIVE
Collision energy: 150
Fragmentation mode: CID
Ionization: ESI
Column name: Zorbax Eclipse Plus C18 2.1 mm x 150 mm, 3.5 um, Agilent
Retention time: 13.596 min
Precursor m/z: 278.1176
Precursor type: [M+H]+
m/z	relative intensity
73.0113	131
74.0194	999
75.028	302
76.0346	144
77.0441	210
85.013	105
86.0188	157
87.0253	144
89.0406	65
97.0114	92
98.017	762
99.0128	92
99.0259	197
100.0313	65
102.0463	78
109.0087	105
110.0165	236
111.0267	118
122.016	328
123.0216	65
124.0335	52
126.0502	52
134.0138	144
149.0372	131
150.0454	328
174.0462	157
