Mass spectrum: Bixafen; LC-ESI-QTOF; MS2; 90 V
Name: Bixafen
Class: Fungicide
Formula: C18H12Cl2F3N3O
Exact mass: 413.031
SMILES: CN1C=C(C(=N1)C(F)F)C(=O)NC2=C(C=C(C=C2)F)C3=CC(=C(C=C3)Cl)Cl
InChI: InChI=1S/C18H12Cl2F3N3O/c1-26-8-12(16(25-26)17(22)23)18(27)24-15-5-3-10(21)7-11(15)9-2-4-13(19)14(20)6-9/h2-8,17H,1H3,(H,24,27)
Instrument: TripleTOF 6600 SCIEX
Instrument type: LC-ESI-QTOF
Ms type: MS2
Ion mode: POSITIVE
Collision energy: 90
Fragmentation mode: CID
Ionization: ESI
Column name: Zorbax Eclipse Plus C18 2.1 mm x 150 mm, 3.5 um, Agilent
Retention time: 13.359 min
Precursor m/z: 414.0382
Precursor type: [M+H]+
m/z	relative intensity
42.0341	50
43.0287	12
57.0129	12
68.012	9
82.0288	14
84.0233	11
98.0175	12
99.022	23
109.0393	55
111.0332	11
122.0138	20
123.0217	39
124.017	12
139.0293	23
143.0262	14
147.0203	22
148.0199	17
149.0405	118
150.0397	11
158.0364	14
159.0354	37
167.0284	112
168.0356	278
169.0437	629
170.0384	30
173.0413	12
174.0328	80
175.044	30
176.0487	60
177.0505	11
177.998	12
179.0267	26
180.0346	20
181.0441	61
182.0411	39
184.0055	34
187.0468	26
188.0472	42
192.036	23
193.0306	116
194.0396	420
195.0457	312
196.0553	393
197.0501	45
199.0515	28
200.0515	50
201.0557	45
201.9977	69
202.0602	17
203.0054	36
204.0119	701
205.0422	121
206.0439	199
207.0471	189
208.0533	196
208.9998	18
209.0564	25
211.0152	36
212.047	45
213.0445	33
213.0597	17
214.055	41
215.0037	36
215.0594	37
216.0111	17
217.0225	18
218.05	30
219.051	94
220.0546	173
221.0165	11
221.0603	184
222.0113	17
222.0454	94
222.0696	34
225.0465	18
226.0608	39
227.0657	45
228.0064	22
228.0668	33
229.008	999
229.0644	17
230.0173	88
231.0239	317
232.0546	404
233.0534	327
234.0602	164
235.018	15
235.0641	30
237.0294	12
240.0474	11
241.0184	153
241.0639	14
242.0163	175
243.0211	23
244.0449	39
245.0601	99
246.069	290
247.0666	170
248.0229	20
248.0734	28
249.024	23
249.9704	9
250.0267	12
254.0167	25
255.0201	55
256.0295	71
256.0606	11
257.0238	12
257.0677	11
258.0539	17
259.0529	41
260.0618	55
261.0664	34
262.0308	17
262.0497	23
263.0376	9
263.9776	15
264.9903	12
265.9948	49
266.0123	23
267.0078	12
267.0251	37
268.0273	99
269.027	34
270.0339	33
272.0661	14
274.0729	64
274.9799	18
275.0601	26
275.0831	15
275.9754	12
279.0171	15
280.0293	55
281.0274	56
282.0465	33
291.0078	11
293.0311	14
295.0317	49
301.9917	47
302.0754	22
302.9972	17
303.0811	12
308.0281	18
310.0491	26
317.0087	22
330.0026	14
