Mass spectrum: Ethyl-N-(3-amino-2-methylphenyl)carbamate; LC-ESI-QTOF; MS2; 40 V
Name: Ethyl-N-(3-amino-2-methylphenyl)carbamate
Class: Industrial_process
Formula: C10H14N2O2
Exact mass: 194.1055
SMILES: CCOC(=O)NC1=CC=CC(=C1C)N
InChI: InChI=1S/C10H14N2O2/c1-3-14-10(13)12-9-6-4-5-8(11)7(9)2/h4-6H,3,11H2,1-2H3,(H,12,13)
Instrument: TripleTOF 5600 SCIEX
Instrument type: LC-ESI-QTOF
Ms type: MS2
Ion mode: POSITIVE
Collision energy: 40
Fragmentation mode: CID
Ionization: ESI
Column name: Zorbax Eclipse Plus C18 2.1 mm x 150 mm, 3.5 um, Agilent
Retention time: 5.082 min
Precursor m/z: 195.1128
Precursor type: [M+H]+
m/z	relative intensity
77.0439	313
78.0386	46
79.0595	515
80.054	24
81.0607	21
94.0691	67
104.0515	74
105.0529	22
106.0669	999
107.0533	13
107.0738	76
108.07	274
109.056	15
119.075	11
121.0776	184
122.0837	24
123.0925	80
132.0458	25
134.0486	297
149.0717	187
