Mass spectrum: Oxytetracycline; LC-ESI-QTOF; MS2; 130 V
Name: Oxytetracycline
Class: Pharmaceutical
Formula: C22H24N2O9
Exact mass: 460.1482
SMILES: CC1(C2C(C3C(C(=O)C(=C(C3(C(=O)C2=C(C4=C1C=CC=C4O)O)O)O)C(=O)N)N(C)C)O)O
InChI: InChI=1S/C22H24N2O9/c1-21(32)7-5-4-6-8(25)9(7)15(26)10-12(21)17(28)13-14(24(2)3)16(27)11(20(23)31)19(30)22(13,33)18(10)29/h4-6,12-14,17,25-26,28,30,32-33H,1-3H3,(H2,23,31)
Instrument: TripleTOF 5600 SCIEX
Instrument type: LC-ESI-QTOF
Ms type: MS2
Ion mode: NEGATIVE
Collision energy: 130
Fragmentation mode: CID
Ionization: ESI
Column name: Zorbax Eclipse Plus C18 2.1 mm x 150 mm, 3.5 um, Agilent
Retention time: 5.586 min
Precursor m/z: 459.1409
Precursor type: [M-H]-
m/z	relative intensity
41.0072	384
41.016	76
41.0292	153
42.0009	230
42.0142	153
51.0247	230
55.0253	76
65.0035	230
65.0383	76
65.9988	230
66.0077	153
66.0139	76
67.0177	76
68.9944	76
69.0013	153
79.0179	153
84.0065	307
89.0394	230
91.0166	384
92.0263	999
92.0432	76
93.036	461
95.0137	230
96.0056	76
97.0351	153
108.0206	230
117.0326	537
123.0068	76
130.0437	307
134.0233	384
135.0448	230
139.0138	153
141.0432	76
143.0531	845
144.0555	153
145.0242	76
145.0326	384
151.0595	76
153.0335	76
158.0341	230
158.0479	76
161.0234	307
167.0493	230
169.0648	76
171.0433	614
171.0637	76
172.0534	384
173.0218	153
173.0629	384
173.072	76
174.0405	76
180.0588	153
181.0642	76
182.0331	76
183.0362	153
187.0389	307
195.0509	230
196.0591	76
208.0574	76
209.056	230
224.0506	307
226.0331	153
