Mass spectrum: Metachrome Yellow free acid; LC-ESI-QTOF; MS2; 40 V
Name: Metachrome Yellow free acid
Formula: C13H9N3O5
Exact mass: 287.0542
SMILES: C1=CC(=CC(=C1)[N+](=O)[O-])N=NC2=CC(=C(C=C2)O)C(=O)O
InChI: InChI=1S/C13H9N3O5/c17-12-5-4-9(7-11(12)13(18)19)15-14-8-2-1-3-10(6-8)16(20)21/h1-7,17H,(H,18,19)
Instrument: TripleTOF 6600 SCIEX
Instrument type: LC-ESI-QTOF
Ms type: MS2
Ion mode: POSITIVE
Collision energy: 40
Fragmentation mode: CID
Ionization: ESI
Column name: Zorbax Eclipse Plus C18 2.1 mm x 150 mm, 3.5 um, Agilent
Retention time: 11.919 min
Precursor m/z: 288.0615
Precursor type: [M+H]+
m/z	relative intensity
63.022	80
64.03	158
75.0218	162
76.029	24
77.0376	9
80.0128	10
91.0165	108
92.0244	379
106.0266	14
114.0469	22
117.0535	12
119.0118	193
120.0308	24
122.0221	159
128.0503	10
128.06	12
134.0203	81
139.0536	124
140.0511	140
141.0574	54
142.0502	57
143.0614	10
147.0171	35
150.0287	232
154.0486	12
155.0568	51
166.0541	11
167.0586	151
168.0669	394
169.0506	15
170.0453	28
171.0549	10
179.059	17
182.0426	10
183.0518	10
184.0599	14
186.0517	13
195.0551	164
196.062	287
211.0499	10
214.0584	25
222.0397	14
223.0491	70
224.0571	74
242.0561	649
253.0472	11
270.0505	999
