Mass spectrum: Prednisone; LC-ESI-QTOF; MS2; 90 V
Name: Prednisone
Class: Pharmaceutical
Formula: C21H26O5
Exact mass: 358.178
SMILES: C[C@]12CC(=O)[C@H]3[C@@H](CCC4=CC(=O)C=C[C@]34C)[C@@H]1CC[C@]2(O)C(=O)CO
InChI: InChI=1S/C21H26O5/c1-19-7-5-13(23)9-12(19)3-4-14-15-6-8-21(26,17(25)11-22)20(15,2)10-16(24)18(14)19/h5,7,9,14-15,18,22,26H,3-4,6,8,10-11H2,1-2H3/t14-,15-,18+,19-,20-,21-/m0/s1
Instrument: TripleTOF 5600 SCIEX
Instrument type: LC-ESI-QTOF
Ms type: MS2
Ion mode: POSITIVE
Collision energy: 90
Fragmentation mode: CID
Ionization: ESI
Column name: Zorbax Eclipse Plus C18 2.1 mm x 150 mm, 3.5 um, Agilent
Retention time: 8.469 min
Precursor m/z: 359.1853
Precursor type: [M+H]+
m/z	relative intensity
43.0248	79
51.0287	31
53.0439	19
55.0243	27
55.0595	43
65.0423	195
67.0573	115
69.0366	19
77.0412	696
78.0477	51
79.0564	258
81.0726	51
89.0384	31
91.0549	999
93.0711	99
94.0414	15
95.0493	51
95.0862	63
102.0462	35
103.0539	155
103.0696	19
104.0612	63
105.035	19
105.0688	159
107.0479	119
107.085	35
115.0534	951
116.061	163
117.0685	167
119.047	19
119.0838	127
121.0637	163
126.0451	27
127.0529	342
128.0611	744
128.0894	15
129.0688	314
130.0767	35
131.0478	366
131.0837	27
132.0562	226
133.0645	15
139.0537	95
140.0615	51
141.069	378
142.0749	35
143.0846	31
144.0574	187
145.063	238
146.0707	51
147.0791	127
150.0461	19
151.0538	119
152.0607	505
153.0686	270
153.0924	23
154.0782	43
155.0516	39
155.0856	43
157.063	171
158.0712	123
159.078	27
163.0539	39
164.0621	59
165.0687	772
166.0769	107
167.0846	107
168.056	75
169.0643	135
170.0725	31
171.0786	151
176.062	111
177.0695	131
178.0761	712
179.0846	306
180.0936	19
181.0631	401
182.0707	87
183.081	51
187.0461	19
189.0691	497
190.0766	167
191.0844	199
192.0927	51
193.0991	47
194.0713	183
195.0799	131
196.088	19
197.097	19
200.0615	19
201.07	59
202.0762	374
203.0842	195
204.0913	43
205.0649	175
205.0974	39
206.0705	67
207.0791	218
208.0864	51
209.0939	27
213.0718	27
214.0745	27
215.0841	286
216.0924	35
217.098	35
218.0723	127
219.0818	75
220.0868	43
221.0966	67
223.1054	19
226.0783	63
227.0851	43
228.0906	71
229.0994	47
230.1081	15
231.0785	151
232.0828	35
233.0916	47
234.1001	23
239.0827	39
241.0995	19
244.0887	39
245.0943	47
