Mass spectrum: Noramidopyrine; LC-ESI-QTOF; MS2; 100 V
Name: Noramidopyrine
Class: Pharmaceutical; Transformation_product-Metabolite
Formula: C12H15N3O
Exact mass: 217.1215
SMILES: CC1=C(C(=O)N(N1C)C2=CC=CC=C2)NC
InChI: InChI=1S/C12H15N3O/c1-9-11(13-2)12(16)15(14(9)3)10-7-5-4-6-8-10/h4-8,13H,1-3H3
Instrument: TripleTOF 6600 SCIEX
Instrument type: LC-ESI-QTOF
Ms type: MS2
Ion mode: POSITIVE
Collision energy: 100
Fragmentation mode: CID
Ionization: ESI
Column name: Zorbax Eclipse Plus C18 2.1 mm x 150 mm, 3.5 um, Agilent
Retention time: 4.819 min
Precursor m/z: 218.1288
Precursor type: [M+H]+
m/z	relative intensity
37.007	33
38.0149	26
39.0229	98
40.0184	36
41.026	218
41.0379	15
42.0338	286
43.0412	18
44.0494	23
49.0071	44
50.0153	195
51.0229	338
52.0182	18
53.0133	15
54.0339	39
56.0497	999
63.0225	23
65.0382	26
74.0145	13
77.0384	80
83.0601	52
89.0385	23
