Mass spectrum: 6`-Hydroxymethyl Simvastatin; LC-ESI-QTOF; MS2; 140 V
Name: 6`-Hydroxymethyl Simvastatin
Class: Metabolite; Pharmaceutical
Formula: C25H38O6
Exact mass: 434.2668
SMILES: CCC(C)(C)C(=O)OC1CC(C=C2C1C(C(C=C2)C)CCC3CC(CC(=O)O3)O)CO
InChI: InChI=1S/C25H38O6/c1-5-25(3,4)24(29)31-21-11-16(14-26)10-17-7-6-15(2)20(23(17)21)9-8-19-12-18(27)13-22(28)30-19/h6-7,10,15-16,18-21,23,26-27H,5,8-9,11-14H2,1-4H3
Instrument: TripleTOF 5600 SCIEX
Instrument type: LC-ESI-QTOF
Ms type: MS2
Ion mode: POSITIVE
Collision energy: 140
Fragmentation mode: CID
Ionization: ESI
Column name: Zorbax Eclipse Plus C18 2.1 mm x 150 mm, 3.5 um, Agilent
Retention time: 10.786 min
Precursor m/z: 435.2741
Precursor type: [M+H]+
m/z	relative intensity
77.0443	285
79.0586	142
91.0589	190
115.057	999
127.0556	261
128.064	713
139.0514	118
141.0713	832
151.056	142
152.0644	832
153.0711	333
164.0699	142
165.0721	689
166.0756	118
178.0775	285
202.0716	95
