Mass spectrum: Cyproterone; LC-ESI-QTOF; MS2; 30 V
Name: Cyproterone
Class: Pharmaceutical
Formula: C22H27ClO3
Exact mass: 374.1649
SMILES: CC(=O)C1(CCC2C1(CCC3C2C=C(C4=CC(=O)C5CC5C34C)Cl)C)O
InChI: InChI=1S/C22H27ClO3/c1-11(24)22(26)7-5-14-12-9-18(23)17-10-19(25)13-8-16(13)21(17,3)15(12)4-6-20(14,22)2/h9-10,12-16,26H,4-8H2,1-3H3
Instrument: TripleTOF 5600 SCIEX
Instrument type: LC-ESI-QTOF
Ms type: MS2
Ion mode: POSITIVE
Collision energy: 30
Fragmentation mode: CID
Ionization: ESI
Column name: Zorbax Eclipse Plus C18 2.1 mm x 150 mm, 3.5 um, Agilent
Retention time: 11.881 min
Precursor m/z: 375.1721
Precursor type: [M+H]+
m/z	relative intensity
107.0856	12
111.0804	12
119.0854	14
133.1012	33
143.0859	10
145.1034	16
147.0793	10
147.1165	39
155.0863	10
157.1022	15
159.0806	11
159.1158	11
171.1184	13
175.1125	35
177.0461	11
181.0399	19
183.1172	18
185.0963	23
189.1262	12
193.1003	13
195.1159	18
199.1086	11
201.1261	10
203.0631	10
205.0427	20
205.1006	13
207.0556	10
207.1165	15
209.132	13
211.1158	11
219.0568	102
219.1185	11
221.0729	13
221.1306	14
223.1122	16
225.1294	12
229.0839	10
231.1028	11
233.1332	24
235.1114	12
235.1467	31
237.1259	23
237.1607	12
239.1416	20
243.1134	10
245.0723	30
246.1408	12
247.1474	23
249.1276	15
249.1652	34
251.1428	46
251.179	14
253.1569	11
257.1107	12
259.0908	16
259.1508	18
260.1569	15
261.1621	49
263.1422	65
264.1504	11
265.1546	17
271.1291	10
273.1015	27
273.1627	13
275.1197	9
275.1784	18
277.1583	65
278.1644	69
279.1743	167
285.1061	12
285.1645	10
287.1193	17
288.1506	16
289.1379	12
293.1541	100
293.1903	33
295.1675	11
297.1385	16
297.1821	15
299.1174	24
301.1337	19
303.1749	74
306.1619	31
313.1334	99
314.1444	77
315.1495	92
321.1858	465
322.1916	12
329.1665	29
339.1492	29
339.1952	17
357.161	202
375.1716	999
