Mass spectrum: Prometon; LC-ESI-QTOF; MS2; 40 V
Name: Prometon
Class: Herbicide
Formula: C10H19N5O
Exact mass: 225.159
SMILES: COc1nc(NC(C)C)nc(NC(C)C)n1
InChI: InChI=1S/C10H19N5O/c1-6(2)11-8-13-9(12-7(3)4)15-10(14-8)16-5/h6-7H,1-5H3,(H2,11,12,13,14,15)
Instrument: TripleTOF 5600 SCIEX
Instrument type: LC-ESI-QTOF
Ms type: MS2
Ion mode: POSITIVE
Collision energy: 40
Fragmentation mode: CID
Ionization: ESI
Column name: Zorbax Eclipse Plus C18 2.1 mm x 150 mm, 3.5 um, Agilent
Retention time: 7.392 min
Precursor m/z: 226.1662
Precursor type: [M+H]+
m/z	relative intensity
43.0384	39
57.052	193
58.0342	36
68.0298	165
69.0123	49
75.0592	74
82.0427	56
83.0267	36
85.0527	14
86.0386	562
99.0681	79
100.0528	416
110.047	25
110.0701	15
142.0739	999
184.1199	177
226.1665	14
