Mass spectrum: Dasatinib; LC-ESI-QTOF; MS2; 50 V
Name: Dasatinib
Class: Pharmaceutical
Formula: C22H26ClN7O2S
Exact mass: 487.1557
SMILES: Cc1nc(Nc2sc(cn2)C(=O)Nc3c(C)cccc3Cl)cc(n1)N4CCN(CCO)CC4
InChI: InChI=1S/C22H26ClN7O2S/c1-14-4-3-5-16(23)20(14)28-21(32)17-13-24-22(33-17)27-18-12-19(26-15(2)25-18)30-8-6-29(7-9-30)10-11-31/h3-5,12-13,31H,6-11H2,1-2H3,(H,28,32)(H,24,25,26,27)
Instrument: TripleTOF 5600 SCIEX
Instrument type: LC-ESI-QTOF
Ms type: MS2
Ion mode: POSITIVE
Collision energy: 50
Fragmentation mode: CID
Ionization: ESI
Column name: Zorbax Eclipse Plus C18 2.1 mm x 150 mm, 3.5 um, Agilent
Retention time: 7.247 min
Precursor m/z: 488.163
Precursor type: [M+H]+
m/z	relative intensity
114.0912	28
125.0161	9
161.0824	34
176.0947	20
178.0412	11
187.0987	15
191.05	9
193.0547	51
202.1082	9
205.0456	15
207.0672	17
219.0698	15
232.065	452
233.0498	28
233.0795	13
234.0819	60
248.1508	13
258.0809	111
260.0609	68
260.0921	30
292.0311	24
317.0233	11
319.0382	20
319.1343	128
343.0448	15
347.1294	13
360.0675	102
365.1132	28
386.0874	20
387.0797	30
401.096	999
427.1101	187
488.1632	77
