Mass spectrum: N,N-Dicyclohexylmethylamine; LC-ESI-QTOF; MS2; 130 V
Name: N,N-Dicyclohexylmethylamine
Formula: C13H25N
Exact mass: 195.1987
SMILES: CN(C1CCCCC1)C2CCCCC2
InChI: InChI=1S/C13H25N/c1-14(12-8-4-2-5-9-12)13-10-6-3-7-11-13/h12-13H,2-11H2,1H3
Instrument: TripleTOF 6600 SCIEX
Instrument type: LC-ESI-QTOF
Ms type: MS2
Ion mode: POSITIVE
Collision energy: 130
Fragmentation mode: CID
Ionization: ESI
Column name: Zorbax Eclipse Plus C18 2.1 mm x 150 mm, 3.5 um, Agilent
Retention time: 6.52 min
Precursor m/z: 196.206
Precursor type: [M+H]+
m/z	relative intensity
32.0496	15
36	72
37.0079	397
38.0039	30
38.0155	392
39.0237	999
41.0393	54
50.0162	10
52.0063	10
53.0137	34
53.0388	10
54.0346	11
