Mass spectrum: Caffeine; LC-ESI-QTOF; MS2; 40 V
Name: Caffeine
Class: Food_additive; Natural_product; Personal_care_product
Formula: C8H10N4O2
Exact mass: 194.0804
SMILES: Cn1cnc2N(C)C(=O)N(C)C(=O)c12
InChI: InChI=1S/C8H10N4O2/c1-10-4-9-6-5(10)7(13)12(3)8(14)11(6)2/h4H,1-3H3
Instrument: TripleTOF 5600 SCIEX
Instrument type: LC-ESI-QTOF
Ms type: MS2
Ion mode: POSITIVE
Collision energy: 40
Fragmentation mode: CID
Ionization: ESI
Column name: Zorbax Eclipse Plus C18 2.1 mm x 150 mm, 3.5 um, Agilent
Retention time: 5.509 min
Precursor m/z: 195.0877
Precursor type: [M+H]+
m/z	relative intensity
42.044	433
54.0401	15
56.0559	87
67.0336	15
68.0411	37
69.0487	188
81.0466	50
81.0588	21
82.0561	34
83.0627	374
95.0493	10
95.0638	10
97.0432	29
108.0529	42
109.0392	156
110.0718	600
111.0541	29
123.0427	544
135.0674	26
136.0501	23
138.0657	999
180.0601	10
195.0873	66
