Mass spectrum: 4,4-Chlorophenoxyphenol; LC-ESI-QTOF; MS2; 50 V
Name: 4,4-Chlorophenoxyphenol
Class: Herbicide
Formula: C12H9ClO2
Exact mass: 220.0291
SMILES: c1cc(ccc1O)Oc2ccc(cc2)Cl
InChI: InChI=1S/C12H9ClO2/c13-9-1-5-11(6-2-9)15-12-7-3-10(14)4-8-12/h1-8,14H
Instrument: TripleTOF 5600 SCIEX
Instrument type: LC-ESI-QTOF
Ms type: MS2
Ion mode: POSITIVE
Collision energy: 50
Fragmentation mode: CID
Ionization: ESI
Column name: Zorbax Eclipse Plus C18 2.1 mm x 150 mm, 3.5 um, Agilent
Retention time: 12.354 min
Precursor m/z: 221.0364
Precursor type: [M+H]+
m/z	relative intensity
55.0604	368
57.0747	131
65.0431	210
67.0585	262
72.991	157
77.0433	683
79.0577	368
81.0363	131
81.0714	262
91.0563	814
93.0716	184
94.0427	368
95.0504	131
98.9992	262
103.051	131
105.0704	368
110.0357	210
115.054	368
117.0685	105
121.069	105
127.0562	184
128.061	657
129.0701	315
131.0482	157
135.0797	105
138.0656	105
139.0529	999
140.0606	157
157.0653	525
168.0574	525
