Mass spectrum: Diphenhydramine; LC-ESI-QTOF; MS2; 150 V
Name: Diphenhydramine
Class: Pharmaceutical
Formula: C17H21NO
Exact mass: 255.1623
SMILES: CN(C)CCOC(c1ccccc1)c2ccccc2
InChI: InChI=1S/C17H21NO/c1-18(2)13-14-19-17(15-9-5-3-6-10-15)16-11-7-4-8-12-16/h3-12,17H,13-14H2,1-2H3
Instrument: TripleTOF 5600 SCIEX
Instrument type: LC-ESI-QTOF
Ms type: MS2
Ion mode: POSITIVE
Collision energy: 150
Fragmentation mode: CID
Ionization: ESI
Column name: Zorbax Eclipse Plus C18 2.1 mm x 150 mm, 3.5 um, Agilent
Retention time: 7.721 min
Precursor m/z: 256.1696
Precursor type: [M+H]+
m/z	relative intensity
44.0602	90
52.0364	52
60.0064	98
65.0436	247
73.0108	134
74.0181	919
75.0263	307
76.0339	222
77.0418	203
78.0497	49
84.0035	60
85.0101	351
86.0174	661
87.0248	502
88.0324	63
89.0402	570
91.0583	30
97.0093	101
98.0157	631
99.023	153
100.0331	35
101.0395	19
102.0471	118
109.0074	101
110.0146	257
111.023	128
112.0312	10
113.0382	236
114.0484	30
115.0542	293
122.0142	93
123.0223	30
125.0401	35
126.046	112
127.0515	19
134.0157	24
137.0386	200
138.0466	52
139.0536	219
149.0387	46
150.0454	214
151.055	38
161.0377	216
162.0464	428
163.0541	999
164.063	85
165.0684	32
