Mass spectrum: N,N-didesmethyl-venlafaxine; LC-ESI-QTOF; MS2; 110 V
Name: N,N-didesmethyl-venlafaxine
Class: Pharmaceutical; Transformation_product; Transformation_product-Metabolite
Formula: C15H23NO2
Exact mass: 249.1729
SMILES: COC1=CC=C(C=C1)C(CN)C2(CCCCC2)O
InChI: InChI=1S/C15H23NO2/c1-18-13-7-5-12(6-8-13)14(11-16)15(17)9-3-2-4-10-15/h5-8,14,17H,2-4,9-11,16H2,1H3
Instrument: TripleTOF 5600 SCIEX
Instrument type: LC-ESI-QTOF
Ms type: MS2
Ion mode: POSITIVE
Collision energy: 110
Fragmentation mode: CID
Ionization: ESI
Column name: Zorbax Eclipse Plus C18 2.1 mm x 150 mm, 3.5 um, Agilent
Retention time: 6.316 min
Precursor m/z: 250.1802
Precursor type: [M+H]+
m/z	relative intensity
51.0284	297
52.0355	175
65.0423	280
77.04	876
78.0484	999
79.0559	122
89.0411	192
91.0547	227
102.0475	122
103.0531	122
115.0523	350
127.053	70
128.0589	140
