Mass spectrum: Estradiol; LC-ESI-QTOF; MS2; 20 V
Name: Estradiol
Class: Pharmaceutical
Formula: C18H24O2
Exact mass: 272.1776
SMILES: CC12CCC3C(C1CCC2O)CCC4=C3C=CC(=C4)O
InChI: InChI=1S/C18H24O2/c1-18-9-8-14-13-5-3-12(19)10-11(13)2-4-15(14)16(18)6-7-17(18)20/h3,5,10,14-17,19-20H,2,4,6-9H2,1H3
Instrument: TripleTOF 5600 SCIEX
Instrument type: LC-ESI-QTOF
Ms type: MS2
Ion mode: POSITIVE
Collision energy: 20
Fragmentation mode: CID
Ionization: ESI
Column name: Zorbax Eclipse Plus C18 2.1 mm x 150 mm, 3.5 um, Agilent
Retention time: 10.403 min
Precursor m/z: 273.1849
Precursor type: [M+H]+
m/z	relative intensity
67.054	12
79.0543	14
81.0693	37
93.0691	26
95.0859	59
105.0696	13
107.0492	639
107.0845	25
109.1017	84
121.0648	21
121.1003	44
133.0651	185
133.1005	11
135.1167	751
145.0645	84
147.0794	48
147.1165	79
149.1328	113
157.0632	18
159.0805	612
161.0957	21
161.1322	41
173.0963	209
179.1429	69
185.0953	115
187.1121	18
199.1129	77
201.1281	37
213.1285	24
255.1745	825
273.1855	999
