Mass spectrum: 5`-Deoxy-5`-(methylthio)adenosine; LC-ESI-QTOF; MS2; 140 V
Name: 5`-Deoxy-5`-(methylthio)adenosine
Class: Metabolite
Formula: C11H15N5O3S
Exact mass: 297.0896
SMILES: NC1=NC=NC2=C1N=CN2C3C(O)C(O)C(CSC)O3
InChI: InChI=1S/C11H15N5O3S/c1-20-2-5-7(17)8(18)11(19-5)16-4-15-6-9(12)13-3-14-10(6)16/h3-5,7-8,11,17-18H,2H2,1H3,(H2,12,13,14)
Instrument: TripleTOF 5600 SCIEX
Instrument type: LC-ESI-QTOF
Ms type: MS2
Ion mode: POSITIVE
Collision energy: 140
Fragmentation mode: CID
Ionization: ESI
Column name: Zorbax Eclipse Plus C18 2.1 mm x 150 mm, 3.5 um, Agilent
Retention time: 4.785 min
Precursor m/z: 298.0969
Precursor type: [M+H]+
m/z	relative intensity
34.9952	22
38.003	72
39.0233	42
40.0188	104
41.0391	25
43.0293	27
44.9799	183
45.9876	126
46.9954	76
49.011	29
53.0138	52
55.0295	98
57.0339	14
57.9876	21
58.9954	74
60.0031	23
61.0112	334
65.0141	999
66.0216	32
67.0295	141
71.0131	13
75.0264	57
77.0138	90
92.0248	263
94.0401	16
119.0355	111
