Mass spectrum: Levamisole; LC-ESI-QTOF; MS2; 60 V
Name: Levamisole
Class: Pharmaceutical
Formula: C11H12N2S
Exact mass: 204.0721
SMILES: c1ccc(cc1)[C@H]2CN3CCSC3=N2
InChI: InChI=1S/C11H12N2S/c1-2-4-9(5-3-1)10-8-13-6-7-14-11(13)12-10/h1-5,10H,6-8H2/t10-/m1/s1
Instrument: TripleTOF 5600 SCIEX
Instrument type: LC-ESI-QTOF
Ms type: MS2
Ion mode: POSITIVE
Collision energy: 60
Fragmentation mode: CID
Ionization: ESI
Column name: Zorbax Eclipse Plus C18 2.1 mm x 150 mm, 3.5 um, Agilent
Retention time: 5.021 min
Precursor m/z: 205.0794
Precursor type: [M+H]+
m/z	relative intensity
51.0296	32
58.9997	19
59.9946	17
65.0434	177
77.0423	345
78.0491	46
79.0567	58
89.0403	37
90.0481	46
91.0571	999
101.0401	11
102.047	29
103.0551	164
104.0621	24
105.0703	36
115.0544	113
117.0581	141
118.065	34
123.0267	59
127.0543	62
128.0621	196
129.07	10
130.0656	202
131.073	16
144.0805	18
