Mass spectrum: 2-(Methylthio)benzothiazole; LC-ESI-QTOF; MS2; 50 V
Name: 2-(Methylthio)benzothiazole
Class: Industrial_process; Fungicide
Formula: C8H7NS2
Exact mass: 181.002
SMILES: CSc1sc2ccccc2n1
InChI: InChI=1S/C8H7NS2/c1-10-8-9-6-4-2-3-5-7(6)11-8/h2-5H,1H3
Instrument: TripleTOF 5600 SCIEX
Instrument type: LC-ESI-QTOF
Ms type: MS2
Ion mode: POSITIVE
Collision energy: 50
Fragmentation mode: CID
Ionization: ESI
Column name: Zorbax Eclipse Plus C18 2.1 mm x 150 mm, 3.5 um, Agilent
Retention time: 12.209 min
Precursor m/z: 182.0093
Precursor type: [M+H]+
m/z	relative intensity
63.9475	90
64.0353	60
65.0427	255
68.9829	52
76.0327	60
77.0429	52
81.9908	37
91.0418	270
94.9972	52
96.0028	277
103.0421	120
108.0031	157
109.0103	751
122.0061	52
123.0133	638
135.0129	315
139.9755	135
165.979	75
166.9855	999
