Mass spectrum: Brilliant Green Cation; LC-ESI-QTOF; MS2; 100 V
Name: Brilliant Green Cation
Formula: [C27H33N2]+
Exact mass: 385.2638
SMILES: CCN(CC)C1=CC=C(C=C1)C(=C2C=CC(=[N+](CC)CC)C=C2)C3=CC=CC=C3
InChI: InChI=1S/C27H33N2/c1-5-28(6-2)25-18-14-23(15-19-25)27(22-12-10-9-11-13-22)24-16-20-26(21-17-24)29(7-3)8-4/h9-21H,5-8H2,1-4H3/q+1
Instrument: TripleTOF 6600 SCIEX
Instrument type: LC-ESI-QTOF
Ms type: MS2
Ion mode: POSITIVE
Collision energy: 100
Fragmentation mode: CID
Ionization: ESI
Column name: Zorbax Eclipse Plus C18 2.1 mm x 150 mm, 3.5 um, Agilent
Retention time: 12.461 min
Precursor m/z: 385.2638
Precursor type: [M]+
m/z	relative intensity
152.0599	90
164.0606	156
165.0686	580
178.0756	82
190.0638	147
191.0717	131
192.0796	318
215.0842	192
226.0767	195
228.092	96
239.0849	904
240.0914	370
241.1011	999
252.0909	61
253.0944	83
254.1002	119
255.1142	61
267.1035	114
268.1112	316
269.1188	81
297.1371	53
