Mass spectrum: Metolachlor; LC-ESI-QTOF; MS2; 150 V
Name: Metolachlor
Class: Herbicide
Formula: C15H22ClNO2
Exact mass: 283.1339
SMILES: CCc1cccc(C)c1N(C(C)COC)C(=O)CCl
InChI: InChI=1S/C15H22ClNO2/c1-5-13-8-6-7-11(2)15(13)17(14(18)9-16)12(3)10-19-4/h6-8,12H,5,9-10H2,1-4H3
Instrument: TripleTOF 5600 SCIEX
Instrument type: LC-ESI-QTOF
Ms type: MS2
Ion mode: POSITIVE
Collision energy: 150
Fragmentation mode: CID
Ionization: ESI
Column name: Zorbax Eclipse Plus C18 2.1 mm x 150 mm, 3.5 um, Agilent
Retention time: 13.304 min
Precursor m/z: 284.1412
Precursor type: [M+H]+
m/z	relative intensity
43.0241	21
45.0395	88
51.0285	668
64.0336	33
65.0423	520
66.0489	63
67.0475	25
74.0167	93
75.0254	105
76.0324	50
77.041	999
78.0483	80
78.064	16
79.056	38
80.0498	16
87.0231	29
89.0396	512
89.0866	25
90.0479	97
91.055	249
92.0504	25
93.0573	38
101.0388	33
102.0464	59
103.0529	182
104.0491	16
106.0649	33
113.0352	21
115.053	194
117.0576	71
128.0479	38
128.0593	16
130.065	126
142.0642	33
143.073	25
