Mass spectrum: Naftifine; LC-ESI-QTOF; MS2; 150 V
Name: Naftifine
Class: Pharmaceutical; Fungicide
Formula: C21H21N
Exact mass: 287.1674
SMILES: CN(C/C=C/c1ccccc1)Cc2cccc3c2cccc3
InChI: InChI=1S/C21H21N/c1-22(16-8-11-18-9-3-2-4-10-18)17-20-14-7-13-19-12-5-6-15-21(19)20/h2-15H,16-17H2,1H3/b11-8+
Instrument: TripleTOF 5600 SCIEX
Instrument type: LC-ESI-QTOF
Ms type: MS2
Ion mode: POSITIVE
Collision energy: 150
Fragmentation mode: CID
Ionization: ESI
Column name: Zorbax Eclipse Plus C18 2.1 mm x 150 mm, 3.5 um, Agilent
Retention time: 8.505 min
Precursor m/z: 288.1747
Precursor type: [M+H]+
m/z	relative intensity
60.0047	38
63.0591	28
65.0432	999
73.0126	35
74.0184	266
75.0256	144
76.0335	54
77.0402	61
78.0497	16
85.0098	35
86.0176	150
87.0251	154
88.0318	41
89.0402	957
91.0553	414
98.0158	41
102.0466	48
113.038	89
114.0464	51
115.0542	925
139.053	99
