Mass spectrum: Chloroxuron; LC-ESI-QTOF; MS2; 100 V
Name: Chloroxuron
Class: Herbicide
Formula: C15H15ClN2O2
Exact mass: 290.0822
SMILES: CN(C)C(=O)Nc1ccc(Oc2ccc(Cl)cc2)cc1
InChI: InChI=1S/C15H15ClN2O2/c1-18(2)15(19)17-12-5-9-14(10-6-12)20-13-7-3-11(16)4-8-13/h3-10H,1-2H3,(H,17,19)
Instrument: TripleTOF 5600 SCIEX
Instrument type: LC-ESI-QTOF
Ms type: MS2
Ion mode: POSITIVE
Collision energy: 100
Fragmentation mode: CID
Ionization: ESI
Column name: Zorbax Eclipse Plus C18 2.1 mm x 150 mm, 3.5 um, Agilent
Retention time: 12.103 min
Precursor m/z: 291.0895
Precursor type: [M+H]+
m/z	relative intensity
42.0484	11
44.0578	23
51.0289	10
56.0185	100
72.0479	999
72.9872	11
73.0108	13
74.0177	161
74.048	13
75.0259	306
76.0341	13
77.0407	45
80.0519	11
84.9853	35
99.0023	10
101.0388	11
102.0466	31
110.9995	44
113.0374	17
114.0445	17
118.066	11
126.0464	26
127.0546	62
128.062	74
139.0539	81
154.0654	17
