Mass spectrum: Chlormethiazole; LC-ESI-QTOF; MS2; 80 V
Name: Chlormethiazole
Class: Pharmaceutical
Formula: C6H8ClNS
Exact mass: 161.0066
SMILES: CC1=C(SC=N1)CCCl
InChI: InChI=1S/C6H8ClNS/c1-5-6(2-3-7)9-4-8-5/h4H,2-3H2,1H3
Instrument: TripleTOF 6600 SCIEX
Instrument type: LC-ESI-QTOF
Ms type: MS2
Ion mode: POSITIVE
Collision energy: 80
Fragmentation mode: CID
Ionization: ESI
Column name: Zorbax Eclipse Plus C18 2.1 mm x 150 mm, 3.5 um, Agilent
Retention time: 7.946 min
Precursor m/z: 162.0139
Precursor type: [M+H]+
m/z	relative intensity
37.0077	87
38.0155	79
39.0226	333
41.0271	31
41.0388	95
42.0338	285
43.9708	39
44.9794	999
50.0151	71
51.0229	126
53.0387	111
54.034	103
57.9861	79
58.9947	174
65.0383	63
68.0497	63
68.9788	47
70.9946	491
78.0322	39
80.0504	71
85.0106	182
112.0207	158
