Mass spectrum: Prometon; LC-ESI-QTOF; MS2; 110 V
Name: Prometon
Class: Herbicide
Formula: C10H19N5O
Exact mass: 225.159
SMILES: COc1nc(NC(C)C)nc(NC(C)C)n1
InChI: InChI=1S/C10H19N5O/c1-6(2)11-8-13-9(12-7(3)4)15-10(14-8)16-5/h6-7H,1-5H3,(H2,11,12,13,14,15)
Instrument: TripleTOF 5600 SCIEX
Instrument type: LC-ESI-QTOF
Ms type: MS2
Ion mode: POSITIVE
Collision energy: 110
Fragmentation mode: CID
Ionization: ESI
Column name: Zorbax Eclipse Plus C18 2.1 mm x 150 mm, 3.5 um, Agilent
Retention time: 7.392 min
Precursor m/z: 226.1662
Precursor type: [M+H]+
m/z	relative intensity
41.0233	83
42.0303	22
42.0494	12
43.039	689
44.0199	51
44.0297	19
57.0509	215
58.0344	80
68.0291	999
69.0127	802
69.0579	22
69.0724	12
83.0295	22
