Mass spectrum: (Benzyloxycarbonylmethyl)triphenylphosphonium; LC-ESI-QTOF; MS2; 150 V
Name: (Benzyloxycarbonylmethyl)triphenylphosphonium
Formula: [C27H24O2P]+
Exact mass: 411.1508
SMILES: C1=CC=C(C=C1)COC(=O)C[P+](C2=CC=CC=C2)(C3=CC=CC=C3)C4=CC=CC=C4
InChI: InChI=1S/C27H24O2P/c28-27(29-21-23-13-5-1-6-14-23)22-30(24-15-7-2-8-16-24,25-17-9-3-10-18-25)26-19-11-4-12-20-26/h1-20H,21-22H2/q+1
Instrument: TripleTOF 6600 SCIEX
Instrument type: LC-ESI-QTOF
Ms type: MS2
Ion mode: POSITIVE
Collision energy: 150
Fragmentation mode: CID
Ionization: ESI
Column name: Zorbax Eclipse Plus C18 2.1 mm x 150 mm, 3.5 um, Agilent
Retention time: 9.196 min
Precursor m/z: 411.1508
Precursor type: [M]+
m/z	relative intensity
39.022	250
63.0208	123
65.0363	478
89.0349	145
91.0502	163
107.0004	211
115.0505	263
126.0424	126
133.0163	60
139.0511	277
150.043	123
151.0512	317
152.0594	999
157.0174	555
181.0174	388
183.0332	302
202.0754	63
213.0671	105
224.0593	123
225.0659	103
226.0752	471
231.0322	70
255.0333	196
257.0489	331
