Mass spectrum: 17alpha-Methyltestosterone; LC-ESI-QTOF; MS2; 60 V
Name: 17alpha-Methyltestosterone
Class: Pharmaceutical
Formula: C20H30O2
Exact mass: 302.2246
SMILES: C[C@]1(O)CC[C@H]2[C@@H]3CCC4=CC(=O)CC[C@]4(C)[C@H]3CC[C@]12C
InChI: InChI=1S/C20H30O2/c1-18-9-6-14(21)12-13(18)4-5-15-16(18)7-10-19(2)17(15)8-11-20(19,3)22/h12,15-17,22H,4-11H2,1-3H3/t15-,16+,17+,18+,19+,20+/m1/s1
Instrument: TripleTOF 5600 SCIEX
Instrument type: LC-ESI-QTOF
Ms type: MS2
Ion mode: POSITIVE
Collision energy: 60
Fragmentation mode: CID
Ionization: ESI
Column name: Zorbax Eclipse Plus C18 2.1 mm x 150 mm, 3.5 um, Agilent
Retention time: 11.57 min
Precursor m/z: 303.2319
Precursor type: [M+H]+
m/z	relative intensity
43.0261	52
43.0336	23
55.0223	28
55.0596	59
65.0427	47
66.0502	11
67.0577	171
69.0723	66
77.042	340
77.073	14
79.0572	624
81.0721	388
83.0513	78
91.0561	472
93.0711	233
94.0432	16
95.052	14
95.087	145
97.0666	999
97.098	26
103.0555	35
105.0703	290
107.0503	38
107.0851	88
108.06	16
109.0654	917
115.0553	50
116.0619	23
117.0699	61
119.0866	169
121.0645	59
121.1003	33
123.0802	178
123.1144	11
127.0561	16
128.062	57
129.0709	71
130.0779	30
131.0859	59
133.1009	64
141.0681	40
142.078	45
143.0842	33
144.0934	30
145.1015	40
147.1164	11
149.0977	14
153.0704	11
155.0861	28
156.0949	21
157.0995	42
159.1153	28
161.1341	11
167.0839	19
169.1005	28
171.1167	16
173.1294	11
181.1025	11
185.1305	19
197.1338	14
