Mass spectrum: 2-Ethyl-6-methylaniline; LC-ESI-QTOF; MS2; 30 V
Name: 2-Ethyl-6-methylaniline
Class: Industrial_process
Formula: C9H13N
Exact mass: 135.1048
SMILES: CCC1=CC=CC(=C1N)C
InChI: InChI=1S/C9H13N/c1-3-8-6-4-5-7(2)9(8)10/h4-6H,3,10H2,1-2H3
Instrument: TripleTOF 5600 SCIEX
Instrument type: LC-ESI-QTOF
Ms type: MS2
Ion mode: POSITIVE
Collision energy: 30
Fragmentation mode: CID
Ionization: ESI
Column name: Zorbax Eclipse Plus C18 2.1 mm x 150 mm, 3.5 um, Agilent
Retention time: 7.958 min
Precursor m/z: 136.1121
Precursor type: [M+H]+
m/z	relative intensity
41.0384	11
65.0387	96
77.039	242
78.0467	48
79.0542	61
91.0546	999
93.0571	72
93.0693	56
102.0474	15
103.0546	219
104.0628	185
106.0655	101
107.0733	113
108.0812	100
115.0545	171
117.0703	379
119.0858	229
120.0809	55
134.0975	47
136.113	117
