Mass spectrum: Codeinone; LC-ESI-QTOF; MS2; 120 V
Name: Codeinone
Class: Pharmaceutical
Formula: C18H19NO3
Exact mass: 297.1365
SMILES: CN1CCC23C4C1CC5=C2C(=C(C=C5)OC)OC3C(=O)C=C4
InChI: InChI=1S/C18H19NO3/c1-19-8-7-18-11-4-5-13(20)17(18)22-16-14(21-2)6-3-10(15(16)18)9-12(11)19/h3-6,11-12,17H,7-9H2,1-2H3
Instrument: TripleTOF 5600 SCIEX
Instrument type: LC-ESI-QTOF
Ms type: MS2
Ion mode: POSITIVE
Collision energy: 120
Fragmentation mode: CID
Ionization: ESI
Column name: Zorbax Eclipse Plus C18 2.1 mm x 150 mm, 3.5 um, Agilent
Retention time: 5.057 min
Precursor m/z: 298.1438
Precursor type: [M+H]+
m/z	relative intensity
44.0603	11
58.0768	13
65.0454	53
74.0207	60
75.0282	100
76.0363	60
77.0437	188
78.0509	43
86.0191	39
87.0273	74
88.034	89
89.0425	265
91.0576	20
98.0167	36
99.0256	30
100.0358	20
101.0406	49
102.0483	119
111.0267	13
113.0399	258
114.0487	74
115.0553	313
125.0384	34
126.047	195
127.0551	127
128.063	60
137.0366	24
138.0486	70
139.0549	999
140.0583	13
141.0731	24
149.0394	20
150.0471	188
151.0545	284
152.0622	349
153.0664	13
154.0658	13
155.0501	11
162.0511	13
163.0548	136
164.0626	43
165.0684	45
175.0535	11
176.0619	64
177.0703	13
187.0546	24
188.0603	11
