Mass spectrum: Thiabendazole; LC-ESI-QTOF; MS2; 70 V
Name: Thiabendazole
Class: Fungicide; Pharmaceutical
Formula: C10H7N3S
Exact mass: 201.0361
SMILES: [nH]1c2ccccc2nc1c3cscn3
InChI: InChI=1S/C10H7N3S/c1-2-4-8-7(3-1)12-10(13-8)9-5-14-6-11-9/h1-6H,(H,12,13)
Instrument: TripleTOF 5600 SCIEX
Instrument type: LC-ESI-QTOF
Ms type: MS2
Ion mode: POSITIVE
Collision energy: 70
Fragmentation mode: CID
Ionization: ESI
Column name: Zorbax Eclipse Plus C18 2.1 mm x 150 mm, 3.5 um, Agilent
Retention time: 5.203 min
Precursor m/z: 202.0433
Precursor type: [M+H]+
m/z	relative intensity
51.0291	50
63.0433	10
64.0351	33
65.0437	999
66.0365	15
75.0251	26
76.0349	12
77.0418	516
78.0361	15
83.9915	13
89.04	19
90.035	69
91.0423	97
92.0513	167
102.0338	60
103.042	24
104.0494	283
106.9968	15
115.0428	20
116.0494	13
118.0526	53
129.0434	13
131.0609	311
134.0053	24
142.0517	27
143.0609	69
156.0563	15
175.0317	27
