Mass spectrum: Pethoxamid; LC-ESI-QTOF; MS2; 120 V
Name: Pethoxamid
Class: Herbicide
Formula: C16H22ClNO2
Exact mass: 295.1339
SMILES: CCOCCN(C(=O)CCl)C(=C(C)C)C1=CC=CC=C1
InChI: InChI=1S/C16H22ClNO2/c1-4-20-11-10-18(15(19)12-17)16(13(2)3)14-8-6-5-7-9-14/h5-9H,4,10-12H2,1-3H3
Instrument: TripleTOF 6600 SCIEX
Instrument type: LC-ESI-QTOF
Ms type: MS2
Ion mode: POSITIVE
Collision energy: 120
Fragmentation mode: CID
Ionization: ESI
Column name: Zorbax Eclipse Plus C18 2.1 mm x 150 mm, 3.5 um, Agilent
Retention time: 12.961 min
Precursor m/z: 296.1412
Precursor type: [M+H]+
m/z	relative intensity
37.0071	69
38.0149	65
39.0229	468
41.0382	61
45.0336	24
48.983	20
50.0147	90
51.0224	226
61.0067	57
62.0143	86
63.0221	287
65.0381	933
74.0145	53
75.0221	57
76.029	24
77.0375	242
78.0456	28
86.0137	28
87.0222	28
88.0297	20
89.0375	398
91.0531	448
102.0452	94
103.053	28
115.053	999
116.059	24
126.0443	28
127.0527	74
128.0608	119
