Mass spectrum: Dienogest Impurity G; LC-ESI-QTOF; MS2; 30 V
Name: Dienogest Impurity G
Class: Pharmaceutical
Formula: C20H23NO2
Exact mass: 309.1729
SMILES: CC12CC=C3C(C1CCC2(CC#N)O)CCC4=C3C=CC(=C4)O
InChI: InChI=1S/C20H23NO2/c1-19-8-6-16-15-5-3-14(22)12-13(15)2-4-17(16)18(19)7-9-20(19,23)10-11-21/h3,5-6,12,17-18,22-23H,2,4,7-10H2,1H3
Instrument: TripleTOF 6600 SCIEX
Instrument type: LC-ESI-QTOF
Ms type: MS2
Ion mode: POSITIVE
Collision energy: 30
Fragmentation mode: CID
Ionization: ESI
Column name: Zorbax Eclipse Plus C18 2.1 mm x 150 mm, 3.5 um, Agilent
Retention time: 9.956 min
Precursor m/z: 310.1802
Precursor type: [M+H]+
m/z	relative intensity
79.0536	12
91.0536	19
93.0693	16
95.0851	10
97.0636	19
105.0688	35
107.0476	16
107.0839	25
108.0797	16
109.0639	9
119.0843	17
120.0795	13
121.0643	16
123.0794	38
131.0839	25
132.0793	51
133.0639	409
134.0948	11
141.0686	14
144.0565	14
145.0637	29
145.1009	11
146.0959	63
147.0793	54
148.1109	13
157.064	351
159.0798	999
160.0752	17
160.1119	13
161.0952	15
161.1186	21
171.0796	29
173.0952	32
174.0901	10
175.0749	18
183.0798	12
185.0957	13
195.0809	29
197.0947	20
198.1027	18
209.0957	39
210.1028	12
211.111	29
212.1152	14
223.1107	33
225.1284	12
227.1413	20
233.0954	13
236.1111	20
237.1241	23
241.1208	21
246.1048	10
247.1117	14
249.127	34
251.142	149
252.1498	50
264.1391	27
265.1587	49
267.1376	22
269.153	63
275.1421	51
292.1698	244
293.1538	26
310.1817	124
