Mass spectrum: Fipronil; LC-ESI-QTOF; MS2; 50 V
Name: Fipronil
Class: Insecticide; Biocide
Formula: C12H4Cl2F6N4OS
Exact mass: 435.9387
SMILES: C1=C(C=C(C(=C1Cl)N2C(=C(C(=N2)C#N)S(=O)C(F)(F)F)N)Cl)C(F)(F)F
InChI: InChI=1S/C12H4Cl2F6N4OS/c13-5-1-4(11(15,16)17)2-6(14)8(5)24-10(22)9(7(3-21)23-24)26(25)12(18,19)20/h1-2H,22H2
Instrument: TripleTOF 6600 SCIEX
Instrument type: LC-ESI-QTOF
Ms type: MS2
Ion mode: POSITIVE
Collision energy: 50
Fragmentation mode: CID
Ionization: ESI
Column name: Zorbax Eclipse Plus C18 2.1 mm x 150 mm, 3.5 um, Agilent
Retention time: 13.577 min
Precursor m/z: 436.946
Precursor type: [M+H]+
m/z	relative intensity
185.0287	75
209.9652	56
212.9463	37
221.0066	612
227.9554	141
228.9652	141
238.9476	131
239.9571	160
246.0029	141
249.0013	94
252.9777	160
253.959	56
254.9678	999
255.972	37
258.0019	65
262.9628	461
265.0046	37
270.0052	84
270.9232	188
277.9576	160
280.972	245
285.0128	122
289.9744	320
299.9689	47
305.9699	47
314.966	113
315.9773	113
319.9799	56
332.9808	56
