Mass spectrum: Baclofen; LC-ESI-QTOF; MS2; 60 V
Name: Baclofen
Class: Pharmaceutical
Formula: C10H12ClNO2
Exact mass: 213.0557
SMILES: NCC(CC(O)=O)c1ccc(Cl)cc1
InChI: InChI=1S/C10H12ClNO2/c11-9-3-1-7(2-4-9)8(6-12)5-10(13)14/h1-4,8H,5-6,12H2,(H,13,14)
Instrument: TripleTOF 5600 SCIEX
Instrument type: LC-ESI-QTOF
Ms type: MS2
Ion mode: POSITIVE
Collision energy: 60
Fragmentation mode: CID
Ionization: ESI
Column name: Zorbax Eclipse Plus C18 2.1 mm x 150 mm, 3.5 um, Agilent
Retention time: 5.336 min
Precursor m/z: 214.0629
Precursor type: [M+H]+
m/z	relative intensity
51.0287	37
65.0424	38
75.0251	16
77.0414	169
89.0399	119
90.0484	11
91.0556	48
99.0011	17
101.0395	28
102.0468	34
115.0551	999
116.0625	487
117.0571	12
118.0649	70
119.0725	18
125.015	83
126.0472	15
143.0732	11
144.0568	26
149.0146	17
