Mass spectrum: Butyl-triphenylphosphonium; LC-ESI-QTOF; MS2; 110 V
Name: Butyl-triphenylphosphonium
Class: Industrial_process
Formula: [C22H24P]+
Exact mass: 319.161
SMILES: CCCC[P+](c1ccccc1)(c2ccccc2)c3ccccc3
InChI: InChI=1S/C22H24P/c1-2-3-19-23(20-13-7-4-8-14-20,21-15-9-5-10-16-21)22-17-11-6-12-18-22/h4-18H,2-3,19H2,1H3/q+1
Instrument: TripleTOF 5600 SCIEX
Instrument type: LC-ESI-QTOF
Ms type: MS2
Ion mode: POSITIVE
Collision energy: 110
Fragmentation mode: CID
Ionization: ESI
Column name: Zorbax Eclipse Plus C18 2.1 mm x 150 mm, 3.5 um, Agilent
Retention time: 8.852 min
Precursor m/z: 319.161
Precursor type: [M]+
m/z	relative intensity
80.9908	59
89.0391	71
107.0052	489
115.0549	284
126.0472	85
133.0206	79
139.0545	238
151.0546	208
152.0625	999
157.0208	499
181.0212	239
183.0366	505
226.0767	53
257.0533	73
