Mass spectrum: Tadalafil; LC-ESI-QTOF; MS2; 70 V
Name: Tadalafil
Class: Pharmaceutical; Personal_care_product
Formula: C22H19N3O4
Exact mass: 389.1376
SMILES: CN1CC(=O)N2C(C1=O)CC3=C(C2C4=CC5=C(C=C4)OCO5)NC6=CC=CC=C36
InChI: InChI=1S/C22H19N3O4/c1-24-10-19(26)25-16(22(24)27)9-14-13-4-2-3-5-15(13)23-20(14)21(25)12-6-7-17-18(8-12)29-11-28-17/h2-8,16,21,23H,9-11H2,1H3
Instrument: TripleTOF 5600 SCIEX
Instrument type: LC-ESI-QTOF
Ms type: MS2
Ion mode: POSITIVE
Collision energy: 70
Fragmentation mode: CID
Ionization: ESI
Column name: Zorbax Eclipse Plus C18 2.1 mm x 150 mm, 3.5 um, Agilent
Retention time: 9.801 min
Precursor m/z: 390.1448
Precursor type: [M+H]+
m/z	relative intensity
77.0386	66
79.0542	20
99.0553	11
105.0318	22
115.0537	79
130.0655	31
135.0436	152
140.05	11
142.0665	38
154.0632	12
165.0688	25
166.0674	11
167.0646	33
168.0678	35
169.0764	393
170.0622	20
176.0633	20
177.0714	18
178.0724	16
179.0798	11
180.0818	18
189.068	46
190.0669	24
191.0753	83
192.0796	51
193.089	29
197.071	20
202.0653	16
203.0733	53
204.0817	999
205.0895	167
206.0978	64
214.0609	14
215.0717	44
216.0819	76
217.0904	51
220.0735	22
232.0755	129
233.0817	40
234.09	16
244.0783	18
261.0802	20
262.088	129
274.0826	14
