Mass spectrum: 4-Aminoantipyrine; LC-ESI-QTOF; MS2; 120 V
Name: 4-Aminoantipyrine
Class: Transformation_product
Formula: C11H13N3O
Exact mass: 203.1059
InChI: InChI=1S/C11H13N3O/c1-8-10(12)11(15)14(13(8)2)9-6-4-3-5-7-9/h3-7H,12H2,1-2H3
Instrument: TripleTOF 5600 SCIEX
Instrument type: LC-ESI-QTOF
Ms type: CID
Ion mode: POSITIVE
Collision energy: 120
Ionization: ESI
Column name: Zorbax Eclipse Plus C18 2.1 mm x 150 mm, 3.5 um, Agilent
Retention time: 4.783 min
Precursor m/z: 204.1131
Precursor type: [M+H]+
m/z	relative intensity
37.0072	46
39.0235	101
41.026	132
42.0342	257
49.0081	117
50.0154	491
51.0232	663
56.0496	999
63.0232	31
65.0391	78
74.0152	101
75.0231	54
77.0391	132
