Mass spectrum: N-ethyl-4-menthane-3-carboxamide; LC-ESI-QTOF; MS2; 40 V
Name: N-ethyl-4-menthane-3-carboxamide
Class: Food_additive; Personal_care_product
Formula: C13H25NO
Exact mass: 211.1936
SMILES: CCNC(=O)C1CC(CCC1C(C)C)C
InChI: InChI=1S/C13H25NO/c1-5-14-13(15)12-8-10(4)6-7-11(12)9(2)3/h9-12H,5-8H2,1-4H3,(H,14,15)
Instrument: TripleTOF 6600 SCIEX
Instrument type: LC-ESI-QTOF
Ms type: MS2
Ion mode: POSITIVE
Collision energy: 40
Fragmentation mode: CID
Ionization: ESI
Column name: Zorbax Eclipse Plus C18 2.1 mm x 150 mm, 3.5 um, Agilent
Retention time: 11.775 min
Precursor m/z: 212.2009
Precursor type: [M+H]+
m/z	relative intensity
37.0066	16
38.0022	11
38.0146	9
39.0227	105
41.0384	206
42.033	10
43.0175	11
43.0539	108
44.0131	758
46.0286	70
46.065	67
53.0379	32
54.033	10
55.018	74
55.0539	999
56.0488	27
57.0694	131
58.0646	38
65.0376	10
67.0535	88
69.0694	437
71.0848	16
72.0441	469
74.0593	138
77.0379	42
79.0535	109
81.0337	20
81.0692	235
82.0641	25
83.0487	28
83.0851	485
84.0797	22
87.0673	12
91.0533	59
93.0698	87
94.0639	12
95.0846	110
97.1005	321
98.0592	41
100.0747	136
105.0687	38
107.0848	93
108.0793	17
109.1007	19
110.0959	10
112.0747	14
121.099	19
122.0944	16
123.1154	70
124.1119	15
126.0901	40
136.1111	10
140.1068	12
142.1214	23
150.1265	16
152.1424	32
154.1225	13
168.1373	19
170.1533	623
194.1888	16
212.2004	962
