Mass spectrum: Climbazole; LC-ESI-QTOF; MS2; 150 V
Name: Climbazole
Class: Pharmaceutical; Personal_care_product
Formula: C15H17ClN2O2
Exact mass: 292.0979
SMILES: CC(C)(C)C(=O)C(Oc1ccc(Cl)cc1)n2ccnc2
InChI: InChI=1S/C15H17ClN2O2/c1-15(2,3)13(19)14(18-9-8-17-10-18)20-12-6-4-11(16)5-7-12/h4-10,14H,1-3H3
Instrument: TripleTOF 5600 SCIEX
Instrument type: LC-ESI-QTOF
Ms type: MS2
Ion mode: POSITIVE
Collision energy: 150
Fragmentation mode: CID
Ionization: ESI
Column name: Zorbax Eclipse Plus C18 2.1 mm x 150 mm, 3.5 um, Agilent
Retention time: 8.761 min
Precursor m/z: 293.1051
Precursor type: [M+H]+
m/z	relative intensity
42.0438	24
51.0285	52
57.0746	69
60.9876	12
62.0307	9
65.0416	12
67.0319	29
68.0409	29
69.0478	116
72.9891	96
73.0105	118
73.0294	9
74.018	999
74.0558	9
74.079	12
75.0251	250
77.0431	19
84.9846	49
91.0568	14
