Mass spectrum: (Tert-Butoxycarbonylmethyl)triphenylphosphonium; LC-ESI-QTOF; MS2; 60 V
Name: (Tert-Butoxycarbonylmethyl)triphenylphosphonium
Formula: [C24H26O2P]+
Exact mass: 377.1665
SMILES: CC(C)(C)OC(=O)C[P+](C1=CC=CC=C1)(C2=CC=CC=C2)C3=CC=CC=C3
InChI: InChI=1S/C24H26O2P/c1-24(2,3)26-23(25)19-27(20-13-7-4-8-14-20,21-15-9-5-10-16-21)22-17-11-6-12-18-22/h4-18H,19H2,1-3H3/q+1
Instrument: TripleTOF 5600 SCIEX
Instrument type: LC-ESI-QTOF
Ms type: MS2
Ion mode: POSITIVE
Collision energy: 60
Fragmentation mode: CID
Ionization: ESI
Column name: Zorbax Eclipse Plus C18 2.1 mm x 150 mm, 3.5 um, Agilent
Retention time: 8.834 min
Precursor m/z: 377.1665
Precursor type: [M]+
m/z	relative intensity
107.0031	130
108.0108	480
183.0356	999
184.0433	136
185.0514	195
201.0466	235
261.0832	723
262.0916	700
275.0995	162
277.1142	153
303.0937	662
321.1035	319
