Mass spectrum: 2-(2-Methoxyphenyl)-1H-Benzimidazole; LC-ESI-QTOF; MS2; 60 V
Name: 2-(2-Methoxyphenyl)-1H-Benzimidazole
Class: Pharmaceutical
Formula: C14H12N2O
Exact mass: 224.095
SMILES: COc1ccccc1c2[nH]c3ccccc3n2
InChI: InChI=1S/C14H12N2O/c1-17-13-9-5-2-6-10(13)14-15-11-7-3-4-8-12(11)16-14/h2-9H,1H3,(H,15,16)
Instrument: TripleTOF 5600 SCIEX
Instrument type: LC-ESI-QTOF
Ms type: MS2
Ion mode: POSITIVE
Collision energy: 60
Fragmentation mode: CID
Ionization: ESI
Column name: Zorbax Eclipse Plus C18 2.1 mm x 150 mm, 3.5 um, Agilent
Retention time: 6.225 min
Precursor m/z: 225.1022
Precursor type: [M+H]+
m/z	relative intensity
65.0438	67
77.0422	44
92.0514	58
103.0425	32
118.0523	11
127.0544	20
128.0499	24
129.0573	44
131.0608	11
132.0671	14
143.0611	95
154.0655	72
155.0611	73
156.0692	246
167.0602	14
169.0762	27
179.0602	14
180.0684	47
181.0773	999
182.0842	212
210.0798	13
