Mass spectrum: 4,4`-Thiodianiline; LC-ESI-QTOF; MS2; 90 V
Name: 4,4`-Thiodianiline
Formula: C12H12N2S
Exact mass: 216.0721
SMILES: C1=CC(=CC=C1N)SC2=CC=C(C=C2)N
InChI: InChI=1S/C12H12N2S/c13-9-1-5-11(6-2-9)15-12-7-3-10(14)4-8-12/h1-8H,13-14H2
Instrument: TripleTOF 6600 SCIEX
Instrument type: LC-ESI-QTOF
Ms type: MS2
Ion mode: POSITIVE
Collision energy: 90
Fragmentation mode: CID
Ionization: ESI
Column name: Zorbax Eclipse Plus C18 2.1 mm x 150 mm, 3.5 um, Agilent
Retention time: 6.429 min
Precursor m/z: 217.0794
Precursor type: [M+H]+
m/z	relative intensity
39.0223	111
44.9788	69
50.0147	263
51.0219	62
53.0381	444
54.0348	34
62.0152	41
63.0217	180
65.0374	76
66.0456	41
67.0379	34
68.9773	228
74.014	48
75.0224	97
76.0298	76
77.0377	201
78.034	41
79.0407	48
80.0484	999
81.9864	34
85.0057	34
86.0146	48
87.022	69
88.0293	48
89.0375	194
90.0412	48
91.0399	34
92.0498	27
92.9772	41
96.0001	55
97.0083	55
98.0147	34
101.0369	27
102.0448	55
113.0365	138
115.0544	76
122.0053	27
123.013	159
124.0204	41
125.0351	41
126.0451	83
127.0508	138
128.0596	62
129.0508	48
137.0361	76
138.0454	41
139.0516	339
140.0487	69
151.0541	48
171.0247	90
