Mass spectrum: Fluazifop-P-butyl; LC-ESI-QTOF; MS2; 130 V
Name: Fluazifop-P-butyl
Class: Herbicide
Formula: C19H20F3NO4
Exact mass: 383.1344
SMILES: CCCCOC(=O)C(C)OC1=CC=C(C=C1)OC2=NC=C(C=C2)C(F)(F)F
InChI: InChI=1S/C19H20F3NO4/c1-3-4-11-25-18(24)13(2)26-15-6-8-16(9-7-15)27-17-10-5-14(12-23-17)19(20,21)22/h5-10,12-13H,3-4,11H2,1-2H3
Instrument: TripleTOF 6600 SCIEX
Instrument type: LC-ESI-QTOF
Ms type: MS2
Ion mode: POSITIVE
Collision energy: 130
Fragmentation mode: CID
Ionization: ESI
Column name: Zorbax Eclipse Plus C18 2.1 mm x 150 mm, 3.5 um, Agilent
Retention time: 15.933 min
Precursor m/z: 384.1417
Precursor type: [M+H]+
m/z	relative intensity
30.9975	10
35.9995	48
37.0074	215
38.003	24
38.0147	197
39.023	997
41.0387	186
43.0167	18
45.0331	10
49.0071	31
50.0147	221
51.0055	48
51.0229	421
52.0182	31
52.0299	16
53.0122	12
53.0391	22
55.0175	16
57.0136	55
59.9989	21
61.0066	79
62.0144	165
63.0224	467
64.0187	22
64.0305	43
65.0383	434
66.0455	21
68.9942	349
69.011	10
70.0211	102
73.0072	49
74.0143	321
75.0045	999
75.0202	203
76.0185	293
77.0384	529
78.0331	176
79.0403	12
80.0054	22
81.0132	55
81.0323	40
82.0097	10
83.0276	52
83.9983	13
85.0062	21
86.0136	64
87.0216	136
88.0155	24
88.0293	151
89.0178	13
89.0375	102
90.0399	34
91.0406	22
91.0536	88
92.024	21
92.9928	19
93.0128	28
93.0331	18
94.041	16
95.011	10
96.0227	40
97.0064	10
97.0312	36
98.0141	57
99.0039	305
100.0124	201
101.0193	67
101.0376	55
102.0448	133
103.0533	102
104.0502	15
105.0116	13
105.0307	10
106.0072	13
106.0213	22
107.0139	22
107.0276	85
108.0245	13
110.0135	12
110.0361	12
111.0217	21
112.0139	15
112.03	10
113.0191	30
113.0374	371
114.0446	207
115.039	21
115.0518	46
116.0274	13
116.0481	15
117.0125	54
119.0107	90
119.0324	12
120.0203	39
120.0392	21
122.0146	96
123.022	142
124.0174	46
125.0183	37
126.0137	334
126.0461	13
127.0216	76
128.0282	10
128.0491	85
129.053	52
130.0645	22
131.0281	84
131.0471	63
132.0205	22
132.0363	54
133.0424	99
134.0384	16
135.0473	15
137.0185	25
138.0281	28
139.0404	34
139.0514	34
140.0482	324
141.0271	10
141.0556	117
143.0268	49
144.0354	21
145.0285	18
146.0197	162
147.0272	31
148.0531	12
149.0194	16
149.0426	12
150.0302	24
151.0342	203
152.0318	18
156.0425	12
157.0492	16
158.0375	87
159.0463	37
161.0203	18
162.0261	64
163.0332	31
164.0339	36
168.025	18
168.0402	24
169.0318	37
170.0369	30
172.0371	13
176.0287	15
177.038	34
178.0409	13
182.0306	24
183.0284	13
184.0373	13
185.0454	15
188.0282	16
189.036	27
190.044	40
198.0554	10
208.0347	30
209.0469	15
