Mass spectrum: Sudan I; LC-ESI-QTOF; MS2; 140 V
Name: Sudan I
Formula: C16H12N2O
Exact mass: 248.095
SMILES: C1=CC=C(C=C1)N=NC2=C(C=CC3=CC=CC=C32)O
InChI: InChI=1S/C16H12N2O/c19-15-11-10-12-6-4-5-9-14(12)16(15)18-17-13-7-2-1-3-8-13/h1-11,19H
Instrument: TripleTOF 6600 SCIEX
Instrument type: LC-ESI-QTOF
Ms type: MS2
Ion mode: POSITIVE
Collision energy: 140
Fragmentation mode: CID
Ionization: ESI
Column name: Zorbax Eclipse Plus C18 2.1 mm x 150 mm, 3.5 um, Agilent
Retention time: 15.674 min
Precursor m/z: 249.1023
Precursor type: [M+H]+
m/z	relative intensity
35.9999	20
37.0076	125
38.0153	94
39.0233	315
41.026	27
42.0347	13
49.0073	66
50.0151	389
51.0231	291
52.0182	56
54.0341	18
61.0068	27
62.0158	29
63.023	32
65.0386	172
66.0344	22
66.0461	39
73.0067	196
74.0149	999
75.0099	47
75.0226	150
76.0182	42
77.0388	10
78.034	12
86.0158	12
92.0494	12
98.0152	54
99.0113	11
