Mass spectrum: Dimethenamid-OA; LC-ESI-QTOF; MS2; 40 V
Name: Dimethenamid-OA
Class: Transformation_product; Herbicide
Formula: C12H17NO4S
Exact mass: 271.0878
InChI: InChI=1S/C12H17NO4S/c1-7-6-18-9(3)10(7)13(8(2)5-17-4)11(14)12(15)16/h6,8H,5H2,1-4H3,(H,15,16)
Instrument: TripleTOF 6600 SCIEX
Instrument type: LC-ESI-QTOF
Ms type: CID
Ion mode: NEGATIVE
Collision energy: 40
Ionization: ESI
Column name: Zorbax Eclipse Plus C18 2.1 mm x 150 mm, 3.5 um, Agilent
Retention time: 8.208 min
Precursor m/z: 270.0805
Precursor type: [M-H]-
m/z	relative intensity
31.0182	159
32.98	159
56.9789	79
66.0338	79
70.9952	199
73.0103	79
81.9764	79
83.9912	159
97.0107	239
98.0062	919
111.0288	119
122.0064	159
124.0216	279
124.0349	119
125.0287	119
136.0244	159
137.0282	79
139.0602	79
148.023	279
150.0376	519
151.0442	119
152.053	399
164.0537	159
166.0691	999
198.094	439
