Mass spectrum: Rhein; LC-ESI-QTOF; MS2; 60 V
Name: Rhein
Class: Metabolite
Formula: C15H8O6
Exact mass: 284.0321
SMILES: C1=CC2=C(C(=C1)O)C(=O)C3=C(C=C(C=C3C2=O)C(=O)O)O
InChI: InChI=1S/C15H8O6/c16-9-3-1-2-7-11(9)14(19)12-8(13(7)18)4-6(15(20)21)5-10(12)17/h1-5,16-17H,(H,20,21)
Instrument: TripleTOF 5600 SCIEX
Instrument type: LC-ESI-QTOF
Ms type: MS2
Ion mode: NEGATIVE
Collision energy: 60
Fragmentation mode: CID
Ionization: ESI
Column name: Zorbax Eclipse Plus C18 2.1 mm x 150 mm, 3.5 um, Agilent
Retention time: 10.796 min
Precursor m/z: 283.0248
Precursor type: [M-H]-
m/z	relative intensity
91.0184	112
137.0402	178
139.0558	65
154.0432	242
155.0507	102
165.0355	178
167.0503	71
182.0379	464
183.0461	999
210.0319	71
211.0415	176
