Mass spectrum: Dextrorphan; LC-ESI-QTOF; MS2; 140 V
Name: Dextrorphan
Class: Pharmaceutical; Metabolite
Formula: C17H23NO
Exact mass: 257.178
SMILES: CN1CC[C@@]23CCCC[C@@H]2[C@@H]1CC4=C3C=C(C=C4)O
InChI: InChI=1S/C17H23NO/c1-18-9-8-17-7-3-2-4-14(17)16(18)10-12-5-6-13(19)11-15(12)17/h5-6,11,14,16,19H,2-4,7-10H2,1H3/t14-,16+,17+/m1/s1
Instrument: TripleTOF 5600 SCIEX
Instrument type: LC-ESI-QTOF
Ms type: MS2
Ion mode: POSITIVE
Collision energy: 140
Fragmentation mode: CID
Ionization: ESI
Column name: Zorbax Eclipse Plus C18 2.1 mm x 150 mm, 3.5 um, Agilent
Retention time: 5.969 min
Precursor m/z: 258.1852
Precursor type: [M+H]+
m/z	relative intensity
44.0571	134
65.0423	155
73.0115	38
74.0186	342
75.0262	279
76.0342	231
77.0426	999
78.0489	190
85.009	17
86.017	96
87.0253	93
88.0328	24
89.0409	407
91.0559	41
98.0153	89
99.0248	34
101.04	72
102.0481	456
103.0546	55
113.0403	58
114.0468	20
115.0546	400
125.0384	31
126.0476	217
127.0546	266
128.0629	269
137.0391	17
139.0554	107
150.0478	58
151.0543	55
152.0617	58
155.0565	17
163.0538	44
164.062	24
165.0719	24
176.0637	13
