Mass spectrum: Flufenacet ESA; LC-ESI-QTOF; MS2; 60 V
Name: Flufenacet ESA
Class: Herbicide; Transformation_product
Formula: C11H14FNO4S
Exact mass: 275.0628
SMILES: CC(C)N(C1=CC=C(C=C1)F)C(=O)CS(=O)(=O)O
InChI: InChI=1S/C11H14FNO4S/c1-8(2)13(11(14)7-18(15,16)17)10-5-3-9(12)4-6-10/h3-6,8H,7H2,1-2H3,(H,15,16,17)
Instrument: TripleTOF 6600 SCIEX
Instrument type: LC-ESI-QTOF
Ms type: MS2
Ion mode: POSITIVE
Collision energy: 60
Fragmentation mode: CID
Ionization: ESI
Column name: Zorbax Eclipse Plus C18 2.1 mm x 150 mm, 3.5 um, Agilent
Retention time: 6.781 min
Precursor m/z: 276.07
Precursor type: [M+H]+
m/z	relative intensity
31.0176	20
39.0235	14
41.0387	34
43.0536	18
51.0227	14
57.0126	12
59.0127	117
64.9678	12
65.0384	158
74.0148	85
75.0228	320
77.0384	139
80.9636	14
83.029	127
84.0367	18
85.0448	24
89.0374	12
92.0493	494
95.0291	999
96.0364	131
97.0445	212
104.0492	30
107.0287	38
108.0371	42
109.0447	310
110.0403	56
111.0474	172
112.0554	838
113.0405	10
122.039	16
123.0349	364
124.0553	380
134.0399	32
135.0478	482
136.055	10
152.0517	18
