Mass spectrum: Candesartan; LC-ESI-QTOF; MS2; 110 V
Name: Candesartan
Class: Pharmaceutical
Formula: C24H20N6O3
Exact mass: 440.1597
SMILES: CCOc1nc2cccc(C(O)=O)c2n1Cc3ccc(cc3)c4ccccc4c5n[nH]nn5
InChI: InChI=1S/C24H20N6O3/c1-2-33-24-25-20-9-5-8-19(23(31)32)21(20)30(24)14-15-10-12-16(13-11-15)17-6-3-4-7-18(17)22-26-28-29-27-22/h3-13H,2,14H2,1H3,(H,31,32)(H,26,27,28,29)
Instrument: TripleTOF 5600 SCIEX
Instrument type: LC-ESI-QTOF
Ms type: MS2
Ion mode: POSITIVE
Collision energy: 110
Fragmentation mode: CID
Ionization: ESI
Column name: Zorbax Eclipse Plus C18 2.1 mm x 150 mm, 3.5 um, Agilent
Retention time: 10.001 min
Precursor m/z: 441.167
Precursor type: [M+H]+
m/z	relative intensity
51.0289	26
65.0429	13
75.0261	16
77.0409	102
78.036	34
78.0498	10
80.0514	12
89.0399	37
90.0349	34
91.0556	12
101.0387	13
102.0334	17
102.0463	15
105.0445	142
113.0385	35
114.0356	10
114.0453	16
115.0537	105
116.0488	13
125.0383	25
126.0463	33
127.0531	122
128.0486	14
128.0609	52
133.0392	27
137.0383	20
138.0454	46
139.0536	151
140.0493	152
141.0611	22
149.0394	13
150.0458	187
151.0541	650
152.0617	999
153.0673	114
154.0654	20
161.0351	26
162.0453	49
163.054	442
164.0569	472
165.0691	566
166.0647	61
167.0731	23
168.0677	11
175.0483	22
176.0611	318
177.0605	381
178.0673	392
179.0721	106
180.0793	61
188.0486	67
189.0578	111
190.065	667
191.0696	136
192.0734	98
193.0867	11
203.0641	11
204.0693	15
205.0757	369
206.0833	17
214.0682	10
216.0796	24
217.0774	14
218.0823	38
224.0619	12
226.0766	17
231.0915	11
238.0658	18
239.0821	13
240.0834	17
251.0725	24
252.0775	15
253.0863	24
264.0803	21
265.0761	30
266.0845	31
278.0849	13
279.0913	27
291.078	14
292.0893	9
293.0945	13
