Mass spectrum: 1-Cyclohexyl-3-(2-methylphenyl)urea; LC-ESI-QTOF; MS2; 60 V
Name: 1-Cyclohexyl-3-(2-methylphenyl)urea
Formula: C14H20N2O
Exact mass: 232.1576
SMILES: O=C(NC1CCCCC1)Nc2ccccc2C
InChI: InChI=1S/C14H20N2O/c1-11-7-5-6-10-13(11)16-14(17)15-12-8-3-2-4-9-12/h5-7,10,12H,2-4,8-9H2,1H3,(H2,15,16,17)
Instrument: TripleTOF 6600 SCIEX
Instrument type: LC-ESI-QTOF
Ms type: MS2
Ion mode: POSITIVE
Collision energy: 60
Fragmentation mode: CID
Ionization: ESI
Column name: Zorbax Eclipse Plus C18 2.1 mm x 150 mm, 3.5 um, Agilent
Retention time: 11.026 min
Precursor m/z: 233.1649
Precursor type: [M+H]+
m/z	relative intensity
39.0224	25
41.0382	15
55.0537	152
65.0379	126
66.0455	61
91.0534	302
92.0483	21
93.0566	999
106.0636	23
108.0795	48
