Mass spectrum: Propiconazole; LC-ESI-QTOF; MS2; 40 V
Name: Propiconazole
Class: Fungicide; Biocide
Formula: C15H17Cl2N3O2
Exact mass: 341.0698
SMILES: CCCC1COC(Cn2cncn2)(O1)c3ccc(Cl)cc3Cl
InChI: InChI=1S/C15H17Cl2N3O2/c1-2-3-12-7-21-15(22-12,8-20-10-18-9-19-20)13-5-4-11(16)6-14(13)17/h4-6,9-10,12H,2-3,7-8H2,1H3
Instrument: TripleTOF 5600 SCIEX
Instrument type: LC-ESI-QTOF
Ms type: MS2
Ion mode: POSITIVE
Collision energy: 40
Fragmentation mode: CID
Ionization: ESI
Column name: Zorbax Eclipse Plus C18 2.1 mm x 150 mm, 3.5 um, Agilent
Retention time: 13.45 min
Precursor m/z: 342.0771
Precursor type: [M+H]+
m/z	relative intensity
69.0744	169
70.043	28
89.0388	10
122.9993	38
124.0058	17
144.9599	10
158.9761	999
172.9549	103
186.9704	70
190.9653	39
204.9808	39
259.0281	24
342.0774	128
