Mass spectrum: Olmesartan; LC-ESI-QTOF; MS2; 10 V
Name: Olmesartan
Class: Pharmaceutical
Formula: C24H26N6O3
Exact mass: 446.2066
InChI: InChI=1S/C24H26N6O3/c1-4-7-19-25-21(24(2,3)33)20(23(31)32)30(19)14-15-10-12-16(13-11-15)17-8-5-6-9-18(17)22-26-28-29-27-22/h5-6,8-13,33H,4,7,14H2,1-3H3,(H,31,32)(H,26,27,28,29)
Instrument: TripleTOF 5600 SCIEX
Instrument type: LC-ESI-QTOF
Ms type: CID
Ion mode: NEGATIVE
Collision energy: 10
Ionization: ESI
Column name: Zorbax Eclipse Plus C18 2.1 mm x 150 mm, 3.5 um, Agilent
Retention time: 7.356 min
Precursor m/z: 445.1994
Precursor type: [M-H]-
m/z	relative intensity
445.1982	999
445.2285	52
