Mass spectrum: Thieno[3,2-b]pyridin-7-ol; LC-ESI-QTOF; MS2; 110 V
Name: Thieno[3,2-b]pyridin-7-ol
Formula: C7H5NOS
Exact mass: 151.0092
SMILES: C1=CNC2=C(C1=O)SC=C2
InChI: InChI=1S/C7H5NOS/c9-6-1-3-8-5-2-4-10-7(5)6/h1-4H,(H,8,9)
Instrument: TripleTOF 6600 SCIEX
Instrument type: LC-ESI-QTOF
Ms type: MS2
Ion mode: POSITIVE
Collision energy: 110
Fragmentation mode: CID
Ionization: ESI
Column name: Zorbax Eclipse Plus C18 2.1 mm x 150 mm, 3.5 um, Agilent
Retention time: 4.72 min
Precursor m/z: 152.0165
Precursor type: [M+H]+
m/z	relative intensity
31.9714	34
35.9993	194
37.0079	974
38.003	94
38.0158	574
39.0235	499
40.0181	69
41.0256	19
43.9715	159
44.0137	19
44.9796	999
45.9742	44
49.0071	139
50.0154	199
51.0102	49
51.023	49
52.0184	114
53.002	144
56.9785	119
57.9872	29
59.999	29
61.0069	189
62.0158	274
63.0225	99
67.9714	129
68.9803	534
75.0097	134
76.0195	24
80.9787	39
