Mass spectrum: Diaveridine; LC-ESI-QTOF; MS2; 40 V
Name: Diaveridine
Class: Pharmaceutical
Formula: C13H16N4O2
Exact mass: 260.1273
SMILES: COC1=C(C=C(C=C1)CC2=CN=C(N=C2N)N)OC
InChI: InChI=1S/C13H16N4O2/c1-18-10-4-3-8(6-11(10)19-2)5-9-7-16-13(15)17-12(9)14/h3-4,6-7H,5H2,1-2H3,(H4,14,15,16,17)
Instrument: TripleTOF 5600 SCIEX
Instrument type: LC-ESI-QTOF
Ms type: MS2
Ion mode: POSITIVE
Collision energy: 40
Fragmentation mode: CID
Ionization: ESI
Column name: Zorbax Eclipse Plus C18 2.1 mm x 150 mm, 3.5 um, Agilent
Retention time: 4.966 min
Precursor m/z: 261.1346
Precursor type: [M+H]+
m/z	relative intensity
54.0427	15
77.0438	15
81.0501	199
103.0575	14
106.0427	29
107.0516	73
110.0615	69
111.0691	23
123.0685	580
124.0764	13
128.0503	14
130.066	22
131.0504	28
135.0447	38
140.0516	13
145.0758	14
151.0748	18
155.0612	11
156.0435	14
158.0616	49
161.0806	12
170.0693	16
171.0699	17
172.0845	29
173.0743	38
175.0921	12
182.0724	13
183.0563	11
185.0831	15
187.0969	89
188.1054	15
198.0659	11
199.0793	9
199.0975	11
200.0836	29
200.1075	16
203.0933	48
215.093	61
216.1009	55
217.1085	185
228.0789	11
229.1072	17
243.0874	97
245.1028	999
246.1098	98
261.136	243
