Mass spectrum: 2,3,4-Trihydroxybenzophenone; LC-ESI-QTOF; MS2; 40 V
Name: 2,3,4-Trihydroxybenzophenone
Class: Industrial_process
Formula: C13H10O4
Exact mass: 230.0579
SMILES: Oc1ccc(c(O)c1O)C(=O)c2ccccc2
InChI: InChI=1S/C13H10O4/c14-10-7-6-9(12(16)13(10)17)11(15)8-4-2-1-3-5-8/h1-7,14,16-17H
Instrument: TripleTOF 5600 SCIEX
Instrument type: LC-ESI-QTOF
Ms type: MS2
Ion mode: NEGATIVE
Collision energy: 40
Fragmentation mode: CID
Ionization: ESI
Column name: Zorbax Eclipse Plus C18 2.1 mm x 150 mm, 3.5 um, Agilent
Retention time: 9.396 min
Precursor m/z: 229.0506
Precursor type: [M-H]-
m/z	relative intensity
51.0257	57
95.0143	130
101.0376	115
107.0135	217
123.0078	434
124.0152	188
129.0722	86
141.0688	130
143.0529	57
145.0677	57
151.003	304
155.0492	72
157.0654	72
185.0613	57
229.0507	999
230.0538	144
