Mass spectrum: Epoxiconazole; LC-ESI-QTOF; MS2; 80 V
Name: Epoxiconazole
Class: Fungicide
Formula: C17H13ClFN3O
Exact mass: 329.0731
SMILES: C1=CC=C(C(=C1)[C@H]2[C@@](O2)(CN3C=NC=N3)C4=CC=C(C=C4)F)Cl
InChI: InChI=1S/C17H13ClFN3O/c18-15-4-2-1-3-14(15)16-17(23-16,9-22-11-20-10-21-22)12-5-7-13(19)8-6-12/h1-8,10-11,16H,9H2/t16-,17+/m0/s1
Instrument: TripleTOF 5600 SCIEX
Instrument type: LC-ESI-QTOF
Ms type: MS2
Ion mode: POSITIVE
Collision energy: 80
Fragmentation mode: CID
Ionization: ESI
Column name: Zorbax Eclipse Plus C18 2.1 mm x 150 mm, 3.5 um, Agilent
Retention time: 12.465 min
Precursor m/z: 330.0804
Precursor type: [M+H]+
m/z	relative intensity
51.0305	32
70.0442	132
73.0106	23
74.0182	200
75.0261	849
77.0416	68
95.0301	659
101.0388	999
109.0443	11
110.9991	23
120.0364	17
121.0444	514
123.03	176
129.0441	335
176.0606	10
183.0596	11
196.0675	22
