Mass spectrum: Disperse brown 1; LC-ESI-QTOF; MS2; 140 V
Name: Disperse brown 1
Formula: C16H15Cl3N4O4
Exact mass: 432.0159
SMILES: C1=CC(=C(C=C1N(CCO)CCO)Cl)N=NC2=C(C=C(C=C2Cl)[N+](=O)[O-])Cl
InChI: InChI=1S/C16H15Cl3N4O4/c17-12-7-10(22(3-5-24)4-6-25)1-2-15(12)20-21-16-13(18)8-11(23(26)27)9-14(16)19/h1-2,7-9,24-25H,3-6H2
Instrument: TripleTOF 6600 SCIEX
Instrument type: LC-ESI-QTOF
Ms type: MS2
Ion mode: POSITIVE
Collision energy: 140
Fragmentation mode: CID
Ionization: ESI
Column name: Zorbax Eclipse Plus C18 2.1 mm x 150 mm, 3.5 um, Agilent
Retention time: 12.39 min
Precursor m/z: 433.0232
Precursor type: [M+H]+
m/z	relative intensity
51.0237	157
62.0154	87
63.023	192
65.0379	105
72.984	157
73.0081	87
74.0148	999
75.0106	105
75.022	455
76.0184	280
77.0382	210
78.0346	105
83.9764	175
89.0398	210
90.034	210
91.0432	122
92.0478	87
98.9985	105
102.0345	70
104.0493	175
107.9764	438
108.9819	490
111.0005	70
117.0571	157
149.0365	105
150.0448	122
