Mass spectrum: Azoxystrobin; LC-ESI-QTOF; MS2; 40 V
Name: Azoxystrobin
Class: Fungicide
Formula: C22H17N3O5
Exact mass: 403.1168
SMILES: COC=C(C1=CC=CC=C1OC2=NC=NC(=C2)OC3=CC=CC=C3C#N)C(=O)OC
InChI: InChI=1S/C22H17N3O5/c1-27-13-17(22(26)28-2)16-8-4-6-10-19(16)30-21-11-20(24-14-25-21)29-18-9-5-3-7-15(18)12-23/h3-11,13-14H,1-2H3
Instrument: TripleTOF 6600 SCIEX
Instrument type: LC-ESI-QTOF
Ms type: MS2
Ion mode: POSITIVE
Collision energy: 40
Fragmentation mode: CID
Ionization: ESI
Column name: Zorbax Eclipse Plus C18 2.1 mm x 150 mm, 3.5 um, Agilent
Retention time: 12.114 min
Precursor m/z: 404.1241
Precursor type: [M+H]+
m/z	relative intensity
134.0585	25
143.0586	15
156.0433	12
169.0378	13
172.0379	25
183.0544	41
201.0422	25
201.0622	15
210.0416	26
210.0621	11
216.0648	44
272.0807	17
273.0879	20
287.0811	16
300.0761	17
301.085	79
315.0985	11
316.1081	40
328.0726	63
329.081	999
344.1041	592
372.0985	105
