Mass spectrum: Diflufenican; LC-ESI-QTOF; MS2; 70 V
Name: Diflufenican
Class: Herbicide
Formula: C19H11F5N2O2
Exact mass: 394.0741
SMILES: C1=CC(=CC(=C1)OC2=C(C=CC=N2)C(=O)NC3=C(C=C(C=C3)F)F)C(F)(F)F
InChI: InChI=1S/C19H11F5N2O2/c20-12-6-7-16(15(21)10-12)26-17(27)14-5-2-8-25-18(14)28-13-4-1-3-11(9-13)19(22,23)24/h1-10H,(H,26,27)
Instrument: TripleTOF 6600 SCIEX
Instrument type: LC-ESI-QTOF
Ms type: MS2
Ion mode: POSITIVE
Collision energy: 70
Fragmentation mode: CID
Ionization: ESI
Column name: Zorbax Eclipse Plus C18 2.1 mm x 150 mm, 3.5 um, Agilent
Retention time: 14.853 min
Precursor m/z: 395.0814
Precursor type: [M+H]+
m/z	relative intensity
39.0233	31
51.0221	17
63.0219	14
75.0226	17
78.0337	168
94.0293	23
95.0291	49
113.0212	14
113.0377	14
114.0467	60
115.0537	23
122.0223	43
123.0251	20
124.0177	14
125.0188	29
128.0321	14
129.0346	26
131.0296	20
133.0444	127
134.0394	17
138.0334	26
140.0495	206
141.057	211
142.0432	20
143.0302	81
145.0255	299
145.0477	17
146.0389	14
150.0327	46
151.0337	46
152.0319	11
153.0572	26
157.0296	20
158.0396	217
159.0381	23
163.0351	165
164.0409	92
165.0416	87
168.0437	92
169.0519	412
170.0403	153
171.0459	66
172.0367	31
172.0557	52
173.0301	26
175.0381	14
176.0299	40
177.0372	17
178.0427	34
182.0339	78
183.0416	627
184.0388	75
185.0502	66
186.0323	20
186.0532	17
188.0312	20
188.0494	20
189.0383	63
190.0457	499
191.0397	92
191.0589	14
195.0392	29
196.0362	55
197.0468	17
198.0345	92
200.0497	17
202.0455	14
203.0322	11
204.0487	66
205.0564	26
208.037	26
209.0427	14
210.0515	119
213.046	20
214.0513	43
215.0422	23
218.0408	999
219.0478	31
222.0516	14
232.0484	23
233.0508	40
236.0286	17
238.0466	409
246.0356	348
259.0594	20
266.0418	191
