Mass spectrum: Diphenylphosphinamide; LC-ESI-QTOF; MS2; 70 V
Name: Diphenylphosphinamide
Formula: C12H12NOP
Exact mass: 217.0657
SMILES: C1=CC=C(C=C1)P(=O)(C2=CC=CC=C2)N
InChI: InChI=1S/C12H12NOP/c13-15(14,11-7-3-1-4-8-11)12-9-5-2-6-10-12/h1-10H,(H2,13,14)
Instrument: TripleTOF 5600 SCIEX
Instrument type: LC-ESI-QTOF
Ms type: MS2
Ion mode: POSITIVE
Collision energy: 70
Fragmentation mode: CID
Ionization: ESI
Column name: Zorbax Eclipse Plus C18 2.1 mm x 150 mm, 3.5 um, Agilent
Retention time: 7.411 min
Precursor m/z: 218.0729
Precursor type: [M+H]+
m/z	relative intensity
46.9686	17
49.0082	23
50.0152	134
51.0235	672
67.9819	12
68.9889	96
77.0392	999
78.0469	10
89.0386	14
95.004	69
102.0466	19
107.0047	68
115.0538	55
126.0484	17
127.0554	43
128.0626	116
133.0217	39
139.0558	32
141.0665	17
144.0127	14
145.0189	14
151.0544	44
152.0631	186
153.07	46
157.0205	26
170.0281	77
171.0386	12
181.0193	14
183.0351	12
