Mass spectrum: N-Desmethyltramadol; LC-ESI-QTOF; MS2; 110 V
Name: N-Desmethyltramadol
Class: Transformation_product; Metabolite
Formula: C15H23NO2
Exact mass: 249.1729
SMILES: CNCC1CCCCC1(C2=CC(=CC=C2)OC)O
InChI: InChI=1S/C15H23NO2/c1-16-11-13-6-3-4-9-15(13,17)12-7-5-8-14(10-12)18-2/h5,7-8,10,13,16-17H,3-4,6,9,11H2,1-2H3
Instrument: TripleTOF 6600 SCIEX
Instrument type: LC-ESI-QTOF
Ms type: MS2
Ion mode: POSITIVE
Collision energy: 110
Fragmentation mode: CID
Ionization: ESI
Column name: Zorbax Eclipse Plus C18 2.1 mm x 150 mm, 3.5 um, Agilent
Retention time: 6.246 min
Precursor m/z: 250.1802
Precursor type: [M+H]+
m/z	relative intensity
30.0334	13
37.0074	10
38.0153	16
39.0227	54
42.0339	137
43.0417	35
44.05	999
49.0071	11
50.0151	63
51.0229	99
52.0307	21
61.007	16
62.0149	35
63.0227	115
64.0308	17
65.0384	41
77.0383	61
78.0461	28
89.0384	30
91.054	17
102.0465	14
115.054	48
127.0545	13
128.0633	18
