Mass spectrum: 3-Methylxanthine; LC-ESI-QTOF; MS2; 30 V
Name: 3-Methylxanthine
Class: Pharmaceutical
Formula: C6H6N4O2
Exact mass: 166.0491
SMILES: CN1C(=O)NC(=O)c2[nH]cnc12
InChI: InChI=1S/C6H6N4O2/c1-10-4-3(7-2-8-4)5(11)9-6(10)12/h2H,1H3,(H,7,8)(H,9,11,12)
Instrument: TripleTOF 5600 SCIEX
Instrument type: LC-ESI-QTOF
Ms type: MS2
Ion mode: POSITIVE
Collision energy: 30
Fragmentation mode: CID
Ionization: ESI
Column name: Zorbax Eclipse Plus C18 2.1 mm x 150 mm, 3.5 um, Agilent
Retention time: 4.502 min
Precursor m/z: 167.0564
Precursor type: [M+H]+
m/z	relative intensity
55.0329	24
67.0339	19
69.0478	235
81.0102	34
94.0406	205
96.0563	460
99.0189	53
108.043	48
109.0266	19
121.0511	102
123.0655	122
124.0502	999
126.028	29
149.0457	514
167.056	391
