Mass spectrum: 1-Palmitoyl-2-glutaryl-sn-glycero-3-phosphocholine; LC-ESI-QTOF; MS2; 140 V
Name: 1-Palmitoyl-2-glutaryl-sn-glycero-3-phosphocholine
Formula: C29H56NO10P
Exact mass: 609.3642
SMILES: CCCCCCCCCCCCCCCC(=O)OCC(COP(=O)([O-])OCC[N+](C)(C)C)OC(=O)CCCC(=O)O
InChI: InChI=1S/C29H56NO10P/c1-5-6-7-8-9-10-11-12-13-14-15-16-17-20-28(33)37-24-26(40-29(34)21-18-19-27(31)32)25-39-41(35,36)38-23-22-30(2,3)4/h26H,5-25H2,1-4H3,(H-,31,32,35,36)
Instrument: TripleTOF 6600 SCIEX
Instrument type: LC-ESI-QTOF
Ms type: MS2
Ion mode: POSITIVE
Collision energy: 140
Fragmentation mode: CID
Ionization: ESI
Column name: Zorbax Eclipse Plus C18 2.1 mm x 150 mm, 3.5 um, Agilent
Retention time: 15.246 min
Precursor m/z: 610.3715
Precursor type: [M+H]+
m/z	relative intensity
41.0389	16
42.0346	32
43.0185	22
43.0424	19
44.0499	35
45.0344	182
45.0579	22
56.0502	237
58.0655	100
59.074	13
60.0814	104
62.9631	65
70.0657	58
71.0734	559
80.974	455
86.0969	393
87.0439	16
98.9844	999
104.107	58
125.0001	205
166.0628	16
