Mass spectrum: Nitenpyram; LC-ESI-QTOF; MS2; 30 V
Name: Nitenpyram
Class: Pharmaceutical; Insecticide
Formula: C11H15ClN4O2
Exact mass: 270.0884
SMILES: CCN(Cc1ccc(Cl)nc1)\C(NC)=C\[N+]([O-])=O
InChI: InChI=1S/C11H15ClN4O2/c1-3-15(11(13-2)8-16(17)18)7-9-4-5-10(12)14-6-9/h4-6,8,13H,3,7H2,1-2H3/b11-8+
Instrument: TripleTOF 5600 SCIEX
Instrument type: LC-ESI-QTOF
Ms type: MS2
Ion mode: POSITIVE
Collision energy: 30
Fragmentation mode: CID
Ionization: ESI
Column name: Zorbax Eclipse Plus C18 2.1 mm x 150 mm, 3.5 um, Agilent
Retention time: 5.386 min
Precursor m/z: 271.0956
Precursor type: [M+H]+
m/z	relative intensity
42.0453	16
56.0562	885
57.0631	16
58.0688	108
70.0708	28
71.031	19
71.0643	10
83.0616	21
85.0417	59
85.0797	37
85.0894	34
86.0858	142
90.0353	14
98.0725	52
99.0013	10
99.0558	19
99.0712	12
99.093	611
106.0652	14
111.0781	18
112.0873	46
114.103	21
115.0874	30
126.0108	380
127.0185	16
128.0253	41
129.0894	27
130.0983	21
133.076	12
139.0051	46
140.0132	10
141.023	39
146.0858	14
147.0897	16
152.0255	43
153.0278	59
154.0418	10
155.0382	16
159.0901	10
160.0883	79
161.0975	19
165.0233	25
166.0146	21
166.0287	68
167.038	75
169.0519	366
170.0606	18
176.1159	21
179.0378	66
180.0357	21
181.0514	97
188.1179	90
189.1246	64
190.1329	256
193.0514	41
194.0594	189
195.0681	169
196.0636	999
196.1078	10
208.0503	14
208.062	12
209.0579	63
210.0793	315
224.095	687
225.1015	156
237.0894	261
