Mass spectrum: Baclofen; LC-ESI-QTOF; MS2; 50 V
Name: Baclofen
Class: Pharmaceutical
Formula: C10H12ClNO2
Exact mass: 213.0557
SMILES: NCC(CC(O)=O)c1ccc(Cl)cc1
InChI: InChI=1S/C10H12ClNO2/c11-9-3-1-7(2-4-9)8(6-12)5-10(13)14/h1-4,8H,5-6,12H2,(H,13,14)
Instrument: TripleTOF 5600 SCIEX
Instrument type: LC-ESI-QTOF
Ms type: MS2
Ion mode: POSITIVE
Collision energy: 50
Fragmentation mode: CID
Ionization: ESI
Column name: Zorbax Eclipse Plus C18 2.1 mm x 150 mm, 3.5 um, Agilent
Retention time: 5.336 min
Precursor m/z: 214.0629
Precursor type: [M+H]+
m/z	relative intensity
65.0438	10
75.0248	10
77.0416	229
89.0403	54
91.0567	51
98.9998	10
101.0398	22
102.0465	45
115.0551	999
116.063	950
117.0596	10
118.0653	79
119.0733	65
125.0156	122
126.0466	16
137.0156	27
143.0729	41
144.0569	133
149.0151	26
151.0312	70
