Mass spectrum: Boscalid; LC-ESI-QTOF; MS2; 100 V
Name: Boscalid
Class: Fungicide
Formula: C18H12Cl2N2O
Exact mass: 342.0327
SMILES: C1=CC=C(C(=C1)C2=CC=C(C=C2)Cl)NC(=O)C3=C(N=CC=C3)Cl
InChI: InChI=1S/C18H12Cl2N2O/c19-13-9-7-12(8-10-13)14-4-1-2-6-16(14)22-18(23)15-5-3-11-21-17(15)20/h1-11H,(H,22,23)
Instrument: TripleTOF 6600 SCIEX
Instrument type: LC-ESI-QTOF
Ms type: MS2
Ion mode: POSITIVE
Collision energy: 100
Fragmentation mode: CID
Ionization: ESI
Column name: Zorbax Eclipse Plus C18 2.1 mm x 150 mm, 3.5 um, Agilent
Retention time: 12.31 min
Precursor m/z: 343.04
Precursor type: [M+H]+
m/z	relative intensity
49.0071	74
50.0152	277
51.0228	448
52.0182	42
61.9787	90
63.023	32
74.0141	37
75.0103	170
75.0217	21
76.018	999
77.0252	32
77.0396	26
78.0334	438
84.9834	128
99.0224	26
102.0461	32
111.9939	149
113.0385	69
114.0343	64
115.054	53
125.0375	42
126.0454	48
138.0338	32
139.0536	106
140.049	149
149.0375	64
150.0455	331
151.0403	26
151.0535	219
152.0618	186
163.053	170
164.0484	48
164.0612	48
165.0709	64
166.0519	37
166.0652	26
167.0693	37
168.0676	21
174.0464	80
175.0539	117
176.0513	176
177.0589	245
179.0632	26
187.0534	203
188.0481	85
188.0611	181
189.0693	325
190.0652	224
191.0733	37
197.0401	32
198.0451	90
199.0536	138
200.0619	320
201.0577	165
202.0671	106
203.0725	74
204.0561	26
204.0788	42
212.0482	64
213.058	90
214.0651	817
215.0719	320
216.0757	181
217.0843	42
224.0483	58
225.0567	277
226.0651	192
227.0703	181
228.0792	64
239.0581	53
240.0689	170
241.0757	379
242.0829	454
243.0915	58
250.0558	42
251.0635	64
252.0682	74
253.0748	32
270.0814	32
271.0882	37
