Mass spectrum: 3,4-Methylenedioxymethamphetamine; LC-ESI-QTOF; MS2; 150 V
Name: 3,4-Methylenedioxymethamphetamine
Class: Pharmaceutical
Formula: C11H15NO2
Exact mass: 193.1103
SMILES: CC(CC1=CC2=C(C=C1)OCO2)NC
InChI: InChI=1S/C11H15NO2/c1-8(12-2)5-9-3-4-10-11(6-9)14-7-13-10/h3-4,6,8,12H,5,7H2,1-2H3
Instrument: TripleTOF 6600 SCIEX
Instrument type: LC-ESI-QTOF
Ms type: MS2
Ion mode: POSITIVE
Collision energy: 150
Fragmentation mode: CID
Ionization: ESI
Column name: Zorbax Eclipse Plus C18 2.1 mm x 150 mm, 3.5 um, Agilent
Retention time: 5.421 min
Precursor m/z: 194.1176
Precursor type: [M+H]+
m/z	relative intensity
35.9992	81
37.0069	341
38.0023	34
38.0149	167
39.0224	151
42.0342	19
49.0067	376
50.0148	999
51.0224	242
53.0025	19
59.999	70
61.0066	276
62.0143	216
63.0222	70
73.0064	50
74.0142	91
