Mass spectrum: Foramsulfuron; LC-ESI-QTOF; MS2; 80 V
Name: Foramsulfuron
Class: Herbicide
Formula: C17H20N6O7S
Exact mass: 452.1114
SMILES: CN(C)C(=O)C1=C(C=C(C=C1)NC=O)S(=O)(=O)NC(=O)NC2=NC(=CC(=N2)OC)OC
InChI: InChI=1S/C17H20N6O7S/c1-23(2)15(25)11-6-5-10(18-9-24)7-12(11)31(27,28)22-17(26)21-16-19-13(29-3)8-14(20-16)30-4/h5-9H,1-4H3,(H,18,24)(H2,19,20,21,22,26)
Instrument: TripleTOF 6600 SCIEX
Instrument type: LC-ESI-QTOF
Ms type: MS2
Ion mode: POSITIVE
Collision energy: 80
Fragmentation mode: CID
Ionization: ESI
Column name: Zorbax Eclipse Plus C18 2.1 mm x 150 mm, 3.5 um, Agilent
Retention time: 8.823 min
Precursor m/z: 453.1187
Precursor type: [M+H]+
m/z	relative intensity
44.0604	14
45.044	15
56.024	20
57.055	14
63.0339	12
65.0487	76
68.024	20
69.0072	57
71.0701	78
79.0633	10
80.0591	45
81.0545	30
82.0383	68
83.0338	999
90.0429	32
91.063	14
92.059	140
93.0175	133
93.0417	13
94.0738	23
100.0485	63
105.0534	125
106.037	13
106.0739	26
107.0693	36
109.0484	57
117.0529	36
120.0521	106
121.037	68
124.0591	20
135.0623	29
136.0474	34
138.0368	16
139.0576	790
140.0529	14
148.0464	42
156.083	30
161.0403	27
162.0233	19
166.03	19
167.0371	10
182.0598	220
212.0038	19
