Mass spectrum: Linezolid; LC-ESI-QTOF; MS2; 130 V
Name: Linezolid
Class: Pharmaceutical
Formula: C16H20FN3O4
Exact mass: 337.1438
SMILES: CC(=O)NCC1CN(C(=O)O1)C2=CC(=C(C=C2)N3CCOCC3)F
InChI: InChI=1S/C16H20FN3O4/c1-11(21)18-9-13-10-20(16(22)24-13)12-2-3-15(14(17)8-12)19-4-6-23-7-5-19/h2-3,8,13H,4-7,9-10H2,1H3,(H,18,21)
Instrument: TripleTOF 5600 SCIEX
Instrument type: LC-ESI-QTOF
Ms type: MS2
Ion mode: POSITIVE
Collision energy: 130
Fragmentation mode: CID
Ionization: ESI
Column name: Zorbax Eclipse Plus C18 2.1 mm x 150 mm, 3.5 um, Agilent
Retention time: 6.936 min
Precursor m/z: 338.1511
Precursor type: [M+H]+
m/z	relative intensity
39.0233	27
43.0179	55
45.0338	27
50.0166	69
51.0235	160
56.0506	125
57.0145	146
61.007	55
62.0168	97
63.0238	279
64.0207	34
64.0293	34
65.0405	41
70.0217	34
74.0155	342
75.0239	761
76.0195	97
76.0304	34
77.0393	300
78.0344	76
81.014	251
82.0227	118
83.0297	363
84.0382	34
88.0306	76
89.0394	419
90.046	76
91.0539	48
92.0499	27
94.0212	90
95.0295	370
96.0383	104
97.0338	27
98.0159	27
98.0396	34
99.0231	83
100.0178	62
101.0386	356
102.0411	104
104.051	41
107.0302	999
108.0233	34
108.0369	251
109.0465	377
110.0426	27
111.0494	48
113.0395	41
114.039	76
115.045	41
115.0557	83
116.049	69
117.0566	62
119.0347	34
120.0384	69
121.045	34
122.0405	146
123.0412	41
124.0583	41
126.0332	34
128.0504	125
129.0458	69
130.0669	41
133.0442	76
134.0435	62
135.0502	146
136.0555	69
140.05	41
141.0597	27
142.0668	27
144.04	34
146.0411	48
148.0571	251
159.0513	27
