Mass spectrum: Medroxyprogesterone; LC-ESI-QTOF; MS2; 30 V
Name: Medroxyprogesterone
Class: Pharmaceutical
Formula: C22H32O3
Exact mass: 344.2351
SMILES: CC1CC2C(CCC3(C2CCC3(C(=O)C)O)C)C4(C1=CC(=O)CC4)C
InChI: InChI=1S/C22H32O3/c1-13-11-16-17(20(3)8-5-15(24)12-19(13)20)6-9-21(4)18(16)7-10-22(21,25)14(2)23/h12-13,16-18,25H,5-11H2,1-4H3
Instrument: TripleTOF 6600 SCIEX
Instrument type: LC-ESI-QTOF
Ms type: MS2
Ion mode: POSITIVE
Collision energy: 30
Fragmentation mode: CID
Ionization: ESI
Column name: Zorbax Eclipse Plus C18 2.1 mm x 150 mm, 3.5 um, Agilent
Retention time: 12.524 min
Precursor m/z: 345.2424
Precursor type: [M+H]+
m/z	relative intensity
83.0493	17
93.0696	11
95.0854	18
97.065	318
105.0699	11
107.0855	13
119.0849	15
121.1004	12
123.0808	999
133.1011	17
137.0961	55
145.101	26
147.1171	21
157.101	12
159.1167	23
161.1326	24
163.112	20
171.1161	21
173.1327	36
175.1126	13
175.1475	23
177.1274	24
185.1321	18
187.112	10
187.1484	23
189.1276	20
191.1424	19
197.1328	20
199.1479	23
203.1433	17
211.148	14
213.1633	13
214.1341	11
215.1428	24
225.1646	17
227.1792	22
239.1432	17
251.1804	12
257.1542	54
267.2102	72
269.1891	18
275.1652	44
284.215	21
285.2219	73
309.2231	77
327.2322	94
345.2433	386
