Mass spectrum: Metolachlor OA; LC-ESI-QTOF; MS2; 100 V
Name: Metolachlor OA
Class: Herbicide
Formula: C15H21NO4
Exact mass: 279.1471
SMILES: CCC1=CC=CC(=C1N(C(C)COC)C(=O)C(=O)O)C
InChI: InChI=1S/C15H21NO4/c1-5-12-8-6-7-10(2)13(12)16(11(3)9-20-4)14(17)15(18)19/h6-8,11H,5,9H2,1-4H3,(H,18,19)
Instrument: TripleTOF 5600 SCIEX
Instrument type: LC-ESI-QTOF
Ms type: MS2
Ion mode: POSITIVE
Collision energy: 100
Fragmentation mode: CID
Ionization: ESI
Column name: Zorbax Eclipse Plus C18 2.1 mm x 150 mm, 3.5 um, Agilent
Retention time: 9.915 min
Precursor m/z: 280.1543
Precursor type: [M+H]+
m/z	relative intensity
45.042	156
65.0442	530
73.0717	187
77.0416	967
78.0492	218
89.0392	312
90.047	124
91.0552	999
103.0535	530
115.0523	343
117.0591	405
130.0643	936
144.078	218
