Mass spectrum: Phenylbutazone; LC-ESI-QTOF; MS2; 110 V
Name: Phenylbutazone
Class: Pharmaceutical
Formula: C19H20N2O2
Exact mass: 308.1525
SMILES: CCCCC1C(=O)N(N(C1=O)C2=CC=CC=C2)C3=CC=CC=C3
InChI: InChI=1S/C19H20N2O2/c1-2-3-14-17-18(22)20(15-10-6-4-7-11-15)21(19(17)23)16-12-8-5-9-13-16/h4-13,17H,2-3,14H2,1H3
Instrument: TripleTOF 5600 SCIEX
Instrument type: LC-ESI-QTOF
Ms type: MS2
Ion mode: POSITIVE
Collision energy: 110
Fragmentation mode: CID
Ionization: ESI
Column name: Zorbax Eclipse Plus C18 2.1 mm x 150 mm, 3.5 um, Agilent
Retention time: 13.103 min
Precursor m/z: 309.1598
Precursor type: [M+H]+
m/z	relative intensity
55.0284	30
64.0427	15
66.0537	50
75.03	20
77.0454	999
78.0403	25
78.0519	17
79.0603	20
89.0431	37
90.0511	17
91.0593	72
92.0541	91
93.0617	74
94.0456	11
94.0695	56
103.0577	10
104.0529	46
105.046	11
106.0685	17
115.0573	26
117.0598	28
118.0674	32
127.0546	13
128.051	15
130.0677	22
139.0554	25
140.0534	21
166.0671	13
167.0775	12
181.0757	22
