Mass spectrum: Isopyrazam; LC-ESI-QTOF; MS2; 130 V
Name: Isopyrazam
Class: Fungicide
Formula: C20H23F2N3O
Exact mass: 359.1809
SMILES: CC(C)C1C2CCC1C3=C2C=CC=C3NC(=O)C4=CN(N=C4C(F)F)C
InChI: InChI=1S/C20H23F2N3O/c1-10(2)16-12-7-8-13(16)17-11(12)5-4-6-15(17)23-20(26)14-9-25(3)24-18(14)19(21)22/h4-6,9-10,12-13,16,19H,7-8H2,1-3H3,(H,23,26)
Instrument: TripleTOF 6600 SCIEX
Instrument type: LC-ESI-QTOF
Ms type: MS2
Ion mode: POSITIVE
Collision energy: 130
Fragmentation mode: CID
Ionization: ESI
Column name: Zorbax Eclipse Plus C18 2.1 mm x 150 mm, 3.5 um, Agilent
Retention time: 14.619 min
Precursor m/z: 360.1882
Precursor type: [M+H]+
m/z	relative intensity
35.9992	24
37.0076	104
38.0152	116
39.0232	491
40.018	16
41.0389	209
42.0335	197
43.029	64
50.0148	153
51.0041	76
51.023	394
52.0183	40
52.0293	20
53.0023	44
53.0379	32
55.0548	20
57.0132	104
59.9998	28
61.0066	100
62.0149	189
63.0221	358
64.0179	16
65.0381	189
67.0165	24
67.0525	28
68.0093	32
69.0126	28
70.0076	20
70.994	16
73.0059	56
74.0148	330
75.0077	36
75.0224	475
76.019	48
76.0295	169
77.019	28
77.0378	849
77.9975	20
78.0338	44
78.0461	140
81.0117	32
82.0274	28
83.0281	44
84.0241	28
85.0065	56
86.0141	124
87.0219	197
88.0159	80
88.0293	128
89.0378	600
90.0333	16
90.0429	36
91.0527	108
95.0261	16
97.0066	16
98.0141	161
99.0084	28
99.0217	253
100.0178	84
100.0288	64
101.0377	217
102.0317	40
102.0461	374
103.0395	28
103.0523	56
104.0507	24
105.014	16
106.0209	36
107.0313	52
108.0346	16
109.039	48
110.0116	20
110.017	36
111.0225	36
112.018	24
112.0296	24
113.0371	382
114.0384	253
115.053	999
116.0488	52
117.0549	32
119.0262	32
120.0374	32
122.0128	24
123.0104	32
123.0265	16
124.0178	24
124.0278	48
125.0375	269
126.0452	483
127.053	588
128.0608	535
129.0429	92
130.0637	48
131.0284	52
131.0698	20
132.0267	44
133.0456	48
136.0235	16
137.0369	149
138.0383	197
139.052	680
140.0486	547
141.0438	24
141.0662	132
142.0493	20
142.0617	24
143.073	16
144.0392	24
149.0376	88
150.0446	491
151.0528	563
152.0589	584
153.0502	145
153.0594	96
154.0378	28
154.0635	145
155.0305	28
155.0584	104
157.0406	40
158.0356	32
159.0346	24
161.039	36
162.0434	100
163.0531	406
164.0512	527
165.063	273
166.0628	181
167.0712	136
168.0652	32
169.04	24
170.0535	16
174.0462	40
175.0413	56
175.0537	48
176.0585	209
177.0558	257
178.064	237
179.0586	225
180.0542	40
180.0783	32
181.0717	20
187.0523	60
188.0498	84
189.0585	209
190.0619	265
191.0662	229
192.0703	116
193.0667	56
200.0571	36
201.0571	72
202.0654	116
203.066	140
204.0576	40
204.0751	56
204.0858	16
205.077	68
206.0667	32
206.0833	20
214.06	40
215.0663	80
216.0678	40
216.084	36
217.0827	28
229.0678	20
230.0717	16
244.0795	20
245.0923	16
