Mass spectrum: Pentoxifylline; LC-ESI-QTOF; MS2; 40 V
Name: Pentoxifylline
Class: Pharmaceutical
Formula: C13H18N4O3
Exact mass: 278.1379
SMILES: Cn1cnc2N(C)C(=O)N(CCCCC(C)=O)C(=O)c12
InChI: InChI=1S/C13H18N4O3/c1-9(18)6-4-5-7-17-12(19)10-11(14-8-15(10)2)16(3)13(17)20/h8H,4-7H2,1-3H3
Instrument: TripleTOF 5600 SCIEX
Instrument type: LC-ESI-QTOF
Ms type: MS2
Ion mode: POSITIVE
Collision energy: 40
Fragmentation mode: CID
Ionization: ESI
Column name: Zorbax Eclipse Plus C18 2.1 mm x 150 mm, 3.5 um, Agilent
Retention time: 6.772 min
Precursor m/z: 279.1452
Precursor type: [M+H]+
m/z	relative intensity
42.0431	26
43.0278	120
67.0312	16
69.0485	36
83.0629	106
96.0563	15
99.0814	103
108.0562	43
109.0397	12
110.0718	296
122.0585	21
123.0428	20
135.0661	63
137.0821	80
138.0669	801
163.0614	189
181.072	999
193.0714	32
