Mass spectrum: 4,6-Dinitro-O-cresol; LC-ESI-QTOF; MS2; 30 V
Name: 4,6-Dinitro-O-cresol
Class: Herbicide; Insecticide
Formula: C7H6N2O5
Exact mass: 198.0277
SMILES: CC1=CC(=CC(=C1O)[N+](=O)[O-])[N+](=O)[O-]
InChI: InChI=1S/C7H6N2O5/c1-4-2-5(8(11)12)3-6(7(4)10)9(13)14/h2-3,10H,1H3
Instrument: TripleTOF 6600 SCIEX
Instrument type: LC-ESI-QTOF
Ms type: MS2
Ion mode: NEGATIVE
Collision energy: 30
Fragmentation mode: CID
Ionization: ESI
Column name: Zorbax Eclipse Plus C18 2.1 mm x 150 mm, 3.5 um, Agilent
Retention time: 10.837 min
Precursor m/z: 197.0204
Precursor type: [M-H]-
m/z	relative intensity
41.9989	48
45.9935	489
64.0196	24
65.0397	58
93.0339	38
109.0296	737
121.0296	48
122.0251	557
123.033	552
134.0277	24
137.0246	771
138.0206	92
150.0198	305
151.0278	286
167.0225	218
180.018	999
197.0205	581
