Mass spectrum: Chlorothiazide; LC-ESI-QTOF; MS2; 30 V
Name: Chlorothiazide
Class: Pharmaceutical; Transformation_product-Metabolite
Formula: C7H6ClN3O4S2
Exact mass: 294.9488
SMILES: N[S](=O)(=O)c1cc2c(NC=N[S]2(=O)=O)cc1Cl
InChI: InChI=1S/C7H6ClN3O4S2/c8-4-1-5-7(2-6(4)16(9,12)13)17(14,15)11-3-10-5/h1-3H,(H,10,11)(H2,9,12,13)
Instrument: TripleTOF 5600 SCIEX
Instrument type: LC-ESI-QTOF
Ms type: MS2
Ion mode: POSITIVE
Collision energy: 30
Fragmentation mode: CID
Ionization: ESI
Column name: Zorbax Eclipse Plus C18 2.1 mm x 150 mm, 3.5 um, Agilent
Retention time: 5.43 min
Precursor m/z: 295.9561
Precursor type: [M+H]+
m/z	relative intensity
111.9944	21
123.0003	26
123.9932	57
131.9662	105
139.9888	84
141.9495	94
155.0001	26
155.9835	68
157.0158	99
158.0004	84
159.9624	63
169.9444	94
187.9555	126
203.9504	205
204.983	767
214.9675	567
220.9775	389
230.9616	488
242.9731	226
268.9453	131
278.9284	999
295.9551	541
