Mass spectrum: Azithromycin; LC-ESI-QTOF; MS2; 150 V
Name: Azithromycin
Class: Pharmaceutical
Formula: C38H72N2O12
Exact mass: 748.5085
SMILES: CC[C@H]1OC(=O)[C@H](C)[C@@H](O[C@H]2C[C@@](C)(OC)[C@@H](O)[C@H](C)O2)C(C)[C@@H](O[C@@H]3O[C@H](C)C[C@@H]([C@H]3O)N(C)C)[C@](C)(O)C[C@@H](C)CN(C)[C@H](C)[C@@H](O)[C@]1(C)O
InChI: InChI=1S/C38H72N2O12/c1-15-27-38(10,46)31(42)24(6)40(13)19-20(2)17-36(8,45)33(52-35-29(41)26(39(11)12)16-21(3)48-35)22(4)30(23(5)34(44)50-27)51-28-18-37(9,47-14)32(43)25(7)49-28/h20-33,35,41-43,45-46H,15-19H2,1-14H3/t20-,21-,22?,23-,24-,25+,26+,27-,28+,29-,30+,31-,32+,33-,35+,36-,37-,38-/m1/s1
Instrument: TripleTOF 5600 SCIEX
Instrument type: LC-ESI-QTOF
Ms type: MS2
Ion mode: POSITIVE
Collision energy: 150
Fragmentation mode: CID
Ionization: ESI
Column name: Zorbax Eclipse Plus C18 2.1 mm x 150 mm, 3.5 um, Agilent
Retention time: 6.249 min
Precursor m/z: 749.5158
Precursor type: [M+H]+
m/z	relative intensity
42.0436	44
43.0246	88
43.0327	44
45.0418	123
57.0605	114
58.0732	61
70.0687	88
72.0837	999
73.0575	53
81.0743	44
83.0518	857
84.0812	221
84.0947	35
88.0749	106
98.0971	353
108.0823	35
116.0694	53
