Mass spectrum: 1,1,1-Trifluoro-N-((trifluoromethyl)sulfonyl)methanesulfonamide; LC-ESI-QTOF; MS2; 30 V
Name: 1,1,1-Trifluoro-N-((trifluoromethyl)sulfonyl)methanesulfonamide
Class: Industrial_process
Formula: C2HF6NO4S2
Exact mass: 280.9251
SMILES: C(F)(F)(F)S(=O)(=O)NS(=O)(=O)C(F)(F)F
InChI: InChI=1S/C2HF6NO4S2/c3-1(4,5)14(10,11)9-15(12,13)2(6,7)8/h9H
Instrument: TripleTOF 6600 SCIEX
Instrument type: LC-ESI-QTOF
Ms type: MS2
Ion mode: NEGATIVE
Collision energy: 30
Fragmentation mode: CID
Ionization: ESI
Column name: Zorbax Eclipse Plus C18 2.1 mm x 150 mm, 3.5 um, Agilent
Retention time: 12.051 min
Precursor m/z: 279.9178
Precursor type: [M-H]-
m/z	relative intensity
77.9661	105
82.9615	20
146.9615	999
210.9236	73
279.9179	507
