Mass spectrum: Losartan carboxylic acid; LC-ESI-QTOF; MS2; 130 V
Name: Losartan carboxylic acid
Class: Pharmaceutical
Formula: C22H21ClN6O2
Exact mass: 436.1415
SMILES: CCCCc1nc(Cl)c(n1Cc2ccc(cc2)c3ccccc3c4n[nH]nn4)C(O)=O
InChI: InChI=1S/C22H21ClN6O2/c1-2-3-8-18-24-20(23)19(22(30)31)29(18)13-14-9-11-15(12-10-14)16-6-4-5-7-17(16)21-25-27-28-26-21/h4-7,9-12H,2-3,8,13H2,1H3,(H,30,31)(H,25,26,27,28)
Instrument: TripleTOF 5600 SCIEX
Instrument type: LC-ESI-QTOF
Ms type: MS2
Ion mode: POSITIVE
Collision energy: 130
Fragmentation mode: CID
Ionization: ESI
Column name: Zorbax Eclipse Plus C18 2.1 mm x 150 mm, 3.5 um, Agilent
Retention time: 10.786 min
Precursor m/z: 437.1487
Precursor type: [M+H]+
m/z	relative intensity
51.0289	45
74.0175	16
75.0251	47
77.0409	163
78.0483	17
80.0513	12
86.0164	10
87.0242	31
88.0315	15
89.0396	65
98.015	11
99.0244	21
101.0396	42
102.034	10
102.0459	28
111.0219	11
113.038	94
114.0317	22
114.0455	42
115.0539	92
116.0486	11
125.0384	45
126.046	133
127.0534	141
128.0477	24
128.0613	50
137.0377	65
138.0453	74
139.0536	162
140.0491	183
141.0564	17
149.0383	35
150.0462	320
151.0541	895
152.0619	999
153.0564	62
161.038	28
162.0457	101
163.0541	392
164.0511	376
165.0455	22
165.0685	123
166.064	24
175.0514	30
176.0617	384
177.0587	262
178.0646	255
179.0716	23
180.0802	11
188.0489	149
189.0577	69
190.0651	229
191.0607	25
192.0678	11
203.057	12
204.0677	11
205.0759	149
