Mass spectrum: Oxazepam; LC-ESI-QTOF; MS2; 50 V
Name: Oxazepam
Class: Pharmaceutical
Formula: C15H11ClN2O2
Exact mass: 286.0509
SMILES: C1=CC=C(C=C1)C2=NC(C(=O)NC3=C2C=C(C=C3)Cl)O
InChI: InChI=1S/C15H11ClN2O2/c16-10-6-7-12-11(8-10)13(9-4-2-1-3-5-9)18-15(20)14(19)17-12/h1-8,15,20H,(H,17,19)
Instrument: TripleTOF 6600 SCIEX
Instrument type: LC-ESI-QTOF
Ms type: MS2
Ion mode: POSITIVE
Collision energy: 50
Fragmentation mode: CID
Ionization: ESI
Column name: Zorbax Eclipse Plus C18 2.1 mm x 150 mm, 3.5 um, Agilent
Retention time: 9.314 min
Precursor m/z: 287.0582
Precursor type: [M+H]+
m/z	relative intensity
77.0386	149
90.0337	15
93.0574	182
98.9994	10
100.0179	13
104.0498	716
110.9993	62
117.0441	18
118.0526	81
126.0099	28
128.026	89
135.9947	30
138.0101	87
139.0054	24
151.054	19
152.0134	10
152.0612	20
153.0214	128
163.0061	418
164.0008	68
166.0051	19
178.0647	22
179.0008	10
179.0733	23
194.0842	16
195.0921	61
205.0762	81
206.0835	23
207.068	19
214.0417	44
229.0527	80
231.0684	32
239.0379	24
241.0537	999
257.0481	39
