Mass spectrum: Loratadine; LC-ESI-QTOF; MS2; 110 V
Name: Loratadine
Class: Pharmaceutical
Formula: C22H23ClN2O2
Exact mass: 382.1448
SMILES: CCOC(=O)N1CCC(=C2C3=C(CCC4=C2N=CC=C4)C=C(C=C3)Cl)CC1
InChI: InChI=1S/C22H23ClN2O2/c1-2-27-22(26)25-12-9-15(10-13-25)20-19-8-7-18(23)14-17(19)6-5-16-4-3-11-24-21(16)20/h3-4,7-8,11,14H,2,5-6,9-10,12-13H2,1H3
Instrument: TripleTOF 6600 SCIEX
Instrument type: LC-ESI-QTOF
Ms type: MS2
Ion mode: POSITIVE
Collision energy: 110
Fragmentation mode: CID
Ionization: ESI
Column name: Zorbax Eclipse Plus C18 2.1 mm x 150 mm, 3.5 um, Agilent
Retention time: 9.41 min
Precursor m/z: 383.1521
Precursor type: [M+H]+
m/z	relative intensity
77.0379	15
80.0483	16
115.0525	21
128.0606	15
130.0643	12
139.0524	12
150.0443	10
151.0534	38
152.0611	85
154.0647	16
163.0537	40
164.0613	28
165.0693	105
166.0646	17
167.0714	23
175.0536	15
176.0614	64
177.0604	27
178.0655	58
179.0722	116
187.0545	31
188.0599	34
189.0692	255
190.0643	79
191.0716	128
192.0801	96
193.0884	54
199.0293	15
200.0614	28
201.0685	68
202.0767	282
203.0722	83
203.0855	25
204.0796	106
205.0856	24
213.033	30
213.0696	45
214.0408	15
214.0649	147
215.0723	196
216.0802	818
217.0879	354
218.0957	49
223.0293	13
226.0705	36
227.0493	10
227.0734	140
228.0806	791
229.0877	479
230.0957	607
231.1031	62
238.0409	27
239.0759	20
240.08	313
241.0883	999
242.0958	644
243.1035	279
244.1116	218
245.1173	9
250.0408	125
251.049	225
252.0571	19
253.0877	13
254.0963	129
255.102	32
256.1115	161
258.1275	16
262.0413	23
263.0493	16
264.0568	197
265.065	25
266.0725	24
274.0408	10
275.047	23
276.0563	17
277.065	15
278.0709	32
280.0864	9
288.0554	10
