Mass spectrum: Reactive Orange; LC-ESI-QTOF; MS2; 40 V
Name: Reactive Orange
Formula: C20H19N3O11S3
Exact mass: 573.0182
SMILES: CC(=O)NC1=CC2=C(C(=C(C=C2C=C1)S(=O)(=O)O)N=NC3=CC=C(C=C3)S(=O)(=O)CCOS(=O)(=O)O)O
InChI: InChI=1S/C20H19N3O11S3/c1-12(24)21-15-3-2-13-10-18(36(28,29)30)19(20(25)17(13)11-15)23-22-14-4-6-16(7-5-14)35(26,27)9-8-34-37(31,32)33/h2-7,10-11,25H,8-9H2,1H3,(H,21,24)(H,28,29,30)(H,31,32,33)
Instrument: TripleTOF 6600 SCIEX
Instrument type: LC-ESI-QTOF
Ms type: MS2
Ion mode: NEGATIVE
Collision energy: 40
Fragmentation mode: CID
Ionization: ESI
Column name: Zorbax Eclipse Plus C18 2.1 mm x 150 mm, 3.5 um, Agilent
Retention time: 5.751 min
Precursor m/z: 285.5022
Precursor type: [M-2H]2-
m/z	relative intensity
63.9619	11
76.0318	0
79.7093	0
79.9573	137
80.9643	4
90.9855	10
93.0342	1
95.9522	2
96.6581	4
96.9602	999
97.9591	1
107.0368	0
116.0491	0
117.0347	0
127.0435	0
128.0502	3
129.0538	72
130.0287	1
130.0532	7
131.0374	0
132.045	0
139.9935	1
144.0452	75
145.0302	1
145.0509	3
155.0036	0
155.0372	3
156.0453	8
157.0429	2
158.0254	6
158.0606	1
167.0157	5
169.0401	1
170.0599	6
171.0405	1
171.0666	5
171.4986	0
172.0414	279
173.0475	58
174.0518	1
182.0261	1
183.0135	1
183.0554	1
184.0394	11
185.0378	0
186.0195	5
186.0551	2
187.0645	2
196.0296	0
198.0558	10
199.0635	16
199.405	0
200.0351	130
201.0376	3
202.0527	1
208.007	7
209.0123	0
209.9989	9
214.049	2
215.0572	8
216.0664	0
220.0732	0
227.046	1
229.0618	0
230.0591	0
231.066	0
232.0758	5
233.0851	4
234.0914	1
235.0032	1
235.2552	1
236.0029	324
236.2607	0
237.01	393
238.0122	9
247.0654	0
247.1004	0
248.0701	2
249.0809	1
249.9832	2
250.0156	1
251.0247	4
257.0511	0
259.0707	0
260.0735	0
262.9918	0
263.1622	1
263.9975	277
264.9997	6
266.0144	1
273.0785	0
274.0591	0
274.0858	1
275.0952	13
276.0697	1
276.1027	1
276.9915	1
278.0132	34
278.1447	0
279.0208	77
280.0254	1
288.0765	0
290.0847	0
291.0897	3
293.026	0
303.1051	0
312.0356	2
313.0407	0
323.0582	1
324.0703	0
