Mass spectrum: 2,4-Diaminoanisole; LC-ESI-QTOF; MS2; 80 V
Name: 2,4-Diaminoanisole
Formula: C7H10N2O
Exact mass: 138.0793
SMILES: COC1=C(C=C(C=C1)N)N
InChI: InChI=1S/C7H10N2O/c1-10-7-3-2-5(8)4-6(7)9/h2-4H,8-9H2,1H3
Instrument: TripleTOF 6600 SCIEX
Instrument type: LC-ESI-QTOF
Ms type: MS2
Ion mode: POSITIVE
Collision energy: 80
Fragmentation mode: CID
Ionization: ESI
Column name: Zorbax Eclipse Plus C18 2.1 mm x 150 mm, 3.5 um, Agilent
Retention time: 2.235 min
Precursor m/z: 139.0866
Precursor type: [M+H]+
m/z	relative intensity
37.0081	174
38.0151	124
39.0231	574
50.0156	999
51.0231	824
52.0178	949
52.0303	149
61.0066	99
63.0231	124
78.033	149
80.0509	274
