Mass spectrum: Crystal Violet Cation; LC-ESI-QTOF; MS2; 70 V
Name: Crystal Violet Cation
Formula: [C25H30N3]+
Exact mass: 372.2434
SMILES: CN(C)C1=CC=C(C=C1)C(=C2C=CC(=[N+](C)C)C=C2)C3=CC=C(C=C3)N(C)C
InChI: InChI=1S/C25H30N3/c1-26(2)22-13-7-19(8-14-22)25(20-9-15-23(16-10-20)27(3)4)21-11-17-24(18-12-21)28(5)6/h7-18H,1-6H3/q+1
Instrument: TripleTOF 6600 SCIEX
Instrument type: LC-ESI-QTOF
Ms type: MS2
Ion mode: POSITIVE
Collision energy: 70
Fragmentation mode: CID
Ionization: ESI
Column name: Zorbax Eclipse Plus C18 2.1 mm x 150 mm, 3.5 um, Agilent
Retention time: 11.587 min
Precursor m/z: 372.2434
Precursor type: [M]+
m/z	relative intensity
235.1219	134
268.1108	59
284.1408	70
311.1527	83
312.1602	86
340.1803	999
356.2113	461
