Mass spectrum: 3,4-Methylenedioxymethamphetamine; LC-ESI-QTOF; MS2; 40 V
Name: 3,4-Methylenedioxymethamphetamine
Class: Pharmaceutical
Formula: C11H15NO2
Exact mass: 193.1103
SMILES: CC(CC1=CC2=C(C=C1)OCO2)NC
InChI: InChI=1S/C11H15NO2/c1-8(12-2)5-9-3-4-10-11(6-9)14-7-13-10/h3-4,6,8,12H,5,7H2,1-2H3
Instrument: TripleTOF 6600 SCIEX
Instrument type: LC-ESI-QTOF
Ms type: MS2
Ion mode: POSITIVE
Collision energy: 40
Fragmentation mode: CID
Ionization: ESI
Column name: Zorbax Eclipse Plus C18 2.1 mm x 150 mm, 3.5 um, Agilent
Retention time: 5.421 min
Precursor m/z: 194.1176
Precursor type: [M+H]+
m/z	relative intensity
51.0225	55
55.0177	23
58.0646	47
65.0379	44
77.038	709
79.0536	484
91.053	17
93.0323	28
103.0535	338
105.0689	999
115.0533	23
121.0277	31
122.0349	24
133.064	275
135.0435	651
147.0427	31
148.0514	14
163.074	68
