Mass spectrum: Cocaine; LC-ESI-QTOF; MS2; 40 V
Name: Cocaine
Class: Pharmaceutical
Formula: C17H21NO4
Exact mass: 303.1471
SMILES: CN1C2CCC1C(C(C2)OC(=O)C3=CC=CC=C3)C(=O)OC
InChI: InChI=1S/C17H21NO4/c1-18-12-8-9-13(18)15(17(20)21-2)14(10-12)22-16(19)11-6-4-3-5-7-11/h3-7,12-15H,8-10H2,1-2H3
Instrument: TripleTOF 6600 SCIEX
Instrument type: LC-ESI-QTOF
Ms type: MS2
Ion mode: POSITIVE
Collision energy: 40
Fragmentation mode: CID
Ionization: ESI
Column name: Zorbax Eclipse Plus C18 2.1 mm x 150 mm, 3.5 um, Agilent
Retention time: 6.407 min
Precursor m/z: 304.1543
Precursor type: [M+H]+
m/z	relative intensity
44.0494	33
59.0119	20
65.0389	30
67.0416	13
68.0494	37
70.0645	30
77.0384	171
79.0544	37
80.0488	13
82.0651	807
83.0727	87
91.0538	191
93.0337	94
93.0692	50
94.0641	47
96.0799	43
97.0636	37
105.0333	625
108.0804	195
118.0404	47
119.049	252
122.0958	158
125.0587	26
132.0817	30
135.0678	23
150.0909	296
154.0852	43
182.1178	999
