Mass spectrum: Sulfapyridine; LC-ESI-QTOF; MS2; 90 V
Name: Sulfapyridine
Class: Antimicrobial; Pharmaceutical
Formula: C11H11N3O2S
Exact mass: 249.0572
SMILES: C1=CC=NC(=C1)NS(=O)(=O)C2=CC=C(C=C2)N
InChI: InChI=1S/C11H11N3O2S/c12-9-4-6-10(7-5-9)17(15,16)14-11-3-1-2-8-13-11/h1-8H,12H2,(H,13,14)
Instrument: TripleTOF 5600 SCIEX
Instrument type: LC-ESI-QTOF
Ms type: MS2
Ion mode: POSITIVE
Collision energy: 90
Fragmentation mode: CID
Ionization: ESI
Column name: Zorbax Eclipse Plus C18 2.1 mm x 150 mm, 3.5 um, Agilent
Retention time: 5.55 min
Precursor m/z: 250.0645
Precursor type: [M+H]+
m/z	relative intensity
51.0322	104
53.0466	134
65.0442	999
66.0398	62
66.0525	20
67.0469	478
78.0376	360
80.053	419
92.0508	134
93.0579	54
94.052	58
95.061	92
108.0434	71
114.033	20
140.0441	29
166.0556	25
