Mass spectrum: Diazinon; LC-ESI-QTOF; MS2; 40 V
Name: Diazinon
Class: Insecticide
Formula: C12H21N2O3PS
Exact mass: 304.1011
SMILES: CCO[P](=S)(OCC)Oc1cc(C)nc(n1)C(C)C
InChI: InChI=1S/C12H21N2O3PS/c1-6-15-18(19,16-7-2)17-11-8-10(5)13-12(14-11)9(3)4/h8-9H,6-7H2,1-5H3
Instrument: TripleTOF 5600 SCIEX
Instrument type: LC-ESI-QTOF
Ms type: MS2
Ion mode: POSITIVE
Collision energy: 40
Fragmentation mode: CID
Ionization: ESI
Column name: Zorbax Eclipse Plus C18 2.1 mm x 150 mm, 3.5 um, Agilent
Retention time: 14.526 min
Precursor m/z: 305.1083
Precursor type: [M+H]+
m/z	relative intensity
42.0432	11
64.983	14
67.0459	19
70.0697	66
78.9428	25
80.9762	45
84.0477	159
90.9956	21
96.9529	544
100.0234	237
109.005	25
124.9826	95
153.1029	583
154.0557	19
169.0798	999
181.1328	22
231.0349	16
249.0457	19
305.1078	92
