Mass spectrum: 2-(Ethylthio)benzothiazole; LC-ESI-QTOF; MS2; 40 V
Name: 2-(Ethylthio)benzothiazole
Class: Pharmaceutical
Formula: C9H9NS2
Exact mass: 195.0176
SMILES: CCSc1sc2ccccc2n1
InChI: InChI=1S/C9H9NS2/c1-2-11-9-10-7-5-3-4-6-8(7)12-9/h3-6H,2H2,1H3
Instrument: TripleTOF 5600 SCIEX
Instrument type: LC-ESI-QTOF
Ms type: MS2
Ion mode: POSITIVE
Collision energy: 40
Fragmentation mode: CID
Ionization: ESI
Column name: Zorbax Eclipse Plus C18 2.1 mm x 150 mm, 3.5 um, Agilent
Retention time: 13.742 min
Precursor m/z: 196.0249
Precursor type: [M+H]+
m/z	relative intensity
65.0424	109
77.0404	66
80.0516	40
90.0341	11
92.05	192
108.0029	34
109.0098	272
110.0175	117
123.0126	25
124.0206	361
134.0047	34
135.0131	769
136.0213	347
140.9803	20
166.9848	137
167.993	999
196.0245	14
