Mass spectrum: Naproxen; LC-ESI-QTOF; MS2; 110 V
Name: Naproxen
Class: Pharmaceutical
Formula: C14H14O3
Exact mass: 230.0943
SMILES: COc1ccc2cc(ccc2c1)C(C)C(O)=O
InChI: InChI=1S/C14H14O3/c1-9(14(15)16)10-3-4-12-8-13(17-2)6-5-11(12)7-10/h3-9H,1-2H3,(H,15,16)
Instrument: TripleTOF 5600 SCIEX
Instrument type: LC-ESI-QTOF
Ms type: MS2
Ion mode: POSITIVE
Collision energy: 110
Fragmentation mode: CID
Ionization: ESI
Column name: Zorbax Eclipse Plus C18 2.1 mm x 150 mm, 3.5 um, Agilent
Retention time: 10.907 min
Precursor m/z: 231.1016
Precursor type: [M+H]+
m/z	relative intensity
51.0287	58
65.043	247
74.0174	116
75.0241	102
76.0328	58
77.0401	131
78.0511	58
86.0154	51
87.0252	87
88.031	72
89.0399	568
91.0547	51
102.0466	131
113.0384	65
114.0477	36
115.0536	999
126.0466	94
127.054	80
128.0615	43
139.0532	87
141.0691	29
150.0477	87
151.0536	102
152.0602	72
