Mass spectrum: Trinexapac-ethyl; LC-ESI-QTOF; MS2; 40 V
Name: Trinexapac-ethyl
Class: Pesticide
Formula: C13H16O5
Exact mass: 252.0998
SMILES: CCOC(=O)C1CC(=O)C(=C(C2CC2)O)C(=O)C1
InChI: InChI=1S/C13H16O5/c1-2-18-13(17)8-5-9(14)11(10(15)6-8)12(16)7-3-4-7/h7-8,16H,2-6H2,1H3
Instrument: TripleTOF 6600 SCIEX
Instrument type: LC-ESI-QTOF
Ms type: MS2
Ion mode: NEGATIVE
Collision energy: 40
Fragmentation mode: CID
Ionization: ESI
Column name: Zorbax Eclipse Plus C18 2.1 mm x 150 mm, 3.5 um, Agilent
Retention time: 11.11 min
Precursor m/z: 251.0925
Precursor type: [M-H]-
m/z	relative intensity
41.0023	103
43.0178	103
45.0322	68
51.0258	34
65.0377	172
67.0167	172
80.0264	103
83.0484	275
85.0265	103
91.0172	241
93.0343	172
95.0122	378
107.0485	241
107.0599	68
108.02	103
109.027	826
109.0625	103
111.0417	275
119.0515	241
121.0273	137
122.0358	241
125.0589	206
131.0495	137
133.0643	516
134.0361	68
135.0106	344
135.043	241
135.0784	103
137.0211	172
137.0594	688
141.0558	241
149.0259	137
159.0436	241
161.0609	310
163.0376	206
177.0539	999
179.0714	241
183.0628	103
183.0725	68
205.0484	68
251.0912	275
