Mass spectrum: Sulisobenzone; LC-ESI-QTOF; MS2; 40 V
Name: Sulisobenzone
Class: Personal_care_product
Formula: C14H12O6S
Exact mass: 308.0355
SMILES: COc1c(S(O)(=O)=O)cc(C(c2ccccc2)=O)c(O)c1
InChI: InChI=1S/C14H12O6S/c1-20-12-8-11(15)10(7-13(12)21(17,18)19)14(16)9-5-3-2-4-6-9/h2-8,15H,1H3,(H,17,18,19)
Instrument: TripleTOF 5600 SCIEX
Instrument type: LC-ESI-QTOF
Ms type: MS2
Ion mode: NEGATIVE
Collision energy: 40
Fragmentation mode: CID
Ionization: ESI
Column name: Zorbax Eclipse Plus C18 2.1 mm x 150 mm, 3.5 um, Agilent
Retention time: 7.476 min
Precursor m/z: 307.0282
Precursor type: [M-H]-
m/z	relative intensity
79.9559	490
80.9636	84
94.0042	53
121.999	76
182.0361	595
183.0429	87
184.0502	100
185.961	77
199.0376	99
200.0463	233
210.0313	454
211.0387	999
212.0461	212
213.9556	236
227.07	529
228.0419	574
228.9786	438
263.0016	240
264.0078	215
290.996	725
292.0006	87
307.0278	708
