Mass spectrum: Oxycodone; LC-ESI-QTOF; MS2; 130 V
Name: Oxycodone
Class: Pharmaceutical
Formula: C18H21NO4
Exact mass: 315.1471
SMILES: CN1CCC23C4C(=O)CCC2(C1CC5=C3C(=C(C=C5)OC)O4)O
InChI: InChI=1S/C18H21NO4/c1-19-8-7-17-14-10-3-4-12(22-2)15(14)23-16(17)11(20)5-6-18(17,21)13(19)9-10/h3-4,13,16,21H,5-9H2,1-2H3
Instrument: TripleTOF 6600 SCIEX
Instrument type: LC-ESI-QTOF
Ms type: MS2
Ion mode: POSITIVE
Collision energy: 130
Fragmentation mode: CID
Ionization: ESI
Column name: Zorbax Eclipse Plus C18 2.1 mm x 150 mm, 3.5 um, Agilent
Retention time: 5.206 min
Precursor m/z: 316.1543
Precursor type: [M+H]+
m/z	relative intensity
37.0065	20
38.0138	17
39.0219	120
42.0333	46
44.0494	17
50.0144	110
51.0224	269
52.0301	29
59.9983	22
61.0064	73
62.0138	118
63.0219	300
64.029	12
65.0372	208
73.005	13
74.0139	237
75.0219	295
76.0294	182
77.0375	935
78.0448	197
79.052	12
80.0477	15
85.0062	25
86.0138	75
87.0215	135
88.0291	85
89.0377	619
90.0453	34
91.0527	94
94.0672	13
98.0132	63
99.0211	60
100.031	48
101.0371	171
102.0442	447
103.0535	91
105.0436	12
110.0131	13
113.0368	256
114.0447	120
115.0529	999
116.0472	61
117.0553	48
118.0373	10
124.0278	13
125.037	79
126.0451	691
127.0531	734
128.0605	419
129.0438	42
129.0676	10
130.063	37
131.0482	36
131.0727	10
137.037	44
138.0465	51
139.0529	863
140.0481	256
140.0628	37
141.0636	111
142.0645	44
143.047	10
143.0694	20
149.0376	20
150.0453	240
151.0525	367
152.06	620
153.0561	514
154.0639	290
155.0595	75
163.054	159
164.0572	108
165.0673	111
166.0637	290
167.0718	312
168.0793	178
170.0592	15
175.0512	10
176.0622	60
177.057	29
178.0662	44
179.066	29
180.0794	56
181.0895	15
182.0626	20
189.0669	12
190.0642	56
191.0746	24
192.0787	17
