Mass spectrum: Kresoxim-methyl; LC-ESI-QTOF; MS2; 120 V
Name: Kresoxim-methyl
Class: Fungicide
Formula: C18H19NO4
Exact mass: 313.1314
SMILES: CC1=CC=CC=C1OCC2=CC=CC=C2C(=NOC)C(=O)OC
InChI: InChI=1S/C18H19NO4/c1-13-8-4-7-11-16(13)23-12-14-9-5-6-10-15(14)17(19-22-3)18(20)21-2/h4-11H,12H2,1-3H3
Instrument: TripleTOF 6600 SCIEX
Instrument type: LC-ESI-QTOF
Ms type: MS2
Ion mode: POSITIVE
Collision energy: 120
Fragmentation mode: CID
Ionization: ESI
Column name: Zorbax Eclipse Plus C18 2.1 mm x 150 mm, 3.5 um, Agilent
Retention time: 13.809 min
Precursor m/z: 314.1387
Precursor type: [M+H]+
m/z	relative intensity
37.0068	57
38.0137	35
39.023	201
50.0148	100
51.0224	309
61.0058	93
62.0143	186
63.0224	567
64.019	35
65.0396	172
74.0144	179
75.0223	215
76.0299	114
77.0372	546
78.0456	79
86.0143	50
87.0219	71
88.0293	50
89.0373	711
90.0461	64
91.0537	57
98.0142	129
99.0208	129
101.0379	79
102.0451	251
110.0128	43
111.0224	28
113.0385	143
114.0347	35
115.0528	237
116.0484	57
122.0139	35
123.0215	35
124.0299	43
125.0392	107
126.0449	330
127.0522	165
128.0581	43
137.0349	43
138.0469	35
139.0527	452
140.0501	100
149.0379	136
150.0446	999
151.0532	769
152.0608	524
153.0628	35
161.0367	43
162.0441	143
163.053	560
164.0435	43
164.061	273
165.0692	273
166.0649	50
174.043	100
175.0429	35
175.0552	64
176.0628	388
177.0575	215
178.0784	107
179.0595	64
186.0494	28
187.0542	71
188.0479	100
189.0558	35
190.0653	122
191.0699	100
