Mass spectrum: Alpha-hydroxy-metoprolol; LC-ESI-QTOF; MS2; 30 V
Name: Alpha-hydroxy-metoprolol
Class: Pharmaceutical; Metabolite; Transformation_product-Metabolite
Formula: C15H25NO4
Exact mass: 283.1784
SMILES: COCC(O)c1ccc(OCC(O)CNC(C)C)cc1
InChI: InChI=1S/C15H25NO4/c1-11(2)16-8-13(17)9-20-14-6-4-12(5-7-14)15(18)10-19-3/h4-7,11,13,15-18H,8-10H2,1-3H3
Instrument: TripleTOF 5600 SCIEX
Instrument type: LC-ESI-QTOF
Ms type: MS2
Ion mode: POSITIVE
Collision energy: 30
Fragmentation mode: CID
Ionization: ESI
Column name: Zorbax Eclipse Plus C18 2.1 mm x 150 mm, 3.5 um, Agilent
Retention time: 5.057 min
Precursor m/z: 284.1856
Precursor type: [M+H]+
m/z	relative intensity
45.0427	14
56.0561	107
58.0711	24
70.0689	49
72.0848	186
74.0634	334
75.0467	31
79.0558	10
88.0782	10
91.0554	49
98.097	210
100.1105	10
103.0543	31
105.0697	76
107.0485	29
116.1066	359
117.0688	23
119.0488	93
119.0835	10
121.0646	22
129.0698	59
133.0645	187
134.0731	21
135.0789	17
145.0637	23
147.0794	42
149.0591	49
151.0752	83
157.0644	44
159.0799	12
161.0954	13
162.0676	13
163.0746	79
168.101	15
174.0907	12
175.0748	69
177.0906	56
181.0848	39
189.0905	82
192.1361	13
206.1165	17
207.1011	156
210.1489	10
224.1272	82
242.138	17
248.1643	31
266.1757	26
284.1846	999
