Mass spectrum: Tetrahydroharman-3-carboxylic acid; LC-ESI-QTOF; MS2; 90 V
Name: Tetrahydroharman-3-carboxylic acid
Formula: C13H14N2O2
Exact mass: 230.1055
SMILES: CC1C2=C(CC(N1)C(=O)O)C3=CC=CC=C3N2
InChI: InChI=1S/C13H14N2O2/c1-7-12-9(6-11(14-7)13(16)17)8-4-2-3-5-10(8)15-12/h2-5,7,11,14-15H,6H2,1H3,(H,16,17)
Instrument: TripleTOF 6600 SCIEX
Instrument type: LC-ESI-QTOF
Ms type: MS2
Ion mode: POSITIVE
Collision energy: 90
Fragmentation mode: CID
Ionization: ESI
Column name: Zorbax Eclipse Plus C18 2.1 mm x 150 mm, 3.5 um, Agilent
Retention time: 5.62 min
Precursor m/z: 231.1128
Precursor type: [M+H]+
m/z	relative intensity
38.0152	10
39.0224	58
50.0147	66
51.0226	217
61.0064	18
62.014	48
63.0227	206
64.0299	14
65.0383	175
74.0142	100
75.0219	221
76.0298	58
77.0382	735
78.044	29
87.0209	10
88.03	18
89.0375	835
90.0457	223
91.0531	106
101.0374	131
102.0451	129
103.0525	83
105.0429	16
113.0367	56
114.0457	48
115.0535	999
116.0489	68
117.056	133
126.0438	37
127.0538	142
128.0485	135
128.0591	296
129.0426	64
129.0675	10
130.0633	87
139.053	188
140.0475	142
141.0562	52
142.0634	37
143.07	16
153.0545	10
154.0643	75
155.0595	27
156.0806	14
166.0638	137
167.0707	104
