Mass spectrum: 3,5-bis(hexanoylamino)-2,4,6-triiodobenzoic acid; LC-ESI-QTOF; MS2; 110 V
Name: 3,5-bis(hexanoylamino)-2,4,6-triiodobenzoic acid
Class: Pharmaceutical; Transformation_product
Formula: C19H25I3N2O4
Exact mass: 725.8949
SMILES: CCCCCC(=O)Nc1c(I)c(NC(=O)CCCCC)c(I)c(C(O)=O)c1I
InChI: InChI=1S/C19H25I3N2O4/c1-3-5-7-9-11(25)23-17-14(20)13(19(27)28)15(21)18(16(17)22)24-12(26)10-8-6-4-2/h3-10H2,1-2H3,(H,23,25)(H,24,26)(H,27,28)
Instrument: TripleTOF 5600 SCIEX
Instrument type: LC-ESI-QTOF
Ms type: MS2
Ion mode: POSITIVE
Collision energy: 110
Fragmentation mode: CID
Ionization: ESI
Column name: Zorbax Eclipse Plus C18 2.1 mm x 150 mm, 3.5 um, Agilent
Retention time: 11.575 min
Precursor m/z: 726.9021
Precursor type: [M+H]+
m/z	relative intensity
71.0886	31
78.0384	74
79.0435	55
79.0603	31
80.0527	49
81.0741	55
90.0359	24
91.0424	68
91.0545	37
92.0552	31
103.0427	24
104.0509	37
105.0588	31
106.0299	68
106.0513	24
106.065	37
107.0361	86
108.0458	148
108.0663	31
117.045	74
118.0285	31
118.052	68
118.0624	49
119.0363	43
119.0623	37
120.0447	86
131.0604	37
131.075	24
132.0437	86
133.0509	31
134.0235	105
135.0549	49
144.0413	31
144.0868	24
145.0382	130
145.0755	62
146.0228	179
146.0475	179
147.0324	155
147.056	130
148.0389	155
148.0626	372
149.0487	24
158.0473	24
158.0988	24
159.0556	105
159.0937	55
160.0402	55
160.0623	37
161.0501	136
161.0716	999
162.0568	80
163.0523	24
171.0552	43
172.0271	43
172.0628	55
173.0338	80
173.1068	55
174.0181	49
174.0447	124
174.0842	24
175.027	31
175.0523	43
175.0871	43
185.0341	80
185.0716	49
186.0421	192
187.0508	490
188.0582	229
188.0889	31
188.107	74
191.0462	86
192.0534	347
199.0529	86
199.0853	37
200.0207	55
200.0574	210
201.026	37
201.0668	310
201.0962	43
202.0762	74
202.1096	49
203.1177	68
203.9294	80
204.1024	757
204.1251	111
205.0591	105
213.0279	136
213.0651	148
213.1024	68
214.0373	142
214.0755	62
214.1101	37
215.0456	24
215.0826	49
218.0342	43
219.0421	62
219.0748	24
220.9558	24
227.0444	68
227.083	74
228.0528	55
229.061	68
231.0416	124
231.1134	86
231.9252	24
232.0487	117
233.058	55
241.0992	43
242.1056	111
243.1172	55
243.9496	80
244.1217	173
245.0563	93
245.1326	31
246.0629	74
247.0737	55
248.1172	192
249.1242	55
250.1055	55
256.1204	148
257.1301	111
270.0981	37
271.1091	31
271.9449	173
272.9515	55
273.9631	49
275.1031	167
288.1104	260
289.121	136
299.1807	31
299.939	99
301.1194	167
303.1342	266
317.9493	130
330.9633	43
345.1818	130
375.0223	68
