Mass spectrum: Nadolol; LC-ESI-QTOF; MS2; 140 V
Name: Nadolol
Class: Pharmaceutical
Formula: C17H27NO4
Exact mass: 309.194
SMILES: CC(C)(C)NCC(COC1=CC=CC2=C1CC(C(C2)O)O)O
InChI: InChI=1S/C17H27NO4/c1-17(2,3)18-9-12(19)10-22-16-6-4-5-11-7-14(20)15(21)8-13(11)16/h4-6,12,14-15,18-21H,7-10H2,1-3H3
Instrument: TripleTOF 5600 SCIEX
Instrument type: LC-ESI-QTOF
Ms type: MS2
Ion mode: POSITIVE
Collision energy: 140
Fragmentation mode: CID
Ionization: ESI
Column name: Zorbax Eclipse Plus C18 2.1 mm x 150 mm, 3.5 um, Agilent
Retention time: 5.13 min
Precursor m/z: 310.2013
Precursor type: [M+H]+
m/z	relative intensity
50.0189	83
51.028	333
56.0555	152
57.075	222
58.0699	111
58.0794	69
62.0182	97
63.0276	291
65.0437	457
74.017	69
75.0266	138
76.0336	111
77.0405	999
77.077	55
78.0486	263
89.0393	388
91.0552	222
102.0474	235
103.0557	124
115.054	776
115.0722	69
126.0458	111
127.0552	180
128.062	166
139.0572	111
152.0603	83
