Mass spectrum: 6-Acetylcodeine; LC-ESI-QTOF; MS2; 30 V
Name: 6-Acetylcodeine
Class: Pharmaceutical; Transformation_product
Formula: C20H23NO4
Exact mass: 341.1627
SMILES: CC(=O)OC1C=CC2C3CC4=C5C2(C1OC5=C(C=C4)OC)CCN3C
InChI: InChI=1S/C20H23NO4/c1-11(22)24-16-7-5-13-14-10-12-4-6-15(23-3)18-17(12)20(13,19(16)25-18)8-9-21(14)2/h4-7,13-14,16,19H,8-10H2,1-3H3
Instrument: TripleTOF 5600 SCIEX
Instrument type: LC-ESI-QTOF
Ms type: MS2
Ion mode: POSITIVE
Collision energy: 30
Fragmentation mode: CID
Ionization: ESI
Column name: Zorbax Eclipse Plus C18 2.1 mm x 150 mm, 3.5 um, Agilent
Retention time: 6.207 min
Precursor m/z: 342.17
Precursor type: [M+H]+
m/z	relative intensity
58.0706	22
165.0706	13
175.0751	15
193.0651	23
195.0805	12
197.0967	44
207.0799	10
210.0675	12
215.1063	20
219.0801	11
221.0964	10
223.0753	23
225.0916	326
237.0908	10
243.1017	23
251.1075	27
253.122	13
266.1183	13
267.126	20
269.117	10
282.1495	125
300.1592	22
342.17	999
