Mass spectrum: Daidzein; LC-ESI-QTOF; MS2; 90 V
Name: Daidzein
Class: Pharmaceutical
Formula: C15H10O4
Exact mass: 254.0579
SMILES: Oc1ccc(cc1)C2=COc3cc(O)ccc3C2=O
InChI: InChI=1S/C15H10O4/c16-10-3-1-9(2-4-10)13-8-19-14-7-11(17)5-6-12(14)15(13)18/h1-8,16-17H
Instrument: TripleTOF 5600 SCIEX
Instrument type: LC-ESI-QTOF
Ms type: MS2
Ion mode: POSITIVE
Collision energy: 90
Fragmentation mode: CID
Ionization: ESI
Column name: Zorbax Eclipse Plus C18 2.1 mm x 150 mm, 3.5 um, Agilent
Retention time: 7.744 min
Precursor m/z: 255.0652
Precursor type: [M+H]+
m/z	relative intensity
37.0076	66
38.0152	44
39.0231	297
41.0392	26
50.0153	71
51.0228	182
52.0311	31
53.0387	102
55.0173	22
61.0077	26
62.0155	71
63.0228	199
65.0389	999
68.9976	128
74.0151	88
75.0229	159
76.0316	48
77.0386	541
78.0461	173
81.0337	155
87.0222	22
89.0387	239
90.0481	17
91.0555	261
92.0261	26
99.0229	17
101.0385	57
102.0463	199
103.054	22
105.0329	53
114.0435	17
115.0546	408
118.0427	17
125.0364	17
126.0461	208
127.0533	217
128.0618	177
131.0485	26
139.0544	124
141.0698	53
144.055	17
150.0461	182
151.0537	297
152.0622	794
153.0688	22
155.0475	22
163.0519	39
168.0561	35
181.0648	22
