Mass spectrum: Reactive Orange; LC-ESI-QTOF; MS2; 120 V
Name: Reactive Orange
Formula: C20H19N3O11S3
Exact mass: 573.0182
SMILES: CC(=O)NC1=CC2=C(C(=C(C=C2C=C1)S(=O)(=O)O)N=NC3=CC=C(C=C3)S(=O)(=O)CCOS(=O)(=O)O)O
InChI: InChI=1S/C20H19N3O11S3/c1-12(24)21-15-3-2-13-10-18(36(28,29)30)19(20(25)17(13)11-15)23-22-14-4-6-16(7-5-14)35(26,27)9-8-34-37(31,32)33/h2-7,10-11,25H,8-9H2,1H3,(H,21,24)(H,28,29,30)(H,31,32,33)
Instrument: TripleTOF 6600 SCIEX
Instrument type: LC-ESI-QTOF
Ms type: MS2
Ion mode: POSITIVE
Collision energy: 120
Fragmentation mode: CID
Ionization: ESI
Column name: Zorbax Eclipse Plus C18 2.1 mm x 150 mm, 3.5 um, Agilent
Retention time: 5.751 min
Precursor m/z: 574.0255
Precursor type: [M+H]+
m/z	relative intensity
43.0175	20
44.9787	23
46.9943	13
53.0377	92
61.0077	12
62.0143	9
63.0215	20
64.968	12
65.0376	70
68.0118	36
76.0299	14
77.0381	90
78.0324	14
80.0488	168
81.0331	861
88.0298	61
89.0373	103
91.0415	29
92.0489	50
93.0566	34
102.032	24
102.0469	11
103.0407	51
104.0478	159
108.0436	353
114.033	211
115.0405	401
116.0489	127
117.0564	47
128.0492	25
129.0433	220
130.0532	62
131.0583	144
141.0414	36
142.0516	999
143.0599	46
151.0531	58
163.0393	15
164.0609	11
170.046	166
171.0558	15
172.0372	12
176.0601	36
177.0562	27
178.065	41
179.066	11
180.076	13
188.0502	13
189.0518	12
190.0608	27
203.0651	25
204.0785	48
205.0738	264
206.0847	49
215.0604	20
216.0676	30
217.0763	20
218.0834	24
220.086	20
230.07	24
231.0796	29
232.0858	121
233.0722	18
233.0953	24
243.0767	13
244.0818	12
