Mass spectrum: 4-Desmethyl-trimethoprim; LC-ESI-QTOF; MS2; 120 V
Name: 4-Desmethyl-trimethoprim
Class: Pharmaceutical
Formula: C13H16N4O3
Exact mass: 276.1222
SMILES: COC1=CC(=CC(=C1O)OC)CC2=CN=C(N=C2N)N
InChI: InChI=1S/C13H16N4O3/c1-19-9-4-7(5-10(20-2)11(9)18)3-8-6-16-13(15)17-12(8)14/h4-6,18H,3H2,1-2H3,(H4,14,15,16,17)
Instrument: TripleTOF 5600 SCIEX
Instrument type: LC-ESI-QTOF
Ms type: MS2
Ion mode: POSITIVE
Collision energy: 120
Fragmentation mode: CID
Ionization: ESI
Column name: Zorbax Eclipse Plus C18 2.1 mm x 150 mm, 3.5 um, Agilent
Retention time: 4.783 min
Precursor m/z: 277.1295
Precursor type: [M+H]+
m/z	relative intensity
52.0232	461
53.0131	115
54.0381	365
54.0498	76
61.023	76
64.0339	96
65.0429	249
74.0167	96
75.0257	480
76.0224	211
76.0356	96
77.0412	999
78.0369	230
79.0444	134
79.0565	96
80.05	115
81.0462	172
89.0392	307
92.0509	172
93.0437	96
94.0523	76
102.0351	153
103.0288	153
104.0364	96
104.0506	192
105.0433	153
114.0339	134
116.0511	96
117.0538	115
120.0574	211
142.055	76
