Mass spectrum: 5-(3,4,5-Trimethoxybenzoyl)-2,4-pyrimidinediamine; LC-ESI-QTOF; MS2; 140 V
Name: 5-(3,4,5-Trimethoxybenzoyl)-2,4-pyrimidinediamine
Class: Pharmaceutical; Transformation_product
Formula: C14H16N4O4
Exact mass: 304.1172
SMILES: COc1cc(cc(c1OC)OC)C(=O)c2cnc(nc2N)N
InChI: InChI=1S/C14H16N4O4/c1-20-9-4-7(5-10(21-2)12(9)22-3)11(19)8-6-17-14(16)18-13(8)15/h4-6H,1-3H3,(H4,15,16,17,18)
Instrument: TripleTOF 5600 SCIEX
Instrument type: LC-ESI-QTOF
Ms type: MS2
Ion mode: POSITIVE
Collision energy: 140
Fragmentation mode: CID
Ionization: ESI
Column name: Zorbax Eclipse Plus C18 2.1 mm x 150 mm, 3.5 um, Agilent
Retention time: 5.86 min
Precursor m/z: 305.1244
Precursor type: [M+H]+
m/z	relative intensity
40.0307	148
43.0401	431
52.0231	209
52.0349	271
53.0082	320
53.0435	74
55.0343	86
65.0186	123
65.0449	172
66.0152	135
66.0264	61
67.033	111
68.0187	999
68.0413	74
68.9993	86
74.0171	185
75.013	61
75.026	148
76.0208	444
77.0274	61
77.0405	308
78.0371	296
79.0467	61
87.0217	49
88.0207	172
89.0405	135
90.0335	74
92.0257	74
94.0545	61
95.0272	61
99.016	74
100.019	61
102.0317	86
103.0305	86
104.0448	98
105.046	197
109.0525	61
114.0314	74
115.0416	74
120.0575	61
129.0429	49
130.0387	74
