Mass spectrum: Hydroxy-DEET; LC-ESI-QTOF; MS2; 40 V
Name: Hydroxy-DEET
Class: Metabolite
Formula: C12H17NO2
Exact mass: 207.1259
SMILES: CCN(CC)C(=O)C1=CC(=CC=C1)CO
InChI: InChI=1S/C12H17NO2/c1-3-13(4-2)12(15)11-7-5-6-10(8-11)9-14/h5-8,14H,3-4,9H2,1-2H3
Instrument: TripleTOF 5600 SCIEX
Instrument type: LC-ESI-QTOF
Ms type: MS2
Ion mode: POSITIVE
Collision energy: 40
Fragmentation mode: CID
Ionization: ESI
Column name: Zorbax Eclipse Plus C18 2.1 mm x 150 mm, 3.5 um, Agilent
Retention time: 6.973 min
Precursor m/z: 208.1332
Precursor type: [M+H]+
m/z	relative intensity
44.0261	32
62.0229	18
63.031	117
65.0448	22
72.0503	76
77.0442	179
79.0589	34
89.0429	999
91.0582	82
100.0784	26
105.036	90
107.0523	228
119.0516	51
134.0601	37
135.0458	559
178.1215	11
208.1323	93
