Mass spectrum: Amlodipine; LC-ESI-QTOF; MS2; 40 V
Name: Amlodipine
Class: Pharmaceutical
Formula: C20H25ClN2O5
Exact mass: 408.1452
SMILES: CCOC(=O)C1=C(COCCN)NC(=C(C1c2ccccc2Cl)C(=O)OC)C
InChI: InChI=1S/C20H25ClN2O5/c1-4-28-20(25)18-15(11-27-10-9-22)23-12(2)16(19(24)26-3)17(18)13-7-5-6-8-14(13)21/h5-8,17,23H,4,9-11,22H2,1-3H3
Instrument: TripleTOF 5600 SCIEX
Instrument type: LC-ESI-QTOF
Ms type: MS2
Ion mode: POSITIVE
Collision energy: 40
Fragmentation mode: CID
Ionization: ESI
Column name: Zorbax Eclipse Plus C18 2.1 mm x 150 mm, 3.5 um, Agilent
Retention time: 8.432 min
Precursor m/z: 409.1525
Precursor type: [M+H]+
m/z	relative intensity
44.0579	37
84.0467	10
115.0545	11
126.0546	10
137.015	42
138.9954	22
142.0657	90
143.0734	44
148.0399	10
149.0154	94
151.0313	12
155.026	13
163.0306	33
165.0106	202
167.0805	12
170.0609	435
172.0964	11
176.0344	80
177.0108	30
178.0424	138
181.0901	10
183.0236	13
184.0754	92
185.0844	22
192.0567	13
196.077	20
197.0829	15
202.0873	80
204.0578	34
206.0377	999
208.0608	396
209.0825	19
211.0531	24
212.0712	44
213.0793	73
214.0432	10
216.0585	29
218.0367	13
220.0531	808
223.0959	11
224.0713	28
225.0767	21
226.0881	15
230.0804	19
231.0704	19
232.0532	128
233.0606	40
238.0637	541
240.1031	19
242.0354	14
243.045	13
244.0526	45
248.0483	280
251.0965	34
252.0734	15
252.1025	21
258.0683	21
259.075	27
260.0481	202
262.0633	14
266.0596	12
267.1146	12
270.0325	48
275.0993	12
276.0783	28
278.0865	34
286.0625	73
288.0423	99
288.0761	22
294.0897	219
295.1091	22
303.0894	74
306.0541	68
306.0874	19
316.074	17
320.0674	14
331.0872	10
332.0674	19
334.0846	333
360.1032	33
377.126	48
