Mass spectrum: 3,3`,5-Triiodothyronine; LC-ESI-QTOF; MS2; 110 V
Name: 3,3`,5-Triiodothyronine
Class: Pharmaceutical
Formula: C15H12I3NO4
Exact mass: 650.7901
SMILES: NC(Cc1cc(I)c(Oc2ccc(O)c(I)c2)c(I)c1)C(O)=O
InChI: InChI=1S/C15H12I3NO4/c16-9-6-8(1-2-13(9)20)23-14-10(17)3-7(4-11(14)18)5-12(19)15(21)22/h1-4,6,12,20H,5,19H2,(H,21,22)
Instrument: TripleTOF 5600 SCIEX
Instrument type: LC-ESI-QTOF
Ms type: MS2
Ion mode: NEGATIVE
Collision energy: 110
Fragmentation mode: CID
Ionization: ESI
Column name: Zorbax Eclipse Plus C18 2.1 mm x 150 mm, 3.5 um, Agilent
Retention time: 8.499 min
Precursor m/z: 649.7828
Precursor type: [M-H]-
m/z	relative intensity
126.9057	999
