Mass spectrum: 1,7-Dimethylxanthine; LC-ESI-QTOF; MS2; 60 V
Name: 1,7-Dimethylxanthine
Class: Pharmaceutical; Metabolite; Natural_product
Formula: C7H8N4O2
Exact mass: 180.0647
SMILES: Cn1cnc2NC(=O)N(C)C(=O)c12
InChI: InChI=1S/C7H8N4O2/c1-10-3-8-5-4(10)6(12)11(2)7(13)9-5/h3H,1-2H3,(H,9,13)
Instrument: TripleTOF 5600 SCIEX
Instrument type: LC-ESI-QTOF
Ms type: MS2
Ion mode: POSITIVE
Collision energy: 60
Fragmentation mode: CID
Ionization: ESI
Column name: Zorbax Eclipse Plus C18 2.1 mm x 150 mm, 3.5 um, Agilent
Retention time: 5.064 min
Precursor m/z: 181.072
Precursor type: [M+H]+
m/z	relative intensity
42.0424	999
53.0202	46
54.0268	60
54.0393	28
55.0337	261
56.0193	23
67.0323	448
69.0474	415
77.0415	28
79.0316	23
96.0558	28
109.0255	51
124.0517	70
127.0542	28
153.0578	23
