Mass spectrum: DEET; LC-ESI-QTOF; MS2; 40 V
Name: DEET
Class: Insecticide; Personal_care_product
Formula: C12H17NO
Exact mass: 191.131
InChI: InChI=1S/C12H17NO/c1-4-13(5-2)12(14)11-8-6-7-10(3)9-11/h6-9H,4-5H2,1-3H3
Instrument: TripleTOF 5600 SCIEX
Instrument type: LC-ESI-QTOF
Ms type: CID
Ion mode: POSITIVE
Collision energy: 40
Ionization: ESI
Column name: Zorbax Eclipse Plus C18 2.1 mm x 150 mm, 3.5 um, Agilent
Retention time: 10.421 min
Precursor m/z: 192.1383
Precursor type: [M+H]+
m/z	relative intensity
44.0219	43
65.044	198
72.0482	78
91.0568	999
100.0758	25
118.0648	32
119.05	352
192.1385	47
