Mass spectrum: Amlodipine; LC-ESI-QTOF; MS2; 40 V
Name: Amlodipine
Class: Pharmaceutical
Formula: C20H25ClN2O5
Exact mass: 408.1452
SMILES: CCOC(=O)C1=C(COCCN)NC(=C(C1c2ccccc2Cl)C(=O)OC)C
InChI: InChI=1S/C20H25ClN2O5/c1-4-28-20(25)18-15(11-27-10-9-22)23-12(2)16(19(24)26-3)17(18)13-7-5-6-8-14(13)21/h5-8,17,23H,4,9-11,22H2,1-3H3
Instrument: TripleTOF 5600 SCIEX
Instrument type: LC-ESI-QTOF
Ms type: MS2
Ion mode: POSITIVE
Collision energy: 40
Fragmentation mode: CID
Ionization: ESI
Column name: Zorbax Eclipse Plus C18 2.1 mm x 150 mm, 3.5 um, Agilent
Retention time: 8.432 min
Precursor m/z: 409.1525
Precursor type: [M+H]+
m/z	relative intensity
44.0582	40
84.0461	16
96.0466	14
102.0466	17
115.0546	27
116.0616	15
124.0401	11
126.0549	10
127.0545	10
128.05	17
128.0618	16
137.0158	123
138.9952	26
140.0268	10
140.0484	10
142.0657	169
143.0736	83
148.0401	33
149.0156	200
151.0306	28
153.0695	10
155.0251	20
156.081	16
157.0879	16
163.031	57
164.0291	14
164.077	10
165.0108	298
165.0388	11
167.0793	27
169.0869	10
170.0606	462
171.0471	11
172.0956	22
176.0346	129
177.0107	40
178.042	178
180.0638	11
180.0804	28
181.091	26
182.0697	15
183.0205	19
184.0756	115
185.0842	41
191.0251	11
192.0572	25
195.0997	13
196.0759	38
197.0837	39
198.0923	11
202.0864	81
204.0206	10
204.0578	46
206.0374	955
208.0606	436
209.085	35
211.0514	14
212.0694	53
213.0789	83
214.0434	23
215.0491	10
216.058	29
218.0383	19
220.0532	727
220.0882	9
223.0959	13
224.0725	46
225.0806	44
226.0889	22
230.0347	14
230.0786	28
231.0696	23
232.0523	130
233.0603	50
234.0689	10
238.0637	999
239.0917	10
240.1021	28
242.0362	23
243.0456	13
244.0527	50
248.0474	283
251.0945	43
252.0625	11
252.1009	37
258.0352	13
258.0695	21
259.0734	26
260.0476	218
260.0875	10
261.0598	11
261.0782	10
262.0642	14
266.0552	10
267.1139	15
270.0329	70
271.0394	10
274.0627	13
275.0942	11
276.0785	23
278.0843	41
286.0623	69
288.0424	98
288.0796	15
294.0895	554
295.1073	33
303.0884	91
306.0534	63
306.0911	14
316.0734	28
320.0696	52
331.0861	19
332.0697	22
334.0847	308
346.0842	20
360.0992	103
377.1276	255
392.1273	37
