Mass spectrum: Tenoxicam; LC-ESI-QTOF; MS2; 70 V
Name: Tenoxicam
Class: Pharmaceutical
Formula: C13H11N3O4S2
Exact mass: 337.0191
SMILES: CN1C(=C(C2=C(S1(=O)=O)C=CS2)O)C(=O)NC3=CC=CC=N3
InChI: InChI=1S/C13H11N3O4S2/c1-16-10(13(18)15-9-4-2-3-6-14-9)11(17)12-8(5-7-21-12)22(16,19)20/h2-7,17H,1H3,(H,14,15,18)
Instrument: TripleTOF 5600 SCIEX
Instrument type: LC-ESI-QTOF
Ms type: MS2
Ion mode: POSITIVE
Collision energy: 70
Fragmentation mode: CID
Ionization: ESI
Column name: Zorbax Eclipse Plus C18 2.1 mm x 150 mm, 3.5 um, Agilent
Retention time: 7.356 min
Precursor m/z: 338.0264
Precursor type: [M+H]+
m/z	relative intensity
51.0316	33
71.002	67
78.0392	999
95.0644	679
121.0422	392
130.9646	28
142.962	61
