Mass spectrum: Acridine-9-carboxylic acid; LC-ESI-QTOF; MS2; 40 V
Name: Acridine-9-carboxylic acid
Class: Pharmaceutical; Metabolite; Transformation_product
Formula: C14H9NO2
Exact mass: 223.0633
SMILES: OC(=O)c1c2ccccc2nc3ccccc13
InChI: InChI=1S/C14H9NO2/c16-14(17)13-9-5-1-3-7-11(9)15-12-8-4-2-6-10(12)13/h1-8H,(H,16,17)
Instrument: TripleTOF 5600 SCIEX
Instrument type: LC-ESI-QTOF
Ms type: MS2
Ion mode: POSITIVE
Collision energy: 40
Fragmentation mode: CID
Ionization: ESI
Column name: Zorbax Eclipse Plus C18 2.1 mm x 150 mm, 3.5 um, Agilent
Retention time: 4.656 min
Precursor m/z: 224.0706
Precursor type: [M+H]+
m/z	relative intensity
77.0401	11
127.0533	14
128.0492	33
139.0545	19
151.0552	71
152.0617	148
153.0692	26
166.0655	69
167.0737	561
168.0804	34
177.0579	32
178.0658	180
179.0733	163
180.0812	416
195.0687	129
196.0768	999
224.0716	512
