Mass spectrum: Etrimfos; LC-ESI-QTOF; MS2; 70 V
Name: Etrimfos
Class: Insecticide
Formula: C10H17N2O4PS
Exact mass: 292.0647
SMILES: CCC1=NC(=CC(=N1)OP(=S)(OC)OC)OCC
InChI: InChI=1S/C10H17N2O4PS/c1-5-8-11-9(15-6-2)7-10(12-8)16-17(18,13-3)14-4/h7H,5-6H2,1-4H3
Instrument: TripleTOF 6600 SCIEX
Instrument type: LC-ESI-QTOF
Ms type: MS2
Ion mode: POSITIVE
Collision energy: 70
Fragmentation mode: CID
Ionization: ESI
Column name: Zorbax Eclipse Plus C18 2.1 mm x 150 mm, 3.5 um, Agilent
Retention time: 14.241 min
Precursor m/z: 293.072
Precursor type: [M+H]+
m/z	relative intensity
40.018	19
42.0336	10
44.9789	474
45.9868	16
46.9914	999
48.983	11
56.0489	152
62.0174	50
62.9986	45
64.9775	23
68.0126	217
70.0642	15
78.9936	682
93.0086	77
94.0043	28
100.0385	10
109.0035	162
110.9651	217
124.9807	200
127.014	19
142.9915	10
