Mass spectrum: Daidzein; LC-ESI-QTOF; MS2; 140 V
Name: Daidzein
Class: Pharmaceutical; Natural_product
Formula: C15H10O4
Exact mass: 254.0579
SMILES: Oc1ccc(cc1)C2=COc3cc(O)ccc3C2=O
InChI: InChI=1S/C15H10O4/c16-10-3-1-9(2-4-10)13-8-19-14-7-11(17)5-6-12(14)15(13)18/h1-8,16-17H
Instrument: TripleTOF 5600 SCIEX
Instrument type: LC-ESI-QTOF
Ms type: MS2
Ion mode: POSITIVE
Collision energy: 140
Fragmentation mode: CID
Ionization: ESI
Column name: Zorbax Eclipse Plus C18 2.1 mm x 150 mm, 3.5 um, Agilent
Retention time: 7.744 min
Precursor m/z: 255.0652
Precursor type: [M+H]+
m/z	relative intensity
35.9991	74
37.0074	342
38.0154	357
39.0231	849
49.0075	119
50.0155	834
51.0229	715
52.0304	89
53.0028	119
59.9993	74
61.007	357
62.0151	611
63.0229	805
65.0381	387
68.9974	164
73.0067	134
74.0149	999
75.0226	372
76.0311	119
77.0385	283
85.0071	104
86.0156	253
87.0221	89
89.0377	193
98.0148	223
99.0222	59
102.0471	89
113.0373	59
115.0537	74
126.0469	119
139.055	104
150.0423	149
152.061	89
