Mass spectrum: Fipronil; LC-ESI-QTOF; MS2; 40 V
Name: Fipronil
Class: Insecticide; Biocide
Formula: C12H4Cl2F6N4OS
Exact mass: 435.9387
SMILES: C1=C(C=C(C(=C1Cl)N2C(=C(C(=N2)C#N)S(=O)C(F)(F)F)N)Cl)C(F)(F)F
InChI: InChI=1S/C12H4Cl2F6N4OS/c13-5-1-4(11(15,16)17)2-6(14)8(5)24-10(22)9(7(3-21)23-24)26(25)12(18,19)20/h1-2H,22H2
Instrument: TripleTOF 6600 SCIEX
Instrument type: LC-ESI-QTOF
Ms type: MS2
Ion mode: POSITIVE
Collision energy: 40
Fragmentation mode: CID
Ionization: ESI
Column name: Zorbax Eclipse Plus C18 2.1 mm x 150 mm, 3.5 um, Agilent
Retention time: 13.577 min
Precursor m/z: 436.946
Precursor type: [M+H]+
m/z	relative intensity
221.0066	479
228.9644	133
246.0014	173
252.9777	117
253.9586	117
254.9672	959
256.9176	47
262.9617	196
270.9206	212
277.9592	86
280.9735	251
285.0119	110
289.9738	999
299.9782	70
305.97	94
314.968	47
315.9769	70
319.9818	204
332.9803	180
341.9446	70
350.9514	39
367.9486	369
