Mass spectrum: Duloxetine; LC-ESI-QTOF; MS2; 60 V
Name: Duloxetine
Class: Pharmaceutical
Formula: C18H19NOS
Exact mass: 297.1187
InChI: InChI=1S/C18H19NOS/c1-19-12-11-17(18-10-5-13-21-18)20-16-9-4-7-14-6-2-3-8-15(14)16/h2-10,13,17,19H,11-12H2,1H3
Instrument: TripleTOF 5600 SCIEX
Instrument type: LC-ESI-QTOF
Ms type: CID
Ion mode: POSITIVE
Collision energy: 60
Ionization: ESI
Column name: Zorbax Eclipse Plus C18 2.1 mm x 150 mm, 3.5 um, Agilent
Retention time: 8.432 min
Precursor m/z: 298.126
Precursor type: [M+H]+
m/z	relative intensity
44.0576	999
91.0559	60
97.0106	103
115.0517	60
123.0241	103
123.0324	68
124.0327	146
127.0551	111
128.0632	94
129.0695	68
153.0673	51
154.076	51
155.0813	60
165.0699	68
178.0752	60
