Mass spectrum: 3,5-bis(hexanoylamino)-2,4,6-triiodobenzoic acid; LC-ESI-QTOF; MS2; 140 V
Name: 3,5-bis(hexanoylamino)-2,4,6-triiodobenzoic acid
Class: Pharmaceutical; Transformation_product
Formula: C19H25I3N2O4
Exact mass: 725.8949
SMILES: CCCCCC(=O)Nc1c(I)c(NC(=O)CCCCC)c(I)c(C(O)=O)c1I
InChI: InChI=1S/C19H25I3N2O4/c1-3-5-7-9-11(25)23-17-14(20)13(19(27)28)15(21)18(16(17)22)24-12(26)10-8-6-4-2/h3-10H2,1-2H3,(H,23,25)(H,24,26)(H,27,28)
Instrument: TripleTOF 5600 SCIEX
Instrument type: LC-ESI-QTOF
Ms type: MS2
Ion mode: POSITIVE
Collision energy: 140
Fragmentation mode: CID
Ionization: ESI
Column name: Zorbax Eclipse Plus C18 2.1 mm x 150 mm, 3.5 um, Agilent
Retention time: 11.575 min
Precursor m/z: 726.9021
Precursor type: [M+H]+
m/z	relative intensity
71.0918	148
77.0272	85
77.0436	85
78.0363	212
79.043	233
79.0598	85
80.051	255
89.0284	191
90.0349	297
91.0434	361
92.0524	127
94.0527	106
103.0445	148
104.0502	212
105.0437	127
106.0282	318
106.0484	106
106.0668	85
107.0362	212
108.0453	573
115.0535	106
116.0368	148
117.0189	106
117.045	573
118.0295	127
118.0527	403
119.0366	127
119.0607	191
120.0455	233
129.0438	127
130.0539	212
131.0374	212
131.06	170
132.045	297
132.0678	85
133.0501	85
134.0202	148
135.0546	106
143.0592	106
144.0385	148
145.0164	106
145.0378	446
146.023	999
146.0463	616
147.0307	233
147.0562	425
148.0392	212
148.0633	595
149.0474	148
158.0492	191
159.054	318
160.0389	318
160.0629	85
161.0469	148
161.0707	935
161.0872	106
172.0253	191
172.0623	170
173.0308	148
174.0434	255
175.0484	127
185.0336	318
186.043	382
187.0499	701
188.0606	191
188.1059	106
191.0454	170
192.0521	318
199.0519	233
200.0593	318
201.0303	106
201.0652	255
203.9306	148
204.1011	191
204.1251	127
205.0586	106
213.0296	212
213.0678	191
214.0399	212
218.0359	106
231.036	106
231.9241	85
243.9487	340
244.1188	127
245.0576	85
248.1116	148
256.1217	106
257.1264	85
271.9419	106
272.9524	127
