Mass spectrum: Ethofumesate; LC-ESI-QTOF; MS2; 20 V
Name: Ethofumesate
Class: Herbicide
Formula: C13H18O5S
Exact mass: 286.0875
SMILES: CCOC1C(c2cc(ccc2O1)OS(=O)(=O)C)(C)C
InChI: InChI=1S/C13H18O5S/c1-5-16-12-13(2,3)10-8-9(18-19(4,14)15)6-7-11(10)17-12/h6-8,12H,5H2,1-4H3
Instrument: TripleTOF 6600 SCIEX
Instrument type: LC-ESI-QTOF
Ms type: MS2
Ion mode: POSITIVE
Collision energy: 20
Fragmentation mode: CID
Ionization: ESI
Column name: Zorbax Eclipse Plus C18 2.1 mm x 150 mm, 3.5 um, Agilent
Retention time: 12.56 min
Precursor m/z: 287.0948
Precursor type: [M+H]+
m/z	relative intensity
93.0673	10
121.0641	999
133.0639	20
137.0581	10
149.0955	41
161.0592	236
162.0654	61
163.0744	72
179.0703	113
180.0736	30
208.1045	51
241.0537	216
259.0639	381
259.0882	10
287.0916	20
