Mass spectrum: Clozapine; LC-ESI-QTOF; MS2; 60 V
Name: Clozapine
Class: Pharmaceutical
Formula: C18H19ClN4
Exact mass: 326.1298
SMILES: CN1CCN(CC1)C2=NC3=C(C=CC(=C3)Cl)NC4=CC=CC=C42
InChI: InChI=1S/C18H19ClN4/c1-22-8-10-23(11-9-22)18-14-4-2-3-5-15(14)20-16-7-6-13(19)12-17(16)21-18/h2-7,12,20H,8-11H2,1H3
Instrument: TripleTOF 6600 SCIEX
Instrument type: LC-ESI-QTOF
Ms type: MS2
Ion mode: POSITIVE
Collision energy: 60
Fragmentation mode: CID
Ionization: ESI
Column name: Zorbax Eclipse Plus C18 2.1 mm x 150 mm, 3.5 um, Agilent
Retention time: 6.951 min
Precursor m/z: 327.1371
Precursor type: [M+H]+
m/z	relative intensity
42.0335	15
90.033	11
123.9937	14
164.0484	41
165.0563	39
191.0596	62
192.0679	999
200.0252	23
215.0369	12
218.082	21
220.0856	18
226.0285	76
227.0364	50
228.0451	16
234.1021	25
240.0429	11
253.0492	32
254.0474	17
270.0783	77
