Mass spectrum: Metalaxyl; LC-ESI-QTOF; MS2; 120 V
Name: Metalaxyl
Class: Fungicide
Formula: C15H21NO4
Exact mass: 279.1471
SMILES: CC1=C(C(=CC=C1)C)N(C(C)C(=O)OC)C(=O)COC
InChI: InChI=1S/C15H21NO4/c1-10-7-6-8-11(2)14(10)16(13(17)9-19-4)12(3)15(18)20-5/h6-8,12H,9H2,1-5H3
Instrument: TripleTOF 6600 SCIEX
Instrument type: LC-ESI-QTOF
Ms type: MS2
Ion mode: POSITIVE
Collision energy: 120
Fragmentation mode: CID
Ionization: ESI
Column name: Zorbax Eclipse Plus C18 2.1 mm x 150 mm, 3.5 um, Agilent
Retention time: 10.17 min
Precursor m/z: 280.1543
Precursor type: [M+H]+
m/z	relative intensity
39.0229	142
45.0336	127
49.0072	52
50.0152	330
51.0227	713
53.0379	30
62.015	75
63.0224	150
65.0382	330
74.0149	37
75.0217	45
77.0385	999
78.0459	90
79.0544	105
80.0491	37
89.0383	555
90.0466	270
91.054	345
102.0456	60
103.0534	135
104.0512	45
105.0444	52
106.0655	67
115.0543	165
116.0486	52
117.0569	270
118.0648	45
130.0649	127
143.0731	60
144.0787	37
