Mass spectrum: Promethazine; LC-ESI-QTOF; MS2; 140 V
Name: Promethazine
Class: Pharmaceutical
Formula: C17H20N2S
Exact mass: 284.1347
SMILES: CC(CN1c2ccccc2Sc3c1cccc3)N(C)C
InChI: InChI=1S/C17H20N2S/c1-13(18(2)3)12-19-14-8-4-6-10-16(14)20-17-11-7-5-9-15(17)19/h4-11,13H,12H2,1-3H3
Instrument: TripleTOF 5600 SCIEX
Instrument type: LC-ESI-QTOF
Ms type: MS2
Ion mode: POSITIVE
Collision energy: 140
Fragmentation mode: CID
Ionization: ESI
Column name: Zorbax Eclipse Plus C18 2.1 mm x 150 mm, 3.5 um, Agilent
Retention time: 7.995 min
Precursor m/z: 285.142
Precursor type: [M+H]+
m/z	relative intensity
41.0365	141
42.0443	196
44.066	31
51.0321	279
52.0357	20
56.0572	999
57.0633	13
57.9934	17
58.0726	75
60.0054	17
62.0483	20
65.0445	86
67.9774	72
68.9853	895
69.0187	24
69.993	24
70.0706	99
71.0788	196
72.0847	24
73.0119	48
74.0199	420
75.0144	17
75.0278	499
75.053	27
76.0228	27
76.0347	82
77.0437	509
77.0754	20
80.9821	31
81.991	165
85.01	51
86.0188	113
86.0985	17
87.0264	161
88.0226	34
88.0339	24
89.0426	237
90.0501	24
92.9831	148
94.9966	34
98.0178	151
99.0122	17
99.0248	86
100.0188	13
100.0336	62
101.0406	127
102.0374	41
102.0491	37
102.0589	27
103.0548	13
108.0085	34
110.0182	37
111.0258	20
112.0198	13
112.0375	17
113.0408	220
114.0361	58
115.0566	68
116.981	27
121.0131	34
123.024	17
124.0338	20
125.0402	99
126.0486	248
127.0549	106
128.0519	31
128.0623	17
137.0429	68
138.0482	44
139.0578	144
140.0525	106
145.0102	13
149.0405	31
150.0485	210
151.0564	179
152.0583	127
153.0603	27
161.0414	20
162.0525	44
163.0583	141
164.0565	68
165.078	17
166.0653	13
169.0146	41
174.0508	17
176.0608	41
177.0621	58
178.0712	13
188.0542	44
189.0613	31
190.0766	17
195.0218	31
196.0306	27
