Mass spectrum: Codeine; LC-ESI-QTOF; MS2; 130 V
Name: Codeine
Formula: C18H21NO3
Exact mass: 299.1521
SMILES: CN1CCC23C4C1CC5=C2C(=C(C=C5)OC)OC3C(C=C4)O
InChI: InChI=1S/C18H21NO3/c1-19-8-7-18-11-4-5-13(20)17(18)22-16-14(21-2)6-3-10(15(16)18)9-12(11)19/h3-6,11-13,17,20H,7-9H2,1-2H3
Instrument: TripleTOF 6600 SCIEX
Instrument type: LC-ESI-QTOF
Ms type: MS2
Ion mode: POSITIVE
Collision energy: 130
Fragmentation mode: CID
Ionization: ESI
Column name: Zorbax Eclipse Plus C18 2.1 mm x 150 mm, 3.5 um, Agilent
Retention time: 5.043 min
Precursor m/z: 300.1594
Precursor type: [M+H]+
m/z	relative intensity
37.0067	46
38.0144	28
39.0222	178
41.0376	16
42.0328	25
44.0482	59
49.0066	14
50.0144	140
51.0223	372
52.0294	23
59.9981	25
61.0065	102
62.0137	185
63.0219	415
64.0296	12
65.0373	217
73.006	32
74.0135	378
75.0216	365
76.0297	275
77.0375	705
78.0456	176
85.0062	39
86.0136	127
87.0211	169
88.0289	97
89.0376	671
90.0448	10
91.0534	52
97.0059	10
98.0132	131
99.021	81
100.0286	36
101.0366	117
102.0451	397
103.0534	25
109.0053	12
110.0126	21
111.0212	34
113.0373	219
114.0448	66
115.0529	999
122.0148	21
123.0227	14
124.0277	10
125.038	95
126.0439	572
127.0527	291
128.06	235
129.0438	28
137.0379	36
138.0449	43
139.052	493
140.0603	16
141.0706	21
149.0374	55
150.0449	646
151.0526	599
152.0605	711
153.0676	18
155.0582	41
161.04	37
162.0457	117
163.053	405
164.0611	104
165.0698	81
174.0438	16
175.053	23
176.0603	115
177.0696	10
179.0592	23
187.0529	91
188.0603	27
189.0684	45
200.0603	14
