Mass spectrum: Doxorubicin; LC-ESI-QTOF; MS2; 80 V
Name: Doxorubicin
Class: Pharmaceutical
Formula: C27H29NO11
Exact mass: 543.1741
SMILES: C[C@H]1[C@H]([C@H](C[C@@H](O1)O[C@H]2C[C@@](Cc3c2c(c4c(c3O)C(=O)c5cccc(c5C4=O)OC)O)(C(=O)CO)O)N)O
InChI: InChI=1S/C27H29NO11/c1-10-22(31)13(28)6-17(38-10)39-15-8-27(36,16(30)9-29)7-12-19(15)26(35)21-20(24(12)33)23(32)11-4-3-5-14(37-2)18(11)25(21)34/h3-5,10,13,15,17,22,29,31,33,35-36H,6-9,28H2,1-2H3/t10-,13-,15-,17-,22+,27-/m0/s1
Instrument: TripleTOF 5600 SCIEX
Instrument type: LC-ESI-QTOF
Ms type: MS2
Ion mode: POSITIVE
Collision energy: 80
Fragmentation mode: CID
Ionization: ESI
Column name: Zorbax Eclipse Plus C18 2.1 mm x 150 mm, 3.5 um, Agilent
Retention time: 7.064 min
Precursor m/z: 544.1813
Precursor type: [M+H]+
m/z	relative intensity
69.0392	41
71.0518	33
72.0465	74
86.0607	305
113.0591	57
118.0377	41
121.0288	66
121.0631	49
121.0768	41
130.0852	140
135.0421	107
145.0287	33
176.0605	41
191.0841	33
202.0739	74
204.0554	49
206.0781	49
217.0633	41
218.0725	57
219.0785	66
224.0111	41
231.0796	66
232.0517	132
233.0578	57
234.0656	49
245.0588	41
247.0763	99
259.0722	66
261.053	115
262.0594	140
272.0519	41
273.0515	57
275.0697	57
278.056	57
287.0679	132
289.0476	148
290.0523	206
302.057	49
303.0614	41
305.0459	49
305.0775	74
306.0497	784
307.0577	99
308.0803	41
315.0636	33
317.0439	49
318.0551	123
321.0791	115
329.0477	189
345.0328	66
346.046	999
