Mass spectrum: Phenylbutazone; LC-ESI-QTOF; MS2; 40 V
Name: Phenylbutazone
Class: Pharmaceutical
Formula: C19H20N2O2
Exact mass: 308.1525
SMILES: CCCCC1C(=O)N(N(C1=O)C2=CC=CC=C2)C3=CC=CC=C3
InChI: InChI=1S/C19H20N2O2/c1-2-3-14-17-18(22)20(15-10-6-4-7-11-15)21(19(17)23)16-12-8-5-9-13-16/h4-13,17H,2-3,14H2,1H3
Instrument: TripleTOF 5600 SCIEX
Instrument type: LC-ESI-QTOF
Ms type: MS2
Ion mode: NEGATIVE
Collision energy: 40
Fragmentation mode: CID
Ionization: ESI
Column name: Zorbax Eclipse Plus C18 2.1 mm x 150 mm, 3.5 um, Agilent
Retention time: 13.103 min
Precursor m/z: 307.1452
Precursor type: [M-H]-
m/z	relative intensity
77.0389	256
82.0656	69
92.0502	653
95.0501	91
131.0385	999
144.0462	51
155.0754	118
157.0545	167
158.0981	130
160.1141	202
168.0829	187
170.0988	315
188.109	108
279.152	187
