Mass spectrum: Gabapentin-lactam; LC-ESI-QTOF; MS2; 40 V
Name: Gabapentin-lactam
Class: Pharmaceutical; Transformation_product-Metabolite
Formula: C9H15NO
Exact mass: 153.1154
SMILES: C1CCC2(CC1)CC(=O)NC2
InChI: InChI=1S/C9H15NO/c11-8-6-9(7-10-8)4-2-1-3-5-9/h1-7H2,(H,10,11)
Instrument: TripleTOF 5600 SCIEX
Instrument type: LC-ESI-QTOF
Ms type: MS2
Ion mode: POSITIVE
Collision energy: 40
Fragmentation mode: CID
Ionization: ESI
Column name: Zorbax Eclipse Plus C18 2.1 mm x 150 mm, 3.5 um, Agilent
Retention time: 7.593 min
Precursor m/z: 154.1227
Precursor type: [M+H]+
m/z	relative intensity
39.0223	34
41.0384	68
43.0178	30
44.0128	80
53.0379	22
54.0336	45
55.017	30
55.0541	264
60.0433	38
65.0384	76
67.054	999
69.0702	61
72.0442	130
77.0387	111
79.054	65
80.0627	38
81.0699	26
91.0544	118
93.0694	275
95.0854	830
109.1014	26
112.1102	30
154.122	202
