Mass spectrum: 4-Acetamidophenyl D-glucopyranosiduronic acid; LC-ESI-QTOF; MS2; 110 V
Name: 4-Acetamidophenyl D-glucopyranosiduronic acid
Class: Metabolite; Pharmaceutical
Formula: C14H17NO8
Exact mass: 327.0954
SMILES: O=C(Nc2ccc(OC1O[C@H](C(=O)O)[C@@H](O)[C@H](O)[C@H]1O)cc2)C
InChI: InChI=1S/C14H17NO8/c1-6(16)15-7-2-4-8(5-3-7)22-14-11(19)9(17)10(18)12(23-14)13(20)21/h2-5,9-12,14,17-19H,1H3,(H,15,16)(H,20,21)/t9-,10-,11+,12-,14?/m0/s1
Instrument: TripleTOF 5600 SCIEX
Instrument type: LC-ESI-QTOF
Ms type: MS2
Ion mode: NEGATIVE
Collision energy: 110
Fragmentation mode: CID
Ionization: ESI
Column name: Zorbax Eclipse Plus C18 2.1 mm x 150 mm, 3.5 um, Agilent
Retention time: 4.58 min
Precursor m/z: 326.0881
Precursor type: [M-H]-
m/z	relative intensity
41.0082	184
59.0172	210
71.0167	78
72.9969	78
93.039	105
107.0386	999
108.0459	78
118.0326	341
134.0266	52
