Mass spectrum: Tyrosine; LC-ESI-QTOF; MS2; 40 V
Name: Tyrosine
Class: Pharmaceutical; Natural_product
Formula: C9H11NO3
Exact mass: 181.0739
SMILES: NC(Cc1ccc(O)cc1)C(O)=O
InChI: InChI=1S/C9H11NO3/c10-8(9(12)13)5-6-1-3-7(11)4-2-6/h1-4,8,11H,5,10H2,(H,12,13)
Instrument: TripleTOF 5600 SCIEX
Instrument type: LC-ESI-QTOF
Ms type: MS2
Ion mode: NEGATIVE
Collision energy: 40
Fragmentation mode: CID
Ionization: ESI
Column name: Zorbax Eclipse Plus C18 2.1 mm x 150 mm, 3.5 um, Agilent
Retention time: 2.614 min
Precursor m/z: 180.0666
Precursor type: [M-H]-
m/z	relative intensity
45.0025	570
72.0108	285
90.9965	142
92.9912	428
93.0358	285
119.05	999
119.0677	142
136.9825	142
163.0406	142
180.0687	142
