Mass spectrum: Tetraphenylphosphonium; LC-ESI-QTOF; MS2; 140 V
Name: Tetraphenylphosphonium
Class: Industrial_process
Formula: [C24H20P]+
Exact mass: 339.1297
SMILES: c1ccc(cc1)[P+](c2ccccc2)(c3ccccc3)c4ccccc4
InChI: InChI=1S/C24H20P/c1-5-13-21(14-6-1)25(22-15-7-2-8-16-22,23-17-9-3-10-18-23)24-19-11-4-12-20-24/h1-20H/q+1
Instrument: TripleTOF 5600 SCIEX
Instrument type: LC-ESI-QTOF
Ms type: MS2
Ion mode: POSITIVE
Collision energy: 140
Fragmentation mode: CID
Ionization: ESI
Column name: Zorbax Eclipse Plus C18 2.1 mm x 150 mm, 3.5 um, Agilent
Retention time: 8.633 min
Precursor m/z: 339.1297
Precursor type: [M]+
m/z	relative intensity
56.9942	70
65.0428	74
74.0185	58
76.0337	69
78.9752	61
79.9832	190
80.9905	275
87.0246	58
89.039	300
102.0462	150
103.9814	52
107.0048	999
113.0385	104
115.0545	413
126.0466	335
131.0045	128
133.0185	77
139.0539	347
150.0461	306
151.0543	658
152.0622	913
155.0057	86
156.0125	137
157.0202	559
179.0034	53
180.0123	64
181.0202	572
183.035	89
