Mass spectrum: Abacavir carboxylic acid; LC-ESI-QTOF; MS2; 120 V
Name: Abacavir carboxylic acid
Class: Pharmaceutical; Metabolite; Transformation_product
Formula: C14H16N6O2
Exact mass: 300.1335
SMILES: C1CC1NC2=NC(=NC3=C2N=CN3C4CC(C=C4)C(=O)O)N
InChI: InChI=1S/C14H16N6O2/c15-14-18-11(17-8-2-3-8)10-12(19-14)20(6-16-10)9-4-1-7(5-9)13(21)22/h1,4,6-9H,2-3,5H2,(H,21,22)(H3,15,17,18,19)
Instrument: TripleTOF 5600 SCIEX
Instrument type: LC-ESI-QTOF
Ms type: MS2
Ion mode: POSITIVE
Collision energy: 120
Fragmentation mode: CID
Ionization: ESI
Column name: Zorbax Eclipse Plus C18 2.1 mm x 150 mm, 3.5 um, Agilent
Retention time: 5.194 min
Precursor m/z: 301.1408
Precursor type: [M+H]+
m/z	relative intensity
40.027	71
43.034	160
43.0432	124
51.027	71
53.0178	410
53.0424	89
54.0249	231
54.0371	142
55.0331	535
55.0569	89
56.052	89
65.0167	107
65.0411	999
66.0233	107
66.0347	71
67.0343	196
67.0565	374
68.0267	338
78.0344	71
79.0301	124
80.0251	178
81.0398	178
92.0259	285
93.047	71
94.04	160
106.0395	89
107.0342	214
108.0426	196
109.0509	124
119.0366	71
