Mass spectrum: Mandipropamid; LC-ESI-QTOF; MS2; 130 V
Name: Mandipropamid
Class: Fungicide
Formula: C23H22ClNO4
Exact mass: 411.1237
SMILES: COC1=C(C=CC(=C1)CCNC(=O)C(C2=CC=C(C=C2)Cl)OCC#C)OCC#C
InChI: InChI=1S/C23H22ClNO4/c1-4-14-28-20-11-6-17(16-21(20)27-3)12-13-25-23(26)22(29-15-5-2)18-7-9-19(24)10-8-18/h1-2,6-11,16,22H,12-15H2,3H3,(H,25,26)
Instrument: TripleTOF 6600 SCIEX
Instrument type: LC-ESI-QTOF
Ms type: MS2
Ion mode: POSITIVE
Collision energy: 130
Fragmentation mode: CID
Ionization: ESI
Column name: Zorbax Eclipse Plus C18 2.1 mm x 150 mm, 3.5 um, Agilent
Retention time: 12.239 min
Precursor m/z: 412.131
Precursor type: [M+H]+
m/z	relative intensity
37.0068	22
39.0226	111
50.0148	55
51.0226	138
55.0187	27
61.0074	55
62.0146	99
63.0224	382
64.03	38
65.0383	349
66.0461	33
72.9835	222
74.0143	55
75.0004	27
75.022	88
76.03	61
77.0381	799
78.0458	111
79.0529	88
89.038	999
90.0457	316
91.0539	516
93.0566	49
94.0655	27
95.0485	44
98.9988	421
101.0373	22
102.0455	99
103.0542	160
104.0496	55
106.0639	38
107.0491	77
110.9982	27
115.0539	344
117.0567	283
118.0639	61
119.0477	22
125.0149	266
126.0457	55
127.0536	99
128.0609	166
130.0638	44
133.0507	33
139.0536	94
146.0598	22
150.0466	38
151.0544	122
152.0611	260
153.0688	72
155.0608	27
163.0541	99
164.0612	99
165.0694	299
176.0609	116
177.0691	72
178.0767	99
181.0636	44
187.0526	27
188.0605	33
189.0697	133
190.0629	27
190.076	22
191.073	44
200.0614	38
201.0697	33
202.0759	66
203.0783	27
204.0782	49
213.068	55
