Mass spectrum: Mitomycin A; LC-ESI-QTOF; MS2; 80 V
Name: Mitomycin A
Class: Pharmaceutical
Formula: C16H19N3O6
Exact mass: 349.1274
SMILES: COC1=C(C)C(=O)C2=C([C@H](COC(N)=O)[C@]3(OC)[C@@H]4N[C@@H]4CN23)C1=O
InChI: InChI=1S/C16H19N3O6/c1-6-11(20)10-9(12(21)13(6)23-2)7(5-25-15(17)22)16(24-3)14-8(18-14)4-19(10)16/h7-8,14,18H,4-5H2,1-3H3,(H2,17,22)/t7-,8+,14+,16-/m0/s1
Instrument: TripleTOF 5600 SCIEX
Instrument type: LC-ESI-QTOF
Ms type: MS2
Ion mode: POSITIVE
Collision energy: 80
Fragmentation mode: CID
Ionization: ESI
Column name: Zorbax Eclipse Plus C18 2.1 mm x 150 mm, 3.5 um, Agilent
Retention time: 7.046 min
Precursor m/z: 350.1347
Precursor type: [M+H]+
m/z	relative intensity
65.0413	34
66.0506	34
67.0454	23
76.0291	23
77.0418	323
77.0711	28
78.0359	51
78.0462	46
78.0601	28
79.0432	34
79.0571	40
80.0511	40
89.039	173
90.0479	86
91.0555	202
92.0532	86
93.0564	40
101.038	51
102.0332	23
102.0462	69
103.0409	51
103.0533	161
103.072	23
104.0133	40
104.0496	381
104.0678	23
105.0439	34
105.0562	46
106.064	57
114.0454	46
115.0541	421
116.0481	248
117.0577	398
117.0781	46
118.0491	46
118.0649	306
119.0693	115
120.046	40
126.0482	23
127.0525	86
128.0483	300
129.0572	132
130.0495	46
130.0644	554
131.0598	456
132.0433	80
132.0671	144
132.084	40
133.0483	57
133.0743	28
134.0583	40
140.0491	132
141.057	150
141.0744	23
142.0503	127
142.0632	282
143.0647	323
144.0432	63
144.0792	80
145.0396	57
145.0737	46
146.0599	161
147.0671	34
152.0478	28
153.0577	28
154.0643	179
155.0589	525
156.0467	28
156.0668	629
156.104	34
157.0503	63
157.0749	999
158.0601	115
158.0832	34
159.0543	230
160.0385	57
160.0742	57
161.0463	28
162.0531	23
166.0678	28
167.0581	51
168.0666	167
169.0755	612
170.058	57
170.082	167
171.0572	86
171.0917	109
172.0381	23
172.0756	69
173.0451	34
174.0568	80
179.0619	40
181.0747	219
182.0591	28
182.0844	69
183.0552	46
183.0899	46
184.0618	138
184.0801	28
185.0692	363
186.0538	75
187.07	23
188.0706	40
197.0701	213
198.0768	138
199.086	219
200.0672	23
202.0468	23
209.0695	34
211.0866	86
212.0578	40
213.0659	236
214.0708	57
215.0756	28
225.0611	51
226.0719	57
227.0788	548
