Mass spectrum: Aclonifen; LC-ESI-QTOF; MS2; 90 V
Name: Aclonifen
Class: Herbicide
Formula: C12H9ClN2O3
Exact mass: 264.0302
SMILES: Nc1c(Cl)c(Oc2ccccc2)ccc1[N+]([O-])=O
InChI: InChI=1S/C12H9ClN2O3/c13-11-10(18-8-4-2-1-3-5-8)7-6-9(12(11)14)15(16)17/h1-7H,14H2
Instrument: TripleTOF 5600 SCIEX
Instrument type: LC-ESI-QTOF
Ms type: MS2
Ion mode: POSITIVE
Collision energy: 90
Fragmentation mode: CID
Ionization: ESI
Column name: Zorbax Eclipse Plus C18 2.1 mm x 150 mm, 3.5 um, Agilent
Retention time: 13.815 min
Precursor m/z: 265.0374
Precursor type: [M+H]+
m/z	relative intensity
52.0238	159
65.0429	39
72.9875	51
74.0179	45
75.0264	176
76.0219	51
76.0341	74
77.0419	999
78.0373	97
78.0548	34
80.0161	45
84.986	45
86.0174	68
88.0205	28
88.0327	85
89.0402	28
90.0352	22
96.9849	28
98.0187	28
99.0245	39
101.0402	171
102.0468	194
103.0557	28
112.0182	45
112.0313	28
113.0383	97
114.047	34
115.0562	45
125.0058	34
125.0395	74
126.0471	411
127.0549	667
128.0485	57
128.0611	159
129.0451	22
137.0397	39
138.0332	51
138.0472	39
139.0538	45
140.0498	34
152.0502	34
153.0574	79
154.0643	79
155.0496	102
