Mass spectrum: Flecainide meta-O-dealkylated; LC-ESI-QTOF; MS2; 30 V
Name: Flecainide meta-O-dealkylated
Class: Pharmaceutical; Transformation_product; Transformation_product-Metabolite
Formula: C15H19F3N2O3
Exact mass: 332.1348
SMILES: C1CCNC(C1)CNC(=O)C2=C(C=CC(=C2)O)OCC(F)(F)F
InChI: InChI=1S/C15H19F3N2O3/c16-15(17,18)9-23-13-5-4-11(21)7-12(13)14(22)20-8-10-3-1-2-6-19-10/h4-5,7,10,19,21H,1-3,6,8-9H2,(H,20,22)
Instrument: TripleTOF 5600 SCIEX
Instrument type: LC-ESI-QTOF
Ms type: MS2
Ion mode: POSITIVE
Collision energy: 30
Fragmentation mode: CID
Ionization: ESI
Column name: Zorbax Eclipse Plus C18 2.1 mm x 150 mm, 3.5 um, Agilent
Retention time: 5.586 min
Precursor m/z: 333.1421
Precursor type: [M+H]+
m/z	relative intensity
81.073	46
84.0837	15
98.0974	177
136.0135	13
155.0121	14
171.0227	11
199.0161	11
216.0989	12
219.022	669
233.1006	63
236.0486	19
315.12	20
316.1087	999
333.1349	684
