Mass spectrum: Thiamine Disulfide; LC-ESI-QTOF; MS2; 40 V
Name: Thiamine Disulfide
Class: Pharmaceutical
Formula: C24H34N8O4S2
Exact mass: 562.2144
SMILES: CC1=NC=C(C(=N1)N)CN(C=O)C(=C(CCO)SSC(=C(C)N(CC2=CN=C(N=C2N)C)C=O)CCO)C
InChI: InChI=1S/C24H34N8O4S2/c1-15(31(13-35)11-19-9-27-17(3)29-23(19)25)21(5-7-33)37-38-22(6-8-34)16(2)32(14-36)12-20-10-28-18(4)30-24(20)26/h9-10,13-14,33-34H,5-8,11-12H2,1-4H3,(H2,25,27,29)(H2,26,28,30)
Instrument: TripleTOF 6600 SCIEX
Instrument type: LC-ESI-QTOF
Ms type: MS2
Ion mode: POSITIVE
Collision energy: 40
Fragmentation mode: CID
Ionization: ESI
Column name: Zorbax Eclipse Plus C18 2.1 mm x 150 mm, 3.5 um, Agilent
Retention time: 4.48 min
Precursor m/z: 563.2217
Precursor type: [M+H]+
m/z	relative intensity
81.0437	10
82.0513	13
110.0704	543
115.0203	10
122.0706	135
123.0786	804
124.0863	999
137.0817	34
139.0967	30
144.0472	36
149.0816	33
154.0431	14
167.0918	39
204.1128	32
219.0698	15
221.1398	147
223.1024	21
231.1229	12
233.0866	51
234.0926	15
247.0999	13
249.1345	74
251.0964	14
253.1127	152
254.1194	34
263.0964	328
264.1044	236
265.112	124
281.1074	101
282.1149	46
283.1235	153
442.1601	67
545.2142	210
563.2253	689
