Mass spectrum: 4-(2,4-Dichlorophenoxy)butanoic acid; LC-ESI-QTOF; MS2; 70 V
Name: 4-(2,4-Dichlorophenoxy)butanoic acid
Class: Herbicide
Formula: C10H10Cl2O3
Exact mass: 248.0007
SMILES: C1=CC(=C(C=C1Cl)Cl)OCCCC(=O)O
InChI: InChI=1S/C10H10Cl2O3/c11-7-3-4-9(8(12)6-7)15-5-1-2-10(13)14/h3-4,6H,1-2,5H2,(H,13,14)
Instrument: TripleTOF 6600 SCIEX
Instrument type: LC-ESI-QTOF
Ms type: MS2
Ion mode: POSITIVE
Collision energy: 70
Fragmentation mode: CID
Ionization: ESI
Column name: Zorbax Eclipse Plus C18 2.1 mm x 150 mm, 3.5 um, Agilent
Retention time: 11.685 min
Precursor m/z: 249.008
Precursor type: [M+H]+
m/z	relative intensity
36	17
37.0075	105
38.0046	17
38.0167	87
39.0223	771
41.0392	420
43.0177	683
43.0551	17
44.9967	87
45.0339	999
51.024	35
65.0384	35
69.0312	70
72.9841	227
73.0064	35
74.0145	368
75.0226	175
77.0391	122
78.0479	17
79.0523	35
82.9452	192
84.9823	35
87.0412	17
89.0368	52
90.0471	35
91.0546	35
98.9979	52
105.0675	17
106.9449	17
106.9534	35
108.9838	420
109.9947	17
110.997	17
112.0057	52
115.0546	52
125.012	35
128.0028	35
132.9597	245
139.0091	17
144.9609	52
149.0179	17
