Mass spectrum: Dehydroaripiprazole; LC-ESI-QTOF; MS2; 70 V
Name: Dehydroaripiprazole
Class: Metabolite
Formula: C23H25Cl2N3O2
Exact mass: 445.1324
SMILES: C1CN(CCN1CCCCOC2=CC3=C(C=C2)C=CC(=O)N3)C4=C(C(=CC=C4)Cl)Cl
InChI: InChI=1S/C23H25Cl2N3O2/c24-19-4-3-5-21(23(19)25)28-13-11-27(12-14-28)10-1-2-15-30-18-8-6-17-7-9-22(29)26-20(17)16-18/h3-9,16H,1-2,10-15H2,(H,26,29)
Instrument: TripleTOF 5600 SCIEX
Instrument type: LC-ESI-QTOF
Ms type: MS2
Ion mode: POSITIVE
Collision energy: 70
Fragmentation mode: CID
Ionization: ESI
Column name: Zorbax Eclipse Plus C18 2.1 mm x 150 mm, 3.5 um, Agilent
Retention time: 7.84 min
Precursor m/z: 446.1397
Precursor type: [M+H]+
m/z	relative intensity
41.0379	23
42.0328	19
44.0499	34
55.0536	103
56.0494	288
69.0697	69
70.0651	111
84.0805	261
89.0393	42
91.0526	15
96.0804	46
98.0963	999
108.9831	15
116.0489	184
117.057	92
118.0645	99
128.0481	157
138.0099	15
144.0436	242
144.9601	42
146.0586	80
151.019	23
152.0256	211
153.0336	192
162.0545	53
164.0249	19
166.0389	30
171.9717	268
173.9882	49
174.0562	73
185.9857	15
188.0025	230
193.0493	19
200.003	172
212.9978	23
227.0054	26
228.0225	165
243.0448	19
285.0644	34
285.0907	361
