Mass spectrum: Phenothiazine; LC-ESI-QTOF; MS2; 150 V
Name: Phenothiazine
Class: Pharmaceutical
Formula: C12H9NS
Exact mass: 199.0456
SMILES: C1=CC=C2C(=C1)NC3=CC=CC=C3S2
InChI: InChI=1S/C12H9NS/c1-3-7-11-9(5-1)13-10-6-2-4-8-12(10)14-11/h1-8,13H
Instrument: TripleTOF 6600 SCIEX
Instrument type: LC-ESI-QTOF
Ms type: MS2
Ion mode: POSITIVE
Collision energy: 150
Fragmentation mode: CID
Ionization: ESI
Column name: Zorbax Eclipse Plus C18 2.1 mm x 150 mm, 3.5 um, Agilent
Retention time: 13.113 min
Precursor m/z: 200.0529
Precursor type: [M+H]+
m/z	relative intensity
35.9987	75
37.0067	314
38.014	175
39.0219	157
43.97	69
44.9783	131
49.0062	314
50.0142	999
51.0221	282
52.017	37
59.9981	119
61.0063	785
62.0137	659
63.0215	307
67.97	131
68.9778	527
73.006	175
74.0136	515
75.0086	25
75.0206	87
81.9846	31
83.9986	75
85.006	370
86.0129	213
87.0209	43
92.9778	50
97.0053	56
98.0126	94
99.0098	31
109.0045	43
110.0133	37
