Mass spectrum: Venlafaxine; LC-ESI-QTOF; MS2; 100 V
Name: Venlafaxine
Class: Pharmaceutical
Formula: C17H27NO2
Exact mass: 277.2042
SMILES: CN(C)CC(c1ccc(cc1)OC)C2(CCCCC2)O
InChI: InChI=1S/C17H27NO2/c1-18(2)13-16(17(19)11-5-4-6-12-17)14-7-9-15(20-3)10-8-14/h7-10,16,19H,4-6,11-13H2,1-3H3
Instrument: TripleTOF 5600 SCIEX
Instrument type: LC-ESI-QTOF
Ms type: MS2
Ion mode: POSITIVE
Collision energy: 100
Fragmentation mode: CID
Ionization: ESI
Column name: Zorbax Eclipse Plus C18 2.1 mm x 150 mm, 3.5 um, Agilent
Retention time: 6.626 min
Precursor m/z: 278.2115
Precursor type: [M+H]+
m/z	relative intensity
42.0424	139
51.0288	102
52.037	36
56.0546	21
58.0713	999
65.043	254
76.0348	18
77.0418	487
78.0495	675
79.0566	66
81.0728	51
89.0405	45
91.0564	387
102.047	33
103.0549	72
104.0619	15
106.0418	33
107.0481	18
115.0547	263
116.0653	18
121.0651	151
127.0527	21
128.0626	72
129.0703	15
131.0497	33
141.0689	12
144.0627	12
