Mass spectrum: Trifloxystrobin; LC-ESI-QTOF; MS2; 60 V
Name: Trifloxystrobin
Class: Fungicide
Formula: C20H19F3N2O4
Exact mass: 408.1297
SMILES: CC(=NOCC1=CC=CC=C1C(=NOC)C(=O)OC)C2=CC(=CC=C2)C(F)(F)F
InChI: InChI=1S/C20H19F3N2O4/c1-13(14-8-6-9-16(11-14)20(21,22)23)24-29-12-15-7-4-5-10-17(15)18(25-28-3)19(26)27-2/h4-11H,12H2,1-3H3
Instrument: TripleTOF 5600 SCIEX
Instrument type: LC-ESI-QTOF
Ms type: MS2
Ion mode: POSITIVE
Collision energy: 60
Fragmentation mode: CID
Ionization: ESI
Column name: Zorbax Eclipse Plus C18 2.1 mm x 150 mm, 3.5 um, Agilent
Retention time: 15.037 min
Precursor m/z: 409.137
Precursor type: [M+H]+
m/z	relative intensity
75.0278	18
77.0436	20
79.0587	12
89.0422	147
90.0498	48
91.0577	124
95.0322	85
103.056	28
104.0632	16
105.0723	35
115.0464	32
116.051	542
117.0588	168
118.0664	157
119.0502	28
125.021	43
130.0663	192
131.0738	461
132.0815	127
143.0378	38
145.0262	999
146.0619	93
147.0696	17
173.0326	190
186.0524	871
