Mass spectrum: Monolinuron; LC-ESI-QTOF; MS2; 40 V
Name: Monolinuron
Class: Herbicide
Formula: C9H11ClN2O2
Exact mass: 214.0509
SMILES: CN(C(=O)NC1=CC=C(C=C1)Cl)OC
InChI: InChI=1S/C9H11ClN2O2/c1-12(14-2)9(13)11-8-5-3-7(10)4-6-8/h3-6H,1-2H3,(H,11,13)
Instrument: TripleTOF 5600 SCIEX
Instrument type: LC-ESI-QTOF
Ms type: MS2
Ion mode: POSITIVE
Collision energy: 40
Fragmentation mode: CID
Ionization: ESI
Column name: Zorbax Eclipse Plus C18 2.1 mm x 150 mm, 3.5 um, Agilent
Retention time: 10.275 min
Precursor m/z: 215.0582
Precursor type: [M+H]+
m/z	relative intensity
72.9839	60
90.034	60
91.0421	43
92.0498	43
98.9991	999
100.009	52
119.0596	277
126.0094	590
127.0185	729
147.0553	130
148.0606	138
183.0313	52
