Mass spectrum: Climbazole; LC-ESI-QTOF; MS2; 80 V
Name: Climbazole
Class: Pharmaceutical; Personal_care_product
Formula: C15H17ClN2O2
Exact mass: 292.0979
SMILES: CC(C)(C)C(=O)C(Oc1ccc(Cl)cc1)n2ccnc2
InChI: InChI=1S/C15H17ClN2O2/c1-15(2,3)13(19)14(18-9-8-17-10-18)20-12-6-4-11(16)5-7-12/h4-10,14H,1-3H3
Instrument: TripleTOF 5600 SCIEX
Instrument type: LC-ESI-QTOF
Ms type: MS2
Ion mode: POSITIVE
Collision energy: 80
Fragmentation mode: CID
Ionization: ESI
Column name: Zorbax Eclipse Plus C18 2.1 mm x 150 mm, 3.5 um, Agilent
Retention time: 8.761 min
Precursor m/z: 293.1051
Precursor type: [M+H]+
m/z	relative intensity
54.0413	11
57.0757	379
65.0431	114
66.0517	17
68.0435	31
69.0494	65
69.0743	54
70.0819	28
72.9876	513
73.015	34
73.0364	14
74.0184	299
74.0455	11
75.0265	973
76.0323	11
77.0417	194
78.0497	22
81.0462	168
82.0563	25
84.9856	99
89.0409	19
91.055	111
93.036	28
94.0423	139
99.0005	999
101.0397	11
102.0466	17
103.0532	11
109.0393	51
110.9997	784
111.0426	17
113.0167	34
125.0146	31
126.9947	39
128.0008	19
128.063	17
129.0072	11
139.0058	85
141.0101	34
