Mass spectrum: N-Isopropyl-N'-phenyl-p-phenylenediamine; LC-ESI-QTOF; MS2; 70 V
Name: N-Isopropyl-N'-phenyl-p-phenylenediamine
Class: Industrial_process
Formula: C15H18N2
Exact mass: 226.147
SMILES: CC(C)Nc1ccc(cc1)Nc2ccccc2
InChI: InChI=1S/C15H18N2/c1-12(2)16-14-8-10-15(11-9-14)17-13-6-4-3-5-7-13/h3-12,16-17H,1-2H3
Instrument: TripleTOF 6600 SCIEX
Instrument type: LC-ESI-QTOF
Ms type: MS2
Ion mode: POSITIVE
Collision energy: 70
Fragmentation mode: CID
Ionization: ESI
Column name: Zorbax Eclipse Plus C18 2.1 mm x 150 mm, 3.5 um, Agilent
Retention time: 7.24 min
Precursor m/z: 227.1543
Precursor type: [M+H]+
m/z	relative intensity
39.0227	12
51.0218	12
53.038	87
63.0216	40
65.0379	37
66.0453	41
77.0375	56
78.0328	21
79.0411	19
80.0489	999
81.0566	18
89.0368	11
90.0321	47
91.0401	48
92.048	16
93.0558	63
105.0434	27
106.0513	14
107.0592	656
115.0526	48
116.051	10
117.055	18
118.051	44
127.0518	19
128.059	46
129.0674	28
130.0637	40
139.0523	97
140.0489	82
143.0714	14
154.0631	26
155.068	11
156.0791	42
166.0634	138
167.0708	139
168.0701	52
181.0732	79
182.081	85
183.0904	37
184.0974	11
