Mass spectrum: Bosentan; LC-ESI-QTOF; MS2; 90 V
Name: Bosentan
Class: Pharmaceutical
Formula: C27H29N5O6S
Exact mass: 551.1839
SMILES: CC(C)(C)C1=CC=C(C=C1)S(=O)(=O)NC2=C(C(=NC(=N2)C3=NC=CC=N3)OCCO)OC4=CC=CC=C4OC
InChI: InChI=1S/C27H29N5O6S/c1-27(2,3)18-10-12-19(13-11-18)39(34,35)32-23-22(38-21-9-6-5-8-20(21)36-4)26(37-17-16-33)31-25(30-23)24-28-14-7-15-29-24/h5-15,33H,16-17H2,1-4H3,(H,30,31,32)
Instrument: TripleTOF 5600 SCIEX
Instrument type: LC-ESI-QTOF
Ms type: MS2
Ion mode: NEGATIVE
Collision energy: 90
Fragmentation mode: CID
Ionization: ESI
Column name: Zorbax Eclipse Plus C18 2.1 mm x 150 mm, 3.5 um, Agilent
Retention time: 12.118 min
Precursor m/z: 550.1766
Precursor type: [M-H]-
m/z	relative intensity
41.9982	217
63.962	846
66.0099	238
108.022	130
116.0377	217
117.0231	65
117.0729	108
118.031	477
119.0371	130
132.0344	390
133.1035	999
134.0252	369
144.0365	65
145.0407	86
149.0976	304
157.0776	86
158.0368	434
158.0851	86
170.0445	86
171.0194	65
173.0384	130
173.1112	195
181.0324	108
197.0644	673
201.0449	86
202.0433	65
248.0624	173
249.0686	108
277.0626	369
278.0723	217
286.1089	86
394.1288	152
458.092	846
