Mass spectrum: Bexarotene; LC-ESI-QTOF; MS2; 40 V
Name: Bexarotene
Class: Pharmaceutical
Formula: C24H28O2
Exact mass: 348.2089
SMILES: Cc1cc2c(cc1C(=C)c3ccc(cc3)C(O)=O)C(C)(C)CCC2(C)C
InChI: InChI=1S/C24H28O2/c1-15-13-20-21(24(5,6)12-11-23(20,3)4)14-19(15)16(2)17-7-9-18(10-8-17)22(25)26/h7-10,13-14H,2,11-12H2,1,3-6H3,(H,25,26)
Instrument: TripleTOF 5600 SCIEX
Instrument type: LC-ESI-QTOF
Ms type: MS2
Ion mode: POSITIVE
Collision energy: 40
Fragmentation mode: CID
Ionization: ESI
Column name: Zorbax Eclipse Plus C18 2.1 mm x 150 mm, 3.5 um, Agilent
Retention time: 17.591 min
Precursor m/z: 349.2162
Precursor type: [M+H]+
m/z	relative intensity
69.0743	72
77.0417	72
103.0552	60
129.0683	60
147.0425	276
157.0991	72
171.1184	60
192.0903	96
205.0974	60
227.1756	192
251.1046	276
265.1222	264
279.1357	469
293.1503	72
305.1542	96
319.1711	84
331.1978	60
334.1894	84
349.2172	999
