Mass spectrum: Losartan; LC-ESI-QTOF; MS2; 40 V
Name: Losartan
Class: Pharmaceutical
Formula: C22H23ClN6O
Exact mass: 422.1622
SMILES: CCCCc1nc(c(n1Cc2ccc(cc2)c3ccccc3c4n[nH]nn4)CO)Cl
InChI: InChI=1S/C22H23ClN6O/c1-2-3-8-20-24-21(23)19(14-30)29(20)13-15-9-11-16(12-10-15)17-6-4-5-7-18(17)22-25-27-28-26-22/h4-7,9-12,30H,2-3,8,13-14H2,1H3,(H,25,26,27,28)
Instrument: TripleTOF 5600 SCIEX
Instrument type: LC-ESI-QTOF
Ms type: MS2
Ion mode: POSITIVE
Collision energy: 40
Fragmentation mode: CID
Ionization: ESI
Column name: Zorbax Eclipse Plus C18 2.1 mm x 150 mm, 3.5 um, Agilent
Retention time: 9.819 min
Precursor m/z: 423.1695
Precursor type: [M+H]+
m/z	relative intensity
142.0292	25
151.0537	16
152.0624	23
153.0706	34
165.0704	24
167.0728	13
171.0677	123
178.0678	72
179.0734	53
180.0814	230
190.0657	114
191.0725	19
192.0779	206
205.0762	112
206.0846	203
207.0911	999
214.0646	11
235.0954	78
241.0758	51
243.0924	10
258.1014	56
281.0938	13
282.1004	24
294.0755	11
298.1201	13
324.1475	24
341.173	58
362.1383	36
377.1484	103
405.1547	53
