Mass spectrum: Trazodone; LC-ESI-QTOF; MS2; 70 V
Name: Trazodone
Class: Pharmaceutical
Formula: C19H22ClN5O
Exact mass: 371.1513
SMILES: C1CN(CCN1CCCN2C(=O)N3C=CC=CC3=N2)C4=CC(=CC=C4)Cl
InChI: InChI=1S/C19H22ClN5O/c20-16-5-3-6-17(15-16)23-13-11-22(12-14-23)8-4-10-25-19(26)24-9-2-1-7-18(24)21-25/h1-3,5-7,9,15H,4,8,10-14H2
Instrument: TripleTOF 6600 SCIEX
Instrument type: LC-ESI-QTOF
Ms type: MS2
Ion mode: POSITIVE
Collision energy: 70
Fragmentation mode: CID
Ionization: ESI
Column name: Zorbax Eclipse Plus C18 2.1 mm x 150 mm, 3.5 um, Agilent
Retention time: 7.095 min
Precursor m/z: 372.1586
Precursor type: [M+H]+
m/z	relative intensity
39.0212	10
51.0216	23
66.032	17
70.0631	13
78.0323	999
79.04	47
80.0481	37
92.0356	88
93.0429	80
94.0516	23
105.0426	51
107.0582	26
110.9984	16
116.0481	22
117.0548	11
118.0619	38
119.0585	83
120.0314	85
120.0525	51
121.0375	29
121.0736	61
131.0588	26
132.0667	17
133.0742	48
135.0412	21
136.0483	20
138.0088	30
148.0498	547
154.0389	15
166.0381	14
176.0808	31
194.0619	12
