Mass spectrum: Epirubicin; LC-ESI-QTOF; MS2; 70 V
Name: Epirubicin
Class: Pharmaceutical
Formula: C27H29NO11
Exact mass: 543.1741
SMILES: CC1C(C(CC(O1)OC2CC(CC3=C(C4=C(C(=C23)O)C(=O)C5=C(C4=O)C=CC=C5OC)O)(C(=O)CO)O)N)O
InChI: InChI=1S/C27H29NO11/c1-10-22(31)13(28)6-17(38-10)39-15-8-27(36,16(30)9-29)7-12-19(15)26(35)21-20(24(12)33)23(32)11-4-3-5-14(37-2)18(11)25(21)34/h3-5,10,13,15,17,22,29,31,33,35-36H,6-9,28H2,1-2H3
Instrument: TripleTOF 5600 SCIEX
Instrument type: LC-ESI-QTOF
Ms type: MS2
Ion mode: NEGATIVE
Collision energy: 70
Fragmentation mode: CID
Ionization: ESI
Column name: Zorbax Eclipse Plus C18 2.1 mm x 150 mm, 3.5 um, Agilent
Retention time: 7.492 min
Precursor m/z: 542.1668
Precursor type: [M-H]-
m/z	relative intensity
248.052	60
249.0562	60
261.0529	49
264.0441	87
265.0536	114
266.0626	207
276.0435	201
277.0533	212
289.0559	81
290.0612	60
291.0345	76
292.0387	354
293.0473	999
294.055	474
304.0409	311
305.0463	382
306.0538	229
307.0257	103
308.0367	81
309.0363	60
309.0789	92
319.0623	76
320.0318	480
321.0416	900
322.0485	136
332.0361	60
333.0432	201
334.05	212
335.0576	169
336.0276	141
