Mass spectrum: N-(1,3-Dimethylbutyl)-N`-phenyl-p-phenylenediamine; LC-ESI-QTOF; MS2; 140 V
Name: N-(1,3-Dimethylbutyl)-N`-phenyl-p-phenylenediamine
Class: Industrial_process
Formula: C18H24N2
Exact mass: 268.1939
SMILES: CC(C)CC(C)NC1=CC=C(C=C1)NC2=CC=CC=C2
InChI: InChI=1S/C18H24N2/c1-14(2)13-15(3)19-17-9-11-18(12-10-17)20-16-7-5-4-6-8-16/h4-12,14-15,19-20H,13H2,1-3H3
Instrument: TripleTOF 6600 SCIEX
Instrument type: LC-ESI-QTOF
Ms type: MS2
Ion mode: POSITIVE
Collision energy: 140
Fragmentation mode: CID
Ionization: ESI
Column name: Zorbax Eclipse Plus C18 2.1 mm x 150 mm, 3.5 um, Agilent
Retention time: 9.189 min
Precursor m/z: 269.2012
Precursor type: [M+H]+
m/z	relative intensity
35.999	61
37.0065	224
38.0146	193
39.0224	713
41.038	61
49.0067	101
50.0143	581
51.0222	876
52.0181	142
52.0292	71
53.0381	999
54.033	193
61.007	193
62.0142	458
63.0222	733
64.0181	91
64.0316	40
65.0253	40
65.0385	224
66.0338	50
66.0458	61
74.0145	193
75.0219	173
76.0309	61
77.0377	275
78.0332	101
79.0404	40
80.0483	682
86.0143	91
87.0224	193
88.0172	50
88.0286	61
89.0377	305
90.0337	50
92.0506	40
98.0145	50
101.0371	91
102.0451	81
107.0594	50
113.0383	203
114.0334	61
115.0539	101
126.0452	40
127.0533	91
128.0478	61
128.0613	50
137.0367	91
138.0451	61
139.0546	183
140.0499	122
153.057	40
154.0639	50
164.0496	50
