Mass spectrum: 2-Hydroxy-N-phenylpropanamide; LC-ESI-QTOF; MS2; 60 V
Name: 2-Hydroxy-N-phenylpropanamide
Class: Pharmaceutical
Formula: C9H11NO2
Exact mass: 165.079
SMILES: CC(C(=O)NC1=CC=CC=C1)O
InChI: InChI=1S/C9H11NO2/c1-7(11)9(12)10-8-5-3-2-4-6-8/h2-7,11H,1H3,(H,10,12)
Instrument: TripleTOF 5600 SCIEX
Instrument type: LC-ESI-QTOF
Ms type: CID
Ion mode: POSITIVE
Collision energy: 60
Ionization: ESI
Column name: Zorbax Eclipse Plus C18 2.1 mm x 150 mm, 3.5 um, Agilent
Retention time: 6.608 min
Precursor m/z: 166.0863
Precursor type: [M+H]+
m/z	relative intensity
65.0431	90
77.0427	999
78.0506	49
91.0575	74
92.0515	33
93.0597	107
94.0663	41
103.056	49
118.0651	57
