Mass spectrum: Flufenacet ESA; LC-ESI-QTOF; MS2; 120 V
Name: Flufenacet ESA
Class: Herbicide; Transformation_product
Formula: C11H14FNO4S
Exact mass: 275.0628
SMILES: CC(C)N(C1=CC=C(C=C1)F)C(=O)CS(=O)(=O)O
InChI: InChI=1S/C11H14FNO4S/c1-8(2)13(11(14)7-18(15,16)17)10-5-3-9(12)4-6-10/h3-6,8H,7H2,1-2H3,(H,15,16,17)
Instrument: TripleTOF 6600 SCIEX
Instrument type: LC-ESI-QTOF
Ms type: MS2
Ion mode: POSITIVE
Collision energy: 120
Fragmentation mode: CID
Ionization: ESI
Column name: Zorbax Eclipse Plus C18 2.1 mm x 150 mm, 3.5 um, Agilent
Retention time: 6.781 min
Precursor m/z: 276.07
Precursor type: [M+H]+
m/z	relative intensity
37.0068	17
38.0144	17
39.0225	64
41.0384	20
49.0069	26
50.0149	81
51.0224	116
57.013	163
59.0287	20
61.006	14
62.0146	23
63.0228	55
64.03	17
65.0381	17
68.0041	11
69.0129	81
70.0209	20
73.0072	87
74.0149	999
75.0228	736
77.038	37
81.0137	20
83.0289	146
84.0365	37
95.0284	67
96.0369	35
107.0285	20
109.0436	26
111.0475	23
123.0348	11
