Mass spectrum: Pyroxsulam; LC-ESI-QTOF; MS2; 60 V
Name: Pyroxsulam
Class: Herbicide
Formula: C14H13F3N6O5S
Exact mass: 434.062
SMILES: COC1=CC(=NC2=NC(=NN12)NS(=O)(=O)C3=C(C=CN=C3OC)C(F)(F)F)OC
InChI: InChI=1S/C14H13F3N6O5S/c1-26-8-6-9(27-2)23-13(19-8)20-12(21-23)22-29(24,25)10-7(14(15,16)17)4-5-18-11(10)28-3/h4-6H,1-3H3,(H,21,22)
Instrument: TripleTOF 6600 SCIEX
Instrument type: LC-ESI-QTOF
Ms type: MS2
Ion mode: NEGATIVE
Collision energy: 60
Fragmentation mode: CID
Ionization: ESI
Column name: Zorbax Eclipse Plus C18 2.1 mm x 150 mm, 3.5 um, Agilent
Retention time: 9.651 min
Precursor m/z: 433.0547
Precursor type: [M-H]-
m/z	relative intensity
41.0151	10
41.9971	13
64.0061	16
65.0109	46
65.999	163
66.0089	294
68.9943	166
78.0324	13
79.0259	13
81.0218	30
88.0183	40
89.0012	35
92.0077	13
92.0136	10
93.0079	76
106.0302	32
107.0109	43
107.9987	13
108.0247	125
111.0665	35
116.0133	212
117.032	16
123.0192	363
125.0358	27
126.0152	32
128.0309	739
129.0047	13
133.0154	32
135.0063	76
135.0335	16
136.0182	327
146.0215	999
147.0178	155
148.0254	49
148.0362	13
149.0081	120
150.029	60
152.003	13
156.0245	878
158.0166	16
159.0165	16
160.0251	16
161.0274	13
162.0409	390
163.0215	46
164.0347	144
165.0272	35
165.0409	38
171.0482	10
172.0242	32
173.0185	32
174.02	27
176.0079	10
176.0325	32
177.0044	21
179.0549	136
180.0491	62
185.0188	32
186.021	16
186.0379	21
187.0092	54
187.0497	10
193.0404	19
193.062	13
200.027	10
200.0364	19
201.013	182
202.0191	21
208.9743	13
210.0198	13
211.0226	87
214.0226	13
216.038	51
216.052	19
222.0283	16
224.0296	38
225.0158	171
226.0036	16
226.0277	10
227.0185	357
230.0406	19
237.0406	43
238.0287	95
239.0368	49
240.0339	90
251.0169	240
252.029	147
253.0425	169
254.0544	35
264.0377	70
265.024	38
266.018	19
266.0431	30
267.0094	49
267.0413	16
267.0541	10
268.018	27
270.0515	70
280.002	13
280.0225	10
283.0375	54
285.0701	32
286.0469	16
286.065	43
290.0195	24
291.0226	182
291.0414	65
292.032	158
293.0123	10
293.0472	16
299.037	21
301.9745	21
301.9974	13
303.0319	27
304.0066	10
307.0338	13
307.0545	27
308.0273	32
317.0041	87
317.0317	16
323.0428	40
323.0563	19
327.9979	10
354.9701	27
354.9989	32
387.0026	10
387.0206	10
