Mass spectrum: Fenoxycarb; LC-ESI-QTOF; MS2; 140 V
Name: Fenoxycarb
Class: Insecticide
Formula: C17H19NO4
Exact mass: 301.1314
SMILES: CCOC(=O)NCCOc1ccc(Oc2ccccc2)cc1
InChI: InChI=1S/C17H19NO4/c1-2-20-17(19)18-12-13-21-14-8-10-16(11-9-14)22-15-6-4-3-5-7-15/h3-11H,2,12-13H2,1H3,(H,18,19)
Instrument: TripleTOF 5600 SCIEX
Instrument type: LC-ESI-QTOF
Ms type: MS2
Ion mode: POSITIVE
Collision energy: 140
Fragmentation mode: CID
Ionization: ESI
Column name: Zorbax Eclipse Plus C18 2.1 mm x 150 mm, 3.5 um, Agilent
Retention time: 13.067 min
Precursor m/z: 302.1387
Precursor type: [M+H]+
m/z	relative intensity
41.0401	36
42.0445	440
43.0513	38
44.0214	13
44.0595	999
45.0071	204
55.0241	14
60.0048	11
65.0433	337
66.0518	41
70.0326	43
73.0117	19
74.0183	138
75.0264	94
76.0336	60
77.0417	507
78.049	56
81.0363	69
85.01	19
86.0166	45
87.0248	69
88.0406	207
89.0402	355
91.0555	190
94.0424	33
98.0157	32
99.0223	15
101.0378	14
102.0471	121
113.0386	65
114.0455	17
115.0543	220
126.046	60
127.0541	67
128.0607	113
137.0394	11
138.0463	13
139.0538	124
150.0457	27
151.054	17
152.0609	12
163.0538	42
