Mass spectrum: Fenoxycarb; LC-ESI-QTOF; MS2; 40 V
Name: Fenoxycarb
Class: Insecticide
Formula: C17H19NO4
Exact mass: 301.1314
SMILES: CCOC(=O)NCCOc1ccc(Oc2ccccc2)cc1
InChI: InChI=1S/C17H19NO4/c1-2-20-17(19)18-12-13-21-14-8-10-16(11-9-14)22-15-6-4-3-5-7-15/h3-11H,2,12-13H2,1H3,(H,18,19)
Instrument: TripleTOF 5600 SCIEX
Instrument type: LC-ESI-QTOF
Ms type: MS2
Ion mode: POSITIVE
Collision energy: 40
Fragmentation mode: CID
Ionization: ESI
Column name: Zorbax Eclipse Plus C18 2.1 mm x 150 mm, 3.5 um, Agilent
Retention time: 13.067 min
Precursor m/z: 302.1387
Precursor type: [M+H]+
m/z	relative intensity
42.0438	28
44.0597	171
65.0427	12
66.051	36
70.0329	183
77.0419	68
79.0562	11
88.0418	999
91.0556	78
92.0633	13
94.0428	146
105.0341	29
107.0493	56
109.0279	19
115.0539	70
116.0704	361
118.0414	68
119.0493	34
120.0567	99
127.0538	16
128.0618	46
129.07	124
133.0278	10
134.0361	31
141.0697	109
145.0583	11
146.0597	11
152.0611	37
153.0695	11
155.0849	13
157.0644	57
158.0732	26
163.0626	88
165.07	92
166.0767	10
167.085	34
168.0563	14
169.065	58
170.0725	19
176.0614	12
177.0689	23
181.0645	12
183.0807	86
185.06	120
185.0964	10
186.0672	210
187.0755	34
193.0673	24
195.0804	44
197.0614	17
198.0676	19
211.0752	84
213.0559	208
238.087	32
256.0975	159
