Mass spectrum: Codeine; LC-ESI-QTOF; MS2; 90 V
Name: Codeine
Formula: C18H21NO3
Exact mass: 299.1521
SMILES: CN1CCC23C4C1CC5=C2C(=C(C=C5)OC)OC3C(C=C4)O
InChI: InChI=1S/C18H21NO3/c1-19-8-7-18-11-4-5-13(20)17(18)22-16-14(21-2)6-3-10(15(16)18)9-12(11)19/h3-6,11-13,17,20H,7-9H2,1-2H3
Instrument: TripleTOF 6600 SCIEX
Instrument type: LC-ESI-QTOF
Ms type: MS2
Ion mode: POSITIVE
Collision energy: 90
Fragmentation mode: CID
Ionization: ESI
Column name: Zorbax Eclipse Plus C18 2.1 mm x 150 mm, 3.5 um, Agilent
Retention time: 5.043 min
Precursor m/z: 300.1594
Precursor type: [M+H]+
m/z	relative intensity
39.0229	13
44.0487	38
51.0219	20
63.021	18
65.0371	27
75.0221	13
76.029	13
77.0373	187
78.0457	35
88.0304	11
89.0372	80
90.0449	17
91.053	54
94.0386	12
101.0364	29
102.0443	95
103.0526	47
113.0375	29
114.045	56
115.0528	763
116.0606	32
117.0565	10
118.0393	32
126.0454	113
127.0529	386
128.0606	468
129.0428	10
129.069	39
131.0472	37
139.0527	252
140.0599	33
141.068	189
142.0393	10
143.0465	18
144.0557	17
150.0447	66
151.0525	277
152.0607	999
153.0686	214
154.0751	14
155.0504	163
156.0567	10
157.0633	11
163.0527	107
164.0605	129
165.0686	383
166.0718	10
167.0786	13
168.0562	41
169.0615	36
170.0349	19
176.0602	56
177.0713	25
178.076	64
179.0569	12
181.0628	66
183.0429	43
189.0689	99
190.0758	10
197.0577	13
