Mass spectrum: Isopentyltriphenylphosphonium; LC-ESI-QTOF; MS2; 150 V
Name: Isopentyltriphenylphosphonium
Class: Industrial_process
Formula: [C23H26P]+
Exact mass: 333.1767
SMILES: CC(C)CC[P+](C1=CC=CC=C1)(C2=CC=CC=C2)C3=CC=CC=C3
InChI: InChI=1S/C23H26P/c1-20(2)18-19-24(21-12-6-3-7-13-21,22-14-8-4-9-15-22)23-16-10-5-11-17-23/h3-17,20H,18-19H2,1-2H3/q+1
Instrument: TripleTOF 6600 SCIEX
Instrument type: LC-ESI-QTOF
Ms type: MS2
Ion mode: POSITIVE
Collision energy: 150
Fragmentation mode: CID
Ionization: ESI
Column name: Zorbax Eclipse Plus C18 2.1 mm x 150 mm, 3.5 um, Agilent
Retention time: 9.314 min
Precursor m/z: 333.1767
Precursor type: [M]+
m/z	relative intensity
39.0217	188
50.0133	161
51.021	122
55.9787	114
56.9867	233
61.0051	67
62.0125	155
63.0206	489
65.0361	187
74.0119	169
76.0273	143
77.0351	88
78.9698	110
79.9775	355
80.9855	488
86.0109	88
87.019	148
89.0345	448
91.9774	71
98.0109	107
102.0422	184
103.9766	107
104.9843	67
107.0007	999
113.0345	158
115.0505	349
126.0428	427
131.0009	158
139.0508	258
150.043	435
151.0509	626
152.0588	622
155.0015	140
156.0091	140
157.0167	348
179.0006	116
180.0091	151
181.0173	515
224.059	92
226.0745	63
255.033	51
