Mass spectrum: Sulfamethoxazole; LC-ESI-QTOF; MS2; 70 V
Name: Sulfamethoxazole
Class: Antimicrobial; Pharmaceutical
Formula: C10H11N3O3S
Exact mass: 253.0521
SMILES: CC1=CC(=NO1)NS(=O)(=O)C2=CC=C(C=C2)N
InChI: InChI=1S/C10H11N3O3S/c1-7-6-10(12-16-7)13-17(14,15)9-4-2-8(11)3-5-9/h2-6H,11H2,1H3,(H,12,13)
Instrument: TripleTOF 5600 SCIEX
Instrument type: LC-ESI-QTOF
Ms type: MS2
Ion mode: POSITIVE
Collision energy: 70
Fragmentation mode: CID
Ionization: ESI
Column name: Zorbax Eclipse Plus C18 2.1 mm x 150 mm, 3.5 um, Agilent
Retention time: 7.246 min
Precursor m/z: 254.0594
Precursor type: [M+H]+
m/z	relative intensity
53.048	45
63.0301	10
65.046	999
66.0404	35
66.0527	37
72.0499	13
79.0487	13
80.0545	457
92.0538	357
93.0612	142
99.0598	23
108.0479	243
146.0703	22
