Mass spectrum: 4-Hydroxyantipyrine; LC-ESI-QTOF; MS2; 130 V
Name: 4-Hydroxyantipyrine
Class: Pharmaceutical; Metabolite
Formula: C11H12N2O2
Exact mass: 204.0899
SMILES: CN1N(c2ccccc2)C(=O)C(=C1C)O
InChI: InChI=1S/C11H12N2O2/c1-8-10(14)11(15)13(12(8)2)9-6-4-3-5-7-9/h3-7,14H,1-2H3
Instrument: TripleTOF 5600 SCIEX
Instrument type: LC-ESI-QTOF
Ms type: MS2
Ion mode: POSITIVE
Collision energy: 130
Fragmentation mode: CID
Ionization: ESI
Column name: Zorbax Eclipse Plus C18 2.1 mm x 150 mm, 3.5 um, Agilent
Retention time: 6.827 min
Precursor m/z: 205.0972
Precursor type: [M+H]+
m/z	relative intensity
41.034	72
42.0448	159
49.0327	72
51.0283	999
56.055	521
65.0412	86
74.0184	144
