Mass spectrum: Simvastatin; LC-ESI-QTOF; MS2; 30 V
Name: Simvastatin
Class: Pharmaceutical
Formula: C25H38O5
Exact mass: 418.2719
SMILES: CCC(C)(C)C(=O)O[C@H]1C[C@@H](C)C=C2C=C[C@H](C)[C@H](CC[C@@H]3C[C@@H](O)CC(=O)O3)[C@@H]12
InChI: InChI=1S/C25H38O5/c1-6-25(4,5)24(28)30-21-12-15(2)11-17-8-7-16(3)20(23(17)21)10-9-19-13-18(26)14-22(27)29-19/h7-8,11,15-16,18-21,23,26H,6,9-10,12-14H2,1-5H3/t15-,16-,18+,19+,20-,21-,23-/m0/s1
Instrument: TripleTOF 5600 SCIEX
Instrument type: LC-ESI-QTOF
Ms type: MS2
Ion mode: POSITIVE
Collision energy: 30
Fragmentation mode: CID
Ionization: ESI
Column name: Zorbax Eclipse Plus C18 2.1 mm x 150 mm, 3.5 um, Agilent
Retention time: 15.438 min
Precursor m/z: 419.2792
Precursor type: [M+H]+
m/z	relative intensity
79.0575	24
81.0724	28
95.0874	17
97.066	42
105.0696	28
107.085	52
108.0461	42
119.0859	21
121.0998	24
125.0592	35
131.0854	35
135.1166	14
143.0686	17
143.0851	59
145.1028	84
155.089	21
157.1003	87
158.1081	21
159.1171	140
161.1318	17
169.1013	105
171.1164	150
173.1325	529
181.102	21
183.1178	56
185.1301	63
191.1076	49
197.1321	80
199.1486	999
201.1637	276
205.1257	14
207.1153	35
209.1203	21
211.1108	31
211.1474	63
215.1791	59
221.1321	28
223.1489	168
225.1292	35
225.1643	753
229.1219	56
234.1384	14
239.1448	45
239.1796	248
243.1411	21
243.1735	494
243.1989	28
249.1644	259
267.1741	283
285.1855	392
303.1963	91
419.2401	17
