Mass spectrum: Isopyrazam; LC-ESI-QTOF; MS2; 120 V
Name: Isopyrazam
Class: Fungicide
Formula: C20H23F2N3O
Exact mass: 359.1809
SMILES: CC(C)C1C2CCC1C3=C2C=CC=C3NC(=O)C4=CN(N=C4C(F)F)C
InChI: InChI=1S/C20H23F2N3O/c1-10(2)16-12-7-8-13(16)17-11(12)5-4-6-15(17)23-20(26)14-9-25(3)24-18(14)19(21)22/h4-6,9-10,12-13,16,19H,7-8H2,1-3H3,(H,23,26)
Instrument: TripleTOF 6600 SCIEX
Instrument type: LC-ESI-QTOF
Ms type: MS2
Ion mode: POSITIVE
Collision energy: 120
Fragmentation mode: CID
Ionization: ESI
Column name: Zorbax Eclipse Plus C18 2.1 mm x 150 mm, 3.5 um, Agilent
Retention time: 14.619 min
Precursor m/z: 360.1882
Precursor type: [M+H]+
m/z	relative intensity
35.9996	15
37.007	69
38.015	111
39.0231	387
40.0178	12
41.0389	189
42.0339	210
43.0289	87
50.0151	81
51.0036	36
51.023	282
52.0189	24
52.0313	18
53.0016	39
53.0376	27
54.0349	21
55.0416	15
55.0542	33
57.0133	123
59.9989	21
61.0076	99
62.0148	141
63.0229	309
64.0187	33
65.0378	180
66.0216	21
66.0349	15
67.0537	30
68.0115	30
69.0135	33
70.0091	21
70.0228	12
70.9922	15
73.0078	24
74.0149	189
75.0038	15
75.0226	360
76.0171	33
76.0312	141
77.0208	18
77.0382	711
77.995	24
78.0331	33
78.0458	117
79.0544	24
80.0136	15
81.0144	24
82.0274	30
83.0281	48
84.0255	36
85.0059	27
86.014	69
87.0223	105
88.0173	93
88.0295	99
89.0379	567
90.0332	18
90.0453	36
91.028	18
91.0542	99
94.0204	15
95.0279	15
95.0592	15
97.0089	24
98.0149	111
99.0074	15
99.0228	168
100.0218	108
101.0383	294
102.046	336
103.04	15
103.0525	51
104.049	18
105.0146	15
105.045	21
106.0208	15
107.0293	57
109.039	66
110.0125	18
111.0108	12
111.0195	18
111.0324	24
112.0302	33
113.0381	369
114.0389	279
115.0534	999
116.0495	69
117.0555	60
117.0674	15
118.0608	21
119.028	12
120.0362	36
123.0214	39
124.0301	15
125.0389	243
126.0449	393
127.0531	711
128.0599	639
129.0444	99
129.0673	21
130.0381	33
130.0637	51
131.0326	81
132.0227	18
132.0344	18
133.0437	48
134.0336	18
136.0291	18
137.0384	102
138.0429	138
139.0534	627
140.0487	564
141.0669	264
142.0574	66
144.0353	12
144.0428	21
145.0422	30
146.0468	30
149.0376	75
150.0454	378
151.052	558
152.0573	708
153.0546	276
154.0399	42
154.0641	171
155.0281	33
155.0589	132
156.0242	12
157.0349	15
157.0464	18
157.0759	18
158.0384	30
158.0488	21
159.0347	42
162.0418	42
163.0524	369
164.05	432
165.0636	306
166.0619	261
167.0458	15
167.0724	195
168.0638	33
168.0811	21
169.0405	36
169.0718	15
170.0351	12
171.046	15
172.0488	12
172.0647	12
173.0505	27
174.0296	15
174.0426	24
175.0389	33
175.0528	45
176.0553	210
177.0573	291
178.064	300
179.0595	318
180.052	69
180.0807	69
181.0795	42
182.0817	15
183.0405	21
187.0511	36
188.0499	117
189.0614	171
190.0654	297
191.0688	279
192.0663	207
193.0577	33
193.0723	75
194.0838	18
196.0456	24
200.0561	39
201.0623	36
202.0661	102
203.069	141
204.0546	54
204.0823	114
205.0747	126
206.0737	105
207.0801	27
208.0547	15
208.0827	12
214.0618	27
215.0662	63
216.0713	84
217.0791	78
218.0759	24
219.0812	33
220.0647	12
220.0841	30
227.0766	15
228.0717	30
229.0767	21
230.0707	42
231.0824	24
232.0815	30
233.0608	30
234.0672	15
236.0829	18
241.0845	12
244.0744	15
