Mass spectrum: 4-Hydroxydiphenylamine; LC-ESI-QTOF; MS2; 130 V
Name: 4-Hydroxydiphenylamine
Class: Pesticide; Industrial_process
Formula: C12H11NO
Exact mass: 185.0841
SMILES: C1=CC=C(C=C1)NC2=CC=C(C=C2)O
InChI: InChI=1S/C12H11NO/c14-12-8-6-11(7-9-12)13-10-4-2-1-3-5-10/h1-9,13-14H
Instrument: TripleTOF 6600 SCIEX
Instrument type: LC-ESI-QTOF
Ms type: MS2
Ion mode: POSITIVE
Collision energy: 130
Fragmentation mode: CID
Ionization: ESI
Column name: Zorbax Eclipse Plus C18 2.1 mm x 150 mm, 3.5 um, Agilent
Retention time: 10.034 min
Precursor m/z: 186.0914
Precursor type: [M+H]+
m/z	relative intensity
35.9989	149
37.0067	907
38.0016	103
38.0145	597
39.0223	999
40.0177	68
41.0254	114
42.0331	57
44.0123	68
49.0062	264
50.0142	907
51.0087	45
51.0219	413
52.017	241
53.0018	57
53.0374	195
54.0332	114
61.0063	206
62.0145	275
63.0219	160
65.0249	45
65.0387	45
73.0065	68
74.0141	126
80.0482	68
