Mass spectrum: Fluorescein; LC-ESI-QTOF; MS2; 60 V
Name: Fluorescein
Class: Industrial_process; Pharmaceutical
Formula: C20H12O5
Exact mass: 332.0685
SMILES: C1=CC=C2C(=C1)C(=O)OC23C4=C(C=C(C=C4)O)OC5=C3C=CC(=C5)O
InChI: InChI=1S/C20H12O5/c21-11-5-7-15-17(9-11)24-18-10-12(22)6-8-16(18)20(15)14-4-2-1-3-13(14)19(23)25-20/h1-10,21-22H
Instrument: TripleTOF 5600 SCIEX
Instrument type: LC-ESI-QTOF
Ms type: MS2
Ion mode: POSITIVE
Collision energy: 60
Fragmentation mode: CID
Ionization: ESI
Column name: Zorbax Eclipse Plus C18 2.1 mm x 150 mm, 3.5 um, Agilent
Retention time: 9.527 min
Precursor m/z: 333.0757
Precursor type: [M+H]+
m/z	relative intensity
65.0383	11
68.9974	17
77.038	19
115.0545	27
127.0553	24
128.061	13
131.05	19
139.0536	54
140.0635	13
152.0623	16
155.0491	35
165.0696	45
168.0567	29
176.0634	33
177.0698	17
178.0794	48
181.0629	16
183.0437	13
184.051	39
189.0704	203
190.0777	88
191.086	53
196.0554	20
199.0412	13
200.0617	31
201.0693	104
202.0777	931
203.0855	279
204.0939	29
205.0643	43
211.0406	11
213.07	154
214.0765	50
215.0855	344
217.0673	20
218.0728	95
221.0602	17
225.0715	22
226.0774	16
229.0541	156
230.0722	64
231.0813	587
232.087	21
233.0617	26
233.0951	88
234.067	38
241.0648	48
242.0717	154
243.0814	106
244.0882	29
245.0611	27
247.0742	53
253.0669	11
257.0594	15
258.067	368
259.0757	437
260.0825	104
261.0898	90
263.0717	12
269.064	39
270.073	30
271.0756	347
274.0657	26
285.0581	21
286.0634	99
287.0712	999
289.0861	309
305.0814	25
315.0646	102
333.0752	196
