Mass spectrum: 3-(Diethylcarbamoyl)benzoic acid; LC-ESI-QTOF; MS2; 40 V
Name: 3-(Diethylcarbamoyl)benzoic acid
Formula: C12H15NO3
Exact mass: 221.1052
SMILES: CCN(CC)C(=O)C1=CC(=CC=C1)C(=O)O
InChI: InChI=1S/C12H15NO3/c1-3-13(4-2)11(14)9-6-5-7-10(8-9)12(15)16/h5-8H,3-4H2,1-2H3,(H,15,16)
Instrument: TripleTOF 5600 SCIEX
Instrument type: LC-ESI-QTOF
Ms type: MS2
Ion mode: NEGATIVE
Collision energy: 40
Fragmentation mode: CID
Ionization: ESI
Column name: Zorbax Eclipse Plus C18 2.1 mm x 150 mm, 3.5 um, Agilent
Retention time: 7.356 min
Precursor m/z: 220.0982
Precursor type: [M-H]-
m/z	relative intensity
148.0762	62
176.1092	999
220.098	74
