Mass spectrum: Entacapone; LC-ESI-QTOF; MS2; 100 V
Name: Entacapone
Class: Pharmaceutical
Formula: C14H15N3O5
Exact mass: 305.1012
SMILES: CCN(CC)C(=O)C(=CC1=CC(=C(C(=C1)O)O)[N+](=O)[O-])C#N
InChI: InChI=1S/C14H15N3O5/c1-3-16(4-2)14(20)10(8-15)5-9-6-11(17(21)22)13(19)12(18)7-9/h5-7,18-19H,3-4H2,1-2H3
Instrument: TripleTOF 5600 SCIEX
Instrument type: LC-ESI-QTOF
Ms type: MS2
Ion mode: POSITIVE
Collision energy: 100
Fragmentation mode: CID
Ionization: ESI
Column name: Zorbax Eclipse Plus C18 2.1 mm x 150 mm, 3.5 um, Agilent
Retention time: 9.381 min
Precursor m/z: 306.1084
Precursor type: [M+H]+
m/z	relative intensity
43.0417	112
44.0237	168
53.0127	70
74.0208	309
75.0168	802
76.0272	999
77.0301	98
77.0428	211
78.04	126
86.0197	70
87.0134	717
88.0226	422
89.0407	98
90.038	154
100.0178	126
101.0278	98
102.0358	126
104.0438	70
113.0277	56
130.0334	70
