Mass spectrum: Phenothiazine; LC-ESI-QTOF; MS2; 70 V
Name: Phenothiazine
Class: Pharmaceutical
Formula: C12H9NS
Exact mass: 199.0456
SMILES: C1=CC=C2C(=C1)NC3=CC=CC=C3S2
InChI: InChI=1S/C12H9NS/c1-3-7-11-9(5-1)13-10-6-2-4-8-12(10)14-11/h1-8,13H
Instrument: TripleTOF 6600 SCIEX
Instrument type: LC-ESI-QTOF
Ms type: MS2
Ion mode: POSITIVE
Collision energy: 70
Fragmentation mode: CID
Ionization: ESI
Column name: Zorbax Eclipse Plus C18 2.1 mm x 150 mm, 3.5 um, Agilent
Retention time: 13.113 min
Precursor m/z: 200.0529
Precursor type: [M+H]+
m/z	relative intensity
39.0215	12
44.9783	22
50.0141	27
51.0222	81
62.0143	12
63.0217	43
65.0372	32
68.9779	70
69.9853	40
75.0211	22
77.0373	131
78.0336	16
81.9856	16
87.0211	19
88.0286	21
89.0368	118
90.0434	22
94.9936	47
96.0011	22
101.0363	28
102.0441	31
103.0522	11
108.0007	19
109.0079	12
113.037	150
114.0433	56
115.0526	152
116.0485	44
117.0544	21
126.0443	49
127.0524	246
128.0489	248
129.0431	13
129.0524	20
130.0625	20
137.0374	15
138.0437	30
139.0529	999
140.049	872
141.0516	51
152.0481	11
153.0555	42
154.0634	297
155.0585	38
164.047	54
165.0558	32
166.0639	962
167.0714	615
170.0162	12
171.0244	54
196.0189	22
197.0272	96
198.0353	58
