Mass spectrum: Bentazone; LC-ESI-QTOF; MS2; 50 V
Name: Bentazone
Class: Herbicide
Formula: C10H12N2O3S
Exact mass: 240.0569
SMILES: CC(C)N1C(=O)c2ccccc2NS1(=O)=O
InChI: InChI=1S/C10H12N2O3S/c1-7(2)12-10(13)8-5-3-4-6-9(8)11-16(12,14)15/h3-7,11H,1-2H3
Instrument: TripleTOF 6600 SCIEX
Instrument type: LC-ESI-QTOF
Ms type: MS2
Ion mode: NEGATIVE
Collision energy: 50
Fragmentation mode: CID
Ionization: ESI
Column name: Zorbax Eclipse Plus C18 2.1 mm x 150 mm, 3.5 um, Agilent
Retention time: 9.867 min
Precursor m/z: 239.0496
Precursor type: [M-H]-
m/z	relative intensity
41.9992	58
76.0316	299
77.0395	64
77.9646	20
79.9569	112
90.0332	10
105.0346	143
115.0294	16
116.0375	45
117.0462	255
132.0335	999
133.041	272
145.0402	31
159.0561	14
195.9934	20
197.0033	35
