Mass spectrum: Diphenylphosphinamide; LC-ESI-QTOF; MS2; 40 V
Name: Diphenylphosphinamide
Formula: C12H12NOP
Exact mass: 217.0657
SMILES: C1=CC=C(C=C1)P(=O)(C2=CC=CC=C2)N
InChI: InChI=1S/C12H12NOP/c13-15(14,11-7-3-1-4-8-11)12-9-5-2-6-10-12/h1-10H,(H2,13,14)
Instrument: TripleTOF 5600 SCIEX
Instrument type: LC-ESI-QTOF
Ms type: MS2
Ion mode: POSITIVE
Collision energy: 40
Fragmentation mode: CID
Ionization: ESI
Column name: Zorbax Eclipse Plus C18 2.1 mm x 150 mm, 3.5 um, Agilent
Retention time: 7.411 min
Precursor m/z: 218.0729
Precursor type: [M+H]+
m/z	relative intensity
50.0157	13
51.0237	51
68.9889	13
77.0393	483
95.0052	97
115.0532	11
123.0002	45
127.0539	11
128.0623	86
129.071	56
133.0199	50
141.0708	15
147.0363	13
152.062	25
153.071	35
154.0783	66
170.0279	27
171.0362	136
173.0523	236
183.0354	85
199.031	12
201.0473	999
218.0723	24
