Mass spectrum: Icaridin; LC-ESI-QTOF; MS2; 70 V
Name: Icaridin
Class: Insecticide
Formula: C12H23NO3
Exact mass: 229.1678
SMILES: CCC(C)OC(=O)N1CCCCC1CCO
InChI: InChI=1S/C12H23NO3/c1-3-10(2)16-12(15)13-8-5-4-6-11(13)7-9-14/h10-11,14H,3-9H2,1-2H3
Instrument: TripleTOF 6600 SCIEX
Instrument type: LC-ESI-QTOF
Ms type: MS2
Ion mode: POSITIVE
Collision energy: 70
Fragmentation mode: CID
Ionization: ESI
Column name: Zorbax Eclipse Plus C18 2.1 mm x 150 mm, 3.5 um, Agilent
Retention time: 10.188 min
Precursor m/z: 230.1751
Precursor type: [M+H]+
m/z	relative intensity
30.033	77
37.0067	103
38.0138	51
39.022	570
41.0374	674
43.0528	64
44.0479	90
51.0217	51
53.0375	155
55.0528	856
56.0482	726
65.0371	298
67.0526	999
68.0488	51
70.0634	233
71.047	90
77.037	272
79.0521	103
82.0626	116
84.0791	428
91.0518	103
93.068	64
