Mass spectrum: Mandipropamid; LC-ESI-QTOF; MS2; 50 V
Name: Mandipropamid
Class: Fungicide
Formula: C23H22ClNO4
Exact mass: 411.1237
SMILES: COC1=C(C=CC(=C1)CCNC(=O)C(C2=CC=C(C=C2)Cl)OCC#C)OCC#C
InChI: InChI=1S/C23H22ClNO4/c1-4-14-28-20-11-6-17(16-21(20)27-3)12-13-25-23(26)22(29-15-5-2)18-7-9-19(24)10-8-18/h1-2,6-11,16,22H,12-15H2,3H3,(H,25,26)
Instrument: TripleTOF 6600 SCIEX
Instrument type: LC-ESI-QTOF
Ms type: MS2
Ion mode: POSITIVE
Collision energy: 50
Fragmentation mode: CID
Ionization: ESI
Column name: Zorbax Eclipse Plus C18 2.1 mm x 150 mm, 3.5 um, Agilent
Retention time: 12.239 min
Precursor m/z: 412.131
Precursor type: [M+H]+
m/z	relative intensity
77.0381	10
89.0385	26
91.0541	67
98.9975	15
103.0534	12
105.0692	11
107.0481	12
115.0534	37
116.0608	20
117.0682	23
118.0648	29
119.0482	13
119.073	10
121.0643	30
125.0149	999
127.0527	18
128.0612	38
129.0686	36
130.0667	12
131.0482	40
131.0837	10
132.0551	10
134.059	15
135.0431	34
136.0747	21
137.0607	16
138.9935	20
140.0251	30
144.0565	18
144.0791	15
145.0651	30
146.0593	29
146.0705	24
147.0444	25
147.0668	16
148.0515	57
148.0744	15
149.0151	10
149.0593	14
150.0546	45
152.0261	17
157.0645	16
160.0752	13
161.0598	15
162.055	19
164.0699	73
165.0758	50
172.0732	10
174.067	15
176.0705	28
177.077	22
178.0774	15
179.0857	13
191.0847	19
194.0712	18
201.0463	10
202.0772	12
203.0864	21
204.0976	33
205.0995	11
207.0802	18
208.0877	26
213.0459	11
215.0849	35
216.0927	16
217.1006	15
221.0955	13
225.0909	21
228.0321	11
229.0425	23
232.0866	15
233.0946	13
235.0981	11
236.1111	10
237.09	13
241.0414	12
243.0559	27
256.0634	13
257.0342	12
270.0676	12
271.0498	10
288.0776	10
300.0788	11
