Mass spectrum: Sitagliptin; LC-ESI-QTOF; MS2; 150 V
Name: Sitagliptin
Class: Pharmaceutical
Formula: C16H15F6N5O
Exact mass: 407.1181
SMILES: c1c(c(cc(c1F)F)F)C[C@H](CC(=O)N2CCn3c(nnc3C(F)(F)F)C2)N
InChI: InChI=1S/C16H15F6N5O/c17-10-6-12(19)11(18)4-8(10)3-9(23)5-14(28)26-1-2-27-13(7-26)24-25-15(27)16(20,21)22/h4,6,9H,1-3,5,7,23H2/t9-/m1/s1
Instrument: TripleTOF 5600 SCIEX
Instrument type: LC-ESI-QTOF
Ms type: MS2
Ion mode: POSITIVE
Collision energy: 150
Fragmentation mode: CID
Ionization: ESI
Column name: Zorbax Eclipse Plus C18 2.1 mm x 150 mm, 3.5 um, Agilent
Retention time: 6.571 min
Precursor m/z: 408.1254
Precursor type: [M+H]+
m/z	relative intensity
42.0432	21
51.0114	84
51.0298	52
55.0359	21
56.055	24
57.0178	171
68.9975	98
74.0174	63
75.0072	378
75.0251	119
77.022	77
77.0417	115
81.0157	273
83.0311	52
85.0087	70
86.017	273
87.0247	511
91.0119	105
95.031	63
96.0396	35
97.0081	17
98.0156	133
99.0062	42
101.0208	999
101.0472	17
105.0133	28
107.0297	711
111.0042	24
114.0282	17
116.0061	24
117.0134	91
118.0216	21
119.0097	56
125.0203	462
126.0282	73
127.0355	750
131.0293	31
137.0205	38
138.0267	24
145.0266	136
151.0346	45
153.0387	56
169.0249	21
