Mass spectrum: Ethyldiphenylphosphine oxide; LC-ESI-QTOF; MS2; 100 V
Name: Ethyldiphenylphosphine oxide
Class: Industrial_process
Formula: C14H15OP
Exact mass: 230.0861
SMILES: CC[P](=O)(c1ccccc1)c2ccccc2
InChI: InChI=1S/C14H15OP/c1-2-16(15,13-9-5-3-6-10-13)14-11-7-4-8-12-14/h3-12H,2H2,1H3
Instrument: TripleTOF 5600 SCIEX
Instrument type: LC-ESI-QTOF
Ms type: MS2
Ion mode: POSITIVE
Collision energy: 100
Fragmentation mode: CID
Ionization: ESI
Column name: Zorbax Eclipse Plus C18 2.1 mm x 150 mm, 3.5 um, Agilent
Retention time: 8.816 min
Precursor m/z: 231.0933
Precursor type: [M+H]+
m/z	relative intensity
46.9995	105
51.03	483
56.9928	87
65.0427	149
68.9934	32
74.0174	46
76.0337	52
77.0411	556
78.0485	228
79.9847	43
80.9902	58
83.007	32
89.0398	102
91.0544	46
102.0472	105
107.0046	193
115.0542	172
126.0458	228
127.0531	67
128.0629	43
131.0057	38
139.0544	149
150.0465	187
151.0547	541
152.062	999
156.012	32
157.0197	125
163.056	64
164.0624	58
165.0691	64
170.029	82
180.0121	35
181.0213	175
183.0342	55
194.0277	32
199.0295	46
