Mass spectrum: Malachite green cation; LC-ESI-QTOF; MS2; 60 V
Name: Malachite green cation
Class: Industrial_process; Pigment
Formula: [C23H25N2]+
Exact mass: 329.2012
SMILES: CN(C)C1=CC=C(C=C1)C(=C2C=CC(=[N+](C)C)C=C2)C3=CC=CC=C3
InChI: InChI=1S/C23H25N2/c1-24(2)21-14-10-19(11-15-21)23(18-8-6-5-7-9-18)20-12-16-22(17-13-20)25(3)4/h5-17H,1-4H3/q+1
Instrument: TripleTOF 5600 SCIEX
Instrument type: LC-ESI-QTOF
Ms type: MS2
Ion mode: POSITIVE
Collision energy: 60
Fragmentation mode: CID
Ionization: ESI
Column name: Zorbax Eclipse Plus C18 2.1 mm x 150 mm, 3.5 um, Agilent
Retention time: 9.29 min
Precursor m/z: 329.2012
Precursor type: [M]+
m/z	relative intensity
165.0689	209
192.0803	124
193.0896	69
208.1134	422
215.083	51
235.1231	143
239.0867	62
241.102	257
242.1053	55
268.1126	102
270.1283	69
283.1226	51
284.1433	249
285.1529	69
297.1404	154
298.1516	51
313.1704	999
