Mass spectrum: 16alpha-hydroxyestrone; LC-ESI-QTOF; MS2; 60 V
Name: 16alpha-hydroxyestrone
Class: Pharmaceutical; Metabolite
Formula: C18H22O3
Exact mass: 286.1569
SMILES: C[C@]12CC[C@@H]3[C@H](CCc4cc(O)ccc34)[C@H]1C[C@@H](O)C2=O
InChI: InChI=1S/C18H22O3/c1-18-7-6-13-12-5-3-11(19)8-10(12)2-4-14(13)15(18)9-16(20)17(18)21/h3,5,8,13-16,19-20H,2,4,6-7,9H2,1H3/t13-,14-,15+,16+,18-/m0/s1
Instrument: TripleTOF 5600 SCIEX
Instrument type: LC-ESI-QTOF
Ms type: MS2
Ion mode: POSITIVE
Collision energy: 60
Fragmentation mode: CID
Ionization: ESI
Column name: Zorbax Eclipse Plus C18 2.1 mm x 150 mm, 3.5 um, Agilent
Retention time: 8.67 min
Precursor m/z: 287.1642
Precursor type: [M+H]+
m/z	relative intensity
43.0275	41
55.0233	27
55.0594	19
57.0388	20
65.0428	40
67.0588	75
77.0423	337
79.0575	261
81.0722	52
89.0392	17
91.0564	387
93.0708	22
94.0419	21
95.0863	16
103.0551	237
105.0709	694
107.0499	369
109.0649	13
115.0547	753
116.0624	245
117.0699	75
119.0853	16
121.0646	43
127.0546	332
128.0623	484
129.07	261
130.0772	12
131.0498	278
131.0815	83
132.0567	56
133.0651	736
139.0544	15
141.0704	481
142.0773	22
143.0852	28
144.0575	951
145.0652	168
147.0798	30
151.0537	41
152.0623	188
153.0701	189
154.0776	50
155.0851	60
157.0653	999
158.0728	94
159.0809	337
164.0622	13
165.0705	409
166.078	70
167.0859	104
168.0573	26
169.0661	115
170.0728	50
171.0804	128
172.0869	14
176.0623	44
177.0701	99
178.078	237
179.0853	144
181.0654	357
182.0728	131
183.0806	124
184.0885	64
185.0958	23
189.0706	40
190.078	30
191.0858	40
193.1014	24
194.0729	161
195.0806	106
196.0881	25
197.0961	35
199.1118	35
202.0777	32
203.0859	31
205.0646	13
206.0736	14
207.0806	85
208.0881	37
209.0956	26
219.0808	16
220.0887	16
221.0962	55
235.1124	10
