Mass spectrum: Amantadine; LC-ESI-QTOF; MS2; 100 V
Name: Amantadine
Class: Pharmaceutical
Formula: C10H17N
Exact mass: 151.1361
SMILES: C1C2CC3CC1CC(C2)(C3)N
InChI: InChI=1S/C10H17N/c11-10-4-7-1-8(5-10)3-9(2-7)6-10/h7-9H,1-6,11H2
Instrument: TripleTOF 5600 SCIEX
Instrument type: LC-ESI-QTOF
Ms type: MS2
Ion mode: POSITIVE
Collision energy: 100
Fragmentation mode: CID
Ionization: ESI
Column name: Zorbax Eclipse Plus C18 2.1 mm x 150 mm, 3.5 um, Agilent
Retention time: 5.148 min
Precursor m/z: 152.1434
Precursor type: [M+H]+
m/z	relative intensity
35.9991	47
37.0071	225
38.0154	166
39.0227	511
41.0389	107
49.0072	118
50.0152	808
51.0229	999
53.038	71
61.0092	47
62.0151	107
63.0223	118
65.0384	214
74.0164	59
77.0384	642
91.0542	95
