Mass spectrum: Chlorfenvinfos; LC-ESI-QTOF; MS2; 20 V
Name: Chlorfenvinfos
Class: Insecticide
Formula: C12H14Cl3O4P
Exact mass: 357.9695
SMILES: CCOP(=O)(OCC)OC(=CCl)C1=C(C=C(C=C1)Cl)Cl
InChI: InChI=1S/C12H14Cl3O4P/c1-3-17-20(16,18-4-2)19-12(8-13)10-6-5-9(14)7-11(10)15/h5-8H,3-4H2,1-2H3
Instrument: TripleTOF 6600 SCIEX
Instrument type: LC-ESI-QTOF
Ms type: MS2
Ion mode: POSITIVE
Collision energy: 20
Fragmentation mode: CID
Ionization: ESI
Column name: Zorbax Eclipse Plus C18 2.1 mm x 150 mm, 3.5 um, Agilent
Retention time: 13.629 min
Precursor m/z: 358.9768
Precursor type: [M+H]+
m/z	relative intensity
98.9817	201
127.0134	518
155.0449	999
169.9652	26
204.9357	547
330.945	40
358.9756	91
