Mass spectrum: Diprogulic acid; LC-ESI-QTOF; MS2; 70 V
Name: Diprogulic acid
Class: Pesticide
Formula: C12H18O7
Exact mass: 274.1053
SMILES: CC1(C)OCC2C(C3C(OC(C)(C)O3)(C(O)=O)O2)O1
InChI: InChI=1S/C12H18O7/c1-10(2)15-5-6-7(17-10)8-12(16-6,9(13)14)19-11(3,4)18-8/h6-8H,5H2,1-4H3,(H,13,14)
Instrument: TripleTOF 6600 SCIEX
Instrument type: LC-ESI-QTOF
Ms type: MS2
Ion mode: POSITIVE
Collision energy: 70
Fragmentation mode: CID
Ionization: ESI
Column name: Zorbax Eclipse Plus C18 2.1 mm x 150 mm, 3.5 um, Agilent
Retention time: 7.352 min
Precursor m/z: 275.1125
Precursor type: [M+H]+
m/z	relative intensity
31.0173	118
39.0231	270
41.0384	220
43.0177	355
55.0172	67
57.0339	67
59.049	999
68.9959	287
69.032	118
71.0112	152
95.0124	304
