Mass spectrum: Etoricoxib; LC-ESI-QTOF; MS2; 20 V
Name: Etoricoxib
Class: Pharmaceutical
Formula: C18H15ClN2O2S
Exact mass: 358.0543
SMILES: CC1=NC=C(C=C1)C2=NC=C(C=C2C3=CC=C(C=C3)S(=O)(=O)C)Cl
InChI: InChI=1S/C18H15ClN2O2S/c1-12-3-4-14(10-20-12)18-17(9-15(19)11-21-18)13-5-7-16(8-6-13)24(2,22)23/h3-11H,1-2H3
Instrument: TripleTOF 5600 SCIEX
Instrument type: LC-ESI-QTOF
Ms type: MS2
Ion mode: POSITIVE
Collision energy: 20
Fragmentation mode: CID
Ionization: ESI
Column name: Zorbax Eclipse Plus C18 2.1 mm x 150 mm, 3.5 um, Agilent
Retention time: 6.991 min
Precursor m/z: 359.0616
Precursor type: [M+H]+
m/z	relative intensity
279.0691	10
280.0761	55
357.926	24
359.0617	999
