Mass spectrum: Cocaethylene; LC-ESI-QTOF; MS2; 60 V
Name: Cocaethylene
Class: Metabolite
Formula: C18H23NO4
Exact mass: 317.1627
SMILES: CCOC(=O)C1C2CCC(N2C)CC1OC(=O)C3=CC=CC=C3
InChI: InChI=1S/C18H23NO4/c1-3-22-18(21)16-14-10-9-13(19(14)2)11-15(16)23-17(20)12-7-5-4-6-8-12/h4-8,13-16H,3,9-11H2,1-2H3
Instrument: TripleTOF 6600 SCIEX
Instrument type: LC-ESI-QTOF
Ms type: MS2
Ion mode: POSITIVE
Collision energy: 60
Fragmentation mode: CID
Ionization: ESI
Column name: Zorbax Eclipse Plus C18 2.1 mm x 150 mm, 3.5 um, Agilent
Retention time: 7.013 min
Precursor m/z: 318.17
Precursor type: [M+H]+
m/z	relative intensity
41.0396	16
42.0351	32
44.0503	22
50.016	12
51.0238	36
55.0188	12
55.0554	40
57.0584	19
65.0396	84
67.0434	52
67.0546	205
68.0505	119
70.0657	25
77.0398	736
79.055	30
80.0506	35
81.0575	12
81.0709	26
82.0664	999
83.0499	60
83.0736	101
91.0553	417
93.0337	38
93.0702	23
94.0658	114
95.0752	11
96.0807	39
105.0347	380
106.0648	14
107.0731	29
108.0813	77
111.0444	25
117.0572	15
119.0494	98
122.0965	77
135.0673	28
140.0708	19
150.0918	26
168.1018	26
196.1332	12
