Mass spectrum: Candesartan; LC-ESI-QTOF; MS2; 70 V
Name: Candesartan
Class: Pharmaceutical
Formula: C24H20N6O3
Exact mass: 440.1597
SMILES: CCOc1nc2cccc(C(O)=O)c2n1Cc3ccc(cc3)c4ccccc4c5n[nH]nn5
InChI: InChI=1S/C24H20N6O3/c1-2-33-24-25-20-9-5-8-19(23(31)32)21(20)30(24)14-15-10-12-16(13-11-15)17-6-3-4-7-18(17)22-26-28-29-27-22/h3-13H,2,14H2,1H3,(H,31,32)(H,26,27,28,29)
Instrument: TripleTOF 5600 SCIEX
Instrument type: LC-ESI-QTOF
Ms type: MS2
Ion mode: POSITIVE
Collision energy: 70
Fragmentation mode: CID
Ionization: ESI
Column name: Zorbax Eclipse Plus C18 2.1 mm x 150 mm, 3.5 um, Agilent
Retention time: 10.001 min
Precursor m/z: 441.167
Precursor type: [M+H]+
m/z	relative intensity
77.0408	44
80.0519	12
90.0352	14
91.0539	17
105.0443	51
115.0545	21
116.0491	10
117.0455	18
127.053	23
128.0607	15
129.0446	14
133.0388	45
139.0556	18
140.0488	79
141.071	14
145.0402	17
150.0469	10
151.054	138
152.0614	515
153.069	311
154.0649	21
161.0345	214
163.0531	118
164.0611	138
165.0696	821
166.0708	91
167.0781	89
168.0677	21
173.0355	32
176.0618	50
177.0598	256
178.0761	647
179.072	210
180.0803	488
181.0758	20
189.0632	66
190.0651	999
191.0729	378
192.0755	604
193.0881	171
194.0962	87
203.0727	21
205.0759	552
206.0837	295
207.0909	172
208.108	14
216.078	30
217.0882	37
218.0908	40
219.0907	102
220.0996	17
232.0996	16
233.1065	54
234.1149	27
239.0857	12
254.0966	29
265.0892	10
266.0893	21
267.0973	34
278.082	9
279.0891	35
280.0997	22
281.1066	46
282.0905	24
291.0921	12
292.0958	17
293.0943	49
294.078	56
294.1021	20
295.088	15
296.1174	12
297.1008	29
306.1048	21
307.0923	39
308.0962	81
309.1012	72
310.1093	17
320.0987	17
321.0966	36
322.097	32
323.1035	12
324.1106	10
333.0864	11
334.0934	11
335.1038	12
336.0893	14
337.1011	31
348.0969	24
349.0799	29
