Mass spectrum: Iobitridol; LC-ESI-QTOF; MS2; 40 V
Name: Iobitridol
Class: Pharmaceutical
Formula: C20H28I3N3O9
Exact mass: 834.896
SMILES: CN(CC(O)CO)C(=O)c1c(I)c(NC(=O)C(CO)CO)c(I)c(c1I)C(=O)N(C)CC(O)CO
InChI: InChI=1S/C20H28I3N3O9/c1-25(3-10(31)7-29)19(34)12-14(21)13(20(35)26(2)4-11(32)8-30)16(23)17(15(12)22)24-18(33)9(5-27)6-28/h9-11,27-32H,3-8H2,1-2H3,(H,24,33)
Instrument: TripleTOF 5600 SCIEX
Instrument type: LC-ESI-QTOF
Ms type: MS2
Ion mode: POSITIVE
Collision energy: 40
Fragmentation mode: CID
Ionization: ESI
Column name: Zorbax Eclipse Plus C18 2.1 mm x 150 mm, 3.5 um, Agilent
Retention time: 4.58 min
Precursor m/z: 835.9032
Precursor type: [M+H]+
m/z	relative intensity
400.9999	30
417.0006	11
449.0191	22
474.9973	176
477.0201	16
500.8898	14
554.8923	16
554.9175	11
557.9067	11
575.9228	134
584.8902	22
584.9112	25
602.9091	999
602.9588	19
625.7344	30
625.7631	16
628.7913	168
671.9711	28
689.9707	123
712.8221	16
715.8447	42
715.8676	33
730.8281	86
733.8648	143
817.8905	232
835.9013	179
