Mass spectrum: 17alpha-Hydroxyprogesterone; LC-ESI-QTOF; MS2; 70 V
Name: 17alpha-Hydroxyprogesterone
Class: Pharmaceutical
Formula: C21H30O3
Exact mass: 330.2195
SMILES: CC(=O)[C@@]1(O)CC[C@H]2[C@@H]3CCC4=CC(=O)CC[C@]4(C)[C@H]3CC[C@]12C
InChI: InChI=1S/C21H30O3/c1-13(22)21(24)11-8-18-16-5-4-14-12-15(23)6-9-19(14,2)17(16)7-10-20(18,21)3/h12,16-18,24H,4-11H2,1-3H3/t16-,17+,18+,19+,20+,21+/m1/s1
Instrument: TripleTOF 5600 SCIEX
Instrument type: LC-ESI-QTOF
Ms type: MS2
Ion mode: POSITIVE
Collision energy: 70
Fragmentation mode: CID
Ionization: ESI
Column name: Zorbax Eclipse Plus C18 2.1 mm x 150 mm, 3.5 um, Agilent
Retention time: 11.808 min
Precursor m/z: 331.2268
Precursor type: [M+H]+
m/z	relative intensity
43.0266	212
53.0437	42
55.0238	56
57.0383	12
65.0422	73
66.0515	15
67.0579	187
69.0374	20
69.0733	84
77.0415	410
79.0572	772
81.0368	32
81.0728	423
83.0513	78
91.0561	504
93.0705	120
94.0415	29
95.0501	20
95.0864	108
97.066	999
103.0551	54
104.0636	13
105.0704	345
107.0488	39
107.0856	44
108.0581	15
109.0653	854
115.0542	99
116.0612	27
117.0698	101
119.0851	125
121.0644	41
121.0999	12
123.0802	152
127.0538	36
128.062	133
129.0712	140
130.077	44
131.0851	96
133.0642	13
133.1012	37
135.0822	10
141.07	96
142.0771	92
143.0863	84
144.0938	18
145.1	70
147.0816	22
147.1174	18
149.0967	10
152.0632	17
153.0686	49
154.0774	27
155.0852	73
156.0942	34
157.1016	42
159.1152	24
165.0681	51
166.0775	24
167.0854	44
168.0931	25
169.101	42
170.1099	13
171.118	15
178.0774	15
179.0857	32
181.1018	25
182.1091	10
183.1161	12
191.0834	13
195.1212	17
