Mass spectrum: 2H,2H,3H,3H-Perfluorooctanoic acid; LC-ESI-QTOF; MS2; 10 V
Name: 2H,2H,3H,3H-Perfluorooctanoic acid
Formula: C8H5F11O2
Exact mass: 342.0114
SMILES: C(CC(C(C(C(C(F)(F)F)(F)F)(F)F)(F)F)(F)F)C(=O)O
InChI: InChI=1S/C8H5F11O2/c9-4(10,2-1-3(20)21)5(11,12)6(13,14)7(15,16)8(17,18)19/h1-2H2,(H,20,21)
Instrument: TripleTOF 6600 SCIEX
Instrument type: LC-ESI-QTOF
Ms type: MS2
Ion mode: NEGATIVE
Collision energy: 10
Fragmentation mode: CID
Ionization: ESI
Column name: Zorbax Eclipse Plus C18 2.1 mm x 150 mm, 3.5 um, Agilent
Retention time: 12.337 min
Precursor m/z: 341.0041
Precursor type: [M-H]-
m/z	relative intensity
39.0035	19
62.9861	162
216.9865	249
236.9926	999
256.9984	420
