Mass spectrum: Foramsulfuron; LC-ESI-QTOF; MS2; 70 V
Name: Foramsulfuron
Class: Herbicide
Formula: C17H20N6O7S
Exact mass: 452.1114
SMILES: CN(C)C(=O)C1=C(C=C(C=C1)NC=O)S(=O)(=O)NC(=O)NC2=NC(=CC(=N2)OC)OC
InChI: InChI=1S/C17H20N6O7S/c1-23(2)15(25)11-6-5-10(18-9-24)7-12(11)31(27,28)22-17(26)21-16-19-13(29-3)8-14(20-16)30-4/h5-9H,1-4H3,(H,18,24)(H2,19,20,21,22,26)
Instrument: TripleTOF 6600 SCIEX
Instrument type: LC-ESI-QTOF
Ms type: MS2
Ion mode: POSITIVE
Collision energy: 70
Fragmentation mode: CID
Ionization: ESI
Column name: Zorbax Eclipse Plus C18 2.1 mm x 150 mm, 3.5 um, Agilent
Retention time: 8.823 min
Precursor m/z: 453.1187
Precursor type: [M+H]+
m/z	relative intensity
45.0434	10
56.024	10
65.0485	31
68.0234	13
69.0076	35
71.0703	56
79.0637	10
80.0594	29
81.0548	20
82.0386	50
83.0339	894
90.0432	20
92.0584	108
93.0177	86
94.0746	17
100.0481	75
105.0534	88
106.0372	10
106.0748	26
107.0691	41
109.0482	44
117.053	27
120.0524	118
121.0369	79
124.0593	19
135.063	39
135.0985	18
136.0465	46
138.0369	13
139.0577	999
148.0462	67
156.083	68
161.0401	47
162.0235	30
163.0334	13
163.0562	19
166.0302	13
167.0391	13
182.0606	567
212.0036	63
227.0147	18
255.0424	21
