Mass spectrum: Flazasulfuron; LC-ESI-QTOF; MS2; 40 V
Name: Flazasulfuron
Class: Herbicide
Formula: C13H12F3N5O5S
Exact mass: 407.0511
SMILES: COC1=CC(=NC(=N1)NC(=O)NS(=O)(=O)C2=C(C=CC=N2)C(F)(F)F)OC
InChI: InChI=1S/C13H12F3N5O5S/c1-25-8-6-9(26-2)19-11(18-8)20-12(22)21-27(23,24)10-7(13(14,15)16)4-3-5-17-10/h3-6H,1-2H3,(H2,18,19,20,21,22)
Instrument: TripleTOF 6600 SCIEX
Instrument type: LC-ESI-QTOF
Ms type: MS2
Ion mode: NEGATIVE
Collision energy: 40
Fragmentation mode: CID
Ionization: ESI
Column name: Zorbax Eclipse Plus C18 2.1 mm x 150 mm, 3.5 um, Agilent
Retention time: 11.145 min
Precursor m/z: 406.0438
Precursor type: [M-H]-
m/z	relative intensity
41.9974	80
65.0127	56
65.9964	54
105.9582	37
107.0113	71
111.0666	11
121.0189	35
122.0344	187
124.049	19
139.0108	16
139.0365	115
141.0247	12
142.0091	11
154.0607	999
159.0159	46
161.0312	260
162.0146	196
164.0303	32
179.0555	109
187.0134	29
224.9976	36
250.9734	179
