Mass spectrum: Hydrocortisone; LC-ESI-QTOF; MS2; 40 V
Name: Hydrocortisone
Class: Pharmaceutical
Formula: C21H30O5
Exact mass: 362.2093
SMILES: C[C@]12CCC(=O)C=C1CC[C@H]3[C@@H]4CC[C@](O)(C(=O)CO)[C@@]4(C)C[C@H](O)[C@H]23
InChI: InChI=1S/C21H30O5/c1-19-7-5-13(23)9-12(19)3-4-14-15-6-8-21(26,17(25)11-22)20(15,2)10-16(24)18(14)19/h9,14-16,18,22,24,26H,3-8,10-11H2,1-2H3/t14-,15-,16-,18+,19-,20-,21-/m0/s1
Instrument: TripleTOF 5600 SCIEX
Instrument type: LC-ESI-QTOF
Ms type: MS2
Ion mode: POSITIVE
Collision energy: 40
Fragmentation mode: CID
Ionization: ESI
Column name: Zorbax Eclipse Plus C18 2.1 mm x 150 mm, 3.5 um, Agilent
Retention time: 8.323 min
Precursor m/z: 363.2166
Precursor type: [M+H]+
m/z	relative intensity
43.0265	10
67.0592	32
69.0727	13
77.0419	85
79.0558	83
81.0721	63
83.0502	41
91.0557	175
93.0698	160
95.0492	10
95.0858	48
97.0659	276
103.0562	15
105.0698	250
107.0492	30
107.0844	114
109.0647	177
109.1021	15
111.0421	15
115.0522	39
116.0621	13
117.069	100
119.0468	21
119.0858	180
119.11	13
121.0648	999
121.0969	54
123.0802	228
123.1213	13
125.0595	19
127.0541	10
128.0613	70
129.0685	129
130.0779	21
131.0846	206
133.0652	32
133.0999	109
135.0809	116
135.1152	26
137.0944	19
141.0694	94
142.0762	74
143.0848	252
144.0934	24
145.0646	43
145.1009	243
146.1094	19
147.0797	85
147.1169	188
148.0883	17
149.0955	48
149.13	17
151.0747	10
153.0696	21
153.093	13
154.0782	24
155.0851	136
156.0921	21
157.0641	10
157.0997	217
158.0728	15
158.1092	10
159.0804	61
159.1159	131
161.0958	81
161.1306	41
163.1103	129
165.068	30
166.0766	21
167.0855	70
168.0928	21
169.0724	10
169.1006	188
170.1075	13
171.0794	48
171.1168	114
172.1223	28
173.0957	116
173.1325	59
174.1012	15
175.111	98
177.0901	15
177.1257	30
178.0755	13
179.0843	52
180.0939	32
181.1011	90
182.1077	17
183.0807	21
183.1157	131
183.1363	10
184.1253	10
185.0958	72
185.1315	98
187.1105	122
187.1459	37
189.1257	48
191.1043	17
192.0919	30
193.1004	48
194.1055	19
195.1154	87
196.1244	17
197.0969	50
197.1321	74
198.0999	15
199.1089	50
199.1479	54
200.1171	13
201.1268	61
201.1642	17
203.1045	10
203.1414	17
204.09	10
205.0992	15
205.1208	17
206.1064	13
207.1148	98
208.1236	24
209.0933	15
209.1307	138
210.1379	17
211.1114	52
211.1459	68
212.118	10
213.1254	85
213.165	13
214.1328	13
215.141	41
215.1769	10
217.1146	13
219.1172	28
219.1406	10
221.1318	54
223.1095	32
223.1476	92
225.1263	118
225.1646	50
226.1303	10
227.1419	68
227.1753	17
228.1486	17
229.1209	15
229.1568	19
231.1156	15
231.1367	15
233.1316	41
235.1112	17
235.146	32
235.1654	10
237.1254	24
237.16	13
239.1414	114
239.1788	30
241.1575	127
243.1358	24
243.1736	70
245.1365	13
245.1524	17
247.1066	13
247.1499	32
249.1258	10
249.1618	68
250.1678	13
251.1424	127
251.1778	52
252.1479	15
253.157	103
255.1742	13
257.1507	13
257.192	15
261.1263	10
261.1629	30
263.1454	26
263.1776	37
265.161	35
266.166	19
267.139	21
267.1743	250
268.1798	74
269.1567	39
269.1886	144
271.1681	15
273.1659	24
279.1376	17
279.1724	54
281.1531	30
281.1904	83
283.1676	28
285.1837	41
286.1954	21
287.205	17
291.1748	105
294.1742	19
297.1855	129
299.1998	37
301.1846	17
309.1861	241
312.1713	19
315.1958	46
327.1951	300
345.207	142
363.2166	509
