Mass spectrum: Alpha-hydroxy-metoprolol; LC-ESI-QTOF; MS2; 90 V
Name: Alpha-hydroxy-metoprolol
Class: Pharmaceutical; Metabolite
Formula: C15H25NO4
Exact mass: 283.1784
SMILES: COCC(O)c1ccc(OCC(O)CNC(C)C)cc1
InChI: InChI=1S/C15H25NO4/c1-11(2)16-8-13(17)9-20-14-6-4-12(5-7-14)15(18)10-19-3/h4-7,11,13,15-18H,8-10H2,1-3H3
Instrument: TripleTOF 5600 SCIEX
Instrument type: LC-ESI-QTOF
Ms type: MS2
Ion mode: POSITIVE
Collision energy: 90
Fragmentation mode: CID
Ionization: ESI
Column name: Zorbax Eclipse Plus C18 2.1 mm x 150 mm, 3.5 um, Agilent
Retention time: 5.057 min
Precursor m/z: 284.1856
Precursor type: [M+H]+
m/z	relative intensity
43.0279	13
44.0597	10
45.044	41
56.0562	149
58.0705	48
65.0435	289
72.0849	18
74.0638	37
75.0252	17
77.0421	999
78.0491	213
79.0569	117
89.0403	159
90.0477	71
91.0561	566
100.1142	12
102.0473	33
103.0544	113
105.0335	137
105.0701	33
106.0415	57
107.0504	49
115.0543	87
118.0413	26
119.0503	18
127.0544	33
128.0621	75
131.0504	20
147.0492	17
