Mass spectrum: Olmesartan-d6; LC-ESI-QTOF; MS2; 150 V
Name: Olmesartan-d6
Class: Surrogate_standard
Formula: C24H20N6O3 2H6
Exact mass: 452.2443
InChI: InChI=1S/C24H26N6O3/c1-4-7-19-25-21(24(2,3)33)20(23(31)32)30(19)14-15-10-12-16(13-11-15)17-8-5-6-9-18(17)22-26-28-29-27-22/h5-6,8-13,33H,4,7,14H2,1-3H3,(H,31,32)(H,26,27,28,29)/i2D3,3D3
Instrument: TripleTOF 5600 SCIEX
Instrument type: LC-ESI-QTOF
Ms type: CID
Ion mode: POSITIVE
Collision energy: 150
Ionization: ESI
Column name: Zorbax Eclipse Plus C18 2.1 mm x 150 mm, 3.5 um, Agilent
Retention time: 7.306 min
Precursor m/z: 453.2527
Precursor type: [M+H]+
m/z	relative intensity
51.029	48
63.0277	31
75.0257	32
77.0427	101
78.05	22
85.0104	13
86.0179	28
87.0251	66
88.0328	17
89.0415	78
98.0164	38
99.024	36
100.0316	17
101.0408	36
102.0477	87
110.0189	22
111.0242	17
113.0406	116
114.0401	75
115.0556	131
123.0235	13
125.0382	76
126.0469	174
127.0543	165
128.0465	10
128.0631	76
137.0387	134
138.0452	88
139.0546	171
140.0498	212
141.0564	16
149.0389	51
150.0465	607
151.0546	999
152.062	827
153.0659	88
161.0381	75
162.0473	155
163.0539	651
164.0515	461
165.0691	150
166.0645	29
174.0452	14
175.0519	38
176.0612	453
177.0597	264
178.0653	169
179.0625	36
187.0426	14
188.0478	209
189.0565	99
190.0655	357
191.0655	31
192.0655	13
203.0592	11
205.0765	65
