Mass spectrum: 6-Thioxanthine; LC-ESI-QTOF; MS2; 30 V
Name: 6-Thioxanthine
Class: Metabolite; Pharmaceutical
Formula: C5H4N4OS
Exact mass: 168.0106
SMILES: C1=NC2=C(N1)C(=S)NC(=O)N2
InChI: InChI=1S/C5H4N4OS/c10-5-8-3-2(4(11)9-5)6-1-7-3/h1H,(H3,6,7,8,9,10,11)
Instrument: TripleTOF 5600 SCIEX
Instrument type: LC-ESI-QTOF
Ms type: MS2
Ion mode: POSITIVE
Collision energy: 30
Fragmentation mode: CID
Ionization: ESI
Column name: Zorbax Eclipse Plus C18 2.1 mm x 150 mm, 3.5 um, Agilent
Retention time: 4.02 min
Precursor m/z: 169.0179
Precursor type: [M+H]+
m/z	relative intensity
96.99	81
99.0065	40
107.0369	40
108.9879	101
123.9991	135
126.0137	190
135.0322	54
151.9925	999
169.0164	40
