Mass spectrum: Methylecgonidine; LC-ESI-QTOF; MS2; 70 V
Name: Methylecgonidine
Class: Metabolite
Formula: C10H15NO2
Exact mass: 181.1103
SMILES: CN1C2CCC1C(=CC2)C(=O)OC
InChI: InChI=1S/C10H15NO2/c1-11-7-3-5-8(10(12)13-2)9(11)6-4-7/h5,7,9H,3-4,6H2,1-2H3
Instrument: TripleTOF 6600 SCIEX
Instrument type: LC-ESI-QTOF
Ms type: MS2
Ion mode: POSITIVE
Collision energy: 70
Fragmentation mode: CID
Ionization: ESI
Column name: Zorbax Eclipse Plus C18 2.1 mm x 150 mm, 3.5 um, Agilent
Retention time: 4.43 min
Precursor m/z: 182.1176
Precursor type: [M+H]+
m/z	relative intensity
37.0073	166
38.0152	133
39.0231	976
41.0387	199
42.0339	166
44.0492	44
50.0149	88
51.0226	388
52.031	44
53.0381	122
56.0497	99
62.014	44
63.0225	166
65.0383	999
66.0463	88
67.041	55
77.0382	466
78.0327	77
79.0535	155
80.049	99
89.0382	477
90.0456	199
91.0537	299
106.0647	166
