Mass spectrum: 2,2,4-Trimethyl-1,2-dihydroquinoline; LC-ESI-QTOF; MS2; 110 V
Name: 2,2,4-Trimethyl-1,2-dihydroquinoline
Class: Industrial_process
Formula: C12H15N
Exact mass: 173.1204
SMILES: CC1=CC(NC2=CC=CC=C12)(C)C
InChI: InChI=1S/C12H15N/c1-9-8-12(2,3)13-11-7-5-4-6-10(9)11/h4-8,13H,1-3H3
Instrument: TripleTOF 6600 SCIEX
Instrument type: LC-ESI-QTOF
Ms type: MS2
Ion mode: POSITIVE
Collision energy: 110
Fragmentation mode: CID
Ionization: ESI
Column name: Zorbax Eclipse Plus C18 2.1 mm x 150 mm, 3.5 um, Agilent
Retention time: 12.497 min
Precursor m/z: 174.1277
Precursor type: [M+H]+
m/z	relative intensity
35.9987	49
37.0069	377
38.0029	24
38.0145	262
39.0226	933
41.0253	10
41.038	17
42.0335	23
49.0063	110
50.0144	897
51.0223	999
52.0169	21
52.0303	23
61.0063	107
62.0143	341
63.022	590
64.0292	21
65.0376	121
73.0064	40
74.0141	343
75.0219	115
76.0295	24
77.0373	101
85.0057	15
86.0136	32
87.0214	21
89.0372	259
98.0135	17
102.0445	15
113.0369	10
115.0528	82
