Mass spectrum: Trimethyl phosphate; LC-ESI-QTOF; MS2; 40 V
Name: Trimethyl phosphate
Class: Industrial_process
Formula: C3H9O4P
Exact mass: 140.0238
SMILES: COP(=O)(OC)OC
InChI: InChI=1S/C3H9O4P/c1-5-8(4,6-2)7-3/h1-3H3
Instrument: TripleTOF 5600 SCIEX
Instrument type: LC-ESI-QTOF
Ms type: CID
Ion mode: POSITIVE
Collision energy: 40
Ionization: ESI
Column name: Zorbax Eclipse Plus C18 2.1 mm x 150 mm, 3.5 um, Agilent
Retention time: 4.966 min
Precursor m/z: 141.0311
Precursor type: [M+H]+
m/z	relative intensity
46.9674	95
78.9945	877
92.9735	95
94.9917	121
109.0051	999
