Mass spectrum: Bosentan; LC-ESI-QTOF; MS2; 150 V
Name: Bosentan
Class: Pharmaceutical
Formula: C27H29N5O6S
Exact mass: 551.1839
SMILES: CC(C)(C)C1=CC=C(C=C1)S(=O)(=O)NC2=C(C(=NC(=N2)C3=NC=CC=N3)OCCO)OC4=CC=CC=C4OC
InChI: InChI=1S/C27H29N5O6S/c1-27(2,3)18-10-12-19(13-11-18)39(34,35)32-23-22(38-21-9-6-5-8-20(21)36-4)26(37-17-16-33)31-25(30-23)24-28-14-7-15-29-24/h5-15,33H,16-17H2,1-4H3,(H,30,31,32)
Instrument: TripleTOF 5600 SCIEX
Instrument type: LC-ESI-QTOF
Ms type: MS2
Ion mode: POSITIVE
Collision energy: 150
Fragmentation mode: CID
Ionization: ESI
Column name: Zorbax Eclipse Plus C18 2.1 mm x 150 mm, 3.5 um, Agilent
Retention time: 12.118 min
Precursor m/z: 552.1911
Precursor type: [M+H]+
m/z	relative intensity
43.0421	12
52.0277	51
53.0343	91
64.04	15
65.0459	218
68.0439	10
69.0499	10
75.0276	31
76.034	15
77.0438	274
78.037	12
78.051	65
79.0342	999
79.0585	29
80.0199	14
80.0419	544
81.0503	14
89.0419	72
90.0367	28
91.0428	17
91.0572	82
92.0289	33
92.0527	58
93.0373	107
102.0354	66
103.0535	35
104.029	10
104.0506	111
105.0358	14
105.0639	17
106.0419	627
107.0497	24
108.0535	14
114.0338	15
115.0537	40
116.0525	54
117.0707	28
118.0545	12
119.062	37
120.045	128
121.0285	37
129.0464	17
130.0339	15
131.0596	40
132.0453	21
134.0474	22
144.0419	12
147.0645	15
