Mass spectrum: (4-Carboxybutyl)triphenylphosphonium; LC-ESI-QTOF; MS2; 140 V
Name: (4-Carboxybutyl)triphenylphosphonium
Class: Industrial_process
Formula: [C23H24O2P]+
Exact mass: 363.1508
SMILES: C1=CC=C(C=C1)[P+](CCCCC(=O)O)(C2=CC=CC=C2)C3=CC=CC=C3
InChI: InChI=1S/C23H23O2P/c24-23(25)18-10-11-19-26(20-12-4-1-5-13-20,21-14-6-2-7-15-21)22-16-8-3-9-17-22/h1-9,12-17H,10-11,18-19H2/p+1
Instrument: TripleTOF 5600 SCIEX
Instrument type: LC-ESI-QTOF
Ms type: MS2
Ion mode: POSITIVE
Collision energy: 140
Fragmentation mode: CID
Ionization: ESI
Column name: Zorbax Eclipse Plus C18 2.1 mm x 150 mm, 3.5 um, Agilent
Retention time: 7.21 min
Precursor m/z: 363.1508
Precursor type: [M]+
m/z	relative intensity
63.0217	58
79.9791	67
80.9871	155
89.0365	181
102.0446	82
107.0027	740
113.0363	73
115.0523	359
126.045	189
131.003	75
133.0183	87
139.0528	324
150.0457	132
151.0534	453
152.0612	999
156.012	85
157.0193	557
181.0193	370
183.0346	199
226.0769	109
257.0512	64
