Mass spectrum: Opipramol; LC-ESI-QTOF; MS2; 100 V
Name: Opipramol
Class: Pharmaceutical
Formula: C23H29N3O
Exact mass: 363.2311
SMILES: OCCN1CCN(CCCN2c3ccccc3C=Cc4ccccc24)CC1
InChI: InChI=1S/C23H29N3O/c27-19-18-25-16-14-24(15-17-25)12-5-13-26-22-8-3-1-6-20(22)10-11-21-7-2-4-9-23(21)26/h1-4,6-11,27H,5,12-19H2
Instrument: TripleTOF 5600 SCIEX
Instrument type: LC-ESI-QTOF
Ms type: MS2
Ion mode: POSITIVE
Collision energy: 100
Fragmentation mode: CID
Ionization: ESI
Column name: Zorbax Eclipse Plus C18 2.1 mm x 150 mm, 3.5 um, Agilent
Retention time: 7.242 min
Precursor m/z: 364.2383
Precursor type: [M+H]+
m/z	relative intensity
42.0425	185
45.0409	102
45.0531	17
56.0535	129
57.0614	17
58.069	26
67.0466	11
68.0529	20
68.062	17
69.0489	17
70.0689	343
72.0461	14
72.0831	23
75.026	49
77.041	146
82.0663	73
83.0617	152
97.0769	249
98.0836	302
100.0757	182
101.0382	111
102.0343	17
102.0449	11
111.0923	14
112.0974	23
115.0561	11
127.0562	17
128.0489	132
128.0939	11
129.0453	23
139.0532	26
140.0492	17
150.0448	29
151.0545	176
152.0619	223
163.053	47
164.0624	52
165.0695	79
166.0651	35
167.073	35
175.0562	23
176.0621	296
177.0697	302
178.0771	960
179.0737	26
179.0855	17
180.0817	35
188.0628	11
189.0688	14
190.064	91
191.0724	114
192.0812	49
193.0892	11
202.0645	32
203.073	146
204.0809	999
205.0878	44
206.0972	20
216.0774	26
217.0878	32
