Mass spectrum: Clindamycin; LC-ESI-QTOF; MS2; 60 V
Name: Clindamycin
Class: Antimicrobial; Pharmaceutical
Formula: C18H33ClN2O5S
Exact mass: 424.1799
SMILES: CCCC1CC(N(C1)C)C(=O)NC(C2C(C(C(C(O2)SC)O)O)O)C(C)Cl
InChI: InChI=1S/C18H33ClN2O5S/c1-5-6-10-7-11(21(3)8-10)17(25)20-12(9(2)19)16-14(23)13(22)15(24)18(26-16)27-4/h9-16,18,22-24H,5-8H2,1-4H3,(H,20,25)
Instrument: TripleTOF 5600 SCIEX
Instrument type: LC-ESI-QTOF
Ms type: MS2
Ion mode: POSITIVE
Collision energy: 60
Fragmentation mode: CID
Ionization: ESI
Column name: Zorbax Eclipse Plus C18 2.1 mm x 150 mm, 3.5 um, Agilent
Retention time: 6.261 min
Precursor m/z: 425.1871
Precursor type: [M+H]+
m/z	relative intensity
42.0459	10
69.0755	20
70.0701	30
82.0689	29
83.0767	34
84.0838	18
95.0865	12
124.1119	22
126.1274	999
