Mass spectrum: Iprovalicarb; LC-ESI-QTOF; MS2; 30 V
Name: Iprovalicarb
Class: Fungicide
Formula: C18H28N2O3
Exact mass: 320.21
SMILES: CC1=CC=C(C=C1)C(C)NC(=O)C(C(C)C)NC(=O)OC(C)C
InChI: InChI=1S/C18H28N2O3/c1-11(2)16(20-18(22)23-12(3)4)17(21)19-14(6)15-9-7-13(5)8-10-15/h7-12,14,16H,1-6H3,(H,19,21)(H,20,22)
Instrument: TripleTOF 6600 SCIEX
Instrument type: LC-ESI-QTOF
Ms type: MS2
Ion mode: POSITIVE
Collision energy: 30
Fragmentation mode: CID
Ionization: ESI
Column name: Zorbax Eclipse Plus C18 2.1 mm x 150 mm, 3.5 um, Agilent
Retention time: 11.936 min
Precursor m/z: 321.2173
Precursor type: [M+H]+
m/z	relative intensity
72.0808	19
91.0543	40
98.0598	20
116.071	144
117.0708	36
117.1016	12
119.0863	999
144.0658	11
