Mass spectrum: Fluazifop; LC-ESI-QTOF; MS2; 100 V
Name: Fluazifop
Class: Herbicide; Transformation_product
Formula: C15H12F3NO4
Exact mass: 327.0718
SMILES: CC(C(=O)O)Oc1ccc(cc1)Oc2ccc(cn2)C(F)(F)F
InChI: InChI=1S/C15H12F3NO4/c1-9(14(20)21)22-11-3-5-12(6-4-11)23-13-7-2-10(8-19-13)15(16,17)18/h2-9H,1H3,(H,20,21)
Instrument: TripleTOF 6600 SCIEX
Instrument type: LC-ESI-QTOF
Ms type: MS2
Ion mode: NEGATIVE
Collision energy: 100
Fragmentation mode: CID
Ionization: ESI
Column name: Zorbax Eclipse Plus C18 2.1 mm x 150 mm, 3.5 um, Agilent
Retention time: 11.668 min
Precursor m/z: 326.0646
Precursor type: [M-H]-
m/z	relative intensity
41.0024	65
41.9983	81
49.0076	114
50.0025	180
66.9971	802
68.994	98
73.007	81
74.0017	720
76.018	131
78.9964	131
87.0084	98
88.0171	98
94.9921	458
97.0078	131
98.002	81
108.0205	999
111.0098	114
111.0227	131
112.0191	131
114.9986	605
122.003	180
124.0199	65
132.0238	229
136.019	65
137.0246	131
138.0333	294
142.0099	180
156.0258	114
158.0383	147
162.0146	229
