Mass spectrum: Bis(2-isopropylphenyl) phenyl phosphate; LC-ESI-QTOF; MS2; 110 V
Name: Bis(2-isopropylphenyl) phenyl phosphate
Formula: C24H27O4P
Exact mass: 410.1647
SMILES: CC(C)C1=CC=CC=C1OP(=O)(OC2=CC=CC=C2)OC3=CC=CC=C3C(C)C
InChI: InChI=1S/C24H27O4P/c1-18(2)21-14-8-10-16-23(21)27-29(25,26-20-12-6-5-7-13-20)28-24-17-11-9-15-22(24)19(3)4/h5-19H,1-4H3
Instrument: TripleTOF 6600 SCIEX
Instrument type: LC-ESI-QTOF
Ms type: MS2
Ion mode: POSITIVE
Collision energy: 110
Fragmentation mode: CID
Ionization: ESI
Column name: Zorbax Eclipse Plus C18 2.1 mm x 150 mm, 3.5 um, Agilent
Retention time: 17.429 min
Precursor m/z: 411.172
Precursor type: [M+H]+
m/z	relative intensity
37.0073	18
38.0151	12
39.023	136
41.0384	41
49.007	13
50.0149	79
51.0231	342
62.0148	13
63.0228	42
65.0386	813
77.0385	737
78.0458	26
79.0545	10
89.0376	18
91.0542	734
92.0252	13
95.0483	15
101.0381	10
102.0457	26
103.0534	16
105.0443	10
115.0536	65
125.0384	12
126.046	65
127.054	42
128.0613	13
139.0537	139
140.0612	13
141.0686	15
150.0462	81
151.054	299
152.0621	999
164.062	18
165.0689	45
168.0565	149
176.0614	15
178.0773	19
179.0596	22
200.0621	10
201.0693	18
202.0768	32
224.0596	13
225.0692	21
226.0784	168
227.0845	10
