Mass spectrum: Trospium; LC-ESI-QTOF; MS2; 140 V
Name: Trospium
Class: Pharmaceutical
Formula: [C25H30NO3]+
Exact mass: 392.222
SMILES: C1CC[N+]2(C1)C3CCC2CC(C3)OC(=O)C(C4=CC=CC=C4)(C5=CC=CC=C5)O
InChI: InChI=1S/C25H30NO3/c27-24(25(28,19-9-3-1-4-10-19)20-11-5-2-6-12-20)29-23-17-21-13-14-22(18-23)26(21)15-7-8-16-26/h1-6,9-12,21-23,28H,7-8,13-18H2/q+1
Instrument: TripleTOF 6600 SCIEX
Instrument type: LC-ESI-QTOF
Ms type: MS2
Ion mode: POSITIVE
Collision energy: 140
Fragmentation mode: CID
Ionization: ESI
Column name: Zorbax Eclipse Plus C18 2.1 mm x 150 mm, 3.5 um, Agilent
Retention time: 7.411 min
Precursor m/z: 392.222
Precursor type: [M]+
m/z	relative intensity
39.0224	254
41.0381	263
42.0335	72
50.0138	90
51.0216	408
53.037	72
54.0326	326
55.0524	99
56.0479	163
65.0358	263
67.0519	118
68.0477	272
69.055	399
70.0624	199
77.0357	999
79.0506	90
80.0461	299
82.0622	81
91.0495	263
94.0607	181
96.0766	717
97.0842	118
108.0765	54
120.0753	72
