Mass spectrum: Metolachlor OA; LC-ESI-QTOF; MS2; 50 V
Name: Metolachlor OA
Class: Herbicide
Formula: C15H21NO4
Exact mass: 279.1471
SMILES: CCC1=CC=CC(=C1N(C(C)COC)C(=O)C(=O)O)C
InChI: InChI=1S/C15H21NO4/c1-5-12-8-6-7-10(2)13(12)16(11(3)9-20-4)14(17)15(18)19/h6-8,11H,5,9H2,1-4H3,(H,18,19)
Instrument: TripleTOF 5600 SCIEX
Instrument type: LC-ESI-QTOF
Ms type: MS2
Ion mode: POSITIVE
Collision energy: 50
Fragmentation mode: CID
Ionization: ESI
Column name: Zorbax Eclipse Plus C18 2.1 mm x 150 mm, 3.5 um, Agilent
Retention time: 9.915 min
Precursor m/z: 280.1543
Precursor type: [M+H]+
m/z	relative intensity
45.0403	64
73.0682	128
77.0393	115
91.0549	730
93.0706	128
103.0537	89
104.0647	76
105.0682	89
106.0664	89
108.0817	64
115.0529	179
117.0609	115
117.07	243
118.0648	268
119.0736	525
120.0793	89
129.0722	102
130.0638	601
131.0725	999
132.0792	358
133.0877	230
134.0939	204
142.0666	76
144.0795	730
145.0877	166
146.097	525
148.1133	217
158.0997	102
160.1142	179
176.1444	76
