Mass spectrum: Sulfathiazole; LC-ESI-QTOF; MS2; 40 V
Name: Sulfathiazole
Class: Antimicrobial; Pharmaceutical
Formula: C9H9N3O2S2
Exact mass: 255.0136
SMILES: C1=CC(=CC=C1N)S(=O)(=O)NC2=NC=CS2
InChI: InChI=1S/C9H9N3O2S2/c10-7-1-3-8(4-2-7)16(13,14)12-9-11-5-6-15-9/h1-6H,10H2,(H,11,12)
Instrument: TripleTOF 5600 SCIEX
Instrument type: LC-ESI-QTOF
Ms type: MS2
Ion mode: NEGATIVE
Collision energy: 40
Fragmentation mode: CID
Ionization: ESI
Column name: Zorbax Eclipse Plus C18 2.1 mm x 150 mm, 3.5 um, Agilent
Retention time: 5.367 min
Precursor m/z: 254.0063
Precursor type: [M-H]-
m/z	relative intensity
63.9613	306
65.0132	138
92.0497	197
97.9936	702
156.0115	999
254.0112	59
