Mass spectrum: Bisoprolol; LC-ESI-QTOF; MS2; 110 V
Name: Bisoprolol
Class: Pharmaceutical
Formula: C18H31NO4
Exact mass: 325.2253
SMILES: CC(C)NCC(COC1=CC=C(C=C1)COCCOC(C)C)O
InChI: InChI=1S/C18H31NO4/c1-14(2)19-11-17(20)13-23-18-7-5-16(6-8-18)12-21-9-10-22-15(3)4/h5-8,14-15,17,19-20H,9-13H2,1-4H3
Instrument: TripleTOF 6600 SCIEX
Instrument type: LC-ESI-QTOF
Ms type: MS2
Ion mode: POSITIVE
Collision energy: 110
Fragmentation mode: CID
Ionization: ESI
Column name: Zorbax Eclipse Plus C18 2.1 mm x 150 mm, 3.5 um, Agilent
Retention time: 7.01 min
Precursor m/z: 326.2326
Precursor type: [M+H]+
m/z	relative intensity
30.0333	156
35.9985	12
37.0068	86
38.0019	30
38.0143	57
39.0226	367
41.0382	279
42.0329	25
43.0182	50
43.041	10
43.0537	91
44.0489	37
45.0327	178
50.0138	39
51.0224	261
52.0291	10
53.0379	18
55.0164	37
56.0488	158
58.0644	45
59.9981	30
61.0061	151
62.0141	301
63.0219	999
65.037	207
74.0579	27
77.0374	937
78.0454	59
79.0529	75
81.0314	16
89.0374	450
91.0533	133
95.05	14
103.0521	19
105.0439	21
107.0478	198
115.0525	61
