Mass spectrum: 3-Hydroxycarbamazepine; LC-ESI-QTOF; MS2; 40 V
Name: 3-Hydroxycarbamazepine
Class: Pharmaceutical
Formula: C15H12N2O2
Exact mass: 252.0899
SMILES: NC(=O)N1c2ccccc2C=Cc3ccc(O)cc13
InChI: InChI=1S/C15H12N2O2/c16-15(19)17-13-4-2-1-3-10(13)5-6-11-7-8-12(18)9-14(11)17/h1-9,18H,(H2,16,19)
Instrument: TripleTOF 5600 SCIEX
Instrument type: LC-ESI-QTOF
Ms type: MS2
Ion mode: POSITIVE
Collision energy: 40
Fragmentation mode: CID
Ionization: ESI
Column name: Zorbax Eclipse Plus C18 2.1 mm x 150 mm, 3.5 um, Agilent
Retention time: 7.917 min
Precursor m/z: 253.0972
Precursor type: [M+H]+
m/z	relative intensity
115.0531	12
117.0568	40
141.0694	16
152.0608	21
153.0696	29
165.0691	97
166.0634	18
167.0729	448
180.0802	193
181.0682	38
181.0874	84
182.0962	304
183.0775	22
190.0641	43
191.072	33
192.0794	45
193.0878	33
194.0675	12
195.0672	134
207.0674	38
208.0752	531
209.0828	251
210.0908	999
