Mass spectrum: Terfenadine; LC-ESI-QTOF; MS2; 120 V
Name: Terfenadine
Class: Pharmaceutical
Formula: C32H41NO2
Exact mass: 471.3137
SMILES: CC(C)(C)C1=CC=C(C=C1)C(CCCN2CCC(CC2)C(C3=CC=CC=C3)(C4=CC=CC=C4)O)O
InChI: InChI=1S/C32H41NO2/c1-31(2,3)26-18-16-25(17-19-26)30(34)15-10-22-33-23-20-29(21-24-33)32(35,27-11-6-4-7-12-27)28-13-8-5-9-14-28/h4-9,11-14,16-19,29-30,34-35H,10,15,20-24H2,1-3H3
Instrument: TripleTOF 6600 SCIEX
Instrument type: LC-ESI-QTOF
Ms type: MS2
Ion mode: POSITIVE
Collision energy: 120
Fragmentation mode: CID
Ionization: ESI
Column name: Zorbax Eclipse Plus C18 2.1 mm x 150 mm, 3.5 um, Agilent
Retention time: 10.223 min
Precursor m/z: 472.321
Precursor type: [M+H]+
m/z	relative intensity
39.0215	219
41.037	252
57.0677	153
65.0365	230
68.0477	65
77.0364	263
78.0435	65
79.0516	65
80.0481	109
82.0624	87
84.0783	54
89.0368	65
91.052	999
94.0628	54
96.0792	76
98.0948	43
103.0512	87
105.067	131
115.0517	603
116.0594	65
117.0673	504
118.0759	76
127.0516	175
128.059	625
129.0672	76
131.0812	54
141.0669	76
152.0589	109
155.056	76
165.0672	120
178.074	76
189.0664	54
190.0745	54
202.0739	274
203.0842	65
215.0826	120
