Mass spectrum: Mefloquine; LC-ESI-QTOF; MS2; 50 V
Name: Mefloquine
Class: Pharmaceutical
Formula: C17H16F6N2O
Exact mass: 378.1167
SMILES: C1CCNC(C1)C(C2=CC(=NC3=C2C=CC=C3C(F)(F)F)C(F)(F)F)O
InChI: InChI=1S/C17H16F6N2O/c18-16(19,20)11-5-3-4-9-10(15(26)12-6-1-2-7-24-12)8-13(17(21,22)23)25-14(9)11/h3-5,8,12,15,24,26H,1-2,6-7H2
Instrument: TripleTOF 5600 SCIEX
Instrument type: LC-ESI-QTOF
Ms type: MS2
Ion mode: POSITIVE
Collision energy: 50
Fragmentation mode: CID
Ionization: ESI
Column name: Zorbax Eclipse Plus C18 2.1 mm x 150 mm, 3.5 um, Agilent
Retention time: 8.432 min
Precursor m/z: 379.124
Precursor type: [M+H]+
m/z	relative intensity
68.0562	56
70.0719	28
80.054	20
82.0697	145
83.0776	109
84.0847	128
183.0441	12
189.0396	11
202.0471	19
209.0501	15
210.0558	12
214.0285	41
215.0532	27
216.0636	27
221.0309	22
222.0528	27
223.0656	17
224.0694	15
228.0587	18
229.0611	38
230.0663	29
234.054	48
235.0542	50
236.0592	35
238.0275	35
240.0488	24
243.073	32
244.0206	10
244.0809	28
246.0479	160
247.0596	71
248.0683	30
249.0644	79
250.0726	42
251.095	15
252.044	70
253.0568	47
254.0721	29
255.0772	22
258.0361	60
259.0483	58
260.0548	84
261.0774	38
262.0731	22
263.0798	47
264.0298	248
264.087	34
265.0448	31
266.059	137
267.0523	41
269.0888	18
270.0338	79
270.0946	36
271.0304	11
271.1046	539
272.0504	145
272.1106	28
273.0637	168
274.0831	29
275.0875	25
276.0457	14
278.0413	409
279.0539	231
280.0649	76
281.0892	93
283.041	29
284.0507	198
285.049	108
286.0692	81
287.0629	13
289.0942	18
290.0407	17
290.1023	46
291.0411	26
291.1112	238
292.0199	50
292.0616	23
292.1192	10
293.0701	310
296.0506	227
297.0472	14
298.0621	124
299.0616	159
300.0812	43
301.0955	279
302.0391	121
304.0719	53
305.052	52
306.0767	14
309.0593	10
311.0602	21
312.0789	38
313.0766	487
314.0955	21
316.0564	75
317.0566	11
318.0607	21
319.0744	47
320.0938	76
321.1016	612
324.0775	36
326.0855	15
331.0696	14
333.0831	495
339.0934	194
340.0974	30
341.1087	159
359.0966	17
361.1152	999
