Mass spectrum: Basic Red 1; LC-ESI-QTOF; MS2; 50 V
Name: Basic Red 1
Formula: C28H30N2O3
Exact mass: 442.2256
SMILES: CCNC1=CC2=C(C=C1C)C(=C3C=C(C(=NCC)C=C3O2)C)C4=CC=CC=C4C(=O)OCC
InChI: InChI=1S/C28H30N2O3/c1-6-29-23-15-25-21(13-17(23)4)27(19-11-9-10-12-20(19)28(31)32-8-3)22-14-18(5)24(30-7-2)16-26(22)33-25/h9-16,29H,6-8H2,1-5H3
Instrument: TripleTOF X500R SCIEX
Instrument type: LC-ESI-QTOF
Ms type: MS2
Ion mode: POSITIVE
Collision energy: 50
Fragmentation mode: CID
Ionization: ESI
Column name: Zorbax Eclipse Plus C18 2.1 mm x 150 mm, 3.5 um, Agilent
Retention time: 11.107 min
Precursor m/z: 443.2329
Precursor type: [M+H]+
m/z	relative intensity
312.1276	32
313.1349	42
326.1538	26
327.15	67
341.1657	314
342.1737	22
357.1249	87
359.1527	15
371.1461	87
371.2119	12
372.1595	30
385.156	24
386.1628	462
387.1714	54
399.1717	46
400.1796	60
415.1444	23
415.2009	999
443.2341	133
