Mass spectrum: Promethazine; LC-ESI-QTOF; MS2; 50 V
Name: Promethazine
Class: Pharmaceutical
Formula: C17H20N2S
Exact mass: 284.1347
SMILES: CC(CN1c2ccccc2Sc3c1cccc3)N(C)C
InChI: InChI=1S/C17H20N2S/c1-13(18(2)3)12-19-14-8-4-6-10-16(14)20-17-11-7-5-9-15(17)19/h4-11,13H,12H2,1-3H3
Instrument: TripleTOF 5600 SCIEX
Instrument type: LC-ESI-QTOF
Ms type: MS2
Ion mode: POSITIVE
Collision energy: 50
Fragmentation mode: CID
Ionization: ESI
Column name: Zorbax Eclipse Plus C18 2.1 mm x 150 mm, 3.5 um, Agilent
Retention time: 7.995 min
Precursor m/z: 285.142
Precursor type: [M+H]+
m/z	relative intensity
56.0574	86
58.0719	12
70.0698	17
71.0795	295
84.085	36
86.1019	588
105.0725	20
109.0129	18
127.0569	12
128.0528	17
130.0675	13
154.0688	161
162.04	27
166.0684	34
171.0302	55
193.0919	23
197.033	57
198.0422	999
199.0499	14
206.1005	49
207.1089	10
223.0493	10
224.058	74
225.0658	47
