Mass spectrum: Rivastigmine; LC-ESI-QTOF; MS2; 30 V
Name: Rivastigmine
Class: Pharmaceutical
Formula: C14H22N2O2
Exact mass: 250.1681
SMILES: CCN(C)C(=O)Oc1cccc(c1)[C@H](C)N(C)C
InChI: InChI=1S/C14H22N2O2/c1-6-16(5)14(17)18-13-9-7-8-12(10-13)11(2)15(3)4/h7-11H,6H2,1-5H3/t11-/m0/s1
Instrument: TripleTOF 5600 SCIEX
Instrument type: LC-ESI-QTOF
Ms type: MS2
Ion mode: POSITIVE
Collision energy: 30
Fragmentation mode: CID
Ionization: ESI
Column name: Zorbax Eclipse Plus C18 2.1 mm x 150 mm, 3.5 um, Agilent
Retention time: 6.079 min
Precursor m/z: 251.1754
Precursor type: [M+H]+
m/z	relative intensity
58.0347	225
86.0627	845
93.0702	23
105.0698	26
121.0637	27
121.0996	21
206.1167	999
