Mass spectrum: Thieno[3,2-b]pyridin-7-ol; LC-ESI-QTOF; MS2; 40 V
Name: Thieno[3,2-b]pyridin-7-ol
Formula: C7H5NOS
Exact mass: 151.0092
SMILES: C1=CNC2=C(C1=O)SC=C2
InChI: InChI=1S/C7H5NOS/c9-6-1-3-8-5-2-4-10-7(5)6/h1-4H,(H,8,9)
Instrument: TripleTOF 6600 SCIEX
Instrument type: LC-ESI-QTOF
Ms type: MS2
Ion mode: NEGATIVE
Collision energy: 40
Fragmentation mode: CID
Ionization: ESI
Column name: Zorbax Eclipse Plus C18 2.1 mm x 150 mm, 3.5 um, Agilent
Retention time: 4.72 min
Precursor m/z: 150.0019
Precursor type: [M-H]-
m/z	relative intensity
32.9798	13
49.0076	39
50.0031	51
56.9785	20
57.9744	104
65.9976	192
68.9798	10
80.9787	144
81.9742	483
83.99	356
90.0336	144
93.9864	19
94.9943	112
118.0314	37
120.9983	669
122.0064	522
148.9928	19
150.001	999
