Mass spectrum: Dehydroaripiprazole; LC-ESI-QTOF; MS2; 140 V
Name: Dehydroaripiprazole
Class: Metabolite; Pharmaceutical; Transformation_product-Metabolite
Formula: C23H25Cl2N3O2
Exact mass: 445.1324
SMILES: C1CN(CCN1CCCCOC2=CC3=C(C=C2)C=CC(=O)N3)C4=C(C(=CC=C4)Cl)Cl
InChI: InChI=1S/C23H25Cl2N3O2/c24-19-4-3-5-21(23(19)25)28-13-11-27(12-14-28)10-1-2-15-30-18-8-6-17-7-9-22(29)26-20(17)16-18/h3-9,16H,1-2,10-15H2,(H,26,29)
Instrument: TripleTOF 5600 SCIEX
Instrument type: LC-ESI-QTOF
Ms type: MS2
Ion mode: POSITIVE
Collision energy: 140
Fragmentation mode: CID
Ionization: ESI
Column name: Zorbax Eclipse Plus C18 2.1 mm x 150 mm, 3.5 um, Agilent
Retention time: 7.84 min
Precursor m/z: 446.1397
Precursor type: [M+H]+
m/z	relative intensity
39.0215	57
42.0337	103
56.0486	183
62.0145	57
63.0229	206
65.0372	80
72.9826	68
74.0146	321
75.0232	183
77.0367	103
84.0818	80
89.0375	999
90.0321	45
90.0449	160
91.0529	241
101.0378	91
102.0304	45
108.983	424
110.997	126
116.0489	229
117.0556	734
118.0652	80
125.0134	80
128.0476	80
132.9593	57
144.9591	333
151.0208	45
152.0264	114
164.0264	45
171.9689	195
172.9646	126
