Mass spectrum: Amisulbrom; LC-ESI-QTOF; MS2; 40 V
Name: Amisulbrom
Formula: C13H13BrFN5O4S2
Exact mass: 464.9576
SMILES: CC1=C(C2=C(N1S(=O)(=O)C3=NN(C=N3)S(=O)(=O)N(C)C)C=C(C=C2)F)Br
InChI: InChI=1S/C13H13BrFN5O4S2/c1-8-12(14)10-5-4-9(15)6-11(10)20(8)25(21,22)13-16-7-19(17-13)26(23,24)18(2)3/h4-7H,1-3H3
Instrument: TripleTOF 6600 SCIEX
Instrument type: LC-ESI-QTOF
Ms type: MS2
Ion mode: POSITIVE
Collision energy: 40
Fragmentation mode: CID
Ionization: ESI
Column name: Zorbax Eclipse Plus C18 2.1 mm x 150 mm, 3.5 um, Agilent
Retention time: 14.781 min
Precursor m/z: 465.9649
Precursor type: [M+H]+
m/z	relative intensity
108.0103	113
148.0554	68
191.0962	33
215.0705	53
225.9659	120
226.9738	999
