Mass spectrum: Flumioxazin; LC-ESI-QTOF; MS2; 130 V
Name: Flumioxazin
Class: Herbicide
Formula: C19H15FN2O4
Exact mass: 354.1016
SMILES: C#CCN1c2cc(c(cc2OCC1=O)F)N3C(=O)C4=C(C3=O)CCCC4
InChI: InChI=1S/C19H15FN2O4/c1-2-7-21-15-9-14(13(20)8-16(15)26-10-17(21)23)22-18(24)11-5-3-4-6-12(11)19(22)25/h1,8-9H,3-7,10H2
Instrument: TripleTOF 6600 SCIEX
Instrument type: LC-ESI-QTOF
Ms type: MS2
Ion mode: POSITIVE
Collision energy: 130
Fragmentation mode: CID
Ionization: ESI
Column name: Zorbax Eclipse Plus C18 2.1 mm x 150 mm, 3.5 um, Agilent
Retention time: 11.704 min
Precursor m/z: 355.1089
Precursor type: [M+H]+
m/z	relative intensity
37.007	124
38.0162	124
51.0224	874
52.0276	249
57.0129	249
69.0102	249
74.0137	999
75.0102	124
75.0215	624
76.0179	749
77.0373	874
82.0079	124
82.0189	124
83.0283	249
87.0128	124
95.0149	124
95.0299	124
96.0216	124
98.015	124
99.0226	249
101.0363	124
102.0425	249
105.0436	124
107.0297	124
123.0228	249
128.0465	124
139.0529	124
140.0494	124
144.0374	249
146.0419	249
