Mass spectrum: Mecoprop; LC-ESI-QTOF; MS2; 20 V
Name: Mecoprop
Class: Herbicide
Formula: C10H11ClO3
Exact mass: 214.0397
SMILES: CC(Oc1ccc(Cl)cc1C)C(O)=O
InChI: InChI=1S/C10H11ClO3/c1-6-5-8(11)3-4-9(6)14-7(2)10(12)13/h3-5,7H,1-2H3,(H,12,13)
Instrument: TripleTOF 5600 SCIEX
Instrument type: LC-ESI-QTOF
Ms type: MS2
Ion mode: NEGATIVE
Collision energy: 20
Fragmentation mode: CID
Ionization: ESI
Column name: Zorbax Eclipse Plus C18 2.1 mm x 150 mm, 3.5 um, Agilent
Retention time: 11.332 min
Precursor m/z: 213.0324
Precursor type: [M-H]-
m/z	relative intensity
141.011	999
