Mass spectrum: 2,6-Dimethylpyridine; LC-ESI-QTOF; MS2; 60 V
Name: 2,6-Dimethylpyridine
Formula: C7H9N
Exact mass: 107.0735
SMILES: CC1=NC(=CC=C1)C
InChI: InChI=1S/C7H9N/c1-6-4-3-5-7(2)8-6/h3-5H,1-2H3
Instrument: TripleTOF 6600 SCIEX
Instrument type: LC-ESI-QTOF
Ms type: MS2
Ion mode: POSITIVE
Collision energy: 60
Fragmentation mode: CID
Ionization: ESI
Column name: Zorbax Eclipse Plus C18 2.1 mm x 150 mm, 3.5 um, Agilent
Retention time: 2.395 min
Precursor m/z: 108.0808
Precursor type: [M+H]+
m/z	relative intensity
35.9994	40
37.0067	263
38.0146	182
39.0223	999
40.0305	33
41.0379	114
42.0335	114
50.0143	87
51.0228	236
52.0187	33
53.038	27
63.0225	47
65.0379	445
66.0451	108
77.0363	128
78.0329	101
79.0524	33
80.0476	47
92.0484	74
106.0641	54
