Mass spectrum: Phoxim; LC-ESI-QTOF; MS2; 100 V
Name: Phoxim
Class: Insecticide
Formula: C12H15N2O3PS
Exact mass: 298.0541
SMILES: CCOP(=S)(OCC)O/N=C(\C#N)/C1=CC=CC=C1
InChI: InChI=1S/C12H15N2O3PS/c1-3-15-18(19,16-4-2)17-14-12(10-13)11-8-6-5-7-9-11/h5-9H,3-4H2,1-2H3/b14-12+
Instrument: TripleTOF 6600 SCIEX
Instrument type: LC-ESI-QTOF
Ms type: MS2
Ion mode: POSITIVE
Collision energy: 100
Fragmentation mode: CID
Ionization: ESI
Column name: Zorbax Eclipse Plus C18 2.1 mm x 150 mm, 3.5 um, Agilent
Retention time: 14.575 min
Precursor m/z: 299.0614
Precursor type: [M+H]+
m/z	relative intensity
46.9673	37
49.0066	50
50.0143	343
51.0224	999
62.9626	12
64.9774	39
77.0375	218
78.9388	34
80.9711	12
96.9494	19
