Mass spectrum: 3-Dimethylaminophenol; LC-ESI-QTOF; MS2; 140 V
Name: 3-Dimethylaminophenol
Formula: C8H11NO
Exact mass: 137.0841
SMILES: CN(C)C1=CC(=CC=C1)O
InChI: InChI=1S/C8H11NO/c1-9(2)7-4-3-5-8(10)6-7/h3-6,10H,1-2H3
Instrument: TripleTOF 6600 SCIEX
Instrument type: LC-ESI-QTOF
Ms type: MS2
Ion mode: POSITIVE
Collision energy: 140
Fragmentation mode: CID
Ionization: ESI
Column name: Zorbax Eclipse Plus C18 2.1 mm x 150 mm, 3.5 um, Agilent
Retention time: 4.073 min
Precursor m/z: 138.0914
Precursor type: [M+H]+
m/z	relative intensity
35.9987	344
37.0064	999
38.0025	113
38.0141	321
39.0218	130
40.0168	22
49.0061	266
50.0142	230
51.009	33
51.022	19
52.0174	24
53.0011	36
59.9979	49
61.0063	180
62.0138	72
63.0212	19
73.0064	41
74.0136	33
78.0077	13
