Mass spectrum: Tiamulin; LC-ESI-QTOF; MS2; 120 V
Name: Tiamulin
Class: Antimicrobial; Pharmaceutical
Formula: C28H47NO4S
Exact mass: 493.3226
SMILES: CCN(CC)CCSCC(=O)OC1CC(C(C(C23CCC(C1(C2C(=O)CC3)C)C)C)O)(C)C=C
InChI: InChI=1S/C28H47NO4S/c1-8-26(6)17-22(33-23(31)18-34-16-15-29(9-2)10-3)27(7)19(4)11-13-28(20(5)25(26)32)14-12-21(30)24(27)28/h8,19-20,22,24-25,32H,1,9-18H2,2-7H3
Instrument: TripleTOF 6600 SCIEX
Instrument type: LC-ESI-QTOF
Ms type: MS2
Ion mode: POSITIVE
Collision energy: 120
Fragmentation mode: CID
Ionization: ESI
Column name: Zorbax Eclipse Plus C18 2.1 mm x 150 mm, 3.5 um, Agilent
Retention time: 8.661 min
Precursor m/z: 494.3299
Precursor type: [M+H]+
m/z	relative intensity
37.0069	16
38.0153	21
39.0225	175
41.0385	226
43.0176	103
43.0536	20
44.0489	27
44.9791	604
45.0338	22
46.9946	87
51.0232	48
53.0382	66
55.0174	28
55.0539	159
61.0101	23
62.9888	37
65.0378	172
66.0447	13
67.0535	188
69.0695	21
73.0099	388
74.0963	44
77.0379	785
78.0444	43
79.0534	464
81.069	125
83.0481	10
89.0368	11
90.983	17
91.0536	999
92.0606	12
93.0691	133
95.0485	19
95.0855	24
102.0458	21
103.0539	171
104.0622	47
105.0438	13
105.0684	416
107.0472	19
107.0849	45
109.0626	17
115.0531	390
116.0613	87
117.0691	175
118.0761	19
119.013	20
119.0848	121
121.0645	20
121.0995	17
127.0527	98
128.0609	344
129.0695	221
130.0759	49
131.0844	62
133.0657	25
133.1005	30
141.069	251
142.0763	86
143.0839	65
144.0922	14
145.0648	17
145.0999	19
147.0777	19
152.0611	70
153.0682	112
154.0768	44
155.0602	19
155.084	70
156.093	24
157.1016	18
159.0807	13
165.0687	81
166.0762	30
167.083	52
168.0918	12
169.1008	19
178.0753	13
179.0839	22
181.1016	13
