Mass spectrum: Nilotinib; LC-ESI-QTOF; MS2; 130 V
Name: Nilotinib
Class: Pharmaceutical
Formula: C28H22F3N7O
Exact mass: 529.1838
SMILES: Cc1cn(cn1)c2cc(NC(=O)c3ccc(C)c(Nc4nccc(n4)c5cccnc5)c3)cc(c2)C(F)(F)F
InChI: InChI=1S/C28H22F3N7O/c1-17-5-6-19(10-25(17)37-27-33-9-7-24(36-27)20-4-3-8-32-14-20)26(39)35-22-11-21(28(29,30)31)12-23(13-22)38-15-18(2)34-16-38/h3-16H,1-2H3,(H,35,39)(H,33,36,37)
Instrument: TripleTOF 5600 SCIEX
Instrument type: LC-ESI-QTOF
Ms type: MS2
Ion mode: NEGATIVE
Collision energy: 130
Fragmentation mode: CID
Ionization: ESI
Column name: Zorbax Eclipse Plus C18 2.1 mm x 150 mm, 3.5 um, Agilent
Retention time: 8.404 min
Precursor m/z: 528.1765
Precursor type: [M-H]-
m/z	relative intensity
41.0179	333
41.0363	111
42.002	888
50.0068	111
52.0233	111
65.0171	333
67.0303	111
74.0032	111
78.0335	111
78.0435	111
79.0299	222
81.0463	999
81.0642	222
88.0189	111
92.0247	111
98.0039	222
112.0067	222
116.0571	111
118.0133	111
125.0216	111
129.0588	222
130.0627	222
136.0093	222
139.0325	111
151.0275	111
152.0318	111
153.0437	111
153.0553	111
155.0412	333
156.0113	111
157.0229	222
158.0128	111
158.0316	111
163.0408	111
164.0215	111
171.0374	333
171.0673	333
173.0536	111
177.0245	666
178.0396	222
180.0561	111
183.0191	111
185.0318	222
193.0621	222
198.0289	555
211.0178	222
