Mass spectrum: Adefovir; LC-ESI-QTOF; MS2; 40 V
Name: Adefovir
Class: Antimicrobial; Pharmaceutical
Formula: C8H12N5O4P
Exact mass: 273.0627
InChI: InChI=1S/C8H12N5O4P/c9-7-6-8(11-3-10-7)13(4-12-6)1-2-17-5-18(14,15)16/h3-4H,1-2,5H2,(H2,9,10,11)(H2,14,15,16)
Instrument: TripleTOF 5600 SCIEX
Instrument type: LC-ESI-QTOF
Ms type: CID
Ion mode: POSITIVE
Collision energy: 40
Ionization: ESI
Column name: Zorbax Eclipse Plus C18 2.1 mm x 150 mm, 3.5 um, Agilent
Retention time: 2.12 min
Precursor m/z: 274.0691
Precursor type: [M+H]+
m/z	relative intensity
94.9928	153
119.0359	128
135.056	274
136.0592	252
162.0788	999
192.087	763
226.0463	886
274.0688	520
