Mass spectrum: 1-Butylpyridinium; LC-ESI-QTOF; MS2; 60 V
Name: 1-Butylpyridinium
Class: Industrial_process
Formula: [C9H14N]+
Exact mass: 136.1121
SMILES: CCCC[n+]1ccccc1
InChI: InChI=1S/C9H14N/c1-2-3-7-10-8-5-4-6-9-10/h4-6,8-9H,2-3,7H2,1H3/q+1
Instrument: TripleTOF 5600 SCIEX
Instrument type: LC-ESI-QTOF
Ms type: MS2
Ion mode: POSITIVE
Collision energy: 60
Fragmentation mode: CID
Ionization: ESI
Column name: Zorbax Eclipse Plus C18 2.1 mm x 150 mm, 3.5 um, Agilent
Retention time: 4.236 min
Precursor m/z: 136.1121
Precursor type: [M]+
m/z	relative intensity
65.0433	49
78.0359	202
80.052	999
