Mass spectrum: Thiamine Disulfide; LC-ESI-QTOF; MS2; 120 V
Name: Thiamine Disulfide
Class: Pharmaceutical
Formula: C24H34N8O4S2
Exact mass: 562.2144
SMILES: CC1=NC=C(C(=N1)N)CN(C=O)C(=C(CCO)SSC(=C(C)N(CC2=CN=C(N=C2N)C)C=O)CCO)C
InChI: InChI=1S/C24H34N8O4S2/c1-15(31(13-35)11-19-9-27-17(3)29-23(19)25)21(5-7-33)37-38-22(6-8-34)16(2)32(14-36)12-20-10-28-18(4)30-24(20)26/h9-10,13-14,33-34H,5-8,11-12H2,1-4H3,(H2,25,27,29)(H2,26,28,30)
Instrument: TripleTOF 6600 SCIEX
Instrument type: LC-ESI-QTOF
Ms type: MS2
Ion mode: POSITIVE
Collision energy: 120
Fragmentation mode: CID
Ionization: ESI
Column name: Zorbax Eclipse Plus C18 2.1 mm x 150 mm, 3.5 um, Agilent
Retention time: 4.48 min
Precursor m/z: 563.2217
Precursor type: [M+H]+
m/z	relative intensity
39.0222	67
42.0331	458
43.0167	43
52.0181	48
54.0325	699
55.0408	945
56.0475	24
58.9956	24
65.0377	57
66.0327	318
67.0272	28
68.0486	19
69.0435	680
70.9934	28
72.003	19
77.0376	38
78.0327	33
79.0414	33
80.0488	91
81.0436	815
82.0514	781
83.0591	164
83.9896	24
85.0082	33
87.0251	38
91.0524	24
92.049	33
93.0432	226
94.0511	38
94.0648	24
95.0588	120
96.0545	101
96.0669	33
97.0758	28
99.026	43
102.0343	24
104.0493	28
105.0429	86
106.0635	24
107.0591	270
108.0541	135
109.0618	67
110.0699	999
111.0002	28
112.019	91
113.0279	434
114.0377	91
117.0429	72
118.054	19
118.0628	33
119.0599	67
120.0536	53
121.0745	33
122.0697	197
123.0776	791
124.0851	255
126.0366	231
128.0484	19
131.0603	57
132.0675	72
133.0743	53
134.0696	62
135.0655	62
136.0857	28
143.0597	33
144.0461	294
145.0753	82
146.069	57
147.0779	106
148.0875	91
154.0402	24
156.0653	33
158.0698	33
160.0842	67
161.0804	111
162.0894	72
163.0939	48
165.0523	24
166.0403	33
172.0869	62
173.0934	67
174.1009	48
175.0308	33
175.0985	38
186.1042	24
187.0977	19
189.1141	62
192.06	19
199.0973	48
204.1119	24
207.0681	24
216.0541	24
