Mass spectrum: Fluazifop; LC-ESI-QTOF; MS2; 110 V
Name: Fluazifop
Class: Herbicide; Transformation_product
Formula: C15H12F3NO4
Exact mass: 327.0718
SMILES: CC(C(=O)O)Oc1ccc(cc1)Oc2ccc(cn2)C(F)(F)F
InChI: InChI=1S/C15H12F3NO4/c1-9(14(20)21)22-11-3-5-12(6-4-11)23-13-7-2-10(8-19-13)15(16,17)18/h2-9H,1H3,(H,20,21)
Instrument: TripleTOF 6600 SCIEX
Instrument type: LC-ESI-QTOF
Ms type: MS2
Ion mode: POSITIVE
Collision energy: 110
Fragmentation mode: CID
Ionization: ESI
Column name: Zorbax Eclipse Plus C18 2.1 mm x 150 mm, 3.5 um, Agilent
Retention time: 11.668 min
Precursor m/z: 328.0791
Precursor type: [M+H]+
m/z	relative intensity
36.0005	20
37.0085	132
38.0157	128
39.0238	476
41.0384	20
43.0185	20
49.0078	87
50.0156	368
51.0048	82
51.0237	638
52.0186	70
52.0313	33
53.003	33
53.039	70
55.0189	45
56.0058	20
57.0142	74
60.0002	20
61.0078	91
62.0155	219
63.0236	787
64.019	29
64.0314	136
65.0391	468
66.0471	45
68.995	402
69.0136	24
70.0219	203
73.0085	24
74.0154	203
75.005	999
75.0224	153
76.019	248
76.031	87
77.0264	53
77.039	555
78.0345	335
79.0187	16
79.0429	20
80.0057	33
81.0142	70
81.034	78
83.0291	53
86.0152	45
87.0235	99
88.0179	41
88.0313	103
89.0389	103
90.0333	29
90.0478	16
91.0422	49
91.0545	70
92.026	16
92.9941	41
93.0131	20
93.0333	20
94.0425	29
95.0292	20
96.0255	66
97.0325	70
98.0159	37
99.0043	339
99.023	45
100.0004	62
100.0127	252
101.0198	95
101.0394	74
102.0466	174
103.0548	128
104.0501	29
105.0439	20
106.0086	29
106.0223	16
107.0177	53
107.0293	70
108.0227	16
110.0382	33
111.0218	24
113.0228	37
113.0389	252
114.0337	58
114.0478	91
115.0419	33
115.0563	33
116.0512	49
117.0146	49
117.0576	20
119.011	140
119.0352	16
120.0183	78
120.0438	20
122.0154	87
123.0231	116
124.0176	49
125.0202	49
126.0152	381
127.0234	120
128.0506	91
129.0578	74
130.0417	16
130.0658	49
131.0294	111
131.0486	66
132.0177	20
132.038	53
133.0443	95
134.039	20
137.0203	24
138.0308	45
139.042	16
139.0533	24
140.0492	227
141.0585	95
143.0296	66
144.0397	29
145.0275	37
146.0209	145
147.0295	37
147.0482	33
148.055	16
149.0182	20
149.0395	29
150.0275	33
151.0357	281
153.0415	20
154.0677	20
156.0462	29
158.0394	111
159.0475	53
161.0201	24
162.0266	37
163.0363	29
164.0345	24
164.048	16
168.0244	29
168.0398	29
169.0285	41
170.0409	24
176.0297	16
177.0378	29
181.0292	20
182.0348	33
184.038	16
198.0551	16
208.0372	20
