Mass spectrum: 3-Hydroxyacetaminophen; LC-ESI-QTOF; MS2; 80 V
Name: 3-Hydroxyacetaminophen
Class: Pharmaceutical; Transformation_product
Formula: C8H9NO3
Exact mass: 167.0582
InChI: InChI=1S/C8H9NO3/c1-5(10)9-6-2-3-7(11)8(12)4-6/h2-4,11-12H,1H3,(H,9,10)
Instrument: TripleTOF 5600 SCIEX
Instrument type: LC-ESI-QTOF
Ms type: CID
Ion mode: POSITIVE
Collision energy: 80
Ionization: ESI
Column name: Zorbax Eclipse Plus C18 2.1 mm x 150 mm, 3.5 um, Agilent
Retention time: 4.471 min
Precursor m/z: 168.0655
Precursor type: [M+H]+
m/z	relative intensity
42.0419	21
43.0283	720
43.054	12
44.0204	13
52.0357	84
54.0404	202
55.0235	81
65.0292	10
68.0167	10
78.036	26
80.0531	999
81.0354	45
108.0446	12
