Mass spectrum: 1-Cyclohexyl-3-(2-methylphenyl)urea; LC-ESI-QTOF; MS2; 110 V
Name: 1-Cyclohexyl-3-(2-methylphenyl)urea
Formula: C14H20N2O
Exact mass: 232.1576
SMILES: O=C(NC1CCCCC1)Nc2ccccc2C
InChI: InChI=1S/C14H20N2O/c1-11-7-5-6-10-13(11)16-14(17)15-12-8-3-2-4-9-12/h5-7,10,12H,2-4,8-9H2,1H3,(H2,15,16,17)
Instrument: TripleTOF 6600 SCIEX
Instrument type: LC-ESI-QTOF
Ms type: MS2
Ion mode: POSITIVE
Collision energy: 110
Fragmentation mode: CID
Ionization: ESI
Column name: Zorbax Eclipse Plus C18 2.1 mm x 150 mm, 3.5 um, Agilent
Retention time: 11.026 min
Precursor m/z: 233.1649
Precursor type: [M+H]+
m/z	relative intensity
35.9985	21
37.0065	178
38.0036	14
38.0144	190
39.0224	999
40.0296	19
41.0259	16
41.0377	63
42.033	16
44.0121	23
49.0061	21
50.014	141
51.0219	228
52.017	32
53.0372	25
54.0331	59
55.0531	34
61.0058	12
62.0134	43
63.0214	59
65.0373	797
66.0449	454
67.0405	30
77.0371	79
78.0323	50
79.0522	10
91.0523	14
92.0478	167
93.0555	223
106.0632	14
