Mass spectrum: Dienogest Impurity G; LC-ESI-QTOF; MS2; 70 V
Name: Dienogest Impurity G
Class: Pharmaceutical
Formula: C20H23NO2
Exact mass: 309.1729
SMILES: CC12CC=C3C(C1CCC2(CC#N)O)CCC4=C3C=CC(=C4)O
InChI: InChI=1S/C20H23NO2/c1-19-8-6-16-15-5-3-14(22)12-13(15)2-4-17(16)18(19)7-9-20(19,23)10-11-21/h3,5-6,12,17-18,22-23H,2,4,7-10H2,1H3
Instrument: TripleTOF 6600 SCIEX
Instrument type: LC-ESI-QTOF
Ms type: MS2
Ion mode: POSITIVE
Collision energy: 70
Fragmentation mode: CID
Ionization: ESI
Column name: Zorbax Eclipse Plus C18 2.1 mm x 150 mm, 3.5 um, Agilent
Retention time: 9.956 min
Precursor m/z: 310.1802
Precursor type: [M+H]+
m/z	relative intensity
39.0222	46
41.038	52
50.0134	33
51.0221	86
53.0373	52
55.0163	79
55.0528	46
63.022	33
65.0378	145
67.0537	99
77.0375	747
78.0457	26
79.0529	582
81.0686	119
89.0373	52
91.053	813
92.0607	33
93.0686	79
94.0411	66
95.0475	33
95.085	26
97.064	39
102.0444	33
103.053	390
105.0691	774
106.0646	39
107.0477	291
115.0527	999
116.0604	456
117.0683	92
118.0641	33
119.0858	39
121.0624	33
123.0801	39
127.0528	324
128.0606	648
129.0684	238
130.0648	132
131.0481	383
131.0722	26
131.0834	132
132.0574	92
132.0779	26
133.0629	304
139.0544	33
141.0689	297
142.0735	33
144.0554	820
145.0623	59
145.0725	33
146.0955	33
147.0813	26
152.0603	152
153.0673	86
155.059	112
157.0637	396
158.0692	66
159.0785	125
165.0695	231
166.0744	59
167.0848	79
169.0738	39
176.0579	39
178.0764	86
179.085	59
181.0624	172
182.0715	66
183.0772	46
189.0682	52
190.0731	59
191.082	26
194.0737	99
195.0777	66
197.0947	46
202.0783	46
203.0834	39
207.0772	86
208.0878	26
215.0821	39
219.0821	33
220.0819	92
231.0764	26
