Mass spectrum: Trihexyltetradecylphosphonium; LC-ESI-QTOF; MS2; 100 V
Name: Trihexyltetradecylphosphonium
Formula: [C32H68P]+
Exact mass: 483.5053
SMILES: CCCCCCCCCCCCCC[P+](CCCCCC)(CCCCCC)CCCCCC
InChI: InChI=1S/C32H68P/c1-5-9-13-17-18-19-20-21-22-23-24-28-32-33(29-25-14-10-6-2,30-26-15-11-7-3)31-27-16-12-8-4/h5-32H2,1-4H3/q+1
Instrument: TripleTOF 5600 SCIEX
Instrument type: LC-ESI-QTOF
Ms type: MS2
Ion mode: POSITIVE
Collision energy: 100
Fragmentation mode: CID
Ionization: ESI
Column name: Zorbax Eclipse Plus C18 2.1 mm x 150 mm, 3.5 um, Agilent
Retention time: 17.125 min
Precursor m/z: 483.5053
Precursor type: [M]+
m/z	relative intensity
41.0391	79
43.0548	86
45.9971	92
48.0133	70
55.0546	98
56.9893	79
59.0054	94
61.0201	314
62.0283	517
69.0696	62
73.02	65
75.0355	422
76.0433	999
89.05	244
90.0582	386
101.0501	87
102.0585	90
103.0661	300
115.0658	130
116.0739	55
117.0817	303
129.0821	108
131.098	276
143.0983	81
145.1138	307
157.1128	79
159.1296	438
171.1294	95
173.1453	298
185.1475	73
187.1613	349
199.1616	55
201.1775	351
213.1766	82
215.1925	215
227.1899	78
229.2087	414
243.2234	225
257.2397	220
271.2546	402
285.2711	196
299.2875	102
313.3032	253
327.3148	62
341.3303	73
