Mass spectrum: 2-Ethyl-6-methylaniline; LC-ESI-QTOF; MS2; 50 V
Name: 2-Ethyl-6-methylaniline
Class: Industrial_process; Herbicide; Transformation_product-Metabolite
Formula: C9H13N
Exact mass: 135.1048
SMILES: CCC1=CC=CC(=C1N)C
InChI: InChI=1S/C9H13N/c1-3-8-6-4-5-7(2)9(8)10/h4-6H,3,10H2,1-2H3
Instrument: TripleTOF 5600 SCIEX
Instrument type: LC-ESI-QTOF
Ms type: MS2
Ion mode: POSITIVE
Collision energy: 50
Fragmentation mode: CID
Ionization: ESI
Column name: Zorbax Eclipse Plus C18 2.1 mm x 150 mm, 3.5 um, Agilent
Retention time: 7.958 min
Precursor m/z: 136.1121
Precursor type: [M+H]+
m/z	relative intensity
37.008	15
38.0156	15
39.023	114
41.0379	21
50.0146	52
51.0229	241
61.008	12
62.0146	21
63.0233	74
65.0388	713
75.0227	21
76.0312	27
77.0388	999
78.0465	328
79.054	68
89.0389	55
91.0545	744
93.0568	46
102.0466	62
103.0552	282
104.0633	71
106.0648	158
115.0545	220
116.0627	18
117.0697	21
118.0673	24
