Mass spectrum: Fenoxycarb; LC-ESI-QTOF; MS2; 150 V
Name: Fenoxycarb
Class: Insecticide
Formula: C17H19NO4
Exact mass: 301.1314
SMILES: CCOC(=O)NCCOc1ccc(Oc2ccccc2)cc1
InChI: InChI=1S/C17H19NO4/c1-2-20-17(19)18-12-13-21-14-8-10-16(11-9-14)22-15-6-4-3-5-7-15/h3-11H,2,12-13H2,1H3,(H,18,19)
Instrument: TripleTOF 5600 SCIEX
Instrument type: LC-ESI-QTOF
Ms type: MS2
Ion mode: POSITIVE
Collision energy: 150
Fragmentation mode: CID
Ionization: ESI
Column name: Zorbax Eclipse Plus C18 2.1 mm x 150 mm, 3.5 um, Agilent
Retention time: 13.067 min
Precursor m/z: 302.1387
Precursor type: [M+H]+
m/z	relative intensity
41.0399	33
42.0444	444
43.0519	42
44.0206	22
44.0594	999
45.0064	248
55.0217	13
60.0065	21
65.0432	316
66.0514	33
70.0325	30
73.0116	21
74.0189	196
75.026	112
76.0337	65
77.0415	449
78.0484	48
81.0358	48
85.0102	40
86.0173	92
87.0249	82
88.0406	110
89.0404	299
91.0559	136
94.0435	18
98.0158	51
99.0233	15
101.0377	15
102.0457	94
110.015	15
113.0392	70
114.0487	15
115.0539	131
126.0458	51
127.0546	52
128.0614	70
137.0395	20
138.0486	21
139.0543	75
150.0468	29
151.0544	13
163.0541	31
