Mass spectrum: Fluazifop-P-butyl; LC-ESI-QTOF; MS2; 110 V
Name: Fluazifop-P-butyl
Class: Herbicide
Formula: C19H20F3NO4
Exact mass: 383.1344
SMILES: CCCCOC(=O)C(C)OC1=CC=C(C=C1)OC2=NC=C(C=C2)C(F)(F)F
InChI: InChI=1S/C19H20F3NO4/c1-3-4-11-25-18(24)13(2)26-15-6-8-16(9-7-15)27-17-10-5-14(12-23-17)19(20,21)22/h5-10,12-13H,3-4,11H2,1-2H3
Instrument: TripleTOF 6600 SCIEX
Instrument type: LC-ESI-QTOF
Ms type: MS2
Ion mode: POSITIVE
Collision energy: 110
Fragmentation mode: CID
Ionization: ESI
Column name: Zorbax Eclipse Plus C18 2.1 mm x 150 mm, 3.5 um, Agilent
Retention time: 15.933 min
Precursor m/z: 384.1417
Precursor type: [M+H]+
m/z	relative intensity
35.9999	31
37.0074	186
38.0036	23
38.0149	153
39.0231	953
41.0388	236
43.0173	18
45.0327	18
50.0145	102
51.0053	27
51.023	281
52.019	10
53.0134	10
53.0381	24
55.0167	24
57.0133	37
59.999	15
61.0066	71
62.0146	105
63.0229	379
64.0168	13
64.0303	91
65.0384	924
66.0459	40
68.9938	251
70.0212	85
73.0071	43
74.0146	306
75.0043	999
75.0205	292
76.0172	149
76.0298	27
77.0382	584
78.0331	282
78.9992	12
79.0173	15
79.0406	10
79.0532	13
80.0047	20
81.0132	21
81.0327	77
83.0289	49
86.0143	27
87.0223	73
88.0159	15
88.0305	177
89.0192	10
89.038	100
90.033	17
90.0452	31
91.0411	45
91.0537	312
92.0254	24
92.9933	12
93.0127	21
93.0327	46
94.0412	40
95.0094	10
95.0268	15
96.0232	93
97.0313	69
98.0129	29
99.0038	306
99.0199	41
99.9984	35
100.0112	279
101.0187	55
101.0375	63
102.0451	139
103.0531	284
104.014	10
104.0493	34
105.0322	13
105.0441	12
106.0175	32
107.0259	130
107.0465	13
108.0218	15
109.0281	15
109.043	12
110.0342	21
111.0235	12
112.0293	13
113.0191	48
113.0382	416
114.0458	388
115.041	68
115.0536	77
116.0289	24
116.0475	43
117.0121	57
117.0565	45
119.0096	130
119.0327	41
120.0184	85
120.0425	26
121.0425	23
122.014	68
123.0222	180
124.0173	88
125.0178	35
125.0371	21
126.0145	969
127.022	274
127.0533	10
128.0309	17
128.0493	141
129.0429	34
129.056	77
130.0412	31
130.063	110
131.028	49
131.0475	301
132.0203	17
132.0371	88
133.0435	301
134.0397	45
135.0277	13
135.0455	26
137.0184	66
138.0276	35
138.0433	10
139.0509	124
140.0485	730
141.0258	17
141.0564	498
142.0394	29
142.0632	12
143.0281	166
144.0282	74
145.0285	41
146.0207	624
147.0299	164
148.0359	29
148.0534	37
149.037	35
150.0313	54
151.0349	466
152.0295	38
154.061	18
156.0157	13
156.0424	40
156.0793	10
157.0255	32
157.0496	41
158.0379	219
159.0464	93
160.0354	18
161.018	24
161.0411	13
162.0271	113
163.0356	93
164.0367	132
165.0346	49
165.0585	10
166.0445	41
166.0639	57
167.0701	20
168.0236	18
168.0437	108
169.03	38
169.0502	46
170.0403	65
171.0424	29
172.0336	65
172.0544	17
175.0356	10
176.0252	41
177.0389	55
178.0447	100
180.0378	18
181.0262	17
182.0315	100
183.0385	12
184.0387	79
185.0445	77
188.0358	74
189.036	125
190.0444	175
195.0437	10
196.035	27
197.0426	34
198.0519	125
199.0352	27
206.0399	20
208.0363	107
209.0433	128
210.0517	31
214.045	10
216.0611	10
218.0388	54
222.0488	18
225.0364	15
226.0456	23
227.0569	13
234.0376	23
236.0296	73
238.0458	52
254.0423	52
