Mass spectrum: Furosemide; LC-ESI-QTOF; MS2; 70 V
Name: Furosemide
Class: Pharmaceutical
Formula: C12H11ClN2O5S
Exact mass: 330.0077
SMILES: N[S](=O)(=O)c1cc(C(O)=O)c(NCc2occc2)cc1Cl
InChI: InChI=1S/C12H11ClN2O5S/c13-9-5-10(15-6-7-2-1-3-20-7)8(12(16)17)4-11(9)21(14,18)19/h1-5,15H,6H2,(H,16,17)(H2,14,18,19)
Instrument: TripleTOF 5600 SCIEX
Instrument type: LC-ESI-QTOF
Ms type: MS2
Ion mode: NEGATIVE
Collision energy: 70
Fragmentation mode: CID
Ionization: ESI
Column name: Zorbax Eclipse Plus C18 2.1 mm x 150 mm, 3.5 um, Agilent
Retention time: 8.893 min
Precursor m/z: 329.0004
Precursor type: [M-H]-
m/z	relative intensity
34.9732	82
61.9709	74
63.9641	74
77.9654	999
78.9733	111
79.9799	59
90.0341	89
94.0292	328
104.0384	156
121.0404	216
126.0107	134
140.0516	96
