Mass spectrum: Hydrocortisone; LC-ESI-QTOF; MS2; 60 V
Name: Hydrocortisone
Class: Pharmaceutical
Formula: C21H30O5
Exact mass: 362.2093
SMILES: C[C@]12CCC(=O)C=C1CC[C@H]3[C@@H]4CC[C@](O)(C(=O)CO)[C@@]4(C)C[C@H](O)[C@H]23
InChI: InChI=1S/C21H30O5/c1-19-7-5-13(23)9-12(19)3-4-14-15-6-8-21(26,17(25)11-22)20(15,2)10-16(24)18(14)19/h9,14-16,18,22,24,26H,3-8,10-11H2,1-2H3/t14-,15-,16-,18+,19-,20-,21-/m0/s1
Instrument: TripleTOF 5600 SCIEX
Instrument type: LC-ESI-QTOF
Ms type: MS2
Ion mode: POSITIVE
Collision energy: 60
Fragmentation mode: CID
Ionization: ESI
Column name: Zorbax Eclipse Plus C18 2.1 mm x 150 mm, 3.5 um, Agilent
Retention time: 8.323 min
Precursor m/z: 363.2166
Precursor type: [M+H]+
m/z	relative intensity
43.0261	61
43.0416	12
55.0236	22
55.0595	58
65.0435	35
67.0587	135
69.0354	19
69.0714	16
71.0524	16
77.0404	364
79.0562	325
81.0708	170
83.0507	96
91.0549	802
93.0706	315
95.0488	41
95.0877	96
97.0649	315
99.043	25
102.0467	12
103.0532	96
103.0714	12
105.0693	747
107.0488	70
107.0852	141
109.0636	209
109.0998	22
115.0535	215
115.0743	12
116.06	64
117.0689	302
119.0846	351
119.1068	19
121.0639	999
123.0788	209
127.0536	93
128.0611	360
129.069	406
130.0758	122
131.0487	25
131.0846	383
132.0541	16
133.0627	51
133.1002	109
135.0803	74
135.1167	12
137.0954	16
141.0692	299
142.0768	280
143.0841	299
144.0567	35
144.0922	67
145.0644	74
145.0997	267
146.072	32
146.108	16
147.0804	87
147.1151	161
148.0863	48
149.0966	29
152.0598	45
153.0699	132
154.0759	132
155.0834	261
156.0938	58
157.0634	35
157.1	154
158.0704	48
159.0793	93
159.1156	93
160.0863	22
161.0945	70
163.1111	103
165.0687	164
166.0757	96
167.0851	161
168.0904	87
169.0994	164
169.1254	12
170.1087	38
171.0791	64
171.1149	93
172.0892	19
172.1223	22
173.0944	51
173.1299	25
174.1043	38
175.1104	41
178.0782	70
179.0833	138
180.0924	70
181.0629	22
181.0986	116
182.0697	19
182.1065	54
183.0774	29
183.1142	112
184.0856	29
184.1224	22
185.0944	32
185.1316	58
187.1057	19
189.0681	16
189.1244	16
190.0782	22
191.0833	58
192.0906	48
193.0994	90
194.0741	12
194.1062	48
195.117	96
196.0872	32
196.1233	19
197.0945	45
197.1296	77
198.1043	22
199.1083	29
199.1478	22
203.0844	29
205.0974	48
206.1081	32
207.1162	70
208.0853	19
208.1227	22
209.0938	22
209.1313	74
210.1436	22
211.11	48
211.1507	19
213.1267	48
215.0869	25
215.143	16
217.0979	19
218.1148	16
219.1152	51
221.131	22
223.1077	16
223.1475	22
225.1239	38
226.1307	25
227.1399	45
228.1491	35
233.1007	16
233.1305	25
235.1453	35
237.1447	19
239.1431	38
241.1592	22
251.1391	22
253.1548	99
271.169	16
