Mass spectrum: Acetochlor; LC-ESI-QTOF; MS2; 80 V
Name: Acetochlor
Class: Herbicide
Formula: C14H20ClNO2
Exact mass: 269.1183
SMILES: CCC1=CC=CC(=C1N(COCC)C(=O)CCl)C
InChI: InChI=1S/C14H20ClNO2/c1-4-12-8-6-7-11(3)14(12)16(10-18-5-2)13(17)9-15/h6-8H,4-5,9-10H2,1-3H3
Instrument: TripleTOF 6600 SCIEX
Instrument type: LC-ESI-QTOF
Ms type: MS2
Ion mode: POSITIVE
Collision energy: 80
Fragmentation mode: CID
Ionization: ESI
Column name: Zorbax Eclipse Plus C18 2.1 mm x 150 mm, 3.5 um, Agilent
Retention time: 13.251 min
Precursor m/z: 270.1255
Precursor type: [M+H]+
m/z	relative intensity
31.0175	142
39.0221	53
41.038	35
45.0329	151
48.9832	151
65.0382	98
77.0374	303
79.0528	71
89.0366	80
90.0447	142
91.0529	401
93.0582	44
103.0537	115
104.0489	44
105.0695	178
106.0624	80
115.0524	312
116.052	53
117.0557	999
118.0628	205
119.076	89
127.0524	71
128.0601	142
130.0637	249
131.0735	80
132.0797	597
133.0886	71
143.0714	71
146.0932	133
156.0761	44
