Mass spectrum: Fluorescent brightener 363; LC-ESI-QTOF; MS2; 100 V
Name: Fluorescent brightener 363
Class: Pigment
Formula: [C19H19N2O4S]+
Exact mass: 371.106
SMILES: COC1=CC(OC(C2=[N+](C)C(C=C(S(=O)(C)=O)C=C3)=C3N2C)=C4)=C4C=C1
InChI: InChI=1S/C19H19N2O4S/c1-20-15-8-7-14(26(4,22)23)11-16(15)21(2)19(20)18-9-12-5-6-13(24-3)10-17(12)25-18/h5-11H,1-4H3/q+1
Instrument: TripleTOF 6600 SCIEX
Instrument type: LC-ESI-QTOF
Ms type: MS2
Ion mode: POSITIVE
Collision energy: 100
Fragmentation mode: CID
Ionization: ESI
Column name: Zorbax Eclipse Plus C18 2.1 mm x 150 mm, 3.5 um, Agilent
Retention time: 8.155 min
Precursor m/z: 371.106
Precursor type: [M]+
m/z	relative intensity
51.0235	65
63.0229	65
76.0295	115
77.0372	224
89.0372	101
90.0454	57
91.052	130
102.032	94
102.045	72
103.0408	65
104.0482	65
116.0483	65
118.0394	57
129.0451	72
130.0508	65
151.0528	231
153.0588	79
155.0624	65
164.0493	246
165.0559	86
165.0683	57
168.07	65
169.0752	72
177.0583	101
178.0645	224
179.0606	137
180.0689	137
190.0645	50
191.0666	108
192.0722	123
193.0531	50
193.0759	108
194.0848	86
203.059	137
204.0681	152
205.0751	999
206.0833	152
217.0736	72
218.0835	376
219.0908	731
220.0993	340
221.0492	86
232.0628	65
233.0695	94
261.0644	57
262.0754	86
