Mass spectrum: Allethrin; LC-ESI-QTOF; MS2; 20 V
Name: Allethrin
Class: Insecticide
Formula: C19H26O3
Exact mass: 302.1882
SMILES: CC(C)=CC1C(C(=O)OC2CC(=O)C(=C2C)CC=C)C1(C)C
InChI: InChI=1S/C19H26O3/c1-7-8-13-12(4)16(10-15(13)20)22-18(21)17-14(9-11(2)3)19(17,5)6/h7,9,14,16-17H,1,8,10H2,2-6H3
Instrument: TripleTOF 5600 SCIEX
Instrument type: LC-ESI-QTOF
Ms type: MS2
Ion mode: POSITIVE
Collision energy: 20
Fragmentation mode: CID
Ionization: ESI
Column name: Zorbax Eclipse Plus C18 2.1 mm x 150 mm, 3.5 um, Agilent
Retention time: 16.132 min
Precursor m/z: 303.1955
Precursor type: [M+H]+
m/z	relative intensity
69.0748	14
77.0417	11
79.0568	88
81.0721	46
83.0874	10
91.0546	55
93.0714	337
95.0871	25
105.07	25
107.0503	15
107.0859	294
109.0641	17
109.1009	23
113.0592	14
117.071	39
119.0853	16
121.0661	17
121.1012	223
123.1174	475
125.0593	15
133.1018	20
135.0812	999
137.0968	80
139.1117	47
143.0849	19
145.1001	11
147.1179	19
149.0959	157
151.112	244
157.1015	33
159.1166	25
161.0947	14
161.1307	17
163.1125	26
167.1068	126
169.1218	126
171.1165	10
173.0963	12
173.1336	21
175.1102	17
185.1328	23
187.1117	16
187.1498	10
189.1273	15
191.1074	19
197.1311	16
199.149	39
201.1275	39
203.1429	35
215.1431	21
215.1778	26
217.1597	16
239.179	39
241.1959	23
243.1382	23
