Mass spectrum: Indigo; LC-ESI-QTOF; MS2; 70 V
Name: Indigo
Formula: C16H10N2O2
Exact mass: 262.0742
SMILES: C1=CC=C2C(=C1)C(=C(N2)C3=NC4=CC=CC=C4C3=O)O
InChI: InChI=1S/C16H10N2O2/c19-15-9-5-1-3-7-11(9)17-13(15)14-16(20)10-6-2-4-8-12(10)18-14/h1-8,17,19H
Instrument: TripleTOF X500R SCIEX
Instrument type: LC-ESI-QTOF
Ms type: MS2
Ion mode: POSITIVE
Collision energy: 70
Fragmentation mode: CID
Ionization: ESI
Column name: Zorbax Eclipse Plus C18 2.1 mm x 150 mm, 3.5 um, Agilent
Retention time: 11.892 min
Precursor m/z: 263.0815
Precursor type: [M+H]+
m/z	relative intensity
50.0155	69
51.0232	604
63.0244	54
65.0384	30
76.0302	85
77.0391	875
89.0386	363
90.0463	147
102.0342	185
103.042	123
104.0263	154
104.0498	240
105.0324	61
114.0332	61
115.0546	54
116.0503	92
117.058	61
127.053	54
128.0498	77
130.0314	38
130.048	38
131.0421	38
132.0439	139
139.0554	69
140.0495	108
150.0469	77
151.0538	356
152.0631	425
153.0602	77
154.0671	46
158.0507	38
162.0455	77
163.0538	271
164.0537	193
165.0708	108
177.0581	193
178.0651	356
179.073	240
180.0815	116
181.0783	54
188.0506	154
189.0583	92
190.066	387
192.0665	54
204.0674	61
205.0771	999
206.0842	116
215.0622	116
216.0702	85
217.0753	54
218.0831	61
233.0718	77
