Mass spectrum: Ethyldiphenylphosphine oxide; LC-ESI-QTOF; MS2; 40 V
Name: Ethyldiphenylphosphine oxide
Class: Industrial_process
Formula: C14H15OP
Exact mass: 230.0861
SMILES: CC[P](=O)(c1ccccc1)c2ccccc2
InChI: InChI=1S/C14H15OP/c1-2-16(15,13-9-5-3-6-10-13)14-11-7-4-8-12-14/h3-12H,2H2,1H3
Instrument: TripleTOF 5600 SCIEX
Instrument type: LC-ESI-QTOF
Ms type: MS2
Ion mode: POSITIVE
Collision energy: 40
Fragmentation mode: CID
Ionization: ESI
Column name: Zorbax Eclipse Plus C18 2.1 mm x 150 mm, 3.5 um, Agilent
Retention time: 8.816 min
Precursor m/z: 231.0933
Precursor type: [M+H]+
m/z	relative intensity
65.0428	12
75.0015	12
77.0413	37
78.0486	23
79.0571	13
83.0067	11
91.0553	22
105.07	119
109.0203	286
125.0155	999
152.0614	11
153.0461	699
154.0785	11
155.0849	41
165.0687	10
183.0356	80
199.0299	33
200.039	14
201.0461	25
215.0621	111
231.0924	493
