Mass spectrum: 4-Amino-2,6-dimethoxypyrimidine; LC-ESI-QTOF; MS2; 70 V
Name: 4-Amino-2,6-dimethoxypyrimidine
Class: Pharmaceutical
Formula: C6H9N3O2
Exact mass: 155.0695
SMILES: COC1=NC(=NC(=C1)N)OC
InChI: InChI=1S/C6H9N3O2/c1-10-5-3-4(7)8-6(9-5)11-2/h3H,1-2H3,(H2,7,8,9)
Instrument: TripleTOF 5600 SCIEX
Instrument type: LC-ESI-QTOF
Ms type: MS2
Ion mode: POSITIVE
Collision energy: 70
Fragmentation mode: CID
Ionization: ESI
Column name: Zorbax Eclipse Plus C18 2.1 mm x 150 mm, 3.5 um, Agilent
Retention time: 4.656 min
Precursor m/z: 156.0768
Precursor type: [M+H]+
m/z	relative intensity
38.016	23
39.0245	52
40.0309	217
41.0377	99
42.0475	47
43.0416	203
44.0241	75
52.0282	33
54.0441	66
55.0302	113
56.0447	23
57.0528	151
58.035	89
65.0211	151
66.0283	459
67.0109	189
67.0351	482
68.0197	999
69.014	250
69.9996	75
72.0535	23
82.0339	369
83.0514	47
84.061	23
92.0291	23
95.0249	33
111.0198	23
