Mass spectrum: Codeine; LC-ESI-QTOF; MS2; 40 V
Name: Codeine
Formula: C18H21NO3
Exact mass: 299.1521
SMILES: CN1CCC23C4C1CC5=C2C(=C(C=C5)OC)OC3C(C=C4)O
InChI: InChI=1S/C18H21NO3/c1-19-8-7-18-11-4-5-13(20)17(18)22-16-14(21-2)6-3-10(15(16)18)9-12(11)19/h3-6,11-13,17,20H,7-9H2,1-2H3
Instrument: TripleTOF 6600 SCIEX
Instrument type: LC-ESI-QTOF
Ms type: MS2
Ion mode: POSITIVE
Collision energy: 40
Fragmentation mode: CID
Ionization: ESI
Column name: Zorbax Eclipse Plus C18 2.1 mm x 150 mm, 3.5 um, Agilent
Retention time: 5.043 min
Precursor m/z: 300.1594
Precursor type: [M+H]+
m/z	relative intensity
44.0489	40
58.064	51
77.0371	15
91.052	14
103.052	12
115.0521	39
121.0642	23
127.0525	16
128.0605	48
129.0686	25
131.0479	11
137.0584	46
141.0684	78
143.0475	10
144.0554	73
145.0621	16
146.0633	11
152.0607	66
153.0689	174
154.0751	34
155.0509	13
155.0837	148
156.0552	40
157.0625	25
158.071	39
159.0785	68
160.0735	13
161.0588	116
164.0655	14
165.0687	349
166.0768	36
167.0847	29
168.0544	68
169.0625	32
170.0712	28
171.044	10
171.0788	172
172.0503	23
172.0871	43
173.0945	10
174.0659	20
175.0725	33
177.0712	20
178.0772	31
179.0857	35
180.0554	12
180.0971	13
181.0637	216
182.071	75
183.0438	30
183.0779	207
184.0509	26
184.086	15
185.0597	65
185.0951	19
186.0642	33
187.074	92
187.1114	30
189.0725	21
190.0771	23
191.0839	54
192.0989	18
193.0645	111
194.0708	97
195.0778	40
197.0573	53
197.0947	35
198.0659	91
199.0741	294
200.0813	49
201.0684	16
201.0867	29
202.0776	11
203.0848	14
205.0639	12
207.0784	29
208.0517	13
208.0883	17
209.0577	77
209.092	16
210.0673	68
211.0755	55
212.0828	45
213.0889	77
214.0897	11
215.1051	281
218.0727	13
219.0794	37
220.0884	15
220.1083	11
221.0577	22
221.095	23
223.0747	75
224.0825	14
225.0899	204
226.065	10
228.0735	11
235.0737	12
236.0814	22
237.0898	9
238.0993	13
239.1033	11
241.0858	97
241.1146	10
243.101	121
250.1221	23
251.104	19
252.0995	19
253.1178	12
266.1159	65
267.1233	32
282.1458	62
300.1595	999
