Mass spectrum: Metaflumizone; LC-ESI-QTOF; MS2; 80 V
Name: Metaflumizone
Class: Insecticide; Pharmaceutical
Formula: C24H16F6N4O2
Exact mass: 506.1177
SMILES: C1=CC(=CC(=C1)C(F)(F)F)C(=NNC(=O)NC2=CC=C(C=C2)OC(F)(F)F)CC3=CC=C(C=C3)C#N
InChI: InChI=1S/C24H16F6N4O2/c25-23(26,27)18-3-1-2-17(13-18)21(12-15-4-6-16(14-31)7-5-15)33-34-22(35)32-19-8-10-20(11-9-19)36-24(28,29)30/h1-11,13H,12H2,(H2,32,34,35)
Instrument: TripleTOF 6600 SCIEX
Instrument type: LC-ESI-QTOF
Ms type: MS2
Ion mode: POSITIVE
Collision energy: 80
Fragmentation mode: CID
Ionization: ESI
Column name: Zorbax Eclipse Plus C18 2.1 mm x 150 mm, 3.5 um, Agilent
Retention time: 15.496 min
Precursor m/z: 507.125
Precursor type: [M+H]+
m/z	relative intensity
63.0231	28
65.0384	99
68.9944	12
75.0227	17
80.049	12
89.0384	411
90.0334	12
90.046	24
92.0493	297
93.0331	21
93.057	227
95.0287	45
108.0439	69
109.0495	14
114.0332	29
115.0415	32
116.0494	999
117.0576	10
123.0357	14
128.0487	15
129.0436	14
141.0444	19
142.0513	42
144.0233	13
145.025	20
149.0199	10
151.0346	42
159.0418	20
164.0298	52
164.0608	24
165.0679	10
171.0416	10
172.0352	67
175.0546	10
176.0315	60
177.0394	25
178.047	337
183.0601	17
190.065	376
191.072	162
192.0705	18
193.0439	41
200.0488	90
201.0554	17
202.0649	23
203.0727	56
204.0804	39
208.0558	14
212.0431	13
213.0507	34
214.0606	13
215.06	10
216.068	44
217.0761	137
218.0836	667
219.0477	75
219.0916	17
220.0553	301
221.0581	42
226.0501	16
227.0597	48
228.055	30
232.0524	15
233.0566	80
239.0543	117
240.0612	167
245.0514	20
246.0583	54
247.0665	524
248.0673	13
250.0452	12
252.061	26
253.0562	17
258.0523	49
259.0605	18
260.0666	25
265.0561	43
266.0645	33
267.0726	365
270.0535	46
271.0601	16
273.0618	36
286.0714	143
287.0782	137
