Mass spectrum: Sulisobenzone; LC-ESI-QTOF; MS2; 60 V
Name: Sulisobenzone
Class: Personal_care_product
Formula: C14H12O6S
Exact mass: 308.0355
SMILES: COc1c(S(O)(=O)=O)cc(C(c2ccccc2)=O)c(O)c1
InChI: InChI=1S/C14H12O6S/c1-20-12-8-11(15)10(7-13(12)21(17,18)19)14(16)9-5-3-2-4-6-9/h2-8,15H,1H3,(H,17,18,19)
Instrument: TripleTOF 5600 SCIEX
Instrument type: LC-ESI-QTOF
Ms type: MS2
Ion mode: POSITIVE
Collision energy: 60
Fragmentation mode: CID
Ionization: ESI
Column name: Zorbax Eclipse Plus C18 2.1 mm x 150 mm, 3.5 um, Agilent
Retention time: 7.476 min
Precursor m/z: 309.0427
Precursor type: [M+H]+
m/z	relative intensity
51.0293	118
53.0066	166
77.0412	428
79.0193	594
105.0312	166
107.0111	999
120.0182	214
121.0266	261
135.0058	499
149.0191	142
198.969	214
230.995	118
