Mass spectrum: Flecainide meta-O-dealkylated; LC-ESI-QTOF; MS2; 130 V
Name: Flecainide meta-O-dealkylated
Class: Pharmaceutical; Transformation_product; Transformation_product-Metabolite
Formula: C15H19F3N2O3
Exact mass: 332.1348
SMILES: C1CCNC(C1)CNC(=O)C2=C(C=CC(=C2)O)OCC(F)(F)F
InChI: InChI=1S/C15H19F3N2O3/c16-15(17,18)9-23-13-5-4-11(21)7-12(13)14(22)20-8-10-3-1-2-6-19-10/h4-5,7,10,19,21H,1-3,6,8-9H2,(H,20,22)
Instrument: TripleTOF 5600 SCIEX
Instrument type: LC-ESI-QTOF
Ms type: MS2
Ion mode: POSITIVE
Collision energy: 130
Fragmentation mode: CID
Ionization: ESI
Column name: Zorbax Eclipse Plus C18 2.1 mm x 150 mm, 3.5 um, Agilent
Retention time: 5.586 min
Precursor m/z: 333.1421
Precursor type: [M+H]+
m/z	relative intensity
42.0455	26
44.0615	57
51.0325	999
54.0192	258
56.0565	102
57.0202	44
65.0438	80
67.0514	26
68.0564	26
69.0052	22
70.0713	22
71.0336	98
73.0122	22
74.0181	93
75.0273	133
77.0416	133
79.0223	98
79.0595	93
80.029	205
80.051	26
81.0363	31
81.0719	26
82.0068	75
82.0693	26
84.0844	107
92.0273	22
95.0295	53
99.0248	240
108.0197	93
127.0173	26
