Mass spectrum: Bisoprolol; LC-ESI-QTOF; MS2; 90 V
Name: Bisoprolol
Class: Pharmaceutical
Formula: C18H31NO4
Exact mass: 325.2253
SMILES: CC(C)NCC(COC1=CC=C(C=C1)COCCOC(C)C)O
InChI: InChI=1S/C18H31NO4/c1-14(2)19-11-17(20)13-23-18-7-5-16(6-8-18)12-21-9-10-22-15(3)4/h5-8,14-15,17,19-20H,9-13H2,1-4H3
Instrument: TripleTOF 6600 SCIEX
Instrument type: LC-ESI-QTOF
Ms type: MS2
Ion mode: POSITIVE
Collision energy: 90
Fragmentation mode: CID
Ionization: ESI
Column name: Zorbax Eclipse Plus C18 2.1 mm x 150 mm, 3.5 um, Agilent
Retention time: 7.01 min
Precursor m/z: 326.2326
Precursor type: [M+H]+
m/z	relative intensity
30.0334	164
31.0174	10
37.0071	38
38.0024	19
38.015	29
39.0222	191
41.038	278
42.0334	16
43.0166	17
43.0538	131
44.049	37
45.0327	305
50.0137	10
51.0218	95
53.0382	11
55.018	29
56.0489	366
57.0329	13
58.0642	65
59.9979	11
61.0056	79
62.0141	158
63.0221	823
65.0377	263
74.059	112
77.0377	999
78.0448	74
79.0532	202
81.0331	13
89.0371	915
90.0445	20
91.0529	342
95.0479	14
103.0529	41
104.0599	11
105.0437	35
105.0681	19
107.0476	602
115.0525	118
116.0608	11
121.0635	25
128.061	13
