Mass spectrum: 4-Bromoantipyrine; LC-ESI-QTOF; MS2; 30 V
Name: 4-Bromoantipyrine
Class: Industrial_process
Formula: C11H11BrN2O
Exact mass: 266.0055
SMILES: CC1=C(C(=O)N(N1C)C2=CC=CC=C2)Br
InChI: InChI=1S/C11H11BrN2O/c1-8-10(12)11(15)14(13(8)2)9-6-4-3-5-7-9/h3-7H,1-2H3
Instrument: TripleTOF 6600 SCIEX
Instrument type: LC-ESI-QTOF
Ms type: MS2
Ion mode: POSITIVE
Collision energy: 30
Fragmentation mode: CID
Ionization: ESI
Column name: Zorbax Eclipse Plus C18 2.1 mm x 150 mm, 3.5 um, Agilent
Retention time: 7.678 min
Precursor m/z: 267.0128
Precursor type: [M+H]+
m/z	relative intensity
56.0483	274
95.0573	9
118.0621	10
135.9727	605
144.0769	11
145.0722	11
145.0847	14
146.0572	18
147.088	36
157.0485	16
159.088	33
172.0589	13
173.0672	74
173.9745	42
187.0826	78
188.0908	290
251.9841	88
267.0078	999
