Mass spectrum: Imazamox; LC-ESI-QTOF; MS2; 90 V
Name: Imazamox
Class: Herbicide
Formula: C15H19N3O4
Exact mass: 305.1376
SMILES: CC(C)C1(C(=O)NC(=N1)C2=C(C=C(C=N2)COC)C(=O)O)C
InChI: InChI=1S/C15H19N3O4/c1-8(2)15(3)14(21)17-12(18-15)11-10(13(19)20)5-9(6-16-11)7-22-4/h5-6,8H,7H2,1-4H3,(H,19,20)(H,17,18,21)
Instrument: TripleTOF 6600 SCIEX
Instrument type: LC-ESI-QTOF
Ms type: MS2
Ion mode: POSITIVE
Collision energy: 90
Fragmentation mode: CID
Ionization: ESI
Column name: Zorbax Eclipse Plus C18 2.1 mm x 150 mm, 3.5 um, Agilent
Retention time: 6.853 min
Precursor m/z: 306.1448
Precursor type: [M+H]+
m/z	relative intensity
37.006	57
38.014	66
39.0219	555
41.0375	563
42.0324	119
43.0406	35
44.0479	31
45.0325	93
50.0135	26
51.0215	79
52.0165	84
52.0295	17
53.0369	93
56.0479	270
61.0054	150
62.0133	146
63.0212	315
64.0167	44
64.029	133
65.0249	53
65.0367	661
66.0448	39
67.0523	26
69.0681	102
70.0635	337
71.0712	159
76.0162	57
77.0121	35
77.0245	22
77.0363	53
78.0321	230
79.0268	48
79.0391	62
80.0472	137
86.0956	26
88.0166	999
89.0241	190
89.0362	17
90.0319	235
91.0398	346
92.0356	22
92.0475	448
93.0558	35
103.0276	62
104.047	93
105.0427	142
105.0546	17
106.0264	57
106.0624	26
107.0572	26
108.0418	39
115.0271	84
116.0351	492
117.043	177
118.0506	346
119.0583	44
122.0581	239
123.0652	39
131.0227	22
131.0577	71
132.0669	17
133.0372	57
142.0502	22
144.0295	93
145.0368	44
146.0447	35
147.0515	26
148.0602	31
159.0532	31
160.0599	62
161.0564	17
162.0412	31
163.0494	17
175.048	31
