Mass spectrum: Amlodipine; LC-ESI-QTOF; MS2; 50 V
Name: Amlodipine
Class: Pharmaceutical
Formula: C20H25ClN2O5
Exact mass: 408.1452
SMILES: CCOC(=O)C1=C(COCCN)NC(=C(C1c2ccccc2Cl)C(=O)OC)C
InChI: InChI=1S/C20H25ClN2O5/c1-4-28-20(25)18-15(11-27-10-9-22)23-12(2)16(19(24)26-3)17(18)13-7-5-6-8-14(13)21/h5-8,17,23H,4,9-11,22H2,1-3H3
Instrument: TripleTOF 5600 SCIEX
Instrument type: LC-ESI-QTOF
Ms type: MS2
Ion mode: POSITIVE
Collision energy: 50
Fragmentation mode: CID
Ionization: ESI
Column name: Zorbax Eclipse Plus C18 2.1 mm x 150 mm, 3.5 um, Agilent
Retention time: 8.432 min
Precursor m/z: 409.1525
Precursor type: [M+H]+
m/z	relative intensity
42.0426	16
44.0577	128
70.031	13
72.0479	14
74.0632	20
84.0453	13
94.0663	10
96.0449	34
98.0611	16
101.0388	17
102.0477	50
115.0538	99
116.062	32
120.0452	17
122.059	20
124.039	33
125.0143	27
126.0542	17
127.0533	16
128.0485	24
128.0607	26
128.0814	10
129.0692	10
130.077	10
137.0153	320
138.0545	14
138.9941	55
139.0526	11
140.0263	29
140.0484	36
141.0688	14
142.0441	10
142.065	490
143.0727	227
148.0392	96
149.0153	549
151.0294	66
152.0628	14
153.0685	18
154.0771	16
155.0254	61
156.0457	18
156.0799	48
157.0513	17
157.0875	39
163.0304	119
164.0276	36
165.0103	770
165.0406	24
166.0832	13
167.0755	24
168.0555	11
168.0817	27
169.09	34
170.06	971
171.0436	20
171.0672	26
172.0975	16
175.0294	39
176.0338	355
177.01	113
177.0344	17
178.042	429
179.0729	17
180.0623	27
180.0797	64
181.0648	21
181.0888	90
183.0222	27
183.0677	14
184.0756	250
185.0829	85
187.0309	18
189.0106	26
189.0462	18
190.0413	30
191.0268	26
192.0197	24
192.0579	62
194.0939	14
195.067	20
195.1034	18
196.0756	103
196.1107	13
197.0835	110
198.0589	13
198.0911	34
201.033	10
202.0416	30
202.0863	74
203.0493	32
204.0186	21
204.0571	138
206.0365	997
207.069	17
208.0607	696
209.0826	91
210.0922	11
211.0556	29
212.0705	50
213.0773	85
214.0414	50
214.0849	11
215.0248	17
215.0487	29
216.0584	65
217.0633	21
218.0362	43
218.0732	11
219.0212	14
219.0702	13
220.0522	999
222.0923	14
223.0815	11
223.0978	29
224.0702	132
224.1029	20
225.0782	90
226.0861	40
229.0287	11
230.0381	23
230.0759	34
231.0445	30
231.0698	56
232.0516	371
232.0861	14
233.059	115
234.0674	20
236.0667	26
238.063	221
239.0886	14
240.1015	62
242.0366	58
243.0418	40
244.0522	103
246.0315	14
246.067	14
248.0465	221
250.088	20
251.0951	72
252.068	32
252.102	59
256.0106	13
256.0512	13
256.0945	13
258.0309	17
258.0673	36
259.0731	49
260.0472	410
260.0955	10
261.0585	34
261.0772	13
262.0675	16
267.1128	20
270.0312	94
271.0361	26
274.0641	11
275.0919	17
276.0787	37
278.0802	50
286.0614	65
288.041	117
288.0753	17
294.0901	37
303.092	23
306.0521	120
332.0688	36
334.0837	154
360.1009	14
