Mass spectrum: Oxycodone; LC-ESI-QTOF; MS2; 100 V
Name: Oxycodone
Class: Pharmaceutical
Formula: C18H21NO4
Exact mass: 315.1471
SMILES: CN1CCC23C4C(=O)CCC2(C1CC5=C3C(=C(C=C5)OC)O4)O
InChI: InChI=1S/C18H21NO4/c1-19-8-7-17-14-10-3-4-12(22-2)15(14)23-16(17)11(20)5-6-18(17,21)13(19)9-10/h3-4,13,16,21H,5-9H2,1-2H3
Instrument: TripleTOF 6600 SCIEX
Instrument type: LC-ESI-QTOF
Ms type: MS2
Ion mode: POSITIVE
Collision energy: 100
Fragmentation mode: CID
Ionization: ESI
Column name: Zorbax Eclipse Plus C18 2.1 mm x 150 mm, 3.5 um, Agilent
Retention time: 5.206 min
Precursor m/z: 316.1543
Precursor type: [M+H]+
m/z	relative intensity
39.0225	24
42.0329	62
44.0491	16
51.0215	39
55.018	10
62.0148	19
63.022	40
65.0375	59
74.0134	17
75.0209	53
76.0285	31
77.0374	398
78.0448	141
79.0525	18
80.0478	12
87.0221	10
88.0283	16
89.0376	205
90.0452	30
91.0531	119
92.0472	12
93.0557	12
94.0648	17
101.0372	79
102.0449	211
103.0523	204
104.0599	15
113.0371	52
114.0446	68
115.0529	984
116.0514	62
117.0559	79
118.0386	16
118.0641	10
125.0362	14
126.0451	174
127.0528	634
128.0604	758
129.0496	23
129.0681	69
130.0633	50
131.0471	203
132.0554	36
132.0818	16
138.0438	15
139.0523	492
140.0503	188
141.0684	251
142.0638	64
143.0475	12
143.0715	84
144.0543	29
144.0789	18
145.0628	9
150.0462	55
151.0524	255
152.0604	806
153.059	401
154.064	639
155.05	126
155.0679	143
156.0546	34
156.0778	25
157.0616	15
163.0527	63
164.061	70
165.0689	254
166.0639	485
167.0717	436
168.0542	15
168.0796	999
169.0641	18
169.0873	171
170.0613	18
170.0947	30
171.0423	10
176.0606	66
177.0575	48
178.0674	77
179.0719	57
180.0791	258
181.0642	46
181.0869	224
182.0607	115
182.0958	59
183.0416	29
183.0641	39
184.0532	35
184.0773	13
189.0664	29
190.0652	24
191.0725	45
192.0799	50
193.0863	20
194.0572	17
194.0941	47
195.0669	11
196.0756	140
197.0562	23
197.0812	35
198.0919	10
203.0707	17
204.0802	21
206.0598	14
207.0681	15
208.0756	25
210.0538	24
210.0871	22
211.0602	22
212.0708	12
218.0933	14
220.0725	12
221.0877	9
224.0709	17
226.0834	10
236.0659	11
238.0825	18
