Mass spectrum: Glycidyltrimethylaminium; LC-ESI-QTOF; MS2; 120 V
Name: Glycidyltrimethylaminium
Class: Industrial_process
Formula: [C6H14NO]+
Exact mass: 116.107
SMILES: C[N+](C)(C)CC1CO1
InChI: InChI=1S/C6H14NO/c1-7(2,3)4-6-5-8-6/h6H,4-5H2,1-3H3/q+1
Instrument: TripleTOF 6600 SCIEX
Instrument type: LC-ESI-QTOF
Ms type: MS2
Ion mode: POSITIVE
Collision energy: 120
Fragmentation mode: CID
Ionization: ESI
Column name: Zorbax Eclipse Plus C18 2.1 mm x 150 mm, 3.5 um, Agilent
Retention time: 1.307 min
Precursor m/z: 116.107
Precursor type: [M]+
m/z	relative intensity
38.0024	91
40.018	77
41.0257	189
42.0339	999
