Mass spectrum: 2-Hydroxyatrazine; LC-ESI-QTOF; MS2; 110 V
Name: 2-Hydroxyatrazine
Class: Transformation_product; Herbicide; Metabolite; Transformation_product-Metabolite
Formula: C8H15N5O
Exact mass: 197.1277
SMILES: CCNC1=NC(=O)NC(=N1)NC(C)C
InChI: InChI=1S/C8H15N5O/c1-4-9-6-11-7(10-5(2)3)13-8(14)12-6/h5H,4H2,1-3H3,(H3,9,10,11,12,13,14)
Instrument: TripleTOF 6600 SCIEX
Instrument type: LC-ESI-QTOF
Ms type: MS2
Ion mode: POSITIVE
Collision energy: 110
Fragmentation mode: CID
Ionization: ESI
Column name: Zorbax Eclipse Plus C18 2.1 mm x 150 mm, 3.5 um, Agilent
Retention time: 5.304 min
Precursor m/z: 198.135
Precursor type: [M+H]+
m/z	relative intensity
37.0067	45
38.0025	41
38.0152	41
39.0227	151
41.0134	352
41.0384	32
42.0212	64
43.0292	999
44.0124	41
44.0491	22
53.0126	36
68.0239	82
69.008	664
