Mass spectrum: 2-(2-Hydroxyphenyl)-1H-benzimidazole; LC-ESI-QTOF; MS2; 120 V
Name: 2-(2-Hydroxyphenyl)-1H-benzimidazole
Class: Industrial_process; Pharmaceutical
Formula: C13H10N2O
Exact mass: 210.0793
SMILES: C1=CC=C2C(=C1)NC(=C3C=CC=CC3=O)N2
InChI: InChI=1S/C13H10N2O/c16-12-8-4-1-5-9(12)13-14-10-6-2-3-7-11(10)15-13/h1-8,14-15H
Instrument: TripleTOF 5600 SCIEX
Instrument type: LC-ESI-QTOF
Ms type: MS2
Ion mode: POSITIVE
Collision energy: 120
Fragmentation mode: CID
Ionization: ESI
Column name: Zorbax Eclipse Plus C18 2.1 mm x 150 mm, 3.5 um, Agilent
Retention time: 6.225 min
Precursor m/z: 211.0866
Precursor type: [M+H]+
m/z	relative intensity
52.0309	366
60.0068	88
66.0433	63
73.0134	126
74.021	999
75.0269	809
76.0266	442
77.0441	417
78.0447	75
85.01	126
86.019	316
87.0275	278
88.0252	177
89.0445	113
91.048	88
98.0157	101
99.0183	63
101.0443	63
102.0361	50
109.0067	63
110.0162	75
111.0243	63
113.0393	151
114.0387	63
126.0454	63
129.0437	50
137.0411	75
152.0492	63
