Mass spectrum: Ethyltriphenylphosphonium; LC-ESI-QTOF; MS2; 120 V
Name: Ethyltriphenylphosphonium
Class: Industrial_process
Formula: [C20H20P]+
Exact mass: 291.1297
SMILES: CC[P+](C1=CC=CC=C1)(C2=CC=CC=C2)C3=CC=CC=C3
InChI: InChI=1S/C20H20P/c1-2-21(18-12-6-3-7-13-18,19-14-8-4-9-15-19)20-16-10-5-11-17-20/h3-17H,2H2,1H3/q+1
Instrument: TripleTOF 5600 SCIEX
Instrument type: LC-ESI-QTOF
Ms type: MS2
Ion mode: POSITIVE
Collision energy: 120
Fragmentation mode: CID
Ionization: ESI
Column name: Zorbax Eclipse Plus C18 2.1 mm x 150 mm, 3.5 um, Agilent
Retention time: 7.392 min
Precursor m/z: 291.1297
Precursor type: [M]+
m/z	relative intensity
56.9883	89
63.0222	131
65.038	92
77.0371	55
79.9796	114
80.9874	229
89.0365	262
102.0446	102
107.003	999
113.0375	88
115.0529	378
126.0453	256
131.0032	97
133.019	82
139.0536	307
150.0455	172
151.0536	500
152.0615	899
156.0117	83
157.0196	445
180.0119	72
181.0199	376
183.0356	96
