Mass spectrum: 4-(Dimethylamino)benzaldehyde; LC-ESI-QTOF; MS2; 90 V
Name: 4-(Dimethylamino)benzaldehyde
Class: Pharmaceutical
Formula: C9H11NO
Exact mass: 149.0841
SMILES: CN(C)C1=CC=C(C=C1)C=O
InChI: InChI=1S/C9H11NO/c1-10(2)9-5-3-8(7-11)4-6-9/h3-7H,1-2H3
Instrument: TripleTOF 5600 SCIEX
Instrument type: LC-ESI-QTOF
Ms type: MS2
Ion mode: POSITIVE
Collision energy: 90
Fragmentation mode: CID
Ionization: ESI
Column name: Zorbax Eclipse Plus C18 2.1 mm x 150 mm, 3.5 um, Agilent
Retention time: 8.87 min
Precursor m/z: 150.0913
Precursor type: [M+H]+
m/z	relative intensity
35.9988	15
37.0071	43
38.015	22
39.0226	109
51.0227	999
52.0174	11
52.0306	36
64.0307	20
65.0388	75
66.047	13
74.0144	54
75.0227	20
76.0295	11
77.0384	620
78.0461	45
91.0537	13
104.0481	34
