Mass spectrum: Citalopram-N-oxide; LC-ESI-QTOF; MS2; 110 V
Name: Citalopram-N-oxide
Class: Metabolite; Pharmaceutical; Transformation_product
Formula: C20H21FN2O2
Exact mass: 340.1587
SMILES: C[N+](C)(CCCC1(C2=C(CO1)C=C(C=C2)C#N)C3=CC=C(C=C3)F)[O-]
InChI: InChI=1S/C20H21FN2O2/c1-23(2,24)11-3-10-20(17-5-7-18(21)8-6-17)19-9-4-15(13-22)12-16(19)14-25-20/h4-9,12H,3,10-11,14H2,1-2H3
Instrument: TripleTOF 5600 SCIEX
Instrument type: LC-ESI-QTOF
Ms type: MS2
Ion mode: POSITIVE
Collision energy: 110
Fragmentation mode: CID
Ionization: ESI
Column name: Zorbax Eclipse Plus C18 2.1 mm x 150 mm, 3.5 um, Agilent
Retention time: 7.958 min
Precursor m/z: 341.166
Precursor type: [M+H]+
m/z	relative intensity
42.0422	27
43.0499	13
44.0591	21
51.0283	17
57.0196	236
57.0428	25
58.0707	199
59.033	63
60.0466	21
65.0423	29
74.0179	78
75.0262	175
76.0321	11
77.0407	120
81.0162	23
83.0316	999
83.0677	11
86.0161	13
87.0244	61
88.0208	21
88.0313	13
89.0405	500
89.0643	17
90.0356	35
94.0239	13
95.0295	86
96.0379	19
98.0151	47
99.0226	66
100.0318	25
101.039	39
102.046	21
103.0537	19
105.0121	9
107.0291	39
109.0447	569
110.0151	11
112.0198	13
113.0385	281
114.0339	72
115.0538	98
116.049	88
120.0375	39
122.0146	27
123.0228	57
125.0374	35
125.0628	9
126.0457	59
127.054	43
128.0627	59
131.0301	15
132.0373	13
133.0451	151
137.0397	41
138.0316	9
138.045	13
139.0533	92
140.0494	360
144.0363	57
145.0437	15
146.0166	17
146.052	33
147.0237	31
148.0316	19
149.0372	100
150.0467	122
151.0531	41
152.0633	25
153.0574	15
155.0281	15
157.0437	63
158.0388	37
161.0382	80
162.0446	63
163.0535	218
164.0484	104
167.0281	43
168.0363	165
169.0451	94
170.0517	100
172.0276	13
173.0372	57
173.0566	13
174.046	208
175.0377	25
175.0498	94
176.0576	47
177.0566	39
179.0307	17
180.0363	43
181.0438	309
182.0426	139
183.0604	68
185.0385	25
186.0445	43
187.0539	175
188.049	250
189.0629	86
190.0644	80
192.0372	110
193.0425	114
194.0513	208
195.0478	65
197.0366	39
198.0465	118
199.0532	372
200.0592	279
201.0575	94
204.0366	15
205.0432	167
206.0472	108
207.0566	177
208.0555	317
211.0524	66
212.0509	169
213.0681	228
214.0659	112
216.0347	31
217.0426	143
218.0521	815
218.0954	11
219.0523	293
220.0661	151
221.0648	72
223.0448	35
224.0494	135
225.0566	358
226.065	116
227.0728	78
229.0459	11
230.0458	39
231.0601	189
232.0557	181
233.0767	65
236.0508	21
237.0544	9
238.0633	126
240.0803	49
242.0556	35
243.0474	141
244.0558	271
245.0631	703
245.1101	13
246.0712	11
256.056	49
258.0702	74
259.0787	13
