Mass spectrum: Cyazofamid; LC-ESI-QTOF; MS2; 40 V
Name: Cyazofamid
Class: Fungicide
Formula: C13H13ClN4O2S
Exact mass: 324.0448
SMILES: CC1=CC=C(C=C1)C2=C(N=C(N2S(=O)(=O)N(C)C)C#N)Cl
InChI: InChI=1S/C13H13ClN4O2S/c1-9-4-6-10(7-5-9)12-13(14)16-11(8-15)18(12)21(19,20)17(2)3/h4-7H,1-3H3
Instrument: TripleTOF 6600 SCIEX
Instrument type: LC-ESI-QTOF
Ms type: MS2
Ion mode: POSITIVE
Collision energy: 40
Fragmentation mode: CID
Ionization: ESI
Column name: Zorbax Eclipse Plus C18 2.1 mm x 150 mm, 3.5 um, Agilent
Retention time: 13.577 min
Precursor m/z: 325.0521
Precursor type: [M+H]+
m/z	relative intensity
42.0333	34
44.0492	235
103.0544	14
108.0105	999
118.0644	12
130.0648	9
155.059	14
164.0263	14
182.0691	37
189.0206	19
190.0285	47
216.0322	111
217.0386	168
226.1207	12
245.0597	32
246.066	17
