Mass spectrum: Chloridazon; LC-ESI-QTOF; MS2; 110 V
Name: Chloridazon
Class: Herbicide
Formula: C10H8ClN3O
Exact mass: 221.0356
SMILES: C1=CC=C(C=C1)N2C(=O)C(=C(C=N2)N)Cl
InChI: InChI=1S/C10H8ClN3O/c11-9-8(12)6-13-14(10(9)15)7-4-2-1-3-5-7/h1-6H,12H2
Instrument: TripleTOF 6600 SCIEX
Instrument type: LC-ESI-QTOF
Ms type: MS2
Ion mode: POSITIVE
Collision energy: 110
Fragmentation mode: CID
Ionization: ESI
Column name: Zorbax Eclipse Plus C18 2.1 mm x 150 mm, 3.5 um, Agilent
Retention time: 6.924 min
Precursor m/z: 222.0429
Precursor type: [M+H]+
m/z	relative intensity
35.9992	20
37.0075	60
38.0036	24
38.0153	52
39.0104	24
39.0232	205
41.026	20
46.9682	48
47.9765	16
49.0073	221
50.0154	990
51.0232	999
52.0182	177
53.0265	36
55.029	16
61.0073	28
62.0156	36
63.023	36
65.0388	68
66.0213	120
68.0159	20
73.9795	20
74.0159	48
74.9878	20
75.0232	20
77.0388	76
87.9947	20
