Mass spectrum: Prometon; LC-ESI-QTOF; MS2; 140 V
Name: Prometon
Class: Herbicide
Formula: C10H19N5O
Exact mass: 225.159
SMILES: COc1nc(NC(C)C)nc(NC(C)C)n1
InChI: InChI=1S/C10H19N5O/c1-6(2)11-8-13-9(12-7(3)4)15-10(14-8)16-5/h6-7H,1-5H3,(H2,11,12,13,14,15)
Instrument: TripleTOF 5600 SCIEX
Instrument type: LC-ESI-QTOF
Ms type: MS2
Ion mode: POSITIVE
Collision energy: 140
Fragmentation mode: CID
Ionization: ESI
Column name: Zorbax Eclipse Plus C18 2.1 mm x 150 mm, 3.5 um, Agilent
Retention time: 7.392 min
Precursor m/z: 226.1662
Precursor type: [M+H]+
m/z	relative intensity
42.0293	76
42.0471	92
43.0386	999
44.0197	146
57.051	107
68.0284	968
69.0125	791
