Mass spectrum: Acridine-9-carboxylic acid; LC-ESI-QTOF; MS2; 60 V
Name: Acridine-9-carboxylic acid
Class: Pharmaceutical; Metabolite; Transformation_product
Formula: C14H9NO2
Exact mass: 223.0633
SMILES: OC(=O)c1c2ccccc2nc3ccccc13
InChI: InChI=1S/C14H9NO2/c16-14(17)13-9-5-1-3-7-11(9)15-12-8-4-2-6-10(12)13/h1-8H,(H,16,17)
Instrument: TripleTOF 5600 SCIEX
Instrument type: LC-ESI-QTOF
Ms type: MS2
Ion mode: POSITIVE
Collision energy: 60
Fragmentation mode: CID
Ionization: ESI
Column name: Zorbax Eclipse Plus C18 2.1 mm x 150 mm, 3.5 um, Agilent
Retention time: 4.656 min
Precursor m/z: 224.0706
Precursor type: [M+H]+
m/z	relative intensity
77.0419	49
101.0395	25
115.054	46
117.0617	9
125.0376	13
126.0473	19
127.055	61
128.0513	73
139.0552	133
140.0496	62
140.0618	40
141.0701	11
150.0474	50
151.0549	230
152.0626	364
153.057	63
154.0667	10
166.0658	335
167.0742	999
168.0815	17
177.0586	106
178.0657	263
179.073	223
180.0822	93
195.0689	60
196.0768	88
