Mass spectrum: 4-Hydroxydiphenylamine; LC-ESI-QTOF; MS2; 50 V
Name: 4-Hydroxydiphenylamine
Class: Pesticide; Industrial_process
Formula: C12H11NO
Exact mass: 185.0841
SMILES: C1=CC=C(C=C1)NC2=CC=C(C=C2)O
InChI: InChI=1S/C12H11NO/c14-12-8-6-11(7-9-12)13-10-4-2-1-3-5-10/h1-9,13-14H
Instrument: TripleTOF 6600 SCIEX
Instrument type: LC-ESI-QTOF
Ms type: MS2
Ion mode: POSITIVE
Collision energy: 50
Fragmentation mode: CID
Ionization: ESI
Column name: Zorbax Eclipse Plus C18 2.1 mm x 150 mm, 3.5 um, Agilent
Retention time: 10.034 min
Precursor m/z: 186.0914
Precursor type: [M+H]+
m/z	relative intensity
39.0222	33
53.0377	59
54.0329	12
65.0378	121
66.0455	52
68.0118	10
80.0488	918
81.0336	137
81.0557	101
82.0404	39
92.048	37
93.0562	159
108.043	191
109.0514	999
115.0527	32
139.0519	10
167.0724	19
