Mass spectrum: 4-Amino-2,6-dimethoxypyrimidine; LC-ESI-QTOF; MS2; 40 V
Name: 4-Amino-2,6-dimethoxypyrimidine
Class: Pharmaceutical
Formula: C6H9N3O2
Exact mass: 155.0695
SMILES: COC1=NC(=NC(=C1)N)OC
InChI: InChI=1S/C6H9N3O2/c1-10-5-3-4(7)8-6(9-5)11-2/h3H,1-2H3,(H2,7,8,9)
Instrument: TripleTOF 5600 SCIEX
Instrument type: LC-ESI-QTOF
Ms type: MS2
Ion mode: POSITIVE
Collision energy: 40
Fragmentation mode: CID
Ionization: ESI
Column name: Zorbax Eclipse Plus C18 2.1 mm x 150 mm, 3.5 um, Agilent
Retention time: 4.656 min
Precursor m/z: 156.0768
Precursor type: [M+H]+
m/z	relative intensity
40.0329	39
41.0346	10
42.0436	10
43.0409	32
45.0581	10
54.0413	43
55.028	29
55.0367	18
55.0447	14
56.0447	14
56.0587	61
57.0527	201
58.0378	128
65.0195	32
66.0282	58
67.0096	30
67.0352	647
68.0195	270
69.0146	72
69.052	12
69.9971	12
70.0577	21
71.0327	10
72.0493	134
80.043	18
81.0482	126
82.0328	999
83.0269	25
83.0516	23
84.0349	83
84.0576	41
85.0658	36
89.0743	30
92.0258	72
95.0259	29
97.0424	12
98.0459	221
99.023	25
99.057	154
101.0359	12
111.0197	348
111.0441	21
112.0516	77
113.0591	288
114.0433	25
124.0282	18
124.0501	204
125.0356	12
139.05	32
140.0453	45
141.0527	449
156.0761	484
