Mass spectrum: Dimethenamid; LC-ESI-QTOF; MS2; 70 V
Name: Dimethenamid
Class: Herbicide
Formula: C12H18ClNO2S
Exact mass: 275.0747
SMILES: CC1=CSC(=C1N(C(C)COC)C(=O)CCl)C
InChI: InChI=1S/C12H18ClNO2S/c1-8-7-17-10(3)12(8)14(11(15)5-13)9(2)6-16-4/h7,9H,5-6H2,1-4H3
Instrument: TripleTOF 6600 SCIEX
Instrument type: LC-ESI-QTOF
Ms type: MS2
Ion mode: POSITIVE
Collision energy: 70
Fragmentation mode: CID
Ionization: ESI
Column name: Zorbax Eclipse Plus C18 2.1 mm x 150 mm, 3.5 um, Agilent
Retention time: 11.971 min
Precursor m/z: 276.082
Precursor type: [M+H]+
m/z	relative intensity
37.0086	23
38.0166	28
39.0238	191
41.0393	148
42.0345	33
43.0179	28
44.98	167
45.034	167
46.9686	43
48.9845	430
50.0154	33
51.0236	86
52.0317	23
53.0392	71
54.035	23
55.0559	43
57.9876	19
58.9955	215
59.9911	47
65.0393	348
66.0473	81
67.0424	43
67.0547	420
68.9796	52
69.9921	19
70.9957	148
75.9957	33
76.9788	47
77.0392	492
78.035	38
78.0475	272
79.055	138
80.0499	282
81.0576	47
82.0654	81
82.9951	33
84.0025	28
85.011	119
90.0476	23
91.0424	33
91.0547	186
92.05	114
93.0577	282
93.0695	23
94.0657	946
94.9936	33
95.0514	19
95.0738	301
96.0041	38
96.0573	23
97.0109	396
98.0197	28
99.027	138
103.0534	28
104.0499	181
105.0573	320
106.065	100
107.0728	47
108.0812	81
109.0117	90
110.0066	33
110.0188	71
111.0265	999
112.0246	133
113.0301	81
115.055	38
117.0577	138
118.0658	186
119.0728	138
120.0453	28
120.0812	181
121.0105	33
122.0074	33
123.0144	76
123.0263	38
124.0221	286
125.0299	62
125.0419	109
126.0375	693
127.0226	23
127.0455	33
128.0539	57
132.0817	38
134.097	90
135.0266	71
136.0221	282
137.0298	90
138.0014	86
138.0377	420
139.0484	23
140.0513	23
144.9885	23
148.0217	28
149.0302	23
150.037	176
151.0195	19
151.0452	23
152.017	721
152.0533	143
153.025	38
153.0599	28
166.0307	19
166.0693	28
