Mass spectrum: Azo Rubin S; LC-ESI-QTOF; MS2; 40 V
Name: Azo Rubin S
Formula: C20H14N2O7S2
Exact mass: 458.0242
SMILES: C1=CC=C2C(=C1)C(=CC=C2S(=O)(=O)O)N=NC3=C(C4=CC=CC=C4C(=C3)S(=O)(=O)O)O
InChI: InChI=1S/C20H14N2O7S2/c23-20-15-8-4-3-7-14(15)19(31(27,28)29)11-17(20)22-21-16-9-10-18(30(24,25)26)13-6-2-1-5-12(13)16/h1-11,23H,(H,24,25,26)(H,27,28,29)
Instrument: TripleTOF 6600 SCIEX
Instrument type: LC-ESI-QTOF
Ms type: MS2
Ion mode: NEGATIVE
Collision energy: 40
Fragmentation mode: CID
Ionization: ESI
Column name: Zorbax Eclipse Plus C18 2.1 mm x 150 mm, 3.5 um, Agilent
Retention time: 7.286 min
Precursor m/z: 228.0053
Precursor type: [M-2H]2-
m/z	relative intensity
50.0037	0
63.9625	31
65.9986	12
79.7092	1
79.9578	249
80.9652	2
88.0319	0
101.0391	1
102.0349	28
114.0351	0
115.0424	6
116.0263	0
126.036	1
129.0342	1
130.0442	0
140.0508	16
141.0589	0
142.0306	3
143.0501	2
145.0294	12
157.0532	10
158.0368	0
169.4917	3
170.0257	999
171.0282	4
172.0401	6
194.0043	3
206.0048	16
220.3202	0
221.0155	106
222.0182	0
236.0013	0
282.0684	0
283.0765	0
