Mass spectrum: (2-Carboxyethyl)triphenylphosphonium; LC-ESI-QTOF; MS2; 130 V
Name: (2-Carboxyethyl)triphenylphosphonium
Formula: [C21H20O2P]+
Exact mass: 335.1195
SMILES: C1=CC=C(C=C1)[P+](CCC(=O)O)(C2=CC=CC=C2)C3=CC=CC=C3
InChI: InChI=1S/C21H19O2P/c22-21(23)16-17-24(18-10-4-1-5-11-18,19-12-6-2-7-13-19)20-14-8-3-9-15-20/h1-15H,16-17H2/p+1
Instrument: TripleTOF 5600 SCIEX
Instrument type: LC-ESI-QTOF
Ms type: MS2
Ion mode: POSITIVE
Collision energy: 130
Fragmentation mode: CID
Ionization: ESI
Column name: Zorbax Eclipse Plus C18 2.1 mm x 150 mm, 3.5 um, Agilent
Retention time: 6.754 min
Precursor m/z: 335.1195
Precursor type: [M]+
m/z	relative intensity
63.0222	69
79.9796	112
80.9873	193
89.0367	223
102.0442	87
107.0029	883
113.0371	79
115.0527	406
126.0449	226
131.0031	89
133.0192	96
139.0532	325
150.0464	164
151.0539	516
152.0616	999
156.0117	72
157.0195	608
180.0108	64
181.0198	434
183.0351	181
226.0764	80
257.0512	57
