Mass spectrum: Fenoxycarb; LC-ESI-QTOF; MS2; 30 V
Name: Fenoxycarb
Class: Insecticide
Formula: C17H19NO4
Exact mass: 301.1314
SMILES: CCOC(=O)NCCOc1ccc(Oc2ccccc2)cc1
InChI: InChI=1S/C17H19NO4/c1-2-20-17(19)18-12-13-21-14-8-10-16(11-9-14)22-15-6-4-3-5-7-15/h3-11H,2,12-13H2,1H3,(H,18,19)
Instrument: TripleTOF 5600 SCIEX
Instrument type: LC-ESI-QTOF
Ms type: MS2
Ion mode: POSITIVE
Collision energy: 30
Fragmentation mode: CID
Ionization: ESI
Column name: Zorbax Eclipse Plus C18 2.1 mm x 150 mm, 3.5 um, Agilent
Retention time: 13.067 min
Precursor m/z: 302.1387
Precursor type: [M+H]+
m/z	relative intensity
44.0594	152
70.0326	161
88.0412	654
91.055	22
94.0422	102
107.0484	20
116.07	805
118.0407	34
119.0491	24
120.0561	80
129.0686	27
134.0362	17
141.0694	26
146.0589	14
157.0648	13
163.0617	240
165.0691	44
167.0848	34
169.0639	46
170.0716	10
177.0687	17
183.0795	175
185.0601	160
186.0667	157
187.0745	68
193.0655	33
195.0797	76
198.0672	21
211.0741	307
213.0563	342
238.085	60
256.0957	999
