Mass spectrum: Flecainide; LC-ESI-QTOF; MS2; 110 V
Name: Flecainide
Class: Pharmaceutical
Formula: C17H20F6N2O3
Exact mass: 414.1378
SMILES: FC(F)(F)COc1ccc(OCC(F)(F)F)c(c1)C(=O)NCC2CCCCN2
InChI: InChI=1S/C17H20F6N2O3/c18-16(19,20)9-27-12-4-5-14(28-10-17(21,22)23)13(7-12)15(26)25-8-11-3-1-2-6-24-11/h4-5,7,11,24H,1-3,6,8-10H2,(H,25,26)
Instrument: TripleTOF 5600 SCIEX
Instrument type: LC-ESI-QTOF
Ms type: MS2
Ion mode: POSITIVE
Collision energy: 110
Fragmentation mode: CID
Ionization: ESI
Column name: Zorbax Eclipse Plus C18 2.1 mm x 150 mm, 3.5 um, Agilent
Retention time: 7.983 min
Precursor m/z: 415.1451
Precursor type: [M+H]+
m/z	relative intensity
44.0572	86
51.03	323
53.0081	40
53.0447	31
55.0596	43
56.0543	72
57.0178	15
63.0108	11
64.0338	46
65.042	22
66.0498	13
70.0249	12
70.0674	17
71.0327	14
75.0261	18
77.0411	99
79.0212	999
79.0554	95
81.0718	46
82.0246	13
82.0665	37
83.0124	211
83.0305	63
84.082	81
88.0134	25
92.0267	47
95.0297	31
98.0963	46
99.0248	176
101.0206	58
107.0135	432
113.0194	13
114.0273	123
127.0187	65
127.0349	22
135.0068	70
209.0221	10
