Mass spectrum: Venlafaxine-N-oxide; LC-ESI-QTOF; MS2; 60 V
Name: Venlafaxine-N-oxide
Class: Pharmaceutical; Metabolite; Transformation_product; Transformation_product-Metabolite
Formula: C17H27NO3
Exact mass: 293.1991
SMILES: C[N+](C)(CC(c1ccc(cc1)OC)C2(CCCCC2)O)[O-]
InChI: InChI=1S/C17H27NO3/c1-18(2,20)13-16(17(19)11-5-4-6-12-17)14-7-9-15(21-3)10-8-14/h7-10,16,19H,4-6,11-13H2,1-3H3
Instrument: TripleTOF 5600 SCIEX
Instrument type: LC-ESI-QTOF
Ms type: MS2
Ion mode: POSITIVE
Collision energy: 60
Fragmentation mode: CID
Ionization: ESI
Column name: Zorbax Eclipse Plus C18 2.1 mm x 150 mm, 3.5 um, Agilent
Retention time: 7.246 min
Precursor m/z: 294.2064
Precursor type: [M+H]+
m/z	relative intensity
65.0432	15
77.0417	140
78.0497	89
79.0568	22
81.0724	41
91.0559	134
99.0821	10
103.0546	13
105.0701	11
106.0419	27
121.0645	999
148.0746	12
