Mass spectrum: Carazolol; LC-ESI-QTOF; MS2; 70 V
Name: Carazolol
Class: Pharmaceutical
Formula: C18H22N2O2
Exact mass: 298.1681
SMILES: CC(C)NCC(O)COc1cccc2[nH]c3ccccc3c12
InChI: InChI=1S/C18H22N2O2/c1-12(2)19-10-13(21)11-22-17-9-5-8-16-18(17)14-6-3-4-7-15(14)20-16/h3-9,12-13,19-21H,10-11H2,1-2H3
Instrument: TripleTOF 5600 SCIEX
Instrument type: LC-ESI-QTOF
Ms type: MS2
Ion mode: POSITIVE
Collision energy: 70
Fragmentation mode: CID
Ionization: ESI
Column name: Zorbax Eclipse Plus C18 2.1 mm x 150 mm, 3.5 um, Agilent
Retention time: 6.882 min
Precursor m/z: 299.1754
Precursor type: [M+H]+
m/z	relative intensity
44.058	10
56.0552	343
58.0703	69
72.0839	70
74.0631	147
77.0416	17
89.0394	24
100.1115	12
103.0542	11
113.0373	11
115.0543	105
116.0504	22
116.1073	50
117.0575	35
126.047	11
127.0542	119
128.0619	323
129.0702	344
130.0648	41
139.0548	559
140.0502	174
141.0691	66
151.0553	50
152.0617	149
153.0609	34
154.0652	280
155.0731	95
156.0811	129
165.0705	137
166.066	498
167.0733	999
168.0807	175
176.062	32
177.0651	23
178.0656	94
179.0732	100
180.0805	51
182.0595	12
183.068	86
184.0763	39
190.0652	20
191.0736	171
192.0813	306
193.0882	309
194.0967	84
203.0732	44
204.0816	63
220.0766	28
