Mass spectrum: Hydroxy-DEET; LC-ESI-QTOF; MS2; 70 V
Name: Hydroxy-DEET
Class: Metabolite; Biocide; Personal_care_product; Transformation_product-Metabolite
Formula: C12H17NO2
Exact mass: 207.1259
SMILES: CCN(CC)C(=O)C1=CC(=CC=C1)CO
InChI: InChI=1S/C12H17NO2/c1-3-13(4-2)12(15)11-7-5-6-10(8-11)9-14/h5-8,14H,3-4,9H2,1-2H3
Instrument: TripleTOF 5600 SCIEX
Instrument type: LC-ESI-QTOF
Ms type: MS2
Ion mode: POSITIVE
Collision energy: 70
Fragmentation mode: CID
Ionization: ESI
Column name: Zorbax Eclipse Plus C18 2.1 mm x 150 mm, 3.5 um, Agilent
Retention time: 6.973 min
Precursor m/z: 208.1332
Precursor type: [M+H]+
m/z	relative intensity
44.0261	55
50.0246	24
61.0149	49
62.0228	132
63.0311	620
65.0455	72
77.0443	398
79.06	19
89.0429	999
90.0502	10
91.0586	53
105.0374	11
