Mass spectrum: 2,2,4-Trimethyl-1,2-dihydroquinoline; LC-ESI-QTOF; MS2; 40 V
Name: 2,2,4-Trimethyl-1,2-dihydroquinoline
Class: Industrial_process
Formula: C12H15N
Exact mass: 173.1204
SMILES: CC1=CC(NC2=CC=CC=C12)(C)C
InChI: InChI=1S/C12H15N/c1-9-8-12(2,3)13-11-7-5-4-6-10(9)11/h4-8,13H,1-3H3
Instrument: TripleTOF 6600 SCIEX
Instrument type: LC-ESI-QTOF
Ms type: MS2
Ion mode: POSITIVE
Collision energy: 40
Fragmentation mode: CID
Ionization: ESI
Column name: Zorbax Eclipse Plus C18 2.1 mm x 150 mm, 3.5 um, Agilent
Retention time: 12.497 min
Precursor m/z: 174.1277
Precursor type: [M+H]+
m/z	relative intensity
39.0224	26
41.038	36
43.0535	17
51.0223	15
53.0376	10
57.0687	14
65.0378	84
77.0376	178
79.0531	48
89.0374	18
90.045	39
91.0535	635
93.056	15
103.0529	50
105.0683	25
106.0639	230
115.053	98
117.0568	531
118.0641	368
120.0787	14
127.0532	85
128.0485	15
128.0586	16
130.0641	564
131.0715	108
132.0797	420
141.0682	34
142.0757	30
143.0719	142
144.0798	999
145.0873	164
146.0945	17
155.0589	15
157.0874	16
158.0953	432
159.1031	173
174.1267	187
