Mass spectrum: Testosterone; LC-ESI-QTOF; MS2; 110 V
Name: Testosterone
Class: Pharmaceutical
Formula: C19H28O2
Exact mass: 288.2089
SMILES: C[C@]12CC[C@H]3[C@@H](CCC4=CC(=O)CC[C@]34C)[C@@H]1CC[C@@H]2O
InChI: InChI=1S/C19H28O2/c1-18-9-7-13(20)11-12(18)3-4-14-15-5-6-17(21)19(15,2)10-8-16(14)18/h11,14-17,21H,3-10H2,1-2H3/t14-,15-,16-,17-,18-,19-/m0/s1
Instrument: TripleTOF 5600 SCIEX
Instrument type: LC-ESI-QTOF
Ms type: MS2
Ion mode: POSITIVE
Collision energy: 110
Fragmentation mode: CID
Ionization: ESI
Column name: Zorbax Eclipse Plus C18 2.1 mm x 150 mm, 3.5 um, Agilent
Retention time: 10.968 min
Precursor m/z: 289.2162
Precursor type: [M+H]+
m/z	relative intensity
43.0284	130
43.0537	21
55.026	69
57.0412	17
65.0443	209
66.0535	30
67.0601	109
69.0758	26
77.0439	999
78.0554	39
79.0588	327
81.0392	26
81.0733	69
82.0439	17
83.0533	21
89.0428	26
91.0579	331
94.0525	17
97.0675	152
103.0573	39
105.0736	39
107.0528	47
109.0694	39
115.0561	170
127.0585	43
128.065	109
129.076	26
141.0742	26
152.0663	30
