Mass spectrum: Iomeprol; LC-ESI-QTOF; MS2; 150 V
Name: Iomeprol
Class: Pharmaceutical
Formula: C17H22I3N3O8
Exact mass: 776.8541
SMILES: CN(C(=O)CO)c1c(I)c(C(=O)NCC(O)CO)c(I)c(C(=O)NCC(O)CO)c1I
InChI: InChI=1S/C17H22I3N3O8/c1-23(9(29)6-26)15-13(19)10(16(30)21-2-7(27)4-24)12(18)11(14(15)20)17(31)22-3-8(28)5-25/h7-8,24-28H,2-6H2,1H3,(H,21,30)(H,22,31)
Instrument: TripleTOF 5600 SCIEX
Instrument type: LC-ESI-QTOF
Ms type: MS2
Ion mode: POSITIVE
Collision energy: 150
Fragmentation mode: CID
Ionization: ESI
Column name: Zorbax Eclipse Plus C18 2.1 mm x 150 mm, 3.5 um, Agilent
Retention time: 4.596 min
Precursor m/z: 777.8614
Precursor type: [M+H]+
m/z	relative intensity
77.0396	98
90.0351	196
91.0427	327
92.0504	114
102.0093	81
102.0318	114
103.0424	196
104.049	245
106.0299	98
116.0467	114
117.055	81
118.0276	343
119.0359	393
120.0447	114
130.0287	65
131.0363	491
132.0442	360
146.0225	507
148.0369	114
159.0564	81
160.039	180
161.0464	999
162.0546	114
174.0457	65
175.0506	81
177.0423	180
177.9139	180
187.0516	81
188.9182	327
191.9348	81
204.9141	98
217.9454	180
231.9266	98
245.9512	65
257.938	556
287.9484	851
