Mass spectrum: Bicalutamide; LC-ESI-QTOF; MS2; 120 V
Name: Bicalutamide
Class: Pharmaceutical
Formula: C18H14F4N2O4S
Exact mass: 430.061
SMILES: CC(O)(C[S](=O)(=O)c1ccc(F)cc1)C(=O)Nc2ccc(C#N)c(c2)C(F)(F)F
InChI: InChI=1S/C18H14F4N2O4S/c1-17(26,10-29(27,28)14-6-3-12(19)4-7-14)16(25)24-13-5-2-11(9-23)15(8-13)18(20,21)22/h2-8,26H,10H2,1H3,(H,24,25)
Instrument: TripleTOF 5600 SCIEX
Instrument type: LC-ESI-QTOF
Ms type: MS2
Ion mode: NEGATIVE
Collision energy: 120
Fragmentation mode: CID
Ionization: ESI
Column name: Zorbax Eclipse Plus C18 2.1 mm x 150 mm, 3.5 um, Agilent
Retention time: 11.644 min
Precursor m/z: 429.0538
Precursor type: [M-H]-
m/z	relative intensity
42.0015	79
63.9637	924
68.9959	59
74.0037	130
78.9863	278
88.0187	63
95.0304	94
98.0034	427
115.03	387
118.0097	269
125.0146	128
138.0159	151
143.0047	87
144.0125	110
145.0204	257
158.0222	240
163.012	73
164.0192	175
185.033	999
