Mass spectrum: Dibenzyldimethyl ammonium; LC-ESI-QTOF; MS2; 80 V
Name: Dibenzyldimethyl ammonium
Class: Industrial_process
Formula: [C16H20N]+
Exact mass: 226.159
SMILES: C[N+](C)(Cc1ccccc1)Cc2ccccc2
InChI: InChI=1S/C16H20N/c1-17(2,13-15-9-5-3-6-10-15)14-16-11-7-4-8-12-16/h3-12H,13-14H2,1-2H3/q+1
Instrument: TripleTOF 5600 SCIEX
Instrument type: LC-ESI-QTOF
Ms type: MS2
Ion mode: POSITIVE
Collision energy: 80
Fragmentation mode: CID
Ionization: ESI
Column name: Zorbax Eclipse Plus C18 2.1 mm x 150 mm, 3.5 um, Agilent
Retention time: 6.134 min
Precursor m/z: 226.159
Precursor type: [M]+
m/z	relative intensity
65.0434	605
91.0558	999
