Mass spectrum: Trospium; LC-ESI-QTOF; MS2; 150 V
Name: Trospium
Class: Pharmaceutical
Formula: [C25H30NO3]+
Exact mass: 392.222
SMILES: C1CC[N+]2(C1)C3CCC2CC(C3)OC(=O)C(C4=CC=CC=C4)(C5=CC=CC=C5)O
InChI: InChI=1S/C25H30NO3/c27-24(25(28,19-9-3-1-4-10-19)20-11-5-2-6-12-20)29-23-17-21-13-14-22(18-23)26(21)15-7-8-16-26/h1-6,9-12,21-23,28H,7-8,13-18H2/q+1
Instrument: TripleTOF 6600 SCIEX
Instrument type: LC-ESI-QTOF
Ms type: MS2
Ion mode: POSITIVE
Collision energy: 150
Fragmentation mode: CID
Ionization: ESI
Column name: Zorbax Eclipse Plus C18 2.1 mm x 150 mm, 3.5 um, Agilent
Retention time: 7.411 min
Precursor m/z: 392.222
Precursor type: [M]+
m/z	relative intensity
39.022	421
41.0378	359
42.0328	93
50.0144	202
51.0215	811
53.0371	109
54.032	608
55.0529	124
56.0476	124
65.0363	390
67.0523	156
68.0468	296
69.0549	374
70.0628	156
72.0782	62
77.0355	999
79.0507	187
80.046	343
82.0613	78
91.0511	312
93.0527	78
94.0608	280
96.0764	624
97.0859	62
120.0774	109
