Mass spectrum: N-Isopropyl-N'-phenyl-p-phenylenediamine; LC-ESI-QTOF; MS2; 60 V
Name: N-Isopropyl-N'-phenyl-p-phenylenediamine
Class: Industrial_process
Formula: C15H18N2
Exact mass: 226.147
SMILES: CC(C)Nc1ccc(cc1)Nc2ccccc2
InChI: InChI=1S/C15H18N2/c1-12(2)16-14-8-10-15(11-9-14)17-13-6-4-3-5-7-13/h3-12,16-17H,1-2H3
Instrument: TripleTOF 6600 SCIEX
Instrument type: LC-ESI-QTOF
Ms type: MS2
Ion mode: POSITIVE
Collision energy: 60
Fragmentation mode: CID
Ionization: ESI
Column name: Zorbax Eclipse Plus C18 2.1 mm x 150 mm, 3.5 um, Agilent
Retention time: 7.24 min
Precursor m/z: 227.1543
Precursor type: [M+H]+
m/z	relative intensity
53.038	27
63.0217	16
65.0375	22
66.0455	42
77.0372	31
79.0403	18
80.0488	627
81.0559	37
90.0321	23
91.041	37
92.0483	16
93.0557	80
105.0425	19
106.0515	23
107.0594	999
115.0527	26
117.0558	12
118.0512	87
127.0517	10
128.0601	15
129.068	26
130.064	40
139.0525	56
140.049	42
143.0704	28
154.0641	13
156.0785	75
166.0635	215
167.0708	161
168.0726	65
169.0781	31
181.0747	32
182.0818	113
183.0896	152
184.0979	109
