Mass spectrum: Hostavin VSU P; LC-ESI-QTOF; MS2; 100 V
Name: Hostavin VSU P
Formula: C18H20N2O3
Exact mass: 312.1474
InChI: InChI=1S/C18H20N2O3/c1-3-13-9-5-6-10-14(13)19-17(21)18(22)20-15-11-7-8-12-16(15)23-4-2/h5-12H,3-4H2,1-2H3,(H,19,21)(H,20,22)
Instrument: TripleTOF 5600 SCIEX
Instrument type: LC-ESI-QTOF
Ms type: CID
Ion mode: POSITIVE
Collision energy: 100
Ionization: ESI
Column name: Zorbax Eclipse Plus C18 2.1 mm x 150 mm, 3.5 um, Agilent
Retention time: 15.402 min
Precursor m/z: 313.1547
Precursor type: [M+H]+
m/z	relative intensity
39.0222	94
51.0228	161
65.0387	458
66.0459	67
77.0381	999
79.0525	121
80.0489	809
91.0543	202
92.0488	94
93.0578	161
102.0471	54
103.0542	283
108.0434	108
109.0525	216
117.0583	80
118.0661	108
119.0727	54
120.0798	67
130.0656	297
136.0373	134
