Mass spectrum: Losartan carboxylic acid; LC-ESI-QTOF; MS2; 110 V
Name: Losartan carboxylic acid
Class: Pharmaceutical; Transformation_product-Metabolite
Formula: C22H21ClN6O2
Exact mass: 436.1415
SMILES: CCCCc1nc(Cl)c(n1Cc2ccc(cc2)c3ccccc3c4n[nH]nn4)C(O)=O
InChI: InChI=1S/C22H21ClN6O2/c1-2-3-8-18-24-20(23)19(22(30)31)29(18)13-14-9-11-15(12-10-14)16-6-4-5-7-17(16)21-25-27-28-26-21/h4-7,9-12H,2-3,8,13H2,1H3,(H,30,31)(H,25,26,27,28)
Instrument: TripleTOF 5600 SCIEX
Instrument type: LC-ESI-QTOF
Ms type: MS2
Ion mode: POSITIVE
Collision energy: 110
Fragmentation mode: CID
Ionization: ESI
Column name: Zorbax Eclipse Plus C18 2.1 mm x 150 mm, 3.5 um, Agilent
Retention time: 10.786 min
Precursor m/z: 437.1487
Precursor type: [M+H]+
m/z	relative intensity
51.0272	21
75.0264	11
77.0409	86
80.0513	11
89.0396	22
101.038	14
102.0332	11
113.0373	46
114.0467	22
115.0542	59
125.0385	26
126.0461	41
127.0541	125
128.0475	12
128.0615	44
137.0375	24
138.0467	51
139.0545	79
140.0495	146
141.0574	11
149.0396	11
150.0461	108
151.0544	537
152.0621	999
153.0679	123
154.0639	17
162.0469	43
163.054	343
164.0511	344
165.067	154
166.0649	34
168.0678	11
176.0618	232
177.0644	229
178.0696	344
179.0709	75
180.0818	48
188.0503	53
189.0567	82
190.0653	371
191.0608	55
192.0682	61
204.0672	10
205.0758	329
206.084	10
