Mass spectrum: 4-Desmethyl-trimethoprim; LC-ESI-QTOF; MS2; 90 V
Name: 4-Desmethyl-trimethoprim
Class: Pharmaceutical
Formula: C13H16N4O3
Exact mass: 276.1222
SMILES: COC1=CC(=CC(=C1O)OC)CC2=CN=C(N=C2N)N
InChI: InChI=1S/C13H16N4O3/c1-19-9-4-7(5-10(20-2)11(9)18)3-8-6-16-13(15)17-12(8)14/h4-6,18H,3H2,1-2H3,(H4,14,15,16,17)
Instrument: TripleTOF 5600 SCIEX
Instrument type: LC-ESI-QTOF
Ms type: MS2
Ion mode: POSITIVE
Collision energy: 90
Fragmentation mode: CID
Ionization: ESI
Column name: Zorbax Eclipse Plus C18 2.1 mm x 150 mm, 3.5 um, Agilent
Retention time: 4.783 min
Precursor m/z: 277.1295
Precursor type: [M+H]+
m/z	relative intensity
41.0398	51
43.0369	172
51.028	215
52.0264	129
53.0087	43
54.0398	533
63.0388	43
65.0414	249
66.0508	51
67.0464	60
68.0436	120
69.0527	51
74.0195	43
75.027	146
76.0215	43
76.0328	51
77.0282	60
77.0418	895
77.063	51
78.0364	111
78.0473	34
79.0311	103
79.0471	137
80.0521	86
81.0471	999
81.0742	43
82.0512	51
83.0518	77
89.0399	421
90.0351	43
90.0449	68
91.0553	111
92.049	129
93.0584	60
94.0536	189
94.0652	172
96.0566	86
101.0382	163
102.0345	198
102.046	60
103.0317	94
103.0541	103
104.0375	146
104.0492	189
105.045	111
105.0545	68
106.04	86
106.0513	86
106.0653	60
107.0597	68
108.0515	51
109.0507	103
114.0344	120
115.0405	51
116.0494	258
117.0541	163
118.0501	34
118.0639	86
119.0587	111
119.0718	34
120.0391	43
120.055	258
121.025	43
123.046	51
123.0656	86
127.0407	43
128.05	180
129.0438	137
130.0376	103
131.0601	137
132.0428	34
132.0554	51
132.0657	34
141.0437	60
142.0514	68
143.0604	86
144.0512	103
145.0713	51
146.0665	51
147.0645	533
148.0393	34
148.0746	155
149.0268	43
153.0432	43
156.0526	43
161.08	94
173.0798	60
185.0829	34
