Mass spectrum: Hydrocortisone; LC-ESI-QTOF; MS2; 130 V
Name: Hydrocortisone
Class: Pharmaceutical
Formula: C21H30O5
Exact mass: 362.2093
SMILES: C[C@]12CCC(=O)C=C1CC[C@H]3[C@@H]4CC[C@](O)(C(=O)CO)[C@@]4(C)C[C@H](O)[C@H]23
InChI: InChI=1S/C21H30O5/c1-19-7-5-13(23)9-12(19)3-4-14-15-6-8-21(26,17(25)11-22)20(15,2)10-16(24)18(14)19/h9,14-16,18,22,24,26H,3-8,10-11H2,1-2H3/t14-,15-,16-,18+,19-,20-,21-/m0/s1
Instrument: TripleTOF 5600 SCIEX
Instrument type: LC-ESI-QTOF
Ms type: MS2
Ion mode: POSITIVE
Collision energy: 130
Fragmentation mode: CID
Ionization: ESI
Column name: Zorbax Eclipse Plus C18 2.1 mm x 150 mm, 3.5 um, Agilent
Retention time: 8.323 min
Precursor m/z: 363.2166
Precursor type: [M+H]+
m/z	relative intensity
43.0253	68
55.0233	25
55.0591	29
65.0428	293
66.0502	25
67.0592	55
75.0256	25
76.0343	17
77.0415	999
77.0792	25
78.0488	93
79.0571	199
81.0355	21
81.0735	38
89.0401	89
91.0555	722
93.0712	29
94.0411	21
97.0643	29
101.0376	25
102.0469	127
103.0538	114
105.0707	72
107.0469	25
109.0648	21
115.0542	901
116.0608	42
117.0705	68
121.0621	21
126.0456	85
127.0538	267
127.0775	21
128.0616	688
129.069	89
131.0483	17
133.0628	34
139.0522	55
141.0683	246
142.0794	21
150.0443	29
151.0543	140
152.0602	378
153.069	93
163.0535	34
164.0616	68
165.0683	297
166.0764	25
167.0838	17
176.0609	51
177.071	21
177.0867	17
178.0757	97
178.0895	25
189.0696	93
191.086	21
202.0738	46
