Mass spectrum: Losartan; LC-ESI-QTOF; MS2; 120 V
Name: Losartan
Class: Pharmaceutical
Formula: C22H23ClN6O
Exact mass: 422.1622
SMILES: CCCCc1nc(c(n1Cc2ccc(cc2)c3ccccc3c4n[nH]nn4)CO)Cl
InChI: InChI=1S/C22H23ClN6O/c1-2-3-8-20-24-21(23)19(14-30)29(20)13-15-9-11-16(12-10-15)17-6-4-5-7-18(17)22-25-27-28-26-22/h4-7,9-12,30H,2-3,8,13-14H2,1H3,(H,25,26,27,28)
Instrument: TripleTOF 5600 SCIEX
Instrument type: LC-ESI-QTOF
Ms type: MS2
Ion mode: POSITIVE
Collision energy: 120
Fragmentation mode: CID
Ionization: ESI
Column name: Zorbax Eclipse Plus C18 2.1 mm x 150 mm, 3.5 um, Agilent
Retention time: 9.819 min
Precursor m/z: 423.1695
Precursor type: [M+H]+
m/z	relative intensity
51.0286	36
74.0176	13
75.025	45
77.0409	191
78.0362	11
80.0505	21
86.0171	13
87.0242	18
88.0321	11
89.0038	10
89.0405	66
98.0164	14
99.0233	23
101.0391	49
102.0343	31
102.046	35
113.039	102
114.0349	24
114.0456	18
115.0543	147
116.0512	15
125.0381	77
126.0476	78
126.0633	11
127.0542	164
128.0523	72
129.0477	21
137.0386	86
138.0458	70
139.0544	236
140.0497	231
141.0223	10
142.0291	14
149.0383	55
150.0465	400
151.0547	999
152.0621	963
153.0568	124
154.0652	17
161.0385	28
162.047	93
163.0541	439
164.0549	497
165.0696	410
166.0646	64
167.0716	13
175.0459	26
176.0558	108
177.0573	320
178.0651	455
179.0719	111
180.0808	31
187.0528	18
188.0495	160
189.0574	76
190.0652	241
191.0597	60
192.0676	28
203.0596	32
204.0681	22
205.0755	361
212.0493	11
214.0647	19
