Mass spectrum: Octhilinone; LC-ESI-QTOF; MS2; 140 V
Name: Octhilinone
Class: Fungicide; Antimicrobial; Biocide
Formula: C11H19NOS
Exact mass: 213.1187
SMILES: CCCCCCCCN1C(=O)C=CS1
InChI: InChI=1S/C11H19NOS/c1-2-3-4-5-6-7-9-12-11(13)8-10-14-12/h8,10H,2-7,9H2,1H3
Instrument: TripleTOF 6600 SCIEX
Instrument type: LC-ESI-QTOF
Ms type: MS2
Ion mode: POSITIVE
Collision energy: 140
Fragmentation mode: CID
Ionization: ESI
Column name: Zorbax Eclipse Plus C18 2.1 mm x 150 mm, 3.5 um, Agilent
Retention time: 11.855 min
Precursor m/z: 214.126
Precursor type: [M+H]+
m/z	relative intensity
31.9719	67
35.9995	141
37.0078	560
38.0033	175
38.0155	472
39.0234	999
40.0189	33
41.0383	87
43.9718	40
44.0134	216
44.9796	337
45.9749	134
46.9827	87
47.9903	40
52.0067	40
53.0027	182
53.0137	74
55.9716	40
56.9795	742
57.9872	418
58.9949	60
