Mass spectrum: Sitagliptin; LC-ESI-QTOF; MS2; 130 V
Name: Sitagliptin
Class: Pharmaceutical
Formula: C16H15F6N5O
Exact mass: 407.1181
SMILES: c1c(c(cc(c1F)F)F)C[C@H](CC(=O)N2CCn3c(nnc3C(F)(F)F)C2)N
InChI: InChI=1S/C16H15F6N5O/c17-10-6-12(19)11(18)4-8(10)3-9(23)5-14(28)26-1-2-27-13(7-26)24-25-15(27)16(20,21)22/h4,6,9H,1-3,5,7,23H2/t9-/m1/s1
Instrument: TripleTOF 5600 SCIEX
Instrument type: LC-ESI-QTOF
Ms type: MS2
Ion mode: POSITIVE
Collision energy: 130
Fragmentation mode: CID
Ionization: ESI
Column name: Zorbax Eclipse Plus C18 2.1 mm x 150 mm, 3.5 um, Agilent
Retention time: 6.571 min
Precursor m/z: 408.1254
Precursor type: [M+H]+
m/z	relative intensity
43.0259	13
51.0103	29
51.0286	17
56.0554	34
57.0202	53
68.9988	27
74.0203	17
75.0074	96
75.0254	37
77.0404	132
81.0158	94
83.0325	21
85.0081	22
86.0173	73
87.0248	259
91.012	67
95.0305	29
96.0382	11
98.0147	40
99.0053	14
101.0208	593
105.0142	13
107.0297	480
111.0052	14
117.0133	57
118.0214	37
119.0115	32
125.0196	199
126.0276	75
127.0358	999
131.029	21
133.0318	14
134.0408	26
135.048	19
137.0202	78
145.026	148
150.0271	9
151.0354	63
153.0389	76
154.0467	16
169.0235	19
