Mass spectrum: Bis(2,2,6,6-tetramethyl-4-piperidyl)sebacate; LC-ESI-QTOF; MS2; 50 V
Name: Bis(2,2,6,6-tetramethyl-4-piperidyl)sebacate
Class: Industrial_process
Formula: C28H52N2O4
Exact mass: 480.3927
SMILES: CC1(CC(CC(N1)(C)C)OC(=O)CCCCCCCCC(=O)OC2CC(NC(C2)(C)C)(C)C)C
InChI: InChI=1S/C28H52N2O4/c1-25(2)17-21(18-26(3,4)29-25)33-23(31)15-13-11-9-10-12-14-16-24(32)34-22-19-27(5,6)30-28(7,8)20-22/h21-22,29-30H,9-20H2,1-8H3
Instrument: TripleTOF 5600 SCIEX
Instrument type: LC-ESI-QTOF
Ms type: MS2
Ion mode: POSITIVE
Collision energy: 50
Fragmentation mode: CID
Ionization: ESI
Column name: Zorbax Eclipse Plus C18 2.1 mm x 150 mm, 3.5 um, Agilent
Retention time: 6.572 min
Precursor m/z: 481.4
Precursor type: [M+H]+
m/z	relative intensity
58.0744	999
81.074	297
84.0853	237
95.089	71
123.1179	547
140.1446	523
342.2656	309
481.3939	83
481.4251	71
