Mass spectrum: Myclobutanil; LC-ESI-QTOF; MS2; 50 V
Name: Myclobutanil
Class: Fungicide
Formula: C15H17ClN4
Exact mass: 288.1142
SMILES: CCCCC(Cn1cncn1)(C#N)c2ccc(Cl)cc2
InChI: InChI=1S/C15H17ClN4/c1-2-3-8-15(9-17,10-20-12-18-11-19-20)13-4-6-14(16)7-5-13/h4-7,11-12H,2-3,8,10H2,1H3
Instrument: TripleTOF 6600 SCIEX
Instrument type: LC-ESI-QTOF
Ms type: MS2
Ion mode: POSITIVE
Collision energy: 50
Fragmentation mode: CID
Ionization: ESI
Column name: Zorbax Eclipse Plus C18 2.1 mm x 150 mm, 3.5 um, Agilent
Retention time: 12.025 min
Precursor m/z: 289.1215
Precursor type: [M+H]+
m/z	relative intensity
43.0291	21
70.0405	999
82.0395	14
89.0385	65
90.0465	15
98.9999	25
115.0536	47
116.0618	58
125.0157	911
128.0495	29
130.065	24
137.0148	14
143.0758	15
149.0144	13
150.0103	26
151.0302	61
153.0688	13
164.0257	30
