Mass spectrum: Amisulbrom; LC-ESI-QTOF; MS2; 90 V
Name: Amisulbrom
Class: Fungicide
Formula: C13H13BrFN5O4S2
Exact mass: 464.9576
SMILES: CC1=C(C2=C(N1S(=O)(=O)C3=NN(C=N3)S(=O)(=O)N(C)C)C=C(C=C2)F)Br
InChI: InChI=1S/C13H13BrFN5O4S2/c1-8-12(14)10-5-4-9(15)6-11(10)20(8)25(21,22)13-16-7-19(17-13)26(23,24)18(2)3/h4-7H,1-3H3
Instrument: TripleTOF 6600 SCIEX
Instrument type: LC-ESI-QTOF
Ms type: MS2
Ion mode: POSITIVE
Collision energy: 90
Fragmentation mode: CID
Ionization: ESI
Column name: Zorbax Eclipse Plus C18 2.1 mm x 150 mm, 3.5 um, Agilent
Retention time: 14.781 min
Precursor m/z: 465.9649
Precursor type: [M+H]+
m/z	relative intensity
42.0322	17
44.0492	42
74.014	9
75.021	42
77.0381	14
95.0287	12
96.0368	29
99.0218	12
101.0368	250
107.0274	24
108.0088	24
119.0283	19
120.0362	203
121.0328	12
121.045	34
126.0311	42
127.0397	14
128.0486	228
129.0447	74
132.0317	12
133.0436	128
134.0379	19
140.0502	32
146.0384	228
147.0462	644
148.0549	964
154.0378	42
158.0396	17
159.0419	12
159.0535	12
160.0506	14
161.0493	9
186.0514	14
187.0557	19
188.0625	14
225.9637	999
226.9744	17
