Mass spectrum: Diflufenican; LC-ESI-QTOF; MS2; 130 V
Name: Diflufenican
Class: Herbicide
Formula: C19H11F5N2O2
Exact mass: 394.0741
SMILES: C1=CC(=CC(=C1)OC2=C(C=CC=N2)C(=O)NC3=C(C=C(C=C3)F)F)C(F)(F)F
InChI: InChI=1S/C19H11F5N2O2/c20-12-6-7-16(15(21)10-12)26-17(27)14-5-2-8-25-18(14)28-13-4-1-3-11(9-13)19(22,23)24/h1-10H,(H,26,27)
Instrument: TripleTOF 6600 SCIEX
Instrument type: LC-ESI-QTOF
Ms type: MS2
Ion mode: POSITIVE
Collision energy: 130
Fragmentation mode: CID
Ionization: ESI
Column name: Zorbax Eclipse Plus C18 2.1 mm x 150 mm, 3.5 um, Agilent
Retention time: 14.853 min
Precursor m/z: 395.0814
Precursor type: [M+H]+
m/z	relative intensity
37.0072	74
39.023	164
50.0155	164
51.0049	59
51.0233	253
57.0139	193
61.008	149
62.0154	253
63.0232	536
68.9943	149
73.0086	74
74.0151	611
75.0046	298
75.0228	999
76.0173	89
78.0339	164
81.0149	208
83.0292	134
85.0072	89
86.0146	134
87.0227	313
88.0172	193
88.0315	477
89.0385	164
93.0121	104
94.0279	89
95.0293	432
98.0154	223
99.0037	208
99.0238	164
100.0181	119
101.0189	119
101.038	74
105.0127	134
106.0225	119
107.029	253
108.0222	89
110.0136	59
111.0207	134
112.0168	149
113.0387	924
114.0337	223
114.0465	313
115.0534	74
117.0115	164
119.0099	59
122.0157	521
123.0108	119
123.0227	596
124.0175	298
125.019	372
131.0288	283
132.0228	89
132.0373	119
133.0436	492
138.0304	164
140.0489	715
143.0282	313
144.0357	74
145.0249	223
147.0102	104
148.0186	74
149.0185	149
150.0305	149
151.0338	119
158.0417	149
162.0277	238
165.0441	59
168.043	59
176.0304	193
182.0323	178
