Mass spectrum: Fluquinconazole; LC-ESI-QTOF; MS2; 90 V
Name: Fluquinconazole
Class: Fungicide
Formula: C16H8Cl2FN5O
Exact mass: 375.009
SMILES: C1=CC2=C(C=C1F)C(=O)N(C(=N2)N3C=NC=N3)C4=C(C=C(C=C4)Cl)Cl
InChI: InChI=1S/C16H8Cl2FN5O/c17-9-1-4-14(12(18)5-9)24-15(25)11-6-10(19)2-3-13(11)22-16(24)23-8-20-7-21-23/h1-8H
Instrument: TripleTOF 6600 SCIEX
Instrument type: LC-ESI-QTOF
Ms type: MS2
Ion mode: POSITIVE
Collision energy: 90
Fragmentation mode: CID
Ionization: ESI
Column name: Zorbax Eclipse Plus C18 2.1 mm x 150 mm, 3.5 um, Agilent
Retention time: 12.549 min
Precursor m/z: 376.0163
Precursor type: [M+H]+
m/z	relative intensity
48.9829	19
57.0127	144
63.0224	11
64.0176	25
72.9826	59
74.0144	36
81.0118	128
82.0078	277
88.017	17
94.0202	11
96.9824	39
97.9778	17
100.0164	48
108.0233	999
108.9828	79
123.994	167
128.9889	20
132.9591	20
135.9942	17
155.0284	11
158.0388	17
163.9994	16
170.9625	25
181.0344	32
182.0391	123
183.0329	11
189.0446	12
207.0348	13
208.0437	15
209.0504	93
215.9996	12
224.0611	12
244.0161	16
