Mass spectrum: 4-Desmethyl-trimethoprim; LC-ESI-QTOF; MS2; 130 V
Name: 4-Desmethyl-trimethoprim
Class: Pharmaceutical
Formula: C13H16N4O3
Exact mass: 276.1222
SMILES: COC1=CC(=CC(=C1O)OC)CC2=CN=C(N=C2N)N
InChI: InChI=1S/C13H16N4O3/c1-19-9-4-7(5-10(20-2)11(9)18)3-8-6-16-13(15)17-12(8)14/h4-6,18H,3H2,1-2H3,(H4,14,15,16,17)
Instrument: TripleTOF 5600 SCIEX
Instrument type: LC-ESI-QTOF
Ms type: MS2
Ion mode: POSITIVE
Collision energy: 130
Fragmentation mode: CID
Ionization: ESI
Column name: Zorbax Eclipse Plus C18 2.1 mm x 150 mm, 3.5 um, Agilent
Retention time: 4.783 min
Precursor m/z: 277.1295
Precursor type: [M+H]+
m/z	relative intensity
41.0344	194
52.0225	471
52.0369	166
53.0073	138
54.038	499
54.0503	222
65.0433	277
67.0456	111
67.0553	138
74.0168	527
75.0136	111
75.0247	582
76.0201	277
76.0319	138
77.0424	999
77.0636	166
78.0382	333
79.0451	138
80.0524	138
81.0457	111
88.0184	138
89.0396	277
90.035	111
91.0457	166
93.055	111
103.0292	194
104.0481	111
114.0355	111
120.0553	222
