Mass spectrum: Octadecyl-trimethylammonium; LC-ESI-QTOF; MS2; 10 V
Name: Octadecyl-trimethylammonium
Class: Industrial_process
Formula: [C21H46N]+
Exact mass: 312.3625
SMILES: CCCCCCCCCCCCCCCCCC[N+](C)(C)C
InChI: InChI=1S/C21H46N/c1-5-6-7-8-9-10-11-12-13-14-15-16-17-18-19-20-21-22(2,3)4/h5-21H2,1-4H3/q+1
Instrument: TripleTOF 5600 SCIEX
Instrument type: LC-ESI-QTOF
Ms type: MS2
Ion mode: POSITIVE
Collision energy: 10
Fragmentation mode: CID
Ionization: ESI
Column name: Zorbax Eclipse Plus C18 2.1 mm x 150 mm, 3.5 um, Agilent
Retention time: 13.997 min
Precursor m/z: 312.3625
Precursor type: [M]+
m/z	relative intensity
312.3622	999
