Mass spectrum: Topramezone; LC-ESI-QTOF; MS2; 40 V
Name: Topramezone
Class: Herbicide
Formula: C16H17N3O5S
Exact mass: 363.0889
SMILES: CC1=C(C=CC(=C1C2=NOCC2)S(=O)(=O)C)C(=O)C3=CNN(C3=O)C
InChI: InChI=1S/C16H17N3O5S/c1-9-10(15(20)11-8-17-19(2)16(11)21)4-5-13(25(3,22)23)14(9)12-6-7-24-18-12/h4-5,8,17H,6-7H2,1-3H3
Instrument: TripleTOF 6600 SCIEX
Instrument type: LC-ESI-QTOF
Ms type: MS2
Ion mode: NEGATIVE
Collision energy: 40
Fragmentation mode: CID
Ionization: ESI
Column name: Zorbax Eclipse Plus C18 2.1 mm x 150 mm, 3.5 um, Agilent
Retention time: 6.915 min
Precursor m/z: 362.0816
Precursor type: [M-H]-
m/z	relative intensity
63.9598	17
78.9836	40
97.0394	72
115.0421	28
116.0517	22
124.0259	11
129.0574	13
130.0645	133
131.0363	45
158.0595	13
163.0218	15
179.014	98
180.0238	105
194.0277	324
194.9985	17
210.0238	55
214.0773	20
226.0641	11
238.0602	53
239.0687	383
240.0784	91
242.0078	12
253.0846	64
254.0589	130
254.095	17
255.0632	130
260.0241	16
282.0891	30
289.0241	12
317.0474	10
318.0543	426
332.0686	20
334.0489	999
362.0824	62
