Mass spectrum: Iotalamic acid; LC-ESI-QTOF; MS2; 10 V
Name: Iotalamic acid
Class: Pharmaceutical
Formula: C11H9I3N2O4
Exact mass: 613.7697
SMILES: CNC(c1c(I)c(C(O)=O)c(I)c(NC(C)=O)c1I)=O
InChI: InChI=1S/C11H9I3N2O4/c1-3(17)16-9-7(13)4(10(18)15-2)6(12)5(8(9)14)11(19)20/h1-2H3,(H,15,18)(H,16,17)(H,19,20)
Instrument: TripleTOF 5600 SCIEX
Instrument type: LC-ESI-QTOF
Ms type: MS2
Ion mode: POSITIVE
Collision energy: 10
Fragmentation mode: CID
Ionization: ESI
Column name: Zorbax Eclipse Plus C18 2.1 mm x 150 mm, 3.5 um, Agilent
Retention time: 4.565 min
Precursor m/z: 614.7769
Precursor type: [M+H]+
m/z	relative intensity
360.9692	10
486.8636	25
487.8698	18
583.7359	27
614.7759	999
