Mass spectrum: 2-Propinyl-triphenylphosphonium; LC-ESI-QTOF; MS2; 130 V
Name: 2-Propinyl-triphenylphosphonium
Formula: [C21H18P]+
Exact mass: 301.1141
SMILES: C#CC[P+](C1=CC=CC=C1)(C2=CC=CC=C2)C3=CC=CC=C3
InChI: InChI=1S/C21H18P/c1-2-18-22(19-12-6-3-7-13-19,20-14-8-4-9-15-20)21-16-10-5-11-17-21/h1,3-17H,18H2/q+1
Instrument: TripleTOF 6600 SCIEX
Instrument type: LC-ESI-QTOF
Ms type: MS2
Ion mode: POSITIVE
Collision energy: 130
Fragmentation mode: CID
Ionization: ESI
Column name: Zorbax Eclipse Plus C18 2.1 mm x 150 mm, 3.5 um, Agilent
Retention time: 7.928 min
Precursor m/z: 301.1141
Precursor type: [M]+
m/z	relative intensity
37.0064	51
39.022	172
49.0055	118
50.0134	607
51.0214	999
55.9788	116
56.9865	180
61.0055	104
62.0129	224
63.0207	589
65.0362	215
67.9785	285
68.9864	183
74.0122	220
75.0202	111
76.0279	194
77.0357	797
78.0427	61
78.9701	102
79.9778	414
80.9854	552
86.0109	97
87.0189	164
89.0344	571
91.977	190
98.011	95
102.0427	229
103.9771	98
104.985	56
107.0009	949
113.0349	148
115.0505	515
126.0425	301
131.0008	139
137.0353	60
139.0511	349
144.0083	141
149.0354	67
150.0431	541
151.0513	458
152.059	388
155.0016	77
156.009	75
157.0171	165
161.0354	79
162.0436	141
163.0515	698
164.0591	93
165.0675	56
174.0445	60
176.0588	213
179.003	72
180.0111	79
181.0175	262
187.0519	210
188.0586	75
189.0681	197
205.0175	202
