Mass spectrum: Dehydroaripiprazole; LC-ESI-QTOF; MS2; 120 V
Name: Dehydroaripiprazole
Class: Metabolite
Formula: C23H25Cl2N3O2
Exact mass: 445.1324
SMILES: C1CN(CCN1CCCCOC2=CC3=C(C=C2)C=CC(=O)N3)C4=C(C(=CC=C4)Cl)Cl
InChI: InChI=1S/C23H25Cl2N3O2/c24-19-4-3-5-21(23(19)25)28-13-11-27(12-14-28)10-1-2-15-30-18-8-6-17-7-9-22(29)26-20(17)16-18/h3-9,16H,1-2,10-15H2,(H,26,29)
Instrument: TripleTOF 5600 SCIEX
Instrument type: LC-ESI-QTOF
Ms type: MS2
Ion mode: POSITIVE
Collision energy: 120
Fragmentation mode: CID
Ionization: ESI
Column name: Zorbax Eclipse Plus C18 2.1 mm x 150 mm, 3.5 um, Agilent
Retention time: 7.84 min
Precursor m/z: 446.1397
Precursor type: [M+H]+
m/z	relative intensity
42.0344	112
55.0535	149
56.0495	312
63.0233	137
65.0387	49
74.0153	174
75.0218	137
77.0391	124
84.0795	237
89.038	999
90.0321	74
90.0462	124
91.0545	287
98.0966	87
101.0387	124
102.0334	87
108.9835	437
110.9986	149
116.0493	374
117.0571	899
118.0648	137
125.0148	74
128.0477	149
130.066	74
144.0449	112
144.9611	536
151.0199	62
152.0254	299
158.9761	62
160.9776	49
164.0261	112
171.9714	224
172.9687	212
