Mass spectrum: Bis(2-ethylhexyl)phosphate; LC-ESI-QTOF; MS2; 20 V
Name: Bis(2-ethylhexyl)phosphate
Class: Industrial_process
Formula: C16H35O4P
Exact mass: 322.2273
SMILES: CCCCC(CC)COP(=O)(O)OCC(CC)CCCC
InChI: InChI=1S/C16H35O4P/c1-5-9-11-15(7-3)13-19-21(17,18)20-14-16(8-4)12-10-6-2/h15-16H,5-14H2,1-4H3,(H,17,18)
Instrument: TripleTOF 6600 SCIEX
Instrument type: LC-ESI-QTOF
Ms type: MS2
Ion mode: NEGATIVE
Collision energy: 20
Fragmentation mode: CID
Ionization: ESI
Column name: Zorbax Eclipse Plus C18 2.1 mm x 150 mm, 3.5 um, Agilent
Retention time: 17.941 min
Precursor m/z: 321.22
Precursor type: [M-H]-
m/z	relative intensity
78.9557	18
209.0907	30
321.2143	999
