Mass spectrum: 2-Methylbenzimidazole; LC-ESI-QTOF; MS2; 80 V
Name: 2-Methylbenzimidazole
Formula: C8H8N2
Exact mass: 132.0687
SMILES: CC1=NC2=CC=CC=C2N1
InChI: InChI=1S/C8H8N2/c1-6-9-7-4-2-3-5-8(7)10-6/h2-5H,1H3,(H,9,10)
Instrument: TripleTOF 6600 SCIEX
Instrument type: LC-ESI-QTOF
Ms type: MS2
Ion mode: POSITIVE
Collision energy: 80
Fragmentation mode: CID
Ionization: ESI
Column name: Zorbax Eclipse Plus C18 2.1 mm x 150 mm, 3.5 um, Agilent
Retention time: 4.68 min
Precursor m/z: 133.076
Precursor type: [M+H]+
m/z	relative intensity
35.9994	93
37.0072	459
38.0035	17
38.0149	384
39.0229	999
40.0184	14
41.0259	14
42.0333	25
49.0072	23
50.0143	68
51.0104	14
51.0225	55
52.0176	59
61.0066	43
62.0144	97
63.0225	204
64.0176	14
64.0303	19
65.0261	12
65.0378	98
77.0378	12
91.0404	12
