Mass spectrum: Tetracycline; LC-ESI-QTOF; MS2; 110 V
Name: Tetracycline
Class: Pharmaceutical
Formula: C22H24N2O8
Exact mass: 444.1533
SMILES: CC1(C2CC3C(C(=O)C(=C(C3(C(=O)C2=C(C4=C1C=CC=C4O)O)O)O)C(=O)N)N(C)C)O
InChI: InChI=1S/C22H24N2O8/c1-21(31)8-5-4-6-11(25)12(8)16(26)13-9(21)7-10-15(24(2)3)17(27)14(20(23)30)19(29)22(10,32)18(13)28/h4-6,9-10,15,25-26,29,31-32H,7H2,1-3H3,(H2,23,30)
Instrument: TripleTOF 5600 SCIEX
Instrument type: LC-ESI-QTOF
Ms type: MS2
Ion mode: POSITIVE
Collision energy: 110
Fragmentation mode: CID
Ionization: ESI
Column name: Zorbax Eclipse Plus C18 2.1 mm x 150 mm, 3.5 um, Agilent
Retention time: 5.46 min
Precursor m/z: 445.1605
Precursor type: [M+H]+
m/z	relative intensity
42.0332	34
58.0647	34
68.9987	68
70.0665	68
98.0629	137
102.0461	34
114.0542	34
115.0512	206
127.0559	34
139.0548	413
140.0628	241
141.0691	103
150.0466	34
151.0539	206
152.0611	999
153.063	34
163.0543	206
163.0634	34
164.0626	241
165.0712	275
166.0857	68
167.081	68
168.0571	516
169.0587	34
170.0718	34
176.0602	344
177.0705	137
177.0802	34
178.0765	68
180.0572	344
181.0682	241
189.0668	34
189.0741	68
195.0833	34
196.0499	137
197.0584	241
198.0594	68
198.0739	34
205.064	103
213.0529	34
224.0521	34
226.0572	206
