Mass spectrum: Alachlor; LC-ESI-QTOF; MS2; 70 V
Name: Alachlor
Class: Herbicide
Formula: C14H20ClNO2
Exact mass: 269.1183
SMILES: CCC1=C(C(=CC=C1)CC)N(COC)C(=O)CCl
InChI: InChI=1S/C14H20ClNO2/c1-4-11-7-6-8-12(5-2)14(11)16(10-18-3)13(17)9-15/h6-8H,4-5,9-10H2,1-3H3
Instrument: TripleTOF 6600 SCIEX
Instrument type: LC-ESI-QTOF
Ms type: MS2
Ion mode: POSITIVE
Collision energy: 70
Fragmentation mode: CID
Ionization: ESI
Column name: Zorbax Eclipse Plus C18 2.1 mm x 150 mm, 3.5 um, Agilent
Retention time: 13.233 min
Precursor m/z: 270.1255
Precursor type: [M+H]+
m/z	relative intensity
31.018	219
39.0225	43
45.0324	376
48.9834	157
65.0372	43
77.037	131
79.0525	78
89.0363	70
90.0084	35
90.0442	70
91.0526	324
93.055	43
103.0528	105
105.0672	210
106.0626	113
115.0519	333
116.047	43
116.0609	43
117.0555	999
118.0635	254
119.0734	140
128.0595	122
129.0689	52
130.0632	289
131.0709	105
132.0794	981
133.0872	140
143.0703	113
144.0796	105
146.0939	245
147.1027	78
156.0835	61
