Mass spectrum: 17alpha-Hydroxyprogesterone; LC-ESI-QTOF; MS2; 110 V
Name: 17alpha-Hydroxyprogesterone
Class: Pharmaceutical
Formula: C21H30O3
Exact mass: 330.2195
SMILES: CC(=O)[C@@]1(O)CC[C@H]2[C@@H]3CCC4=CC(=O)CC[C@]4(C)[C@H]3CC[C@]12C
InChI: InChI=1S/C21H30O3/c1-13(22)21(24)11-8-18-16-5-4-14-12-15(23)6-9-19(14,2)17(16)7-10-20(18,21)3/h12,16-18,24H,4-11H2,1-3H3/t16-,17+,18+,19+,20+,21+/m1/s1
Instrument: TripleTOF 5600 SCIEX
Instrument type: LC-ESI-QTOF
Ms type: MS2
Ion mode: POSITIVE
Collision energy: 110
Fragmentation mode: CID
Ionization: ESI
Column name: Zorbax Eclipse Plus C18 2.1 mm x 150 mm, 3.5 um, Agilent
Retention time: 11.808 min
Precursor m/z: 331.2268
Precursor type: [M+H]+
m/z	relative intensity
43.0258	391
51.0288	99
53.0439	81
55.0227	90
55.0585	87
57.0402	17
65.0418	262
66.0508	37
67.0569	122
69.0745	29
77.0412	999
77.075	14
78.0479	35
79.0562	519
81.0336	23
81.0713	125
82.0432	17
83.0509	23
89.0402	29
91.0553	563
93.0721	23
94.0421	40
95.0488	17
95.0873	26
97.0645	265
102.0467	35
103.0541	90
105.0698	99
107.0493	46
109.0643	160
115.0532	385
116.0614	37
117.0692	49
123.0786	14
127.0535	84
128.0606	318
129.0684	81
139.0536	14
141.0679	90
151.0574	29
152.0617	87
152.0756	14
153.0688	70
155.085	26
165.0686	99
166.0776	14
167.0867	20
178.0771	35
179.08	17
