Mass spectrum: [4(Acetyloxy)butyl](triphenyl)phosphonium; LC-ESI-QTOF; MS2; 130 V
Name: [4(Acetyloxy)butyl](triphenyl)phosphonium
Formula: [C24H26O2P]+
Exact mass: 377.1665
SMILES: CC(=O)OCCCC[P+](C1=CC=CC=C1)(C2=CC=CC=C2)C3=CC=CC=C3
InChI: InChI=1S/C24H26O2P/c1-21(25)26-19-11-12-20-27(22-13-5-2-6-14-22,23-15-7-3-8-16-23)24-17-9-4-10-18-24/h2-10,13-18H,11-12,19-20H2,1H3/q+1
Instrument: TripleTOF 6600 SCIEX
Instrument type: LC-ESI-QTOF
Ms type: MS2
Ion mode: POSITIVE
Collision energy: 130
Fragmentation mode: CID
Ionization: ESI
Column name: Zorbax Eclipse Plus C18 2.1 mm x 150 mm, 3.5 um, Agilent
Retention time: 8.85 min
Precursor m/z: 377.1665
Precursor type: [M]+
m/z	relative intensity
80.9876	74
89.0371	98
107.0031	450
115.0529	298
126.0454	98
133.0188	86
139.0534	261
150.0454	52
151.0535	233
152.0616	999
157.0198	516
181.02	267
183.0355	514
226.0773	145
257.0513	187
