Mass spectrum: Icaridin acid; LC-ESI-QTOF; MS2; 90 V
Name: Icaridin acid
Formula: C12H21NO4
Exact mass: 243.1471
SMILES: CCC(C)OC(=O)N1CCCCC1CC(O)=O
InChI: InChI=1S/C12H21NO4/c1-3-9(2)17-12(16)13-7-5-4-6-10(13)8-11(14)15/h9-10H,3-8H2,1-2H3,(H,14,15)
Instrument: TripleTOF 6600 SCIEX
Instrument type: LC-ESI-QTOF
Ms type: MS2
Ion mode: POSITIVE
Collision energy: 90
Fragmentation mode: CID
Ionization: ESI
Column name: Zorbax Eclipse Plus C18 2.1 mm x 150 mm, 3.5 um, Agilent
Retention time: 9.741 min
Precursor m/z: 244.1543
Precursor type: [M+H]+
m/z	relative intensity
30.0318	86
35.997	9
37.0054	67
37.9996	27
38.0127	52
39.0208	370
41.0366	200
42.032	119
43.0157	25
43.0398	42
44.9948	13
51.021	11
53.0109	15
53.0363	44
54.0318	27
55.0518	177
56.0472	999
65.0357	57
67.0392	21
67.0514	109
68.0468	100
69.0553	86
77.0364	27
79.0509	21
82.0623	36
84.0784	559
