Mass spectrum: Meclofenamic acid; LC-ESI-QTOF; MS2; 130 V
Name: Meclofenamic acid
Class: Pharmaceutical
Formula: C14H11Cl2NO2
Exact mass: 295.0167
SMILES: Cc1ccc(c(c1Cl)Nc2ccccc2C(=O)O)Cl
InChI: InChI=1S/C14H11Cl2NO2/c1-8-6-7-10(15)13(12(8)16)17-11-5-3-2-4-9(11)14(18)19/h2-7,17H,1H3,(H,18,19)
Instrument: TripleTOF 5600 SCIEX
Instrument type: LC-ESI-QTOF
Ms type: MS2
Ion mode: NEGATIVE
Collision energy: 130
Fragmentation mode: CID
Ionization: ESI
Column name: Zorbax Eclipse Plus C18 2.1 mm x 150 mm, 3.5 um, Agilent
Retention time: 13.705 min
Precursor m/z: 294.0094
Precursor type: [M-H]-
m/z	relative intensity
34.9689	999
