Mass spectrum: Acridone; LC-ESI-QTOF; MS2; 60 V
Name: Acridone
Class: Metabolite; Pharmaceutical; Transformation_product
Formula: C13H9NO
Exact mass: 195.0684
SMILES: O=C1c2ccccc2Nc3ccccc13
InChI: InChI=1S/C13H9NO/c15-13-9-5-1-3-7-11(9)14-12-8-4-2-6-10(12)13/h1-8H,(H,14,15)
Instrument: TripleTOF 5600 SCIEX
Instrument type: LC-ESI-QTOF
Ms type: MS2
Ion mode: NEGATIVE
Collision energy: 60
Fragmentation mode: CID
Ionization: ESI
Column name: Zorbax Eclipse Plus C18 2.1 mm x 150 mm, 3.5 um, Agilent
Retention time: 8.5 min
Precursor m/z: 194.0611
Precursor type: [M-H]-
m/z	relative intensity
65.0029	80
65.9981	217
88.0169	62
89.0238	68
90.0336	62
115.0438	55
116.0488	99
139.041	68
140.0495	223
144.0436	204
164.0475	651
165.0559	248
166.0612	99
168.0419	310
192.0429	719
193.0488	341
194.0582	999
195.0589	80
