Mass spectrum: Atrazine; LC-ESI-QTOF; MS2; 30 V
Name: Atrazine
Class: Herbicide
Formula: C8H14ClN5
Exact mass: 215.0938
SMILES: CCNc1nc(Cl)nc(NC(C)C)n1
InChI: InChI=1S/C8H14ClN5/c1-4-10-7-12-6(9)13-8(14-7)11-5(2)3/h5H,4H2,1-3H3,(H2,10,11,12,13,14)
Instrument: TripleTOF 5600 SCIEX
Instrument type: LC-ESI-QTOF
Ms type: MS2
Ion mode: POSITIVE
Collision energy: 30
Fragmentation mode: CID
Ionization: ESI
Column name: Zorbax Eclipse Plus C18 2.1 mm x 150 mm, 3.5 um, Agilent
Retention time: 10.312 min
Precursor m/z: 216.101
Precursor type: [M+H]+
m/z	relative intensity
43.0372	10
61.9836	12
68.0289	97
71.0641	43
79.0094	151
96.0576	247
104.0024	217
110.0466	29
132.0332	234
138.078	59
138.1009	10
146.0238	181
174.0547	999
216.1018	209
