Mass spectrum: Benzoylecgonine; LC-ESI-QTOF; MS2; 50 V
Name: Benzoylecgonine
Class: Pharmaceutical; Metabolite; Transformation_product
Formula: C16H19NO4
Exact mass: 289.1314
SMILES: CN1C2CCC1[C@H]([C@H](C2)OC(=O)c3ccccc3)C(O)=O
InChI: InChI=1S/C16H19NO4/c1-17-11-7-8-12(17)14(15(18)19)13(9-11)21-16(20)10-5-3-2-4-6-10/h2-6,11-14H,7-9H2,1H3,(H,18,19)/t11?,12?,13-,14+/m0/s1
Instrument: TripleTOF 5600 SCIEX
Instrument type: LC-ESI-QTOF
Ms type: MS2
Ion mode: POSITIVE
Collision energy: 50
Fragmentation mode: CID
Ionization: ESI
Column name: Zorbax Eclipse Plus C18 2.1 mm x 150 mm, 3.5 um, Agilent
Retention time: 5.641 min
Precursor m/z: 290.1387
Precursor type: [M+H]+
m/z	relative intensity
56.0554	11
57.0628	17
65.0423	43
67.0451	11
67.0591	72
68.0536	82
70.0702	16
77.0423	736
79.0569	17
80.0526	16
81.0718	34
82.0681	388
83.052	33
83.0749	109
84.0828	16
91.0563	335
93.0353	24
93.0709	80
94.0665	75
96.0822	42
100.0759	49
105.0349	999
106.0666	14
107.073	22
108.0807	48
109.0668	17
117.0568	17
119.0494	149
122.096	86
124.1126	40
132.0815	21
135.0686	48
140.0704	22
150.0911	63
168.1023	177
