Mass spectrum: 4-Methyl-5-thiazoleethanol; LC-ESI-QTOF; MS2; 70 V
Name: 4-Methyl-5-thiazoleethanol
Class: Food_additive; Metabolite; Pharmaceutical
Formula: C6H9NOS
Exact mass: 143.0405
SMILES: CC1=C(SC=N1)CCO
InChI: InChI=1S/C6H9NOS/c1-5-6(2-3-8)9-4-7-5/h4,8H,2-3H2,1H3
Instrument: TripleTOF 6600 SCIEX
Instrument type: LC-ESI-QTOF
Ms type: MS2
Ion mode: POSITIVE
Collision energy: 70
Fragmentation mode: CID
Ionization: ESI
Column name: Zorbax Eclipse Plus C18 2.1 mm x 150 mm, 3.5 um, Agilent
Retention time: 4.251 min
Precursor m/z: 144.0478
Precursor type: [M+H]+
m/z	relative intensity
37.0073	57
38.0152	42
39.0231	264
41.0255	35
41.0388	99
42.0334	285
43.0418	35
43.9714	49
44.9794	999
50.0152	78
51.0224	85
52.0306	49
53.0385	149
54.0338	121
57.9875	64
58.9949	128
68.0498	71
68.9786	64
70.9948	606
78.0332	49
80.0492	114
84.0031	42
85.0097	221
112.0207	221
