Mass spectrum: Sertraline; LC-ESI-QTOF; MS2; 140 V
Name: Sertraline
Class: Pharmaceutical
Formula: C17H17Cl2N
Exact mass: 305.0738
SMILES: CN[C@H]1CC[C@H](c2c1cccc2)c3ccc(c(c3)Cl)Cl
InChI: InChI=1S/C17H17Cl2N/c1-20-17-9-7-12(13-4-2-3-5-14(13)17)11-6-8-15(18)16(19)10-11/h2-6,8,10,12,17,20H,7,9H2,1H3/t12-,17-/m0/s1
Instrument: TripleTOF 5600 SCIEX
Instrument type: LC-ESI-QTOF
Ms type: MS2
Ion mode: POSITIVE
Collision energy: 140
Fragmentation mode: CID
Ionization: ESI
Column name: Zorbax Eclipse Plus C18 2.1 mm x 150 mm, 3.5 um, Agilent
Retention time: 8.925 min
Precursor m/z: 306.0811
Precursor type: [M+H]+
m/z	relative intensity
60.0035	44
60.0149	11
65.0431	53
71.98	42
72.9878	937
74.0193	162
75.026	126
76.0343	92
77.0419	322
78.0494	109
82.9472	134
85.0101	33
86.0172	95
87.0254	103
88.0329	129
89.0414	999
91.056	30
95.9765	19
96.9852	204
98.0158	36
99.0007	61
99.0256	19
101.0397	42
102.0477	246
106.9447	39
111.025	14
113.0385	16
115.0549	103
122.0156	16
123.0003	75
124.0095	16
125.0417	16
126.0464	137
127.0554	145
128.0623	322
132.9616	28
137.0368	22
139.0559	25
149.0391	22
150.0475	75
151.0542	50
152.0632	14
161.0414	36
162.0455	36
163.0549	112
164.0615	16
174.0477	44
175.0545	19
176.0631	50
186.0469	25
187.055	168
188.0621	33
189.071	19
199.0573	25
200.0625	151
201.0688	44
202.0781	42
