Mass spectrum: Tiamulin; LC-ESI-QTOF; MS2; 110 V
Name: Tiamulin
Class: Antimicrobial; Pharmaceutical
Formula: C28H47NO4S
Exact mass: 493.3226
SMILES: CCN(CC)CCSCC(=O)OC1CC(C(C(C23CCC(C1(C2C(=O)CC3)C)C)C)O)(C)C=C
InChI: InChI=1S/C28H47NO4S/c1-8-26(6)17-22(33-23(31)18-34-16-15-29(9-2)10-3)27(7)19(4)11-13-28(20(5)25(26)32)14-12-21(30)24(27)28/h8,19-20,22,24-25,32H,1,9-18H2,2-7H3
Instrument: TripleTOF 6600 SCIEX
Instrument type: LC-ESI-QTOF
Ms type: MS2
Ion mode: POSITIVE
Collision energy: 110
Fragmentation mode: CID
Ionization: ESI
Column name: Zorbax Eclipse Plus C18 2.1 mm x 150 mm, 3.5 um, Agilent
Retention time: 8.661 min
Precursor m/z: 494.3299
Precursor type: [M+H]+
m/z	relative intensity
37.0067	17
38.0146	14
39.0229	143
41.0382	224
43.0177	123
43.0538	22
44.0482	22
44.9789	588
45.0334	28
46.9946	83
51.0224	33
53.0381	58
55.0168	30
55.0534	178
61.01	35
62.9894	32
65.0375	161
66.0454	11
67.0534	209
69.0318	12
69.0697	24
72.0796	17
73.0099	571
74.0958	68
77.0377	700
78.0462	32
79.0532	551
80.0613	11
81.0689	210
83.0479	23
90.9832	22
91.0533	999
93.0687	236
95.0472	27
95.084	55
97.065	15
100.11	13
101.0025	12
102.0458	15
103.0532	154
104.061	43
105.0455	17
105.0688	542
106.0754	16
107.0466	20
107.0849	93
109.063	26
115.053	355
116.0614	92
117.0691	221
118.0755	25
119.015	43
119.0842	230
121.063	29
121.0998	35
127.0527	66
128.0606	345
129.0692	274
130.0769	58
131.0492	12
131.0842	105
133.0634	33
133.0995	61
141.0679	247
142.0753	131
143.0835	112
144.0912	24
145.0641	24
145.0996	37
147.0795	23
147.116	13
149.0947	20
152.0599	69
153.0684	116
154.0756	39
155.0599	14
155.084	104
156.0916	36
157.1002	36
159.1162	14
161.096	13
165.0682	77
166.0777	27
167.0843	73
168.0908	21
169.0995	35
170.1083	12
178.0742	16
179.0842	25
180.0918	13
181.1015	31
