Mass spectrum: Brilliant Green Cation; LC-ESI-QTOF; MS2; 80 V
Name: Brilliant Green Cation
Formula: [C27H33N2]+
Exact mass: 385.2638
SMILES: CCN(CC)C1=CC=C(C=C1)C(=C2C=CC(=[N+](CC)CC)C=C2)C3=CC=CC=C3
InChI: InChI=1S/C27H33N2/c1-5-28(6-2)25-18-14-23(15-19-25)27(22-12-10-9-11-13-22)24-16-20-26(21-17-24)29(7-3)8-4/h9-21H,5-8H2,1-4H3/q+1
Instrument: TripleTOF 6600 SCIEX
Instrument type: LC-ESI-QTOF
Ms type: MS2
Ion mode: POSITIVE
Collision energy: 80
Fragmentation mode: CID
Ionization: ESI
Column name: Zorbax Eclipse Plus C18 2.1 mm x 150 mm, 3.5 um, Agilent
Retention time: 12.461 min
Precursor m/z: 385.2638
Precursor type: [M]+
m/z	relative intensity
165.0683	291
191.0711	57
192.0796	582
215.0833	77
219.0909	151
228.0921	52
239.0843	160
240.0905	132
241.1005	939
254.0989	77
255.1114	73
268.1115	289
269.1194	300
283.1329	311
297.1386	999
311.1531	104
341.197	73
