Mass spectrum: Oxfendazole; LC-ESI-QTOF; MS2; 90 V
Name: Oxfendazole
Class: Pharmaceutical
Formula: C15H13N3O3S
Exact mass: 315.0678
SMILES: COC(=O)Nc1[nH]c2cc(ccc2n1)[S](=O)c3ccccc3
InChI: InChI=1S/C15H13N3O3S/c1-21-15(19)18-14-16-12-8-7-11(9-13(12)17-14)22(20)10-5-3-2-4-6-10/h2-9H,1H3,(H2,16,17,18,19)
Instrument: TripleTOF 5600 SCIEX
Instrument type: LC-ESI-QTOF
Ms type: MS2
Ion mode: POSITIVE
Collision energy: 90
Fragmentation mode: CID
Ionization: ESI
Column name: Zorbax Eclipse Plus C18 2.1 mm x 150 mm, 3.5 um, Agilent
Retention time: 6.579 min
Precursor m/z: 316.075
Precursor type: [M+H]+
m/z	relative intensity
51.0277	12
53.0311	14
69.0105	16
76.0209	145
76.0436	10
77.0287	780
77.0569	20
77.0746	16
78.0363	68
79.0427	14
89.0283	20
90.0363	12
91.0427	43
92.0394	31
94.9962	12
103.0289	29
103.0404	62
104.0373	999
104.0706	12
105.0444	112
116.0358	41
118.0538	25
119.0481	10
119.0599	10
122.0049	29
127.0553	16
130.0393	72
131.0479	498
139.053	14
140.0501	35
152.0483	27
153.057	12
158.0349	22
159.0434	440
171.0254	56
183.0147	12
196.0225	47
197.0267	12
210.0248	14
211.0326	29
224.0393	27
265.033	22
