Mass spectrum: N-[4-(1H-benzimidazol-2-yl)phenyl]-N,N-dimethylamine; LC-ESI-QTOF; MS2; 70 V
Name: N-[4-(1H-benzimidazol-2-yl)phenyl]-N,N-dimethylamine
Class: Pharmaceutical
Formula: C15H15N3
Exact mass: 237.1266
SMILES: CN(C)C1=CC=C(C=C1)C2=NC3=CC=CC=C3N2
InChI: InChI=1S/C15H15N3/c1-18(2)12-9-7-11(8-10-12)15-16-13-5-3-4-6-14(13)17-15/h3-10H,1-2H3,(H,16,17)
Instrument: TripleTOF 5600 SCIEX
Instrument type: LC-ESI-QTOF
Ms type: MS2
Ion mode: POSITIVE
Collision energy: 70
Fragmentation mode: CID
Ionization: ESI
Column name: Zorbax Eclipse Plus C18 2.1 mm x 150 mm, 3.5 um, Agilent
Retention time: 6.517 min
Precursor m/z: 238.1339
Precursor type: [M+H]+
m/z	relative intensity
77.0438	29
89.0429	30
90.0497	36
91.0455	64
92.0535	242
102.0354	12
104.0513	27
129.0467	13
130.0557	11
139.0555	39
140.0523	28
143.0617	29
145.0773	37
154.066	20
165.0593	10
166.0662	149
167.0735	94
168.0737	44
181.0777	14
191.0623	10
192.0685	176
193.0761	999
194.0841	842
195.0922	61
205.0748	15
206.0816	25
207.0809	10
220.0873	26
221.0955	26
222.1029	307
