Mass spectrum: Amitriptyline; LC-ESI-QTOF; MS2; 120 V
Name: Amitriptyline
Class: Pharmaceutical
Formula: C20H23N
Exact mass: 277.183
SMILES: CN(C)CCC=C1C2=CC=CC=C2CCC3=CC=CC=C31
InChI: InChI=1S/C20H23N/c1-21(2)15-7-12-20-18-10-5-3-8-16(18)13-14-17-9-4-6-11-19(17)20/h3-6,8-12H,7,13-15H2,1-2H3
Instrument: TripleTOF 6600 SCIEX
Instrument type: LC-ESI-QTOF
Ms type: MS2
Ion mode: POSITIVE
Collision energy: 120
Fragmentation mode: CID
Ionization: ESI
Column name: Zorbax Eclipse Plus C18 2.1 mm x 150 mm, 3.5 um, Agilent
Retention time: 8.708 min
Precursor m/z: 278.1903
Precursor type: [M+H]+
m/z	relative intensity
37.0073	33
38.015	29
39.0232	161
41.0388	14
42.0338	29
49.0075	37
50.0153	200
51.0232	353
52.0306	15
61.0075	39
62.0151	97
63.0233	236
65.0388	262
73.0075	13
74.0153	116
75.0231	80
76.031	77
77.0388	278
78.0463	63
85.0073	15
86.0151	47
87.0229	62
88.0306	10
89.0387	214
91.054	98
98.0152	74
99.0225	30
100.0307	16
101.0382	24
102.0464	185
110.0151	20
111.0226	21
113.0385	54
114.046	11
115.0545	322
122.0144	21
123.0231	10
124.0303	11
125.0386	40
126.0466	161
127.0542	89
128.062	114
137.0385	31
138.0465	18
139.0545	174
149.0388	69
150.0466	448
151.0543	356
152.0624	267
155.0589	11
161.0388	39
162.0466	96
163.0543	483
164.0621	97
165.0699	79
173.0384	12
174.0466	174
175.055	117
176.0619	272
177.0705	19
178.0771	11
179.0603	13
185.0382	29
186.047	60
187.055	533
188.0626	201
189.0704	392
198.0467	92
199.0542	162
200.0629	999
201.0707	237
202.0777	156
211.0545	67
212.0617	39
213.0705	344
214.0789	26
215.0857	82
226.0796	10
