Mass spectrum: Propyzamid; LC-ESI-QTOF; MS2; 70 V
Name: Propyzamid
Class: Herbicide
Formula: C12H11Cl2NO
Exact mass: 255.0218
SMILES: CC(C)(C#C)NC(=O)c1cc(cc(c1)Cl)Cl
InChI: InChI=1S/C12H11Cl2NO/c1-4-12(2,3)15-11(16)8-5-9(13)7-10(14)6-8/h1,5-7H,2-3H3,(H,15,16)
Instrument: TripleTOF 6600 SCIEX
Instrument type: LC-ESI-QTOF
Ms type: MS2
Ion mode: POSITIVE
Collision energy: 70
Fragmentation mode: CID
Ionization: ESI
Column name: Zorbax Eclipse Plus C18 2.1 mm x 150 mm, 3.5 um, Agilent
Retention time: 12.435 min
Precursor m/z: 256.0291
Precursor type: [M+H]+
m/z	relative intensity
37.0075	30
38.0149	30
39.0231	162
41.0385	125
44.0132	255
50.0156	33
51.0227	44
65.0387	49
67.0536	16
73.0071	16
74.0148	462
75.0232	89
84.9843	18
108.9836	999
109.9909	47
110.9995	28
139.0048	16
144.9601	257
172.9664	191
