Mass spectrum: Prednisolone; LC-ESI-QTOF; MS2; 40 V
Name: Prednisolone
Class: Pharmaceutical
Formula: C21H28O5
Exact mass: 360.1937
SMILES: C[C@]12C[C@H](O)[C@H]3[C@@H](CCC4=CC(=O)C=C[C@]34C)[C@@H]1CC[C@]2(O)C(=O)CO
InChI: InChI=1S/C21H28O5/c1-19-7-5-13(23)9-12(19)3-4-14-15-6-8-21(26,17(25)11-22)20(15,2)10-16(24)18(14)19/h5,7,9,14-16,18,22,24,26H,3-4,6,8,10-11H2,1-2H3/t14-,15-,16-,18+,19-,20-,21-/m0/s1
Instrument: TripleTOF 5600 SCIEX
Instrument type: LC-ESI-QTOF
Ms type: MS2
Ion mode: POSITIVE
Collision energy: 40
Fragmentation mode: CID
Ionization: ESI
Column name: Zorbax Eclipse Plus C18 2.1 mm x 150 mm, 3.5 um, Agilent
Retention time: 8.432 min
Precursor m/z: 361.201
Precursor type: [M+H]+
m/z	relative intensity
43.0244	10
67.0592	19
77.0398	16
79.0562	39
81.0732	33
83.0512	12
91.0551	85
93.0707	76
95.0863	33
97.0664	12
103.0554	10
105.0701	67
107.0489	17
107.0854	82
109.0626	19
109.1011	37
111.0827	16
115.053	26
117.0701	32
119.0849	117
121.065	455
121.0996	23
123.0808	25
125.0594	16
128.0623	26
129.0695	33
130.0777	12
131.0849	66
132.0594	19
133.065	44
133.1019	46
135.0801	150
137.0608	12
137.0945	10
139.0744	12
141.07	14
142.0792	14
143.0858	42
145.0654	69
145.1015	69
147.0809	999
149.0957	25
153.0686	10
155.0847	41
157.0634	16
157.1017	33
158.0731	85
159.0804	137
159.1168	21
160.0875	16
161.0964	98
163.0754	39
163.1132	12
165.0689	16
165.0914	25
167.0836	17
169.0639	12
169.1036	14
170.0726	19
171.0806	545
171.116	25
172.0909	17
173.096	455
175.1103	17
178.0779	10
179.0857	35
180.0909	16
181.0648	10
181.1007	23
183.0816	23
183.1171	10
184.0858	10
185.0952	87
187.0764	12
187.1124	39
189.0905	16
190.0792	25
193.1029	35
194.0732	12
195.0815	41
195.1155	26
196.087	33
197.0955	135
198.1025	17
199.1118	78
201.0914	10
203.0846	12
204.098	14
205.1003	50
206.1094	14
207.0828	14
207.1172	19
208.088	96
209.0957	117
209.1323	14
210.1027	50
211.1123	134
212.1185	17
213.0892	14
213.128	41
215.1081	10
216.0929	12
218.1059	10
219.0791	12
219.1167	25
220.0901	14
221.0954	71
221.1312	16
222.1036	75
223.1111	241
223.1474	12
224.1217	48
225.1271	87
226.1366	25
227.1422	16
229.0981	14
231.1173	19
232.0891	17
233.0958	25
233.1326	12
234.1035	44
235.1119	42
236.1215	37
237.1281	144
238.137	17
239.1439	114
241.1585	25
243.1169	25
245.0973	37
246.1038	30
247.1116	46
248.1197	78
249.128	67
249.1655	46
250.1347	28
251.1432	214
259.1116	50
260.1185	41
261.128	42
262.1371	35
263.143	53
264.1511	30
265.127	14
265.1597	105
266.1653	191
267.1765	35
273.13	14
274.135	76
276.1421	12
277.1271	10
277.1598	35
279.1392	28
279.1754	42
285.179	12
289.1583	71
294.1623	19
295.1689	16
297.1487	10
307.1696	33
325.1801	10
343.1934	14
