Mass spectrum: Resorcinol bis(diphenyl phosphate); LC-ESI-QTOF; MS2; 120 V
Name: Resorcinol bis(diphenyl phosphate)
Class: Industrial_process
Formula: C30H24O8P2
Exact mass: 574.0946
SMILES: C1=CC=C(C=C1)OP(=O)(OC2=CC=CC=C2)OC3=CC(=CC=C3)OP(=O)(OC4=CC=CC=C4)OC5=CC=CC=C5
InChI: InChI=1S/C30H24O8P2/c31-39(33-25-14-5-1-6-15-25,34-26-16-7-2-8-17-26)37-29-22-13-23-30(24-29)38-40(32,35-27-18-9-3-10-19-27)36-28-20-11-4-12-21-28/h1-24H
Instrument: TripleTOF 6600 SCIEX
Instrument type: LC-ESI-QTOF
Ms type: MS2
Ion mode: POSITIVE
Collision energy: 120
Fragmentation mode: CID
Ionization: ESI
Column name: Zorbax Eclipse Plus C18 2.1 mm x 150 mm, 3.5 um, Agilent
Retention time: 15.87 min
Precursor m/z: 575.1019
Precursor type: [M+H]+
m/z	relative intensity
39.0229	19
46.9677	21
49.0067	13
50.015	49
51.0228	246
63.0229	41
65.0382	52
74.0152	35
75.0227	43
76.0312	24
77.0385	604
78.0465	13
87.0222	16
89.0386	60
91.0547	35
92.0258	41
95.0489	27
98.0152	35
99.0233	32
101.0386	27
102.046	95
103.0544	21
105.0448	24
107.0055	24
109.0268	13
110.0144	13
113.0374	49
114.0466	46
115.0542	634
121.0199	24
122.017	19
123.0234	13
124.03	13
125.0387	73
126.0463	93
127.0545	131
128.062	331
129.0334	10
129.0689	27
130.0412	27
131.0491	65
133.0196	65
138.046	19
138.9946	32
139.0546	626
140.0624	90
141.071	177
144.013	13
145.0197	30
147.0359	32
149.0147	35
149.0396	46
150.0465	468
151.0546	353
152.0629	999
153.0708	24
154.0446	16
154.9896	19
155.0502	82
156.0138	10
156.0573	84
157.0206	82
157.0645	27
159.0363	41
163.0552	27
164.0601	21
165.0701	73
168.0572	569
169.0656	19
170.0748	16
173.0159	65
174.023	10
175.0159	27
175.03	21
176.0623	43
177.0105	142
177.0701	19
178.0775	79
179.0614	60
183.0424	32
184.0522	142
185.0161	10
185.0586	13
186.023	32
187.0307	38
187.0541	38
188.0635	46
189.0701	260
190.0785	32
191.0859	30
198.0464	13
199.0366	13
199.0544	19
200.0623	180
201.0092	27
201.0711	114
202.018	13
202.0783	314
203.0255	49
203.0863	43
204.0919	13
205.0044	79
205.0651	57
207.0363	41
211.0601	13
212.0639	13
213.0121	21
213.0712	246
214.0793	68
215.0268	54
215.0865	350
216.0935	16
218.0736	79
219.0809	16
221.0562	13
222.0088	93
222.0504	24
223.0161	35
223.0548	21
224.0634	331
225.0707	287
226.0789	552
227.0869	65
228.0938	27
229.0075	57
229.0659	32
231.0285	84
231.0817	71
233.053	38
234.0681	32
242.073	145
243.0807	38
244.0903	21
248.0258	10
250.0769	24
252.0966	16
253.0878	16
258.0676	21
260.0396	52
263.0874	30
265.1014	16
274.0772	32
275.0928	13
276.0952	79
287.0861	32
289.0446	24
289.1031	73
298.0791	49
299.0864	32
300.0962	164
302.109	30
305.0934	13
