Mass spectrum: 6-Acetylcodeine; LC-ESI-QTOF; MS2; 140 V
Name: 6-Acetylcodeine
Class: Pharmaceutical; Transformation_product
Formula: C20H23NO4
Exact mass: 341.1627
SMILES: CC(=O)OC1C=CC2C3CC4=C5C2(C1OC5=C(C=C4)OC)CCN3C
InChI: InChI=1S/C20H23NO4/c1-11(22)24-16-7-5-13-14-10-12-4-6-15(23-3)18-17(12)20(13,19(16)25-18)8-9-21(14)2/h4-7,13-14,16,19H,8-10H2,1-3H3
Instrument: TripleTOF 5600 SCIEX
Instrument type: LC-ESI-QTOF
Ms type: MS2
Ion mode: POSITIVE
Collision energy: 140
Fragmentation mode: CID
Ionization: ESI
Column name: Zorbax Eclipse Plus C18 2.1 mm x 150 mm, 3.5 um, Agilent
Retention time: 6.207 min
Precursor m/z: 342.17
Precursor type: [M+H]+
m/z	relative intensity
42.0421	15
43.0265	256
51.029	118
58.0689	10
65.0426	127
73.0108	10
74.0179	118
75.0252	162
76.0335	111
77.0414	475
78.0483	104
85.008	10
86.0164	36
87.0243	88
88.0326	38
89.0404	355
90.0472	13
91.0563	61
98.0158	66
99.0232	43
100.0311	24
101.0386	81
102.0463	287
103.0539	27
110.0149	12
111.0235	12
113.0384	120
114.0459	50
115.0541	761
125.0389	74
126.0459	407
127.0538	294
128.0614	244
137.038	24
138.0472	38
139.0542	521
140.0609	15
141.0679	40
149.0384	52
150.0461	510
151.0536	782
152.0618	999
153.0677	41
154.063	12
155.0506	22
161.0364	20
162.045	85
163.0538	503
163.0928	17
164.0616	172
165.0689	174
166.0651	12
174.044	20
175.0546	31
176.0613	149
177.0689	24
178.0734	33
187.0518	101
188.0609	48
189.0688	85
190.0639	10
200.0598	22
201.0616	13
