Mass spectrum: Chlormethiazole; LC-ESI-QTOF; MS2; 130 V
Name: Chlormethiazole
Class: Pharmaceutical
Formula: C6H8ClNS
Exact mass: 161.0066
SMILES: CC1=C(SC=N1)CCCl
InChI: InChI=1S/C6H8ClNS/c1-5-6(2-3-7)9-4-8-5/h4H,2-3H2,1H3
Instrument: TripleTOF 6600 SCIEX
Instrument type: LC-ESI-QTOF
Ms type: MS2
Ion mode: POSITIVE
Collision energy: 130
Fragmentation mode: CID
Ionization: ESI
Column name: Zorbax Eclipse Plus C18 2.1 mm x 150 mm, 3.5 um, Agilent
Retention time: 7.946 min
Precursor m/z: 162.0139
Precursor type: [M+H]+
m/z	relative intensity
35.9999	76
37.0071	245
38.0023	76
38.015	138
39.0229	215
42.0339	107
43.9714	230
44.9793	999
45.9748	122
49.0073	92
50.0148	215
52.0178	76
68.9793	107
