Mass spectrum: Dipyridamole; LC-ESI-QTOF; MS2; 90 V
Name: Dipyridamole
Class: Pharmaceutical
Formula: C24H40N8O4
Exact mass: 504.3173
SMILES: OCCN(CCO)c1nc(N2CCCCC2)c3nc(nc(N4CCCCC4)c3n1)N(CCO)CCO
InChI: InChI=1S/C24H40N8O4/c33-15-11-31(12-16-34)23-26-20-19(21(27-23)29-7-3-1-4-8-29)25-24(32(13-17-35)14-18-36)28-22(20)30-9-5-2-6-10-30/h33-36H,1-18H2
Instrument: TripleTOF 5600 SCIEX
Instrument type: LC-ESI-QTOF
Ms type: MS2
Ion mode: POSITIVE
Collision energy: 90
Fragmentation mode: CID
Ionization: ESI
Column name: Zorbax Eclipse Plus C18 2.1 mm x 150 mm, 3.5 um, Agilent
Retention time: 7.666 min
Precursor m/z: 505.3245
Precursor type: [M+H]+
m/z	relative intensity
69.0717	72
70.0675	176
84.0809	291
86.0969	135
87.0567	62
88.0756	72
96.0541	41
106.0383	41
108.054	41
114.053	124
116.0687	72
118.0397	62
120.0566	83
121.0487	72
132.0566	41
133.0489	145
134.0434	62
134.0581	83
135.0644	93
145.05	156
146.0464	124
147.0643	197
148.0597	114
149.0676	62
150.0756	83
157.0495	72
159.0666	104
160.0604	291
160.0837	62
161.0569	395
161.0795	52
162.0742	312
163.0811	62
164.0779	62
165.0811	62
170.0457	62
170.0727	72
171.0626	62
172.0618	197
173.0653	291
174.0758	395
175.0709	353
175.098	72
176.0833	405
177.0808	426
178.0884	104
183.0665	62
184.0663	104
185.0613	104
185.0788	83
186.0763	291
187.0721	718
187.0937	156
188.0492	41
188.0884	447
189.0861	707
190.0876	634
191.0906	260
192.088	218
198.0753	124
198.0919	62
199.0779	312
200.0607	72
200.0887	426
201.0879	426
201.1137	52
202.0831	759
202.1059	145
203.0665	114
203.087	114
203.102	312
203.1231	62
204.0975	530
205.0996	374
206.1028	176
207.0919	41
207.1087	72
208.109	52
209.0802	41
210.0724	104
211.0703	72
211.085	72
212.0896	135
213.0844	291
213.1104	135
214.0824	437
214.1034	93
215.0655	41
215.1006	613
216.0969	999
217.0946	509
218.0697	62
218.1078	291
219.1061	353
220.0965	62
220.1155	124
221.1118	83
224.0912	104
225.0881	156
226.0889	239
226.114	52
227.1042	280
228.0985	666
228.1236	135
229.0858	124
229.1165	457
230.1135	728
231.1062	655
231.1298	166
232.0925	62
232.123	135
233.1124	405
234.1117	312
237.0872	52
238.1054	93
239.1027	291
240.0994	374
240.1211	114
241.0972	72
241.1187	457
242.1155	593
242.1433	41
243.1112	457
243.1336	208
244.0951	135
244.1233	364
245.1167	468
245.1504	124
246.1101	447
246.1351	62
247.1285	353
248.1215	353
249.1201	187
251.1001	52
252.1132	166
253.1202	218
254.1135	291
255.1091	280
255.1315	343
256.1288	426
257.1002	52
257.1206	260
257.1495	280
258.1073	145
258.1424	291
259.13	364
259.1669	93
260.1257	280
260.1532	187
261.1203	208
261.1428	104
262.1371	83
263.1321	135
263.1522	62
265.1198	52
266.1167	52
266.1333	72
267.1024	41
267.1319	114
268.1255	156
269.1257	228
269.1525	52
270.1435	447
271.1341	385
271.1614	93
272.1251	322
272.1574	270
273.1192	83
273.1447	489
274.1394	208
274.1798	52
275.1312	104
275.1605	197
276.1221	72
276.1528	62
277.1408	62
277.1754	93
279.1316	124
280.1326	72
281.149	114
282.1408	197
283.1342	104
284.1273	52
284.1613	530
285.1224	52
285.1518	322
286.1422	187
286.1739	197
287.1391	260
287.1645	145
288.1268	52
288.1531	208
288.1856	72
289.1564	52
289.1743	93
289.1944	52
290.1403	72
291.1466	52
292.1412	52
293.1405	52
294.1385	62
295.1392	62
296.1597	301
297.1541	156
298.145	135
298.1766	228
299.1328	104
299.1663	364
300.1569	301
301.154	176
301.1789	197
302.1349	83
302.1713	666
303.166	135
304.1481	52
304.1858	187
305.1706	52
308.161	72
309.1693	83
310.1738	124
311.1353	41
311.1697	249
312.1603	124
312.1914	52
313.1534	93
313.1792	208
314.1684	405
315.1657	166
316.1494	72
316.1845	489
317.1807	312
318.2079	52
319.1839	104
322.1778	72
323.1721	124
324.1881	62
325.1849	218
326.1708	135
327.1709	145
327.2058	41
328.1865	385
329.1776	426
330.1583	93
330.2026	197
331.2	239
332.1772	72
334.1869	62
337.1907	93
339.1964	197
340.1864	104
341.1818	218
342.1966	104
343.1977	249
344.1866	62
345.1845	83
346.1992	249
348.215	41
353.1744	52
353.2139	41
354.1997	124
355.1954	343
355.2221	104
357.2105	135
358.1977	93
359.19	62
360.2148	135
367.2045	62
367.2288	52
369.2136	218
372.2234	72
373.2076	176
374.2287	72
383.2271	280
385.2196	52
385.2427	437
386.2281	41
387.2221	104
397.2479	72
399.2255	104
399.2573	218
401.2474	83
404.2338	72
411.2572	83
413.2445	72
427.2548	83
429.2725	208
