Mass spectrum: Indoxacarb; LC-ESI-QTOF; MS2; 20 V
Name: Indoxacarb
Class: Insecticide
Formula: C22H17ClF3N3O7
Exact mass: 527.0707
SMILES: COC(=O)[C@]12Cc3cc(ccc3C1=NN(CO2)C(=O)N(c4ccc(cc4)OC(F)(F)F)C(=O)OC)Cl
InChI: InChI=1S/C22H17ClF3N3O7/c1-33-18(30)21-10-12-9-13(23)3-8-16(12)17(21)27-28(11-35-21)19(31)29(20(32)34-2)14-4-6-15(7-5-14)36-22(24,25)26/h3-9H,10-11H2,1-2H3/t21-/m0/s1
Instrument: TripleTOF 5600 SCIEX
Instrument type: LC-ESI-QTOF
Ms type: MS2
Ion mode: POSITIVE
Collision energy: 20
Fragmentation mode: CID
Ionization: ESI
Column name: Zorbax Eclipse Plus C18 2.1 mm x 150 mm, 3.5 um, Agilent
Retention time: 15.019 min
Precursor m/z: 528.078
Precursor type: [M+H]+
m/z	relative intensity
45.0422	12
56.0199	13
75.0476	11
150.0113	256
178.0062	159
189.0214	18
190.0063	147
203.0195	36
206.0367	14
207.0288	15
214.0738	19
217.017	98
218.0422	348
219.0287	32
223.0163	159
235.0266	17
249.0425	667
262.033	24
263.0214	63
265.0377	75
267.053	75
281.0685	19
291.0594	43
293.0317	752
325.059	66
452.0626	78
484.0889	143
496.0521	448
498.0661	22
528.0773	999
