Mass spectrum: Flusilazole; LC-ESI-QTOF; MS2; 40 V
Name: Flusilazole
Class: Fungicide
Formula: C16H15F2N3Si
Exact mass: 315.1003
SMILES: C[Si](CN1C=NC=N1)(C2=CC=C(C=C2)F)C3=CC=C(C=C3)F
InChI: InChI=1S/C16H15F2N3Si/c1-22(12-21-11-19-10-20-21,15-6-2-13(17)3-7-15)16-8-4-14(18)5-9-16/h2-11H,12H2,1H3
Instrument: TripleTOF 6600 SCIEX
Instrument type: LC-ESI-QTOF
Ms type: MS2
Ion mode: POSITIVE
Collision energy: 40
Fragmentation mode: CID
Ionization: ESI
Column name: Zorbax Eclipse Plus C18 2.1 mm x 150 mm, 3.5 um, Agilent
Retention time: 12.729 min
Precursor m/z: 316.1076
Precursor type: [M+H]+
m/z	relative intensity
46.9742	13
77.0377	42
80.9958	65
91.0534	47
103.0536	19
105.0686	39
109.0439	47
115.0531	22
123.0048	28
125.0208	103
139.0522	12
141.0686	20
143.0112	20
149.0207	33
151.0373	137
152.0613	72
153.0686	12
157.0269	166
164.061	45
165.0692	999
166.0767	77
169.0466	30
170.0516	16
171.0428	42
178.0775	31
179.0845	21
181.0275	11
183.0597	83
184.0675	11
185.0751	120
199.0366	44
217.0275	33
219.0431	300
227.0681	44
231.0427	14
232.0509	17
247.0749	222
316.1074	35
