Mass spectrum: Azithromycin; LC-ESI-QTOF; MS2; 100 V
Name: Azithromycin
Class: Pharmaceutical
Formula: C38H72N2O12
Exact mass: 748.5085
SMILES: CC[C@H]1OC(=O)[C@H](C)[C@@H](O[C@H]2C[C@@](C)(OC)[C@@H](O)[C@H](C)O2)C(C)[C@@H](O[C@@H]3O[C@H](C)C[C@@H]([C@H]3O)N(C)C)[C@](C)(O)C[C@@H](C)CN(C)[C@H](C)[C@@H](O)[C@]1(C)O
InChI: InChI=1S/C38H72N2O12/c1-15-27-38(10,46)31(42)24(6)40(13)19-20(2)17-36(8,45)33(52-35-29(41)26(39(11)12)16-21(3)48-35)22(4)30(23(5)34(44)50-27)51-28-18-37(9,47-14)32(43)25(7)49-28/h20-33,35,41-43,45-46H,15-19H2,1-14H3/t20-,21-,22?,23-,24-,25+,26+,27-,28+,29-,30+,31-,32+,33-,35+,36-,37-,38-/m1/s1
Instrument: TripleTOF 5600 SCIEX
Instrument type: LC-ESI-QTOF
Ms type: MS2
Ion mode: POSITIVE
Collision energy: 100
Fragmentation mode: CID
Ionization: ESI
Column name: Zorbax Eclipse Plus C18 2.1 mm x 150 mm, 3.5 um, Agilent
Retention time: 6.249 min
Precursor m/z: 749.5158
Precursor type: [M+H]+
m/z	relative intensity
43.0251	17
45.0399	26
55.0586	103
57.0673	20
58.0692	38
59.0542	26
70.0685	23
72.0839	495
73.0587	17
79.0583	17
81.0719	47
83.0512	999
84.0814	56
85.0313	32
85.0643	11
87.0468	148
88.0779	121
98.0972	391
99.0818	23
99.1056	26
100.0781	35
105.0701	14
109.0653	20
113.0589	23
114.0908	14
116.077	59
116.1062	281
121.1008	41
123.121	17
125.0933	14
128.1103	14
138.1271	20
138.1357	17
140.1078	14
156.1368	29
158.1169	71
