Mass spectrum: Prochloraz; LC-ESI-QTOF; MS2; 90 V
Name: Prochloraz
Class: Fungicide
Formula: C15H16Cl3N3O2
Exact mass: 375.0308
SMILES: CCCN(CCOc1c(cc(cc1Cl)Cl)Cl)C(=O)n2ccnc2
InChI: InChI=1S/C15H16Cl3N3O2/c1-2-4-20(15(22)21-5-3-19-10-21)6-7-23-14-12(17)8-11(16)9-13(14)18/h3,5,8-10H,2,4,6-7H2,1H3
Instrument: TripleTOF 6600 SCIEX
Instrument type: LC-ESI-QTOF
Ms type: MS2
Ion mode: POSITIVE
Collision energy: 90
Fragmentation mode: CID
Ionization: ESI
Column name: Zorbax Eclipse Plus C18 2.1 mm x 150 mm, 3.5 um, Agilent
Retention time: 11.258 min
Precursor m/z: 376.0381
Precursor type: [M+H]+
m/z	relative intensity
39.0227	323
41.0388	633
42.0341	534
43.0542	351
44.0489	56
56.0495	408
63.023	112
70.0294	408
70.0658	422
72.9836	393
82.9448	633
89.0378	239
96.9832	182
97.9906	84
98.9992	239
106.945	605
107.9756	478
108.9833	168
110.9997	70
123.0004	182
124.0083	70
125.0146	323
130.9452	56
132.9601	450
142.9454	267
144.96	168
158.9757	70
161.9629	309
166.9208	999
172.967	84
179.9296	126
