Mass spectrum: Nadolol; LC-ESI-QTOF; MS2; 130 V
Name: Nadolol
Class: Pharmaceutical
Formula: C17H27NO4
Exact mass: 309.194
SMILES: CC(C)(C)NCC(COC1=CC=CC2=C1CC(C(C2)O)O)O
InChI: InChI=1S/C17H27NO4/c1-17(2,3)18-9-12(19)10-22-16-6-4-5-11-7-14(20)15(21)8-13(11)16/h4-6,12,14-15,18-21H,7-10H2,1-3H3
Instrument: TripleTOF 5600 SCIEX
Instrument type: LC-ESI-QTOF
Ms type: MS2
Ion mode: POSITIVE
Collision energy: 130
Fragmentation mode: CID
Ionization: ESI
Column name: Zorbax Eclipse Plus C18 2.1 mm x 150 mm, 3.5 um, Agilent
Retention time: 5.13 min
Precursor m/z: 310.2013
Precursor type: [M+H]+
m/z	relative intensity
50.0231	89
56.0577	149
57.0744	189
58.0708	79
62.0193	89
63.0279	139
65.0438	509
74.0174	69
75.0284	109
76.0362	79
77.0414	889
77.0604	79
77.0772	49
78.0486	229
87.0255	39
89.0394	349
89.0529	99
91.0559	369
101.0458	49
102.0479	209
103.0558	219
113.0393	49
114.0498	49
115.0547	999
126.046	109
127.0543	189
128.0624	229
131.0475	79
139.0561	69
150.0498	49
151.0522	39
152.0626	109
