Mass spectrum: Chlorpyrifos; LC-ESI-QTOF; MS2; 60 V
Name: Chlorpyrifos
Class: Insecticide
Formula: C9H11Cl3NO3PS
Exact mass: 348.9263
SMILES: CCO[P](=S)(OCC)Oc1nc(Cl)c(Cl)cc1Cl
InChI: InChI=1S/C9H11Cl3NO3PS/c1-3-14-17(18,15-4-2)16-9-7(11)5-6(10)8(12)13-9/h5H,3-4H2,1-2H3
Instrument: TripleTOF 5600 SCIEX
Instrument type: LC-ESI-QTOF
Ms type: MS2
Ion mode: POSITIVE
Collision energy: 60
Fragmentation mode: CID
Ionization: ESI
Column name: Zorbax Eclipse Plus C18 2.1 mm x 150 mm, 3.5 um, Agilent
Retention time: 16.34 min
Precursor m/z: 349.9336
Precursor type: [M+H]+
m/z	relative intensity
64.9823	14
78.9422	55
96.9525	999
106.9453	238
124.9821	38
133.956	264
143.9415	36
150.9181	29
161.9513	186
177.9281	25
179.9169	137
197.9276	396
211.8882	17
213.9038	39
