Mass spectrum: Prallethrin; LC-ESI-QTOF; MS2; 80 V
Name: Prallethrin
Class: Insecticide
Formula: C19H24O3
Exact mass: 300.1725
SMILES: CC1=C(C(=O)CC1OC(=O)C2C(C2(C)C)C=C(C)C)CC#C
InChI: InChI=1S/C19H24O3/c1-7-8-13-12(4)16(10-15(13)20)22-18(21)17-14(9-11(2)3)19(17,5)6/h1,9,14,16-17H,8,10H2,2-6H3
Instrument: TripleTOF 6600 SCIEX
Instrument type: LC-ESI-QTOF
Ms type: MS2
Ion mode: POSITIVE
Collision energy: 80
Fragmentation mode: CID
Ionization: ESI
Column name: Zorbax Eclipse Plus C18 2.1 mm x 150 mm, 3.5 um, Agilent
Retention time: 14.861 min
Precursor m/z: 301.1798
Precursor type: [M+H]+
m/z	relative intensity
39.0235	63
41.0391	60
43.018	18
49.0076	23
50.0157	83
51.0233	351
53.039	35
55.0549	24
63.0228	17
65.0391	78
67.0549	30
77.0392	999
78.0462	23
79.0547	211
81.0696	37
89.039	35
90.047	15
91.0546	58
93.0704	13
102.0468	15
103.0548	98
105.0448	29
105.0715	15
115.0544	46
128.0618	13
131.0483	10
