Mass spectrum: Terbutrynesulfoxide; LC-ESI-QTOF; MS2; 30 V
Name: Terbutrynesulfoxide
Class: Transformation_product; Herbicide; Pesticide; Transformation_product-Metabolite
Formula: C10H19N5OS
Exact mass: 257.131
SMILES: CCNC1=NC(=NC(=N1)S(=O)C)NC(C)(C)C
InChI: InChI=1S/C10H19N5OS/c1-6-11-7-12-8(15-10(2,3)4)14-9(13-7)17(5)16/h6H2,1-5H3,(H2,11,12,13,14,15)
Instrument: TripleTOF 5600 SCIEX
Instrument type: LC-ESI-QTOF
Ms type: MS2
Ion mode: POSITIVE
Collision energy: 30
Fragmentation mode: CID
Ionization: ESI
Column name: Zorbax Eclipse Plus C18 2.1 mm x 150 mm, 3.5 um, Agilent
Retention time: 8.816 min
Precursor m/z: 258.1383
Precursor type: [M+H]+
m/z	relative intensity
58.0741	21
68.0309	22
69.0148	30
71.0667	51
71.9956	13
83.0655	37
84.9906	14
86.04	175
89.0213	11
96.0601	60
97.044	46
112.0678	12
113.0193	43
114.015	94
114.0692	201
117.0505	51
127.0091	15
132.0244	37
138.0795	186
139.0865	116
140.0939	12
141.0243	108
142.0448	88
155.0396	192
156.0889	760
157.0182	60
160.0548	11
166.1102	14
180.1244	16
184.0656	999
185.0495	104
187.0529	216
195.1492	26
202.0757	234
240.1276	95
243.1142	71
258.1379	50
