Mass spectrum: Flumioxazin; LC-ESI-QTOF; MS2; 150 V
Name: Flumioxazin
Class: Herbicide; Fungicide
Formula: C19H15FN2O4
Exact mass: 354.1016
SMILES: C#CCN1c2cc(c(cc2OCC1=O)F)N3C(=O)C4=C(C3=O)CCCC4
InChI: InChI=1S/C19H15FN2O4/c1-2-7-21-15-9-14(13(20)8-16(15)26-10-17(21)23)22-18(24)11-5-3-4-6-12(11)19(22)25/h1,8-9H,3-7,10H2
Instrument: TripleTOF 6600 SCIEX
Instrument type: LC-ESI-QTOF
Ms type: MS2
Ion mode: POSITIVE
Collision energy: 150
Fragmentation mode: CID
Ionization: ESI
Column name: Zorbax Eclipse Plus C18 2.1 mm x 150 mm, 3.5 um, Agilent
Retention time: 11.704 min
Precursor m/z: 355.1089
Precursor type: [M+H]+
m/z	relative intensity
37.0081	166
51.022	999
57.0122	333
69.0108	166
73.0053	166
74.0137	499
75.0098	333
75.0222	832
76.0175	333
77.0378	666
79.0518	166
98.0011	166
98.0136	333
100.0232	166
