Mass spectrum: Metsulfuron-methyl; LC-ESI-QTOF; MS2; 90 V
Name: Metsulfuron-methyl
Formula: C14H15N5O6S
Exact mass: 381.0743
Instrument: TripleTOF 6600 SCIEX
Instrument type: LC-ESI-QTOF
Ms type: CID
Ion mode: POSITIVE
Collision energy: 90
Ionization: ESI
Column name: Zorbax Eclipse Plus C18 2.1 mm x 150 mm, 3.5 um, Agilent
Retention time: 9.15008 min
Precursor m/z: 382.0816
Precursor type: [M+H]+
m/z	relative intensity
39.0226	76
42.0348	153
43.0268	76
43.0291	76
51.0226	384
56.0494	384
58.0282	230
68.0237	0
69.0083	768
77.0378	999
83.0227	230
90.0333	384
92.0243	537
92.0342	76
102.0385	230
105.0344	0
130.0413	76
