Mass spectrum: O-desmethyl-metoprolol; LC-ESI-QTOF; MS2; 60 V
Name: O-desmethyl-metoprolol
Class: Pharmaceutical; Metabolite; Transformation_product; Transformation_product-Metabolite
Formula: C14H23NO3
Exact mass: 253.1678
SMILES: CC(C)NCC(O)COc1ccc(CCO)cc1
InChI: InChI=1S/C14H23NO3/c1-11(2)15-9-13(17)10-18-14-5-3-12(4-6-14)7-8-16/h3-6,11,13,15-17H,7-10H2,1-2H3
Instrument: TripleTOF 5600 SCIEX
Instrument type: LC-ESI-QTOF
Ms type: MS2
Ion mode: POSITIVE
Collision energy: 60
Fragmentation mode: CID
Ionization: ESI
Column name: Zorbax Eclipse Plus C18 2.1 mm x 150 mm, 3.5 um, Agilent
Retention time: 5.112 min
Precursor m/z: 254.1751
Precursor type: [M+H]+
m/z	relative intensity
43.0285	10
55.0243	12
56.0557	180
58.07	48
65.0423	55
72.0843	42
74.0628	56
77.0419	999
78.0499	14
79.0568	159
89.0402	13
91.056	566
93.0707	45
100.1135	12
102.0458	29
103.0547	366
104.0653	10
105.0457	15
105.0699	118
107.0486	27
115.0545	186
116.0621	87
117.0712	14
121.064	62
127.0547	14
128.0612	42
129.0717	24
131.0503	19
133.065	45
141.0691	10
144.0571	56
149.0711	29
