Mass spectrum: Iopamidol; LC-ESI-QTOF; MS2; 60 V
Name: Iopamidol
Class: Pharmaceutical
Formula: C17H22I3N3O8
Exact mass: 776.8541
SMILES: C[C@H](O)C(=O)Nc1c(I)c(C(=O)NC(CO)CO)c(I)c(C(=O)NC(CO)CO)c1I
InChI: InChI=1S/C17H22I3N3O8/c1-6(28)15(29)23-14-12(19)9(16(30)21-7(2-24)3-25)11(18)10(13(14)20)17(31)22-8(4-26)5-27/h6-8,24-28H,2-5H2,1H3,(H,21,30)(H,22,31)(H,23,29)/t6-/m0/s1
Instrument: TripleTOF 5600 SCIEX
Instrument type: LC-ESI-QTOF
Ms type: MS2
Ion mode: POSITIVE
Collision energy: 60
Fragmentation mode: CID
Ionization: ESI
Column name: Zorbax Eclipse Plus C18 2.1 mm x 150 mm, 3.5 um, Agilent
Retention time: 3.4 min
Precursor m/z: 777.8614
Precursor type: [M+H]+
m/z	relative intensity
313.9325	468
386.9464	124
386.9828	999
413.9724	124
422.8122	280
423.7916	249
439.8544	249
485.8347	187
496.8485	218
514.86	187
540.8703	218
541.8815	280
541.8986	187
558.89	561
