Mass spectrum: Ranitidine-N-oxide; LC-ESI-QTOF; MS2; 40 V
Name: Ranitidine-N-oxide
Class: Pharmaceutical; Transformation_product
Formula: C13H22N4O4S
Exact mass: 330.1362
InChI: InChI=1S/C13H22N4O4S/c1-14-13(8-16(18)19)15-6-7-22-10-12-5-4-11(21-12)9-17(2,3)20/h4-5,8,14-15H,6-7,9-10H2,1-3H3/b13-8+
Instrument: TripleTOF 5600 SCIEX
Instrument type: LC-ESI-QTOF
Ms type: CID
Ion mode: NEGATIVE
Collision energy: 40
Ionization: ESI
Column name: Zorbax Eclipse Plus C18 2.1 mm x 150 mm, 3.5 um, Agilent
Retention time: 4.879 min
Precursor m/z: 329.1289
Precursor type: [M-H]-
m/z	relative intensity
45.996	532
46.004	66
60.0083	133
93.0283	66
97.0122	66
116.0463	999
125.0079	532
126.0126	66
128.0411	133
142.0626	66
