Mass spectrum: Thiamine Disulfide; LC-ESI-QTOF; MS2; 130 V
Name: Thiamine Disulfide
Class: Pharmaceutical
Formula: C24H34N8O4S2
Exact mass: 562.2144
SMILES: CC1=NC=C(C(=N1)N)CN(C=O)C(=C(CCO)SSC(=C(C)N(CC2=CN=C(N=C2N)C)C=O)CCO)C
InChI: InChI=1S/C24H34N8O4S2/c1-15(31(13-35)11-19-9-27-17(3)29-23(19)25)21(5-7-33)37-38-22(6-8-34)16(2)32(14-36)12-20-10-28-18(4)30-24(20)26/h9-10,13-14,33-34H,5-8,11-12H2,1-4H3,(H2,25,27,29)(H2,26,28,30)
Instrument: TripleTOF 6600 SCIEX
Instrument type: LC-ESI-QTOF
Ms type: MS2
Ion mode: POSITIVE
Collision energy: 130
Fragmentation mode: CID
Ionization: ESI
Column name: Zorbax Eclipse Plus C18 2.1 mm x 150 mm, 3.5 um, Agilent
Retention time: 4.48 min
Precursor m/z: 563.2217
Precursor type: [M+H]+
m/z	relative intensity
39.0223	77
42.033	458
43.0167	48
52.0168	53
53.0378	28
54.0327	849
55.0407	999
56.0475	24
58.994	43
65.0371	77
66.0325	308
68.0493	28
69.0433	574
70.9931	48
77.0381	57
78.0325	43
79.0403	28
79.0523	24
80.0484	111
81.0437	830
82.0514	550
83.0587	86
84.0801	28
85.0099	43
87.0252	24
89.0379	24
91.0531	28
92.0495	28
93.0435	241
94.0508	19
94.0642	28
95.0592	125
96.0551	67
96.0675	28
97.0096	24
98.0031	28
99.0251	38
103.0266	19
104.0472	38
105.043	77
106.0513	28
107.0599	197
108.0546	106
109.0622	82
110.0696	574
110.9996	24
112.0202	149
113.0277	448
114.0351	48
117.0433	57
117.0547	19
118.0493	19
118.0636	43
119.0582	72
120.0549	57
122.0694	120
123.0776	429
124.018	19
124.0857	159
126.0366	178
128.0481	19
131.0597	86
132.0685	48
133.0734	62
134.0698	62
135.0651	67
142.0546	33
143.0599	28
144.0464	164
145.0744	62
146.0695	57
147.0781	86
148.0856	77
155.0596	24
156.0667	19
160.085	91
161.0814	77
162.0893	33
166.0414	28
172.0867	57
173.0942	62
175.0317	38
175.0974	24
189.1131	43
199.0956	33
231.0711	24
