Mass spectrum: Clomipramine; LC-ESI-QTOF; MS2; 40 V
Name: Clomipramine
Class: Pharmaceutical
Formula: C19H23ClN2
Exact mass: 314.155
SMILES: CN(C)CCCN1c2ccccc2CCc3c1cc(cc3)Cl
InChI: InChI=1S/C19H23ClN2/c1-21(2)12-5-13-22-18-7-4-3-6-15(18)8-9-16-10-11-17(20)14-19(16)22/h3-4,6-7,10-11,14H,5,8-9,12-13H2,1-2H3
Instrument: TripleTOF 6600 SCIEX
Instrument type: LC-ESI-QTOF
Ms type: MS2
Ion mode: POSITIVE
Collision energy: 40
Fragmentation mode: CID
Ionization: ESI
Column name: Zorbax Eclipse Plus C18 2.1 mm x 150 mm, 3.5 um, Agilent
Retention time: 2.1 min
Precursor m/z: 315.1624
Precursor type: [M+H]+
m/z	relative intensity
58.066	999
86.0959	923
227.0473	151
242.0713	80
