Mass spectrum: Metaflumizone; LC-ESI-QTOF; MS2; 70 V
Name: Metaflumizone
Class: Insecticide; Pharmaceutical
Formula: C24H16F6N4O2
Exact mass: 506.1177
SMILES: C1=CC(=CC(=C1)C(F)(F)F)C(=NNC(=O)NC2=CC=C(C=C2)OC(F)(F)F)CC3=CC=C(C=C3)C#N
InChI: InChI=1S/C24H16F6N4O2/c25-23(26,27)18-3-1-2-17(13-18)21(12-15-4-6-16(14-31)7-5-15)33-34-22(35)32-19-8-10-20(11-9-19)36-24(28,29)30/h1-11,13H,12H2,(H2,32,34,35)
Instrument: TripleTOF 6600 SCIEX
Instrument type: LC-ESI-QTOF
Ms type: MS2
Ion mode: NEGATIVE
Collision energy: 70
Fragmentation mode: CID
Ionization: ESI
Column name: Zorbax Eclipse Plus C18 2.1 mm x 150 mm, 3.5 um, Agilent
Retention time: 15.496 min
Precursor m/z: 505.1105
Precursor type: [M-H]-
m/z	relative intensity
84.9893	14
102.0339	228
115.0295	99
116.04	226
117.0452	470
126.0342	14
131.0603	24
137.0199	24
141.0457	467
145.026	25
157.0265	11
169.0265	11
171.0422	15
179.0425	19
199.0489	28
213.0584	12
214.0652	54
215.0622	12
225.0453	15
232.0561	23
234.0699	20
242.0715	41
245.0508	12
252.0633	12
272.0679	29
275.0811	11
280.0679	15
285.0645	999
300.0739	26
302.0917	43
