Mass spectrum: Lamotrigine; LC-ESI-QTOF; MS2; 110 V
Name: Lamotrigine
Class: Pharmaceutical
Formula: C9H7Cl2N5
Exact mass: 255.0079
SMILES: Nc1nnc(c(N)n1)c2cccc(Cl)c2Cl
InChI: InChI=1S/C9H7Cl2N5/c10-5-3-1-2-4(6(5)11)7-8(12)14-9(13)16-15-7/h1-3H,(H4,12,13,14,16)
Instrument: TripleTOF 5600 SCIEX
Instrument type: LC-ESI-QTOF
Ms type: MS2
Ion mode: POSITIVE
Collision energy: 110
Fragmentation mode: CID
Ionization: ESI
Column name: Zorbax Eclipse Plus C18 2.1 mm x 150 mm, 3.5 um, Agilent
Retention time: 6.024 min
Precursor m/z: 256.0151
Precursor type: [M+H]+
m/z	relative intensity
43.0374	684
58.0447	20
61.9841	16
62.0356	16
68.0282	29
71.9816	25
72.9861	214
73.0098	138
74.018	999
75.0127	25
75.0248	197
76.0205	29
77.0434	25
82.9471	37
83.9791	46
84.9864	29
85.0099	33
86.0175	50
87.0245	104
88.0205	41
88.0319	29
89.0393	88
95.9764	20
96.9848	54
98.001	16
98.0146	37
99.0107	293
100.0184	201
106.9459	58
108.9834	96
111.0006	29
123.0078	33
124.0217	25
132.9636	16
