Mass spectrum: Triclabendazole; LC-ESI-QTOF; MS2; 40 V
Name: Triclabendazole
Class: Pharmaceutical
Formula: C14H9Cl3N2OS
Exact mass: 357.9501
SMILES: CSc1[nH]c2cc(Cl)c(Oc3cccc(Cl)c3Cl)cc2n1
InChI: InChI=1S/C14H9Cl3N2OS/c1-21-14-18-9-5-8(16)12(6-10(9)19-14)20-11-4-2-3-7(15)13(11)17/h2-6H,1H3,(H,18,19)
Instrument: TripleTOF 5600 SCIEX
Instrument type: LC-ESI-QTOF
Ms type: MS2
Ion mode: POSITIVE
Collision energy: 40
Fragmentation mode: CID
Ionization: ESI
Column name: Zorbax Eclipse Plus C18 2.1 mm x 150 mm, 3.5 um, Agilent
Retention time: 13.11 min
Precursor m/z: 358.9574
Precursor type: [M+H]+
m/z	relative intensity
163.0335	39
165.0218	107
170.9778	80
182.9782	19
196.996	26
198.0017	80
198.9734	164
239.0278	25
242.0231	93
250.9902	131
272.9873	50
273.9965	886
275.9846	55
276.9935	114
280.9715	27
307.9578	41
308.9666	173
311.9598	31
343.9335	999
