Mass spectrum: Bixafen; LC-ESI-QTOF; MS2; 70 V
Name: Bixafen
Class: Fungicide
Formula: C18H12Cl2F3N3O
Exact mass: 413.031
SMILES: CN1C=C(C(=N1)C(F)F)C(=O)NC2=C(C=C(C=C2)F)C3=CC(=C(C=C3)Cl)Cl
InChI: InChI=1S/C18H12Cl2F3N3O/c1-26-8-12(16(25-26)17(22)23)18(27)24-15-5-3-10(21)7-11(15)9-2-4-13(19)14(20)6-9/h2-8,17H,1H3,(H,24,27)
Instrument: TripleTOF 6600 SCIEX
Instrument type: LC-ESI-QTOF
Ms type: MS2
Ion mode: POSITIVE
Collision energy: 70
Fragmentation mode: CID
Ionization: ESI
Column name: Zorbax Eclipse Plus C18 2.1 mm x 150 mm, 3.5 um, Agilent
Retention time: 13.359 min
Precursor m/z: 414.0382
Precursor type: [M+H]+
m/z	relative intensity
42.0338	55
82.0292	13
83.0294	10
109.0391	113
134.0318	12
139.03	40
159.0353	142
168.0353	26
169.0437	74
176.0496	11
193.0296	17
194.0389	45
195.0472	127
196.0538	155
197.052	16
199.0407	10
200.0499	13
201.0659	13
201.9955	12
203.005	36
204.0128	764
206.0422	30
207.0466	50
208.0542	148
211.0166	25
214.0478	12
215.0582	18
216.009	12
217.02	10
218.9742	12
219.0461	22
220.059	48
221.0614	58
222.0711	32
224.0506	11
227.0687	28
228.0638	10
228.0783	11
229.0078	999
229.0791	10
230.0159	70
231.0233	809
232.0521	116
233.0569	181
234.0575	104
235.0659	34
237.0316	12
241.0201	118
242.0149	104
243.024	36
244.0341	15
245.0584	29
245.9883	12
246.0706	158
247.0711	176
248.0795	45
249.0213	24
249.0818	19
249.9715	18
250.0277	34
250.9818	15
255.022	64
256.0305	88
256.0834	13
257.0287	18
259.058	30
260.0627	30
261.0663	54
262.0325	12
262.05	24
263.9785	105
264.0389	11
265.993	536
267.0249	48
268.031	245
269.0292	80
270.0321	108
274.0695	77
275.0807	90
275.9738	15
276.0758	39
276.9903	16
277.9941	23
279.0011	14
280.0231	41
281.0268	31
281.0387	12
282.0465	134
283.0412	69
284.0212	30
284.0436	28
289.9934	30
290.0477	17
290.9882	24
291.0539	28
291.9699	19
292.0122	12
293.0297	33
294.0362	14
295.0324	83
296.0378	110
297.0209	36
301.9912	96
302.0702	36
302.998	112
303.0769	138
303.9971	44
304.0863	68
305.0065	21
308.0271	29
309.026	12
309.0465	12
310.0496	154
311.0337	43
314.9861	16
316.006	28
317.0031	68
329.9978	42
331.0198	28
337.0395	14
338.0479	243
346.0335	23
374.0197	17
