Mass spectrum: Ethisterone; LC-ESI-QTOF; MS2; 140 V
Name: Ethisterone
Class: Pharmaceutical; Metabolite
Formula: C21H28O2
Exact mass: 312.2089
SMILES: C[C@]12CCC(=O)C=C1CC[C@@H]3[C@@H]2CC[C@@]4(C)[C@H]3CC[C@@]4(O)C#C
InChI: InChI=1S/C21H28O2/c1-4-21(23)12-9-18-16-6-5-14-13-15(22)7-10-19(14,2)17(16)8-11-20(18,21)3/h1,13,16-18,23H,5-12H2,2-3H3/t16-,17+,18+,19+,20+,21+/m1/s1
Instrument: TripleTOF 5600 SCIEX
Instrument type: LC-ESI-QTOF
Ms type: MS2
Ion mode: POSITIVE
Collision energy: 140
Fragmentation mode: CID
Ionization: ESI
Column name: Zorbax Eclipse Plus C18 2.1 mm x 150 mm, 3.5 um, Agilent
Retention time: 11.662 min
Precursor m/z: 313.2162
Precursor type: [M+H]+
m/z	relative intensity
43.0269	111
53.0437	45
55.022	32
55.0583	39
65.0426	378
66.0538	45
67.0578	45
74.0212	39
75.0235	39
76.0344	32
77.0417	999
77.0742	39
78.0515	84
79.0559	208
89.0393	111
89.0575	32
91.0554	267
97.0641	39
102.0469	91
103.0532	32
115.0547	365
115.0776	39
126.0471	45
127.0551	104
128.0635	182
139.0557	39
141.0714	32
151.0528	58
152.0624	124
163.0579	39
165.0715	52
