Mass spectrum: Carbamazepine; LC-ESI-QTOF; MS2; 10 V
Name: Carbamazepine
Class: Pharmaceutical
Formula: C15H12N2O
Exact mass: 236.095
SMILES: NC(=O)N1c2ccccc2C=Cc3ccccc13
InChI: InChI=1S/C15H12N2O/c16-15(18)17-13-7-3-1-5-11(13)9-10-12-6-2-4-8-14(12)17/h1-10H,(H2,16,18)
Instrument: TripleTOF 5600 SCIEX
Instrument type: LC-ESI-QTOF
Ms type: MS2
Ion mode: POSITIVE
Collision energy: 10
Fragmentation mode: CID
Ionization: ESI
Column name: Zorbax Eclipse Plus C18 2.1 mm x 150 mm, 3.5 um, Agilent
Retention time: 8.87 min
Precursor m/z: 237.1022
Precursor type: [M+H]+
m/z	relative intensity
194.0968	72
237.1023	999
