Mass spectrum: Disperse Yellow 9; LC-ESI-QTOF; MS2; 60 V
Name: Disperse Yellow 9
Formula: C12H10N4O4
Exact mass: 274.0702
SMILES: C1=CC(=CC=C1N)NC2=C(C=C(C=C2)[N+](=O)[O-])[N+](=O)[O-]
InChI: InChI=1S/C12H10N4O4/c13-8-1-3-9(4-2-8)14-11-6-5-10(15(17)18)7-12(11)16(19)20/h1-7,14H,13H2
Instrument: TripleTOF X500R SCIEX
Instrument type: LC-ESI-QTOF
Ms type: MS2
Ion mode: POSITIVE
Collision energy: 60
Fragmentation mode: CID
Ionization: ESI
Column name: Zorbax Eclipse Plus C18 2.1 mm x 150 mm, 3.5 um, Agilent
Retention time: 9.832 min
Precursor m/z: 275.0775
Precursor type: [M+H]+
m/z	relative intensity
80.0498	16
113.039	18
114.0355	33
115.0557	16
116.0496	44
117.0464	12
126.0471	22
127.0546	105
128.0505	90
129.0573	55
130.066	62
132.0691	11
137.0388	20
138.047	57
139.0549	108
140.0504	141
141.0456	49
142.0544	16
143.0613	46
151.0418	16
152.0498	18
153.0563	49
154.0656	276
155.07	108
156.0802	20
164.0503	152
165.0579	116
166.0523	29
166.0699	16
167.0631	58
168.063	82
169.0758	27
177.0458	25
178.0544	12
179.0615	27
180.0671	22
181.0769	999
182.0848	416
193.0628	22
194.0718	130
195.0798	20
