Mass spectrum: Indigo; LC-ESI-QTOF; MS2; 80 V
Name: Indigo
Formula: C16H10N2O2
Exact mass: 262.0742
SMILES: C1=CC=C2C(=C1)C(=C(N2)C3=NC4=CC=CC=C4C3=O)O
InChI: InChI=1S/C16H10N2O2/c19-15-9-5-1-3-7-11(9)17-13(15)14-16(20)10-6-2-4-8-12(10)18-14/h1-8,17,19H
Instrument: TripleTOF X500R SCIEX
Instrument type: LC-ESI-QTOF
Ms type: MS2
Ion mode: POSITIVE
Collision energy: 80
Fragmentation mode: CID
Ionization: ESI
Column name: Zorbax Eclipse Plus C18 2.1 mm x 150 mm, 3.5 um, Agilent
Retention time: 11.892 min
Precursor m/z: 263.0815
Precursor type: [M+H]+
m/z	relative intensity
50.0151	168
51.0231	999
63.0231	145
65.0404	56
76.0317	190
77.0393	954
89.0394	639
90.0469	190
102.0341	168
103.0426	44
104.0263	213
104.0498	213
105.0313	56
114.034	112
115.0513	112
116.0506	56
117.0591	89
127.0554	157
132.0444	44
139.053	145
140.0504	112
150.0466	145
151.0548	651
152.0637	426
153.0583	89
154.0656	78
162.0475	56
163.0546	370
164.0559	280
165.0706	145
177.0584	325
178.0662	426
179.071	89
188.0494	269
189.0581	157
190.0662	224
191.0676	56
192.0674	78
204.0686	67
205.0773	796
206.0888	56
215.061	78
