Mass spectrum: Tris(4-methylphenyl) phosphate; LC-ESI-QTOF; MS2; 110 V
Name: Tris(4-methylphenyl) phosphate
Class: Industrial_process
Formula: C21H21O4P
Exact mass: 368.1177
SMILES: CC1=CC=C(C=C1)OP(=O)(OC2=CC=C(C=C2)C)OC3=CC=C(C=C3)C
InChI: InChI=1S/C21H21O4P/c1-16-4-10-19(11-5-16)23-26(22,24-20-12-6-17(2)7-13-20)25-21-14-8-18(3)9-15-21/h4-15H,1-3H3
Instrument: TripleTOF 6600 SCIEX
Instrument type: LC-ESI-QTOF
Ms type: MS2
Ion mode: POSITIVE
Collision energy: 110
Fragmentation mode: CID
Ionization: ESI
Column name: Zorbax Eclipse Plus C18 2.1 mm x 150 mm, 3.5 um, Agilent
Retention time: 15.924 min
Precursor m/z: 369.125
Precursor type: [M+H]+
m/z	relative intensity
37.0064	26
38.0144	24
39.0223	204
41.0377	25
50.0142	17
51.022	50
61.0065	13
62.0141	30
63.0218	74
65.038	546
77.0378	123
78.0456	10
79.0528	14
89.0376	54
91.0536	96
107.0484	23
113.0379	15
115.0537	206
126.0465	16
127.0544	18
128.0613	26
139.0543	203
141.0694	16
150.0456	17
151.0543	51
152.0618	133
153.0699	12
162.0461	11
163.0547	264
164.0623	429
165.0706	999
166.0787	10
176.0625	41
177.07	20
178.0781	44
181.065	25
194.0721	36
195.0815	42
213.0706	12
226.0774	22
237.0714	45
238.0789	23
239.0874	71
250.0791	11
252.0956	24
