Mass spectrum: Enalaprilat; LC-ESI-QTOF; MS2; 20 V
Name: Enalaprilat
Class: Pharmaceutical; Metabolite; Transformation_product
Formula: C18H24N2O5
Exact mass: 348.1685
SMILES: CC(NC(CCc1ccccc1)C(O)=O)C(=O)C2CCCN2C(O)=O
InChI: InChI=1S/C18H24N2O5/c1-12(16(21)15-8-5-11-20(15)18(24)25)19-14(17(22)23)10-9-13-6-3-2-4-7-13/h2-4,6-7,12,14-15,19H,5,8-11H2,1H3,(H,22,23)(H,24,25)
Instrument: TripleTOF 5600 SCIEX
Instrument type: LC-ESI-QTOF
Ms type: MS2
Ion mode: POSITIVE
Collision energy: 20
Fragmentation mode: CID
Ionization: ESI
Column name: Zorbax Eclipse Plus C18 2.1 mm x 150 mm, 3.5 um, Agilent
Retention time: 5.842 min
Precursor m/z: 349.1758
Precursor type: [M+H]+
m/z	relative intensity
102.0542	26
116.0699	47
117.0678	21
134.0956	14
160.111	50
206.1168	587
303.1704	370
349.175	999
