Mass spectrum: Boscalid; LC-ESI-QTOF; MS2; 150 V
Name: Boscalid
Class: Fungicide
Formula: C18H12Cl2N2O
Exact mass: 342.0327
SMILES: C1=CC=C(C(=C1)C2=CC=C(C=C2)Cl)NC(=O)C3=C(N=CC=C3)Cl
InChI: InChI=1S/C18H12Cl2N2O/c19-13-9-7-12(8-10-13)14-4-1-2-6-16(14)22-18(23)15-5-3-11-21-17(15)20/h1-11H,(H,22,23)
Instrument: TripleTOF 6600 SCIEX
Instrument type: LC-ESI-QTOF
Ms type: MS2
Ion mode: POSITIVE
Collision energy: 150
Fragmentation mode: CID
Ionization: ESI
Column name: Zorbax Eclipse Plus C18 2.1 mm x 150 mm, 3.5 um, Agilent
Retention time: 12.31 min
Precursor m/z: 343.04
Precursor type: [M+H]+
m/z	relative intensity
49.0069	349
50.015	999
51.0227	649
52.0175	120
61.0065	60
61.9783	84
62.0153	96
63.0221	168
74.0143	240
75.0099	541
75.021	120
76.0179	541
76.0299	72
77.0386	72
78.0333	84
84.9829	60
85.0062	72
86.0153	108
87.0226	168
88.0168	84
89.0382	108
98.0141	252
99.0227	108
110.0133	96
111.0229	96
112.0168	60
113.0376	204
115.053	60
122.0145	180
123.0205	48
125.0362	96
137.0385	96
139.0542	120
140.0511	60
146.0147	72
149.039	108
150.0458	228
151.0532	72
161.0381	156
162.0446	96
163.053	240
164.049	72
174.0291	48
174.0444	84
175.0399	72
185.0387	132
186.0461	144
187.0532	324
188.0507	276
189.0733	60
197.0367	84
198.0437	156
199.0448	84
211.0417	72
212.0483	228
213.0572	96
214.062	108
