Mass spectrum: Praziquantel; LC-ESI-QTOF; MS2; 50 V
Name: Praziquantel
Class: Pharmaceutical
Formula: C19H24N2O2
Exact mass: 312.1838
SMILES: O=C1CN(CC2N1CCc3ccccc23)C(=O)C4CCCCC4
InChI: InChI=1S/C19H24N2O2/c22-18-13-20(19(23)15-7-2-1-3-8-15)12-17-16-9-5-4-6-14(16)10-11-21(17)18/h4-6,9,15,17H,1-3,7-8,10-13H2
Instrument: TripleTOF 5600 SCIEX
Instrument type: LC-ESI-QTOF
Ms type: MS2
Ion mode: POSITIVE
Collision energy: 50
Fragmentation mode: CID
Ionization: ESI
Column name: Zorbax Eclipse Plus C18 2.1 mm x 150 mm, 3.5 um, Agilent
Retention time: 10.768 min
Precursor m/z: 313.1911
Precursor type: [M+H]+
m/z	relative intensity
55.0599	719
72.0472	52
83.0874	902
105.0699	41
115.0526	38
117.0683	98
117.0819	13
127.0546	16
128.0611	57
128.0759	10
129.0696	326
130.0651	68
131.0722	71
132.0805	999
144.0787	82
145.0875	71
146.0952	375
158.0953	68
173.106	16
174.0907	905
175.1224	30
185.1056	27
203.116	139
