Mass spectrum: Dihydroxycarbazepine; LC-ESI-QTOF; MS2; 100 V
Name: Dihydroxycarbazepine
Class: Pharmaceutical; Metabolite
Formula: C15H14N2O3
Exact mass: 270.1004
SMILES: NC(=O)N1c2ccccc2C(O)C(O)c3ccccc13
InChI: InChI=1S/C15H14N2O3/c16-15(20)17-11-7-3-1-5-9(11)13(18)14(19)10-6-2-4-8-12(10)17/h1-8,13-14,18-19H,(H2,16,20)
Instrument: TripleTOF 5600 SCIEX
Instrument type: LC-ESI-QTOF
Ms type: MS2
Ion mode: POSITIVE
Collision energy: 100
Fragmentation mode: CID
Ionization: ESI
Column name: Zorbax Eclipse Plus C18 2.1 mm x 150 mm, 3.5 um, Agilent
Retention time: 6.663 min
Precursor m/z: 271.1077
Precursor type: [M+H]+
m/z	relative intensity
65.0417	12
74.0174	24
75.0249	111
76.0317	22
77.0408	220
77.0649	12
78.047	12
87.0242	12
89.0393	78
98.0144	12
99.0243	20
100.0316	20
101.0385	145
102.0329	12
102.0451	56
113.0367	62
114.0458	30
115.0537	82
116.0488	16
117.0568	12
125.0371	56
126.0456	173
127.0532	190
128.0492	200
129.0501	22
137.0374	12
138.0461	12
139.054	232
140.0494	173
141.0557	12
149.0372	20
150.0462	212
151.0536	689
152.0617	999
152.0881	20
153.0583	131
154.0652	36
162.0448	10
163.0529	82
164.057	64
165.0694	32
166.0638	121
167.0723	40
176.0518	28
177.0568	175
178.0652	665
179.0723	479
180.0801	343
188.048	12
189.0573	14
190.0649	52
191.0713	54
192.0796	14
