Mass spectrum: Ipconazole; LC-ESI-QTOF; MS2; 90 V
Name: Ipconazole
Class: Fungicide
Formula: C18H24ClN3O
Exact mass: 333.1608
SMILES: CC(C)C1CCC(C1(CN2C=NC=N2)O)CC3=CC=C(C=C3)Cl
InChI: InChI=1S/C18H24ClN3O/c1-13(2)17-8-5-15(9-14-3-6-16(19)7-4-14)18(17,23)10-22-12-20-11-21-22/h3-4,6-7,11-13,15,17,23H,5,8-10H2,1-2H3
Instrument: TripleTOF 6600 SCIEX
Instrument type: LC-ESI-QTOF
Ms type: MS2
Ion mode: POSITIVE
Collision energy: 90
Fragmentation mode: CID
Ionization: ESI
Column name: Zorbax Eclipse Plus C18 2.1 mm x 150 mm, 3.5 um, Agilent
Retention time: 13.862 min
Precursor m/z: 334.1681
Precursor type: [M+H]+
m/z	relative intensity
43.0291	104
63.0223	22
70.0399	999
72.9831	13
89.0379	108
90.0451	33
98.9985	54
115.0526	30
125.0142	108
128.0609	20
