Mass spectrum: Acetylsulfamethoxazole; LC-ESI-QTOF; MS2; 120 V
Name: Acetylsulfamethoxazole
Class: Metabolite; Pharmaceutical
Formula: C12H13N3O4S
Exact mass: 295.0627
SMILES: CC1=CC(=NO1)NS(=O)(=O)C2=CC=C(C=C2)NC(=O)C
InChI: InChI=1S/C12H13N3O4S/c1-8-7-12(14-19-8)15-20(17,18)11-5-3-10(4-6-11)13-9(2)16/h3-7H,1-2H3,(H,13,16)(H,14,15)
Instrument: TripleTOF 5600 SCIEX
Instrument type: LC-ESI-QTOF
Ms type: MS2
Ion mode: POSITIVE
Collision energy: 120
Fragmentation mode: CID
Ionization: ESI
Column name: Zorbax Eclipse Plus C18 2.1 mm x 150 mm, 3.5 um, Agilent
Retention time: 7.411 min
Precursor m/z: 296.07
Precursor type: [M+H]+
m/z	relative intensity
43.0322	337
65.0453	999
66.0387	49
66.0506	112
77.0443	374
78.0388	87
80.0539	399
92.0543	137
93.0604	149
