Mass spectrum: Acebutolol; LC-ESI-QTOF; MS2; 60 V
Name: Acebutolol
Class: Pharmaceutical
Formula: C18H28N2O4
Exact mass: 336.2049
SMILES: CCCC(=O)Nc1ccc(OCC(O)CNC(C)C)c(c1)C(C)=O
InChI: InChI=1S/C18H28N2O4/c1-5-6-18(23)20-14-7-8-17(16(9-14)13(4)21)24-11-15(22)10-19-12(2)3/h7-9,12,15,19,22H,5-6,10-11H2,1-4H3,(H,20,23)
Instrument: TripleTOF 5600 SCIEX
Instrument type: LC-ESI-QTOF
Ms type: MS2
Ion mode: POSITIVE
Collision energy: 60
Fragmentation mode: CID
Ionization: ESI
Column name: Zorbax Eclipse Plus C18 2.1 mm x 150 mm, 3.5 um, Agilent
Retention time: 5.965 min
Precursor m/z: 337.2122
Precursor type: [M+H]+
m/z	relative intensity
56.0563	999
57.0396	21
58.0706	98
65.0441	18
71.0518	35
72.0849	388
74.064	541
77.0414	18
79.0577	18
91.0556	13
92.052	21
93.0351	34
93.0578	19
93.0711	13
94.0667	31
98.0975	93
100.1121	34
103.0549	54
105.0707	15
106.0657	66
107.0746	11
108.0824	10
109.0522	26
110.0609	333
115.055	41
116.1075	282
117.0582	18
118.0653	25
119.0723	18
120.0812	260
122.0606	47
122.0989	21
127.0558	13
130.0654	62
131.0493	13
132.0814	27
133.0537	39
134.0604	29
134.0966	15
136.0385	17
136.0754	23
143.0733	10
144.0801	21
146.061	29
148.0755	156
150.0918	22
151.0631	21
160.0757	67
162.0899	10
180.1018	59
218.1188	10
