Mass spectrum: Fluroxypyr; LC-ESI-QTOF; MS2; 40 V
Name: Fluroxypyr
Class: Herbicide
Formula: C7H5Cl2FN2O3
Exact mass: 253.9661
SMILES: C(C(=O)O)OC1=NC(=C(C(=C1Cl)N)Cl)F
InChI: InChI=1S/C7H5Cl2FN2O3/c8-3-5(11)4(9)7(12-6(3)10)15-1-2(13)14/h1H2,(H2,11,12)(H,13,14)
Instrument: TripleTOF 6600 SCIEX
Instrument type: LC-ESI-QTOF
Ms type: MS2
Ion mode: POSITIVE
Collision energy: 40
Fragmentation mode: CID
Ionization: ESI
Column name: Zorbax Eclipse Plus C18 2.1 mm x 150 mm, 3.5 um, Agilent
Retention time: 8.859 min
Precursor m/z: 254.9734
Precursor type: [M+H]+
m/z	relative intensity
62.9625	16
66.9744	13
82.944	14
90.9744	57
97.9789	10
99.9954	11
106.9438	35
110.0255	22
111.0353	14
117.9845	90
118.9939	11
124.9352	48
124.9893	59
125.9968	27
129.9842	12
131.9392	10
133.9546	192
142.9797	26
143.9869	78
144.9961	346
146.0035	219
151.9458	227
152.9549	12
160.9661	442
163.0046	13
165.9657	11
172.9871	9
178.957	522
180.9727	999
196.9663	108
200.9269	23
208.9676	53
