Mass spectrum: 2-(5-Chloro-2-methoxyphenyl)-1H-benzimidazole; LC-ESI-QTOF; MS2; 60 V
Name: 2-(5-Chloro-2-methoxyphenyl)-1H-benzimidazole
Class: Pharmaceutical
Formula: C14H11ClN2O
Exact mass: 258.056
SMILES: COc1ccc(cc1c2[nH]c3ccccc3n2)Cl
InChI: InChI=1S/C14H11ClN2O/c1-18-13-7-6-9(15)8-10(13)14-16-11-4-2-3-5-12(11)17-14/h2-8H,1H3,(H,16,17)
Instrument: TripleTOF 5600 SCIEX
Instrument type: LC-ESI-QTOF
Ms type: MS2
Ion mode: POSITIVE
Collision energy: 60
Fragmentation mode: CID
Ionization: ESI
Column name: Zorbax Eclipse Plus C18 2.1 mm x 150 mm, 3.5 um, Agilent
Retention time: 7.374 min
Precursor m/z: 259.0633
Precursor type: [M+H]+
m/z	relative intensity
65.044	21
77.0423	40
90.0355	15
92.051	12
127.0545	52
128.0537	31
129.0692	13
153.0572	16
154.0658	119
155.0604	23
179.0604	39
180.068	72
181.077	999
203.0367	15
209.0714	12
215.0373	32
216.0451	164
244.0389	25
