Mass spectrum: 6PPD-quinone; LC-ESI-QTOF; MS2; 130 V
Name: 6PPD-quinone
Class: Industrial_process
Formula: C18H22N2O2
Exact mass: 298.1681
SMILES: CC(C)CC(C)NC1=CC(=O)C(=CC1=O)NC2=CC=CC=C2
InChI: InChI=1S/C18H22N2O2/c1-12(2)9-13(3)19-15-10-18(22)16(11-17(15)21)20-14-7-5-4-6-8-14/h4-8,10-13,19-20H,9H2,1-3H3
Instrument: TripleTOF 6600 SCIEX
Instrument type: LC-ESI-QTOF
Ms type: MS2
Ion mode: POSITIVE
Collision energy: 130
Fragmentation mode: CID
Ionization: ESI
Column name: Zorbax Eclipse Plus C18 2.1 mm x 150 mm, 3.5 um, Agilent
Retention time: 13.951 min
Precursor m/z: 299.1754
Precursor type: [M+H]+
m/z	relative intensity
39.0233	499
50.015	549
51.0229	999
63.0223	299
65.0387	299
75.0234	199
77.0385	699
89.0383	399
