Mass spectrum: Penconazol; LC-ESI-QTOF; MS2; 150 V
Name: Penconazol
Class: Fungicide
Formula: C13H15Cl2N3
Exact mass: 283.0643
SMILES: CCCC(CN1C=NC=N1)C2=C(C=C(C=C2)Cl)Cl
InChI: InChI=1S/C13H15Cl2N3/c1-2-3-10(7-18-9-16-8-17-18)12-5-4-11(14)6-13(12)15/h4-6,8-10H,2-3,7H2,1H3
Instrument: TripleTOF 6600 SCIEX
Instrument type: LC-ESI-QTOF
Ms type: MS2
Ion mode: POSITIVE
Collision energy: 150
Fragmentation mode: CID
Ionization: ESI
Column name: Zorbax Eclipse Plus C18 2.1 mm x 150 mm, 3.5 um, Agilent
Retention time: 12.845 min
Precursor m/z: 284.0716
Precursor type: [M+H]+
m/z	relative intensity
35.9998	25
37.0075	107
38.0154	92
39.0231	156
42.0214	47
43.0291	181
46.9683	187
48.9843	124
49.0071	54
50.0152	251
51.0231	130
59.9995	66
61.0075	557
62.0153	999
63.0232	875
70.04	73
71.9759	42
72.9844	577
73.0059	45
74.0152	550
75.0228	152
76.0311	36
77.0384	18
82.9447	74
83.976	20
83.9998	16
84.9847	13
85.0071	80
86.0147	125
87.0227	65
88.0309	26
89.0385	229
95.9759	10
96.9835	49
98.0151	37
98.9994	15
102.0464	16
106.9448	12
115.0534	10
122.9991	10
