Mass spectrum: Rifaximin; LC-ESI-QTOF; MS2; 140 V
Name: Rifaximin
Class: Pharmaceutical
Formula: C43H51N3O11
Exact mass: 785.3524
SMILES: CC1C=CC=C(C(=O)NC2=C(C3=C(C4=C(C(=C3O)C)OC(C4=O)(OC=CC(C(C(C(C(C(C1O)C)O)C)OC(=O)C)C)OC)C)C5=C2N6C=CC(=CC6=N5)C)O)C
InChI: InChI=1S/C43H51N3O11/c1-19-14-16-46-28(18-19)44-32-29-30-37(50)25(7)40-31(29)41(52)43(9,57-40)55-17-15-27(54-10)22(4)39(56-26(8)47)24(6)36(49)23(5)35(48)20(2)12-11-13-21(3)42(53)45-33(34(32)46)38(30)51/h11-18,20,22-24,27,35-36,39,48-51H,1-10H3,(H,45,53)
Instrument: TripleTOF 6600 SCIEX
Instrument type: LC-ESI-QTOF
Ms type: MS2
Ion mode: NEGATIVE
Collision energy: 140
Fragmentation mode: CID
Ionization: ESI
Column name: Zorbax Eclipse Plus C18 2.1 mm x 150 mm, 3.5 um, Agilent
Retention time: 11.765 min
Precursor m/z: 784.3451
Precursor type: [M-H]-
m/z	relative intensity
41.002	22
41.9972	35
59.0113	49
71.0109	17
107.0531	17
108.0439	26
121.0627	31
155.0328	22
156.0535	75
169.0492	35
171.0299	26
193.0742	31
195.0494	22
205.0682	22
217.0726	22
219.0561	22
219.0751	17
231.0887	35
232.0609	31
232.0841	22
233.0662	53
233.0792	17
233.0977	26
234.0763	49
235.0692	31
235.0809	40
236.0513	26
241.057	44
244.0797	31
245.0665	62
246.0775	26
247.0803	102
248.0784	26
249.0646	40
249.0869	115
250.0595	22
250.0942	80
252.022	22
252.0427	17
256.0873	22
257.0893	35
258.0745	26
258.0976	80
259.082	138
260.0801	89
261.0613	62
261.087	84
262.0699	182
262.093	165
263.0648	89
263.0816	35
265.0516	22
267.0343	22
271.0699	31
272.0805	84
273.0606	35
273.0873	62
274.066	62
274.0901	44
275.0783	124
276.078	356
276.114	26
277.081	338
278.0513	26
278.0911	151
279.071	57
280.0544	31
283.0857	31
284.0811	44
285.0862	89
286.0667	44
286.0943	160
287.0746	156
288.0723	182
288.1084	40
289.053	22
289.081	151
290.0585	44
290.0877	120
291.0984	75
292.0995	22
293.0525	26
298.0888	35
299.0385	17
299.0758	62
299.0986	17
300.0706	124
301.0552	35
301.0875	111
302.0618	49
302.0896	111
303.0707	93
304.068	138
304.1054	209
305.0849	93
306.0834	325
306.1025	26
312.0805	17
313.0774	40
314.0619	57
314.0911	120
315.072	142
315.0927	35
316.0676	222
317.0535	40
317.08	133
318.081	17
319.0677	35
319.1006	71
327.0637	26
327.0989	22
328.0708	124
329.0773	156
330.0833	999
331.0663	200
332.0708	26
332.0978	169
333.0815	75
333.0997	22
334.0765	89
340.1008	17
341.0802	53
342.084	62
343.0666	49
343.092	80
344.0587	84
344.074	26
344.0941	17
345.0817	298
346.0798	84
347.0985	71
350.0877	22
352.1072	35
353.1351	31
354.08	26
356.0628	26
357.0763	44
358.0772	214
359.0851	156
360.0939	227
362.1138	40
365.0862	31
370.08	57
371.1085	22
378.1213	22
379.0883	22
380.0999	40
382.1129	40
383.0978	31
384.1094	26
386.0766	26
392.0966	31
393.1099	22
394.1097	22
396.0941	22
408.1036	17
409.1085	40
410.1046	75
420.0872	22
421.1138	26
422.1062	49
