Mass spectrum: 3,3`-Dimethoxybenzidine; LC-ESI-QTOF; MS2; 100 V
Name: 3,3`-Dimethoxybenzidine
Formula: C14H16N2O2
Exact mass: 244.1212
SMILES: COC1=C(C=CC(=C1)C2=CC(=C(C=C2)N)OC)N
InChI: InChI=1S/C14H16N2O2/c1-17-13-7-9(3-5-11(13)15)10-4-6-12(16)14(8-10)18-2/h3-8H,15-16H2,1-2H3
Instrument: TripleTOF 6600 SCIEX
Instrument type: LC-ESI-QTOF
Ms type: MS2
Ion mode: POSITIVE
Collision energy: 100
Fragmentation mode: CID
Ionization: ESI
Column name: Zorbax Eclipse Plus C18 2.1 mm x 150 mm, 3.5 um, Agilent
Retention time: 5.188 min
Precursor m/z: 245.1285
Precursor type: [M+H]+
m/z	relative intensity
39.0235	55
50.0156	24
51.0223	136
52.018	31
62.0148	55
63.023	235
65.0379	173
74.0142	117
75.0228	198
76.0316	43
77.0384	452
78.0415	130
80.0482	130
81.0529	31
86.014	43
87.0224	86
88.03	37
89.0377	719
90.0453	99
91.0544	74
98.0118	31
99.0218	74
101.0378	74
102.0459	124
103.0532	148
104.0532	142
105.0542	37
109.052	37
113.0377	136
114.0468	155
115.0531	999
116.0494	124
117.0562	111
125.037	31
126.0452	105
127.0542	68
128.0504	49
129.0524	37
130.0645	192
131.0674	130
140.0488	235
141.0557	111
143.0558	24
151.0404	31
157.072	31
158.0838	31
