Mass spectrum: Tiamulin; LC-ESI-QTOF; MS2; 10 V
Name: Tiamulin
Class: Antimicrobial; Pharmaceutical
Formula: C28H47NO4S
Exact mass: 493.3226
SMILES: CCN(CC)CCSCC(=O)OC1CC(C(C(C23CCC(C1(C2C(=O)CC3)C)C)C)O)(C)C=C
InChI: InChI=1S/C28H47NO4S/c1-8-26(6)17-22(33-23(31)18-34-16-15-29(9-2)10-3)27(7)19(4)11-13-28(20(5)25(26)32)14-12-21(30)24(27)28/h8,19-20,22,24-25,32H,1,9-18H2,2-7H3
Instrument: TripleTOF 6600 SCIEX
Instrument type: LC-ESI-QTOF
Ms type: MS2
Ion mode: POSITIVE
Collision energy: 10
Fragmentation mode: CID
Ionization: ESI
Column name: Zorbax Eclipse Plus C18 2.1 mm x 150 mm, 3.5 um, Agilent
Retention time: 8.661 min
Precursor m/z: 494.3299
Precursor type: [M+H]+
m/z	relative intensity
494.3394	999
