Mass spectrum: Bosentan; LC-ESI-QTOF; MS2; 100 V
Name: Bosentan
Class: Pharmaceutical
Formula: C27H29N5O6S
Exact mass: 551.1839
SMILES: CC(C)(C)C1=CC=C(C=C1)S(=O)(=O)NC2=C(C(=NC(=N2)C3=NC=CC=N3)OCCO)OC4=CC=CC=C4OC
InChI: InChI=1S/C27H29N5O6S/c1-27(2,3)18-10-12-19(13-11-18)39(34,35)32-23-22(38-21-9-6-5-8-20(21)36-4)26(37-17-16-33)31-25(30-23)24-28-14-7-15-29-24/h5-15,33H,16-17H2,1-4H3,(H,30,31,32)
Instrument: TripleTOF 5600 SCIEX
Instrument type: LC-ESI-QTOF
Ms type: MS2
Ion mode: NEGATIVE
Collision energy: 100
Fragmentation mode: CID
Ionization: ESI
Column name: Zorbax Eclipse Plus C18 2.1 mm x 150 mm, 3.5 um, Agilent
Retention time: 12.118 min
Precursor m/z: 550.1766
Precursor type: [M-H]-
m/z	relative intensity
41.9979	282
63.9615	999
66.0095	217
89.0254	86
108.0212	108
116.0377	86
117.0476	86
117.0714	86
118.0318	369
119.0378	195
132.0344	456
133.0668	152
133.1026	434
134.0252	195
144.0319	86
149.0975	195
157.0763	217
158.0354	173
170.0398	65
171.0221	65
173.0343	86
173.051	65
197.0667	282
248.0559	65
277.0647	108
278.0667	130
286.1081	86
302.1015	65
394.1344	130
458.0883	238
458.1018	65
