Mass spectrum: Tris(2-butoxyethyl) phosphate; LC-ESI-QTOF; MS2; 110 V
Name: Tris(2-butoxyethyl) phosphate
Class: Industrial_process
Formula: C18H39O7P
Exact mass: 398.2433
SMILES: CCCCOCCOP(=O)(OCCOCCCC)OCCOCCCC
InChI: InChI=1S/C18H39O7P/c1-4-7-10-20-13-16-23-26(19,24-17-14-21-11-8-5-2)25-18-15-22-12-9-6-3/h4-18H2,1-3H3
Instrument: TripleTOF 6600 SCIEX
Instrument type: LC-ESI-QTOF
Ms type: MS2
Ion mode: POSITIVE
Collision energy: 110
Fragmentation mode: CID
Ionization: ESI
Column name: Zorbax Eclipse Plus C18 2.1 mm x 150 mm, 3.5 um, Agilent
Retention time: 14.631 min
Precursor m/z: 399.2506
Precursor type: [M+H]+
m/z	relative intensity
37.0071	59
38.0026	54
38.0146	54
39.0229	337
41.0385	347
42.0098	24
43.0178	94
45.0336	999
53.0129	29
55.054	89
57.0698	64
62.9628	94
80.9736	482
98.9842	159
