Mass spectrum: Dienogest Impurity G; LC-ESI-QTOF; MS2; 100 V
Name: Dienogest Impurity G
Class: Pharmaceutical
Formula: C20H23NO2
Exact mass: 309.1729
SMILES: CC12CC=C3C(C1CCC2(CC#N)O)CCC4=C3C=CC(=C4)O
InChI: InChI=1S/C20H23NO2/c1-19-8-6-16-15-5-3-14(22)12-13(15)2-4-17(16)18(19)7-9-20(19,23)10-11-21/h3,5-6,12,17-18,22-23H,2,4,7-10H2,1H3
Instrument: TripleTOF 6600 SCIEX
Instrument type: LC-ESI-QTOF
Ms type: MS2
Ion mode: POSITIVE
Collision energy: 100
Fragmentation mode: CID
Ionization: ESI
Column name: Zorbax Eclipse Plus C18 2.1 mm x 150 mm, 3.5 um, Agilent
Retention time: 9.956 min
Precursor m/z: 310.1802
Precursor type: [M+H]+
m/z	relative intensity
39.0221	67
41.0373	33
50.0146	49
51.0222	188
53.0374	41
55.0171	30
55.0538	15
63.0218	56
65.0377	154
66.0455	33
67.053	33
74.0146	18
75.0207	22
76.0303	15
77.0377	735
78.045	41
79.0536	192
81.069	18
89.0373	120
91.0527	222
94.0402	41
102.0451	52
103.0532	218
105.0438	22
105.0681	64
107.0476	86
115.0533	999
116.0615	135
117.0663	18
118.0406	15
126.0439	33
127.0529	150
128.06	331
129.0709	22
130.0644	22
131.047	105
139.0525	45
141.0696	45
144.0567	71
151.0527	41
152.06	143
153.0683	56
154.0623	26
155.0593	37
157.0642	33
163.0509	15
164.0606	33
165.0685	135
176.0629	33
177.0686	41
178.0749	45
181.0625	37
189.0685	45
200.064	15
202.0771	49
219.0824	18
