Mass spectrum: 4-Desmethyl-trimethoprim; LC-ESI-QTOF; MS2; 70 V
Name: 4-Desmethyl-trimethoprim
Class: Pharmaceutical
Formula: C13H16N4O3
Exact mass: 276.1222
SMILES: COC1=CC(=CC(=C1O)OC)CC2=CN=C(N=C2N)N
InChI: InChI=1S/C13H16N4O3/c1-19-9-4-7(5-10(20-2)11(9)18)3-8-6-16-13(15)17-12(8)14/h4-6,18H,3H2,1-2H3,(H4,14,15,16,17)
Instrument: TripleTOF 5600 SCIEX
Instrument type: LC-ESI-QTOF
Ms type: MS2
Ion mode: POSITIVE
Collision energy: 70
Fragmentation mode: CID
Ionization: ESI
Column name: Zorbax Eclipse Plus C18 2.1 mm x 150 mm, 3.5 um, Agilent
Retention time: 4.783 min
Precursor m/z: 277.1295
Precursor type: [M+H]+
m/z	relative intensity
41.0363	19
52.0255	26
54.0386	185
65.0459	52
67.0589	13
68.0405	92
69.05	29
77.0404	191
78.046	36
78.0558	16
79.0351	66
79.0547	26
80.0519	29
81.0468	999
83.0508	66
89.0422	59
91.0556	36
92.0499	52
93.0444	16
93.0606	13
94.0528	46
94.0651	86
95.0576	16
96.0547	33
101.0384	46
102.0329	29
102.0447	23
103.0534	59
104.0355	23
104.0494	148
105.0422	82
105.0534	19
106.0436	129
106.0645	13
107.0465	23
107.0595	33
108.0547	16
109.0487	59
110.0585	125
114.0325	26
115.0428	23
116.0481	95
117.0526	72
118.0445	33
118.0638	26
119.0612	95
120.0405	13
120.0569	29
121.0267	36
121.0748	36
122.058	16
123.0445	69
123.0661	469
123.0937	19
124.0739	49
128.0495	198
129.0431	105
130.0384	36
131.0604	115
131.0744	16
132.0462	69
132.0674	13
133.0595	13
133.0744	43
135.0655	33
141.0432	19
142.0473	19
143.0589	59
144.0518	95
145.0755	52
146.0705	135
147.0659	310
148.0349	16
148.0734	387
149.0252	56
149.0806	79
151.0382	33
153.0458	39
155.0592	13
156.0417	19
156.0522	62
157.043	33
157.0664	19
158.0672	43
159.0609	66
160.038	29
160.083	26
161.0807	125
163.0764	16
163.0984	29
167.0703	13
170.0712	125
171.0552	23
171.0717	13
172.0377	23
172.0747	49
173.081	66
174.0639	56
174.0812	23
175.0586	23
175.0938	33
176.0687	23
185.0813	56
186.0671	29
187.097	102
189.0721	16
191.0962	29
198.0647	19
200.0664	23
201.0784	23
203.0893	16
213.0745	19
219.0854	49
229.0714	36
230.0771	13
231.0828	19
259.078	13
