Mass spectrum: Cyclophosphamide; LC-ESI-QTOF; MS2; 40 V
Name: Cyclophosphamide
Class: Pharmaceutical
Formula: C7H15Cl2N2O2P
Exact mass: 260.0248
SMILES: C1CNP(=O)(OC1)N(CCCl)CCCl
InChI: InChI=1S/C7H15Cl2N2O2P/c8-2-5-11(6-3-9)14(12)10-4-1-7-13-14/h1-7H2,(H,10,12)
Instrument: TripleTOF 5600 SCIEX
Instrument type: LC-ESI-QTOF
Ms type: MS2
Ion mode: POSITIVE
Collision energy: 40
Fragmentation mode: CID
Ionization: ESI
Column name: Zorbax Eclipse Plus C18 2.1 mm x 150 mm, 3.5 um, Agilent
Retention time: 7.465 min
Precursor m/z: 261.0321
Precursor type: [M+H]+
m/z	relative intensity
44.0622	14
56.0591	166
58.0743	66
63.0075	246
70.0707	25
78.0156	60
91.9928	72
94.0073	45
102.0118	49
104.0276	39
106.0083	20
106.0436	158
111.9709	13
120.0218	295
140.0037	999
141.983	37
142.019	271
233.0005	20
