Mass spectrum: Dinoterb; LC-ESI-QTOF; MS2; 80 V
Name: Dinoterb
Class: Herbicide
Formula: C10H12N2O5
Exact mass: 240.0746
SMILES: CC(C)(C)C1=C(C(=CC(=C1)[N+](=O)[O-])[N+](=O)[O-])O
InChI: InChI=1S/C10H12N2O5/c1-10(2,3)7-4-6(11(14)15)5-8(9(7)13)12(16)17/h4-5,13H,1-3H3
Instrument: TripleTOF 6600 SCIEX
Instrument type: LC-ESI-QTOF
Ms type: MS2
Ion mode: NEGATIVE
Collision energy: 80
Fragmentation mode: CID
Ionization: ESI
Column name: Zorbax Eclipse Plus C18 2.1 mm x 150 mm, 3.5 um, Agilent
Retention time: 13.854 min
Precursor m/z: 239.0673
Precursor type: [M-H]-
m/z	relative intensity
41.0013	19
41.9964	16
45.9916	999
49.0062	25
62.0141	16
68.9947	16
93.0322	12
101.0365	38
104.023	38
109.0132	71
110.0208	22
117.0318	61
128.0483	19
130.0395	84
131.034	84
134.0224	188
145.0278	61
146.0345	71
147.0295	32
148.0373	470
149.0447	25
162.0154	12
176.0331	87
