Mass spectrum: Terbinafine; LC-ESI-QTOF; MS2; 30 V
Name: Terbinafine
Class: Pharmaceutical; Fungicide
Formula: C21H25N
Exact mass: 291.1987
SMILES: CN(C\C=C\C#CC(C)(C)C)Cc1cccc2ccccc12
InChI: InChI=1S/C21H25N/c1-21(2,3)15-8-5-9-16-22(4)17-19-13-10-12-18-11-6-7-14-20(18)19/h5-7,9-14H,16-17H2,1-4H3/b9-5+
Instrument: TripleTOF 5600 SCIEX
Instrument type: LC-ESI-QTOF
Ms type: MS2
Ion mode: POSITIVE
Collision energy: 30
Fragmentation mode: CID
Ionization: ESI
Column name: Zorbax Eclipse Plus C18 2.1 mm x 150 mm, 3.5 um, Agilent
Retention time: 9.655 min
Precursor m/z: 292.206
Precursor type: [M+H]+
m/z	relative intensity
77.0416	50
79.0568	39
91.0559	75
93.0719	230
105.0705	66
115.0548	60
121.101	14
141.0703	999
150.1274	14
170.096	44
179.0848	10
205.1008	21
261.1629	11
292.2056	15
