Mass spectrum: Omeprazole sulfide 5-carboxylic acid; LC-ESI-QTOF; MS2; 30 V
Name: Omeprazole sulfide 5-carboxylic acid
Class: Metabolite; Pharmaceutical
Formula: C17H17N3O4S
Exact mass: 359.094
SMILES: CC1=C(C(=CN=C1CSC2=NC3=C(N2)C=C(C=C3)OC)C(=O)O)OC
InChI: InChI=1S/C17H17N3O4S/c1-9-14(18-7-11(16(21)22)15(9)24-3)8-25-17-19-12-5-4-10(23-2)6-13(12)20-17/h4-7H,8H2,1-3H3,(H,19,20)(H,21,22)
Instrument: TripleTOF 5600 SCIEX
Instrument type: LC-ESI-QTOF
Ms type: MS2
Ion mode: POSITIVE
Collision energy: 30
Fragmentation mode: CID
Ionization: ESI
Column name: Zorbax Eclipse Plus C18 2.1 mm x 150 mm, 3.5 um, Agilent
Retention time: 5.75 min
Precursor m/z: 360.1013
Precursor type: [M+H]+
m/z	relative intensity
106.0626	12
107.0752	42
122.062	21
134.0494	38
135.0694	112
137.0855	10
149.0719	828
150.056	85
161.0721	43
163.0635	53
165.0113	11
168.0496	13
180.0389	105
180.0633	134
181.0738	151
212.0379	789
253.1194	68
265.0837	41
268.108	16
281.1128	34
309.1095	16
312.0956	40
326.1153	91
327.1222	802
328.072	10
360.102	999
