Mass spectrum: Trimethoprim; LC-ESI-QTOF; MS2; 150 V
Name: Trimethoprim
Class: Pharmaceutical
Formula: C14H18N4O3
Exact mass: 290.1379
SMILES: COC1=CC(=CC(=C1OC)OC)CC2=CN=C(N=C2N)N
InChI: InChI=1S/C14H18N4O3/c1-19-10-5-8(6-11(20-2)12(10)21-3)4-9-7-17-14(16)18-13(9)15/h5-7H,4H2,1-3H3,(H4,15,16,17,18)
Instrument: TripleTOF 5600 SCIEX
Instrument type: LC-ESI-QTOF
Ms type: MS2
Ion mode: POSITIVE
Collision energy: 150
Fragmentation mode: CID
Ionization: ESI
Column name: Zorbax Eclipse Plus C18 2.1 mm x 150 mm, 3.5 um, Agilent
Retention time: 5.112 min
Precursor m/z: 291.1452
Precursor type: [M+H]+
m/z	relative intensity
37.0068	103
38.015	77
39.0225	311
41.025	129
43.0287	583
49.0071	90
50.0146	493
51.0226	999
52.0179	493
52.0298	77
53.0022	90
53.0125	64
53.0386	77
54.0342	441
55.0415	90
61.0069	220
62.0152	376
63.0227	947
64.0183	415
64.0317	64
65.038	531
66.0334	103
66.0463	64
67.0283	90
67.0405	90
68.0237	77
74.0147	505
75.0094	194
75.0225	713
76.0168	467
76.0302	90
77.0386	493
78.0334	233
79.0292	77
80.0483	103
81.0448	103
87.0249	90
88.0173	116
88.0325	64
89.0377	389
90.0329	259
91.0299	90
91.0402	64
92.0483	129
98.0136	90
99.0091	51
100.0187	103
101.0286	77
102.0331	207
103.0292	103
104.0486	51
105.0455	103
114.0334	103
117.0445	116
118.0391	181
