Mass spectrum: Trioctylphosphine oxide; LC-ESI-QTOF; MS2; 140 V
Name: Trioctylphosphine oxide
Class: Industrial_process
Formula: C24H51OP
Exact mass: 386.3678
SMILES: CCCCCCCCP(=O)(CCCCCCCC)CCCCCCCC
InChI: InChI=1S/C24H51OP/c1-4-7-10-13-16-19-22-26(25,23-20-17-14-11-8-5-2)24-21-18-15-12-9-6-3/h4-24H2,1-3H3
Instrument: TripleTOF 5600 SCIEX
Instrument type: LC-ESI-QTOF
Ms type: MS2
Ion mode: POSITIVE
Collision energy: 140
Fragmentation mode: CID
Ionization: ESI
Column name: Zorbax Eclipse Plus C18 2.1 mm x 150 mm, 3.5 um, Agilent
Retention time: 22.9 min
Precursor m/z: 387.375
Precursor type: [M+H]+
m/z	relative intensity
37.0205	13
43.9912	10
45.0014	138
50	10
56.9963	37
59.0122	12
61.0286	10
63.0073	999
64.0142	106
65.022	15
71.0106	15
72.0201	20
73.0258	18
75.0053	72
77.0209	299
78.0283	114
89.0195	13
90.0258	10
91.0348	40
92.0416	20
103.034	15
105.0477	10
117.0495	16
