Mass spectrum: Methyl-N-phenylcarbamate; LC-ESI-QTOF; MS2; 20 V
Name: Methyl-N-phenylcarbamate
Formula: C8H9NO2
Exact mass: 151.0633
SMILES: COC(=O)NC1=CC=CC=C1
InChI: InChI=1S/C8H9NO2/c1-11-8(10)9-7-5-3-2-4-6-7/h2-6H,1H3,(H,9,10)
Instrument: TripleTOF 5600 SCIEX
Instrument type: LC-ESI-QTOF
Ms type: MS2
Ion mode: POSITIVE
Collision energy: 20
Fragmentation mode: CID
Ionization: ESI
Column name: Zorbax Eclipse Plus C18 2.1 mm x 150 mm, 3.5 um, Agilent
Retention time: 8.469 min
Precursor m/z: 152.0706
Precursor type: [M+H]+
m/z	relative intensity
59.0134	10
77.0387	183
92.0496	381
93.0574	48
120.0444	999
152.0705	79
