Mass spectrum: Flecainide; LC-ESI-QTOF; MS2; 100 V
Name: Flecainide
Class: Pharmaceutical
Formula: C17H20F6N2O3
Exact mass: 414.1378
SMILES: FC(F)(F)COc1ccc(OCC(F)(F)F)c(c1)C(=O)NCC2CCCCN2
InChI: InChI=1S/C17H20F6N2O3/c18-16(19,20)9-27-12-4-5-14(28-10-17(21,22)23)13(7-12)15(26)25-8-11-3-1-2-6-24-11/h4-5,7,11,24H,1-3,6,8-10H2,(H,25,26)
Instrument: TripleTOF 5600 SCIEX
Instrument type: LC-ESI-QTOF
Ms type: MS2
Ion mode: POSITIVE
Collision energy: 100
Fragmentation mode: CID
Ionization: ESI
Column name: Zorbax Eclipse Plus C18 2.1 mm x 150 mm, 3.5 um, Agilent
Retention time: 7.983 min
Precursor m/z: 415.1451
Precursor type: [M+H]+
m/z	relative intensity
44.0576	74
51.0298	210
53.0082	20
55.0599	39
56.0545	59
57.0185	10
63.0091	10
64.0337	26
65.042	24
66.05	10
68.0543	10
69.0723	13
70.0673	22
71.0311	14
77.0411	96
79.0209	999
79.0563	55
79.0657	17
81.0723	78
82.0251	12
82.067	58
83.0129	249
83.0291	78
84.082	90
88.0128	16
92.0269	53
95.0292	33
96.0805	13
98.0969	71
99.0245	220
101.02	63
105.0324	11
107.0131	743
107.0408	11
110.0165	12
111.0234	11
113.0188	11
114.0272	159
127.0185	171
129.0149	17
135.0071	190
142.0224	18
143.0299	16
145.0259	12
171.0265	15
181.0255	32
190.0213	22
209.0206	56
225.0337	26
