Mass spectrum: Oxycodone; LC-ESI-QTOF; MS2; 70 V
Name: Oxycodone
Class: Pharmaceutical
Formula: C18H21NO4
Exact mass: 315.1471
SMILES: CN1CCC23C4C(=O)CCC2(C1CC5=C3C(=C(C=C5)OC)O4)O
InChI: InChI=1S/C18H21NO4/c1-19-8-7-17-14-10-3-4-12(22-2)15(14)23-16(17)11(20)5-6-18(17,21)13(19)9-10/h3-4,13,16,21H,5-9H2,1-2H3
Instrument: TripleTOF 6600 SCIEX
Instrument type: LC-ESI-QTOF
Ms type: MS2
Ion mode: POSITIVE
Collision energy: 70
Fragmentation mode: CID
Ionization: ESI
Column name: Zorbax Eclipse Plus C18 2.1 mm x 150 mm, 3.5 um, Agilent
Retention time: 5.206 min
Precursor m/z: 316.1543
Precursor type: [M+H]+
m/z	relative intensity
42.0327	69
44.0489	35
55.016	16
65.0383	35
70.0639	9
77.0371	125
78.0446	53
79.0549	26
80.0484	18
82.0641	19
89.0373	53
91.0532	113
93.057	23
94.0632	57
101.0362	15
102.0455	91
103.0528	152
104.061	56
105.0682	30
108.082	10
114.0446	19
115.0531	563
116.06	81
117.0318	11
117.0565	56
118.0388	40
118.0641	26
126.046	25
127.0532	265
128.0607	535
129.0678	173
130.0396	10
130.0641	45
131.0479	372
131.0702	30
131.0846	11
132.0557	215
132.0795	105
133.0635	22
139.0524	107
140.0589	71
141.0685	358
142.0748	71
143.0482	29
143.0716	70
144.0561	154
144.077	42
145.0645	39
146.0348	34
146.0567	10
151.0536	100
152.0607	612
153.0684	423
154.064	296
155.0481	137
155.0695	246
156.0564	54
156.0791	51
157.0627	68
157.0868	22
158.0703	44
158.0932	15
159.0434	53
159.077	53
160.0504	94
160.0749	40
161.056	29
163.052	18
164.0603	29
165.0684	300
166.0644	211
167.0476	13
167.0724	249
168.0561	80
168.0791	646
169.0655	101
169.0867	671
170.0333	20
170.0678	66
170.0935	230
171.0431	45
171.0812	79
172.05	29
172.0734	22
172.0862	11
173.0583	10
174.0906	14
175.0738	133
176.0608	44
177.0688	45
178.0766	128
179.0758	84
180.0795	248
181.0664	210
181.0869	999
182.0631	157
182.0948	179
183.0428	104
183.067	240
183.1012	29
184.0502	181
184.0713	114
184.1096	115
185.0578	67
185.085	22
186.0608	18
186.0873	17
187.0748	13
189.0682	31
191.0716	34
192.0811	45
193.0631	20
193.0875	37
194.0638	38
194.0957	211
195.0744	76
195.103	32
196.0492	18
196.0745	296
196.1103	50
197.0587	63
197.0825	547
198.0634	68
198.0907	333
199.0713	95
200.0739	19
202.0832	15
204.0802	42
205.0656	21
205.0855	25
206.063	31
206.0979	17
207.0723	40
208.0738	75
208.1117	35
209.0584	28
209.0803	59
210.0552	61
210.0899	171
211.0635	248
211.0969	83
212.0719	86
212.1061	820
213.0852	56
213.109	27
214.0854	47
215.0896	14
218.0957	38
220.0738	20
220.1114	29
221.0837	49
222.0903	81
223.0706	16
223.0936	33
224.0684	90
224.1052	62
225.0774	221
226.0845	432
226.1223	9
227.0927	25
228.1027	14
234.087	23
235.0869	13
236.077	16
236.1035	35
237.0686	16
238.0838	101
238.1193	19
239.0899	41
239.1005	28
240.0675	10
240.1004	216
241.1098	59
248.0671	16
249.0796	15
250.0824	20
251.1003	9
252.101	16
254.0866	16
254.1167	41
264.1022	45
266.1142	16
268.0983	10
