Mass spectrum: 2-[(Dimethylamino)methyl]benzonitrile; LC-ESI-QTOF; MS2; 80 V
Name: 2-[(Dimethylamino)methyl]benzonitrile
Formula: C10H12N2
Exact mass: 160.1
SMILES: CN(C)CC1=CC=CC=C1C#N
InChI: InChI=1S/C10H12N2/c1-12(2)8-10-6-4-3-5-9(10)7-11/h3-6H,8H2,1-2H3
Instrument: TripleTOF X500R SCIEX
Instrument type: LC-ESI-QTOF
Ms type: MS2
Ion mode: POSITIVE
Collision energy: 80
Fragmentation mode: CID
Ionization: ESI
Column name: Zorbax Eclipse Plus C18 2.1 mm x 150 mm, 3.5 um, Agilent
Retention time: 4.371 min
Precursor m/z: 161.1073
Precursor type: [M+H]+
m/z	relative intensity
37.0075	302
38.015	172
39.0229	661
40.0182	29
41.0387	22
44.0494	113
50.0154	68
51.0228	33
61.0072	144
62.0149	454
63.023	999
64.0181	253
65.0388	31
87.0129	20
88.0185	22
89.0387	231
90.0345	31
