Mass spectrum: Pyridoxine; LC-ESI-QTOF; MS2; 40 V
Name: Pyridoxine
Formula: C8H11NO3
Exact mass: 169.0739
SMILES: OC1=C(C)N=CC(CO)=C1CO
InChI: InChI=1S/C8H11NO3/c1-5-8(12)7(4-11)6(3-10)2-9-5/h2,10-12H,3-4H2,1H3
Instrument: TripleTOF 5600 SCIEX
Instrument type: LC-ESI-QTOF
Ms type: MS2
Ion mode: POSITIVE
Collision energy: 40
Fragmentation mode: CID
Ionization: ESI
Column name: Zorbax Eclipse Plus C18 2.1 mm x 150 mm, 3.5 um, Agilent
Retention time: 2.11 min
Precursor m/z: 170.0812
Precursor type: [M+H]+
m/z	relative intensity
39.0232	15
42.0343	11
51.0232	39
53.0384	28
65.0392	68
66.0461	22
67.0416	20
77.0386	337
78.0333	33
79.0543	156
80.0498	131
81.0581	87
82.0652	12
93.0571	12
94.0652	88
95.0733	12
96.0812	39
106.0653	152
107.0739	11
108.0461	25
122.0627	20
123.0679	31
124.075	101
134.0601	999
137.049	15
152.071	182
