Mass spectrum: Uric acid; LC-ESI-QTOF; MS2; 30 V
Name: Uric acid
Class: Natural_product
Formula: C5H4N4O3
Exact mass: 168.0283
SMILES: O=C1C2=C(NC(N2)=O)NC(N1)=O
InChI: InChI=1S/C5H4N4O3/c10-3-1-2(7-4(11)6-1)8-5(12)9-3/h(H4,6,7,8,9,10,11,12)
Instrument: TripleTOF 5600 SCIEX
Instrument type: LC-ESI-QTOF
Ms type: MS2
Ion mode: POSITIVE
Collision energy: 30
Fragmentation mode: CID
Ionization: ESI
Column name: Zorbax Eclipse Plus C18 2.1 mm x 150 mm, 3.5 um, Agilent
Retention time: 2.079 min
Precursor m/z: 169.0356
Precursor type: [M+H]+
m/z	relative intensity
43.0288	330
44.0133	36
53.0129	84
55.0286	282
69.0079	144
69.9956	30
70.0394	547
96.0191	523
98.0342	451
124.0144	174
126.0287	716
141.0408	999
151.0245	102
152.0087	752
169.0346	318
