Mass spectrum: Mitomycin C; LC-ESI-QTOF; MS2; 90 V
Name: Mitomycin C
Class: Pharmaceutical
Formula: C15H18N4O5
Exact mass: 334.1277
SMILES: CO[C@@]12[C@H](COC(N)=O)C3=C(N1C[C@@H]4N[C@H]24)C(=O)C(=C(N)C3=O)C
InChI: InChI=1S/C15H18N4O5/c1-5-9(16)12(21)8-6(4-24-14(17)22)15(23-2)13-7(18-13)3-19(15)10(8)11(5)20/h6-7,13,18H,3-4,16H2,1-2H3,(H2,17,22)/t6-,7+,13+,15-/m1/s1
Instrument: TripleTOF 5600 SCIEX
Instrument type: LC-ESI-QTOF
Ms type: MS2
Ion mode: POSITIVE
Collision energy: 90
Fragmentation mode: CID
Ionization: ESI
Column name: Zorbax Eclipse Plus C18 2.1 mm x 150 mm, 3.5 um, Agilent
Retention time: 5.588 min
Precursor m/z: 335.135
Precursor type: [M+H]+
m/z	relative intensity
65.0447	134
77.0384	621
78.0345	260
79.0524	58
80.0496	83
89.0381	251
90.0467	83
91.0521	117
92.0484	134
93.0591	67
101.0375	50
103.0392	58
103.0518	67
104.0472	520
105.0433	125
106.0618	125
113.032	58
114.0407	75
115.0359	67
115.0499	159
116.0441	226
117.0527	319
118.0536	235
119.0577	67
120.0411	50
128.0431	151
129.0442	109
130.0583	260
131.0535	999
132.061	209
133.0713	58
140.0425	92
141.0497	176
142.0449	109
142.0579	117
143.0531	176
144.0594	50
145.0715	83
155.0494	285
156.0578	218
157.0653	285
167.0492	58
168.0554	201
169.0621	260
170.0601	193
171.0779	50
184.0686	50
185.0529	67
213.0571	67
