Mass spectrum: Cyanazine; LC-ESI-QTOF; MS2; 40 V
Name: Cyanazine
Class: Herbicide
Formula: C9H13ClN6
Exact mass: 240.089
SMILES: CCNc1nc(Cl)nc(NC(C)(C)C#N)n1
InChI: InChI=1S/C9H13ClN6/c1-4-12-7-13-6(10)14-8(15-7)16-9(2,3)5-11/h4H2,1-3H3,(H2,12,13,14,15,16)
Instrument: TripleTOF 5600 SCIEX
Instrument type: LC-ESI-QTOF
Ms type: MS2
Ion mode: POSITIVE
Collision energy: 40
Fragmentation mode: CID
Ionization: ESI
Column name: Zorbax Eclipse Plus C18 2.1 mm x 150 mm, 3.5 um, Agilent
Retention time: 9.107 min
Precursor m/z: 241.0963
Precursor type: [M+H]+
m/z	relative intensity
43.0376	80
43.0594	10
58.0696	15
61.9829	133
68.0288	504
71.0644	229
79.0083	129
83.0624	124
90.0112	33
95.0615	12
96.0568	311
104.0016	571
104.0465	12
108.0553	26
110.046	33
110.0705	68
111.0782	12
119.0366	75
132.0323	287
136.0863	129
138.0772	28
144.0332	26
146.0218	84
150.0786	14
163.0977	21
173.0596	56
174.0548	150
177.0881	24
178.1088	45
186.054	35
205.1196	66
214.0856	999
241.0954	215
