Mass spectrum: Citalopram; LC-ESI-QTOF; MS2; 110 V
Name: Citalopram
Class: Pharmaceutical
Formula: C20H21FN2O
Exact mass: 324.1638
SMILES: CN(C)CCCC1(OCc2cc(ccc12)C#N)c3ccc(F)cc3
InChI: InChI=1S/C20H21FN2O/c1-23(2)11-3-10-20(17-5-7-18(21)8-6-17)19-9-4-15(13-22)12-16(19)14-24-20/h4-9,12H,3,10-11,14H2,1-2H3
Instrument: TripleTOF 5600 SCIEX
Instrument type: LC-ESI-QTOF
Ms type: MS2
Ion mode: POSITIVE
Collision energy: 110
Fragmentation mode: CID
Ionization: ESI
Column name: Zorbax Eclipse Plus C18 2.1 mm x 150 mm, 3.5 um, Agilent
Retention time: 7.757 min
Precursor m/z: 325.1711
Precursor type: [M+H]+
m/z	relative intensity
42.0435	27
51.03	28
57.0197	280
58.0705	122
59.0345	66
65.0426	27
74.0187	78
75.0265	173
77.0418	127
81.0166	29
83.0328	999
86.0169	20
87.0255	62
88.0195	20
89.0411	377
90.0351	36
94.0235	10
95.0295	40
96.0381	14
98.0166	38
99.0238	51
100.032	13
101.0392	37
102.0464	18
107.029	42
109.0456	434
111.0234	13
113.0392	196
114.0345	57
115.0543	61
116.0499	43
120.0374	36
122.0151	24
123.023	48
125.0381	22
126.0461	42
127.0544	63
128.0613	45
131.0298	18
133.0453	105
137.0393	31
138.0369	10
139.055	48
140.0496	202
144.0369	47
145.0459	12
146.0533	26
147.0228	20
148.029	19
149.0389	79
150.0465	101
151.0523	33
152.062	16
155.0295	15
157.0445	54
158.0412	26
161.039	67
162.0452	53
163.054	156
164.05	84
167.0304	32
168.0378	145
169.0458	76
170.0531	77
173.0402	37
174.0461	160
175.0488	91
176.0578	47
177.0577	27
179.0288	18
180.0369	39
181.045	262
182.0462	79
183.0613	30
185.0383	18
186.0459	51
187.054	197
188.051	182
189.0634	54
190.0655	44
192.0375	89
193.0425	73
194.0531	136
195.0478	52
197.0393	28
198.0468	211
199.0529	273
200.061	215
201.0581	80
202.0725	19
204.0367	20
205.0453	169
206.0461	111
207.0599	152
208.0562	177
211.0534	81
212.0517	130
213.0695	141
214.0647	71
216.0377	43
217.0459	131
218.0537	621
219.0537	210
220.0679	100
221.0638	35
223.0442	36
224.0499	82
225.0574	252
226.065	42
227.0731	33
229.0438	11
230.0417	46
231.0591	134
232.0567	102
233.0752	28
238.0652	105
239.0727	10
240.0807	20
242.0542	29
243.048	100
244.0568	137
245.0642	336
256.0563	29
258.0721	47
