Mass spectrum: Climbazole; LC-ESI-QTOF; MS2; 40 V
Name: Climbazole
Class: Pharmaceutical; Personal_care_product
Formula: C15H17ClN2O2
Exact mass: 292.0979
SMILES: CC(C)(C)C(=O)C(Oc1ccc(Cl)cc1)n2ccnc2
InChI: InChI=1S/C15H17ClN2O2/c1-15(2,3)13(19)14(18-9-8-17-10-18)20-12-6-4-11(16)5-7-12/h4-10,14H,1-3H3
Instrument: TripleTOF 5600 SCIEX
Instrument type: LC-ESI-QTOF
Ms type: MS2
Ion mode: POSITIVE
Collision energy: 40
Fragmentation mode: CID
Ionization: ESI
Column name: Zorbax Eclipse Plus C18 2.1 mm x 150 mm, 3.5 um, Agilent
Retention time: 8.761 min
Precursor m/z: 293.1051
Precursor type: [M+H]+
m/z	relative intensity
55.0593	82
57.0758	427
65.0418	14
67.0576	15
69.0749	999
70.0819	125
72.9872	21
75.0256	50
77.0412	78
81.0463	46
82.0549	90
91.0549	47
93.0344	38
94.0423	31
99.0008	288
103.032	11
109.0396	161
111	236
113.0154	98
119.0501	14
120.057	18
125.0169	15
126.9945	395
127.0286	20
129.01	351
137.1068	31
139.006	32
141.0102	538
147.0805	18
155.0257	239
161.0956	23
166.1095	37
175.077	11
190.0989	20
197.0727	553
225.0672	98
293.1039	142
