Mass spectrum: Lenacil; LC-ESI-QTOF; MS2; 50 V
Name: Lenacil
Class: Herbicide
Formula: C13H18N2O2
Exact mass: 234.1368
SMILES: C1CCC(CC1)N2C(=O)C3=C(CCC3)NC2=O
InChI: InChI=1S/C13H18N2O2/c16-12-10-7-4-8-11(10)14-13(17)15(12)9-5-2-1-3-6-9/h9H,1-8H2,(H,14,17)
Instrument: TripleTOF 5600 SCIEX
Instrument type: LC-ESI-QTOF
Ms type: MS2
Ion mode: POSITIVE
Collision energy: 50
Fragmentation mode: CID
Ionization: ESI
Column name: Zorbax Eclipse Plus C18 2.1 mm x 150 mm, 3.5 um, Agilent
Retention time: 9.016 min
Precursor m/z: 235.1441
Precursor type: [M+H]+
m/z	relative intensity
82.0652	218
110.0602	343
135.0537	468
136.0395	936
153.0669	999
