Mass spectrum: Fluorescein; LC-ESI-QTOF; MS2; 30 V
Name: Fluorescein
Class: Industrial_process; Pharmaceutical
Formula: C20H12O5
Exact mass: 332.0685
SMILES: C1=CC=C2C(=C1)C(=O)OC23C4=C(C=C(C=C4)O)OC5=C3C=CC(=C5)O
InChI: InChI=1S/C20H12O5/c21-11-5-7-15-17(9-11)24-18-10-12(22)6-8-16(18)20(15)14-4-2-1-3-13(14)19(23)25-20/h1-10,21-22H
Instrument: TripleTOF 5600 SCIEX
Instrument type: LC-ESI-QTOF
Ms type: MS2
Ion mode: POSITIVE
Collision energy: 30
Fragmentation mode: CID
Ionization: ESI
Column name: Zorbax Eclipse Plus C18 2.1 mm x 150 mm, 3.5 um, Agilent
Retention time: 9.527 min
Precursor m/z: 333.0757
Precursor type: [M+H]+
m/z	relative intensity
287.0716	17
332.0327	10
333.076	999
