Mass spectrum: Alizarin; LC-ESI-QTOF; MS2; 50 V
Name: Alizarin
Formula: C14H8O4
Exact mass: 240.0423
SMILES: C1=CC=C2C(=C1)C(=O)C3=C(C2=O)C(=C(C=C3)O)O
InChI: InChI=1S/C14H8O4/c15-10-6-5-9-11(14(10)18)13(17)8-4-2-1-3-7(8)12(9)16/h1-6,15,18H
Instrument: TripleTOF X500R SCIEX
Instrument type: LC-ESI-QTOF
Ms type: MS2
Ion mode: POSITIVE
Collision energy: 50
Fragmentation mode: CID
Ionization: ESI
Column name: Zorbax Eclipse Plus C18 2.1 mm x 150 mm, 3.5 um, Agilent
Retention time: 10.763 min
Precursor m/z: 241.0496
Precursor type: [M+H]+
m/z	relative intensity
77.0384	32
89.0396	12
105.0338	35
107.0147	19
109.03	29
113.04	22
115.0555	51
127.0552	265
128.0626	659
129.0704	242
137.0238	54
138.0463	35
139.0551	999
157.0647	148
167.0499	87
183.0437	12
