Mass spectrum: Foramsulfuron; LC-ESI-QTOF; MS2; 120 V
Name: Foramsulfuron
Class: Herbicide
Formula: C17H20N6O7S
Exact mass: 452.1114
SMILES: CN(C)C(=O)C1=C(C=C(C=C1)NC=O)S(=O)(=O)NC(=O)NC2=NC(=CC(=N2)OC)OC
InChI: InChI=1S/C17H20N6O7S/c1-23(2)15(25)11-6-5-10(18-9-24)7-12(11)31(27,28)22-17(26)21-16-19-13(29-3)8-14(20-16)30-4/h5-9H,1-4H3,(H,18,24)(H2,19,20,21,22,26)
Instrument: TripleTOF 6600 SCIEX
Instrument type: LC-ESI-QTOF
Ms type: MS2
Ion mode: POSITIVE
Collision energy: 120
Fragmentation mode: CID
Ionization: ESI
Column name: Zorbax Eclipse Plus C18 2.1 mm x 150 mm, 3.5 um, Agilent
Retention time: 8.823 min
Precursor m/z: 453.1187
Precursor type: [M+H]+
m/z	relative intensity
40.0278	17
41.0362	26
42.0438	15
43.039	28
44.0595	30
45.0433	21
53.0119	17
54.0446	23
55.039	30
56.0232	125
57.055	30
62.0269	13
63.0332	108
64.0284	23
64.0413	13
65.0237	175
65.0377	21
65.0488	419
66.032	23
66.0431	19
67.0154	47
67.0395	13
68.0236	76
69.007	132
69.0182	158
70.0385	23
71.0707	26
77.0492	54
78.0434	121
79.052	17
79.0645	13
80.059	119
81.0536	32
82.0389	71
83.0339	999
90.0432	73
91.0511	32
92.0589	104
93.0174	549
93.0426	13
94.0253	39
94.0746	69
105.0536	286
106.037	28
106.074	21
107.0697	10
109.0491	26
110.0427	19
112.0592	10
119.0676	17
120.0515	23
120.0747	10
121.0372	15
121.0467	10
138.0369	34
139.0567	47
140.0519	21
166.0314	19
