Mass spectrum: Trioctylphosphine oxide; LC-ESI-QTOF; MS2; 110 V
Name: Trioctylphosphine oxide
Class: Industrial_process
Formula: C24H51OP
Exact mass: 386.3678
SMILES: CCCCCCCCP(=O)(CCCCCCCC)CCCCCCCC
InChI: InChI=1S/C24H51OP/c1-4-7-10-13-16-19-22-26(25,23-20-17-14-11-8-5-2)24-21-18-15-12-9-6-3/h4-24H2,1-3H3
Instrument: TripleTOF 5600 SCIEX
Instrument type: LC-ESI-QTOF
Ms type: MS2
Ion mode: POSITIVE
Collision energy: 110
Fragmentation mode: CID
Ionization: ESI
Column name: Zorbax Eclipse Plus C18 2.1 mm x 150 mm, 3.5 um, Agilent
Retention time: 22.9 min
Precursor m/z: 387.375
Precursor type: [M+H]+
m/z	relative intensity
45.0006	66
47.0124	10
50.0025	10
56.996	21
59.0131	15
61.0278	10
63.0072	999
64.0144	186
65.0205	13
67.0617	15
69.0763	41
72.0188	39
73.0258	50
75.0056	74
77.0208	594
78.0283	354
79.0364	10
85.0256	17
87.04	13
89.0196	21
90.0272	27
91.0355	117
92.0428	100
99.0397	15
103.0346	35
104.0427	11
105.0493	66
117.0489	63
119.0643	23
131.0654	31
133.0807	18
145.0778	23
159.0946	10
