Mass spectrum: Fenoxycarb; LC-ESI-QTOF; MS2; 10 V
Name: Fenoxycarb
Class: Insecticide
Formula: C17H19NO4
Exact mass: 301.1314
SMILES: CCOC(=O)NCCOc1ccc(Oc2ccccc2)cc1
InChI: InChI=1S/C17H19NO4/c1-2-20-17(19)18-12-13-21-14-8-10-16(11-9-14)22-15-6-4-3-5-7-15/h3-11H,2,12-13H2,1H3,(H,18,19)
Instrument: TripleTOF 5600 SCIEX
Instrument type: LC-ESI-QTOF
Ms type: MS2
Ion mode: POSITIVE
Collision energy: 10
Fragmentation mode: CID
Ionization: ESI
Column name: Zorbax Eclipse Plus C18 2.1 mm x 150 mm, 3.5 um, Agilent
Retention time: 13.067 min
Precursor m/z: 302.1387
Precursor type: [M+H]+
m/z	relative intensity
88.0412	402
116.0705	632
230.117	15
256.0962	999
302.1393	897
