Mass spectrum: Nitrendipine; LC-ESI-QTOF; MS2; 40 V
Name: Nitrendipine
Class: Pharmaceutical
Formula: C18H20N2O6
Exact mass: 360.1321
SMILES: CCOC(=O)C1=C(NC(=C(C1C2=CC(=CC=C2)[N+](=O)[O-])C(=O)OC)C)C
InChI: InChI=1S/C18H20N2O6/c1-5-26-18(22)15-11(3)19-10(2)14(17(21)25-4)16(15)12-7-6-8-13(9-12)20(23)24/h6-9,16,19H,5H2,1-4H3
Instrument: TripleTOF 5600 SCIEX
Instrument type: LC-ESI-QTOF
Ms type: MS2
Ion mode: POSITIVE
Collision energy: 40
Fragmentation mode: CID
Ionization: ESI
Column name: Zorbax Eclipse Plus C18 2.1 mm x 150 mm, 3.5 um, Agilent
Retention time: 12.373 min
Precursor m/z: 361.1394
Precursor type: [M+H]+
m/z	relative intensity
67.0234	84
115.0539	10
134.0589	12
140.064	28
141.0695	16
150.0164	18
153.0657	18
165.074	26
166.0822	22
167.0713	24
168.0792	181
169.0757	10
170.0957	20
171.0648	14
171.1043	47
174.0548	12
176.0335	47
179.0726	12
180.0785	70
181.0864	92
182.092	84
183.1011	138
184.0716	14
186.058	20
189.0658	14
193.0866	16
194.0617	18
196.0483	12
196.0741	61
196.1145	16
197.0816	41
198.0919	37
200.0341	43
200.0713	18
202.0785	14
207.0661	26
208.0729	164
209.0812	339
210.0898	543
211.0968	346
212.0696	41
212.096	12
214.0499	18
214.0841	37
215.0935	18
217.0577	57
221.0659	16
222.0797	10
223.0812	32
224.0698	16
224.0979	12
225.0743	78
226.0856	840
227.0822	168
228.0617	12
228.0932	28
235.0631	35
236.0686	187
237.0751	144
238.0692	133
238.1093	14
239.0772	111
240.0642	18
240.0928	177
241.0611	39
241.1089	39
242.0772	92
249.0677	26
252.0604	14
253.0723	475
254.0793	805
255.0844	959
256.056	14
256.0903	92
257.0959	49
266.069	37
266.0818	12
267.0862	366
268.0928	624
269.0385	16
269.1015	999
270.0857	65
271.0773	10
271.0965	16
281.0923	74
282.1096	53
283.0712	523
283.1164	90
284.0781	364
284.1194	20
287.1025	22
297.0863	41
297.1523	16
298.0919	374
299.0618	24
299.0797	14
301.0797	634
312.1065	49
313.077	57
315.0948	681
329.1097	323
