Mass spectrum: 1,2-Benzisothiazol-3(2H)-one; LC-ESI-QTOF; MS2; 70 V
Name: 1,2-Benzisothiazol-3(2H)-one
Class: Antimicrobial
Formula: C7H5NOS
Exact mass: 151.0092
SMILES: C1=CC=C2C(=C1)C(=O)NS2
InChI: InChI=1S/C7H5NOS/c9-7-5-3-1-2-4-6(5)10-8-7/h1-4H,(H,8,9)
Instrument: TripleTOF 6600 SCIEX
Instrument type: LC-ESI-QTOF
Ms type: MS2
Ion mode: POSITIVE
Collision energy: 70
Fragmentation mode: CID
Ionization: ESI
Column name: Zorbax Eclipse Plus C18 2.1 mm x 150 mm, 3.5 um, Agilent
Retention time: 6.233 min
Precursor m/z: 152.0165
Precursor type: [M+H]+
m/z	relative intensity
35.999	31
37.0066	241
38.0144	139
39.0225	559
44.9789	120
49.0075	50
50.0143	419
51.0224	999
52.0176	31
53.0383	101
57.9868	38
61.0064	82
62.0143	254
63.0226	795
64.0175	521
65.038	127
67.9706	44
68.9788	566
74.0149	44
76.0169	25
76.0291	31
77.0376	381
80.0485	44
80.9789	63
81.9863	114
90.0325	95
92.9784	139
93.9751	31
108.0003	31
