Mass spectrum: Ethyl 2,4-diaminopyrimidine-5-carboxylate; LC-ESI-QTOF; MS2; 60 V
Name: Ethyl 2,4-diaminopyrimidine-5-carboxylate
Class: Pharmaceutical
Formula: C7H10N4O2
Exact mass: 182.0804
SMILES: CCOC(=O)C1=CN=C(N=C1N)N
InChI: InChI=1S/C7H10N4O2/c1-2-13-6(12)4-3-10-7(9)11-5(4)8/h3H,2H2,1H3,(H4,8,9,10,11)
Instrument: TripleTOF 5600 SCIEX
Instrument type: LC-ESI-QTOF
Ms type: MS2
Ion mode: POSITIVE
Collision energy: 60
Fragmentation mode: CID
Ionization: ESI
Column name: Zorbax Eclipse Plus C18 2.1 mm x 150 mm, 3.5 um, Agilent
Retention time: 4.607 min
Precursor m/z: 183.0877
Precursor type: [M+H]+
m/z	relative intensity
40.0314	57
42.0456	49
43.0398	79
52.0276	44
53.0114	55
55.0384	34
65.021	42
67.0368	96
68.0254	999
69.0117	12
69.0516	29
70.0355	277
92.0287	41
93.0126	12
94.0445	12
95.0281	272
120.0216	36
137.0479	20
