Mass spectrum: Basic yellow 28; LC-ESI-QTOF; MS2; 60 V
Name: Basic yellow 28
Class: Pigment
Formula: [C20H24N3O]+
Exact mass: 322.1914
SMILES: CC1(C2=CC=CC=C2[N+](=C1C=NN(C)C3=CC=C(C=C3)OC)C)C
InChI: InChI=1S/C20H24N3O/c1-20(2)17-8-6-7-9-18(17)22(3)19(20)14-21-23(4)15-10-12-16(24-5)13-11-15/h6-14H,1-5H3/q+1
Instrument: TripleTOF 6600 SCIEX
Instrument type: LC-ESI-QTOF
Ms type: MS2
Ion mode: POSITIVE
Collision energy: 60
Fragmentation mode: CID
Ionization: ESI
Column name: Zorbax Eclipse Plus C18 2.1 mm x 150 mm, 3.5 um, Agilent
Retention time: 9.082 min
Precursor m/z: 322.1914
Precursor type: [M]+
m/z	relative intensity
66.0464	126
67.0418	151
77.0383	164
78.0459	143
92.0249	59
93.0561	318
94.0402	98
108.0562	483
109.0636	62
120.0438	83
121.0515	494
122.059	69
130.0644	123
136.0753	463
144.0808	754
145.0887	999
156.068	74
158.0963	230
160.112	214
171.0916	89
