Mass spectrum: Memantine; LC-ESI-QTOF; MS2; 40 V
Name: Memantine
Class: Pharmaceutical
Formula: C12H21N
Exact mass: 179.1674
SMILES: CC12CC3CC(C1)(CC(C3)(C2)N)C
InChI: InChI=1S/C12H21N/c1-10-3-9-4-11(2,6-10)8-12(13,5-9)7-10/h9H,3-8,13H2,1-2H3
Instrument: TripleTOF 5600 SCIEX
Instrument type: LC-ESI-QTOF
Ms type: MS2
Ion mode: POSITIVE
Collision energy: 40
Fragmentation mode: CID
Ionization: ESI
Column name: Zorbax Eclipse Plus C18 2.1 mm x 150 mm, 3.5 um, Agilent
Retention time: 6.653 min
Precursor m/z: 180.1747
Precursor type: [M+H]+
m/z	relative intensity
55.0585	46
65.0422	98
67.057	30
69.0719	53
77.0405	102
79.0561	130
81.0714	71
91.0562	594
92.0624	14
93.0713	179
95.0868	85
105.0701	190
107.0864	999
119.0841	11
121.1016	95
135.1169	41
163.1488	477
