Mass spectrum: Flurtamone; LC-ESI-QTOF; MS2; 140 V
Name: Flurtamone
Class: Herbicide
Formula: C18H14F3NO2
Exact mass: 333.0977
SMILES: CNC1=C(C(=O)C(O1)C2=CC=CC=C2)C3=CC(=CC=C3)C(F)(F)F
InChI: InChI=1S/C18H14F3NO2/c1-22-17-14(12-8-5-9-13(10-12)18(19,20)21)15(23)16(24-17)11-6-3-2-4-7-11/h2-10,16,22H,1H3
Instrument: TripleTOF 6600 SCIEX
Instrument type: LC-ESI-QTOF
Ms type: MS2
Ion mode: POSITIVE
Collision energy: 140
Fragmentation mode: CID
Ionization: ESI
Column name: Zorbax Eclipse Plus C18 2.1 mm x 150 mm, 3.5 um, Agilent
Retention time: 11.864 min
Precursor m/z: 334.105
Precursor type: [M+H]+
m/z	relative intensity
39.0228	18
42.0337	17
49.007	51
50.0151	285
51.0228	458
52.0305	13
57.0133	25
61.0069	33
62.0149	51
63.0228	109
65.0383	21
68.9942	17
73.007	24
74.0151	254
75.0221	194
76.0304	100
77.0385	265
78.046	33
81.0132	23
83.029	13
85.0071	32
86.0149	71
87.0229	79
88.0306	12
89.0386	85
97.0071	16
98.0154	253
99.0224	121
100.0305	36
101.0378	22
102.0464	116
105.0132	17
107.0286	25
109.0066	19
110.0151	64
111.0227	42
113.0384	28
115.0538	27
122.0152	58
123.0225	44
124.0302	26
125.0386	82
126.0466	186
127.0539	44
128.062	29
131.0288	14
134.0149	17
135.023	12
137.0383	29
138.0463	11
139.0543	39
144.0362	11
146.0152	10
149.0386	142
150.0472	999
151.0544	369
152.0624	79
155.0294	13
161.0389	39
162.0462	26
163.0542	39
168.0376	36
169.045	14
170.0524	11
173.0382	10
174.047	183
175.0544	169
176.0627	411
179.0294	49
179.0602	12
180.0367	25
181.0451	40
185.0384	32
186.0461	21
187.0543	35
194.053	25
199.0354	26
203.0297	39
204.0374	51
205.0456	139
223.036	45
224.0436	10
225.0517	13
