Mass spectrum: Norlidocaine; LC-ESI-QTOF; MS2; 130 V
Name: Norlidocaine
Class: Pharmaceutical; Metabolite
Formula: C12H18N2O
Exact mass: 206.1419
SMILES: CCNCC(=O)Nc1c(cccc1C)C
InChI: InChI=1S/C12H18N2O/c1-4-13-8-11(15)14-12-9(2)6-5-7-10(12)3/h5-7,13H,4,8H2,1-3H3,(H,14,15)
Instrument: TripleTOF 6600 SCIEX
Instrument type: LC-ESI-QTOF
Ms type: MS2
Ion mode: POSITIVE
Collision energy: 130
Fragmentation mode: CID
Ionization: ESI
Column name: Zorbax Eclipse Plus C18 2.1 mm x 150 mm, 3.5 um, Agilent
Retention time: 5.349 min
Precursor m/z: 207.1492
Precursor type: [M+H]+
m/z	relative intensity
30.0341	129
36.0003	40
37.0072	156
38.0028	156
38.0154	115
39.0233	366
41.0259	40
42.0338	115
49.0074	163
50.0153	897
51.023	999
52.0056	33
52.0302	47
53.0132	54
53.0384	27
54.0342	27
61.0074	101
62.0153	129
63.0231	210
65.0385	74
74.0151	67
77.0389	197
89.0383	74
