Mass spectrum: 5-Aminofluorescein; LC-ESI-QTOF; MS2; 70 V
Name: 5-Aminofluorescein
Class: Pharmaceutical
Formula: C20H13NO5
Exact mass: 347.0794
SMILES: Nc1ccc2c(c1)C(=O)OC23c4ccc(O)cc4Oc5cc(O)ccc35
InChI: InChI=1S/C20H13NO5/c21-10-1-4-14-13(7-10)19(24)26-20(14)15-5-2-11(22)8-17(15)25-18-9-12(23)3-6-16(18)20/h1-9,22-23H,21H2
Instrument: TripleTOF 5600 SCIEX
Instrument type: LC-ESI-QTOF
Ms type: MS2
Ion mode: POSITIVE
Collision energy: 70
Fragmentation mode: CID
Ionization: ESI
Column name: Zorbax Eclipse Plus C18 2.1 mm x 150 mm, 3.5 um, Agilent
Retention time: 8.159 min
Precursor m/z: 348.0866
Precursor type: [M+H]+
m/z	relative intensity
65.0423	87
69.0015	30
77.0407	26
92.0507	61
115.054	91
117.067	30
120.0442	26
127.0543	113
128.0608	61
130.0624	21
131.0474	30
137.0221	21
151.0527	56
152.0625	104
153.0704	39
154.0636	143
155.0481	87
155.0638	21
156.0864	17
163.0542	30
164.0625	43
165.0683	130
166.0687	39
167.0735	74
173.0617	30
175.0528	21
176.0605	95
176.0772	21
177.0703	87
178.0775	69
179.0837	21
180.0822	39
181.0668	52
182.0605	43
183.0449	30
183.0686	34
184.0512	52
188.0611	34
189.0701	405
190.0753	130
191.0802	130
192.0832	26
193.0869	34
199.0426	26
199.0579	30
200.0614	335
201.0681	606
202.0771	999
203.081	235
204.0802	257
205.0654	126
205.0908	52
206.0727	30
206.0965	47
207.0805	26
211.0608	34
213.0694	187
214.0695	65
215.0814	78
216.0816	152
217.0618	43
217.0877	479
218.0717	170
218.0922	157
219.0756	43
220.0783	69
221.0592	74
226.0618	47
227.0736	104
228.0553	26
228.0785	174
229.0605	501
230.0724	117
230.0976	205
231.0797	244
232.0712	52
233.0816	109
234.0643	52
234.0834	21
235.0724	26
237.0535	65
240.0802	30
241.0648	26
241.0859	47
242.0716	100
243.0799	34
244.0752	231
245.06	56
245.0793	109
246.0681	69
246.0911	340
247.0733	113
248.0729	39
248.1108	30
249.0808	43
250.0577	47
256.0763	109
257.0593	109
257.0825	165
258.0679	671
259.075	314
259.101	26
260.0708	109
261.0526	26
261.0804	34
262.054	21
262.0869	52
263.0689	26
269.0623	91
270.0628	26
271.0722	126
272.0702	148
273.0772	340
274.0848	383
275.0672	65
275.09	87
276.1037	30
283.0592	21
284.071	69
285.0516	174
285.0789	21
286.0845	366
287.0705	492
288.0668	82
289.0705	39
300.0645	47
301.072	113
302.081	693
304.0961	117
313.0552	43
330.0728	43
