Mass spectrum: Methyl-tris(4-fluorophenyl)phosphonium; LC-ESI-QTOF; MS2; 50 V
Name: Methyl-tris(4-fluorophenyl)phosphonium
Class: Industrial_process
Formula: [C19H15F3P]+
Exact mass: 331.0858
SMILES: C[P+](c1ccc(F)cc1)(c2ccc(F)cc2)c3ccc(F)cc3
InChI: InChI=1S/C19H15F3P/c1-23(17-8-2-14(20)3-9-17,18-10-4-15(21)5-11-18)19-12-6-16(22)7-13-19/h2-13H,1H3/q+1
Instrument: TripleTOF 5600 SCIEX
Instrument type: LC-ESI-QTOF
Ms type: MS2
Ion mode: POSITIVE
Collision energy: 50
Fragmentation mode: CID
Ionization: ESI
Column name: Zorbax Eclipse Plus C18 2.1 mm x 150 mm, 3.5 um, Agilent
Retention time: 7.52 min
Precursor m/z: 331.0858
Precursor type: [M]+
m/z	relative intensity
124.995	90
126.0032	465
201.0271	105
219.0176	487
221.0334	436
315.0558	251
316.0638	237
331.0874	999
