Mass spectrum: Benzyldimethyl(2-dodecyloxyethyl)-ammonium; LC-ESI-QTOF; MS2; 30 V
Name: Benzyldimethyl(2-dodecyloxyethyl)-ammonium
Formula: [C23H42NO]+
Exact mass: 348.3261
SMILES: CCCCCCCCCCCCOCC[N+](C)(C)Cc1ccccc1
InChI: InChI=1S/C23H42NO/c1-4-5-6-7-8-9-10-11-12-16-20-25-21-19-24(2,3)22-23-17-14-13-15-18-23/h13-15,17-18H,4-12,16,19-22H2,1-3H3/q+1
Instrument: TripleTOF 5600 SCIEX
Instrument type: LC-ESI-QTOF
Ms type: MS2
Ion mode: POSITIVE
Collision energy: 30
Fragmentation mode: CID
Ionization: ESI
Column name: Zorbax Eclipse Plus C18 2.1 mm x 150 mm, 3.5 um, Agilent
Retention time: 12.702 min
Precursor m/z: 348.3261
Precursor type: [M]+
m/z	relative intensity
72.0852	325
91.0559	356
256.2635	419
348.326	999
