Mass spectrum: 2,6-Dichlorobenzamide; LC-ESI-QTOF; MS2; 100 V
Name: 2,6-Dichlorobenzamide
Class: Herbicide; Transformation_product
Formula: C7H5Cl2NO
Exact mass: 188.9748
SMILES: C1=CC(=C(C(=C1)Cl)C(=O)N)Cl
InChI: InChI=1S/C7H5Cl2NO/c8-4-2-1-3-5(9)6(4)7(10)11/h1-3H,(H2,10,11)
Instrument: TripleTOF 6600 SCIEX
Instrument type: LC-ESI-QTOF
Ms type: MS2
Ion mode: POSITIVE
Collision energy: 100
Fragmentation mode: CID
Ionization: ESI
Column name: Zorbax Eclipse Plus C18 2.1 mm x 150 mm, 3.5 um, Agilent
Retention time: 6.197 min
Precursor m/z: 189.9821
Precursor type: [M+H]+
m/z	relative intensity
37.0067	76
44.0129	153
50.0147	107
61.0057	61
73.0066	307
74.0144	999
75.0191	276
99.0094	92
