Mass spectrum: Oxadixyl; LC-ESI-QTOF; MS2; 40 V
Name: Oxadixyl
Class: Fungicide
Formula: C14H18N2O4
Exact mass: 278.1267
SMILES: CC1=C(C(=CC=C1)C)N(C(=O)COC)N2CCOC2=O
InChI: InChI=1S/C14H18N2O4/c1-10-5-4-6-11(2)13(10)16(12(17)9-19-3)15-7-8-20-14(15)18/h4-6H,7-9H2,1-3H3
Instrument: TripleTOF 6600 SCIEX
Instrument type: LC-ESI-QTOF
Ms type: MS2
Ion mode: POSITIVE
Collision energy: 40
Fragmentation mode: CID
Ionization: ESI
Column name: Zorbax Eclipse Plus C18 2.1 mm x 150 mm, 3.5 um, Agilent
Retention time: 8.678 min
Precursor m/z: 279.1339
Precursor type: [M+H]+
m/z	relative intensity
45.0325	81
77.0369	29
79.0534	14
88.0368	11
91.0524	35
93.0676	17
102.053	40
103.0521	16
105.0684	79
117.055	166
118.0631	111
119.0837	75
120.0787	60
121.0626	16
130.0624	11
131.0709	9
132.0793	999
133.0868	220
134.0934	29
147.0908	9
149.0202	14
201.0443	32
