Mass spectrum: Codeinone; LC-ESI-QTOF; MS2; 150 V
Name: Codeinone
Class: Pharmaceutical
Formula: C18H19NO3
Exact mass: 297.1365
SMILES: CN1CCC23C4C1CC5=C2C(=C(C=C5)OC)OC3C(=O)C=C4
InChI: InChI=1S/C18H19NO3/c1-19-8-7-18-11-4-5-13(20)17(18)22-16-14(21-2)6-3-10(15(16)18)9-12(11)19/h3-6,11-12,17H,7-9H2,1-2H3
Instrument: TripleTOF 5600 SCIEX
Instrument type: LC-ESI-QTOF
Ms type: MS2
Ion mode: POSITIVE
Collision energy: 150
Fragmentation mode: CID
Ionization: ESI
Column name: Zorbax Eclipse Plus C18 2.1 mm x 150 mm, 3.5 um, Agilent
Retention time: 5.057 min
Precursor m/z: 298.1438
Precursor type: [M+H]+
m/z	relative intensity
44.0601	48
58.0745	38
65.046	281
73.0137	116
74.0201	775
75.0291	494
76.0368	300
77.0433	591
78.0522	106
85.0134	184
86.0197	678
87.027	746
88.0349	242
89.0424	902
98.0176	475
99.0265	203
100.0312	67
101.0433	96
102.0477	271
110.0171	145
111.0241	96
113.0405	775
114.0463	106
115.057	397
122.0139	58
125.0385	126
126.048	417
127.0559	116
128.0616	67
137.0396	223
138.0466	213
139.0554	999
149.0389	96
150.0473	669
151.0546	397
152.0614	223
161.0399	77
162.0465	96
163.0549	242
164.0608	58
176.0659	48
187.0551	38
