Mass spectrum: Thiamine Disulfide; LC-ESI-QTOF; MS2; 60 V
Name: Thiamine Disulfide
Class: Pharmaceutical
Formula: C24H34N8O4S2
Exact mass: 562.2144
SMILES: CC1=NC=C(C(=N1)N)CN(C=O)C(=C(CCO)SSC(=C(C)N(CC2=CN=C(N=C2N)C)C=O)CCO)C
InChI: InChI=1S/C24H34N8O4S2/c1-15(31(13-35)11-19-9-27-17(3)29-23(19)25)21(5-7-33)37-38-22(6-8-34)16(2)32(14-36)12-20-10-28-18(4)30-24(20)26/h9-10,13-14,33-34H,5-8,11-12H2,1-4H3,(H2,25,27,29)(H2,26,28,30)
Instrument: TripleTOF 6600 SCIEX
Instrument type: LC-ESI-QTOF
Ms type: MS2
Ion mode: POSITIVE
Collision energy: 60
Fragmentation mode: CID
Ionization: ESI
Column name: Zorbax Eclipse Plus C18 2.1 mm x 150 mm, 3.5 um, Agilent
Retention time: 4.48 min
Precursor m/z: 563.2217
Precursor type: [M+H]+
m/z	relative intensity
55.0405	12
69.0431	13
81.0432	39
82.0515	45
83.0589	13
96.054	11
107.0593	28
110.0705	558
115.0196	10
122.0702	159
123.0785	999
124.0861	743
137.0811	89
139.0967	38
144.0465	87
149.0811	22
154.042	11
163.0939	13
167.0921	13
204.1118	44
219.0683	12
219.123	11
221.1397	85
223.1001	25
233.0858	60
247.1007	16
249.1347	22
253.1121	109
263.0964	88
265.1118	15
281.1067	58
