Mass spectrum: Basic yellow 28; LC-ESI-QTOF; MS2; 140 V
Name: Basic yellow 28
Class: Pigment
Formula: [C20H24N3O]+
Exact mass: 322.1914
SMILES: CC1(C2=CC=CC=C2[N+](=C1C=NN(C)C3=CC=C(C=C3)OC)C)C
InChI: InChI=1S/C20H24N3O/c1-20(2)17-8-6-7-9-18(17)22(3)19(20)14-21-23(4)15-10-12-16(24-5)13-11-15/h6-14H,1-5H3/q+1
Instrument: TripleTOF 6600 SCIEX
Instrument type: LC-ESI-QTOF
Ms type: MS2
Ion mode: POSITIVE
Collision energy: 140
Fragmentation mode: CID
Ionization: ESI
Column name: Zorbax Eclipse Plus C18 2.1 mm x 150 mm, 3.5 um, Agilent
Retention time: 9.082 min
Precursor m/z: 322.1914
Precursor type: [M]+
m/z	relative intensity
37.0087	78
38.0162	93
39.0244	306
49.0079	96
50.0159	423
51.0238	853
52.0316	74
61.0078	109
62.0156	260
63.0235	999
64.0312	124
65.0391	598
66.0464	253
67.0419	162
74.0154	149
75.0229	225
76.0306	134
77.0386	860
78.0461	109
89.0376	421
90.0451	85
91.0535	224
92.0486	57
101.0375	148
102.0454	327
103.0537	92
115.0538	717
116.0491	61
117.0567	88
128.0493	285
129.0576	86
140.0493	70
141.0565	54
142.0647	102
143.0732	117
144.0807	75
