Mass spectrum: 3-Hydroxyacetaminophen; LC-ESI-QTOF; MS2; 70 V
Name: 3-Hydroxyacetaminophen
Class: Pharmaceutical; Transformation_product
Formula: C8H9NO3
Exact mass: 167.0582
SMILES: CC(=O)Nc1ccc(O)c(O)c1
InChI: InChI=1S/C8H9NO3/c1-5(10)9-6-2-3-7(11)8(12)4-6/h2-4,11-12H,1H3,(H,9,10)
Instrument: TripleTOF 5600 SCIEX
Instrument type: LC-ESI-QTOF
Ms type: MS2
Ion mode: NEGATIVE
Collision energy: 70
Fragmentation mode: CID
Ionization: ESI
Column name: Zorbax Eclipse Plus C18 2.1 mm x 150 mm, 3.5 um, Agilent
Retention time: 4.471 min
Precursor m/z: 166.051
Precursor type: [M-H]-
m/z	relative intensity
40.0227	131
41.0072	356
42.0025	750
50.006	206
65.004	56
65.9998	466
68.0152	384
76.0196	103
94.0304	999
95.014	187
122.0253	380
