Mass spectrum: Dasatinib; LC-ESI-QTOF; MS2; 100 V
Name: Dasatinib
Class: Pharmaceutical
Formula: C22H26ClN7O2S
Exact mass: 487.1557
SMILES: Cc1nc(Nc2sc(cn2)C(=O)Nc3c(C)cccc3Cl)cc(n1)N4CCN(CCO)CC4
InChI: InChI=1S/C22H26ClN7O2S/c1-14-4-3-5-16(23)20(14)28-21(32)17-13-24-22(33-17)27-18-12-19(26-15(2)25-18)30-8-6-29(7-9-30)10-11-31/h3-5,12-13,31H,6-11H2,1-2H3,(H,28,32)(H,24,25,26,27)
Instrument: TripleTOF 5600 SCIEX
Instrument type: LC-ESI-QTOF
Ms type: MS2
Ion mode: POSITIVE
Collision energy: 100
Fragmentation mode: CID
Ionization: ESI
Column name: Zorbax Eclipse Plus C18 2.1 mm x 150 mm, 3.5 um, Agilent
Retention time: 7.247 min
Precursor m/z: 488.163
Precursor type: [M+H]+
m/z	relative intensity
70.0669	166
81.0463	249
85.0001	374
93.0458	374
118.0375	291
119.0613	166
120.0554	541
123.0025	249
125.0165	166
134.0716	291
135.0719	333
140.0232	166
146.0679	291
150.0127	333
150.0364	166
161.0832	999
175.0887	208
176.0906	499
187.097	249
202.1068	291
