Mass spectrum: Carebastine; LC-ESI-QTOF; MS2; 130 V
Name: Carebastine
Class: Pharmaceutical
Formula: C32H37NO4
Exact mass: 499.2723
SMILES: CC(C)(C1=CC=C(C=C1)C(=O)CCCN2CCC(CC2)OC(C3=CC=CC=C3)C4=CC=CC=C4)C(=O)O
InChI: InChI=1S/C32H37NO4/c1-32(2,31(35)36)27-17-15-24(16-18-27)29(34)14-9-21-33-22-19-28(20-23-33)37-30(25-10-5-3-6-11-25)26-12-7-4-8-13-26/h3-8,10-13,15-18,28,30H,9,14,19-23H2,1-2H3,(H,35,36)
Instrument: TripleTOF 6600 SCIEX
Instrument type: LC-ESI-QTOF
Ms type: MS2
Ion mode: POSITIVE
Collision energy: 130
Fragmentation mode: CID
Ionization: ESI
Column name: Zorbax Eclipse Plus C18 2.1 mm x 150 mm, 3.5 um, Agilent
Retention time: 10.045 min
Precursor m/z: 500.2796
Precursor type: [M+H]+
m/z	relative intensity
39.0226	11
63.0228	12
65.0383	55
77.0382	93
78.0457	29
79.0539	17
89.038	46
90.046	60
91.054	339
102.0458	40
103.0539	122
107.0483	12
115.0542	474
116.0615	25
117.0698	256
118.0776	178
121.0281	10
126.046	28
127.0536	14
128.0616	101
131.0493	45
139.0538	49
141.0699	40
146.0717	11
150.046	32
151.054	116
152.0623	597
163.0537	53
164.062	120
165.0703	999
166.0784	37
