Mass spectrum: Propranolol; LC-ESI-QTOF; MS2; 30 V
Name: Propranolol
Class: Pharmaceutical
Formula: C16H21NO2
Exact mass: 259.1572
SMILES: CC(C)NCC(O)COc1cccc2ccccc12
InChI: InChI=1S/C16H21NO2/c1-12(2)17-10-14(18)11-19-16-9-5-7-13-6-3-4-8-15(13)16/h3-9,12,14,17-18H,10-11H2,1-2H3
Instrument: TripleTOF 5600 SCIEX
Instrument type: LC-ESI-QTOF
Ms type: MS2
Ion mode: POSITIVE
Collision energy: 30
Fragmentation mode: CID
Ionization: ESI
Column name: Zorbax Eclipse Plus C18 2.1 mm x 150 mm, 3.5 um, Agilent
Retention time: 7.356 min
Precursor m/z: 260.1645
Precursor type: [M+H]+
m/z	relative intensity
44.057	12
56.0558	303
58.071	249
60.0849	13
72.0848	383
74.064	442
84.0832	20
86.0984	48
98.0979	346
100.1128	80
115.0547	26
116.1081	899
117.0703	10
127.0546	38
128.0621	26
129.07	159
141.0699	95
143.0501	30
145.0644	94
153.0702	101
154.0771	26
155.0864	634
157.0653	540
165.0707	226
168.0569	49
171.0808	25
183.081	999
218.1179	93
260.1649	648
