Mass spectrum: Acid Red 1; LC-ESI-QTOF; MS2; 60 V
Name: Acid Red 1
Class: Industrial_process; Personal_care_product; Pigment; Food_additive
Formula: C18H15N3O8S2
Exact mass: 465.0301
SMILES: CC(NC1=C2C(C=C(S(=O)(O)=O)/C(C2=O)=N\NC3=CC=CC=C3)=CC(S(=O)(O)=O)=C1)=O
InChI: InChI=1S/C18H15N3O8S2/c1-10(22)19-14-9-13(30(24,25)26)7-11-8-15(31(27,28)29)17(18(23)16(11)14)21-20-12-5-3-2-4-6-12/h2-9,20H,1H3,(H,19,22)(H,24,25,26)(H,27,28,29)/b21-17+
Instrument: TripleTOF 5600 SCIEX
Instrument type: LC-ESI-QTOF
Ms type: MS2
Ion mode: NEGATIVE
Collision energy: 60
Fragmentation mode: CID
Ionization: ESI
Column name: Zorbax Eclipse Plus C18 2.1 mm x 150 mm, 3.5 um, Agilent
Retention time: 7.21 min
Precursor m/z: 464.0228
Precursor type: [M-H]-
m/z	relative intensity
79.9573	145
157.0497	96
173.0459	161
185.0338	708
197.0169	209
198.0516	64
200.0356	290
224.0007	128
227.0448	225
236.0142	64
237.0091	257
249.0039	80
253.008	145
262.0185	322
263.0069	145
263.9926	999
278.0121	354
279.0184	225
291.0119	112
295.0192	161
315.9755	64
316.9707	257
341.9764	177
343.9512	837
357.9673	193
358.98	80
