Mass spectrum: Methyl 1,2,2,6,6-pentamethyl-4-piperidyl sebacate; LC-ESI-QTOF; MS2; 140 V
Name: Methyl 1,2,2,6,6-pentamethyl-4-piperidyl sebacate
Class: Industrial_process
Formula: C21H39NO4
Exact mass: 369.2879
SMILES: CC1(CC(CC(N1C)(C)C)OC(=O)CCCCCCCCC(=O)OC)C
InChI: InChI=1S/C21H39NO4/c1-20(2)15-17(16-21(3,4)22(20)5)26-19(24)14-12-10-8-7-9-11-13-18(23)25-6/h17H,7-16H2,1-6H3
Instrument: TripleTOF 5600 SCIEX
Instrument type: LC-ESI-QTOF
Ms type: MS2
Ion mode: POSITIVE
Collision energy: 140
Fragmentation mode: CID
Ionization: ESI
Column name: Zorbax Eclipse Plus C18 2.1 mm x 150 mm, 3.5 um, Agilent
Retention time: 8.341 min
Precursor m/z: 370.2952
Precursor type: [M+H]+
m/z	relative intensity
42.0481	187
44.0606	22
56.0586	93
57.0659	130
65.0444	17
67.0604	35
70.0716	108
71.0797	20
72.0869	999
77.044	167
79.0591	108
81.0746	41
82.0687	16
91.0577	39
93.0728	13
