Mass spectrum: 4-Chlorphenol; LC-ESI-QTOF; MS2; 30 V
Name: 4-Chlorphenol
Class: Industrial_process; Transformation_product; Antimicrobial; Pharmaceutical
Formula: C6H5ClO
Exact mass: 128.0029
SMILES: Oc1ccc(Cl)cc1
InChI: InChI=1S/C6H5ClO/c7-5-1-3-6(8)4-2-5/h1-4,8H
Instrument: TripleTOF 5600 SCIEX
Instrument type: LC-ESI-QTOF
Ms type: MS2
Ion mode: NEGATIVE
Collision energy: 30
Fragmentation mode: CID
Ionization: ESI
Column name: Zorbax Eclipse Plus C18 2.1 mm x 150 mm, 3.5 um, Agilent
Retention time: 9.114 min
Precursor m/z: 126.9956
Precursor type: [M-H]-
m/z	relative intensity
34.9727	356
91.0162	156
126.9925	999
