Mass spectrum: Tadalafil; LC-ESI-QTOF; MS2; 150 V
Name: Tadalafil
Class: Pharmaceutical; Personal_care_product
Formula: C22H19N3O4
Exact mass: 389.1376
SMILES: CN1CC(=O)N2C(C1=O)CC3=C(C2C4=CC5=C(C=C4)OCO5)NC6=CC=CC=C36
InChI: InChI=1S/C22H19N3O4/c1-24-10-19(26)25-16(22(24)27)9-14-13-4-2-3-5-15(13)23-20(14)21(25)12-6-7-17-18(8-12)29-11-28-17/h2-8,16,21,23H,9-11H2,1H3
Instrument: TripleTOF 5600 SCIEX
Instrument type: LC-ESI-QTOF
Ms type: MS2
Ion mode: POSITIVE
Collision energy: 150
Fragmentation mode: CID
Ionization: ESI
Column name: Zorbax Eclipse Plus C18 2.1 mm x 150 mm, 3.5 um, Agilent
Retention time: 9.801 min
Precursor m/z: 390.1448
Precursor type: [M+H]+
m/z	relative intensity
50.0161	96
51.0226	225
63.0232	85
65.0384	64
74.0139	96
75.022	118
76.0307	64
77.0382	483
87.0212	64
89.0375	279
98.0161	64
99.0238	64
101.0401	85
102.0466	85
113.0384	128
114.0479	64
115.0542	354
116.0515	64
125.0364	107
126.0467	150
127.0496	107
128.051	53
130.0655	53
139.0534	161
140.0498	182
141.0525	75
149.0401	193
150.046	945
151.0533	708
152.0614	322
153.0543	53
162.0474	75
163.0538	365
164.0483	150
165.0683	42
167.0633	53
174.0469	225
175.0528	504
176.0615	999
177.0565	418
186.0453	42
187.054	171
188.0533	85
190.0638	139
201.0563	451
202.0647	773
203.0734	655
204.0793	225
