Mass spectrum: Edetol; LC-ESI-QTOF; MS2; 70 V
Name: Edetol
Formula: C14H32N2O4
Exact mass: 292.2362
SMILES: CC(CN(CCN(CC(C)O)CC(C)O)CC(C)O)O
InChI: InChI=1S/C14H32N2O4/c1-11(17)7-15(8-12(2)18)5-6-16(9-13(3)19)10-14(4)20/h11-14,17-20H,5-10H2,1-4H3
Instrument: TripleTOF 6600 SCIEX
Instrument type: LC-ESI-QTOF
Ms type: MS2
Ion mode: POSITIVE
Collision energy: 70
Fragmentation mode: CID
Ionization: ESI
Column name: Zorbax Eclipse Plus C18 2.1 mm x 150 mm, 3.5 um, Agilent
Retention time: 2.645 min
Precursor m/z: 293.2435
Precursor type: [M+H]+
m/z	relative intensity
31.018	169
37.0062	33
38.0148	33
39.0223	567
41.0383	999
42.0333	296
43.0175	42
43.0546	67
44.0488	118
45.0332	67
55.0552	50
56.0491	440
58.0651	118
59.0485	660
67.0522	76
68.0488	59
69.0562	50
70.064	270
72.0795	42
79.0535	50
81.058	42
82.0635	93
84.0798	507
94.0632	59
96.0801	50
98.0576	59
98.0962	59
102.0915	50
