Mass spectrum: Sulfasalazine; LC-ESI-QTOF; MS2; 30 V
Name: Sulfasalazine
Class: Pharmaceutical
Formula: C18H14N4O5S
Exact mass: 398.0685
SMILES: C1=CC=NC(=C1)NS(=O)(=O)C2=CC=C(C=C2)NN=C3C=CC(=O)C(=C3)C(=O)O
InChI: InChI=1S/C18H14N4O5S/c23-16-9-6-13(11-15(16)18(24)25)21-20-12-4-7-14(8-5-12)28(26,27)22-17-3-1-2-10-19-17/h1-11,20H,(H,19,22)(H,24,25)
Instrument: TripleTOF 5600 SCIEX
Instrument type: LC-ESI-QTOF
Ms type: MS2
Ion mode: POSITIVE
Collision energy: 30
Fragmentation mode: CID
Ionization: ESI
Column name: Zorbax Eclipse Plus C18 2.1 mm x 150 mm, 3.5 um, Agilent
Retention time: 9.217 min
Precursor m/z: 399.0758
Precursor type: [M+H]+
m/z	relative intensity
94.0566	11
119.015	25
147.0191	15
165.0293	28
213.0651	75
223.049	154
226.0587	12
239.0439	41
241.0626	71
287.0072	28
287.0843	11
315.0849	49
317.1013	285
333.0968	69
335.1091	14
381.063	999
399.0733	195
