Mass spectrum: 2-Ethoxyethyl-N-(4-methylphenyl)carbamate; LC-ESI-QTOF; MS2; 110 V
Name: 2-Ethoxyethyl-N-(4-methylphenyl)carbamate
Class: Pharmaceutical
Formula: C12H17NO3
Exact mass: 223.1208
SMILES: CCOCCOC(=O)NC1=CC=C(C=C1)C
InChI: InChI=1S/C12H17NO3/c1-3-15-8-9-16-12(14)13-11-6-4-10(2)5-7-11/h4-7H,3,8-9H2,1-2H3,(H,13,14)
Instrument: TripleTOF 5600 SCIEX
Instrument type: LC-ESI-QTOF
Ms type: MS2
Ion mode: POSITIVE
Collision energy: 110
Fragmentation mode: CID
Ionization: ESI
Column name: Zorbax Eclipse Plus C18 2.1 mm x 150 mm, 3.5 um, Agilent
Retention time: 10.768 min
Precursor m/z: 224.1281
Precursor type: [M+H]+
m/z	relative intensity
43.0299	162
45.0473	909
49.0172	31
50.0266	184
61.0157	31
62.0248	89
63.0304	152
65.0463	494
66.0538	52
74.0245	21
77.0449	999
78.0507	26
79.0609	73
89.0445	36
91.0614	78
92.0535	36
93.0605	47
106.0688	52
