Mass spectrum: (Benzyloxycarbonylmethyl)triphenylphosphonium; LC-ESI-QTOF; MS2; 140 V
Name: (Benzyloxycarbonylmethyl)triphenylphosphonium
Formula: [C27H24O2P]+
Exact mass: 411.1508
SMILES: C1=CC=C(C=C1)COC(=O)C[P+](C2=CC=CC=C2)(C3=CC=CC=C3)C4=CC=CC=C4
InChI: InChI=1S/C27H24O2P/c28-27(29-21-23-13-5-1-6-14-23)22-30(24-15-7-2-8-16-24,25-17-9-3-10-18-25)26-19-11-4-12-20-26/h1-20H,21-22H2/q+1
Instrument: TripleTOF 6600 SCIEX
Instrument type: LC-ESI-QTOF
Ms type: MS2
Ion mode: POSITIVE
Collision energy: 140
Fragmentation mode: CID
Ionization: ESI
Column name: Zorbax Eclipse Plus C18 2.1 mm x 150 mm, 3.5 um, Agilent
Retention time: 9.196 min
Precursor m/z: 411.1508
Precursor type: [M]+
m/z	relative intensity
39.0221	177
63.0206	76
65.0364	456
89.0349	76
91.0502	211
107.0007	155
115.0507	240
126.0431	80
133.0165	65
139.0512	237
150.0435	61
151.0515	197
152.0597	999
157.0175	518
181.0175	261
183.0334	487
202.0758	70
213.0669	76
224.0604	66
225.0667	72
226.0754	428
231.0337	63
255.0343	127
257.049	441
