Mass spectrum: Acridine; LC-ESI-QTOF; MS2; 40 V
Name: Acridine
Class: Industrial_process
Formula: C13H9N
Exact mass: 179.0735
SMILES: c1ccc2nc3ccccc3cc2c1
InChI: InChI=1S/C13H9N/c1-3-7-12-10(5-1)9-11-6-2-4-8-13(11)14-12/h1-9H
Instrument: TripleTOF 5600 SCIEX
Instrument type: LC-ESI-QTOF
Ms type: MS2
Ion mode: POSITIVE
Collision energy: 40
Fragmentation mode: CID
Ionization: ESI
Column name: Zorbax Eclipse Plus C18 2.1 mm x 150 mm, 3.5 um, Agilent
Retention time: 5.776 min
Precursor m/z: 180.0808
Precursor type: [M+H]+
m/z	relative intensity
51.0282	12
77.0421	36
101.0401	28
126.0473	13
127.0551	70
128.0504	82
140.0504	13
150.0476	18
151.0556	171
152.0633	424
153.0678	88
154.0656	32
177.0587	43
178.0666	276
179.0739	453
180.0809	999
