Mass spectrum: 4-(Dimethylamino)benzaldehyde; LC-ESI-QTOF; MS2; 110 V
Name: 4-(Dimethylamino)benzaldehyde
Class: Pharmaceutical
Formula: C9H11NO
Exact mass: 149.0841
SMILES: CN(C)C1=CC=C(C=C1)C=O
InChI: InChI=1S/C9H11NO/c1-10(2)9-5-3-8(7-11)4-6-9/h3-7H,1-2H3
Instrument: TripleTOF 5600 SCIEX
Instrument type: LC-ESI-QTOF
Ms type: MS2
Ion mode: POSITIVE
Collision energy: 110
Fragmentation mode: CID
Ionization: ESI
Column name: Zorbax Eclipse Plus C18 2.1 mm x 150 mm, 3.5 um, Agilent
Retention time: 8.87 min
Precursor m/z: 150.0913
Precursor type: [M+H]+
m/z	relative intensity
35.9993	34
37.007	139
38.0148	94
39.0227	164
51.0228	999
52.0185	29
52.0305	34
59.9987	29
73.0057	29
74.0149	124
75.0227	24
77.039	159
