Mass spectrum: Desamino-metamitron; LC-ESI-QTOF; MS2; 40 V
Name: Desamino-metamitron
Class: Metabolite; Herbicide
Formula: C10H9N3O
Exact mass: 187.0746
SMILES: CC1=NC(=O)C(=NN1)c2ccccc2
InChI: InChI=1S/C10H9N3O/c1-7-11-10(14)9(13-12-7)8-5-3-2-4-6-8/h2-6H,1H3,(H,11,12,14)
Instrument: TripleTOF 5600 SCIEX
Instrument type: LC-ESI-QTOF
Ms type: MS2
Ion mode: POSITIVE
Collision energy: 40
Fragmentation mode: CID
Ionization: ESI
Column name: Zorbax Eclipse Plus C18 2.1 mm x 150 mm, 3.5 um, Agilent
Retention time: 6.124 min
Precursor m/z: 188.0818
Precursor type: [M+H]+
m/z	relative intensity
51.028	47
57.0504	59
65.0422	113
77.0412	999
90.0486	13
91.0546	59
92.05	216
103.0429	20
104.0492	498
119.06	220
119.0788	11
130.0643	27
160.086	254
188.0798	18
