Mass spectrum: Diethylamino hydroxybenzoyl hexyl benzoate; LC-ESI-QTOF; MS2; 80 V
Name: Diethylamino hydroxybenzoyl hexyl benzoate
Formula: C24H31NO4
Exact mass: 397.2253
SMILES: CCCCCCOC(=O)C1=CC=CC=C1C(=O)C2=C(C=C(C=C2)N(CC)CC)O
InChI: InChI=1S/C24H31NO4/c1-4-7-8-11-16-29-24(28)20-13-10-9-12-19(20)23(27)21-15-14-18(17-22(21)26)25(5-2)6-3/h9-10,12-15,17,26H,4-8,11,16H2,1-3H3
Instrument: TripleTOF 6600 SCIEX
Instrument type: LC-ESI-QTOF
Ms type: MS2
Ion mode: POSITIVE
Collision energy: 80
Fragmentation mode: CID
Ionization: ESI
Column name: Zorbax Eclipse Plus C18 2.1 mm x 150 mm, 3.5 um, Agilent
Retention time: 17.769 min
Precursor m/z: 398.2326
Precursor type: [M+H]+
m/z	relative intensity
39.0228	71
41.0385	80
43.0542	98
65.0385	674
68.0128	17
77.0383	162
78.0333	13
80.049	198
89.0378	19
91.0538	48
92.0492	33
93.0331	545
94.0407	14
103.0533	22
104.0251	16
104.0484	13
105.0331	204
108.044	167
109.0512	48
110.0605	15
113.0372	11
115.0537	279
118.0641	22
119.0118	49
120.0437	13
121.0297	881
122.0591	92
126.0455	14
127.0534	126
128.0612	182
129.0692	81
133.0271	31
136.0376	29
136.0745	64
138.0447	16
139.054	825
140.0576	144
141.0692	308
143.048	50
148.0384	16
149.0231	816
150.0457	14
151.0535	237
152.0609	373
153.0685	206
154.0646	201
155.0496	76
156.0575	32
156.0793	64
157.0646	36
164.0696	295
165.0686	176
166.0652	163
167.0504	414
168.057	425
169.0638	98
170.0354	21
170.059	22
171.0423	20
176.061	44
177.0639	71
178.0647	127
179.0511	25
179.0718	31
180.0548	119
180.0775	99
181.0638	169
182.06	269
182.094	21
183.0442	77
183.0669	87
184.0511	407
185.0593	24
190.0643	26
191.0726	17
192.0799	28
193.0559	28
193.0876	25
194.0361	28
194.0586	132
194.0946	48
195.0659	893
196.0536	999
197.0597	442
198.0556	41
204.0802	75
206.0593	123
207.0442	12
207.0665	29
208.075	172
209.0596	22
209.0814	23
210.0334	85
210.0531	174
210.09	95
211.0626	250
212.0694	333
220.0751	169
221.058	17
222.0304	55
222.0528	57
222.0908	31
223.0612	808
224.0704	643
225.0776	132
232.0757	31
233.084	17
234.0544	56
235.0611	32
236.0705	26
237.0419	53
238.05	191
238.0822	80
240.1015	364
248.0678	23
251.0544	57
252.065	109
266.0805	718
