Mass spectrum: 3-Alizarinsulfonic acid; LC-ESI-QTOF; MS2; 110 V
Name: 3-Alizarinsulfonic acid
Formula: C14H8O7S
Exact mass: 319.9991
SMILES: C1=CC=C2C(=C1)C(=O)C3=CC(=C(C(=C3C2=O)O)O)S(=O)(=O)O
InChI: InChI=1S/C14H8O7S/c15-11-6-3-1-2-4-7(6)12(16)10-8(11)5-9(22(19,20)21)13(17)14(10)18/h1-5,17-18H,(H,19,20,21)
Instrument: TripleTOF 6600 SCIEX
Instrument type: LC-ESI-QTOF
Ms type: MS2
Ion mode: POSITIVE
Collision energy: 110
Fragmentation mode: CID
Ionization: ESI
Column name: Zorbax Eclipse Plus C18 2.1 mm x 150 mm, 3.5 um, Agilent
Retention time: 8.229 min
Precursor m/z: 321.0064
Precursor type: [M+H]+
m/z	relative intensity
39.0267	23
45.0333	47
51.022	214
73.0076	23
74.0149	166
75.0217	594
76.0306	23
76.9977	23
77.0368	999
79.017	47
85.0063	47
86.0142	47
87.0196	71
89.0359	47
98.0125	47
101.0365	142
115.0531	23
126.0461	356
127.0536	118
137.037	47
