Mass spectrum: Aspartame; LC-ESI-QTOF; MS2; 40 V
Name: Aspartame
Class: Food_additive
Formula: C14H18N2O5
Exact mass: 294.1216
SMILES: COC(=O)C(Cc1ccccc1)NC(=O)C(N)CC(O)=O
InChI: InChI=1S/C14H18N2O5/c1-21-14(20)11(7-9-5-3-2-4-6-9)16-13(19)10(15)8-12(17)18/h2-6,10-11H,7-8,15H2,1H3,(H,16,19)(H,17,18)
Instrument: TripleTOF 5600 SCIEX
Instrument type: LC-ESI-QTOF
Ms type: MS2
Ion mode: NEGATIVE
Collision energy: 40
Fragmentation mode: CID
Ionization: ESI
Column name: Zorbax Eclipse Plus C18 2.1 mm x 150 mm, 3.5 um, Agilent
Retention time: 5.761 min
Precursor m/z: 293.1143
Precursor type: [M-H]-
m/z	relative intensity
42.0022	459
70.0309	397
81.0227	401
81.0456	108
82.0174	50
82.0301	66
91.0554	346
96.0092	58
97.0411	999
99.0566	179
103.056	91
109.0175	146
113.0366	87
116.0506	213
118.0668	647
125.0363	83
126.0442	489
146.062	229
156.0829	100
157.0767	129
172.0779	104
173.1099	66
174.0554	108
189.1041	221
200.0726	840
201.0683	204
217.0993	96
