Mass spectrum: Clodinafop-Propargyl; LC-ESI-QTOF; MS2; 50 V
Name: Clodinafop-Propargyl
Class: Herbicide
Formula: C17H13ClFNO4
Exact mass: 349.0517
SMILES: CC(C(=O)OCC#C)OC1=CC=C(C=C1)OC2=C(C=C(C=N2)Cl)F
InChI: InChI=1S/C17H13ClFNO4/c1-3-8-22-17(21)11(2)23-13-4-6-14(7-5-13)24-16-15(19)9-12(18)10-20-16/h1,4-7,9-11H,8H2,2H3
Instrument: TripleTOF 6600 SCIEX
Instrument type: LC-ESI-QTOF
Ms type: MS2
Ion mode: POSITIVE
Collision energy: 50
Fragmentation mode: CID
Ionization: ESI
Column name: Zorbax Eclipse Plus C18 2.1 mm x 150 mm, 3.5 um, Agilent
Retention time: 13.951 min
Precursor m/z: 350.059
Precursor type: [M+H]+
m/z	relative intensity
63.0211	13
65.0369	111
75.0209	22
77.0363	38
91.0525	999
92.0237	30
92.0599	52
93.0666	13
94.039	16
96.0235	11
102.0447	13
103.0522	19
109.0265	19
109.9764	16
119.0467	55
120.0548	55
121.026	13
121.0624	27
127.0511	13
129.9834	86
131.0467	38
143.9994	36
147.993	44
149.0366	16
158.0384	55
159.0454	256
167.0027	22
167.9996	19
169.0071	30
174.0077	27
176.0478	180
182.0147	27
183.0649	16
184.0532	19
185.0618	27
187.0404	158
188.0482	16
193.007	25
194.0143	64
195.0227	27
202.0643	30
203.0715	27
204.0458	19
210.0088	30
210.046	19
211.0184	27
213.0592	11
216.0411	11
219.021	25
220.0299	16
222.0101	806
231.0674	13
238.0052	281
238.0401	44
239.0126	38
266.0337	16
276.0179	25
