Mass spectrum: Tetrahydroharman-3-carboxylic acid; LC-ESI-QTOF; MS2; 120 V
Name: Tetrahydroharman-3-carboxylic acid
Formula: C13H14N2O2
Exact mass: 230.1055
SMILES: CC1C2=C(CC(N1)C(=O)O)C3=CC=CC=C3N2
InChI: InChI=1S/C13H14N2O2/c1-7-12-9(6-11(14-7)13(16)17)8-4-2-3-5-10(8)15-12/h2-5,7,11,14-15H,6H2,1H3,(H,16,17)
Instrument: TripleTOF 6600 SCIEX
Instrument type: LC-ESI-QTOF
Ms type: MS2
Ion mode: POSITIVE
Collision energy: 120
Fragmentation mode: CID
Ionization: ESI
Column name: Zorbax Eclipse Plus C18 2.1 mm x 150 mm, 3.5 um, Agilent
Retention time: 5.62 min
Precursor m/z: 231.1128
Precursor type: [M+H]+
m/z	relative intensity
37.007	67
38.014	62
39.0226	321
49.0067	39
50.0151	553
51.0226	784
59.9969	33
61.0057	203
62.0139	259
63.0222	761
64.0298	33
65.0377	158
73.0063	95
74.0144	756
75.0221	615
76.0293	118
77.0373	654
78.0452	28
85.0057	28
86.0132	79
87.0204	67
88.0295	33
89.0375	999
90.0443	39
91.0519	28
98.0142	62
101.0369	95
102.0455	146
113.0378	141
114.0431	33
115.0525	231
116.0485	39
126.0439	67
127.054	56
128.0481	33
128.0605	73
129.0423	22
139.0526	73
140.0468	107
