Mass spectrum: Sulfadoxine; LC-ESI-QTOF; MS2; 130 V
Name: Sulfadoxine
Class: Pharmaceutical
Formula: C12H14N4O4S
Exact mass: 310.0736
SMILES: COc1ncnc(N[S](=O)(=O)c2ccc(N)cc2)c1OC
InChI: InChI=1S/C12H14N4O4S/c1-19-10-11(14-7-15-12(10)20-2)16-21(17,18)9-5-3-8(13)4-6-9/h3-7H,13H2,1-2H3,(H,14,15,16)
Instrument: TripleTOF 5600 SCIEX
Instrument type: LC-ESI-QTOF
Ms type: MS2
Ion mode: POSITIVE
Collision energy: 130
Fragmentation mode: CID
Ionization: ESI
Column name: Zorbax Eclipse Plus C18 2.1 mm x 150 mm, 3.5 um, Agilent
Retention time: 7.083 min
Precursor m/z: 311.0809
Precursor type: [M+H]+
m/z	relative intensity
40.0261	134
53.0434	242
65.0426	999
66.0357	134
67.0339	297
68.0168	783
80.0505	729
92.0506	161
