Mass spectrum: N-Isopropyl-N'-phenyl-p-phenylenediamine; LC-ESI-QTOF; MS2; 120 V
Name: N-Isopropyl-N'-phenyl-p-phenylenediamine
Class: Industrial_process
Formula: C15H18N2
Exact mass: 226.147
SMILES: CC(C)Nc1ccc(cc1)Nc2ccccc2
InChI: InChI=1S/C15H18N2/c1-12(2)16-14-8-10-15(11-9-14)17-13-6-4-3-5-7-13/h3-12,16-17H,1-2H3
Instrument: TripleTOF 6600 SCIEX
Instrument type: LC-ESI-QTOF
Ms type: MS2
Ion mode: POSITIVE
Collision energy: 120
Fragmentation mode: CID
Ionization: ESI
Column name: Zorbax Eclipse Plus C18 2.1 mm x 150 mm, 3.5 um, Agilent
Retention time: 7.24 min
Precursor m/z: 227.1543
Precursor type: [M+H]+
m/z	relative intensity
35.9997	23
37.007	275
38.0034	33
38.0149	209
39.0226	822
40.0181	19
41.0255	23
42.0326	28
49.006	42
50.0144	380
51.0224	708
52.0173	95
52.0287	85
53.0383	999
54.0332	147
59.9982	23
61.0059	161
62.0143	328
63.0218	775
64.0195	66
64.0283	38
65.0377	176
66.0307	19
66.0465	33
74.0134	114
75.0216	166
76.0169	23
76.0288	38
77.0375	304
78.0343	85
79.0405	42
80.0488	827
85.0069	33
86.0139	52
87.0204	109
88.017	28
88.0291	33
89.0365	275
90.0366	38
91.0419	23
92.0483	23
98.0141	33
99.0207	42
101.0375	52
102.0452	80
103.0524	23
113.0364	195
114.0415	23
115.0519	80
126.0446	66
127.0543	109
128.0467	23
137.0368	42
138.0414	42
139.0528	133
140.0497	118
164.0519	23
166.0601	23
