Mass spectrum: Prednisolone; LC-ESI-QTOF; MS2; 130 V
Name: Prednisolone
Class: Pharmaceutical
Formula: C21H28O5
Exact mass: 360.1937
SMILES: C[C@]12C[C@H](O)[C@H]3[C@@H](CCC4=CC(=O)C=C[C@]34C)[C@@H]1CC[C@]2(O)C(=O)CO
InChI: InChI=1S/C21H28O5/c1-19-7-5-13(23)9-12(19)3-4-14-15-6-8-21(26,17(25)11-22)20(15,2)10-16(24)18(14)19/h5,7,9,14-16,18,22,24,26H,3-4,6,8,10-11H2,1-2H3/t14-,15-,16-,18+,19-,20-,21-/m0/s1
Instrument: TripleTOF 5600 SCIEX
Instrument type: LC-ESI-QTOF
Ms type: MS2
Ion mode: POSITIVE
Collision energy: 130
Fragmentation mode: CID
Ionization: ESI
Column name: Zorbax Eclipse Plus C18 2.1 mm x 150 mm, 3.5 um, Agilent
Retention time: 8.432 min
Precursor m/z: 361.201
Precursor type: [M+H]+
m/z	relative intensity
43.0243	21
51.0289	191
53.0442	17
55.0244	17
55.0599	25
65.0427	280
74.0194	17
77.0416	999
77.0713	21
78.0486	110
79.057	72
89.0409	93
91.0556	569
101.0394	17
102.0465	114
103.0539	182
105.0688	34
107.0486	29
114.0443	17
115.0545	748
116.062	42
117.0705	46
121.0652	55
126.0459	51
127.0536	187
128.0617	501
129.0694	68
131.0487	123
132.0554	25
139.0535	110
141.0684	80
144.0548	25
150.0473	68
151.0537	114
152.062	408
153.0713	42
155.0602	21
157.0629	46
163.0537	68
164.0617	76
165.0704	318
176.0619	123
177.0712	63
178.0788	144
179.0883	21
181.065	29
187.0547	51
188.066	29
189.0707	242
190.0792	21
200.0634	34
201.0694	55
202.0768	123
205.064	21
213.0689	34
215.0842	46
226.0785	21
