Mass spectrum: Naproxen; LC-ESI-QTOF; MS2; 120 V
Name: Naproxen
Class: Pharmaceutical
Formula: C14H14O3
Exact mass: 230.0943
SMILES: COc1ccc2cc(ccc2c1)C(C)C(O)=O
InChI: InChI=1S/C14H14O3/c1-9(14(15)16)10-3-4-12-8-13(17-2)6-5-11(12)7-10/h3-9H,1-2H3,(H,15,16)
Instrument: TripleTOF 5600 SCIEX
Instrument type: LC-ESI-QTOF
Ms type: MS2
Ion mode: POSITIVE
Collision energy: 120
Fragmentation mode: CID
Ionization: ESI
Column name: Zorbax Eclipse Plus C18 2.1 mm x 150 mm, 3.5 um, Agilent
Retention time: 10.907 min
Precursor m/z: 231.1016
Precursor type: [M+H]+
m/z	relative intensity
51.0282	137
65.0432	327
73.0083	86
74.0178	292
75.0242	189
76.0322	86
77.0406	155
86.015	86
87.0231	155
89.0403	809
91.052	68
98.016	103
102.0477	206
113.0372	155
115.0529	999
126.0454	137
139.0544	103
150.045	68
151.052	86
152.061	120
