Mass spectrum: Lapatinib; LC-ESI-QTOF; MS2; 70 V
Name: Lapatinib
Class: Pharmaceutical
Formula: C29H26ClFN4O4S
Exact mass: 580.1347
SMILES: CS(=O)(CCNCC1=CC=C(C2=CC3=C(N=CN=C3NC4=CC(Cl)=C(OCC5=CC(F)=CC=C5)C=C4)C=C2)O1)=O
InChI: InChI=1S/C29H26ClFN4O4S/c1-40(36,37)12-11-32-16-23-7-10-27(39-23)20-5-8-26-24(14-20)29(34-18-33-26)35-22-6-9-28(25(30)15-22)38-17-19-3-2-4-21(31)13-19/h2-10,13-15,18,32H,11-12,16-17H2,1H3,(H,33,34,35)
Instrument: TripleTOF 5600 SCIEX
Instrument type: LC-ESI-QTOF
Ms type: MS2
Ion mode: NEGATIVE
Collision energy: 70
Fragmentation mode: CID
Ionization: ESI
Column name: Zorbax Eclipse Plus C18 2.1 mm x 150 mm, 3.5 um, Agilent
Retention time: 8.263 min
Precursor m/z: 579.1275
Precursor type: [M-H]-
m/z	relative intensity
219.0724	49
220.0516	999
244.0902	83
258.0677	66
269.0355	83
271.0804	66
283.0763	83
284.0824	149
294.0716	66
298.0901	99
312.0815	166
313.1093	66
319.0547	166
325.1147	66
327.0876	166
327.1002	49
346.0334	166
347.0508	333
348.0587	815
349.0649	482
349.082	66
361.0561	249
362.0603	249
363.0643	832
364.0733	183
376.0704	49
391.0985	216
469.0761	66
