Mass spectrum: 17alpha-Hydroxyprogesterone; LC-ESI-QTOF; MS2; 50 V
Name: 17alpha-Hydroxyprogesterone
Class: Pharmaceutical
Formula: C21H30O3
Exact mass: 330.2195
SMILES: CC(=O)[C@@]1(O)CC[C@H]2[C@@H]3CCC4=CC(=O)CC[C@]4(C)[C@H]3CC[C@]12C
InChI: InChI=1S/C21H30O3/c1-13(22)21(24)11-8-18-16-5-4-14-12-15(23)6-9-19(14,2)17(16)7-10-20(18,21)3/h12,16-18,24H,4-11H2,1-3H3/t16-,17+,18+,19+,20+,21+/m1/s1
Instrument: TripleTOF 5600 SCIEX
Instrument type: LC-ESI-QTOF
Ms type: MS2
Ion mode: POSITIVE
Collision energy: 50
Fragmentation mode: CID
Ionization: ESI
Column name: Zorbax Eclipse Plus C18 2.1 mm x 150 mm, 3.5 um, Agilent
Retention time: 11.808 min
Precursor m/z: 331.2268
Precursor type: [M+H]+
m/z	relative intensity
43.0273	68
55.0246	12
55.06	11
67.0577	49
69.0734	26
77.0405	58
79.057	208
81.0724	168
83.0511	58
91.0554	105
93.0714	74
95.0862	65
97.0665	863
105.0707	127
107.0489	15
107.0857	52
109.0657	999
111.0811	12
117.0703	42
119.086	91
121.0649	42
121.101	28
123.0808	149
128.0615	22
129.0697	40
130.0769	12
131.0854	71
133.1007	58
135.0808	15
135.1172	15
137.0975	16
141.0695	18
142.0776	27
143.0859	62
144.0943	13
145.1013	97
147.081	13
147.1159	52
149.0968	21
155.0849	30
156.0936	18
157.1012	56
159.1161	68
161.1328	31
163.1115	45
167.085	13
168.093	12
169.1018	45
171.1171	49
173.1322	25
175.1481	21
177.1252	12
181.1024	21
182.1092	14
183.1172	34
185.133	28
195.1171	18
197.1334	34
199.1498	16
209.1338	10
211.148	21
213.1651	24
237.1653	18
253.1966	14
