Mass spectrum: 3,5-Diiodothyronine; LC-ESI-QTOF; MS2; 40 V
Name: 3,5-Diiodothyronine
Class: Pharmaceutical
Formula: C15H13I2NO4
Exact mass: 524.8934
SMILES: NC(Cc1cc(I)c(Oc2ccc(O)cc2)c(I)c1)C(O)=O
InChI: InChI=1S/C15H13I2NO4/c16-11-5-8(7-13(18)15(20)21)6-12(17)14(11)22-10-3-1-9(19)2-4-10/h1-6,13,19H,7,18H2,(H,20,21)
Instrument: TripleTOF 5600 SCIEX
Instrument type: LC-ESI-QTOF
Ms type: MS2
Ion mode: POSITIVE
Collision energy: 40
Fragmentation mode: CID
Ionization: ESI
Column name: Zorbax Eclipse Plus C18 2.1 mm x 150 mm, 3.5 um, Agilent
Retention time: 7.539 min
Precursor m/z: 525.9007
Precursor type: [M+H]+
m/z	relative intensity
94.0422	18
109.0276	11
117.0562	28
118.0638	12
153.0685	16
157.064	21
161.0236	11
165.0681	15
167.0473	11
170.0715	12
171.0791	16
181.0639	90
184.0507	31
185.0587	55
197.059	52
198.0649	14
198.0899	16
199.0745	147
209.0588	59
210.0663	35
211.0748	15
216.9498	24
217.9206	10
224.0694	19
225.0769	41
226.0849	84
232.9441	41
237.0543	48
245.9163	20
255.0637	17
259.9564	35
287.9278	39
311.9642	53
322.955	15
324.9713	309
325.9796	181
335.9631	49
336.9715	57
337.9772	11
338.9512	14
339.9576	85
351.9825	46
352.9899	702
353.9757	15
358.8399	33
364.9649	11
372.8224	34
380.958	11
381.9707	319
386.8368	15
414.8353	12
466.864	183
479.8951	999
508.877	56
525.9023	110
