Mass spectrum: Pyrimethanil; LC-ESI-QTOF; MS2; 100 V
Name: Pyrimethanil
Class: Fungicide
Formula: C12H13N3
Exact mass: 199.1109
SMILES: CC1=CC(=NC(=N1)NC2=CC=CC=C2)C
InChI: InChI=1S/C12H13N3/c1-9-8-10(2)14-12(13-9)15-11-6-4-3-5-7-11/h3-8H,1-2H3,(H,13,14,15)
Instrument: TripleTOF 6600 SCIEX
Instrument type: LC-ESI-QTOF
Ms type: MS2
Ion mode: POSITIVE
Collision energy: 100
Fragmentation mode: CID
Ionization: ESI
Column name: Zorbax Eclipse Plus C18 2.1 mm x 150 mm, 3.5 um, Agilent
Retention time: 9.225 min
Precursor m/z: 200.1182
Precursor type: [M+H]+
m/z	relative intensity
35.9997	30
37.0072	91
38.002	12
38.015	63
39.0229	252
40.0179	33
41.0257	48
42.0339	379
49.0072	130
50.0152	692
51.023	999
52.0181	36
53.0381	39
54.0333	18
61.007	39
62.0145	63
63.0226	121
65.0251	15
65.0381	91
66.0455	21
67.0291	75
67.0408	36
74.0142	81
75.0224	78
76.018	15
76.0303	24
77.0376	78
87.0222	45
88.0299	24
89.0374	33
90.032	15
95.0597	15
113.0381	45
140.0482	24
