Mass spectrum: Diazepam; LC-ESI-QTOF; MS2; 90 V
Name: Diazepam
Class: Pharmaceutical
Formula: C16H13ClN2O
Exact mass: 284.0716
SMILES: CN1C(=O)CN=C(C2=C1C=CC(=C2)Cl)C3=CC=CC=C3
InChI: InChI=1S/C16H13ClN2O/c1-19-14-8-7-12(17)9-13(14)16(18-10-15(19)20)11-5-3-2-4-6-11/h2-9H,10H2,1H3
Instrument: TripleTOF 6600 SCIEX
Instrument type: LC-ESI-QTOF
Ms type: MS2
Ion mode: POSITIVE
Collision energy: 90
Fragmentation mode: CID
Ionization: ESI
Column name: Zorbax Eclipse Plus C18 2.1 mm x 150 mm, 3.5 um, Agilent
Retention time: 11.181 min
Precursor m/z: 285.0789
Precursor type: [M+H]+
m/z	relative intensity
37.0067	11
38.0148	10
39.0226	70
50.0149	25
51.0226	110
61.0064	29
62.0145	59
63.0225	205
64.0294	19
65.0381	183
72.9832	101
73.0058	11
74.0146	75
75.0223	154
76.0293	21
77.0381	292
78.0456	19
84.9827	14
87.0218	13
88.0177	10
88.0293	21
89.0381	999
90.0456	240
91.0535	314
96.9834	16
98.9997	191
100.0178	259
101.0374	13
102.0334	59
103.0424	19
104.0484	73
108.9831	11
109.9908	14
110.9991	97
112.0065	16
113.0369	12
114.0338	35
115.0528	119
116.0487	181
117.0571	162
118.0649	117
122.9987	54
124.0026	17
125.0141	42
125.0375	22
126.0448	29
127.0522	48
128.0541	33
129.0469	19
130.0388	16
135.9941	90
137.0015	25
138.0098	67
138.0453	10
139.006	20
139.0534	106
140.0488	46
142.0512	27
143.0604	67
149.039	19
150.0459	143
151.0537	364
152.0611	343
153.0613	72
154.0626	14
162.0437	16
163.0057	68
163.0532	268
164.0004	94
164.0605	247
165.0694	641
166.0654	27
167.0748	22
175.0514	14
176.0602	161
177.0578	236
178.0651	386
179.0718	316
180.0804	56
188.0484	23
189.0556	19
190.0651	131
191.0723	110
192.0799	60
193.0875	40
202.0592	27
203.0707	49
204.0748	66
205.0765	274
206.085	55
212.026	11
213.0335	62
219.0927	13
239.0358	46
240.0458	14
