Mass spectrum: Tepraloxydim; LC-ESI-QTOF; MS2; 60 V
Name: Tepraloxydim
Class: Herbicide
Formula: C17H24ClNO4
Exact mass: 341.1394
SMILES: CCC(=NOCC=CCl)C1=C(CC(CC1=O)C2CCOCC2)O
InChI: InChI=1S/C17H24ClNO4/c1-2-14(19-23-7-3-6-18)17-15(20)10-13(11-16(17)21)12-4-8-22-9-5-12/h3,6,12-13,20H,2,4-5,7-11H2,1H3
Instrument: TripleTOF 6600 SCIEX
Instrument type: LC-ESI-QTOF
Ms type: MS2
Ion mode: POSITIVE
Collision energy: 60
Fragmentation mode: CID
Ionization: ESI
Column name: Zorbax Eclipse Plus C18 2.1 mm x 150 mm, 3.5 um, Agilent
Retention time: 12.248 min
Precursor m/z: 342.1467
Precursor type: [M+H]+
m/z	relative intensity
39.022	55
41.0378	76
42.0333	52
43.0172	82
44.0488	15
48.983	70
51.022	27
53.0374	55
54.0329	30
55.0169	61
55.0532	135
56.0485	110
57.0323	30
57.0556	12
65.0376	86
66.0335	12
66.044	21
67.0165	18
67.0409	67
67.0529	202
68.0485	135
68.9968	15
69.0322	73
69.069	27
70.0282	12
70.0636	39
71.0713	18
72.0435	36
72.0814	15
74.9984	196
77.0375	381
79.0178	15
79.0533	258
80.0485	67
80.0613	15
81.0324	79
81.0568	24
81.0688	138
82.0638	147
83.0482	138
83.0723	15
84.0429	21
84.0795	21
91.0532	559
92.0483	52
93.0333	30
93.0565	82
93.0683	288
94.0401	24
94.0639	184
95.0482	101
95.0718	15
95.0834	46
96.0433	411
96.0784	36
97.0509	52
97.0637	21
98.059	999
103.053	239
104.0608	21
105.0436	21
105.0686	212
106.0636	67
107.0482	70
107.0721	18
107.0842	33
108.044	33
108.0539	24
108.0798	248
109.0264	33
109.0627	52
109.0864	15
110.0593	252
110.0947	89
111.0431	95
111.0672	156
112.0393	15
114.0896	30
115.0527	95
116.061	30
117.0566	33
117.0685	92
118.0646	76
119.048	36
119.0713	24
119.084	73
120.0436	33
120.0797	98
121.0636	568
122.0595	119
122.0938	15
123.0423	24
123.066	15
123.078	21
124.0383	126
124.075	73
126.0547	15
127.0522	27
128.0608	101
129.0683	79
130.064	58
130.0767	24
131.0479	30
131.0716	18
131.0828	36
132.055	18
132.0791	64
133.0649	43
133.0866	15
133.0998	18
134.0587	24
134.0712	12
134.0949	33
135.041	12
135.0787	21
136.0379	21
136.0744	205
137.0578	30
137.0812	21
138.0534	36
138.0896	190
139.0616	15
141.0685	36
142.0635	18
142.0764	30
143.0738	46
143.0849	21
144.0564	15
144.0803	46
145.0628	36
145.087	21
145.0983	18
146.0587	58
146.0951	49
147.043	70
147.0674	24
148.0749	107
148.1107	18
149.0584	248
150.0539	18
150.0902	27
152.0667	30
153.0685	21
156.0796	24
158.0933	27
159.0779	15
160.0754	73
160.1105	15
161.058	39
161.0848	33
162.0541	27
162.0908	43
164.0699	92
166.0854	202
166.1218	12
170.095	18
172.0804	12
172.1149	18
173.0828	12
174.0898	30
175.0698	12
176.0681	24
176.1048	15
184.0797	21
234.148	33
