Mass spectrum: Aspartame; LC-ESI-QTOF; MS2; 90 V
Name: Aspartame
Class: Food_additive
Formula: C14H18N2O5
Exact mass: 294.1216
SMILES: COC(=O)C(Cc1ccccc1)NC(=O)C(N)CC(O)=O
InChI: InChI=1S/C14H18N2O5/c1-21-14(20)11(7-9-5-3-2-4-6-9)16-13(19)10(15)8-12(17)18/h2-6,10-11H,7-8,15H2,1H3,(H,16,19)(H,17,18)
Instrument: TripleTOF 5600 SCIEX
Instrument type: LC-ESI-QTOF
Ms type: MS2
Ion mode: POSITIVE
Collision energy: 90
Fragmentation mode: CID
Ionization: ESI
Column name: Zorbax Eclipse Plus C18 2.1 mm x 150 mm, 3.5 um, Agilent
Retention time: 5.761 min
Precursor m/z: 295.1288
Precursor type: [M+H]+
m/z	relative intensity
42.0417	10
43.0266	122
46.0348	14
65.0431	128
70.0321	126
77.0423	999
77.0702	11
88.0413	46
91.0562	505
93.0706	57
102.0468	62
103.0554	856
105.034	37
115.0544	17
118.065	33
119.0733	15
120.081	234
121.0661	15
127.0528	19
128.0582	33
130.0664	27
