Mass spectrum: Nicosulfuron; LC-ESI-QTOF; MS2; 100 V
Name: Nicosulfuron
Class: Herbicide
Formula: C15H18N6O6S
Exact mass: 410.1009
SMILES: CN(C)C(=O)C1=C(N=CC=C1)S(=O)(=O)NC(=O)NC2=NC(=CC(=N2)OC)OC
InChI: InChI=1S/C15H18N6O6S/c1-21(2)13(22)9-6-5-7-16-12(9)28(24,25)20-15(23)19-14-17-10(26-3)8-11(18-14)27-4/h5-8H,1-4H3,(H2,17,18,19,20,23)
Instrument: TripleTOF 6600 SCIEX
Instrument type: LC-ESI-QTOF
Ms type: MS2
Ion mode: POSITIVE
Collision energy: 100
Fragmentation mode: CID
Ionization: ESI
Column name: Zorbax Eclipse Plus C18 2.1 mm x 150 mm, 3.5 um, Agilent
Retention time: 8.499 min
Precursor m/z: 411.1081
Precursor type: [M+H]+
m/z	relative intensity
40.0163	11
43.0274	14
44.0468	14
50.0127	44
51.0206	261
54.0313	11
55.0262	15
56.0107	55
57.0421	22
64.015	23
65.0105	59
65.0365	24
66.0185	11
67.0024	19
68.0106	35
68.9945	62
69.0056	56
70.0264	9
71.0585	29
78.0312	999
81.0422	18
82.0262	46
83.0214	545
91.0265	49
93.0056	243
94.0126	21
100.0355	12
106.026	63
109.0354	17
112.0483	11
138.0274	19
139.0471	79
140.0438	14
