Mass spectrum: Tiamulin; LC-ESI-QTOF; MS2; 60 V
Name: Tiamulin
Class: Antimicrobial; Pharmaceutical
Formula: C28H47NO4S
Exact mass: 493.3226
SMILES: CCN(CC)CCSCC(=O)OC1CC(C(C(C23CCC(C1(C2C(=O)CC3)C)C)C)O)(C)C=C
InChI: InChI=1S/C28H47NO4S/c1-8-26(6)17-22(33-23(31)18-34-16-15-29(9-2)10-3)27(7)19(4)11-13-28(20(5)25(26)32)14-12-21(30)24(27)28/h8,19-20,22,24-25,32H,1,9-18H2,2-7H3
Instrument: TripleTOF 6600 SCIEX
Instrument type: LC-ESI-QTOF
Ms type: MS2
Ion mode: POSITIVE
Collision energy: 60
Fragmentation mode: CID
Ionization: ESI
Column name: Zorbax Eclipse Plus C18 2.1 mm x 150 mm, 3.5 um, Agilent
Retention time: 8.661 min
Precursor m/z: 494.3299
Precursor type: [M+H]+
m/z	relative intensity
41.0379	11
43.0175	29
44.9791	28
55.0537	25
67.0533	40
69.069	23
73.0099	263
74.0955	114
77.0375	27
79.0528	58
81.0692	133
83.0842	10
91.0204	14
91.053	67
93.0685	95
95.0844	78
97.0632	12
99.0429	11
100.1108	50
101.0043	51
105.0687	117
107.084	108
109.064	24
109.0993	44
111.0795	10
115.0538	10
117.0687	29
119.0152	999
121.0642	23
121.0998	98
123.0782	21
123.1146	15
128.0602	13
129.0684	20
131.0836	65
133.0999	126
135.0794	29
135.1144	32
137.0946	13
142.0761	17
143.0837	42
144.0921	10
145.1001	94
147.0799	18
147.1148	69
149.0955	77
149.1291	17
155.0852	26
156.0922	16
157.0988	54
159.1158	71
161.0956	27
161.1308	36
163.1102	138
169.0996	37
171.1148	44
173.1309	54
175.1097	38
175.145	27
177.1261	43
183.1149	27
185.1313	34
187.1467	27
189.125	15
192.1041	237
197.1311	25
199.1469	18
201.1637	15
203.1405	12
211.1475	16
215.1424	10
227.176	12
