Mass spectrum: Betaxolol; LC-ESI-QTOF; MS2; 80 V
Name: Betaxolol
Class: Pharmaceutical
Formula: C18H29NO3
Exact mass: 307.2147
SMILES: CC(C)NCC(COC1=CC=C(C=C1)CCOCC2CC2)O
InChI: InChI=1S/C18H29NO3/c1-14(2)19-11-17(20)13-22-18-7-5-15(6-8-18)9-10-21-12-16-3-4-16/h5-8,14,16-17,19-20H,3-4,9-13H2,1-2H3
Instrument: TripleTOF 5600 SCIEX
Instrument type: LC-ESI-QTOF
Ms type: MS2
Ion mode: POSITIVE
Collision energy: 80
Fragmentation mode: CID
Ionization: ESI
Column name: Zorbax Eclipse Plus C18 2.1 mm x 150 mm, 3.5 um, Agilent
Retention time: 7.064 min
Precursor m/z: 308.222
Precursor type: [M+H]+
m/z	relative intensity
42.0431	13
43.0297	11
44.0612	41
55.0258	11
56.0585	401
58.0742	135
72.0882	85
74.0661	116
77.0445	999
78.0512	63
79.0603	215
84.0852	33
89.0447	38
91.0589	733
93.0753	38
94.045	16
98.0984	19
100.1156	27
102.0505	52
103.0579	370
104.065	38
105.0438	19
105.0744	124
107.0525	38
115.057	542
116.0646	83
116.1102	13
117.0704	38
119.0512	16
121.0672	69
126.0514	16
127.0567	110
128.0645	276
129.072	71
131.0504	47
132.0578	16
133.0658	22
141.0719	127
142.0813	19
144.059	41
145.0646	16
152.0668	19
153.0776	13
157.0678	13
