Mass spectrum: Bosentan; LC-ESI-QTOF; MS2; 70 V
Name: Bosentan
Class: Pharmaceutical
Formula: C27H29N5O6S
Exact mass: 551.1839
SMILES: CC(C)(C)C1=CC=C(C=C1)S(=O)(=O)NC2=C(C(=NC(=N2)C3=NC=CC=N3)OCCO)OC4=CC=CC=C4OC
InChI: InChI=1S/C27H29N5O6S/c1-27(2,3)18-10-12-19(13-11-18)39(34,35)32-23-22(38-21-9-6-5-8-20(21)36-4)26(37-17-16-33)31-25(30-23)24-28-14-7-15-29-24/h5-15,33H,16-17H2,1-4H3,(H,30,31,32)
Instrument: TripleTOF 5600 SCIEX
Instrument type: LC-ESI-QTOF
Ms type: MS2
Ion mode: POSITIVE
Collision energy: 70
Fragmentation mode: CID
Ionization: ESI
Column name: Zorbax Eclipse Plus C18 2.1 mm x 150 mm, 3.5 um, Agilent
Retention time: 12.118 min
Precursor m/z: 552.1911
Precursor type: [M+H]+
m/z	relative intensity
77.0436	57
79.0337	29
80.0411	97
91.0579	42
95.0522	39
97.0421	90
104.0501	10
105.0711	55
106.0419	394
107.0261	26
107.0487	26
108.0574	59
109.0528	16
117.0632	10
118.0533	10
119.0614	22
120.0461	96
122.0605	105
123.0667	106
124.0515	66
131.0617	22
132.0462	10
132.0677	27
133.0541	55
133.1023	39
134.0617	38
135.0659	81
144.0439	20
146.0553	16
147.0625	259
148.0728	16
149.0466	122
149.0687	27
150.0567	39
161.0707	11
161.1082	19
162.0555	13
163.0506	10
171.0549	12
174.0789	15
175.0615	223
176.0577	32
177.039	13
189.0641	12
197.0794	19
202.0726	487
203.0578	14
203.0812	42
220.078	15
224.0926	36
248.0949	14
251.0887	10
252.0866	42
254.1069	12
255.1049	14
263.0577	13
264.0871	40
276.0845	60
279.0743	27
280.0831	999
282.099	10
292.0837	19
294.0975	35
