Mass spectrum: Lamotrigine; LC-ESI-QTOF; MS2; 80 V
Name: Lamotrigine
Class: Pharmaceutical
Formula: C9H7Cl2N5
Exact mass: 255.0079
SMILES: Nc1nnc(c(N)n1)c2cccc(Cl)c2Cl
InChI: InChI=1S/C9H7Cl2N5/c10-5-3-1-2-4(6(5)11)7-8(12)14-9(13)16-15-7/h1-3H,(H4,12,13,14,16)
Instrument: TripleTOF 5600 SCIEX
Instrument type: LC-ESI-QTOF
Ms type: MS2
Ion mode: POSITIVE
Collision energy: 80
Fragmentation mode: CID
Ionization: ESI
Column name: Zorbax Eclipse Plus C18 2.1 mm x 150 mm, 3.5 um, Agilent
Retention time: 6.024 min
Precursor m/z: 256.0151
Precursor type: [M+H]+
m/z	relative intensity
42.0308	20
43.0376	692
44.0579	20
58.0458	66
63.0467	16
68.0285	62
71.9827	16
72.9871	286
73.01	53
74.0187	961
75.0256	157
77.0405	49
82.9472	45
84.9886	29
86.0182	20
87.0248	66
88.021	53
88.033	53
89.0401	368
90.0347	70
90.0445	16
96.984	157
97.9822	20
98.0155	37
98.9994	29
99.0109	145
100.0186	543
102.0347	58
104.0495	45
106.9446	182
108.9844	999
109.9911	53
110.9994	95
114.0342	153
115.0402	41
116.0477	49
117.0451	33
120.984	24
121.993	66
122.9991	252
123.9942	111
124.0173	120
125.0023	91
131.0615	41
132.9611	227
135.995	132
137.0024	16
138.0105	120
144.9614	136
147.9949	62
149.0029	16
150.0101	29
151.0182	24
152.015	66
156.9608	194
158.9811	33
159.9933	29
164.0018	66
170.9655	78
171.9723	29
172.965	20
194.9643	45
