Mass spectrum: 4-(Dimethylamino)azobenzene; LC-ESI-QTOF; MS2; 90 V
Name: 4-(Dimethylamino)azobenzene
Formula: C14H15N3
Exact mass: 225.1266
SMILES: CN(C)C1=CC=C(C=C1)N=NC2=CC=CC=C2
InChI: InChI=1S/C14H15N3/c1-17(2)14-10-8-13(9-11-14)16-15-12-6-4-3-5-7-12/h3-11H,1-2H3
Instrument: TripleTOF 6600 SCIEX
Instrument type: LC-ESI-QTOF
Ms type: MS2
Ion mode: POSITIVE
Collision energy: 90
Fragmentation mode: CID
Ionization: ESI
Column name: Zorbax Eclipse Plus C18 2.1 mm x 150 mm, 3.5 um, Agilent
Retention time: 15.513 min
Precursor m/z: 226.1339
Precursor type: [M+H]+
m/z	relative intensity
37.0065	24
38.0142	21
39.0223	144
42.033	34
49.0063	29
50.0144	298
51.0223	999
52.0171	22
53.0378	11
62.0139	12
63.0217	80
64.0173	17
64.0293	32
65.0373	202
66.0325	28
67.0401	43
68.0478	21
74.0132	19
75.0215	11
77.0376	678
78.0328	53
78.0437	21
79.0525	23
80.0481	25
89.0366	10
90.0325	26
91.0403	102
92.0476	44
93.0432	13
93.0552	17
104.0478	124
105.0545	41
117.0429	18
118.051	63
120.0793	23
131.0594	13
