Mass spectrum: Amisulbrom; LC-ESI-QTOF; MS2; 120 V
Name: Amisulbrom
Formula: C13H13BrFN5O4S2
Exact mass: 464.9576
SMILES: CC1=C(C2=C(N1S(=O)(=O)C3=NN(C=N3)S(=O)(=O)N(C)C)C=C(C=C2)F)Br
InChI: InChI=1S/C13H13BrFN5O4S2/c1-8-12(14)10-5-4-9(15)6-11(10)20(8)25(21,22)13-16-7-19(17-13)26(23,24)18(2)3/h4-7H,1-3H3
Instrument: TripleTOF 6600 SCIEX
Instrument type: LC-ESI-QTOF
Ms type: MS2
Ion mode: POSITIVE
Collision energy: 120
Fragmentation mode: CID
Ionization: ESI
Column name: Zorbax Eclipse Plus C18 2.1 mm x 150 mm, 3.5 um, Agilent
Retention time: 14.781 min
Precursor m/z: 465.9649
Precursor type: [M+H]+
m/z	relative intensity
42.0332	56
44.0496	22
74.0136	112
75.0228	592
77.037	50
83.0296	33
94.0198	79
95.027	90
96.0366	101
98.0156	39
99.0223	191
100.019	90
100.0329	45
101.038	603
106.02	28
107.0266	118
119.0317	50
120.0361	999
121.0326	95
126.0351	84
127.0392	28
128.0492	203
129.045	152
133.0418	118
133.0515	50
134.0413	39
146.0395	440
147.0462	835
148.0552	293
154.0387	79
158.0436	39
159.0461	56
225.9651	214
