Mass spectrum: Cyclophosphamide; LC-ESI-QTOF; MS2; 100 V
Name: Cyclophosphamide
Class: Pharmaceutical
Formula: C7H15Cl2N2O2P
Exact mass: 260.0248
SMILES: C1CNP(=O)(OC1)N(CCCl)CCCl
InChI: InChI=1S/C7H15Cl2N2O2P/c8-2-5-11(6-3-9)14(12)10-4-1-7-13-14/h1-7H2,(H,10,12)
Instrument: TripleTOF 5600 SCIEX
Instrument type: LC-ESI-QTOF
Ms type: MS2
Ion mode: POSITIVE
Collision energy: 100
Fragmentation mode: CID
Ionization: ESI
Column name: Zorbax Eclipse Plus C18 2.1 mm x 150 mm, 3.5 um, Agilent
Retention time: 7.465 min
Precursor m/z: 261.0321
Precursor type: [M+H]+
m/z	relative intensity
42.0469	399
43.0567	76
44.0612	76
56.0597	322
58.074	153
60.9931	61
62.9795	92
63.0071	999
64.9869	215
79.9948	184
91.9944	184
94.007	107
98.9429	215
