Mass spectrum: Fenarimol; LC-ESI-QTOF; MS2; 130 V
Name: Fenarimol
Class: Fungicide
Formula: C17H12Cl2N2O
Exact mass: 330.0327
SMILES: C1=CC=C(C(=C1)C(C2=CC=C(C=C2)Cl)(C3=CN=CN=C3)O)Cl
InChI: InChI=1S/C17H12Cl2N2O/c18-14-7-5-12(6-8-14)17(22,13-9-20-11-21-10-13)15-3-1-2-4-16(15)19/h1-11,22H
Instrument: TripleTOF 6600 SCIEX
Instrument type: LC-ESI-QTOF
Ms type: MS2
Ion mode: POSITIVE
Collision energy: 130
Fragmentation mode: CID
Ionization: ESI
Column name: Zorbax Eclipse Plus C18 2.1 mm x 150 mm, 3.5 um, Agilent
Retention time: 11.9 min
Precursor m/z: 331.04
Precursor type: [M+H]+
m/z	relative intensity
49.0069	49
50.0152	193
51.0226	118
52.0179	37
54.0335	74
62.015	31
63.0224	56
73.0072	93
74.015	999
75.0228	936
76.0303	62
77.0379	49
84.9832	106
86.0151	31
87.0225	99
89.0383	68
98.0152	37
99.023	24
102.0466	37
110.999	112
111.0227	37
113.0382	37
115.0537	31
122.015	43
135.0236	24
137.038	49
139.0526	56
149.04	43
150.0458	124
151.0546	49
152.0618	37
161.039	137
162.0464	112
163.0537	168
174.0457	43
175.0526	37
176.0623	81
185.038	99
186.0464	124
187.054	605
188.0622	43
189.0665	31
212.0492	49
214.0641	37
