Mass spectrum: Thieno[3,2-b]pyridin-7-ol; LC-ESI-QTOF; MS2; 150 V
Name: Thieno[3,2-b]pyridin-7-ol
Formula: C7H5NOS
Exact mass: 151.0092
SMILES: C1=CNC2=C(C1=O)SC=C2
InChI: InChI=1S/C7H5NOS/c9-6-1-3-8-5-2-4-10-7(5)6/h1-4H,(H,8,9)
Instrument: TripleTOF 6600 SCIEX
Instrument type: LC-ESI-QTOF
Ms type: MS2
Ion mode: POSITIVE
Collision energy: 150
Fragmentation mode: CID
Ionization: ESI
Column name: Zorbax Eclipse Plus C18 2.1 mm x 150 mm, 3.5 um, Agilent
Retention time: 4.72 min
Precursor m/z: 152.0165
Precursor type: [M+H]+
m/z	relative intensity
31.9721	135
36.0005	702
37.0074	999
38.0027	279
38.015	333
39.0228	62
43.9719	360
44.9793	612
45.975	216
49.0071	225
50.0153	171
51.0109	81
56.9809	36
59.9994	135
61.007	261
62.0146	54
67.9717	90
68.979	207
