Mass spectrum: Chloridazon; LC-ESI-QTOF; MS2; 80 V
Name: Chloridazon
Class: Herbicide
Formula: C10H8ClN3O
Exact mass: 221.0356
SMILES: C1=CC=C(C=C1)N2C(=O)C(=C(C=N2)N)Cl
InChI: InChI=1S/C10H8ClN3O/c11-9-8(12)6-13-14(10(9)15)7-4-2-1-3-5-7/h1-6H,12H2
Instrument: TripleTOF 6600 SCIEX
Instrument type: LC-ESI-QTOF
Ms type: MS2
Ion mode: POSITIVE
Collision energy: 80
Fragmentation mode: CID
Ionization: ESI
Column name: Zorbax Eclipse Plus C18 2.1 mm x 150 mm, 3.5 um, Agilent
Retention time: 6.924 min
Precursor m/z: 222.0429
Precursor type: [M+H]+
m/z	relative intensity
37.0077	36
38.0156	24
39.0109	12
39.0231	198
40.0175	12
41.0266	14
46.9681	31
48.9844	19
49.0075	75
50.0151	402
51.0232	999
52.0183	118
53.0261	55
54.0339	16
55.0293	46
60.984	16
62.0146	9
63.023	41
63.9949	29
65.0388	354
66.0212	273
66.0462	38
72.9834	12
73.9788	67
74.0148	24
74.9865	33
75.0229	29
75.9946	14
77.0388	441
87.9951	118
88.0296	12
89.0374	16
92.0495	29
93.0569	46
100.989	26
103.0556	14
104.0492	26
113.0396	14
114.0333	14
116.9974	14
122.9998	14
