Mass spectrum: Rhein; LC-ESI-QTOF; MS2; 60 V
Name: Rhein
Class: Metabolite
Formula: C15H8O6
Exact mass: 284.0321
SMILES: C1=CC2=C(C(=C1)O)C(=O)C3=C(C=C(C=C3C2=O)C(=O)O)O
InChI: InChI=1S/C15H8O6/c16-9-3-1-2-7-11(9)14(19)12-8(13(7)18)4-6(15(20)21)5-10(12)17/h1-5,16-17H,(H,20,21)
Instrument: TripleTOF 5600 SCIEX
Instrument type: LC-ESI-QTOF
Ms type: MS2
Ion mode: POSITIVE
Collision energy: 60
Fragmentation mode: CID
Ionization: ESI
Column name: Zorbax Eclipse Plus C18 2.1 mm x 150 mm, 3.5 um, Agilent
Retention time: 10.796 min
Precursor m/z: 285.0394
Precursor type: [M+H]+
m/z	relative intensity
65.0385	158
77.0381	191
81.0329	52
89.039	33
91.0174	33
93.033	165
101.0374	59
103.0524	66
109.0287	33
115.0538	152
119.0124	39
121.0287	330
126.046	138
127.0542	813
128.0611	330
129.0677	59
131.0482	59
137.035	99
138.0484	33
139.0534	602
141.0692	26
155.049	999
157.0652	198
165.0202	46
167.052	86
183.0422	396
184.053	46
193.0285	66
211.0359	46
213.0554	59
