Mass spectrum: Prednisone; LC-ESI-QTOF; MS2; 150 V
Name: Prednisone
Class: Pharmaceutical
Formula: C21H26O5
Exact mass: 358.178
SMILES: C[C@]12CC(=O)[C@H]3[C@@H](CCC4=CC(=O)C=C[C@]34C)[C@@H]1CC[C@]2(O)C(=O)CO
InChI: InChI=1S/C21H26O5/c1-19-7-5-13(23)9-12(19)3-4-14-15-6-8-21(26,17(25)11-22)20(15,2)10-16(24)18(14)19/h5,7,9,14-15,18,22,26H,3-4,6,8,10-11H2,1-2H3/t14-,15-,18+,19-,20-,21-/m0/s1
Instrument: TripleTOF 5600 SCIEX
Instrument type: LC-ESI-QTOF
Ms type: MS2
Ion mode: POSITIVE
Collision energy: 150
Fragmentation mode: CID
Ionization: ESI
Column name: Zorbax Eclipse Plus C18 2.1 mm x 150 mm, 3.5 um, Agilent
Retention time: 8.469 min
Precursor m/z: 359.1853
Precursor type: [M+H]+
m/z	relative intensity
43.0254	66
51.0288	294
53.0449	33
65.0424	285
67.0582	28
74.0189	33
75.0252	80
76.0346	33
77.0415	889
77.0727	23
78.0488	152
79.0571	47
89.0403	199
89.053	23
91.0557	328
101.042	38
102.0469	233
103.0551	166
107.0535	23
113.0388	33
115.0546	999
125.0403	33
126.0473	118
127.0542	256
128.0621	356
129.0706	19
131.0495	76
139.0536	228
141.0697	47
150.0474	195
151.0545	290
152.0624	551
153.0693	28
157.0703	23
162.0461	38
163.0551	242
164.0622	152
165.0702	390
175.0531	38
176.0614	261
177.0708	52
178.0786	90
181.0671	23
187.0546	161
188.0635	104
189.0715	285
200.0624	133
201.0718	76
202.0788	166
211.052	23
213.0702	90
215.0865	28
224.0605	28
225.0703	28
226.0769	33
