Mass spectrum: Doxepin; LC-ESI-QTOF; MS2; 110 V
Name: Doxepin
Class: Pharmaceutical
Formula: C19H21NO
Exact mass: 279.1623
SMILES: CN(C)CCC=C1C2=CC=CC=C2COC3=CC=CC=C31
InChI: InChI=1S/C19H21NO/c1-20(2)13-7-11-17-16-9-4-3-8-15(16)14-21-19-12-6-5-10-18(17)19/h3-6,8-12H,7,13-14H2,1-2H3
Instrument: TripleTOF 5600 SCIEX
Instrument type: LC-ESI-QTOF
Ms type: MS2
Ion mode: POSITIVE
Collision energy: 110
Fragmentation mode: CID
Ionization: ESI
Column name: Zorbax Eclipse Plus C18 2.1 mm x 150 mm, 3.5 um, Agilent
Retention time: 7.447 min
Precursor m/z: 280.1696
Precursor type: [M+H]+
m/z	relative intensity
42.0458	48
58.0734	73
65.0462	294
68.0573	18
70.0713	14
74.0198	56
75.0286	56
76.0369	49
77.0444	799
78.0518	97
79.059	28
84.0861	14
86.0198	34
87.0268	60
88.0345	12
89.043	330
91.0584	276
98.0194	38
99.0264	20
100.0335	11
101.0427	29
102.0499	186
103.0581	13
107.0519	10
110.0176	10
111.0256	13
113.0414	84
114.0484	20
115.0569	948
122.0172	12
125.0408	40
126.0481	179
127.0559	150
128.0637	223
137.0399	24
138.0491	32
139.0557	483
141.071	24
149.0388	58
150.0474	449
151.0552	508
152.0629	377
161.0402	28
162.0468	89
163.0549	905
164.0628	463
165.0706	630
174.0464	131
175.0549	93
176.0621	440
177.069	58
178.0792	49
186.046	25
187.0537	365
188.0622	244
189.0696	999
190.0773	17
198.0452	57
199.0537	137
200.0621	485
201.0703	99
202.0766	83
211.0544	48
212.0649	27
213.0691	257
215.0835	20
218.0716	10
