Mass spectrum: Doxycycline; LC-ESI-QTOF; MS2; 100 V
Name: Doxycycline
Class: Antimicrobial; Pharmaceutical
Formula: C22H24N2O8
Exact mass: 444.1533
SMILES: CC1C2C(C3C(C(=O)C(=C(C3(C(=O)C2=C(C4=C1C=CC=C4O)O)O)O)C(=O)N)N(C)C)O
InChI: InChI=1S/C22H24N2O8/c1-7-8-5-4-6-9(25)11(8)16(26)12-10(7)17(27)14-15(24(2)3)18(28)13(21(23)31)20(30)22(14,32)19(12)29/h4-7,10,14-15,17,25-27,30,32H,1-3H3,(H2,23,31)
Instrument: TripleTOF 5600 SCIEX
Instrument type: LC-ESI-QTOF
Ms type: MS2
Ion mode: POSITIVE
Collision energy: 100
Fragmentation mode: CID
Ionization: ESI
Column name: Zorbax Eclipse Plus C18 2.1 mm x 150 mm, 3.5 um, Agilent
Retention time: 6.499 min
Precursor m/z: 445.1605
Precursor type: [M+H]+
m/z	relative intensity
70.0726	66
77.044	183
89.0456	66
91.0601	149
98.0638	183
103.0609	83
115.058	699
116.0652	116
117.0725	166
126.0504	133
127.0556	832
128.0653	416
131.0481	99
132.0586	83
139.0575	416
140.0624	333
141.0716	266
144.0594	199
145.0684	99
151.057	199
152.0631	799
153.0703	249
154.0812	66
155.0504	183
155.0872	66
157.066	99
160.0491	116
163.0587	83
164.062	149
165.0706	949
166.0763	149
167.0902	116
168.0561	999
169.0678	83
176.063	266
177.0703	116
178.0787	316
179.0471	83
180.0589	149
181.0645	316
184.0518	83
189.0695	283
190.0745	83
191.0885	83
193.0649	83
194.0672	83
195.075	133
196.0565	199
197.0564	266
198.0611	133
201.0569	116
205.0668	166
208.0465	83
210.0657	149
211.0756	149
221.0616	183
222.0735	66
224.0536	66
226.062	133
234.0608	66
252.0412	83
