Mass spectrum: Resorcinol bis(diphenyl phosphate); LC-ESI-QTOF; MS2; 60 V
Name: Resorcinol bis(diphenyl phosphate)
Class: Industrial_process
Formula: C30H24O8P2
Exact mass: 574.0946
SMILES: C1=CC=C(C=C1)OP(=O)(OC2=CC=CC=C2)OC3=CC(=CC=C3)OP(=O)(OC4=CC=CC=C4)OC5=CC=CC=C5
InChI: InChI=1S/C30H24O8P2/c31-39(33-25-14-5-1-6-15-25,34-26-16-7-2-8-17-26)37-29-22-13-23-30(24-29)38-40(32,35-27-18-9-3-10-19-27)36-28-20-11-4-12-21-28/h1-24H
Instrument: TripleTOF 6600 SCIEX
Instrument type: LC-ESI-QTOF
Ms type: MS2
Ion mode: POSITIVE
Collision energy: 60
Fragmentation mode: CID
Ionization: ESI
Column name: Zorbax Eclipse Plus C18 2.1 mm x 150 mm, 3.5 um, Agilent
Retention time: 15.87 min
Precursor m/z: 575.1019
Precursor type: [M+H]+
m/z	relative intensity
51.0235	26
65.0386	31
77.0388	381
93.0332	38
94.0414	9
95.0138	13
95.0493	39
103.0547	13
105.0442	21
109.029	11
111.0434	13
115.0541	86
121.0313	13
127.0546	16
128.063	43
129.0703	18
133.0209	9
138.995	26
139.0547	96
140.0614	13
141.0703	424
150.0467	44
151.0547	367
152.0629	657
153.0707	471
154.0778	36
154.9909	13
155.0531	31
156.0575	29
157.0059	18
157.02	14
157.0656	49
165.072	11
167.0499	76
168.0576	311
169.0657	381
170.074	34
171.081	31
173.0083	21
175.0161	78
175.0304	39
177.0109	14
179.0617	39
183.0459	23
184.0525	93
185.016	14
185.0595	39
186.0239	11
187.0314	73
187.0762	21
189.0114	24
189.0702	23
191.0869	41
195.0562	11
199.0299	11
201.0095	14
201.0705	36
202.0793	274
203.0269	216
203.0868	33
204.0931	11
205.0065	41
207.0809	21
213.0116	59
213.0722	11
214.0185	9
215.0277	869
215.06	43
215.0854	111
216.0947	64
217.043	16
217.066	31
217.1029	164
218.0729	78
218.9612	14
219.0219	36
219.082	59
221.0012	13
221.0379	18
222.0087	63
223.0162	129
224.064	19
225.0711	29
226.0797	649
227.0872	309
228.0944	188
229.0063	46
229.0721	14
229.1027	108
230.015	13
230.0741	56
230.1101	14
231.0228	999
231.081	21
232.0297	38
232.0888	33
233.0381	213
233.0973	21
234.0678	29
234.9566	58
242.0743	91
243.0823	96
244.09	138
245.0977	178
246.0702	14
246.1057	29
247.0178	49
248.0259	139
249.0332	223
250.0385	18
251.0491	511
252.0947	13
253.043	69
259.0758	9
260.0404	16
260.0847	51
261.0486	63
261.0921	28
263.0271	28
263.065	9
263.109	28
267.0437	89
276.0956	36
277.0416	18
277.1029	18
278.1091	26
279.0592	83
281.0391	74
289.0437	241
289.1027	36
290.1106	19
291.0599	63
291.1191	31
292.9789	124
293.1366	21
294.9952	96
295.0541	24
297.069	18
298.041	33
299.0494	482
300.0953	23
301.103	58
302.1112	191
303.1198	41
304.1238	14
305.0373	41
305.1001	36
306.0462	26
307.0553	572
308.0587	19
309.035	53
309.0722	61
310.0404	26
310.9902	597
313.0055	49
313.0643	19
318.1071	31
319.0783	13
319.1167	19
320.1231	38
323.0507	23
324.0604	44
325.0662	296
326.0741	49
327.081	221
328.9998	139
336.1176	21
341.0164	16
341.0618	31
343.0761	517
347.0642	9
351.0021	43
353.0171	9
353.0809	9
359.0291	18
363.0607	11
365.0733	63
369.0104	209
371.0274	39
383.0857	74
387.022	469
389.0377	79
401.0947	34
405.0334	779
417.09	13
419.1085	729
423.0408	34
427.0375	13
445.0428	64
463.0537	196
481.0645	869
495.1386	18
499.0743	258
575.1069	391
