Mass spectrum: Enilconazole; LC-ESI-QTOF; MS2; 30 V
Name: Enilconazole
Class: Pharmaceutical; Fungicide; Biocide
Formula: C14H14Cl2N2O
Exact mass: 296.0483
SMILES: Clc1ccc(C(Cn2ccnc2)OCC=C)c(Cl)c1
InChI: InChI=1S/C14H14Cl2N2O/c1-2-7-19-14(9-18-6-5-17-10-18)12-4-3-11(15)8-13(12)16/h2-6,8,10,14H,1,7,9H2
Instrument: TripleTOF 5600 SCIEX
Instrument type: LC-ESI-QTOF
Ms type: MS2
Ion mode: POSITIVE
Collision energy: 30
Fragmentation mode: CID
Ionization: ESI
Column name: Zorbax Eclipse Plus C18 2.1 mm x 150 mm, 3.5 um, Agilent
Retention time: 8.159 min
Precursor m/z: 297.0556
Precursor type: [M+H]+
m/z	relative intensity
69.0482	303
81.0464	64
82.0678	16
109.0753	173
141.07	12
149.0149	11
150.0236	20
158.9758	999
164.0383	27
172.9907	235
175.0296	30
176.0379	293
182.9776	18
184.9903	57
186.9695	33
199.0077	53
200.9862	348
203.0332	13
211.0074	46
255.0075	386
297.0549	653
