Mass spectrum: 2-(3-Hydroxyquinolin-2-yl)indene-1,3-dione; LC-ESI-QTOF; MS2; 40 V
Name: 2-(3-Hydroxyquinolin-2-yl)indene-1,3-dione
Class: Industrial_process; Personal_care_product; Pigment
Formula: C18H11NO3
Exact mass: 289.0739
SMILES: C1=CC=C2C(=C1)C=C(C(=N2)C3C(=O)C4=CC=CC=C4C3=O)O
InChI: InChI=1S/C18H11NO3/c20-14-9-10-5-1-4-8-13(10)19-16(14)15-17(21)11-6-2-3-7-12(11)18(15)22/h1-9,15,20H
Instrument: TripleTOF 6600 SCIEX
Instrument type: LC-ESI-QTOF
Ms type: MS2
Ion mode: POSITIVE
Collision energy: 40
Fragmentation mode: CID
Ionization: ESI
Column name: Zorbax Eclipse Plus C18 2.1 mm x 150 mm, 3.5 um, Agilent
Retention time: 14.718 min
Precursor m/z: 290.0812
Precursor type: [M+H]+
m/z	relative intensity
77.0385	70
89.0384	21
91.0542	12
105.0329	156
115.0543	36
116.0484	45
117.0562	33
128.0481	21
130.0656	18
158.0601	27
189.069	156
190.063	76
204.0814	70
205.0894	42
206.0954	61
212.0324	15
214.0634	33
215.0726	88
216.08	999
217.0646	24
217.0875	171
218.0963	39
232.0742	36
233.0832	85
234.0908	113
243.0673	33
244.0751	490
245.083	45
246.091	113
260.0702	15
261.0775	101
262.0856	153
272.07	677
290.0804	965
