Mass spectrum: Fluorescein; LC-ESI-QTOF; MS2; 110 V
Name: Fluorescein
Class: Industrial_process; Pharmaceutical
Formula: C20H12O5
Exact mass: 332.0685
SMILES: C1=CC=C2C(=C1)C(=O)OC23C4=C(C=C(C=C4)O)OC5=C3C=CC(=C5)O
InChI: InChI=1S/C20H12O5/c21-11-5-7-15-17(9-11)24-18-10-12(22)6-8-16(18)20(15)14-4-2-1-3-13(14)19(23)25-20/h1-10,21-22H
Instrument: TripleTOF 5600 SCIEX
Instrument type: LC-ESI-QTOF
Ms type: MS2
Ion mode: POSITIVE
Collision energy: 110
Fragmentation mode: CID
Ionization: ESI
Column name: Zorbax Eclipse Plus C18 2.1 mm x 150 mm, 3.5 um, Agilent
Retention time: 9.527 min
Precursor m/z: 333.0757
Precursor type: [M+H]+
m/z	relative intensity
51.0236	12
63.0223	15
65.0386	15
68.9971	15
75.0222	17
77.0378	51
89.0384	25
102.046	30
113.0387	10
115.0531	71
125.0363	12
126.0462	36
127.0552	45
128.0617	25
137.0388	19
139.053	77
149.0393	25
150.0467	150
151.0564	161
152.0625	137
155.0501	17
161.0405	15
162.046	23
163.0549	172
164.0612	45
165.0703	53
174.0458	58
175.0541	79
176.0616	251
177.0675	21
178.08	25
186.0463	51
187.0544	275
188.063	139
189.0701	282
198.0501	34
199.0555	88
200.0628	999
201.0699	503
202.0783	598
203.0499	10
210.044	15
211.0539	148
212.065	75
213.0698	331
214.0751	19
215.0864	30
223.0532	21
224.0647	27
229.0658	73
242.0764	23
258.0677	15
