Mass spectrum: Enrofloxacin; LC-ESI-QTOF; MS2; 90 V
Name: Enrofloxacin
Class: Pharmaceutical; Antimicrobial
Formula: C19H22FN3O3
Exact mass: 359.1645
SMILES: CCN1CCN(CC1)c2cc3N(C=C(C(O)=O)C(=O)c3cc2F)C4CC4
InChI: InChI=1S/C19H22FN3O3/c1-2-21-5-7-22(8-6-21)17-10-16-13(9-15(17)20)18(24)14(19(25)26)11-23(16)12-3-4-12/h9-12H,2-8H2,1H3,(H,25,26)
Instrument: TripleTOF 5600 SCIEX
Instrument type: LC-ESI-QTOF
Ms type: MS2
Ion mode: POSITIVE
Collision energy: 90
Fragmentation mode: CID
Ionization: ESI
Column name: Zorbax Eclipse Plus C18 2.1 mm x 150 mm, 3.5 um, Agilent
Retention time: 5.696 min
Precursor m/z: 360.1718
Precursor type: [M+H]+
m/z	relative intensity
42.042	478
53.0075	166
56.0543	145
70.0687	374
74.0213	124
75.0249	166
77.0428	187
83.0291	124
84.0809	104
89.0419	270
94.0239	83
95.0344	104
99.0239	124
101.0391	249
106.0213	104
107.0286	582
107.0462	83
108.0387	187
109.0457	145
113.035	124
114.0321	416
115.0402	104
115.0546	228
116.0485	270
117.0568	104
120.0378	145
121.0312	166
122.0384	104
125.0405	104
126.0335	374
127.0385	83
127.0551	291
128.0484	333
128.0618	104
129.0585	249
130.0667	187
132.0251	999
133.0361	790
134.0385	915
134.0721	104
135.0466	457
136.0172	104
139.0277	145
140.048	291
141.0567	208
142.0623	249
143.0772	83
145.0434	145
146.0387	312
146.0527	270
147.0473	395
148.0558	999
149.053	124
153.055	83
154.063	499
155.0599	270
156.0656	228
158.0384	208
159.0432	312
160.0189	333
160.048	416
161.0302	228
161.051	561
162.0353	291
166.0483	83
167.021	104
167.0654	208
168.0667	208
169.075	145
172.0545	853
172.0738	83
173.0541	603
174.0349	832
174.0562	374
174.0745	104
175.065	333
176.0483	145
176.076	208
180.0618	124
181.0749	104
184.0597	124
185.0607	228
186.0698	208
187.0267	208
187.0637	249
188.0142	645
189.0454	291
199.0692	124
200.049	124
201.0572	145
201.0841	124
202.0639	187
203.0635	374
214.0378	104
215.0239	582
215.0606	124
217.044	145
229.0773	104
243.0584	124
256.053	145
