Mass spectrum: Iminostilbene; LC-ESI-QTOF; MS2; 60 V
Name: Iminostilbene
Class: Pharmaceutical
Formula: C14H11N
Exact mass: 193.0891
SMILES: C1=CC=C2C(=C1)C=CC3=CC=CC=C3N2
InChI: InChI=1S/C14H11N/c1-3-7-13-11(5-1)9-10-12-6-2-4-8-14(12)15-13/h1-10,15H
Instrument: TripleTOF 6600 SCIEX
Instrument type: LC-ESI-QTOF
Ms type: MS2
Ion mode: POSITIVE
Collision energy: 60
Fragmentation mode: CID
Ionization: ESI
Column name: Zorbax Eclipse Plus C18 2.1 mm x 150 mm, 3.5 um, Agilent
Retention time: 13.175 min
Precursor m/z: 194.0964
Precursor type: [M+H]+
m/z	relative intensity
39.0196	16
51.0184	25
63.0172	26
65.0328	41
77.0314	45
89.0306	217
90.038	84
91.0457	29
101.0291	17
102.0368	26
113.028	12
115.0435	75
116.0388	20
117.0463	42
125.0266	17
126.0345	56
127.0304	10
127.0417	22
128.0402	71
129.0447	15
139.0415	128
140.0375	102
150.0325	88
151.0407	402
152.0473	337
153.0435	102
163.039	37
164.0465	129
165.055	607
166.0506	228
167.0581	250
176.0454	54
177.0414	159
178.0496	493
179.056	176
190.0482	174
191.0561	999
192.0638	699
193.0713	179
194.0793	11
