Mass spectrum: Oxibendazole; LC-ESI-QTOF; MS2; 100 V
Name: Oxibendazole
Class: Pharmaceutical
Formula: C12H15N3O3
Exact mass: 249.1113
SMILES: CCCOC1=CC2=C(C=C1)N=C(N2)NC(=O)OC
InChI: InChI=1S/C12H15N3O3/c1-3-6-18-8-4-5-9-10(7-8)14-11(13-9)15-12(16)17-2/h4-5,7H,3,6H2,1-2H3,(H2,13,14,15,16)
Instrument: TripleTOF 5600 SCIEX
Instrument type: LC-ESI-QTOF
Ms type: MS2
Ion mode: POSITIVE
Collision energy: 100
Fragmentation mode: CID
Ionization: ESI
Column name: Zorbax Eclipse Plus C18 2.1 mm x 150 mm, 3.5 um, Agilent
Retention time: 6.663 min
Precursor m/z: 250.1186
Precursor type: [M+H]+
m/z	relative intensity
37.0078	80
38.0156	67
39.023	269
40.0182	80
41.0256	94
43.0291	108
50.0152	297
51.0232	796
52.0185	323
52.0312	323
53.0018	80
53.0388	823
54.0341	80
62.015	54
63.0228	134
64.0176	188
65.0133	188
65.0262	472
66.0216	175
66.0337	917
67.0294	94
67.0419	202
68.0128	364
68.0477	67
69.0083	188
75.0099	161
76.018	999
77.0256	148
77.0363	54
78.0333	620
79.0165	67
79.0411	242
80.0128	108
80.0498	364
81.0333	958
92.0366	809
93.0075	229
93.0447	297
94.0294	67
94.0539	67
96.0442	108
103.0293	310
104.0361	54
105.0441	148
106.0292	323
108.0447	54
121.0402	297
122.0245	67
130.0366	67
134.0466	80
