Mass spectrum: Ecgonine ethyl ester; LC-ESI-QTOF; MS2; 30 V
Name: Ecgonine ethyl ester
Formula: C11H19NO3
Exact mass: 213.1365
SMILES: CCOC(=O)C1C2CCC(N2C)CC1O
InChI: InChI=1S/C11H19NO3/c1-3-15-11(14)10-8-5-4-7(12(8)2)6-9(10)13/h7-10,13H,3-6H2,1-2H3
Instrument: TripleTOF 6600 SCIEX
Instrument type: LC-ESI-QTOF
Ms type: MS2
Ion mode: POSITIVE
Collision energy: 30
Fragmentation mode: CID
Ionization: ESI
Column name: Zorbax Eclipse Plus C18 2.1 mm x 150 mm, 3.5 um, Agilent
Retention time: 2.108 min
Precursor m/z: 214.1438
Precursor type: [M+H]+
m/z	relative intensity
44.0507	14
65.0388	11
67.0555	30
68.0502	11
77.0395	11
82.0663	720
83.0499	11
83.0738	28
84.0811	28
91.0545	50
93.0702	26
94.0659	16
96.081	47
100.0763	52
108.0812	76
111.0458	26
119.0496	78
122.0973	35
124.112	26
140.071	19
150.0916	83
168.1022	133
170.1171	23
186.1124	21
196.1339	999
214.1442	181
