Mass spectrum: Iopamidol; LC-ESI-QTOF; MS2; 40 V
Name: Iopamidol
Class: Pharmaceutical
Formula: C17H22I3N3O8
Exact mass: 776.8541
SMILES: C[C@H](O)C(=O)Nc1c(I)c(C(=O)NC(CO)CO)c(I)c(C(=O)NC(CO)CO)c1I
InChI: InChI=1S/C17H22I3N3O8/c1-6(28)15(29)23-14-12(19)9(16(30)21-7(2-24)3-25)11(18)10(13(14)20)17(31)22-8(4-26)5-27/h6-8,24-28H,2-5H2,1H3,(H,21,30)(H,22,31)(H,23,29)/t6-/m0/s1
Instrument: TripleTOF 5600 SCIEX
Instrument type: LC-ESI-QTOF
Ms type: MS2
Ion mode: POSITIVE
Collision energy: 40
Fragmentation mode: CID
Ionization: ESI
Column name: Zorbax Eclipse Plus C18 2.1 mm x 150 mm, 3.5 um, Agilent
Retention time: 3.4 min
Precursor m/z: 777.8614
Precursor type: [M+H]+
m/z	relative intensity
386.984	128
413.975	153
430.9743	192
485.85	64
496.8515	64
531.8986	384
540.8674	64
541.885	409
558.8861	999
631.9287	89
686.8011	115
