Mass spectrum: Daidzein; LC-ESI-QTOF; MS2; 150 V
Name: Daidzein
Class: Pharmaceutical
Formula: C15H10O4
Exact mass: 254.0579
InChI: InChI=1S/C15H10O4/c16-10-3-1-9(2-4-10)13-8-19-14-7-11(17)5-6-12(14)15(13)18/h1-8,16-17H
Instrument: TripleTOF 5600 SCIEX
Instrument type: LC-ESI-QTOF
Ms type: CID
Ion mode: NEGATIVE
Collision energy: 150
Ionization: ESI
Column name: Zorbax Eclipse Plus C18 2.1 mm x 150 mm, 3.5 um, Agilent
Retention time: 7.744 min
Precursor m/z: 253.0506
Precursor type: [M-H]-
m/z	relative intensity
41.008	999
65.0056	259
73.0097	92
