Mass spectrum: Didesmethyl-citalopram; LC-ESI-QTOF; MS2; 110 V
Name: Didesmethyl-citalopram
Class: Pharmaceutical; Metabolite; Transformation_product-Metabolite
Formula: C18H17FN2O
Exact mass: 296.1325
SMILES: c1cc(ccc1C2(c3ccc(cc3CO2)C#N)CCCN)F
InChI: InChI=1S/C18H17FN2O/c19-16-5-3-15(4-6-16)18(8-1-9-20)17-7-2-13(11-21)10-14(17)12-22-18/h2-7,10H,1,8-9,12,20H2
Instrument: TripleTOF 5600 SCIEX
Instrument type: LC-ESI-QTOF
Ms type: MS2
Ion mode: POSITIVE
Collision energy: 110
Fragmentation mode: CID
Ionization: ESI
Column name: Zorbax Eclipse Plus C18 2.1 mm x 150 mm, 3.5 um, Agilent
Retention time: 7.575 min
Precursor m/z: 297.1398
Precursor type: [M+H]+
m/z	relative intensity
51.0297	39
57.0201	406
59.0347	57
65.0417	28
73.0113	13
74.0183	145
75.0262	168
76.0344	19
77.042	99
78.0516	13
81.0161	42
83.0318	999
85.0102	18
86.0177	28
87.0247	96
88.0224	37
88.0349	13
89.0405	370
90.0362	27
94.024	19
95.0298	28
96.0381	16
97.0077	10
98.0159	105
99.0239	69
100.0301	27
101.0409	30
102.0462	25
105.0129	18
107.0294	67
109.0043	12
109.045	443
110.0165	25
111.0236	31
113.0389	180
114.033	72
115.0543	57
116.0489	27
118.0205	10
120.0383	49
122.0166	43
123.0221	58
124.0301	16
125.0391	36
126.0474	49
127.0531	30
128.0629	15
131.0286	22
133.0451	100
134.0178	12
135.022	13
137.0392	37
138.0426	24
139.054	33
140.0498	111
142.0201	12
143.0333	12
144.0378	55
145.0435	13
146.0147	27
146.0531	19
147.022	31
148.0281	21
149.0401	99
150.0462	136
151.051	52
152.0615	19
155.028	21
157.0447	49
158.0391	18
161.0371	90
162.0461	55
163.0555	117
164.049	49
167.0288	28
168.0388	210
169.0433	93
170.0516	72
172.0285	13
173.0406	54
174.0446	168
175.0496	91
176.0608	34
177.0549	22
179.0298	48
180.0371	54
181.0453	218
182.0442	30
183.0592	15
185.0381	36
186.0413	76
187.054	230
188.0496	126
189.0672	30
191.0307	18
192.0373	117
193.0418	76
194.0515	93
195.0494	24
196.0315	12
197.0388	87
198.0466	337
199.0517	219
200.062	160
201.0585	55
202.0795	12
203.0305	18
204.0373	43
205.0452	228
206.0456	117
207.0571	79
208.0552	37
209.0449	10
210.0483	15
211.0536	171
212.0506	180
213.0686	99
214.0673	40
216.0382	81
217.0445	225
218.0535	610
219.0521	103
220.0683	51
222.047	18
223.0419	85
224.0504	118
225.0571	237
226.0686	27
229.0471	42
230.0414	70
231.0597	151
232.0558	54
233.076	12
236.0517	36
237.0596	19
238.065	108
239.0742	12
242.0482	46
243.048	183
244.0577	118
245.0644	130
254.0409	10
256.0553	40
258.0694	24
258.0898	10
