Mass spectrum: Reactive Orange; LC-ESI-QTOF; MS2; 90 V
Name: Reactive Orange
Formula: C20H19N3O11S3
Exact mass: 573.0182
SMILES: CC(=O)NC1=CC2=C(C(=C(C=C2C=C1)S(=O)(=O)O)N=NC3=CC=C(C=C3)S(=O)(=O)CCOS(=O)(=O)O)O
InChI: InChI=1S/C20H19N3O11S3/c1-12(24)21-15-3-2-13-10-18(36(28,29)30)19(20(25)17(13)11-15)23-22-14-4-6-16(7-5-14)35(26,27)9-8-34-37(31,32)33/h2-7,10-11,25H,8-9H2,1H3,(H,21,24)(H,28,29,30)(H,31,32,33)
Instrument: TripleTOF 6600 SCIEX
Instrument type: LC-ESI-QTOF
Ms type: MS2
Ion mode: POSITIVE
Collision energy: 90
Fragmentation mode: CID
Ionization: ESI
Column name: Zorbax Eclipse Plus C18 2.1 mm x 150 mm, 3.5 um, Agilent
Retention time: 5.751 min
Precursor m/z: 574.0255
Precursor type: [M+H]+
m/z	relative intensity
46.9945	20
53.0385	16
65.0378	15
68.0123	23
74.9898	25
77.0389	14
80.0484	111
81.0329	512
91.041	16
92.048	80
93.0575	29
103.0421	16
104.0483	71
108.0438	999
114.033	18
115.0411	25
116.0479	37
117.0556	13
129.0446	78
130.0513	173
131.0594	167
132.0436	18
142.0518	439
143.0589	76
158.0473	10
159.0533	12
170.047	842
171.0531	105
172.0361	25
204.0802	31
205.0751	93
206.0797	80
215.0586	11
216.0647	14
217.0753	10
218.0793	12
220.0835	40
231.0776	23
232.0853	130
233.0926	408
234.0783	32
243.0817	17
244.085	19
245.0926	27
248.0837	19
249.0846	18
260.0822	72
261.0883	151
262.0812	19
303.0995	12
