Mass spectrum: Dimethomorph; LC-ESI-QTOF; MS2; 140 V
Name: Dimethomorph
Class: Fungicide
Formula: C21H22ClNO4
Exact mass: 387.1237
SMILES: COc1ccc(cc1OC)/C(=C\C(=O)N2CCOCC2)/c3ccc(cc3)Cl
InChI: InChI=1S/C21H22ClNO4/c1-25-19-8-5-16(13-20(19)26-2)18(15-3-6-17(22)7-4-15)14-21(24)23-9-11-27-12-10-23/h3-8,13-14H,9-12H2,1-2H3/b18-14-
Instrument: TripleTOF 5600 SCIEX
Instrument type: LC-ESI-QTOF
Ms type: MS2
Ion mode: POSITIVE
Collision energy: 140
Fragmentation mode: CID
Ionization: ESI
Column name: Zorbax Eclipse Plus C18 2.1 mm x 150 mm, 3.5 um, Agilent
Retention time: 11.552 min
Precursor m/z: 388.131
Precursor type: [M+H]+
m/z	relative intensity
42.0427	17
64.0338	10
65.0428	39
66.0497	11
70.0312	14
72.9858	14
74.0177	105
75.025	150
76.0337	36
77.0403	86
78.0499	20
86.0181	19
87.0242	27
88.0318	13
89.0401	79
92.0262	13
98.0157	42
99.0009	20
99.023	34
100.0311	13
102.0468	65
107.0126	10
110.9995	40
111.0197	15
113.038	41
114.0458	27
115.0543	119
121.0291	15
123.023	13
125.0383	65
126.0461	231
127.0538	24
128.0612	17
137.038	64
138.0465	46
139.0543	127
149.0143	38
149.0394	39
150.0461	350
151.0538	457
152.0616	431
160.0061	13
161.0377	29
162.0458	123
163.0543	999
164.0614	236
165.0695	295
173.0146	23
174.0465	41
175.0545	34
176.061	188
177.0684	19
178.0781	16
