Mass spectrum: Metobromuron; LC-ESI-QTOF; MS2; 90 V
Name: Metobromuron
Class: Herbicide
Formula: C9H11BrN2O2
Exact mass: 258.0004
SMILES: CN(C(=O)NC1=CC=C(C=C1)Br)OC
InChI: InChI=1S/C9H11BrN2O2/c1-12(14-2)9(13)11-8-5-3-7(10)4-6-8/h3-6H,1-2H3,(H,11,13)
Instrument: TripleTOF 6600 SCIEX
Instrument type: LC-ESI-QTOF
Ms type: MS2
Ion mode: POSITIVE
Collision energy: 90
Fragmentation mode: CID
Ionization: ESI
Column name: Zorbax Eclipse Plus C18 2.1 mm x 150 mm, 3.5 um, Agilent
Retention time: 10.623 min
Precursor m/z: 259.0077
Precursor type: [M+H]+
m/z	relative intensity
37.0053	105
38.0129	117
39.021	340
51.0196	58
52.0158	199
61.0042	176
62.0126	282
63.0199	999
64.0278	387
65.0234	94
65.0355	763
78.0308	47
91.0386	564
92.0458	211
92.9298	105
116.9294	423
119.0567	188
142.9444	211
170.9636	58
