Mass spectrum: Clenbuterol; LC-ESI-QTOF; MS2; 130 V
Name: Clenbuterol
Class: Pharmaceutical
Formula: C12H18Cl2N2O
Exact mass: 276.0796
SMILES: CC(C)(C)NCC(c1cc(c(c(c1)Cl)N)Cl)O
InChI: InChI=1S/C12H18Cl2N2O/c1-12(2,3)16-6-10(17)7-4-8(13)11(15)9(14)5-7/h4-5,10,16-17H,6,15H2,1-3H3
Instrument: TripleTOF 5600 SCIEX
Instrument type: LC-ESI-QTOF
Ms type: MS2
Ion mode: POSITIVE
Collision energy: 130
Fragmentation mode: CID
Ionization: ESI
Column name: Zorbax Eclipse Plus C18 2.1 mm x 150 mm, 3.5 um, Agilent
Retention time: 6.115 min
Precursor m/z: 277.0869
Precursor type: [M+H]+
m/z	relative intensity
52.0255	23
52.0353	39
53.0437	19
57.0755	159
58.0693	87
65.0413	19
67.0451	27
72.9866	87
73.0089	31
74.0183	199
75.0132	19
75.0256	107
76.0205	47
77.0415	999
78.0367	111
78.0473	159
79.044	31
79.0569	27
80.0512	47
84.9855	15
86.0169	27
88.0198	23
88.0343	35
89.0403	286
90.036	15
90.0474	39
91.043	15
96.9853	15
98.9996	15
102.0358	51
104.05	704
105.0573	43
106.0654	15
114.0337	27
116.0495	19
117.0556	23
131.0598	79
140.0253	35
