Mass spectrum: Chloroquine; LC-ESI-QTOF; MS2; 140 V
Name: Chloroquine
Class: Pharmaceutical
Formula: C18H26ClN3
Exact mass: 319.1815
SMILES: CCN(CC)CCCC(C)NC1=C2C=CC(=CC2=NC=C1)Cl
InChI: InChI=1S/C18H26ClN3/c1-4-22(5-2)12-6-7-14(3)21-17-10-11-20-18-13-15(19)8-9-16(17)18/h8-11,13-14H,4-7,12H2,1-3H3,(H,20,21)
Instrument: TripleTOF 6600 SCIEX
Instrument type: LC-ESI-QTOF
Ms type: MS2
Ion mode: POSITIVE
Collision energy: 140
Fragmentation mode: CID
Ionization: ESI
Column name: Zorbax Eclipse Plus C18 2.1 mm x 150 mm, 3.5 um, Agilent
Retention time: 4.84 min
Precursor m/z: 320.1888
Precursor type: [M+H]+
m/z	relative intensity
37.0073	86
38.0146	52
39.0227	390
41.0382	60
50.0146	112
51.0228	234
61.0073	69
62.0143	199
63.0229	564
65.0399	43
72.9836	43
73.0074	69
74.0148	894
75.0224	999
76.0174	43
76.0304	78
77.0381	356
84.983	52
88.032	34
89.0381	972
90.0327	95
90.0451	104
91.0413	43
98.0145	469
99.0097	86
99.0219	156
100.0178	104
100.0295	52
101.0384	286
102.0335	43
102.046	104
111.0003	43
113.0394	34
114.033	34
114.0456	69
115.0536	43
116.0495	104
117.0431	78
117.0582	34
118.0518	52
126.0451	43
127.0413	86
128.0487	234
129.0438	60
129.0581	34
140.0492	78
142.0543	52
154.0589	34
167.0594	60
168.0677	69
