Mass spectrum: Iminostilbene; LC-ESI-QTOF; MS2; 40 V
Name: Iminostilbene
Class: Pharmaceutical
Formula: C14H11N
Exact mass: 193.0891
SMILES: C1=CC=C2C(=C1)C=CC3=CC=CC=C3N2
InChI: InChI=1S/C14H11N/c1-3-7-13-11(5-1)9-10-12-6-2-4-8-14(12)15-13/h1-10,15H
Instrument: TripleTOF 6600 SCIEX
Instrument type: LC-ESI-QTOF
Ms type: MS2
Ion mode: POSITIVE
Collision energy: 40
Fragmentation mode: CID
Ionization: ESI
Column name: Zorbax Eclipse Plus C18 2.1 mm x 150 mm, 3.5 um, Agilent
Retention time: 13.175 min
Precursor m/z: 194.0964
Precursor type: [M+H]+
m/z	relative intensity
89.0305	11
91.0457	14
116.0387	17
117.0465	20
151.0404	30
152.0482	72
153.0433	11
165.0551	69
166.0581	32
167.0595	121
176.0461	23
177.0529	25
178.0507	122
179.0571	514
191.0558	39
192.0639	294
193.0722	999
194.0796	495
