Mass spectrum: Celiprolol; LC-ESI-QTOF; MS2; 120 V
Name: Celiprolol
Class: Pharmaceutical
Formula: C20H33N3O4
Exact mass: 379.2471
SMILES: CCN(CC)C(=O)NC1=CC(=C(C=C1)OCC(CNC(C)(C)C)O)C(=O)C
InChI: InChI=1S/C20H33N3O4/c1-7-23(8-2)19(26)22-15-9-10-18(17(11-15)14(3)24)27-13-16(25)12-21-20(4,5)6/h9-11,16,21,25H,7-8,12-13H2,1-6H3,(H,22,26)
Instrument: TripleTOF 5600 SCIEX
Instrument type: LC-ESI-QTOF
Ms type: MS2
Ion mode: POSITIVE
Collision energy: 120
Fragmentation mode: CID
Ionization: ESI
Column name: Zorbax Eclipse Plus C18 2.1 mm x 150 mm, 3.5 um, Agilent
Retention time: 6.532 min
Precursor m/z: 380.2544
Precursor type: [M+H]+
m/z	relative intensity
43.0259	83
44.0223	624
44.0588	66
52.0249	17
56.0557	999
57.076	308
58.0705	35
65.0433	171
72.0476	149
74.0634	321
74.0843	22
74.0996	158
75.0258	26
77.0418	853
77.075	22
78.0366	110
78.0596	17
79.0574	17
80.0161	79
80.0523	22
81.0364	22
89.0397	79
90.0367	48
91.0556	52
92.0512	79
101.0394	22
102.0335	35
102.0478	30
103.0567	83
104.0496	105
105.0337	39
106.0286	66
108.0434	26
115.0545	96
116.05	35
117.0601	26
120.0437	26
128.0487	17
130.0643	26
132.0442	44
133.0517	17
