Mass spectrum: C-desmethyl-metoprolol; LC-ESI-QTOF; MS2; 110 V
Name: C-desmethyl-metoprolol
Formula: C14H23NO3
Exact mass: 253.1678
SMILES: CCNCC(COC1=CC=C(C=C1)CCOC)O
InChI: InChI=1S/C14H23NO3/c1-3-15-10-13(16)11-18-14-6-4-12(5-7-14)8-9-17-2/h4-7,13,15-16H,3,8-11H2,1-2H3
Instrument: TripleTOF 5600 SCIEX
Instrument type: LC-ESI-QTOF
Ms type: MS2
Ion mode: POSITIVE
Collision energy: 110
Fragmentation mode: CID
Ionization: ESI
Column name: Zorbax Eclipse Plus C18 2.1 mm x 150 mm, 3.5 um, Agilent
Retention time: 5.422 min
Precursor m/z: 254.1751
Precursor type: [M+H]+
m/z	relative intensity
39.0235	96
41.0385	38
44.0495	64
45.0339	64
49.008	38
50.0156	219
51.0231	766
56.0505	45
58.0652	257
62.0156	32
63.0223	96
65.0385	270
74.0168	32
75.024	32
76.0307	25
77.0392	999
78.0465	45
79.0535	32
89.0379	103
91.0552	244
102.0468	70
103.0538	32
115.055	83
127.0582	32
