Mass spectrum: 4-Methyl-5-thiazoleethanol; LC-ESI-QTOF; MS2; 50 V
Name: 4-Methyl-5-thiazoleethanol
Class: Food_additive; Metabolite; Pharmaceutical
Formula: C6H9NOS
Exact mass: 143.0405
SMILES: CC1=C(SC=N1)CCO
InChI: InChI=1S/C6H9NOS/c1-5-6(2-3-8)9-4-7-5/h4,8H,2-3H2,1H3
Instrument: TripleTOF 6600 SCIEX
Instrument type: LC-ESI-QTOF
Ms type: MS2
Ion mode: POSITIVE
Collision energy: 50
Fragmentation mode: CID
Ionization: ESI
Column name: Zorbax Eclipse Plus C18 2.1 mm x 150 mm, 3.5 um, Agilent
Retention time: 4.251 min
Precursor m/z: 144.0478
Precursor type: [M+H]+
m/z	relative intensity
38.0145	10
39.023	60
41.0261	13
41.0393	19
42.034	151
43.0415	10
44.9793	182
51.0231	15
53.0382	84
54.0338	45
55.0414	52
55.054	19
57.9876	10
58.9943	54
65.0382	69
68.0493	52
68.9786	13
69.0572	10
69.9872	10
70.9947	504
72.0024	73
78.0335	34
80.0488	173
81.0574	13
84.0019	19
85.0104	303
86.0181	47
96.0022	13
97.01	10
98.0048	28
99.0268	15
112.0209	999
113.0287	288
126.0356	28
