Mass spectrum: Prednisone; LC-ESI-QTOF; MS2; 130 V
Name: Prednisone
Class: Pharmaceutical
Formula: C21H26O5
Exact mass: 358.178
SMILES: C[C@]12CC(=O)[C@H]3[C@@H](CCC4=CC(=O)C=C[C@]34C)[C@@H]1CC[C@]2(O)C(=O)CO
InChI: InChI=1S/C21H26O5/c1-19-7-5-13(23)9-12(19)3-4-14-15-6-8-21(26,17(25)11-22)20(15,2)10-16(24)18(14)19/h5,7,9,14-15,18,22,26H,3-4,6,8,10-11H2,1-2H3/t14-,15-,18+,19-,20-,21-/m0/s1
Instrument: TripleTOF 5600 SCIEX
Instrument type: LC-ESI-QTOF
Ms type: MS2
Ion mode: POSITIVE
Collision energy: 130
Fragmentation mode: CID
Ionization: ESI
Column name: Zorbax Eclipse Plus C18 2.1 mm x 150 mm, 3.5 um, Agilent
Retention time: 8.469 min
Precursor m/z: 359.1853
Precursor type: [M+H]+
m/z	relative intensity
43.025	49
53.0439	28
65.0421	263
67.0568	45
75.0276	21
76.0333	28
77.0414	735
78.0489	80
79.0564	94
89.0402	119
91.0557	478
93.0711	17
101.0409	24
102.0468	98
103.0544	200
103.082	14
104.0618	17
105.0694	24
107.05	52
114.046	17
115.0543	999
116.0606	45
117.0686	24
121.0632	24
125.0392	21
126.0452	73
127.0537	256
128.0621	443
128.0951	17
129.0682	42
131.0498	189
132.0567	17
139.0549	186
141.0704	73
144.0579	38
145.0639	17
150.0463	109
151.0539	242
152.0621	654
153.0688	77
155.0549	14
157.0657	28
163.054	130
164.0605	133
165.0702	510
168.0551	17
175.0562	21
176.0615	214
177.0704	98
178.0778	228
181.0656	63
187.0561	63
188.0626	52
189.07	415
189.0911	14
190.0778	49
191.0913	21
194.0712	14
200.0626	91
201.0707	91
202.078	246
203.0868	21
205.0648	28
213.0721	84
214.0759	17
215.0878	87
218.0713	17
224.0562	21
226.0763	56
227.088	17
231.0824	17
237.0696	14
239.0845	17
