Mass spectrum: Fluorescent brightener 363; LC-ESI-QTOF; MS2; 120 V
Name: Fluorescent brightener 363
Class: Pigment
Formula: [C19H19N2O4S]+
Exact mass: 371.106
SMILES: COC1=CC(OC(C2=[N+](C)C(C=C(S(=O)(C)=O)C=C3)=C3N2C)=C4)=C4C=C1
InChI: InChI=1S/C19H19N2O4S/c1-20-15-8-7-14(26(4,22)23)11-16(15)21(2)19(20)18-9-12-5-6-13(24-3)10-17(12)25-18/h5-11H,1-4H3/q+1
Instrument: TripleTOF 6600 SCIEX
Instrument type: LC-ESI-QTOF
Ms type: MS2
Ion mode: POSITIVE
Collision energy: 120
Fragmentation mode: CID
Ionization: ESI
Column name: Zorbax Eclipse Plus C18 2.1 mm x 150 mm, 3.5 um, Agilent
Retention time: 8.155 min
Precursor m/z: 371.106
Precursor type: [M]+
m/z	relative intensity
50.0148	285
51.0227	305
62.0144	122
63.0233	244
65.0376	203
75.0228	265
76.0297	366
77.0378	652
88.0289	142
89.0369	387
91.0525	244
101.0369	101
102.036	305
103.0387	142
103.0496	101
104.0497	142
113.0365	101
114.0352	265
115.0535	183
116.0486	142
118.0413	101
125.038	122
126.0443	183
128.0478	203
129.0462	224
130.0394	163
130.0528	122
131.0595	142
137.0366	122
138.0447	122
139.0393	122
140.0476	122
150.0452	346
151.053	632
152.0482	428
153.0566	101
155.0609	285
164.0484	611
165.0647	244
166.0607	81
168.0673	81
169.075	142
176.0488	122
177.0568	489
178.0646	407
179.0588	326
180.0729	122
190.0635	305
191.0661	265
192.0691	265
193.0758	142
203.0596	285
204.0675	285
205.076	999
216.0673	183
217.0763	326
218.0839	937
219.0899	407
220.1075	101
