Mass spectrum: Ethyl-N-(4-aminophenyl)carbamate; LC-ESI-QTOF; MS2; 40 V
Name: Ethyl-N-(4-aminophenyl)carbamate
Class: Industrial_process
Formula: C9H12N2O2
Exact mass: 180.0899
SMILES: CCOC(=O)Nc1ccc(cc1)N
InChI: InChI=1S/C9H12N2O2/c1-2-13-9(12)11-8-5-3-7(10)4-6-8/h3-6H,2,10H2,1H3,(H,11,12)
Instrument: TripleTOF 5600 SCIEX
Instrument type: LC-ESI-QTOF
Ms type: MS2
Ion mode: POSITIVE
Collision energy: 40
Fragmentation mode: CID
Ionization: ESI
Column name: Zorbax Eclipse Plus C18 2.1 mm x 150 mm, 3.5 um, Agilent
Retention time: 4.863 min
Precursor m/z: 181.0972
Precursor type: [M+H]+
m/z	relative intensity
53.0438	18
65.0426	267
66.0507	16
80.0516	270
81.0596	13
82.0666	13
90.0346	231
92.0511	698
93.0586	641
106.0526	25
107.0608	999
108.0457	13
108.068	171
109.0754	267
118.0283	21
134.0472	63
135.0551	537
153.0653	12
