Mass spectrum: Levamisole; LC-ESI-QTOF; MS2; 130 V
Name: Levamisole
Class: Pharmaceutical
Formula: C11H12N2S
Exact mass: 204.0721
SMILES: c1ccc(cc1)[C@H]2CN3CCSC3=N2
InChI: InChI=1S/C11H12N2S/c1-2-4-9(5-3-1)10-8-13-6-7-14-11(13)12-10/h1-5,10H,6-8H2/t10-/m1/s1
Instrument: TripleTOF 5600 SCIEX
Instrument type: LC-ESI-QTOF
Ms type: MS2
Ion mode: POSITIVE
Collision energy: 130
Fragmentation mode: CID
Ionization: ESI
Column name: Zorbax Eclipse Plus C18 2.1 mm x 150 mm, 3.5 um, Agilent
Retention time: 5.021 min
Precursor m/z: 205.0794
Precursor type: [M+H]+
m/z	relative intensity
51.0295	999
52.0348	22
57.9931	36
59.0008	68
59.9953	260
63.0405	36
65.042	187
71.9944	59
73.0119	50
74.0173	369
75.0254	86
76.0342	45
77.0405	264
78.048	22
85.0078	18
89.0406	127
91.056	45
102.0455	27
