Mass spectrum: Valsartanic acid; LC-ESI-QTOF; MS2; 120 V
Name: Valsartanic acid
Class: Pharmaceutical; Transformation_product; Transformation_product-Metabolite
Formula: C14H10N4O2
Exact mass: 266.0804
SMILES: O=C(O)C(C=C1)=CC=C1C2=CC=CC=C2C3=NN=NN3
InChI: InChI=1S/C14H10N4O2/c19-14(20)10-7-5-9(6-8-10)11-3-1-2-4-12(11)13-15-17-18-16-13/h1-8H,(H,19,20)(H,15,16,17,18)
Instrument: TripleTOF 5600 SCIEX
Instrument type: LC-ESI-QTOF
Ms type: MS2
Ion mode: POSITIVE
Collision energy: 120
Fragmentation mode: CID
Ionization: ESI
Column name: Zorbax Eclipse Plus C18 2.1 mm x 150 mm, 3.5 um, Agilent
Retention time: 8.027 min
Precursor m/z: 267.0877
Precursor type: [M+H]+
m/z	relative intensity
51.029	347
73.0099	58
74.0176	626
75.0132	31
75.0254	458
76.0212	27
76.0327	141
77.0404	330
77.074	17
78.0474	20
85.0078	34
86.0164	124
87.0244	134
89.04	31
97.0096	44
98.0155	747
99.0234	382
100.019	17
100.0298	86
101.0404	37
102.0465	65
109.0068	37
110.0142	127
111.0227	103
113.0389	41
121.01	20
122.0151	189
122.0344	13
123.0081	27
123.0215	155
124.0299	124
125.0382	93
126.0457	137
127.0418	37
134.0159	24
137.0366	17
138.0423	13
139.0532	24
148.0402	20
149.0386	182
149.0595	17
150.0458	999
151.0517	237
152.0614	44
163.055	17
164.0468	24
175.0409	120
176.0486	34
177.0608	37
