Mass spectrum: Salbutamol; LC-ESI-QTOF; MS2; 40 V
Name: Salbutamol
Class: Pharmaceutical
Formula: C13H21NO3
Exact mass: 239.1521
SMILES: CC(C)(NCC(c1cc(CO)c(O)cc1)O)C
InChI: InChI=1S/C13H21NO3/c1-13(2,3)14-7-12(17)9-4-5-11(16)10(6-9)8-15/h4-6,12,14-17H,7-8H2,1-3H3
Instrument: TripleTOF 5600 SCIEX
Instrument type: LC-ESI-QTOF
Ms type: MS2
Ion mode: NEGATIVE
Collision energy: 40
Fragmentation mode: CID
Ionization: ESI
Column name: Zorbax Eclipse Plus C18 2.1 mm x 150 mm, 3.5 um, Agilent
Retention time: 4.69 min
Precursor m/z: 238.1449
Precursor type: [M-H]-
m/z	relative intensity
106.0422	695
119.0497	61
133.0522	61
134.0375	308
136.0522	112
160.041	162
160.0763	50
161.0484	196
162.0568	84
163.063	426
190.1239	999
202.1231	61
218.1196	443
