Mass spectrum: Metachrome Yellow free acid; LC-ESI-QTOF; MS2; 40 V
Name: Metachrome Yellow free acid
Formula: C13H9N3O5
Exact mass: 287.0542
SMILES: C1=CC(=CC(=C1)[N+](=O)[O-])N=NC2=CC(=C(C=C2)O)C(=O)O
InChI: InChI=1S/C13H9N3O5/c17-12-5-4-9(7-11(12)13(18)19)15-14-8-2-1-3-10(6-8)16(20)21/h1-7,17H,(H,18,19)
Instrument: TripleTOF 6600 SCIEX
Instrument type: LC-ESI-QTOF
Ms type: MS2
Ion mode: POSITIVE
Collision energy: 40
Fragmentation mode: CID
Ionization: ESI
Column name: Zorbax Eclipse Plus C18 2.1 mm x 150 mm, 3.5 um, Agilent
Retention time: 11.919 min
Precursor m/z: 288.0615
Precursor type: [M+H]+
m/z	relative intensity
39.0227	12
63.0219	117
64.0295	232
75.0219	268
76.0299	34
77.0244	10
77.0375	10
91.0164	193
92.0246	886
106.0277	16
114.043	28
117.0535	19
119.0115	423
120.0304	99
122.0218	357
128.0618	34
129.0466	9
130.051	10
134.0223	132
139.0531	205
140.0579	272
141.0559	72
142.051	69
147.0178	89
150.0286	460
153.0533	13
154.0496	19
155.0584	127
156.0654	29
166.0478	17
167.0589	325
168.0665	926
169.0504	39
170.0473	62
171.0545	21
179.0582	14
182.0437	19
183.0503	23
184.0607	28
186.0551	40
195.0541	351
196.0627	598
214.0593	57
222.038	27
223.0516	171
224.0577	156
242.0552	999
270.049	264
