Mass spectrum: Venlafaxine-N-oxide; LC-ESI-QTOF; MS2; 120 V
Name: Venlafaxine-N-oxide
Class: Pharmaceutical; Metabolite; Transformation_product
Formula: C17H27NO3
Exact mass: 293.1991
SMILES: C[N+](C)(CC(c1ccc(cc1)OC)C2(CCCCC2)O)[O-]
InChI: InChI=1S/C17H27NO3/c1-18(2,20)13-16(17(19)11-5-4-6-12-17)14-7-9-15(21-3)10-8-14/h7-10,16,19H,4-6,11-13H2,1-3H3
Instrument: TripleTOF 5600 SCIEX
Instrument type: LC-ESI-QTOF
Ms type: MS2
Ion mode: POSITIVE
Collision energy: 120
Fragmentation mode: CID
Ionization: ESI
Column name: Zorbax Eclipse Plus C18 2.1 mm x 150 mm, 3.5 um, Agilent
Retention time: 7.246 min
Precursor m/z: 294.2064
Precursor type: [M+H]+
m/z	relative intensity
55.0597	13
58.0704	17
60.0516	10
62.0292	10
65.0435	160
76.0328	37
77.0419	536
78.0495	999
79.0572	96
81.0715	44
89.04	33
91.056	212
102.0455	12
103.0542	14
106.0427	22
107.0479	18
115.0532	41
121.0644	95
128.0619	14
