Mass spectrum: Eicosyltrimethylammonium; LC-ESI-QTOF; MS2; 90 V
Name: Eicosyltrimethylammonium
Formula: [C23H50N]+
Exact mass: 340.3938
SMILES: CCCCCCCCCCCCCCCCCCCC[N+](C)(C)C
InChI: InChI=1S/C23H50N/c1-5-6-7-8-9-10-11-12-13-14-15-16-17-18-19-20-21-22-23-24(2,3)4/h5-23H2,1-4H3/q+1
Instrument: TripleTOF 6600 SCIEX
Instrument type: LC-ESI-QTOF
Ms type: MS2
Ion mode: POSITIVE
Collision energy: 90
Fragmentation mode: CID
Ionization: ESI
Column name: Zorbax Eclipse Plus C18 2.1 mm x 150 mm, 3.5 um, Agilent
Retention time: 15.717 min
Precursor m/z: 340.3938
Precursor type: [M]+
m/z	relative intensity
39.0238	249
41.0393	392
43.0542	249
44.0496	999
45.0574	356
58.0645	321
60.0801	606
