Mass spectrum: Dihydroxycarbazepine; LC-ESI-QTOF; MS2; 90 V
Name: Dihydroxycarbazepine
Class: Pharmaceutical; Metabolite
Formula: C15H14N2O3
Exact mass: 270.1004
SMILES: NC(=O)N1c2ccccc2C(O)C(O)c3ccccc13
InChI: InChI=1S/C15H14N2O3/c16-15(20)17-11-7-3-1-5-9(11)13(18)14(19)10-6-2-4-8-12(10)17/h1-8,13-14,18-19H,(H2,16,20)
Instrument: TripleTOF 5600 SCIEX
Instrument type: LC-ESI-QTOF
Ms type: MS2
Ion mode: POSITIVE
Collision energy: 90
Fragmentation mode: CID
Ionization: ESI
Column name: Zorbax Eclipse Plus C18 2.1 mm x 150 mm, 3.5 um, Agilent
Retention time: 6.663 min
Precursor m/z: 271.1077
Precursor type: [M+H]+
m/z	relative intensity
51.0282	29
74.0167	13
75.0249	54
77.0413	162
89.0391	43
90.0473	14
99.0219	11
101.0376	104
102.0468	21
113.0395	21
114.0459	19
115.0531	64
116.0509	11
125.0387	41
126.0462	77
127.053	182
128.0494	172
129.0553	14
139.0537	197
140.0495	137
141.0567	19
150.0461	115
151.0541	553
152.0621	999
152.0895	11
153.0593	140
154.0648	48
163.0539	49
164.0594	44
165.0678	51
166.0648	180
167.0726	127
176.0506	14
177.0567	157
178.0646	670
179.0723	622
180.0805	866
190.0648	39
191.0721	56
192.0793	18
