Mass spectrum: Morantel; LC-ESI-QTOF; MS2; 90 V
Name: Morantel
Class: Pharmaceutical
Formula: C12H16N2S
Exact mass: 220.1034
SMILES: CN1CCCN=C1/C=C/c2sccc2C
InChI: InChI=1S/C12H16N2S/c1-10-6-9-15-11(10)4-5-12-13-7-3-8-14(12)2/h4-6,9H,3,7-8H2,1-2H3/b5-4+
Instrument: TripleTOF 5600 SCIEX
Instrument type: LC-ESI-QTOF
Ms type: MS2
Ion mode: POSITIVE
Collision energy: 90
Fragmentation mode: CID
Ionization: ESI
Column name: Zorbax Eclipse Plus C18 2.1 mm x 150 mm, 3.5 um, Agilent
Retention time: 6.042 min
Precursor m/z: 221.1107
Precursor type: [M+H]+
m/z	relative intensity
42.0422	10
51.0287	173
52.0363	12
53.0447	43
57.0756	12
57.9915	10
58.9994	12
65.0423	95
66.0504	14
67.0566	18
68.9828	70
69.0479	20
69.9904	12
70.9973	20
77.0419	999
77.0712	10
77.0841	18
78.0358	14
78.0487	171
79.0569	208
80.0512	16
81.9884	14
82.9956	10
84.0048	26
89.0401	202
90.048	35
91.0426	14
91.0547	72
94.9949	26
96.0043	47
97.0109	177
102.0455	12
103.0558	22
104.0491	59
106.067	12
108.0025	35
115.0538	26
116.0489	24
117.0574	39
121.0105	333
122.018	111
123.0234	26
130.0621	10
134.0071	33
135.0125	20
148.0209	70
149.03	20
