Mass spectrum: Tetracycline; LC-ESI-QTOF; MS2; 50 V
Name: Tetracycline
Class: Pharmaceutical
Formula: C22H24N2O8
Exact mass: 444.1533
SMILES: CC1(C2CC3C(C(=O)C(=C(C3(C(=O)C2=C(C4=C1C=CC=C4O)O)O)O)C(=O)N)N(C)C)O
InChI: InChI=1S/C22H24N2O8/c1-21(31)8-5-4-6-11(25)12(8)16(26)13-9(21)7-10-15(24(2)3)17(27)14(20(23)30)19(29)22(10,32)18(13)28/h4-6,9-10,15,25-26,29,31-32H,7H2,1-3H3,(H2,23,30)
Instrument: TripleTOF 5600 SCIEX
Instrument type: LC-ESI-QTOF
Ms type: MS2
Ion mode: POSITIVE
Collision energy: 50
Fragmentation mode: CID
Ionization: ESI
Column name: Zorbax Eclipse Plus C18 2.1 mm x 150 mm, 3.5 um, Agilent
Retention time: 5.46 min
Precursor m/z: 445.1605
Precursor type: [M+H]+
m/z	relative intensity
41.039	21
44.05	21
46.0652	21
58.067	21
70.062	65
84.0412	21
86.0598	65
86.0702	21
98.0597	499
126.0541	238
139.0255	21
154.0501	781
165.0682	43
194.0384	43
195.0813	43
196.0578	43
201.0112	43
201.0562	65
211.0797	65
213.0863	130
219.0839	21
223.0675	43
223.0805	86
225.087	43
226.0653	195
227.0702	86
235.0711	65
236.0495	86
238.0673	21
239.0774	217
241.0879	999
242.0575	21
242.0652	86
243.0658	21
247.0768	86
251.0718	130
252.0424	238
253.0952	21
254.0605	195
255.0673	21
257.0787	152
263.0717	65
263.0871	21
267.0684	868
269.0819	868
278.0634	304
279.0699	21
281.0944	21
291.0513	65
291.0661	130
293.081	152
295.0708	43
296.1331	43
297.0624	21
297.078	43
304.0279	65
304.0459	43
306.053	173
309.0736	86
319.047	217
321.0832	260
321.1117	21
334.0436	347
337.0638	412
349.0654	260
365.0811	43
392.1142	43
410.1041	108
410.1308	195
