Mass spectrum: Methoxyfenozide; LC-ESI-QTOF; MS2; 40 V
Name: Methoxyfenozide
Class: Insecticide
Formula: C22H28N2O3
Exact mass: 368.21
InChI: InChI=1S/C22H28N2O3/c1-14-11-15(2)13-17(12-14)21(26)24(22(4,5)6)23-20(25)18-9-8-10-19(27-7)16(18)3/h8-13H,1-7H3,(H,23,25)
Instrument: TripleTOF 6600 SCIEX
Instrument type: LC-ESI-QTOF
Ms type: CID
Ion mode: NEGATIVE
Collision energy: 40
Ionization: ESI
Column name: Zorbax Eclipse Plus C18 2.1 mm x 150 mm, 3.5 um, Agilent
Retention time: 12.837 min
Precursor m/z: 367.2027
Precursor type: [M-H]-
m/z	relative intensity
105.0694	471
121.0635	19
146.0234	21
149.0599	999
204.14	34
