Mass spectrum: (1-Ethoxyvinyl)triphenylphosphonium; LC-ESI-QTOF; MS2; 150 V
Name: (1-Ethoxyvinyl)triphenylphosphonium
Class: Industrial_process
Formula: [C22H22OP]+
Exact mass: 333.1403
SMILES: CCOC(=C)[P+](C1=CC=CC=C1)(C2=CC=CC=C2)C3=CC=CC=C3
InChI: InChI=1S/C22H22OP/c1-3-23-19(2)24(20-13-7-4-8-14-20,21-15-9-5-10-16-21)22-17-11-6-12-18-22/h4-18H,2-3H2,1H3/q+1
Instrument: TripleTOF 6600 SCIEX
Instrument type: LC-ESI-QTOF
Ms type: MS2
Ion mode: POSITIVE
Collision energy: 150
Fragmentation mode: CID
Ionization: ESI
Column name: Zorbax Eclipse Plus C18 2.1 mm x 150 mm, 3.5 um, Agilent
Retention time: 9.296 min
Precursor m/z: 333.1403
Precursor type: [M]+
m/z	relative intensity
39.0233	149
50.0148	204
51.023	190
55.9811	156
56.9885	242
62.0148	218
63.0223	485
65.0382	169
74.0138	218
75.0221	86
76.0299	180
77.0375	124
78.0457	76
78.972	128
79.9799	482
80.9875	579
86.0131	104
87.0211	169
89.037	412
98.0136	104
102.0445	211
103.9793	135
104.9875	76
107.0028	999
113.0364	201
115.0526	298
125.0378	69
126.0453	426
131.0039	194
133.0196	52
139.0532	197
150.0454	506
151.0539	534
152.0613	385
155.0037	152
156.0121	138
157.0192	218
179.0045	149
180.011	201
181.0199	464
