Mass spectrum: Iopromide; LC-ESI-QTOF; MS2; 40 V
Name: Iopromide
Class: Pharmaceutical
Formula: C18H24I3N3O8
Exact mass: 790.8698
SMILES: COCC(=O)Nc1c(I)c(C(=O)NCC(O)CO)c(I)c(c1I)C(=O)N(C)CC(O)CO
InChI: InChI=1S/C18H24I3N3O8/c1-24(4-9(28)6-26)18(31)12-13(19)11(17(30)22-3-8(27)5-25)14(20)16(15(12)21)23-10(29)7-32-2/h8-9,25-28H,3-7H2,1-2H3,(H,22,30)(H,23,29)
Instrument: TripleTOF 5600 SCIEX
Instrument type: LC-ESI-QTOF
Ms type: MS2
Ion mode: POSITIVE
Collision energy: 40
Fragmentation mode: CID
Ionization: ESI
Column name: Zorbax Eclipse Plus C18 2.1 mm x 150 mm, 3.5 um, Agilent
Retention time: 4.895 min
Precursor m/z: 791.877
Precursor type: [M+H]+
m/z	relative intensity
245.0577	11
291.1	13
299.9135	122
312.9445	17
316.9388	13
326.8996	34
330.956	11
354.9552	11
357.9182	62
372.9657	146
386.9828	72
388.964	17
399.9528	45
401.0016	24
404.9928	40
413.8169	57
413.9719	179
414.865	17
414.9791	15
418.0058	13
419.0114	22
423.7968	43
425.8144	68
430.9715	38
438.8349	13
440.8295	11
441.8308	11
444.9902	198
446.0032	11
447.0057	15
456.856	72
460.041	11
469.8424	13
485.8318	93
498.8632	22
510.8722	13
512.8863	15
513.8874	11
523.8724	17
527.8674	293
531.9	257
540.8741	57
541.883	167
545.9129	120
554.8954	34
558.8861	760
558.9326	11
572.9032	999
595.7366	57
645.9569	127
668.7881	11
682.81	45
686.7963	221
700.8154	171
718.8183	17
773.8691	289
791.8817	720
