Mass spectrum: Triphenyl phosphate; LC-ESI-QTOF; MS2; 100 V
Name: Triphenyl phosphate
Class: Industrial_process
Formula: C18H15O4P
Exact mass: 326.0708
SMILES: C1=CC=C(C=C1)OP(=O)(OC2=CC=CC=C2)OC3=CC=CC=C3
InChI: InChI=1S/C18H15O4P/c19-23(20-16-10-4-1-5-11-16,21-17-12-6-2-7-13-17)22-18-14-8-3-9-15-18/h1-15H
Instrument: TripleTOF 5600 SCIEX
Instrument type: LC-ESI-QTOF
Ms type: MS2
Ion mode: POSITIVE
Collision energy: 100
Fragmentation mode: CID
Ionization: ESI
Column name: Zorbax Eclipse Plus C18 2.1 mm x 150 mm, 3.5 um, Agilent
Retention time: 14.07 min
Precursor m/z: 327.0781
Precursor type: [M+H]+
m/z	relative intensity
49.0072	14
50.0153	154
51.0233	800
65.0391	23
74.0152	43
75.0229	29
76.0308	46
77.0389	999
78.046	37
80.9748	11
89.0388	26
92.0264	37
98.0154	20
98.9836	14
99.0231	23
100.0326	14
101.0388	32
102.0464	102
113.0374	20
114.0459	26
115.0544	73
125.04	52
126.0468	324
127.0537	75
133.0201	14
139.0544	438
149.0417	29
150.0468	379
151.0548	736
152.0627	870
157.0194	23
168.0592	84
176.064	14
187.0558	23
200.0638	64
201.0716	32
202.0769	17
224.0637	96
225.0728	84
226.0768	181
