Mass spectrum: Benzylphosphonic acid; LC-ESI-QTOF; MS2; 10 V
Name: Benzylphosphonic acid
Class: Pharmaceutical
Formula: C7H9O3P
Exact mass: 172.0289
SMILES: C1=CC=C(C=C1)CP(=O)(O)O
InChI: InChI=1S/C7H9O3P/c8-11(9,10)6-7-4-2-1-3-5-7/h1-5H,6H2,(H2,8,9,10)
Instrument: TripleTOF 5600 SCIEX
Instrument type: LC-ESI-QTOF
Ms type: MS2
Ion mode: NEGATIVE
Collision energy: 10
Fragmentation mode: CID
Ionization: ESI
Column name: Zorbax Eclipse Plus C18 2.1 mm x 150 mm, 3.5 um, Agilent
Retention time: 5.039 min
Precursor m/z: 171.0216
Precursor type: [M-H]-
m/z	relative intensity
171.0223	999
