Mass spectrum: Myclobutanil; LC-ESI-QTOF; MS2; 130 V
Name: Myclobutanil
Class: Fungicide
Formula: C15H17ClN4
Exact mass: 288.1142
SMILES: CCCCC(Cn1cncn1)(C#N)c2ccc(Cl)cc2
InChI: InChI=1S/C15H17ClN4/c1-2-3-8-15(9-17,10-20-12-18-11-19-20)13-4-6-14(16)7-5-13/h4-7,11-12H,2-3,8,10H2,1H3
Instrument: TripleTOF 6600 SCIEX
Instrument type: LC-ESI-QTOF
Ms type: MS2
Ion mode: POSITIVE
Collision energy: 130
Fragmentation mode: CID
Ionization: ESI
Column name: Zorbax Eclipse Plus C18 2.1 mm x 150 mm, 3.5 um, Agilent
Retention time: 12.025 min
Precursor m/z: 289.1215
Precursor type: [M+H]+
m/z	relative intensity
37.0071	94
38.015	94
39.023	283
41.0392	22
42.0215	49
43.0293	438
46.968	83
48.9839	133
49.0071	61
50.0151	244
51.0227	288
59.9993	38
61.0071	244
62.0151	499
63.0227	999
64.0307	66
65.0385	77
70.0396	316
72.9839	527
73.0071	61
74.0152	471
75.0227	382
76.0316	61
77.0385	133
86.0138	27
87.0225	33
88.029	22
89.0384	777
90.046	83
96.9838	27
98.0143	33
98.9993	160
100.0177	27
102.0462	72
115.0537	205
127.0532	27
128.0611	33
