Mass spectrum: Reactive Orange; LC-ESI-QTOF; MS2; 150 V
Name: Reactive Orange
Formula: C20H19N3O11S3
Exact mass: 573.0182
SMILES: CC(=O)NC1=CC2=C(C(=C(C=C2C=C1)S(=O)(=O)O)N=NC3=CC=C(C=C3)S(=O)(=O)CCOS(=O)(=O)O)O
InChI: InChI=1S/C20H19N3O11S3/c1-12(24)21-15-3-2-13-10-18(36(28,29)30)19(20(25)17(13)11-15)23-22-14-4-6-16(7-5-14)35(26,27)9-8-34-37(31,32)33/h2-7,10-11,25H,8-9H2,1H3,(H,21,24)(H,28,29,30)(H,31,32,33)
Instrument: TripleTOF 6600 SCIEX
Instrument type: LC-ESI-QTOF
Ms type: MS2
Ion mode: POSITIVE
Collision energy: 150
Fragmentation mode: CID
Ionization: ESI
Column name: Zorbax Eclipse Plus C18 2.1 mm x 150 mm, 3.5 um, Agilent
Retention time: 5.751 min
Precursor m/z: 574.0255
Precursor type: [M+H]+
m/z	relative intensity
39.023	35
43.0172	63
44.9791	45
45.9876	23
46.9943	28
51.022	52
53.0382	293
61.0072	15
62.0132	62
63.0224	95
64.0305	20
64.9685	15
65.0381	167
66.0441	10
68.0117	67
75.0219	38
76.0171	13
76.0296	33
77.0379	256
78.0338	45
80.049	167
81.0328	999
87.0226	31
88.0295	327
89.0382	319
90.0459	23
91.0418	45
92.0487	31
93.0552	38
102.0333	92
103.0406	55
103.0552	18
104.0484	223
108.0426	90
114.0331	679
115.0404	721
116.0482	132
117.0569	43
126.0345	13
128.0487	40
129.0431	240
130.037	11
130.0626	23
131.0599	47
140.0488	16
141.0417	67
142.0513	612
143.0564	11
150.0486	20
151.0543	120
152.0549	53
163.0542	15
164.0536	25
165.0464	11
165.064	13
169.0414	11
170.0482	15
176.0549	70
177.0562	88
178.0633	58
179.0583	15
179.0697	10
187.0474	16
188.0468	68
189.0543	31
190.0643	23
192.0689	20
200.0569	11
203.0594	35
204.0642	13
204.0769	16
205.0748	171
215.0599	40
216.0667	20
217.0734	13
218.0823	10
230.0704	40
231.0799	26
232.0823	15
232.0954	11
