Mass spectrum: Food Yellow 3 free acid; LC-ESI-QTOF; MS2; 130 V
Name: Food Yellow 3 free acid
Formula: C16H12N2O7S2
Exact mass: 408.0086
SMILES: C1=CC(=CC=C1N=NC2=C(C=CC3=C2C=CC(=C3)S(=O)(=O)O)O)S(=O)(=O)O
InChI: InChI=1S/C16H12N2O7S2/c19-15-8-1-10-9-13(27(23,24)25)6-7-14(10)16(15)18-17-11-2-4-12(5-3-11)26(20,21)22/h1-9,19H,(H,20,21,22)(H,23,24,25)
Instrument: TripleTOF 6600 SCIEX
Instrument type: LC-ESI-QTOF
Ms type: MS2
Ion mode: POSITIVE
Collision energy: 130
Fragmentation mode: CID
Ionization: ESI
Column name: Zorbax Eclipse Plus C18 2.1 mm x 150 mm, 3.5 um, Agilent
Retention time: 5.59 min
Precursor m/z: 409.0159
Precursor type: [M+H]+
m/z	relative intensity
37.0071	36
38.0152	32
39.0231	289
50.0148	162
51.0231	119
52.0301	20
53.0382	353
54.034	14
61.0072	39
62.0145	127
63.0226	407
64.0184	28
64.9688	47
65.0382	371
66.0334	16
73.0071	66
74.015	999
75.0106	103
75.0223	176
76.0181	43
76.0297	145
77.0265	12
77.039	42
80.0492	836
81.034	18
86.0158	14
87.0216	78
88.0183	28
88.0309	27
89.0386	212
90.0328	21
92.048	25
98.0149	217
99.0113	153
99.021	126
100.0177	127
100.0293	335
101.0264	73
102.049	14
108.0437	59
114.0322	23
126.0469	10
127.0421	114
128.0504	10
149.0371	20
150.0457	26
151.0497	23
163.0556	29
164.0503	19
174.0468	28
175.0428	11
175.0527	20
176.0487	36
188.0481	23
189.0578	19
190.0626	29
200.0482	17
201.0585	64
202.064	18
216.0709	32
227.0611	25
228.0673	17
