Mass spectrum: 3,3`-Dichlorobenzidine; LC-ESI-QTOF; MS2; 150 V
Name: 3,3`-Dichlorobenzidine
Formula: C12H10Cl2N2
Exact mass: 252.0221
SMILES: C1=CC(=C(C=C1C2=CC(=C(C=C2)N)Cl)Cl)N
InChI: InChI=1S/C12H10Cl2N2/c13-9-5-7(1-3-11(9)15)8-2-4-12(16)10(14)6-8/h1-6H,15-16H2
Instrument: TripleTOF 6600 SCIEX
Instrument type: LC-ESI-QTOF
Ms type: MS2
Ion mode: POSITIVE
Collision energy: 150
Fragmentation mode: CID
Ionization: ESI
Column name: Zorbax Eclipse Plus C18 2.1 mm x 150 mm, 3.5 um, Agilent
Retention time: 11.426 min
Precursor m/z: 253.0294
Precursor type: [M+H]+
m/z	relative intensity
37.0078	89
38.0161	54
39.0234	89
49.0088	29
50.0158	333
51.0233	442
52.0188	44
60.0002	34
61.0074	417
62.0152	492
63.0229	392
73.0083	164
74.0151	999
75.0228	278
76.0197	29
76.0309	19
77.0401	84
83.9977	64
85.0071	516
86.015	586
87.0241	183
88.019	34
89.0367	24
97.0074	84
98.0144	347
99.009	24
99.022	49
109.0083	134
110.0144	114
122.0147	54
126.0487	19
137.0401	24
