Mass spectrum: O-desmethyl-venlafaxine; LC-ESI-QTOF; MS2; 130 V
Name: O-desmethyl-venlafaxine
Class: Metabolite; Pharmaceutical; Transformation_product-Metabolite
Formula: C16H25NO2
Exact mass: 263.1885
SMILES: CN(C)CC(C1=CC=C(C=C1)O)C2(CCCCC2)O
InChI: InChI=1S/C16H25NO2/c1-17(2)12-15(13-6-8-14(18)9-7-13)16(19)10-4-3-5-11-16/h6-9,15,18-19H,3-5,10-12H2,1-2H3
Instrument: TripleTOF 5600 SCIEX
Instrument type: LC-ESI-QTOF
Ms type: MS2
Ion mode: POSITIVE
Collision energy: 130
Fragmentation mode: CID
Ionization: ESI
Column name: Zorbax Eclipse Plus C18 2.1 mm x 150 mm, 3.5 um, Agilent
Retention time: 5.367 min
Precursor m/z: 264.1958
Precursor type: [M+H]+
m/z	relative intensity
42.0473	451
43.0341	33
43.0541	76
44.0624	48
55.0262	33
56.0568	33
58.0738	999
65.0454	216
66.0526	43
74.0215	28
75.027	43
77.0438	883
78.0522	43
79.0597	91
81.0366	28
81.0755	19
89.0428	76
91.0584	129
102.0504	19
103.0541	24
107.0499	43
115.0557	124
127.0533	28
128.0659	24
