Mass spectrum: Chloridazone-methyl-desphenyl; LC-ESI-QTOF; MS2; 50 V
Name: Chloridazone-methyl-desphenyl
Class: Herbicide; Transformation_product
Formula: C5H6ClN3O
Exact mass: 159.0199
SMILES: CN1C(=O)C(=C(C=N1)N)Cl
InChI: InChI=1S/C5H6ClN3O/c1-9-5(10)4(6)3(7)2-8-9/h2H,7H2,1H3
Instrument: TripleTOF 6600 SCIEX
Instrument type: LC-ESI-QTOF
Ms type: CID
Ion mode: POSITIVE
Collision energy: 50
Ionization: ESI
Column name: Zorbax Eclipse Plus C18 2.1 mm x 150 mm, 3.5 um, Agilent
Retention time: 4.787 min
Precursor m/z: 160.0272
Precursor type: [M+H]+
m/z	relative intensity
40.0173	62
41.0232	0
41.04	0
42.0331	187
43.0279	62
43.0368	62
48.9816	62
52.0179	249
53.0224	374
54.023	62
54.0336	62
55.0337	187
57.043	0
60.9828	124
62.9868	62
66.0198	124
67.0299	62
71.9742	124
73.9775	62
74.9852	62
75.9921	62
85.9784	0
87.9935	999
88.9965	187
103.9887	62
130.0038	124
