Mass spectrum: 4,6-Dinitro-O-cresol; LC-ESI-QTOF; MS2; 60 V
Name: 4,6-Dinitro-O-cresol
Class: Herbicide; Insecticide
Formula: C7H6N2O5
Exact mass: 198.0277
InChI: InChI=1S/C7H6N2O5/c1-4-2-5(8(11)12)3-6(7(4)10)9(13)14/h2-3,10H,1H3
Instrument: TripleTOF 6600 SCIEX
Instrument type: LC-ESI-QTOF
Ms type: CID
Ion mode: NEGATIVE
Collision energy: 60
Ionization: ESI
Column name: Zorbax Eclipse Plus C18 2.1 mm x 150 mm, 3.5 um, Agilent
Retention time: 10.837 min
Precursor m/z: 197.0204
Precursor type: [M-H]-
m/z	relative intensity
41.0034	38
41.9986	29
45.9938	999
109.029	25
