Mass spectrum: 4-Aminoantipyrine; LC-ESI-QTOF; MS2; 60 V
Name: 4-Aminoantipyrine
Class: Transformation_product
Formula: C11H13N3O
Exact mass: 203.1059
SMILES: CC1=C(C(=O)N(N1C)C2=CC=CC=C2)N
InChI: InChI=1S/C11H13N3O/c1-8-10(12)11(15)14(13(8)2)9-6-4-3-5-7-9/h3-7H,12H2,1-2H3
Instrument: TripleTOF 5600 SCIEX
Instrument type: LC-ESI-QTOF
Ms type: MS2
Ion mode: POSITIVE
Collision energy: 60
Fragmentation mode: CID
Ionization: ESI
Column name: Zorbax Eclipse Plus C18 2.1 mm x 150 mm, 3.5 um, Agilent
Retention time: 4.783 min
Precursor m/z: 204.1131
Precursor type: [M+H]+
m/z	relative intensity
41.0257	11
42.034	41
44.0497	10
51.0228	56
56.0498	999
58.0658	16
65.0383	22
77.0388	406
83.0606	59
91.0544	23
92.0492	12
93.058	26
94.0649	85
101.0371	12
103.0546	10
104.0484	16
115.0528	12
117.0579	21
128.0483	12
130.0648	12
