Mass spectrum: Nitrazepam; LC-ESI-QTOF; MS2; 110 V
Name: Nitrazepam
Class: Pharmaceutical
Formula: C15H11N3O3
Exact mass: 281.08
SMILES: C1C(=O)NC2=C(C=C(C=C2)[N+](=O)[O-])C(=N1)C3=CC=CC=C3
InChI: InChI=1S/C15H11N3O3/c19-14-9-16-15(10-4-2-1-3-5-10)12-8-11(18(20)21)6-7-13(12)17-14/h1-8H,9H2,(H,17,19)
Instrument: TripleTOF 6600 SCIEX
Instrument type: LC-ESI-QTOF
Ms type: MS2
Ion mode: POSITIVE
Collision energy: 110
Fragmentation mode: CID
Ionization: ESI
Column name: Zorbax Eclipse Plus C18 2.1 mm x 150 mm, 3.5 um, Agilent
Retention time: 9.435 min
Precursor m/z: 282.0873
Precursor type: [M+H]+
m/z	relative intensity
37.0065	11
39.0222	43
50.0143	123
51.022	257
52.017	14
52.0302	19
59.998	15
61.0068	29
62.0142	79
63.0216	130
65.0374	51
73.0069	12
74.0141	174
75.022	219
76.0169	29
76.0297	139
77.0379	398
78.0322	22
78.0449	43
85.0067	28
86.0134	42
87.0213	90
88.0174	16
88.0284	21
89.0376	195
90.0457	18
91.0529	22
98.0136	69
99.0217	91
100.0287	32
101.0374	47
102.0325	36
102.0444	134
104.0489	21
110.0148	21
111.0215	30
113.0371	155
114.0379	52
115.0527	123
116.0471	10
122.0138	12
123.0234	19
124.0311	15
125.0371	144
126.0456	361
127.0526	216
128.0616	68
129.0452	27
130.0403	12
137.0373	88
138.0449	51
139.0533	232
140.0478	138
141.0573	11
149.0375	68
150.0449	723
151.0531	999
152.0606	860
153.0571	46
154.0642	27
155.058	20
161.0365	60
162.0441	150
163.0519	411
164.0504	181
165.0684	40
166.0646	21
175.0391	13
176.0475	39
177.0551	245
178.0637	155
179.0615	73
187.0379	11
188.0469	96
189.0571	30
190.0627	40
191.0609	12
204.0556	21
205.0731	52
