Mass spectrum: Sildenafil; LC-ESI-QTOF; MS2; 140 V
Name: Sildenafil
Class: Pharmaceutical
Formula: C22H30N6O4S
Exact mass: 474.2049
SMILES: CCCC1=NN(C2=C1NC(=NC2=O)C3=C(C=CC(=C3)S(=O)(=O)N4CCN(CC4)C)OCC)C
InChI: InChI=1S/C22H30N6O4S/c1-5-7-17-19-20(27(4)25-17)22(29)24-21(23-19)16-14-15(8-9-18(16)32-6-2)33(30,31)28-12-10-26(3)11-13-28/h8-9,14H,5-7,10-13H2,1-4H3,(H,23,24,29)
Instrument: TripleTOF 5600 SCIEX
Instrument type: LC-ESI-QTOF
Ms type: MS2
Ion mode: POSITIVE
Collision energy: 140
Fragmentation mode: CID
Ionization: ESI
Column name: Zorbax Eclipse Plus C18 2.1 mm x 150 mm, 3.5 um, Agilent
Retention time: 7.283 min
Precursor m/z: 475.2122
Precursor type: [M+H]+
m/z	relative intensity
42.0471	120
43.0536	46
53.022	46
56.0567	115
58.0739	999
65.043	27
66.0407	32
70.0724	50
75.0266	55
76.0278	37
77.0442	60
78.039	32
80.0546	27
81.0486	27
83.0651	23
88.0257	46
89.0441	46
90.0366	64
91.045	18
92.0544	46
101.0412	46
102.0375	97
103.0465	60
104.0501	32
105.0471	37
114.0354	46
115.0415	32
116.0414	32
116.0521	37
117.0466	55
118.0542	23
120.0467	27
127.0423	46
128.0486	78
129.0466	115
130.0399	23
130.0542	27
140.0481	37
141.0569	18
142.0481	23
142.0559	32
143.0611	41
145.0418	18
145.0707	23
152.0486	23
153.0429	27
154.0587	27
155.0595	83
156.0528	87
157.042	18
157.0657	41
166.0592	32
167.0623	46
168.059	32
169.0607	32
170.0711	46
171.088	23
182.0593	27
183.0598	23
184.0485	23
195.0707	18
198.0699	37
207.0692	37
