Mass spectrum: Fluquinconazole; LC-ESI-QTOF; MS2; 110 V
Name: Fluquinconazole
Class: Fungicide
Formula: C16H8Cl2FN5O
Exact mass: 375.009
SMILES: C1=CC2=C(C=C1F)C(=O)N(C(=N2)N3C=NC=N3)C4=C(C=C(C=C4)Cl)Cl
InChI: InChI=1S/C16H8Cl2FN5O/c17-9-1-4-14(12(18)5-9)24-15(25)11-6-10(19)2-3-13(11)22-16(24)23-8-20-7-21-23/h1-8H
Instrument: TripleTOF 6600 SCIEX
Instrument type: LC-ESI-QTOF
Ms type: MS2
Ion mode: POSITIVE
Collision energy: 110
Fragmentation mode: CID
Ionization: ESI
Column name: Zorbax Eclipse Plus C18 2.1 mm x 150 mm, 3.5 um, Agilent
Retention time: 12.549 min
Precursor m/z: 376.0163
Precursor type: [M+H]+
m/z	relative intensity
30.9976	42
33.0135	21
37.0059	13
39.0225	13
48.9831	42
57.0131	475
58.0085	23
61.0067	23
62.0157	17
63.0222	18
64.0177	78
72.9832	175
73.0055	11
73.977	10
74.0144	189
75.0229	29
81.0131	275
82.0083	783
82.9439	14
83.0278	16
88.0166	52
94.0211	30
96.9837	43
97.9788	39
99.0099	33
100.0172	175
108.0236	999
108.984	134
123.9942	109
128.9885	14
131.0289	10
132.9602	23
135.9947	21
155.0295	42
156.0263	27
158.04	13
162.035	16
164.0004	16
180.0234	24
181.0321	29
182.0384	132
183.0357	23
189.0438	18
207.0356	21
209.0527	26
216.0015	10
