Mass spectrum: Prochloraz; LC-ESI-QTOF; MS2; 150 V
Name: Prochloraz
Class: Fungicide
Formula: C15H16Cl3N3O2
Exact mass: 375.0308
SMILES: CCCN(CCOc1c(cc(cc1Cl)Cl)Cl)C(=O)n2ccnc2
InChI: InChI=1S/C15H16Cl3N3O2/c1-2-4-20(15(22)21-5-3-19-10-21)6-7-23-14-12(17)8-11(16)9-13(14)18/h3,5,8-10H,2,4,6-7H2,1H3
Instrument: TripleTOF 6600 SCIEX
Instrument type: LC-ESI-QTOF
Ms type: MS2
Ion mode: POSITIVE
Collision energy: 150
Fragmentation mode: CID
Ionization: ESI
Column name: Zorbax Eclipse Plus C18 2.1 mm x 150 mm, 3.5 um, Agilent
Retention time: 11.258 min
Precursor m/z: 376.0381
Precursor type: [M+H]+
m/z	relative intensity
37.0073	99
38.0152	116
39.0226	366
41.0389	183
42.0338	183
46.9682	83
61.0078	166
62.0152	382
63.0227	349
71.9767	333
72.9837	416
73.0072	432
74.0152	599
75.0211	83
82.9448	682
89.0395	149
95.976	99
96.9839	266
106.9447	349
107.9762	999
108.9839	166
