Mass spectrum: Sildenafil; LC-ESI-QTOF; MS2; 110 V
Name: Sildenafil
Class: Pharmaceutical
Formula: C22H30N6O4S
Exact mass: 474.2049
SMILES: CCCC1=NN(C2=C1NC(=NC2=O)C3=C(C=CC(=C3)S(=O)(=O)N4CCN(CC4)C)OCC)C
InChI: InChI=1S/C22H30N6O4S/c1-5-7-17-19-20(27(4)25-17)22(29)24-21(23-19)16-14-15(8-9-18(16)32-6-2)33(30,31)28-12-10-26(3)11-13-28/h8-9,14H,5-7,10-13H2,1-4H3,(H,23,24,29)
Instrument: TripleTOF 5600 SCIEX
Instrument type: LC-ESI-QTOF
Ms type: MS2
Ion mode: NEGATIVE
Collision energy: 110
Fragmentation mode: CID
Ionization: ESI
Column name: Zorbax Eclipse Plus C18 2.1 mm x 150 mm, 3.5 um, Agilent
Retention time: 7.283 min
Precursor m/z: 473.1976
Precursor type: [M-H]-
m/z	relative intensity
41.9977	57
65.998	85
89.0297	57
90.0344	456
115.0309	156
117.0219	214
118.0309	713
143.0272	142
144.0255	57
153.049	71
169.0321	85
171.0299	128
181.038	114
183.037	57
186.0556	71
195.0335	114
196.0414	57
196.0741	85
199.042	85
209.0474	999
211.0441	71
211.0634	57
215.0946	214
223.0635	99
224.0697	71
237.0433	371
238.051	656
239.061	99
253.0772	71
253.1108	71
