Mass spectrum: Gabapentin-lactam; LC-ESI-QTOF; MS2; 60 V
Name: Gabapentin-lactam
Formula: C9H15NO
Exact mass: 153.1154
SMILES: C1CCC2(CC1)CC(=O)NC2
InChI: InChI=1S/C9H15NO/c11-8-6-9(7-10-8)4-2-1-3-5-9/h1-7H2,(H,10,11)
Instrument: TripleTOF 5600 SCIEX
Instrument type: LC-ESI-QTOF
Ms type: MS2
Ion mode: POSITIVE
Collision energy: 60
Fragmentation mode: CID
Ionization: ESI
Column name: Zorbax Eclipse Plus C18 2.1 mm x 150 mm, 3.5 um, Agilent
Retention time: 7.593 min
Precursor m/z: 154.1227
Precursor type: [M+H]+
m/z	relative intensity
37.0071	106
38.0157	85
39.0229	255
41.0388	361
43.0187	191
44.013	467
51.0243	106
53.0391	148
54.0341	148
55.0542	658
65.039	425
67.0546	999
72.0455	148
77.0386	595
79.0542	340
80.0646	85
91.0557	191
