Mass spectrum: Tadalafil; LC-ESI-QTOF; MS2; 100 V
Name: Tadalafil
Class: Pharmaceutical; Personal_care_product
Formula: C22H19N3O4
Exact mass: 389.1376
SMILES: CN1CC(=O)N2C(C1=O)CC3=C(C2C4=CC5=C(C=C4)OCO5)NC6=CC=CC=C36
InChI: InChI=1S/C22H19N3O4/c1-24-10-19(26)25-16(22(24)27)9-14-13-4-2-3-5-15(13)23-20(14)21(25)12-6-7-17-18(8-12)29-11-28-17/h2-8,16,21,23H,9-11H2,1H3
Instrument: TripleTOF 5600 SCIEX
Instrument type: LC-ESI-QTOF
Ms type: MS2
Ion mode: POSITIVE
Collision energy: 100
Fragmentation mode: CID
Ionization: ESI
Column name: Zorbax Eclipse Plus C18 2.1 mm x 150 mm, 3.5 um, Agilent
Retention time: 9.801 min
Precursor m/z: 390.1448
Precursor type: [M+H]+
m/z	relative intensity
51.0227	18
77.0385	102
79.0534	11
89.037	27
102.0468	11
103.0559	16
105.0338	20
114.0429	13
115.0539	227
116.0488	13
127.0551	16
128.0517	11
130.0648	30
135.044	34
139.0522	18
140.0481	20
141.0563	16
142.0652	25
149.0246	9
150.0495	30
151.0539	104
152.0599	32
163.0533	27
164.0621	25
165.0698	23
166.0627	18
167.071	44
168.072	51
169.0737	72
175.0545	20
176.0624	199
177.0625	102
178.0666	65
180.0821	11
187.053	23
188.0618	23
189.0695	58
190.0656	69
191.0722	90
192.0787	30
201.0572	11
202.0654	88
203.0728	376
204.0806	999
205.0842	37
214.0669	53
215.0746	34
216.0779	25
217.0886	18
232.0798	34
233.0819	11
