Mass spectrum: Isopyrazam; LC-ESI-QTOF; MS2; 90 V
Name: Isopyrazam
Class: Fungicide
Formula: C20H23F2N3O
Exact mass: 359.1809
SMILES: CC(C)C1C2CCC1C3=C2C=CC=C3NC(=O)C4=CN(N=C4C(F)F)C
InChI: InChI=1S/C20H23F2N3O/c1-10(2)16-12-7-8-13(16)17-11(12)5-4-6-15(17)23-20(26)14-9-25(3)24-18(14)19(21)22/h4-6,9-10,12-13,16,19H,7-8H2,1-3H3,(H,23,26)
Instrument: TripleTOF 6600 SCIEX
Instrument type: LC-ESI-QTOF
Ms type: MS2
Ion mode: POSITIVE
Collision energy: 90
Fragmentation mode: CID
Ionization: ESI
Column name: Zorbax Eclipse Plus C18 2.1 mm x 150 mm, 3.5 um, Agilent
Retention time: 14.619 min
Precursor m/z: 360.1882
Precursor type: [M+H]+
m/z	relative intensity
37.0068	29
38.0151	31
39.023	185
41.039	197
42.0337	146
43.029	51
43.0542	11
51.0044	15
51.0224	61
53.0384	21
54.0329	17
55.055	57
57.0132	88
61.0056	15
62.0146	13
63.0228	65
65.0381	92
66.0315	13
67.0536	67
69.0717	19
70.0073	11
74.0148	23
75.0225	88
76.031	11
77.0188	21
77.0376	420
78.0334	27
78.0462	37
79.0539	57
81.0437	13
81.0678	9
82.028	33
83.028	55
84.024	51
87.023	19
88.0134	15
88.0284	29
89.0376	232
90.0459	17
91.0272	11
91.0531	92
95.0612	37
97.0089	17
98.0028	35
99.0217	35
100.0188	13
101.0383	150
102.0452	146
103.0552	69
104.0499	49
105.0417	11
105.0682	9
106.0217	9
107.0281	41
109.0397	136
110.0125	13
111.0326	67
112.0178	11
113.0372	98
114.0436	167
115.0535	999
116.0481	118
117.0566	47
118.0544	19
119.0227	29
119.0603	15
120.0352	13
121.043	19
122.041	11
125.0377	130
126.0442	155
127.0527	558
128.0596	868
129.046	104
129.0665	41
130.039	15
130.0641	84
131.0353	90
132.0405	59
133.0422	76
134.0354	61
135.0486	11
136.0556	11
138.0408	78
139.0306	155
139.0525	244
140.0488	442
141.0685	339
142.0629	128
143.064	61
144.0407	27
145.0445	29
145.0733	9
146.0376	25
146.0508	41
147.0441	17
148.0568	31
149.0396	25
150.0458	96
151.0534	298
152.0551	558
153.0583	337
154.0647	383
155.0321	23
155.0601	278
156.0395	59
156.0647	31
156.0792	31
157.0277	9
157.04	49
157.0763	21
158.04	67
159.0358	327
160.0473	11
163.0376	17
163.0523	59
164.0517	165
165.0664	317
166.0625	384
167.0702	357
168.0708	223
169.0436	27
169.0737	112
170.0535	63
170.0907	21
171.051	31
172.0555	61
173.0511	65
175.053	27
176.057	106
177.0564	213
178.0643	469
179.0603	450
180.0702	379
181.0495	13
181.0741	159
182.0666	76
182.0875	35
183.034	15
183.0531	11
183.0829	23
184.0434	23
184.0572	13
184.0881	15
185.0691	25
186.0647	23
187.0672	25
188.0514	25
189.061	120
190.0641	215
191.0699	333
192.0717	379
193.0756	254
194.0768	136
195.0538	19
195.088	73
196.0567	15
196.0834	47
197.0704	11
198.0613	17
198.0758	11
199.0717	21
200.0643	21
201.062	29
202.0701	71
203.0634	126
204.079	250
205.0749	244
206.0711	339
207.0832	163
208.0593	35
208.086	82
209.062	39
209.0771	17
210.0647	31
210.1033	15
211.0545	15
212.081	33
214.0635	21
214.0837	11
215.0561	11
215.0699	25
216.0708	78
217.0672	80
217.0871	29
218.083	86
219.0866	157
220.0845	169
221.0676	29
221.0958	122
222.0699	51
222.0987	19
223.0778	35
224.079	33
225.0865	9
226.0734	13
227.0499	9
227.0704	21
228.0559	15
228.074	17
228.0931	9
229.0774	23
230.0756	43
231.0787	19
231.0927	41
232.0856	98
233.0593	27
233.0982	80
234.0706	55
234.1007	67
235.0729	39
235.0881	13
236.0815	132
237.094	19
238.0927	21
240.0696	13
242.0729	27
243.0846	39
244.0839	33
244.0933	11
245.0959	23
246.0694	17
246.0997	43
247.0721	15
247.1002	39
248.082	73
248.1199	35
249.09	108
250.0949	43
252.1104	9
257.1012	9
258.1034	11
259.0847	15
260.0836	35
261.0919	13
262.0974	110
272.0841	9
273.0886	15
274.1	33
275.1077	37
276.1087	73
