Mass spectrum: Tenamfetamine; LC-ESI-QTOF; MS2; 90 V
Name: Tenamfetamine
Class: Pharmaceutical
Formula: C10H13NO2
Exact mass: 179.0946
SMILES: CC(CC1=CC2=C(C=C1)OCO2)N
InChI: InChI=1S/C10H13NO2/c1-7(11)4-8-2-3-9-10(5-8)13-6-12-9/h2-3,5,7H,4,6,11H2,1H3
Instrument: TripleTOF 6600 SCIEX
Instrument type: LC-ESI-QTOF
Ms type: MS2
Ion mode: POSITIVE
Collision energy: 90
Fragmentation mode: CID
Ionization: ESI
Column name: Zorbax Eclipse Plus C18 2.1 mm x 150 mm, 3.5 um, Agilent
Retention time: 5.295 min
Precursor m/z: 180.1019
Precursor type: [M+H]+
m/z	relative intensity
35.9991	10
37.007	75
38.0023	10
38.0145	62
39.0223	234
49.0072	93
50.0148	554
51.0226	999
52.027	39
53.0382	23
59.9967	10
61.0055	36
62.0144	72
63.0223	195
64.0303	18
65.0384	39
74.014	78
75.0212	20
77.0373	286
78.0429	36
89.038	91
