Mass spectrum: Omeprazole 4-desmethylthioether; LC-ESI-QTOF; MS2; 80 V
Name: Omeprazole 4-desmethylthioether
Class: Metabolite; Pharmaceutical
Formula: C16H17N3O2S
Exact mass: 315.1041
SMILES: Cc1cnc(c(c1O)C)CSc2[nH]c3ccc(cc3n2)OC
InChI: InChI=1S/C16H17N3O2S/c1-9-7-17-14(10(2)15(9)20)8-22-16-18-12-5-4-11(21-3)6-13(12)19-16/h4-7H,8H2,1-3H3,(H,17,20)(H,18,19)
Instrument: TripleTOF 5600 SCIEX
Instrument type: LC-ESI-QTOF
Ms type: MS2
Ion mode: POSITIVE
Collision energy: 80
Fragmentation mode: CID
Ionization: ESI
Column name: Zorbax Eclipse Plus C18 2.1 mm x 150 mm, 3.5 um, Agilent
Retention time: 6.17 min
Precursor m/z: 316.1114
Precursor type: [M+H]+
m/z	relative intensity
53.0445	23
54.0382	23
54.0444	19
55.0213	19
65.0434	148
66.05	38
67.0594	109
77.0407	162
78.0369	23
79.0443	124
79.0561	105
80.0519	86
81.0589	47
81.0738	43
82.0314	19
85.0114	23
91.0566	143
92.0511	57
93.0584	411
94.031	19
94.0665	382
95.0516	28
95.0739	52
96.0816	167
105.0458	38
106.053	564
107.0738	100
108.0813	999
109.0534	66
109.0889	76
117.0566	23
118.063	28
122.0605	86
123.0681	71
124.0751	109
133.052	19
134.0482	477
135.0681	19
136.0756	253
137.0187	95
137.083	57
138.0281	38
140.0511	33
148.0743	105
149.0695	57
165.0149	38
166.0321	243
167.0393	28
168.0467	90
