Mass spectrum: Triphenyl phosphate; LC-ESI-QTOF; MS2; 150 V
Name: Triphenyl phosphate
Class: Industrial_process
Formula: C18H15O4P
Exact mass: 326.0708
SMILES: C1=CC=C(C=C1)OP(=O)(OC2=CC=CC=C2)OC3=CC=CC=C3
InChI: InChI=1S/C18H15O4P/c19-23(20-16-10-4-1-5-11-16,21-17-12-6-2-7-13-17)22-18-14-8-3-9-15-18/h1-15H
Instrument: TripleTOF 5600 SCIEX
Instrument type: LC-ESI-QTOF
Ms type: MS2
Ion mode: POSITIVE
Collision energy: 150
Fragmentation mode: CID
Ionization: ESI
Column name: Zorbax Eclipse Plus C18 2.1 mm x 150 mm, 3.5 um, Agilent
Retention time: 14.07 min
Precursor m/z: 327.0781
Precursor type: [M+H]+
m/z	relative intensity
39.0231	17
49.0069	61
50.0148	503
51.0229	999
63.0229	39
65.0381	32
73.0074	21
74.0145	201
75.0232	89
76.0312	82
77.0387	348
78.046	17
86.0163	46
87.0224	43
89.0377	25
98.0153	122
99.024	43
100.0307	32
101.0379	14
102.045	43
113.0379	39
122.0164	28
125.0366	32
126.0455	86
139.0542	43
149.0394	35
150.0463	251
151.055	68
152.0598	17
198.0484	28
223.0579	39
224.0617	46
