Mass spectrum: Methacetin; LC-ESI-QTOF; MS2; 60 V
Name: Methacetin
Class: Pharmaceutical
Formula: C9H11NO2
Exact mass: 165.079
SMILES: COc1ccc(NC(C)=O)cc1
InChI: InChI=1S/C9H11NO2/c1-7(11)10-8-3-5-9(12-2)6-4-8/h3-6H,1-2H3,(H,10,11)
Instrument: TripleTOF 5600 SCIEX
Instrument type: LC-ESI-QTOF
Ms type: MS2
Ion mode: POSITIVE
Collision energy: 60
Fragmentation mode: CID
Ionization: ESI
Column name: Zorbax Eclipse Plus C18 2.1 mm x 150 mm, 3.5 um, Agilent
Retention time: 6.508 min
Precursor m/z: 166.0863
Precursor type: [M+H]+
m/z	relative intensity
42.0447	23
43.029	421
52.0324	14
54.0424	71
64.0362	193
65.0439	545
66.0513	633
67.0465	38
77.0422	291
78.0389	80
80.0528	988
81.0601	510
82.0437	16
92.0482	425
93.0591	999
94.0663	11
108.0447	171
109.0525	139
