Mass spectrum: Ranitidine; LC-ESI-QTOF; MS2; 90 V
Name: Ranitidine
Class: Pharmaceutical
Formula: C13H22N4O3S
Exact mass: 314.1413
SMILES: CNC(=C[N+](=O)[O-])NCCSCC1=CC=C(O1)CN(C)C
InChI: InChI=1S/C13H22N4O3S/c1-14-13(9-17(18)19)15-6-7-21-10-12-5-4-11(20-12)8-16(2)3/h4-5,9,14-15H,6-8,10H2,1-3H3
Instrument: TripleTOF 5600 SCIEX
Instrument type: LC-ESI-QTOF
Ms type: MS2
Ion mode: POSITIVE
Collision energy: 90
Fragmentation mode: CID
Ionization: ESI
Column name: Zorbax Eclipse Plus C18 2.1 mm x 150 mm, 3.5 um, Agilent
Retention time: 4.832 min
Precursor m/z: 315.1485
Precursor type: [M+H]+
m/z	relative intensity
42.0418	132
43.0261	42
44.0588	28
51.0287	71
53.0447	367
54.0381	35
54.0456	14
55.0227	17
55.0341	14
55.047	57
55.0591	14
56.055	306
57.0496	114
58.0698	35
59.0003	96
60.0072	24
65.0415	124
66.0492	21
67.0446	24
67.0577	28
68.0519	132
68.9825	21
70.0681	39
70.9979	17
74.0085	28
77.0413	556
77.0859	24
78.0358	74
78.0479	78
79.021	14
79.0557	121
80.0173	21
80.0515	178
81.0361	999
81.0596	24
82.0543	160
83.0503	14
83.0628	53
85.0427	24
86.0074	21
88.0219	42
89.0391	39
90.0463	21
91.0561	107
92.0497	42
93.0584	132
94.0456	78
94.066	146
94.0794	17
95.0518	57
95.0713	32
96.0685	110
97.0114	85
97.0771	631
97.1075	14
98.0842	46
101.0207	21
102.0377	777
104.0493	196
104.0643	14
105.0366	28
105.0572	17
105.0688	17
106.0659	82
107.0492	281
108.0814	28
109.0209	14
109.0804	28
110.068	28
112.0208	14
115.0336	28
115.0516	17
117.0546	74
118.0647	96
119.0606	92
120.0682	39
120.0809	24
121.0754	42
123.024	21
125.0067	82
129.0476	71
130.0578	49
131.0626	28
132.0441	217
132.0676	17
133.0075	14
133.0529	132
133.0756	53
134.0167	24
134.0607	28
135.0244	17
135.0906	24
147.0609	24
148.0759	32
150.0367	24
151.019	21
