Mass spectrum: Valsartan; LC-ESI-QTOF; MS2; 120 V
Name: Valsartan
Class: Pharmaceutical
Formula: C24H29N5O3
Exact mass: 435.227
SMILES: CCCCC(=O)N(Cc1ccc(cc1)c2ccccc2c3n[nH]nn3)[C@@H](C(C)C)C(O)=O
InChI: InChI=1S/C24H29N5O3/c1-4-5-10-21(30)29(22(16(2)3)24(31)32)15-17-11-13-18(14-12-17)19-8-6-7-9-20(19)23-25-27-28-26-23/h6-9,11-14,16,22H,4-5,10,15H2,1-3H3,(H,31,32)(H,25,26,27,28)/t22-/m0/s1
Instrument: TripleTOF 5600 SCIEX
Instrument type: LC-ESI-QTOF
Ms type: MS2
Ion mode: POSITIVE
Collision energy: 120
Fragmentation mode: CID
Ionization: ESI
Column name: Zorbax Eclipse Plus C18 2.1 mm x 150 mm, 3.5 um, Agilent
Retention time: 11.443 min
Precursor m/z: 436.2343
Precursor type: [M+H]+
m/z	relative intensity
75.0253	17
77.0412	112
87.024	11
89.0401	30
101.0374	23
102.0346	15
102.0456	14
113.0379	43
114.0451	26
115.0537	61
125.0379	34
126.0461	57
127.0535	131
128.0605	57
137.0381	34
138.0458	52
139.0534	114
140.0484	144
141.0568	11
149.0375	11
150.0458	163
151.0541	558
152.0617	999
153.0642	79
154.0645	17
161.038	12
162.0454	51
163.0537	309
164.0505	305
165.0686	199
166.0634	29
168.0697	10
176.0608	244
177.0605	211
178.0657	290
179.0717	82
180.0804	29
188.0478	78
189.057	64
190.064	245
191.0601	43
192.0703	31
205.075	237
