Mass spectrum: Allethrin; LC-ESI-QTOF; MS2; 60 V
Name: Allethrin
Class: Insecticide
Formula: C19H26O3
Exact mass: 302.1882
SMILES: CC(C)=CC1C(C(=O)OC2CC(=O)C(=C2C)CC=C)C1(C)C
InChI: InChI=1S/C19H26O3/c1-7-8-13-12(4)16(10-15(13)20)22-18(21)17-14(9-11(2)3)19(17,5)6/h7,9,14,16-17H,1,8,10H2,2-6H3
Instrument: TripleTOF 5600 SCIEX
Instrument type: LC-ESI-QTOF
Ms type: MS2
Ion mode: POSITIVE
Collision energy: 60
Fragmentation mode: CID
Ionization: ESI
Column name: Zorbax Eclipse Plus C18 2.1 mm x 150 mm, 3.5 um, Agilent
Retention time: 16.132 min
Precursor m/z: 303.1955
Precursor type: [M+H]+
m/z	relative intensity
55.0228	18
55.0591	23
65.0425	124
67.0571	103
69.0339	13
69.0725	23
77.0412	373
77.0727	21
79.0569	450
81.0718	201
85.0658	18
91.056	999
91.0801	31
92.0643	26
93.0709	164
95.0494	29
95.087	34
103.0533	37
105.07	259
107.05	47
107.0849	166
109.0653	39
109.1008	13
115.0543	296
116.0618	26
117.0687	79
119.0859	39
120.0574	15
121.065	63
121.1004	58
123.1156	50
128.0618	26
129.0707	26
131.0839	18
133.0628	13
135.0801	100
141.0686	21
142.0823	15
143.0857	13
