Mass spectrum: Flufenacet OA; LC-ESI-QTOF; MS2; 70 V
Name: Flufenacet OA
Class: Transformation_product; Herbicide; Metabolite
Formula: C11H12FNO3
Exact mass: 225.0801
SMILES: CC(C)N(C(=O)C(O)=O)C1=CC=C(F)C=C1
InChI: InChI=1S/C11H12FNO3/c1-7(2)13(10(14)11(15)16)9-5-3-8(12)4-6-9/h3-7H,1-2H3,(H,15,16)
Instrument: TripleTOF 6600 SCIEX
Instrument type: LC-ESI-QTOF
Ms type: MS2
Ion mode: POSITIVE
Collision energy: 70
Fragmentation mode: CID
Ionization: ESI
Column name: Zorbax Eclipse Plus C18 2.1 mm x 150 mm, 3.5 um, Agilent
Retention time: 6.924 min
Precursor m/z: 226.0874
Precursor type: [M+H]+
m/z	relative intensity
39.0231	49
41.0388	64
57.0136	228
74.0152	149
75.0225	421
83.0291	999
95.0285	128
110.0393	99
