Mass spectrum: 19-Nortestosterone; LC-ESI-QTOF; MS2; 70 V
Name: 19-Nortestosterone
Class: Pharmaceutical
Formula: C18H26O2
Exact mass: 274.1933
SMILES: C[C@]12CC[C@H]3[C@@H](CCC4=CC(=O)CC[C@H]34)[C@@H]1CC[C@@H]2O
InChI: InChI=1S/C18H26O2/c1-18-9-8-14-13-5-3-12(19)10-11(13)2-4-15(14)16(18)6-7-17(18)20/h10,13-17,20H,2-9H2,1H3/t13-,14+,15+,16-,17-,18-/m0/s1
Instrument: TripleTOF 5600 SCIEX
Instrument type: LC-ESI-QTOF
Ms type: MS2
Ion mode: POSITIVE
Collision energy: 70
Fragmentation mode: CID
Ionization: ESI
Column name: Zorbax Eclipse Plus C18 2.1 mm x 150 mm, 3.5 um, Agilent
Retention time: 10.421 min
Precursor m/z: 275.2006
Precursor type: [M+H]+
m/z	relative intensity
43.0265	24
51.0289	41
53.0447	72
55.0237	30
55.0599	178
65.043	185
66.0503	20
67.0579	223
69.0774	20
77.0419	999
78.0504	20
79.0571	820
81.0403	17
81.0726	333
83.0517	312
91.0561	981
91.0909	17
93.0711	144
94.042	37
95.0507	17
95.086	37
97.067	27
103.0561	99
104.0636	20
105.0711	284
107.048	82
107.0849	17
109.0646	336
109.0992	13
115.0539	236
116.0616	51
117.07	130
119.0851	68
127.0554	78
128.0626	284
129.0701	157
130.0771	44
131.0482	17
131.0844	61
133.0959	17
141.069	99
142.0811	41
143.0864	30
152.0594	24
153.0702	51
154.0764	20
155.0859	48
165.0686	27
