Mass spectrum: Sulfadimethoxine; LC-ESI-QTOF; MS2; 120 V
Name: Sulfadimethoxine
Class: Pharmaceutical
Formula: C12H14N4O4S
Exact mass: 310.0736
SMILES: COC1=NC(=NC(=C1)NS(=O)(=O)C2=CC=C(C=C2)N)OC
InChI: InChI=1S/C12H14N4O4S/c1-19-11-7-10(14-12(15-11)20-2)16-21(17,18)9-5-3-8(13)4-6-9/h3-7H,13H2,1-2H3,(H,14,15,16)
Instrument: TripleTOF 5600 SCIEX
Instrument type: LC-ESI-QTOF
Ms type: MS2
Ion mode: POSITIVE
Collision energy: 120
Fragmentation mode: CID
Ionization: ESI
Column name: Zorbax Eclipse Plus C18 2.1 mm x 150 mm, 3.5 um, Agilent
Retention time: 8.09 min
Precursor m/z: 311.0809
Precursor type: [M+H]+
m/z	relative intensity
36.0005	23
37.0075	73
38.0153	70
39.0233	468
40.0186	67
41.0271	20
42.0343	50
43.0298	23
44.0134	23
50.0158	14
51.0228	26
52.0181	29
53.0138	14
53.0387	188
54.0339	38
57.0444	29
58.0293	26
62.0154	20
63.0229	55
64.018	20
64.0307	11
65.0142	26
65.0388	999
66.0214	35
66.0336	73
66.0448	26
67.0056	26
67.0294	238
68.0131	167
68.0368	17
69.0087	88
69.0447	14
69.9926	17
74.0132	17
77.0149	17
80.0498	483
81.0451	44
82.0292	76
90.0359	26
91.0414	47
92.0495	106
93.058	14
95.0255	11
108.0452	55
