Mass spectrum: Diclofenac; LC-ESI-QTOF; MS2; 140 V
Name: Diclofenac
Class: Pharmaceutical
Formula: C14H11Cl2NO2
Exact mass: 295.0167
SMILES: OC(Cc1c(Nc2c(Cl)cccc2Cl)cccc1)=O
InChI: InChI=1S/C14H11Cl2NO2/c15-10-5-3-6-11(16)14(10)17-12-7-2-1-4-9(12)8-13(18)19/h1-7,17H,8H2,(H,18,19)
Instrument: TripleTOF 5600 SCIEX
Instrument type: LC-ESI-QTOF
Ms type: MS2
Ion mode: POSITIVE
Collision energy: 140
Fragmentation mode: CID
Ionization: ESI
Column name: Zorbax Eclipse Plus C18 2.1 mm x 150 mm, 3.5 um, Agilent
Retention time: 12.622 min
Precursor m/z: 296.024
Precursor type: [M+H]+
m/z	relative intensity
74.0178	257
75.0252	247
76.033	118
77.041	300
86.0167	64
98.0164	290
99.0235	236
100.0311	96
101.0399	118
102.0466	85
110.0192	53
122.013	53
123.0241	85
124.0284	53
125.039	139
126.0482	182
139.0526	42
149.0374	171
150.0462	999
151.0551	257
152.0606	193
175.0406	96
176.0499	107
177.0596	204
178.0659	107
