Mass spectrum: Fenpropimorph; LC-ESI-QTOF; MS2; 50 V
Name: Fenpropimorph
Class: Pharmaceutical; Fungicide
Formula: C20H33NO
Exact mass: 303.2562
SMILES: CC(CN1C[C@H](C)O[C@H](C)C1)Cc2ccc(cc2)C(C)(C)C
InChI: InChI=1S/C20H33NO/c1-15(12-21-13-16(2)22-17(3)14-21)11-18-7-9-19(10-8-18)20(4,5)6/h7-10,15-17H,11-14H2,1-6H3/t15?,16-,17+
Instrument: TripleTOF 5600 SCIEX
Instrument type: LC-ESI-QTOF
Ms type: MS2
Ion mode: POSITIVE
Collision energy: 50
Fragmentation mode: CID
Ionization: ESI
Column name: Zorbax Eclipse Plus C18 2.1 mm x 150 mm, 3.5 um, Agilent
Retention time: 9.527 min
Precursor m/z: 304.2635
Precursor type: [M+H]+
m/z	relative intensity
55.0602	15
56.0543	13
57.0761	91
70.0685	43
72.0833	21
77.0407	17
79.0567	30
81.0722	17
88.0771	12
91.0562	192
93.0706	15
98.0978	293
102.0913	26
103.0538	17
104.0621	34
105.0707	580
107.0854	77
115.0541	45
116.1068	70
117.0702	549
119.0859	620
130.1224	99
131.0851	53
132.0935	810
145.1011	36
146.1087	20
147.1171	999
159.1165	11
161.1319	31
304.2626	21
