Mass spectrum: Omeprazole 4-desmethylthioether; LC-ESI-QTOF; MS2; 60 V
Name: Omeprazole 4-desmethylthioether
Class: Metabolite; Pharmaceutical
Formula: C16H17N3O2S
Exact mass: 315.1041
SMILES: Cc1cnc(c(c1O)C)CSc2[nH]c3ccc(cc3n2)OC
InChI: InChI=1S/C16H17N3O2S/c1-9-7-17-14(10(2)15(9)20)8-22-16-18-12-5-4-11(21-3)6-13(12)19-16/h4-7H,8H2,1-3H3,(H,17,20)(H,18,19)
Instrument: TripleTOF 5600 SCIEX
Instrument type: LC-ESI-QTOF
Ms type: MS2
Ion mode: POSITIVE
Collision energy: 60
Fragmentation mode: CID
Ionization: ESI
Column name: Zorbax Eclipse Plus C18 2.1 mm x 150 mm, 3.5 um, Agilent
Retention time: 6.17 min
Precursor m/z: 316.1114
Precursor type: [M+H]+
m/z	relative intensity
65.042	76
66.0503	14
67.057	98
77.0413	76
79.0437	32
79.0554	120
80.0524	43
81.0713	98
82.0354	14
91.055	135
91.0697	18
92.0505	40
93.0581	336
94.0287	18
94.0479	21
94.0665	278
95.0501	21
95.0739	14
96.0816	175
106.0531	311
107.0723	80
108.081	999
109.0505	14
109.0647	25
109.0874	179
117.0562	25
118.065	32
122.0583	139
123.0679	80
124.0751	124
133.0389	18
134.0478	925
135.069	18
136.0755	731
137.0169	29
137.0836	278
138.0358	14
138.0506	14
140.0524	128
148.0728	65
148.0961	14
149.0703	391
150.0383	18
165.0111	32
166.0307	256
167.0382	47
167.0508	21
168.0476	695
168.0821	18
181.042	25
213.1011	29
240.1124	120
268.1074	80
284.0822	32
