Mass spectrum: Proquinazid; LC-ESI-QTOF; MS2; 80 V
Name: Proquinazid
Class: Fungicide
Formula: C14H17IN2O2
Exact mass: 372.0335
SMILES: CCCN1C(=O)C2=C(C=CC(=C2)I)N=C1OCCC
InChI: InChI=1S/C14H17IN2O2/c1-3-7-17-13(18)11-9-10(15)5-6-12(11)16-14(17)19-8-4-2/h5-6,9H,3-4,7-8H2,1-2H3
Instrument: TripleTOF 6600 SCIEX
Instrument type: LC-ESI-QTOF
Ms type: MS2
Ion mode: POSITIVE
Collision energy: 80
Fragmentation mode: CID
Ionization: ESI
Column name: Zorbax Eclipse Plus C18 2.1 mm x 150 mm, 3.5 um, Agilent
Retention time: 17.121 min
Precursor m/z: 373.0408
Precursor type: [M+H]+
m/z	relative intensity
41.0426	13
61.0109	20
62.019	79
66.014	19
88.0216	38
89.0297	190
91.045	25
92.0292	32
116.0399	52
117.0242	233
119.0393	35
140.9214	9
144.0344	28
145.0185	207
162.0448	41
164.9212	24
188.9209	14
215.9311	999
242.9418	15
270.9356	19
271.9195	132
