Mass spectrum: Praziquantel; LC-ESI-QTOF; MS2; 40 V
Name: Praziquantel
Class: Pharmaceutical
Formula: C19H24N2O2
Exact mass: 312.1838
SMILES: O=C1CN(CC2N1CCc3ccccc23)C(=O)C4CCCCC4
InChI: InChI=1S/C19H24N2O2/c22-18-13-20(19(23)15-7-2-1-3-8-15)12-17-16-9-5-4-6-14(16)10-11-21(17)18/h4-6,9,15,17H,1-3,7-8,10-13H2
Instrument: TripleTOF 5600 SCIEX
Instrument type: LC-ESI-QTOF
Ms type: MS2
Ion mode: POSITIVE
Collision energy: 40
Fragmentation mode: CID
Ionization: ESI
Column name: Zorbax Eclipse Plus C18 2.1 mm x 150 mm, 3.5 um, Agilent
Retention time: 10.768 min
Precursor m/z: 313.1911
Precursor type: [M+H]+
m/z	relative intensity
72.0486	27
83.0886	942
105.0715	16
115.0541	10
117.0697	35
128.0637	13
129.0708	118
130.0648	21
131.0744	19
132.0811	571
144.0816	50
145.089	25
146.0972	273
158.0963	73
173.1077	13
174.0919	999
175.1226	70
185.1091	16
203.1186	744
