Mass spectrum: Kresoxim-methyl; LC-ESI-QTOF; MS2; 50 V
Name: Kresoxim-methyl
Class: Fungicide
Formula: C18H19NO4
Exact mass: 313.1314
SMILES: CC1=CC=CC=C1OCC2=CC=CC=C2C(=NOC)C(=O)OC
InChI: InChI=1S/C18H19NO4/c1-13-8-4-7-11-16(13)23-12-14-9-5-6-10-15(14)17(19-22-3)18(20)21-2/h4-11H,12H2,1-3H3
Instrument: TripleTOF 6600 SCIEX
Instrument type: LC-ESI-QTOF
Ms type: MS2
Ion mode: POSITIVE
Collision energy: 50
Fragmentation mode: CID
Ionization: ESI
Column name: Zorbax Eclipse Plus C18 2.1 mm x 150 mm, 3.5 um, Agilent
Retention time: 13.809 min
Precursor m/z: 314.1387
Precursor type: [M+H]+
m/z	relative intensity
59.0116	17
63.023	15
65.0381	39
77.0371	103
79.0528	45
89.0375	323
90.046	116
91.0533	382
103.0521	51
104.0611	35
105.0682	31
107.0483	33
115.0409	11
115.0525	23
116.0482	681
117.0561	178
118.0427	25
118.0646	182
119.0467	41
121.0632	57
127.0536	21
128.0486	23
128.0608	13
129.0722	13
130.0282	17
130.0638	247
131.0716	301
132.0431	67
132.0795	49
135.0426	55
139.0546	13
140.0509	39
141.0701	33
146.0579	97
151.0528	91
152.0614	313
153.0683	81
154.0635	33
155.0693	19
164.061	17
165.0684	414
166.0709	182
167.082	223
168.0787	45
176.0624	146
177.0687	229
178.0756	999
179.0829	564
180.0529	21
180.0798	891
181.0633	83
181.0898	31
182.0671	13
189.0609	71
190.0625	120
191.0757	63
192.0809	170
193.0881	483
194.0719	81
194.0954	953
195.0773	132
196.0723	15
202.0635	19
202.0745	11
203.0712	251
204.0793	253
205.0835	53
206.0604	582
206.0952	93
207.0723	792
208.082	352
209.0814	15
210.0648	21
210.0897	25
218.0969	11
220.0766	83
220.1117	15
221.081	75
222.0907	366
223.0981	245
224.1067	37
232.0875	11
235.0739	138
236.0754	29
236.1006	13
237.1111	11
