Mass spectrum: Praziquantel; LC-ESI-QTOF; MS2; 150 V
Name: Praziquantel
Class: Pharmaceutical
Formula: C19H24N2O2
Exact mass: 312.1838
SMILES: O=C1CN(CC2N1CCc3ccccc23)C(=O)C4CCCCC4
InChI: InChI=1S/C19H24N2O2/c22-18-13-20(19(23)15-7-2-1-3-8-15)12-17-16-9-5-4-6-14(16)10-11-21(17)18/h4-6,9,15,17H,1-3,7-8,10-13H2
Instrument: TripleTOF 5600 SCIEX
Instrument type: LC-ESI-QTOF
Ms type: MS2
Ion mode: POSITIVE
Collision energy: 150
Fragmentation mode: CID
Ionization: ESI
Column name: Zorbax Eclipse Plus C18 2.1 mm x 150 mm, 3.5 um, Agilent
Retention time: 10.768 min
Precursor m/z: 313.1911
Precursor type: [M+H]+
m/z	relative intensity
51.0286	146
55.0604	730
65.0432	194
77.0402	999
78.0479	146
89.0388	999
89.0576	121
90.0466	292
90.0627	97
91.0556	194
102.044	194
103.0544	292
115.0524	389
117.0559	170
127.0571	97
128.0605	219
130.0632	170
