Mass spectrum: Eprosartan; LC-ESI-QTOF; MS2; 100 V
Name: Eprosartan
Class: Pharmaceutical
Formula: C23H24N2O4S
Exact mass: 424.1457
SMILES: CCCCc1ncc(\C=C(/Cc2sccc2)C(O)=O)n1Cc3ccc(cc3)C(O)=O
InChI: InChI=1S/C23H24N2O4S/c1-2-3-6-21-24-14-19(12-18(23(28)29)13-20-5-4-11-30-20)25(21)15-16-7-9-17(10-8-16)22(26)27/h4-5,7-12,14H,2-3,6,13,15H2,1H3,(H,26,27)(H,28,29)/b18-12+
Instrument: TripleTOF 5600 SCIEX
Instrument type: LC-ESI-QTOF
Ms type: MS2
Ion mode: NEGATIVE
Collision energy: 100
Fragmentation mode: CID
Ionization: ESI
Column name: Zorbax Eclipse Plus C18 2.1 mm x 150 mm, 3.5 um, Agilent
Retention time: 6.955 min
Precursor m/z: 423.1384
Precursor type: [M-H]-
m/z	relative intensity
56.981	187
80.0367	124
82.9943	999
93.0432	187
96.0013	124
96.0154	62
116.0515	62
148.0156	124
148.0276	187
167.0585	124
169.0722	124
193.0693	124
199.0369	62
