Mass spectrum: Lorazepam; LC-ESI-QTOF; MS2; 70 V
Name: Lorazepam
Class: Pharmaceutical
Formula: C15H10Cl2N2O2
Exact mass: 320.0119
SMILES: OC1N=C(c2ccccc2Cl)c3cc(Cl)ccc3NC1=O
InChI: InChI=1S/C15H10Cl2N2O2/c16-8-5-6-12-10(7-8)13(19-15(21)14(20)18-12)9-3-1-2-4-11(9)17/h1-7,15,21H,(H,18,20)
Instrument: TripleTOF 5600 SCIEX
Instrument type: LC-ESI-QTOF
Ms type: MS2
Ion mode: POSITIVE
Collision energy: 70
Fragmentation mode: CID
Ionization: ESI
Column name: Zorbax Eclipse Plus C18 2.1 mm x 150 mm, 3.5 um, Agilent
Retention time: 9.538 min
Precursor m/z: 321.0192
Precursor type: [M+H]+
m/z	relative intensity
75.0252	157
93.0601	184
100.0173	236
102.0331	420
110.9995	210
130.037	105
135.994	289
138.0096	315
163.0035	315
164.0003	236
166.0652	157
167.0729	210
168.0647	157
177.0553	394
192.0675	157
193.0748	499
194.0826	999
205.0752	262
228.0482	105
229.0551	210
239.0358	341
