Mass spectrum: Metformin; LC-ESI-QTOF; MS2; 30 V
Name: Metformin
Class: Pharmaceutical
Formula: C4H11N5
Exact mass: 129.1014
SMILES: CN(C)C(=N)N=C(N)N
InChI: InChI=1S/C4H11N5/c1-9(2)4(7)8-3(5)6/h1-2H3,(H5,5,6,7,8)
Instrument: TripleTOF 6600 SCIEX
Instrument type: LC-ESI-QTOF
Ms type: MS2
Ion mode: POSITIVE
Collision energy: 30
Fragmentation mode: CID
Ionization: ESI
Column name: Zorbax Eclipse Plus C18 2.1 mm x 150 mm, 3.5 um, Agilent
Retention time: 1.521 min
Precursor m/z: 130.1087
Precursor type: [M+H]+
m/z	relative intensity
42.0334	12
43.0287	257
44.049	27
46.0647	170
55.0286	25
56.0364	31
60.0551	216
68.0236	110
71.0598	999
85.0504	111
88.0862	58
113.0812	28
