Mass spectrum: Bisoprolol; LC-ESI-QTOF; MS2; 40 V
Name: Bisoprolol
Class: Pharmaceutical
Formula: C18H31NO4
Exact mass: 325.2253
SMILES: CC(C)NCC(COC1=CC=C(C=C1)COCCOC(C)C)O
InChI: InChI=1S/C18H31NO4/c1-14(2)19-11-17(20)13-23-18-7-5-16(6-8-18)12-21-9-10-22-15(3)4/h5-8,14-15,17,19-20H,9-13H2,1-4H3
Instrument: TripleTOF 6600 SCIEX
Instrument type: LC-ESI-QTOF
Ms type: MS2
Ion mode: POSITIVE
Collision energy: 40
Fragmentation mode: CID
Ionization: ESI
Column name: Zorbax Eclipse Plus C18 2.1 mm x 150 mm, 3.5 um, Agilent
Retention time: 7.01 min
Precursor m/z: 326.2326
Precursor type: [M+H]+
m/z	relative intensity
30.0335	36
41.0377	19
43.0539	33
45.0331	105
56.0491	340
58.064	38
72.08	310
74.0591	999
75.043	43
77.0371	25
79.053	34
84.0788	21
89.0372	89
91.0526	123
98.0951	215
100.1108	20
105.0684	73
107.0478	333
115.0518	13
116.1058	760
117.0689	22
119.0475	149
119.0822	16
121.0629	77
133.0631	265
134.058	12
137.0587	19
145.0635	107
147.0785	128
162.0902	92
163.0745	28
204.1377	16
326.231	16
