Mass spectrum: Cyclophosphamide; LC-ESI-QTOF; MS2; 120 V
Name: Cyclophosphamide
Class: Pharmaceutical
Formula: C7H15Cl2N2O2P
Exact mass: 260.0248
SMILES: C1CNP(=O)(OC1)N(CCCl)CCCl
InChI: InChI=1S/C7H15Cl2N2O2P/c8-2-5-11(6-3-9)14(12)10-4-1-7-13-14/h1-7H2,(H,10,12)
Instrument: TripleTOF 5600 SCIEX
Instrument type: LC-ESI-QTOF
Ms type: MS2
Ion mode: POSITIVE
Collision energy: 120
Fragmentation mode: CID
Ionization: ESI
Column name: Zorbax Eclipse Plus C18 2.1 mm x 150 mm, 3.5 um, Agilent
Retention time: 7.465 min
Precursor m/z: 261.0321
Precursor type: [M+H]+
m/z	relative intensity
42.0448	721
43.0546	249
56.059	416
58.0751	166
60.9912	138
62.9702	249
63.0064	999
64.9882	388
98.9405	194
