Mass spectrum: (Methoxycarbonylmethyl)triphenylphosphonium; LC-ESI-QTOF; MS2; 40 V
Name: (Methoxycarbonylmethyl)triphenylphosphonium
Class: Industrial_process
Formula: [C21H20O2P]+
Exact mass: 335.1195
SMILES: COC(=O)C[P+](c1ccccc1)(c2ccccc2)c3ccccc3
InChI: InChI=1S/C21H20O2P/c1-23-21(22)17-24(18-11-5-2-6-12-18,19-13-7-3-8-14-19)20-15-9-4-10-16-20/h2-16H,17H2,1H3/q+1
Instrument: TripleTOF 5600 SCIEX
Instrument type: LC-ESI-QTOF
Ms type: MS2
Ion mode: POSITIVE
Collision energy: 40
Fragmentation mode: CID
Ionization: ESI
Column name: Zorbax Eclipse Plus C18 2.1 mm x 150 mm, 3.5 um, Agilent
Retention time: 7.721 min
Precursor m/z: 335.1195
Precursor type: [M]+
m/z	relative intensity
108.0123	87
183.0355	119
184.0436	51
201.0462	100
261.0829	183
262.0903	263
275.0986	97
279.0941	140
303.0922	999
335.1185	900
