Mass spectrum: Cyproconazole; LC-ESI-QTOF; MS2; 50 V
Name: Cyproconazole
Class: Fungicide
Formula: C15H18ClN3O
Exact mass: 291.1138
SMILES: CC(C1CC1)C(CN2C=NC=N2)(C3=CC=C(C=C3)Cl)O
InChI: InChI=1S/C15H18ClN3O/c1-11(12-2-3-12)15(20,8-19-10-17-9-18-19)13-4-6-14(16)7-5-13/h4-7,9-12,20H,2-3,8H2,1H3
Instrument: TripleTOF 6600 SCIEX
Instrument type: LC-ESI-QTOF
Ms type: MS2
Ion mode: POSITIVE
Collision energy: 50
Fragmentation mode: CID
Ionization: ESI
Column name: Zorbax Eclipse Plus C18 2.1 mm x 150 mm, 3.5 um, Agilent
Retention time: 11.30515 min
Precursor m/z: 292.1211
Precursor type: [M+H]+
m/z	relative intensity
43.0253	11
70.0339	999
89.0305	45
90.0381	13
98.9903	21
110.9891	23
125.0041	824
138.9821	29
