Mass spectrum: Naproxen; LC-ESI-QTOF; MS2; 30 V
Name: Naproxen
Class: Pharmaceutical
Formula: C14H14O3
Exact mass: 230.0943
SMILES: COc1ccc2cc(ccc2c1)C(C)C(O)=O
InChI: InChI=1S/C14H14O3/c1-9(14(15)16)10-3-4-12-8-13(17-2)6-5-11(12)7-10/h3-9H,1-2H3,(H,15,16)
Instrument: TripleTOF 5600 SCIEX
Instrument type: LC-ESI-QTOF
Ms type: MS2
Ion mode: NEGATIVE
Collision energy: 30
Fragmentation mode: CID
Ionization: ESI
Column name: Zorbax Eclipse Plus C18 2.1 mm x 150 mm, 3.5 um, Agilent
Retention time: 10.907 min
Precursor m/z: 229.087
Precursor type: [M-H]-
m/z	relative intensity
169.0677	402
170.072	999
