Mass spectrum: Tetrahydroharman-3-carboxylic acid; LC-ESI-QTOF; MS2; 150 V
Name: Tetrahydroharman-3-carboxylic acid
Formula: C13H14N2O2
Exact mass: 230.1055
SMILES: CC1C2=C(CC(N1)C(=O)O)C3=CC=CC=C3N2
InChI: InChI=1S/C13H14N2O2/c1-7-12-9(6-11(14-7)13(16)17)8-4-2-3-5-10(8)15-12/h2-5,7,11,14-15H,6H2,1H3,(H,16,17)
Instrument: TripleTOF 6600 SCIEX
Instrument type: LC-ESI-QTOF
Ms type: MS2
Ion mode: POSITIVE
Collision energy: 150
Fragmentation mode: CID
Ionization: ESI
Column name: Zorbax Eclipse Plus C18 2.1 mm x 150 mm, 3.5 um, Agilent
Retention time: 5.62 min
Precursor m/z: 231.1128
Precursor type: [M+H]+
m/z	relative intensity
37.007	180
38.0149	147
39.0226	311
49.0079	106
50.0147	990
51.0227	900
59.9991	131
61.0061	458
62.0142	663
63.0219	802
65.0386	40
73.0052	180
74.0145	999
75.0218	262
76.0289	57
77.0373	122
85.0052	73
86.0136	147
87.0207	73
89.0366	204
98.0129	65
102.0462	49
113.0364	40
126.0425	65
