Mass spectrum: Tributylhexadecylphosphonium; LC-ESI-QTOF; MS2; 80 V
Name: Tributylhexadecylphosphonium
Class: Pharmaceutical
Formula: [C28H60P]+
Exact mass: 427.4427
SMILES: CCCCCCCCCCCCCCCC[P+](CCCC)(CCCC)CCCC
InChI: InChI=1S/C28H60P/c1-5-9-13-14-15-16-17-18-19-20-21-22-23-24-28-29(25-10-6-2,26-11-7-3)27-12-8-4/h5-28H2,1-4H3/q+1
Instrument: TripleTOF 5600 SCIEX
Instrument type: LC-ESI-QTOF
Ms type: MS2
Ion mode: POSITIVE
Collision energy: 80
Fragmentation mode: CID
Ionization: ESI
Column name: Zorbax Eclipse Plus C18 2.1 mm x 150 mm, 3.5 um, Agilent
Retention time: 16.04 min
Precursor m/z: 427.4427
Precursor type: [M]+
m/z	relative intensity
61.0238	161
62.0321	239
75.0384	201
76.0465	999
89.0512	117
90.0596	301
103.0666	102
104.0749	78
117.0823	140
131.0983	325
145.1139	194
159.1297	104
173.1448	430
187.1609	244
201.1759	122
215.1917	302
229.2077	682
243.2235	126
257.2381	122
271.2541	113
285.2702	173
299.2861	132
313.3009	112
327.3152	85
341.3309	80
355.3496	51
427.4417	64
