Mass spectrum: Enrofloxacin; LC-ESI-QTOF; MS2; 130 V
Name: Enrofloxacin
Class: Pharmaceutical; Antimicrobial
Formula: C19H22FN3O3
Exact mass: 359.1645
SMILES: CCN1CCN(CC1)c2cc3N(C=C(C(O)=O)C(=O)c3cc2F)C4CC4
InChI: InChI=1S/C19H22FN3O3/c1-2-21-5-7-22(8-6-21)17-10-16-13(9-15(17)20)18(24)14(19(25)26)11-23(16)12-3-4-12/h9-12H,2-8H2,1H3,(H,25,26)
Instrument: TripleTOF 5600 SCIEX
Instrument type: LC-ESI-QTOF
Ms type: MS2
Ion mode: POSITIVE
Collision energy: 130
Fragmentation mode: CID
Ionization: ESI
Column name: Zorbax Eclipse Plus C18 2.1 mm x 150 mm, 3.5 um, Agilent
Retention time: 5.696 min
Precursor m/z: 360.1718
Precursor type: [M+H]+
m/z	relative intensity
53.0067	117
56.0554	97
74.0178	235
75.0248	646
77.0404	215
81.015	195
82.0171	117
83.0318	156
87.0238	156
88.0183	78
88.039	78
89.0391	235
93.0147	215
94.0207	97
95.0321	137
98.0154	235
99.0239	470
100.0185	215
101.0388	333
105.0163	254
106.0212	254
107.0283	999
108.037	156
112.0187	97
113.0406	137
114.0333	195
120.0377	195
120.0545	97
121.0325	137
125.0374	176
126.0346	293
127.0398	78
127.0532	137
128.0553	195
131.0288	97
132.0242	685
133.0422	391
134.0407	235
135.0471	97
140.0497	156
145.0393	137
146.0411	78
146.0523	156
147.0463	97
148.0548	215
152.047	117
154.0634	176
159.0507	117
160.0426	97
161.053	78
166.0597	78
172.0556	254
