Mass spectrum: Dimethachlor; LC-ESI-QTOF; MS2; 110 V
Name: Dimethachlor
Class: Herbicide
Formula: C13H18ClNO2
Exact mass: 255.1026
SMILES: CC1=C(C(=CC=C1)C)N(CCOC)C(=O)CCl
InChI: InChI=1S/C13H18ClNO2/c1-10-5-4-6-11(2)13(10)15(7-8-17-3)12(16)9-14/h4-6H,7-9H2,1-3H3
Instrument: TripleTOF 6600 SCIEX
Instrument type: LC-ESI-QTOF
Ms type: MS2
Ion mode: POSITIVE
Collision energy: 110
Fragmentation mode: CID
Ionization: ESI
Column name: Zorbax Eclipse Plus C18 2.1 mm x 150 mm, 3.5 um, Agilent
Retention time: 10.992 min
Precursor m/z: 256.1099
Precursor type: [M+H]+
m/z	relative intensity
37.0078	38
39.0233	103
46.969	82
47.9766	17
48.9843	311
49.008	95
50.0156	393
51.0234	960
53.039	47
61.0079	25
62.0152	47
63.023	147
64.0303	21
65.0386	151
66.046	17
74.0161	30
76.0317	17
77.0389	999
78.0469	56
79.0545	90
89.0386	358
90.0465	172
91.054	185
102.0479	21
103.0539	73
104.0507	21
105.0441	38
106.0657	51
115.0549	38
116.0495	25
117.0566	125
128.0515	17
130.0644	116
