Mass spectrum: Phenylbutazone; LC-ESI-QTOF; MS2; 70 V
Name: Phenylbutazone
Class: Pharmaceutical
Formula: C19H20N2O2
Exact mass: 308.1525
SMILES: CCCCC1C(=O)N(N(C1=O)C2=CC=CC=C2)C3=CC=CC=C3
InChI: InChI=1S/C19H20N2O2/c1-2-3-14-17-18(22)20(15-10-6-4-7-11-15)21(19(17)23)16-12-8-5-9-13-16/h4-13,17H,2-3,14H2,1H3
Instrument: TripleTOF 5600 SCIEX
Instrument type: LC-ESI-QTOF
Ms type: MS2
Ion mode: POSITIVE
Collision energy: 70
Fragmentation mode: CID
Ionization: ESI
Column name: Zorbax Eclipse Plus C18 2.1 mm x 150 mm, 3.5 um, Agilent
Retention time: 13.103 min
Precursor m/z: 309.1598
Precursor type: [M+H]+
m/z	relative intensity
55.0283	31
66.0525	18
77.0455	999
78.0531	21
79.0593	31
91.0591	46
92.0547	311
93.0412	14
93.0618	99
94.0459	13
94.0694	164
104.0527	93
105.0414	20
105.0589	29
106.032	14
106.0681	97
115.0564	17
116.0534	15
117.061	37
118.0669	75
120.0461	48
128.0526	36
130.0663	41
132.0455	49
133.0538	83
139.0542	10
140.051	12
144.0847	9
146.0623	34
166.0678	22
167.0755	31
168.0834	10
181.0767	77
182.0845	44
206.0844	14
