Mass spectrum: Hydrocodone; LC-ESI-QTOF; MS2; 110 V
Name: Hydrocodone
Class: Pharmaceutical
Formula: C18H21NO3
Exact mass: 299.1521
SMILES: CN1CCC23C4C1CC5=C2C(=C(C=C5)OC)OC3C(=O)CC4
InChI: InChI=1S/C18H21NO3/c1-19-8-7-18-11-4-5-13(20)17(18)22-16-14(21-2)6-3-10(15(16)18)9-12(11)19/h3,6,11-12,17H,4-5,7-9H2,1-2H3
Instrument: TripleTOF 6600 SCIEX
Instrument type: LC-ESI-QTOF
Ms type: MS2
Ion mode: POSITIVE
Collision energy: 110
Fragmentation mode: CID
Ionization: ESI
Column name: Zorbax Eclipse Plus C18 2.1 mm x 150 mm, 3.5 um, Agilent
Retention time: 5.331 min
Precursor m/z: 300.1594
Precursor type: [M+H]+
m/z	relative intensity
39.0218	35
44.0482	30
50.0139	25
51.0221	81
55.0187	11
61.0059	24
62.0141	60
63.0214	92
65.0375	73
73.0054	15
74.0135	96
75.0215	163
76.0296	89
77.0373	511
78.045	165
86.0142	30
87.0208	44
88.0298	149
89.0374	239
91.0529	52
98.0136	19
99.0224	17
100.0284	11
101.0375	153
102.0451	437
103.0536	24
113.037	255
114.0446	249
115.0529	999
125.0371	28
126.0448	411
127.0529	683
128.0608	564
129.0436	38
129.0689	10
131.0478	10
139.0527	285
140.0589	12
141.0314	16
141.0687	128
142.0396	11
150.0463	116
151.0533	267
152.0606	593
153.0684	61
155.0527	151
163.0526	74
164.0608	45
165.0677	69
169.0616	10
179.0596	12
