Mass spectrum: Hydrocodone; LC-ESI-QTOF; MS2; 150 V
Name: Hydrocodone
Class: Pharmaceutical; Transformation_product-Metabolite
Formula: C18H21NO3
Exact mass: 299.1521
SMILES: CN1CCC23C4C1CC5=C2C(=C(C=C5)OC)OC3C(=O)CC4
InChI: InChI=1S/C18H21NO3/c1-19-8-7-18-11-4-5-13(20)17(18)22-16-14(21-2)6-3-10(15(16)18)9-12(11)19/h3,6,11-12,17H,4-5,7-9H2,1-2H3
Instrument: TripleTOF 6600 SCIEX
Instrument type: LC-ESI-QTOF
Ms type: MS2
Ion mode: POSITIVE
Collision energy: 150
Fragmentation mode: CID
Ionization: ESI
Column name: Zorbax Eclipse Plus C18 2.1 mm x 150 mm, 3.5 um, Agilent
Retention time: 5.331 min
Precursor m/z: 300.1594
Precursor type: [M+H]+
m/z	relative intensity
37.0061	76
38.0142	70
39.0226	288
41.0381	10
42.0328	21
44.0482	32
49.0065	57
50.0143	424
51.022	677
52.0296	48
59.9986	78
61.0058	304
62.0144	612
63.0221	743
65.0372	160
73.0057	149
74.0138	999
75.0212	721
76.0301	375
77.0375	751
78.0455	160
83.9989	29
85.005	171
86.0134	389
87.0214	438
88.0297	204
89.0371	593
91.053	38
97.0056	24
98.0139	269
99.0206	87
100.0299	48
101.0371	122
102.0455	329
109.0065	16
110.0123	51
111.0211	38
113.0367	405
114.0456	54
115.0528	536
122.0124	27
125.037	57
126.0447	489
127.0532	206
128.0612	117
129.0434	38
137.0363	38
138.0442	27
139.0526	231
140.0484	16
149.0372	40
150.0452	351
151.0528	247
152.0586	217
155.0555	27
161.0384	27
162.045	24
163.0542	76
164.0605	16
