Mass spectrum: Oxazepam; LC-ESI-QTOF; MS2; 140 V
Name: Oxazepam
Class: Pharmaceutical
Formula: C15H11ClN2O2
Exact mass: 286.0509
SMILES: C1=CC=C(C=C1)C2=NC(C(=O)NC3=C2C=C(C=C3)Cl)O
InChI: InChI=1S/C15H11ClN2O2/c16-10-6-7-12-11(8-10)13(9-4-2-1-3-5-9)18-15(20)14(19)17-12/h1-8,15,20H,(H,17,19)
Instrument: TripleTOF 6600 SCIEX
Instrument type: LC-ESI-QTOF
Ms type: MS2
Ion mode: POSITIVE
Collision energy: 140
Fragmentation mode: CID
Ionization: ESI
Column name: Zorbax Eclipse Plus C18 2.1 mm x 150 mm, 3.5 um, Agilent
Retention time: 9.314 min
Precursor m/z: 287.0582
Precursor type: [M+H]+
m/z	relative intensity
37.0071	50
38.015	31
39.0227	71
46.9676	29
48.9837	27
49.007	166
50.0152	809
51.0229	999
52.0178	50
59.9991	11
60.983	11
61.007	89
61.9788	26
62.0147	124
63.0228	304
64.0179	42
64.0309	46
65.0263	15
65.038	91
66.0464	44
71.9991	11
72.9842	130
73.0066	191
74.0149	608
75.0106	48
75.0223	209
76.0178	38
76.0301	51
77.0383	187
78.0466	10
84.9838	31
85.0074	25
86.0138	44
87.0223	48
88.0186	25
88.0302	18
89.0377	62
90.0333	27
91.0406	27
92.0491	10
97.007	14
98.0025	19
98.0143	123
99.0103	459
100.0173	113
101.0385	13
102.0461	18
109.0069	11
110.0144	37
111.0224	19
113.0382	84
114.0336	21
115.0529	26
122.0138	44
123.0222	15
124.0293	22
125.0385	21
126.0466	42
137.0393	35
138.0453	22
139.0535	95
140.0488	76
149.0385	39
150.0459	144
151.0524	41
152.057	14
164.0493	68
165.049	21
166.0641	18
175.0408	22
177.0576	17
191.0605	13
