Mass spectrum: Hexazinone; LC-ESI-QTOF; MS2; 100 V
Name: Hexazinone
Class: Herbicide
Formula: C12H20N4O2
Exact mass: 252.1586
SMILES: CN1C(=NC(=O)N(C1=O)C2CCCCC2)N(C)C
InChI: InChI=1S/C12H20N4O2/c1-14(2)10-13-11(17)16(12(18)15(10)3)9-7-5-4-6-8-9/h9H,4-8H2,1-3H3
Instrument: TripleTOF 6600 SCIEX
Instrument type: LC-ESI-QTOF
Ms type: MS2
Ion mode: POSITIVE
Collision energy: 100
Fragmentation mode: CID
Ionization: ESI
Column name: Zorbax Eclipse Plus C18 2.1 mm x 150 mm, 3.5 um, Agilent
Retention time: 8.427 min
Precursor m/z: 253.1659
Precursor type: [M+H]+
m/z	relative intensity
30.0335	15
37.0074	52
38.0027	9
38.0144	31
39.023	182
41.0383	46
42.0334	235
44.0119	15
44.0497	112
53.0377	13
55.0289	505
55.0537	33
56.0136	12
56.0364	264
57.0442	15
58.0288	22
58.0651	58
60.9861	12
69.0085	58
69.0442	999
69.9918	108
70.0518	177
71.0599	405
83.0234	57
85.0749	73
