Mass spectrum: Lenalidomide; LC-ESI-QTOF; MS2; 50 V
Name: Lenalidomide
Class: Pharmaceutical
Formula: C13H13N3O3
Exact mass: 259.0957
SMILES: Nc1cccc2C(=O)N(Cc12)C3CCC(=O)NC3=O
InChI: InChI=1S/C13H13N3O3/c14-9-3-1-2-7-8(9)6-16(13(7)19)10-4-5-11(17)15-12(10)18/h1-3,10H,4-6,14H2,(H,15,17,18)
Instrument: TripleTOF 5600 SCIEX
Instrument type: LC-ESI-QTOF
Ms type: MS2
Ion mode: POSITIVE
Collision energy: 50
Fragmentation mode: CID
Ionization: ESI
Column name: Zorbax Eclipse Plus C18 2.1 mm x 150 mm, 3.5 um, Agilent
Retention time: 5.24 min
Precursor m/z: 260.103
Precursor type: [M+H]+
m/z	relative intensity
65.0436	33
77.0427	86
79.0573	52
84.0453	112
84.0657	26
92.0495	138
94.0672	39
104.0493	185
105.0635	59
106.0654	999
115.0523	46
116.0482	33
117.0689	46
119.0602	178
120.045	125
131.059	297
131.0881	26
132.0746	138
133.0505	46
142.0653	59
143.0709	46
144.0791	99
147.0545	224
149.0701	595
158.0813	46
159.0909	251
169.0759	72
187.0858	496
