Mass spectrum: 5,6-Dimethyl-1H-benzotriazol; LC-ESI-QTOF; MS2; 30 V
Name: 5,6-Dimethyl-1H-benzotriazol
Class: Industrial_process; Antimicrobial
Formula: C8H9N3
Exact mass: 147.0796
SMILES: Cc1cc2n[nH]nc2cc1C
InChI: InChI=1S/C8H9N3/c1-5-3-7-8(4-6(5)2)10-11-9-7/h3-4H,1-2H3,(H,9,10,11)
Instrument: TripleTOF 5600 SCIEX
Instrument type: LC-ESI-QTOF
Ms type: MS2
Ion mode: POSITIVE
Collision energy: 30
Fragmentation mode: CID
Ionization: ESI
Column name: Zorbax Eclipse Plus C18 2.1 mm x 150 mm, 3.5 um, Agilent
Retention time: 8.012 min
Precursor m/z: 148.0869
Precursor type: [M+H]+
m/z	relative intensity
53.0443	10
54.0391	13
65.0432	66
77.0425	997
78.0491	25
79.0567	30
80.0523	68
91.0567	571
92.051	37
93.071	492
94.066	37
102.0471	17
103.0552	163
104.0502	117
105.058	94
118.0653	73
119.0729	64
120.0812	146
148.0875	999
