Mass spectrum: Chlorothiazide; LC-ESI-QTOF; MS2; 90 V
Name: Chlorothiazide
Class: Pharmaceutical
Formula: C7H6ClN3O4S2
Exact mass: 294.9488
SMILES: N[S](=O)(=O)c1cc2c(NC=N[S]2(=O)=O)cc1Cl
InChI: InChI=1S/C7H6ClN3O4S2/c8-4-1-5-7(2-6(4)16(9,12)13)17(14,15)11-3-10-5/h1-3H,(H,10,11)(H2,9,12,13)
Instrument: TripleTOF 5600 SCIEX
Instrument type: LC-ESI-QTOF
Ms type: MS2
Ion mode: POSITIVE
Collision energy: 90
Fragmentation mode: CID
Ionization: ESI
Column name: Zorbax Eclipse Plus C18 2.1 mm x 150 mm, 3.5 um, Agilent
Retention time: 5.43 min
Precursor m/z: 295.9561
Precursor type: [M+H]+
m/z	relative intensity
52.0237	312
62.0304	374
72.9865	561
76.0212	499
89.0271	624
90.0345	999
96.9836	686
106.9833	499
117.0434	874
