Mass spectrum: Dexamethasone; LC-ESI-QTOF; MS2; 40 V
Name: Dexamethasone
Class: Pharmaceutical
Formula: C22H29FO5
Exact mass: 392.1999
SMILES: C[C@@H]1C[C@H]2[C@@H]3CCC4=CC(=O)C=C[C@@]4([C@]3([C@H](C[C@@]2([C@]1(C(=O)CO)O)C)O)F)C
InChI: InChI=1S/C22H29FO5/c1-12-8-16-15-5-4-13-9-14(25)6-7-19(13,2)21(15,23)17(26)10-20(16,3)22(12,28)18(27)11-24/h6-7,9,12,15-17,24,26,28H,4-5,8,10-11H2,1-3H3/t12-,15+,16+,17+,19+,20+,21+,22+/m1/s1
Instrument: TripleTOF 5600 SCIEX
Instrument type: LC-ESI-QTOF
Ms type: MS2
Ion mode: POSITIVE
Collision energy: 40
Fragmentation mode: CID
Ionization: ESI
Column name: Zorbax Eclipse Plus C18 2.1 mm x 150 mm, 3.5 um, Agilent
Retention time: 9.089 min
Precursor m/z: 393.2072
Precursor type: [M+H]+
m/z	relative intensity
43.0309	33
67.0607	33
69.0394	17
69.0754	24
71.02	11
71.0544	17
77.0429	46
79.059	52
81.075	33
83.0527	17
85.0684	13
91.0582	156
93.0743	114
95.0529	39
95.0887	119
97.0669	30
99.0476	11
103.0574	13
105.0725	154
107.0503	19
107.0882	251
109.0678	46
109.1035	66
111.0828	26
115.0567	28
115.0766	17
116.0651	22
117.0579	11
117.0714	50
119.0876	220
121.0669	352
121.1044	77
123.0831	63
125.0619	72
125.0985	22
127.0616	11
128.0639	61
129.0719	48
131.0502	19
131.0874	163
132.0586	37
133.0676	77
133.1025	88
135.0822	271
137.063	24
137.0979	74
141.0698	52
142.0791	33
143.086	167
144.0609	28
145.0653	136
145.1016	83
146.0757	28
147.0815	999
149.0975	143
151.0778	44
151.1099	17
152.0657	13
153.0728	24
153.0911	59
154.0777	11
155.0889	72
156.0935	11
157.0647	22
157.1041	57
158.0746	66
159.0822	346
159.116	11
160.0949	11
161.0587	15
161.0971	200
163.0774	37
163.1107	17
165.071	55
165.09	33
166.0735	13
167.084	74
167.1085	13
168.0578	15
168.0938	13
169.0647	55
169.1026	59
170.0741	28
171.0808	531
171.1191	17
172.0861	26
173.0962	348
175.0754	11
175.1108	35
177.0908	116
178.0779	37
179.0864	92
180.0927	22
181.0638	39
181.1022	52
182.0721	30
182.1108	13
183.0811	83
183.107	13
183.1193	22
184.0881	22
185.0581	15
185.0959	288
187.0763	116
187.1098	130
189.0703	26
189.0852	37
189.1238	11
190.0752	24
191.0852	30
192.0947	55
193.101	81
194.0694	22
194.1083	52
195.0815	90
195.1124	72
196.0896	88
197.0967	229
197.1343	17
198.1027	33
199.0779	19
199.1116	88
201.0866	22
201.1264	37
202.0776	17
203.0875	33
203.1065	19
204.0922	116
205.1024	72
206.1057	50
207.0796	46
207.1176	50
208.0876	130
209.0953	235
209.1321	55
210.1033	108
211.0733	11
211.1101	229
212.1167	37
213.089	33
213.1265	167
215.0853	19
215.1044	92
216.0912	19
217.1012	35
218.1111	26
219.0827	33
219.1166	125
220.0898	52
220.1251	19
221.0965	202
221.1227	17
221.136	35
222.1041	357
223.0698	13
223.1118	363
224.119	105
225.0933	28
225.1248	169
226.1035	11
227.0834	13
227.1054	39
227.1432	123
228.0922	11
229.1032	48
230.1089	33
231.0826	22
231.1229	37
232.0913	19
232.1228	15
233.0944	66
233.1291	28
234.1018	70
234.1372	17
235.1104	339
235.144	15
235.153	13
236.1223	55
237.0837	13
237.126	915
238.1018	26
239.1062	61
239.141	326
240.1067	13
241.12	97
242.1112	15
243.1143	52
244.0833	13
244.1234	22
245.0965	57
245.1284	30
246.1031	59
246.1408	19
247.1131	114
247.1411	15
248.1194	165
249.1257	194
249.1611	13
249.1737	11
250.1347	28
251.1073	35
251.142	108
252.148	35
253.1209	156
253.153	70
255.1401	77
256.1254	15
257.129	30
258.0972	28
258.1413	15
259.112	55
259.1406	24
259.1607	13
260.1158	52
261.1253	200
261.1659	35
262.1345	163
263.1065	11
263.1417	401
264.1149	13
264.1492	44
265.1072	11
265.1227	11
265.1541	68
266.167	11
267.136	83
267.1716	50
269.1184	11
271.1137	55
271.1361	11
272.1207	44
273.1134	15
273.1287	35
273.1617	17
274.1327	70
275.1384	141
276.1515	132
277.1237	46
277.1578	302
278.1638	156
279.1324	17
279.1719	489
281.1149	11
281.152	28
281.1795	22
283.1564	13
285.1253	19
285.142	13
286.1347	99
289.1157	15
289.1567	183
290.1359	22
291.1371	13
291.1715	304
293.1457	13
293.1612	26
295.1251	13
295.1673	74
296.1805	17
297.1788	63
301.1558	196
304.1426	26
306.164	17
307.1683	149
309.1836	138
311.1608	26
319.1682	277
325.1742	41
327.1918	28
337.1752	288
355.1883	324
373.2017	15
