Mass spectrum: Opipramol; LC-ESI-QTOF; MS2; 10 V
Name: Opipramol
Class: Pharmaceutical
Formula: C23H29N3O
Exact mass: 363.2311
SMILES: OCCN1CCN(CCCN2c3ccccc3C=Cc4ccccc24)CC1
InChI: InChI=1S/C23H29N3O/c27-19-18-25-16-14-24(15-17-25)12-5-13-26-22-8-3-1-6-20(22)10-11-21-7-2-4-9-23(21)26/h1-4,6-11,27H,5,12-19H2
Instrument: TripleTOF 5600 SCIEX
Instrument type: LC-ESI-QTOF
Ms type: MS2
Ion mode: POSITIVE
Collision energy: 10
Fragmentation mode: CID
Ionization: ESI
Column name: Zorbax Eclipse Plus C18 2.1 mm x 150 mm, 3.5 um, Agilent
Retention time: 7.242 min
Precursor m/z: 364.2383
Precursor type: [M+H]+
m/z	relative intensity
171.1484	14
364.2374	999
