Mass spectrum: N,N-Dimethyldecanamide; LC-ESI-QTOF; MS2; 130 V
Name: N,N-Dimethyldecanamide
Class: Industrial_process
Formula: C12H25NO
Exact mass: 199.1936
SMILES: CCCCCCCCCC(=O)N(C)C
InChI: InChI=1S/C12H25NO/c1-4-5-6-7-8-9-10-11-12(14)13(2)3/h4-11H2,1-3H3
Instrument: TripleTOF 6600 SCIEX
Instrument type: LC-ESI-QTOF
Ms type: MS2
Ion mode: POSITIVE
Collision energy: 130
Fragmentation mode: CID
Ionization: ESI
Column name: Zorbax Eclipse Plus C18 2.1 mm x 150 mm, 3.5 um, Agilent
Retention time: 13.577 min
Precursor m/z: 200.2009
Precursor type: [M+H]+
m/z	relative intensity
30.0333	62
35.9988	45
37.0068	224
38.0033	66
38.0141	212
39.0224	611
41.038	49
42.033	104
43.0171	249
43.0407	24
44.0127	20
44.0491	999
46.0636	24
52.0058	16
53.0125	41
58.0275	70
