Mass spectrum: Cocaine; LC-ESI-QTOF; MS2; 140 V
Name: Cocaine
Class: Pharmaceutical
Formula: C17H21NO4
Exact mass: 303.1471
SMILES: CN1C2CCC1C(C(C2)OC(=O)C3=CC=CC=C3)C(=O)OC
InChI: InChI=1S/C17H21NO4/c1-18-12-8-9-13(18)15(17(20)21-2)14(10-12)22-16(19)11-6-4-3-5-7-11/h3-7,12-15H,8-10H2,1-2H3
Instrument: TripleTOF 6600 SCIEX
Instrument type: LC-ESI-QTOF
Ms type: MS2
Ion mode: POSITIVE
Collision energy: 140
Fragmentation mode: CID
Ionization: ESI
Column name: Zorbax Eclipse Plus C18 2.1 mm x 150 mm, 3.5 um, Agilent
Retention time: 6.407 min
Precursor m/z: 304.1543
Precursor type: [M+H]+
m/z	relative intensity
39.0235	156
49.0073	171
50.0153	483
51.0234	999
65.039	93
67.0418	156
77.0386	296
