Mass spectrum: Tiapride; LC-ESI-QTOF; MS2; 150 V
Name: Tiapride
Class: Pharmaceutical
Formula: C15H24N2O4S
Exact mass: 328.1457
SMILES: CCN(CC)CCNC(=O)C1=C(C=CC(=C1)S(=O)(=O)C)OC
InChI: InChI=1S/C15H24N2O4S/c1-5-17(6-2)10-9-16-15(18)13-11-12(22(4,19)20)7-8-14(13)21-3/h7-8,11H,5-6,9-10H2,1-4H3,(H,16,18)
Instrument: TripleTOF 5600 SCIEX
Instrument type: LC-ESI-QTOF
Ms type: MS2
Ion mode: POSITIVE
Collision energy: 150
Fragmentation mode: CID
Ionization: ESI
Column name: Zorbax Eclipse Plus C18 2.1 mm x 150 mm, 3.5 um, Agilent
Retention time: 4.856 min
Precursor m/z: 329.153
Precursor type: [M+H]+
m/z	relative intensity
44.0634	120
52.0403	204
53.0126	108
56.0576	60
58.0716	96
65.0463	120
66.0521	60
68.9867	72
73.0126	84
74.0209	794
75.0271	433
76.0358	999
77.0433	950
78.0494	204
79.0224	96
79.045	84
89.0421	108
90.0349	48
91.02	192
91.0564	96
104.05	108
