Mass spectrum: Clonidine; LC-ESI-QTOF; MS2; 150 V
Name: Clonidine
Class: Pharmaceutical
Formula: C9H9Cl2N3
Exact mass: 229.0174
SMILES: C1CN=C(N1)NC2=C(C=CC=C2Cl)Cl
InChI: InChI=1S/C9H9Cl2N3/c10-6-2-1-3-7(11)8(6)14-9-12-4-5-13-9/h1-3H,4-5H2,(H2,12,13,14)
Instrument: TripleTOF 6600 SCIEX
Instrument type: LC-ESI-QTOF
Ms type: MS2
Ion mode: POSITIVE
Collision energy: 150
Fragmentation mode: CID
Ionization: ESI
Column name: Zorbax Eclipse Plus C18 2.1 mm x 150 mm, 3.5 um, Agilent
Retention time: 5.408 min
Precursor m/z: 230.0246
Precursor type: [M+H]+
m/z	relative intensity
37.007	222
38.015	174
39.0223	63
42.0214	63
42.0334	111
43.0285	111
46.9676	348
48.9826	158
49.007	206
50.0142	428
51.0226	158
59.9987	126
61.0067	634
62.0153	570
63.0098	95
63.0216	237
64.0181	79
71.9753	63
72.9831	206
73.0064	570
74.0142	999
75.0101	126
75.0203	95
82.943	79
83.9753	95
99.0085	63
