Mass spectrum: Sulfadimethoxine; LC-ESI-QTOF; MS2; 40 V
Name: Sulfadimethoxine
Class: Pharmaceutical
Formula: C12H14N4O4S
Exact mass: 310.0736
SMILES: COC1=NC(=NC(=C1)NS(=O)(=O)C2=CC=C(C=C2)N)OC
InChI: InChI=1S/C12H14N4O4S/c1-19-11-7-10(14-12(15-11)20-2)16-21(17,18)9-5-3-8(13)4-6-9/h3-7H,13H2,1-2H3,(H,14,15,16)
Instrument: TripleTOF 5600 SCIEX
Instrument type: LC-ESI-QTOF
Ms type: MS2
Ion mode: POSITIVE
Collision energy: 40
Fragmentation mode: CID
Ionization: ESI
Column name: Zorbax Eclipse Plus C18 2.1 mm x 150 mm, 3.5 um, Agilent
Retention time: 8.09 min
Precursor m/z: 311.0809
Precursor type: [M+H]+
m/z	relative intensity
65.0387	124
67.0294	23
72.0441	10
80.0495	43
82.0286	15
89.0713	11
92.0498	843
93.0574	24
99.0555	30
108.0448	837
124.0501	24
125.0584	49
126.0659	26
127.0501	79
139.0385	17
140.0453	14
141.0535	97
154.0614	196
155.0687	62
156.0103	53
156.0771	999
172.0511	10
172.0752	11
173.0585	231
201.0761	12
218.0223	61
229.0716	14
230.0791	78
245.1032	65
311.0818	11
