Mass spectrum: 4-(Dimethylamino)azobenzene; LC-ESI-QTOF; MS2; 130 V
Name: 4-(Dimethylamino)azobenzene
Formula: C14H15N3
Exact mass: 225.1266
SMILES: CN(C)C1=CC=C(C=C1)N=NC2=CC=CC=C2
InChI: InChI=1S/C14H15N3/c1-17(2)14-10-8-13(9-11-14)16-15-12-6-4-3-5-7-12/h3-11H,1-2H3
Instrument: TripleTOF 6600 SCIEX
Instrument type: LC-ESI-QTOF
Ms type: MS2
Ion mode: POSITIVE
Collision energy: 130
Fragmentation mode: CID
Ionization: ESI
Column name: Zorbax Eclipse Plus C18 2.1 mm x 150 mm, 3.5 um, Agilent
Retention time: 15.513 min
Precursor m/z: 226.1339
Precursor type: [M+H]+
m/z	relative intensity
35.9986	18
37.0067	110
38.0143	84
39.0225	227
40.0173	11
41.0252	16
42.033	28
49.0065	141
50.0145	999
51.0222	895
52.0172	52
61.0061	38
62.0139	72
63.0216	164
64.0168	34
64.0287	15
65.0374	30
67.04	10
73.0063	14
74.0133	82
75.009	10
75.0217	15
76.0164	21
77.037	154
78.033	10
91.0406	11
104.0484	10
