Mass spectrum: Tebuconazole; LC-ESI-QTOF; MS2; 80 V
Name: Tebuconazole
Class: Fungicide
Formula: C16H22ClN3O
Exact mass: 307.1451
SMILES: CC(C)(C)C(O)(CCc1ccc(Cl)cc1)Cn2cncn2
InChI: InChI=1S/C16H22ClN3O/c1-15(2,3)16(21,10-20-12-18-11-19-20)9-8-13-4-6-14(17)7-5-13/h4-7,11-12,21H,8-10H2,1-3H3
Instrument: TripleTOF 5600 SCIEX
Instrument type: LC-ESI-QTOF
Ms type: MS2
Ion mode: POSITIVE
Collision energy: 80
Fragmentation mode: CID
Ionization: ESI
Column name: Zorbax Eclipse Plus C18 2.1 mm x 150 mm, 3.5 um, Agilent
Retention time: 12.72 min
Precursor m/z: 308.1524
Precursor type: [M+H]+
m/z	relative intensity
43.0395	116
55.0594	13
57.0763	19
59.0548	56
65.043	15
70.0458	999
72.9875	25
77.0421	47
89.0417	294
90.0485	91
99.0014	154
102.0471	12
103.0545	28
115.0555	310
116.0627	134
125.0165	841
128.0621	33
129.0702	38
