Mass spectrum: Chloroquine; LC-ESI-QTOF; MS2; 150 V
Name: Chloroquine
Class: Pharmaceutical
Formula: C18H26ClN3
Exact mass: 319.1815
SMILES: CCN(CC)CCCC(C)NC1=C2C=CC(=CC2=NC=C1)Cl
InChI: InChI=1S/C18H26ClN3/c1-4-22(5-2)12-6-7-14(3)21-17-10-11-20-18-13-15(19)8-9-16(17)18/h8-11,13-14H,4-7,12H2,1-3H3,(H,20,21)
Instrument: TripleTOF 6600 SCIEX
Instrument type: LC-ESI-QTOF
Ms type: MS2
Ion mode: POSITIVE
Collision energy: 150
Fragmentation mode: CID
Ionization: ESI
Column name: Zorbax Eclipse Plus C18 2.1 mm x 150 mm, 3.5 um, Agilent
Retention time: 4.84 min
Precursor m/z: 320.1888
Precursor type: [M+H]+
m/z	relative intensity
37.0073	86
38.015	60
39.0227	275
42.0337	43
50.0153	146
51.0229	232
52.0183	43
61.0071	129
62.0141	172
63.0225	628
65.0382	34
72.984	68
73.0066	77
74.0148	999
75.0225	852
76.0172	68
76.0303	86
77.0383	198
89.0382	732
90.0328	43
90.0454	77
98.0151	370
99.0097	120
99.0227	103
100.0175	129
101.038	198
102.045	68
113.0388	51
114.0337	34
116.0484	68
117.0443	51
127.0411	68
128.0488	146
136.0097	60
140.0486	77
167.0586	51
