Mass spectrum: Pethoxamid; LC-ESI-QTOF; MS2; 100 V
Name: Pethoxamid
Class: Herbicide
Formula: C16H22ClNO2
Exact mass: 295.1339
SMILES: CCOCCN(C(=O)CCl)C(=C(C)C)C1=CC=CC=C1
InChI: InChI=1S/C16H22ClNO2/c1-4-20-11-10-18(15(19)12-17)16(13(2)3)14-8-6-5-7-9-14/h5-9H,4,10-12H2,1-3H3
Instrument: TripleTOF 6600 SCIEX
Instrument type: LC-ESI-QTOF
Ms type: MS2
Ion mode: POSITIVE
Collision energy: 100
Fragmentation mode: CID
Ionization: ESI
Column name: Zorbax Eclipse Plus C18 2.1 mm x 150 mm, 3.5 um, Agilent
Retention time: 12.961 min
Precursor m/z: 296.1412
Precursor type: [M+H]+
m/z	relative intensity
37.0068	19
38.0147	13
39.0229	128
41.0382	29
45.0337	13
50.0145	13
51.0225	56
61.0064	11
62.0146	26
63.0223	56
65.0383	670
77.0379	142
78.0457	14
89.0378	116
91.0537	972
102.0451	29
103.0533	19
115.0533	999
116.0604	35
126.0444	16
127.0529	57
128.0609	150
130.0632	13
