Mass spectrum: Acid Red 1; LC-ESI-QTOF; MS2; 80 V
Name: Acid Red 1
Class: Industrial_process; Personal_care_product; Pigment; Food_additive
Formula: C18H15N3O8S2
Exact mass: 465.0301
SMILES: CC(NC1=C2C(C=C(S(=O)(O)=O)/C(C2=O)=N\NC3=CC=CC=C3)=CC(S(=O)(O)=O)=C1)=O
InChI: InChI=1S/C18H15N3O8S2/c1-10(22)19-14-9-13(30(24,25)26)7-11-8-15(31(27,28)29)17(18(23)16(11)14)21-20-12-5-3-2-4-6-12/h2-9,20H,1H3,(H,19,22)(H,24,25,26)(H,27,28,29)/b21-17+
Instrument: TripleTOF 5600 SCIEX
Instrument type: LC-ESI-QTOF
Ms type: MS2
Ion mode: NEGATIVE
Collision energy: 80
Fragmentation mode: CID
Ionization: ESI
Column name: Zorbax Eclipse Plus C18 2.1 mm x 150 mm, 3.5 um, Agilent
Retention time: 7.21 min
Precursor m/z: 464.0228
Precursor type: [M-H]-
m/z	relative intensity
79.9567	393
80.9668	90
116.0478	60
128.0578	60
129.0354	151
143.0248	302
144.0434	121
156.0439	211
157.0289	181
157.0457	423
158.0282	90
159.0604	60
160.0397	211
172.0401	121
173.0477	90
183.0521	151
184.0425	181
185.0342	999
196.0084	60
198.0569	302
200.0353	696
209.0098	121
216.0309	60
222.0065	60
223.9996	60
227.0452	121
237.0107	121
262.0199	181
263.022	60
263.9953	544
278.0164	60
343.9541	121
