Mass spectrum: 2,4,6-Triiodoaniline; LC-ESI-QTOF; MS2; 90 V
Name: 2,4,6-Triiodoaniline
Class: Pharmaceutical; Transformation_product
Formula: C6H4I3N
Exact mass: 470.7478
SMILES: Nc1c(I)cc(I)cc1I
InChI: InChI=1S/C6H4I3N/c7-3-1-4(8)6(10)5(9)2-3/h1-2H,10H2
Instrument: TripleTOF 5600 SCIEX
Instrument type: LC-ESI-QTOF
Ms type: MS2
Ion mode: POSITIVE
Collision energy: 90
Fragmentation mode: CID
Ionization: ESI
Column name: Zorbax Eclipse Plus C18 2.1 mm x 150 mm, 3.5 um, Agilent
Retention time: 16.077 min
Precursor m/z: 471.7551
Precursor type: [M+H]+
m/z	relative intensity
64.0349	253
65.03	37
74.0196	46
89.0278	42
90.0355	473
91.0434	999
188.9205	56
190.9361	107
200.9196	150
215.9303	42
216.9379	79
217.9457	361
