Mass spectrum: Phenylephrine; LC-ESI-QTOF; MS2; 40 V
Name: Phenylephrine
Class: Pharmaceutical
Formula: C9H13NO2
Exact mass: 167.0946
SMILES: CNC[C@@H](C1=CC(=CC=C1)O)O
InChI: InChI=1S/C9H13NO2/c1-10-6-9(12)7-3-2-4-8(11)5-7/h2-5,9-12H,6H2,1H3/t9-/m0/s1
Instrument: TripleTOF 5600 SCIEX
Instrument type: LC-ESI-QTOF
Ms type: MS2
Ion mode: POSITIVE
Collision energy: 40
Fragmentation mode: CID
Ionization: ESI
Column name: Zorbax Eclipse Plus C18 2.1 mm x 150 mm, 3.5 um, Agilent
Retention time: 2.73 min
Precursor m/z: 168.1024
Precursor type: [M+H]+
m/z	relative intensity
65.0421	399
77.0408	473
91.0559	999
107.0494	848
134.0616	482
135.0681	685
150.0925	947
