Mass spectrum: Chloromethyltriphenylphosphonium; LC-ESI-QTOF; MS2; 150 V
Name: Chloromethyltriphenylphosphonium
Class: Industrial_process
Formula: [C19H17ClP]+
Exact mass: 311.0751
SMILES: C1=CC=C(C=C1)[P+](CCl)(C2=CC=CC=C2)C3=CC=CC=C3
InChI: InChI=1S/C19H17ClP/c20-16-21(17-10-4-1-5-11-17,18-12-6-2-7-13-18)19-14-8-3-9-15-19/h1-15H,16H2/q+1
Instrument: TripleTOF 5600 SCIEX
Instrument type: LC-ESI-QTOF
Ms type: MS2
Ion mode: POSITIVE
Collision energy: 150
Fragmentation mode: CID
Ionization: ESI
Column name: Zorbax Eclipse Plus C18 2.1 mm x 150 mm, 3.5 um, Agilent
Retention time: 7.338 min
Precursor m/z: 311.0751
Precursor type: [M]+
m/z	relative intensity
39.0233	95
50.0153	104
51.0231	151
56.9886	160
63.0227	348
65.0383	128
74.014	193
76.0295	158
77.0375	126
78.9718	115
79.9796	359
80.9878	601
86.0127	75
87.0208	166
89.0366	417
91.979	81
98.0138	137
102.0447	180
103.9791	146
104.9871	84
107.003	999
113.0373	158
115.0527	243
125.0366	83
126.0454	404
131.0032	137
139.0539	153
150.0453	511
151.0533	590
152.0609	319
155.0041	182
156.0118	130
157.019	193
179.0034	166
180.0113	168
181.0195	384
