Mass spectrum: Solway Green G; LC-ESI-QTOF; MS2; 40 V
Name: Solway Green G
Formula: C28H22N2O8S2
Exact mass: 578.0818
SMILES: CC1=CC(=C(C=C1)NC2=C3C(=C(C=C2)NC4=C(C=C(C=C4)C)S(=O)(=O)O)C(=O)C5=CC=CC=C5C3=O)S(=O)(=O)O
InChI: InChI=1S/C28H22N2O8S2/c1-15-7-9-19(23(13-15)39(33,34)35)29-21-11-12-22(30-20-10-8-16(2)14-24(20)40(36,37)38)26-25(21)27(31)17-5-3-4-6-18(17)28(26)32/h3-14,29-30H,1-2H3,(H,33,34,35)(H,36,37,38)
Instrument: TripleTOF 6600 SCIEX
Instrument type: LC-ESI-QTOF
Ms type: MS2
Ion mode: NEGATIVE
Collision energy: 40
Fragmentation mode: CID
Ionization: ESI
Column name: Zorbax Eclipse Plus C18 2.1 mm x 150 mm, 3.5 um, Agilent
Retention time: 10.62 min
Precursor m/z: 288.0336
Precursor type: [M-2H]2-
m/z	relative intensity
79.9568	999
80.9643	78
121.0521	9
132.0446	12
184.0058	28
185.0132	26
186.0229	30
282.0872	8
288.0315	27
296.0939	10
297.077	16
297.0997	7
298.0876	26
299.0907	16
310.0844	19
311.1147	7
324.0897	12
385.1355	10
387.1433	8
397.1308	14
413.1223	14
414.1337	22
415.143	36
467.1024	11
