Mass spectrum: Paroxetine; LC-ESI-QTOF; MS2; 140 V
Name: Paroxetine
Class: Pharmaceutical
Formula: C19H20FNO3
Exact mass: 329.1427
SMILES: C1CNCC(C1C2=CC=C(C=C2)F)COC3=CC4=C(C=C3)OCO4
InChI: InChI=1S/C19H20FNO3/c20-15-3-1-13(2-4-15)17-7-8-21-10-14(17)11-22-16-5-6-18-19(9-16)24-12-23-18/h1-6,9,14,17,21H,7-8,10-12H2
Instrument: TripleTOF 5600 SCIEX
Instrument type: LC-ESI-QTOF
Ms type: MS2
Ion mode: POSITIVE
Collision energy: 140
Fragmentation mode: CID
Ionization: ESI
Column name: Zorbax Eclipse Plus C18 2.1 mm x 150 mm, 3.5 um, Agilent
Retention time: 7.812 min
Precursor m/z: 330.15
Precursor type: [M+H]+
m/z	relative intensity
37.0076	110
38.015	61
39.0233	557
41.039	343
42.034	91
44.0498	245
50.0153	30
51.0229	116
53.0025	36
56.0496	36
57.0139	251
59.0297	49
61.0066	49
62.0154	55
63.0232	196
65.0382	98
68.0495	61
70.0226	42
70.0657	232
73.0079	49
74.0155	196
75.0233	269
77.0385	183
81.0133	73
82.0646	24
83.0293	999
87.0248	36
89.0382	269
95.0284	61
96.0368	73
98.0154	30
99.0232	49
100.0311	30
101.0391	61
102.0449	49
107.0289	196
109.0444	698
115.0537	441
120.0362	85
125.0383	67
126.0447	42
127.0545	42
128.0622	24
133.0451	502
145.0419	49
146.0522	177
