Mass spectrum: Iotalamic acid; LC-ESI-QTOF; MS2; 40 V
Name: Iotalamic acid
Class: Pharmaceutical
Formula: C11H9I3N2O4
Exact mass: 613.7697
SMILES: CNC(c1c(I)c(C(O)=O)c(I)c(NC(C)=O)c1I)=O
InChI: InChI=1S/C11H9I3N2O4/c1-3(17)16-9-7(13)4(10(18)15-2)6(12)5(8(9)14)11(19)20/h1-2H3,(H,15,18)(H,16,17)(H,19,20)
Instrument: TripleTOF 5600 SCIEX
Instrument type: LC-ESI-QTOF
Ms type: MS2
Ion mode: POSITIVE
Collision energy: 40
Fragmentation mode: CID
Ionization: ESI
Column name: Zorbax Eclipse Plus C18 2.1 mm x 150 mm, 3.5 um, Agilent
Retention time: 4.565 min
Precursor m/z: 614.7769
Precursor type: [M+H]+
m/z	relative intensity
177.0422	340
187.0533	31
233.0594	26
261.9379	21
273.9329	37
284.9335	31
289.9323	69
300.9494	148
301.9319	425
302.9377	63
314.9666	42
318.9513	42
318.9608	53
329.9245	26
360.9698	999
384.8509	47
411.8396	53
415.8278	53
428.839	409
430.8593	37
441.8627	37
445.8609	154
455.8233	494
456.8273	26
468.8577	356
486.8645	302
487.8747	47
583.7214	37
583.74	69
