Mass spectrum: Propranolol; LC-ESI-QTOF; MS2; 100 V
Name: Propranolol
Class: Pharmaceutical
Formula: C16H21NO2
Exact mass: 259.1572
SMILES: CC(C)NCC(O)COc1cccc2ccccc12
InChI: InChI=1S/C16H21NO2/c1-12(2)17-10-14(18)11-19-16-9-5-7-13-6-3-4-8-15(13)16/h3-9,12,14,17-18H,10-11H2,1-2H3
Instrument: TripleTOF 5600 SCIEX
Instrument type: LC-ESI-QTOF
Ms type: MS2
Ion mode: POSITIVE
Collision energy: 100
Fragmentation mode: CID
Ionization: ESI
Column name: Zorbax Eclipse Plus C18 2.1 mm x 150 mm, 3.5 um, Agilent
Retention time: 7.356 min
Precursor m/z: 260.1645
Precursor type: [M+H]+
m/z	relative intensity
42.042	24
44.0585	27
56.0549	189
58.0706	150
65.0427	118
72.0849	31
73.0098	12
74.0183	78
74.0641	29
75.0261	236
76.0334	66
77.0417	999
78.0494	167
84.0819	14
86.0158	14
87.0235	31
88.0319	9
89.0402	236
91.0555	120
91.0729	9
98.0155	17
99.0229	14
101.0388	162
102.0474	339
113.0366	29
114.0453	19
115.0546	649
116.0649	12
125.0394	41
126.0468	433
126.0675	14
126.0807	9
127.0545	784
128.0623	907
129.0446	27
138.0474	17
139.0545	169
150.0473	68
151.0541	123
152.0616	290
153.0688	54
155.0605	22
162.0491	17
163.0541	105
164.0618	29
165.0713	24
