Mass spectrum: Repaglinide; LC-ESI-QTOF; MS2; 100 V
Name: Repaglinide
Class: Pharmaceutical
Formula: C27H36N2O4
Exact mass: 452.2675
SMILES: CCOc1cc(CC(=O)N[C@@H](CC(C)C)c2ccccc2N3CCCCC3)ccc1C(O)=O
InChI: InChI=1S/C27H36N2O4/c1-4-33-25-17-20(12-13-22(25)27(31)32)18-26(30)28-23(16-19(2)3)21-10-6-7-11-24(21)29-14-8-5-9-15-29/h6-7,10-13,17,19,23H,4-5,8-9,14-16,18H2,1-3H3,(H,28,30)(H,31,32)/t23-/m0/s1
Instrument: TripleTOF 5600 SCIEX
Instrument type: LC-ESI-QTOF
Ms type: MS2
Ion mode: POSITIVE
Collision energy: 100
Fragmentation mode: CID
Ionization: ESI
Column name: Zorbax Eclipse Plus C18 2.1 mm x 150 mm, 3.5 um, Agilent
Retention time: 10.348 min
Precursor m/z: 453.2748
Precursor type: [M+H]+
m/z	relative intensity
44.0571	22
55.0586	11
65.0427	46
77.0417	86
79.0564	32
86.0983	38
89.0404	21
90.0481	36
91.0564	382
103.0544	44
104.0498	17
105.0335	44
105.0699	33
106.0656	160
115.0543	50
116.0575	13
117.0584	460
118.0655	419
120.0809	53
127.0535	16
128.0535	34
129.0692	20
130.0658	999
131.0732	278
132.0808	151
143.0729	102
144.0812	630
145.0882	46
146.0965	156
156.0808	18
157.0882	25
158.0968	303
159.104	35
160.1129	19
162.1278	18
170.0964	23
171.1041	11
172.1127	480
174.1284	68
184.1114	11
186.1281	78
230.1901	10
