Mass spectrum: 2-Hydroxy-n-methyl-n-phenylpropanamide; LC-ESI-QTOF; MS2; 150 V
Name: 2-Hydroxy-n-methyl-n-phenylpropanamide
Formula: C10H13NO2
Exact mass: 179.0946
SMILES: CC(C(=O)N(C)C1=CC=CC=C1)O
InChI: InChI=1S/C10H13NO2/c1-8(12)10(13)11(2)9-6-4-3-5-7-9/h3-8,12H,1-2H3
Instrument: TripleTOF 5600 SCIEX
Instrument type: LC-ESI-QTOF
Ms type: MS2
Ion mode: POSITIVE
Collision energy: 150
Fragmentation mode: CID
Ionization: ESI
Column name: Zorbax Eclipse Plus C18 2.1 mm x 150 mm, 3.5 um, Agilent
Retention time: 6.763 min
Precursor m/z: 180.1019
Precursor type: [M+H]+
m/z	relative intensity
35.9991	33
37.0071	106
38.0153	53
39.0228	73
49.0073	399
50.0152	999
51.0227	279
61.0079	53
62.0147	66
74.0137	59
