Mass spectrum: Methyl-N-(3-amino-2-methylphenyl)carbamate; LC-ESI-QTOF; MS2; 100 V
Name: Methyl-N-(3-amino-2-methylphenyl)carbamate
Formula: C9H12N2O2
Exact mass: 180.0899
SMILES: COC(=O)NC1=CC=CC(=C1C)N
InChI: InChI=1S/C9H12N2O2/c1-6-7(10)4-3-5-8(6)11-9(12)13-2/h3-5H,10H2,1-2H3,(H,11,12)
Instrument: TripleTOF 5600 SCIEX
Instrument type: LC-ESI-QTOF
Ms type: MS2
Ion mode: POSITIVE
Collision energy: 100
Fragmentation mode: CID
Ionization: ESI
Column name: Zorbax Eclipse Plus C18 2.1 mm x 150 mm, 3.5 um, Agilent
Retention time: 4.424 min
Precursor m/z: 181.0972
Precursor type: [M+H]+
m/z	relative intensity
50.0257	999
52.0354	285
54.0425	142
62.0226	171
63.0311	228
77.0439	827
78.0401	199
80.0555	228
105.049	171
