Mass spectrum: Chloramphenicol; LC-ESI-QTOF; MS2; 120 V
Name: Chloramphenicol
Class: Pharmaceutical
Formula: C11H12Cl2N2O5
Exact mass: 322.0123
SMILES: C1=CC(=CC=C1C(C(CO)NC(=O)C(Cl)Cl)O)[N+](=O)[O-]
InChI: InChI=1S/C11H12Cl2N2O5/c12-10(13)11(18)14-8(5-16)9(17)6-1-3-7(4-2-6)15(19)20/h1-4,8-10,16-17H,5H2,(H,14,18)
Instrument: TripleTOF 5600 SCIEX
Instrument type: LC-ESI-QTOF
Ms type: MS2
Ion mode: NEGATIVE
Collision energy: 120
Fragmentation mode: CID
Ionization: ESI
Column name: Zorbax Eclipse Plus C18 2.1 mm x 150 mm, 3.5 um, Agilent
Retention time: 7.593 min
Precursor m/z: 321.0051
Precursor type: [M-H]-
m/z	relative intensity
34.9688	227
41.9981	105
45.9931	999
82.9444	90
92.026	363
121.0293	136
