Mass spectrum: Ipconazole; LC-ESI-QTOF; MS2; 140 V
Name: Ipconazole
Class: Fungicide
Formula: C18H24ClN3O
Exact mass: 333.1608
SMILES: CC(C)C1CCC(C1(CN2C=NC=N2)O)CC3=CC=C(C=C3)Cl
InChI: InChI=1S/C18H24ClN3O/c1-13(2)17-8-5-15(9-14-3-6-16(19)7-4-14)18(17,23)10-22-12-20-11-21-22/h3-4,6-7,11-13,15,17,23H,5,8-10H2,1-2H3
Instrument: TripleTOF 6600 SCIEX
Instrument type: LC-ESI-QTOF
Ms type: MS2
Ion mode: POSITIVE
Collision energy: 140
Fragmentation mode: CID
Ionization: ESI
Column name: Zorbax Eclipse Plus C18 2.1 mm x 150 mm, 3.5 um, Agilent
Retention time: 13.862 min
Precursor m/z: 334.1681
Precursor type: [M+H]+
m/z	relative intensity
37.0069	30
39.0229	120
42.0206	72
43.029	914
48.9831	54
50.015	48
51.0224	78
61.0064	60
62.0141	156
63.0225	427
64.0302	36
65.0379	36
70.0394	999
72.9831	234
74.0146	36
75.0221	36
77.038	60
89.0377	439
90.045	72
98.9989	66
115.053	102
125.0142	24
127.054	30
