Mass spectrum: 4-Hydroxytrimethoprim; LC-ESI-QTOF; MS2; 100 V
Name: 4-Hydroxytrimethoprim
Class: Pharmaceutical; Transformation_product
Formula: C14H18N4O4
Exact mass: 306.1328
SMILES: COc1cc(cc(c1OC)OC)Cc2c(nc(nc2O)N)N
InChI: InChI=1S/C14H18N4O4/c1-20-9-5-7(6-10(21-2)11(9)22-3)4-8-12(15)17-14(16)18-13(8)19/h5-6H,4H2,1-3H3,(H5,15,16,17,18,19)
Instrument: TripleTOF 5600 SCIEX
Instrument type: LC-ESI-QTOF
Ms type: MS2
Ion mode: NEGATIVE
Collision energy: 100
Fragmentation mode: CID
Ionization: ESI
Column name: Zorbax Eclipse Plus C18 2.1 mm x 150 mm, 3.5 um, Agilent
Retention time: 5.43 min
Precursor m/z: 305.1255
Precursor type: [M-H]-
m/z	relative intensity
40.0106	149
41.0175	999
41.0307	49
41.0444	49
42.0006	649
42.0182	99
50.0034	99
52.0196	99
65.9988	99
66.0108	349
76.0204	149
90.0373	49
91.0186	49
91.0284	199
93.0351	49
103.028	99
106.0303	49
108.0274	49
115.0407	99
118.0321	799
119.0138	149
129.024	49
131.0215	49
131.0352	249
131.0499	49
132.0572	99
133.0415	99
134.0234	149
143.0248	149
146.0214	299
148.0153	49
158.0217	99
160.0199	49
160.0378	99
170.0377	149
171.0191	99
174.0205	99
188.0194	149
215.0255	49
