Mass spectrum: Iopromide; LC-ESI-QTOF; MS2; 150 V
Name: Iopromide
Class: Pharmaceutical
Formula: C18H24I3N3O8
Exact mass: 790.8698
SMILES: COCC(=O)Nc1c(I)c(C(=O)NCC(O)CO)c(I)c(c1I)C(=O)N(C)CC(O)CO
InChI: InChI=1S/C18H24I3N3O8/c1-24(4-9(28)6-26)18(31)12-13(19)11(17(30)22-3-8(27)5-25)14(20)16(15(12)21)23-10(29)7-32-2/h8-9,25-28H,3-7H2,1-2H3,(H,22,30)(H,23,29)
Instrument: TripleTOF 5600 SCIEX
Instrument type: LC-ESI-QTOF
Ms type: MS2
Ion mode: POSITIVE
Collision energy: 150
Fragmentation mode: CID
Ionization: ESI
Column name: Zorbax Eclipse Plus C18 2.1 mm x 150 mm, 3.5 um, Agilent
Retention time: 4.895 min
Precursor m/z: 791.877
Precursor type: [M+H]+
m/z	relative intensity
45.0413	106
67.0214	127
77.0054	191
86.0048	148
88.0195	255
89.0263	850
100.0193	233
101.0254	361
101.9958	127
113.9974	276
115.0379	85
116.014	170
117.0206	999
128.0122	148
129.0197	106
129.0454	85
130.0309	106
141.9912	170
144.0074	148
145.0157	148
152.9184	233
154.9002	127
173.011	127
176.92	106
177.9133	297
188.9224	170
200.9104	233
203.9255	106
212.9051	106
215.9296	212
226.9192	106
227.927	340
243.9249	297
254.9197	127
255.9278	148
269.9032	106
271.9189	233
299.9158	318
339.8108	85
