Mass spectrum: N,N-Dimethyldecanamide; LC-ESI-QTOF; MS2; 140 V
Name: N,N-Dimethyldecanamide
Class: Industrial_process
Formula: C12H25NO
Exact mass: 199.1936
SMILES: CCCCCCCCCC(=O)N(C)C
InChI: InChI=1S/C12H25NO/c1-4-5-6-7-8-9-10-11-12(14)13(2)3/h4-11H2,1-3H3
Instrument: TripleTOF 6600 SCIEX
Instrument type: LC-ESI-QTOF
Ms type: MS2
Ion mode: POSITIVE
Collision energy: 140
Fragmentation mode: CID
Ionization: ESI
Column name: Zorbax Eclipse Plus C18 2.1 mm x 150 mm, 3.5 um, Agilent
Retention time: 13.577 min
Precursor m/z: 200.2009
Precursor type: [M+H]+
m/z	relative intensity
30.0331	64
35.999	46
37.0068	321
38.0027	122
38.0141	280
39.0224	677
41.0378	40
42.0088	40
42.0331	175
43.0172	280
43.0406	23
44.0121	29
44.049	999
52.0044	35
53.0125	64
56.0117	29
58.0284	93
