Mass spectrum: Dihydroxycarbazepine; LC-ESI-QTOF; MS2; 110 V
Name: Dihydroxycarbazepine
Class: Pharmaceutical; Metabolite
Formula: C15H14N2O3
Exact mass: 270.1004
InChI: InChI=1S/C15H14N2O3/c16-15(20)17-11-7-3-1-5-9(11)13(18)14(19)10-6-2-4-8-12(10)17/h1-8,13-14,18-19H,(H2,16,20)
Instrument: TripleTOF 5600 SCIEX
Instrument type: LC-ESI-QTOF
Ms type: CID
Ion mode: POSITIVE
Collision energy: 110
Ionization: ESI
Column name: Zorbax Eclipse Plus C18 2.1 mm x 150 mm, 3.5 um, Agilent
Retention time: 6.663 min
Precursor m/z: 271.1077
Precursor type: [M+H]+
m/z	relative intensity
51.0287	88
65.0418	15
73.0115	22
74.0175	111
75.0248	250
76.0315	31
76.0401	12
77.041	396
78.0488	34
86.0161	19
87.0235	34
88.0328	34
89.0397	130
90.0485	31
91.0507	15
98.0145	34
99.0221	57
100.0308	19
101.0391	187
102.0325	38
102.0465	88
111.0244	15
113.0382	123
114.0458	31
115.054	117
116.0488	19
117.0599	19
123.0231	15
125.0384	95
126.0455	323
127.0534	190
128.0482	183
129.0543	28
137.0377	41
138.0466	28
139.0538	279
140.049	228
141.0577	12
149.0376	47
150.0459	497
151.0537	960
152.0611	999
153.0566	142
154.0672	38
162.0463	28
163.0538	136
164.0472	88
165.068	28
166.0632	76
167.074	19
175.043	19
176.0497	60
177.0569	282
177.0945	12
178.0644	777
179.0727	399
180.0803	126
188.046	19
189.0533	25
190.0639	66
191.0741	44
