Mass spectrum: Chloromethyltriphenylphosphonium; LC-ESI-QTOF; MS2; 120 V
Name: Chloromethyltriphenylphosphonium
Class: Industrial_process
Formula: [C19H17ClP]+
Exact mass: 311.0751
SMILES: C1=CC=C(C=C1)[P+](CCl)(C2=CC=CC=C2)C3=CC=CC=C3
InChI: InChI=1S/C19H17ClP/c20-16-21(17-10-4-1-5-11-17,18-12-6-2-7-13-18)19-14-8-3-9-15-19/h1-15H,16H2/q+1
Instrument: TripleTOF 5600 SCIEX
Instrument type: LC-ESI-QTOF
Ms type: MS2
Ion mode: POSITIVE
Collision energy: 120
Fragmentation mode: CID
Ionization: ESI
Column name: Zorbax Eclipse Plus C18 2.1 mm x 150 mm, 3.5 um, Agilent
Retention time: 7.338 min
Precursor m/z: 311.0751
Precursor type: [M]+
m/z	relative intensity
63.0226	56
65.0383	50
79.98	92
80.9879	166
89.037	192
102.0452	81
107.0034	849
113.0375	74
115.0535	378
126.0458	204
131.0037	81
133.0197	77
139.0537	314
150.046	149
151.0542	437
152.062	999
156.0111	78
157.0202	503
181.0205	378
183.0366	149
