Mass spectrum: Dienogest Impurity G; LC-ESI-QTOF; MS2; 150 V
Name: Dienogest Impurity G
Class: Pharmaceutical
Formula: C20H23NO2
Exact mass: 309.1729
SMILES: CC12CC=C3C(C1CCC2(CC#N)O)CCC4=C3C=CC(=C4)O
InChI: InChI=1S/C20H23NO2/c1-19-8-6-16-15-5-3-14(22)12-13(15)2-4-17(16)18(19)7-9-20(19,23)10-11-21/h3,5-6,12,17-18,22-23H,2,4,7-10H2,1H3
Instrument: TripleTOF 6600 SCIEX
Instrument type: LC-ESI-QTOF
Ms type: MS2
Ion mode: POSITIVE
Collision energy: 150
Fragmentation mode: CID
Ionization: ESI
Column name: Zorbax Eclipse Plus C18 2.1 mm x 150 mm, 3.5 um, Agilent
Retention time: 9.956 min
Precursor m/z: 310.1802
Precursor type: [M+H]+
m/z	relative intensity
37.007	109
38.014	68
39.022	287
49.0067	164
50.014	465
51.0221	999
61.0062	109
62.0141	232
63.0221	520
65.0376	342
74.0136	177
75.022	123
76.0301	68
77.0376	766
78.0452	95
87.021	68
89.0378	451
91.053	82
102.0463	136
103.0527	68
113.0372	54
115.0537	574
126.0455	109
127.0526	95
128.0614	136
139.0524	68
150.0447	109
151.0531	82
152.0594	123
163.0525	123
164.0599	68
