Mass spectrum: Flutamide; LC-ESI-QTOF; MS2; 110 V
Name: Flutamide
Class: Pharmaceutical
Formula: C11H11F3N2O3
Exact mass: 276.0722
SMILES: CC(C)C(=O)NC1=CC(=C(C=C1)[N+](=O)[O-])C(F)(F)F
InChI: InChI=1S/C11H11F3N2O3/c1-6(2)10(17)15-7-3-4-9(16(18)19)8(5-7)11(12,13)14/h3-6H,1-2H3,(H,15,17)
Instrument: TripleTOF 6600 SCIEX
Instrument type: LC-ESI-QTOF
Ms type: MS2
Ion mode: POSITIVE
Collision energy: 110
Fragmentation mode: CID
Ionization: ESI
Column name: Zorbax Eclipse Plus C18 2.1 mm x 150 mm, 3.5 um, Agilent
Retention time: 12.297 min
Precursor m/z: 277.0795
Precursor type: [M+H]+
m/z	relative intensity
36.0001	81
37.0072	203
38.0032	122
38.0152	142
39.0223	999
40.0041	20
41.0272	61
41.0382	876
43.0534	265
44.0113	20
46.0062	40
51.0039	40
51.0236	20
52.0059	40
52.0177	61
53.0124	61
57.0111	40
57.0162	20
64.0316	81
65.0384	101
68.9926	20
70.0094	20
73.0076	20
74.0148	203
75.0021	163
75.0212	163
76.0164	20
77.0426	40
80.0099	40
80.0469	20
81.0117	40
83.0276	142
84.0372	61
85.0312	20
88.0114	81
89.0401	20
91.0418	20
92.0035	20
92.048	20
93.0124	40
94.0161	40
95.0281	101
96.0242	20
99.0028	101
101.0201	20
102.0428	20
111.0472	40
113.0204	40
114.0269	20
115.0602	61
120.02	20
120.0369	61
122.0107	20
125.0187	61
141.0245	20
