Mass spectrum: 14-Hydroxycodeinone; LC-ESI-QTOF; MS2; 70 V
Name: 14-Hydroxycodeinone
Class: Pharmaceutical; Transformation_product
Formula: C18H19NO4
Exact mass: 313.1314
SMILES: COc1ccc2C[C@H]3N(C)CC[C@@]45C(Oc1c24)C(=O)C=C[C@@]35O
InChI: InChI=1S/C18H19NO4/c1-19-8-7-17-14-10-3-4-12(22-2)15(14)23-16(17)11(20)5-6-18(17,21)13(19)9-10/h3-6,13,16,21H,7-9H2,1-2H3/t13-,16?,17+,18-/m1/s1
Instrument: TripleTOF 5600 SCIEX
Instrument type: LC-ESI-QTOF
Ms type: MS2
Ion mode: POSITIVE
Collision energy: 70
Fragmentation mode: CID
Ionization: ESI
Column name: Zorbax Eclipse Plus C18 2.1 mm x 150 mm, 3.5 um, Agilent
Retention time: 5.367 min
Precursor m/z: 314.1387
Precursor type: [M+H]+
m/z	relative intensity
77.0402	10
94.0657	11
115.0542	63
116.0486	10
127.054	24
128.0617	29
129.0698	10
131.0719	14
139.0541	80
140.0604	34
141.0691	59
144.0802	11
151.0529	30
152.062	105
153.0689	53
154.0658	29
155.0479	14
155.0786	23
164.0603	11
165.0697	141
166.0654	86
167.0727	178
168.0563	11
168.0805	72
169.0642	21
169.0873	18
176.0615	28
177.0688	14
178.0759	40
179.0744	23
180.08	72
181.088	233
182.0955	163
183.0752	13
184.0506	11
184.0756	10
191.0728	31
192.0804	39
193.0648	10
193.0874	19
194.0944	39
195.0677	84
196.0749	25
196.1115	12
197.0587	13
197.0827	18
203.0719	20
204.0814	11
205.0648	19
205.086	10
206.0593	10
206.0965	21
207.0674	22
208.0749	48
209.0823	47
210.091	256
211.0722	25
212.1064	15
218.0959	40
219.0667	12
220.0748	31
221.0603	14
221.0838	22
222.0553	17
222.0903	19
223.0623	30
223.0972	10
224.1065	36
234.0902	19
236.0693	39
237.0774	22
238.086	999
239.094	94
248.0699	12
250.0852	12
252.1007	28
280.0955	12
