Mass spectrum: Indoxacarb; LC-ESI-QTOF; MS2; 30 V
Name: Indoxacarb
Class: Insecticide
Formula: C22H17ClF3N3O7
Exact mass: 527.0707
SMILES: COC(=O)[C@]12Cc3cc(ccc3C1=NN(CO2)C(=O)N(c4ccc(cc4)OC(F)(F)F)C(=O)OC)Cl
InChI: InChI=1S/C22H17ClF3N3O7/c1-33-18(30)21-10-12-9-13(23)3-8-16(12)17(21)27-28(11-35-21)19(31)29(20(32)34-2)14-4-6-15(7-5-14)36-22(24,25)26/h3-9H,10-11H2,1-2H3/t21-/m0/s1
Instrument: TripleTOF 5600 SCIEX
Instrument type: LC-ESI-QTOF
Ms type: MS2
Ion mode: POSITIVE
Collision energy: 30
Fragmentation mode: CID
Ionization: ESI
Column name: Zorbax Eclipse Plus C18 2.1 mm x 150 mm, 3.5 um, Agilent
Retention time: 15.019 min
Precursor m/z: 528.078
Precursor type: [M+H]+
m/z	relative intensity
45.0428	24
56.0204	84
75.048	26
81.0172	11
132.0448	36
150.0113	756
155.0609	17
160.0511	13
162.0109	52
163.0312	16
164.0265	17
177.0192	17
178.0064	201
179.0259	23
189.0222	131
190.0067	660
192.0206	12
195.021	44
203.0198	523
204.0092	17
206.0369	30
207.0246	112
214.0742	82
215.0428	31
216.0264	13
217.0171	490
218.0425	999
219.0322	129
221.0472	29
222.0324	17
223.0166	533
230.9969	56
235.0278	46
249.0431	998
262.0324	21
263.0231	258
265.0382	87
267.0541	38
281.0697	10
291.0598	23
293.0335	490
325.06	29
422.0512	33
452.063	52
454.0779	33
484.0913	55
496.0539	134
498.0684	22
528.0811	105
