Mass spectrum: Melperone; LC-ESI-QTOF; MS2; 90 V
Name: Melperone
Class: Pharmaceutical
Formula: C16H22FNO
Exact mass: 263.1685
SMILES: CC1CCN(CC1)CCCC(=O)C2=CC=C(C=C2)F
InChI: InChI=1S/C16H22FNO/c1-13-8-11-18(12-9-13)10-2-3-16(19)14-4-6-15(17)7-5-14/h4-7,13H,2-3,8-12H2,1H3
Instrument: TripleTOF 6600 SCIEX
Instrument type: LC-ESI-QTOF
Ms type: MS2
Ion mode: POSITIVE
Collision energy: 90
Fragmentation mode: CID
Ionization: ESI
Column name: Zorbax Eclipse Plus C18 2.1 mm x 150 mm, 3.5 um, Agilent
Retention time: 6.915 min
Precursor m/z: 264.1758
Precursor type: [M+H]+
m/z	relative intensity
69.0125	27
73.0064	39
74.0144	481
75.0222	999
95.0283	729
123.0333	171
