Mass spectrum: Triclabendazole; LC-ESI-QTOF; MS2; 60 V
Name: Triclabendazole
Class: Pharmaceutical
Formula: C14H9Cl3N2OS
Exact mass: 357.9501
SMILES: CSc1[nH]c2cc(Cl)c(Oc3cccc(Cl)c3Cl)cc2n1
InChI: InChI=1S/C14H9Cl3N2OS/c1-21-14-18-9-5-8(16)12(6-10(9)19-14)20-11-4-2-3-7(15)13(11)17/h2-6H,1H3,(H,18,19)
Instrument: TripleTOF 5600 SCIEX
Instrument type: LC-ESI-QTOF
Ms type: MS2
Ion mode: POSITIVE
Collision energy: 60
Fragmentation mode: CID
Ionization: ESI
Column name: Zorbax Eclipse Plus C18 2.1 mm x 150 mm, 3.5 um, Agilent
Retention time: 13.11 min
Precursor m/z: 358.9574
Precursor type: [M+H]+
m/z	relative intensity
127.006	19
139.006	11
148.0097	17
155.9676	10
163.0325	71
165.0223	68
170.9782	281
182.9771	27
196.9948	14
198.0025	31
198.9735	221
211.0324	39
216.0213	13
239.0273	79
241.0156	12
242.0252	191
244.9937	11
245.982	20
250.9911	146
272.9896	33
273.9968	999
275.9866	79
276.9923	22
280.9692	29
307.9603	17
308.9659	32
343.9323	34
