Mass spectrum: Flazasulfuron; LC-ESI-QTOF; MS2; 50 V
Name: Flazasulfuron
Class: Herbicide
Formula: C13H12F3N5O5S
Exact mass: 407.0511
SMILES: COC1=CC(=NC(=N1)NC(=O)NS(=O)(=O)C2=C(C=CC=N2)C(F)(F)F)OC
InChI: InChI=1S/C13H12F3N5O5S/c1-25-8-6-9(26-2)19-11(18-8)20-12(22)21-27(23,24)10-7(13(14,15)16)4-3-5-17-10/h3-6H,1-2H3,(H2,18,19,20,21,22)
Instrument: TripleTOF 6600 SCIEX
Instrument type: LC-ESI-QTOF
Ms type: MS2
Ion mode: NEGATIVE
Collision energy: 50
Fragmentation mode: CID
Ionization: ESI
Column name: Zorbax Eclipse Plus C18 2.1 mm x 150 mm, 3.5 um, Agilent
Retention time: 11.145 min
Precursor m/z: 406.0438
Precursor type: [M-H]-
m/z	relative intensity
41.0139	15
41.9974	129
65.0124	123
65.9964	165
82.0154	15
87.9979	10
90.0081	26
97.0386	21
105.9581	10
107.0107	191
109.0274	10
111.0658	10
121.019	77
122.0344	387
124.0494	52
139.0096	25
139.0376	279
141.0274	31
142.0108	31
154.0614	999
159.0176	28
161.0311	220
162.0161	183
164.0329	50
179.0545	29
250.9719	10
