Mass spectrum: Iotalamic acid; LC-ESI-QTOF; MS2; 50 V
Name: Iotalamic acid
Class: Pharmaceutical
Formula: C11H9I3N2O4
Exact mass: 613.7697
SMILES: CNC(c1c(I)c(C(O)=O)c(I)c(NC(C)=O)c1I)=O
InChI: InChI=1S/C11H9I3N2O4/c1-3(17)16-9-7(13)4(10(18)15-2)6(12)5(8(9)14)11(19)20/h1-2H3,(H,15,18)(H,16,17)(H,19,20)
Instrument: TripleTOF 5600 SCIEX
Instrument type: LC-ESI-QTOF
Ms type: MS2
Ion mode: POSITIVE
Collision energy: 50
Fragmentation mode: CID
Ionization: ESI
Column name: Zorbax Eclipse Plus C18 2.1 mm x 150 mm, 3.5 um, Agilent
Retention time: 4.565 min
Precursor m/z: 614.7769
Precursor type: [M+H]+
m/z	relative intensity
158.0244	32
174.0173	27
177.0419	713
187.0504	71
191.0555	38
192.0523	27
231.9246	21
257.9382	32
272.9315	49
273.9375	65
284.9301	104
285.9368	38
289.933	115
300.9482	290
301.9312	845
302.9368	115
303.9433	38
314.9646	38
318.9569	159
327.9099	21
329.93	120
355.845	27
360.9674	999
383.837	38
384.8483	65
388.843	87
399.8345	21
409.8248	54
411.8373	93
415.8298	120
427.8318	65
428.8364	175
429.8488	27
440.8644	43
445.8687	137
455.8237	669
468.8544	422
486.8539	27
486.869	60
