Mass spectrum: Flecainide; LC-ESI-QTOF; MS2; 60 V
Name: Flecainide
Class: Pharmaceutical
Formula: C17H20F6N2O3
Exact mass: 414.1378
SMILES: FC(F)(F)COc1ccc(OCC(F)(F)F)c(c1)C(=O)NCC2CCCCN2
InChI: InChI=1S/C17H20F6N2O3/c18-16(19,20)9-27-12-4-5-14(28-10-17(21,22)23)13(7-12)15(26)25-8-11-3-1-2-6-24-11/h4-5,7,11,24H,1-3,6,8-10H2,(H,25,26)
Instrument: TripleTOF 5600 SCIEX
Instrument type: LC-ESI-QTOF
Ms type: MS2
Ion mode: POSITIVE
Collision energy: 60
Fragmentation mode: CID
Ionization: ESI
Column name: Zorbax Eclipse Plus C18 2.1 mm x 150 mm, 3.5 um, Agilent
Retention time: 7.983 min
Precursor m/z: 415.1451
Precursor type: [M+H]+
m/z	relative intensity
44.0574	41
55.0588	11
56.0539	18
69.0725	12
70.0689	12
77.0415	20
79.02	18
79.057	136
81.0727	197
82.0678	71
83.0126	15
84.0831	63
92.0269	13
97.0894	27
98.0978	227
107.0133	90
111.0244	11
127.019	48
135.0085	260
171.0253	13
175.0368	13
181.0273	28
187.0377	11
189.0522	26
190.0236	69
203.0329	16
204.1021	15
207.0426	19
209.0229	543
215.0325	12
218.0195	522
219.0273	59
225.0345	169
231.027	16
232.0978	429
237.0176	290
246.0368	18
253.0293	216
254.036	44
281.0238	120
287.0545	10
298.1064	53
301.0306	999
314.101	19
315.1083	12
398.1194	51
