Mass spectrum: Ranitidine-N-oxide; LC-ESI-QTOF; MS2; 100 V
Name: Ranitidine-N-oxide
Class: Pharmaceutical; Transformation_product
Formula: C13H22N4O4S
Exact mass: 330.1362
SMILES: CNC(/NCCSCc1oc(C[N+](C)(C)[O-])cc1)=C\[N+]([O-])=O
InChI: InChI=1S/C13H22N4O4S/c1-14-13(8-16(18)19)15-6-7-22-10-12-5-4-11(21-12)9-17(2,3)20/h4-5,8,14-15H,6-7,9-10H2,1-3H3/b13-8+
Instrument: TripleTOF 5600 SCIEX
Instrument type: LC-ESI-QTOF
Ms type: MS2
Ion mode: POSITIVE
Collision energy: 100
Fragmentation mode: CID
Ionization: ESI
Column name: Zorbax Eclipse Plus C18 2.1 mm x 150 mm, 3.5 um, Agilent
Retention time: 4.879 min
Precursor m/z: 331.1435
Precursor type: [M+H]+
m/z	relative intensity
42.0416	111
51.0286	126
52.0347	37
53.0428	342
54.0414	59
55.047	119
56.0541	342
57.0495	82
58.9993	82
59.0081	29
60.0084	37
65.042	134
66.0507	52
67.0449	29
68.0534	149
68.9831	37
70.0686	89
70.998	37
74.0082	37
77.041	931
77.0659	52
78.0355	156
78.049	119
79.0563	126
80.0164	52
80.0517	201
81.0357	999
82.0542	156
82.0641	59
83.0617	74
88.0228	67
89.0396	59
91.0541	149
92.0521	52
93.058	186
94.0419	52
94.0662	111
95.0492	59
96.0699	171
97.0127	104
97.0765	879
102.0377	641
104.0494	238
105.0382	37
105.0575	74
106.0423	52
106.0642	82
107.0481	402
108.0775	29
114.0371	37
115.0303	44
117.0567	111
118.0641	67
119.0596	111
121.0767	82
123.0253	52
125.007	67
129.0481	59
130.0554	44
131.0652	37
132.0435	216
133.0518	104
133.0751	59
