Mass spectrum: 2-p-Tolyl-1H-benzoimidazole; LC-ESI-QTOF; MS2; 110 V
Name: 2-p-Tolyl-1H-benzoimidazole
Class: Pharmaceutical
Formula: C14H12N2
Exact mass: 208.1
SMILES: CC1=CC=C(C=C1)C2=NC3=CC=CC=C3N2
InChI: InChI=1S/C14H12N2/c1-10-6-8-11(9-7-10)14-15-12-4-2-3-5-13(12)16-14/h2-9H,1H3,(H,15,16)
Instrument: TripleTOF 5600 SCIEX
Instrument type: LC-ESI-QTOF
Ms type: MS2
Ion mode: POSITIVE
Collision energy: 110
Fragmentation mode: CID
Ionization: ESI
Column name: Zorbax Eclipse Plus C18 2.1 mm x 150 mm, 3.5 um, Agilent
Retention time: 6.061 min
Precursor m/z: 209.1073
Precursor type: [M+H]+
m/z	relative intensity
52.028	115
64.0347	74
65.0458	999
74.0203	88
75.0286	94
76.0253	38
76.0348	23
77.0427	145
78.0388	11
78.0501	14
85.01	17
86.0194	29
87.0278	65
88.0192	20
88.0333	26
89.0414	204
90.038	17
91.0521	65
92.0514	17
98.0142	17
99.028	17
100.0262	17
102.0466	20
103.0448	11
111.0236	14
113.0398	71
114.0366	38
115.0568	17
125.0408	11
126.0465	14
127.0529	17
128.052	11
137.0412	38
138.0436	35
139.0527	62
140.0512	47
150.0475	56
151.0553	68
152.0622	41
164.05	68
166.0571	14
177.0581	29
178.0705	23
192.0735	11
205.0772	17
