Mass spectrum: Bromacil; LC-ESI-QTOF; MS2; 70 V
Name: Bromacil
Class: Herbicide
Formula: C9H13BrN2O2
Exact mass: 260.016
SMILES: CCC(C)N1C(=O)C(=C(NC1=O)C)Br
InChI: InChI=1S/C9H13BrN2O2/c1-4-5(2)12-8(13)7(10)6(3)11-9(12)14/h5H,4H2,1-3H3,(H,11,14)
Instrument: TripleTOF 6600 SCIEX
Instrument type: LC-ESI-QTOF
Ms type: MS2
Ion mode: POSITIVE
Collision energy: 70
Fragmentation mode: CID
Ionization: ESI
Column name: Zorbax Eclipse Plus C18 2.1 mm x 150 mm, 3.5 um, Agilent
Retention time: 8.493 min
Precursor m/z: 261.0233
Precursor type: [M+H]+
m/z	relative intensity
39.0215	54
42.0325	54
44.0116	134
52.0167	513
54.0319	890
55.0396	175
67.0247	67
68.0111	121
69.0064	188
69.0424	80
69.9906	108
83.0344	121
92.9306	229
104.9305	526
105.9257	229
106.9099	108
106.9457	161
116.931	67
131.9415	999
133.9569	54
187.9316	80
