Mass spectrum: Fenpropidin; LC-ESI-QTOF; MS2; 140 V
Name: Fenpropidin
Class: Fungicide
Formula: C19H31N
Exact mass: 273.2456
SMILES: CC(CC1=CC=C(C=C1)C(C)(C)C)CN2CCCCC2
InChI: InChI=1S/C19H31N/c1-16(15-20-12-6-5-7-13-20)14-17-8-10-18(11-9-17)19(2,3)4/h8-11,16H,5-7,12-15H2,1-4H3
Instrument: TripleTOF 6600 SCIEX
Instrument type: LC-ESI-QTOF
Ms type: MS2
Ion mode: POSITIVE
Collision energy: 140
Fragmentation mode: CID
Ionization: ESI
Column name: Zorbax Eclipse Plus C18 2.1 mm x 150 mm, 3.5 um, Agilent
Retention time: 9.471 min
Precursor m/z: 274.2529
Precursor type: [M+H]+
m/z	relative intensity
30.0342	29
35.9995	49
37.0075	263
38.0041	11
38.0154	229
39.0234	999
41.0388	117
42.0339	24
49.0077	28
50.0154	233
51.0232	478
52.0306	41
53.0387	13
56.0501	33
59.9984	25
61.0068	101
62.0154	183
63.0227	374
65.0388	890
73.0081	19
74.0148	109
75.0223	73
76.0299	53
77.0384	416
78.0459	137
79.0546	14
84.0805	15
86.0138	17
87.0228	26
89.0387	394
91.0542	837
102.0462	89
103.0545	65
114.0469	18
115.0542	981
116.0615	39
117.0691	22
126.0457	11
127.0536	25
128.0622	65
