Mass spectrum: Estrone 3-methyl ether; LC-ESI-QTOF; MS2; 150 V
Name: Estrone 3-methyl ether
Class: Pharmaceutical
Formula: C19H24O2
Exact mass: 284.1776
SMILES: C[C@]12CC[C@@H]3c4ccc(cc4CC[C@H]3[C@@H]1CCC2=O)OC
InChI: InChI=1S/C19H24O2/c1-19-10-9-15-14-6-4-13(21-2)11-12(14)3-5-16(15)17(19)7-8-18(19)20/h4,6,11,15-17H,3,5,7-10H2,1-2H3/t15-,16-,17+,19+/m1/s1
Instrument: TripleTOF 5600 SCIEX
Instrument type: LC-ESI-QTOF
Ms type: MS2
Ion mode: POSITIVE
Collision energy: 150
Fragmentation mode: CID
Ionization: ESI
Column name: Zorbax Eclipse Plus C18 2.1 mm x 150 mm, 3.5 um, Agilent
Retention time: 10.549 min
Precursor m/z: 285.1849
Precursor type: [M+H]+
m/z	relative intensity
51.0289	730
65.0441	462
74.0181	268
75.0254	194
76.0333	268
77.0411	999
78.0488	389
87.026	121
89.0407	730
91.0544	170
102.0464	389
103.0523	121
115.0533	852
126.0458	146
127.0547	292
128.0615	219
150.0446	146
151.0583	146
163.0536	121
164.0612	97
