Mass spectrum: Bumetrizole; LC-ESI-QTOF; MS2; 10 V
Name: Bumetrizole
Class: Industrial_process; Personal_care_product
Formula: C17H18ClN3O
Exact mass: 315.1138
SMILES: CC1=CC(=C(C(=C1)N2N=C3C=CC(=CC3=N2)Cl)O)C(C)(C)C
InChI: InChI=1S/C17H18ClN3O/c1-10-7-12(17(2,3)4)16(22)15(8-10)21-19-13-6-5-11(18)9-14(13)20-21/h5-9,22H,1-4H3
Instrument: TripleTOF 5600 SCIEX
Instrument type: LC-ESI-QTOF
Ms type: MS2
Ion mode: POSITIVE
Collision energy: 10
Fragmentation mode: CID
Ionization: ESI
Column name: Zorbax Eclipse Plus C18 2.1 mm x 150 mm, 3.5 um, Agilent
Retention time: 20.073 min
Precursor m/z: 316.1211
Precursor type: [M+H]+
m/z	relative intensity
316.1204	999
