Mass spectrum: Xipamide; LC-ESI-QTOF; MS2; 70 V
Name: Xipamide
Class: Pharmaceutical
Formula: C15H15ClN2O4S
Exact mass: 354.0441
SMILES: CC1=C(C(=CC=C1)C)NC(=O)C2=CC(=C(C=C2O)Cl)S(=O)(=O)N
InChI: InChI=1S/C15H15ClN2O4S/c1-8-4-3-5-9(2)14(8)18-15(20)10-6-13(23(17,21)22)11(16)7-12(10)19/h3-7,19H,1-2H3,(H,18,20)(H2,17,21,22)
Instrument: TripleTOF 5600 SCIEX
Instrument type: LC-ESI-QTOF
Ms type: MS2
Ion mode: NEGATIVE
Collision energy: 70
Fragmentation mode: CID
Ionization: ESI
Column name: Zorbax Eclipse Plus C18 2.1 mm x 150 mm, 3.5 um, Agilent
Retention time: 10.655 min
Precursor m/z: 353.0368
Precursor type: [M-H]-
m/z	relative intensity
34.9691	77
77.9648	999
78.034	64
94.0288	142
95.0127	64
105.0232	103
122.0244	90
126.9959	259
169.9917	77
