Mass spectrum: 4-Methyl-5-thiazoleethanol; LC-ESI-QTOF; MS2; 130 V
Name: 4-Methyl-5-thiazoleethanol
Class: Food_additive; Metabolite; Pharmaceutical
Formula: C6H9NOS
Exact mass: 143.0405
SMILES: CC1=C(SC=N1)CCO
InChI: InChI=1S/C6H9NOS/c1-5-6(2-3-8)9-4-7-5/h4,8H,2-3H2,1H3
Instrument: TripleTOF 6600 SCIEX
Instrument type: LC-ESI-QTOF
Ms type: MS2
Ion mode: POSITIVE
Collision energy: 130
Fragmentation mode: CID
Ionization: ESI
Column name: Zorbax Eclipse Plus C18 2.1 mm x 150 mm, 3.5 um, Agilent
Retention time: 4.251 min
Precursor m/z: 144.0478
Precursor type: [M+H]+
m/z	relative intensity
37.0074	437
38.0021	124
38.0149	312
39.0228	218
43.971	437
44.9789	999
45.9742	374
50.0147	249
