Mass spectrum: Terbutylazine-2-hydroxy; LC-ESI-QTOF; MS2; 60 V
Name: Terbutylazine-2-hydroxy
Class: Herbicide; Transformation_product
Formula: C9H17N5O
Exact mass: 211.1433
SMILES: CCNC1=NC(=O)N=C(N1)NC(C)(C)C
InChI: InChI=1S/C9H17N5O/c1-5-10-6-11-7(13-8(15)12-6)14-9(2,3)4/h5H2,1-4H3,(H3,10,11,12,13,14,15)
Instrument: TripleTOF 5600 SCIEX
Instrument type: LC-ESI-QTOF
Ms type: MS2
Ion mode: NEGATIVE
Collision energy: 60
Fragmentation mode: CID
Ionization: ESI
Column name: Zorbax Eclipse Plus C18 2.1 mm x 150 mm, 3.5 um, Agilent
Retention time: 5.981 min
Precursor m/z: 210.136
Precursor type: [M-H]-
m/z	relative intensity
40.0088	55
41.0171	502
42.0012	285
66.0106	72
69.0459	256
81.0455	999
97.0767	384
