Mass spectrum: 3,3`-Dimethoxybenzidine; LC-ESI-QTOF; MS2; 40 V
Name: 3,3`-Dimethoxybenzidine
Formula: C14H16N2O2
Exact mass: 244.1212
SMILES: COC1=C(C=CC(=C1)C2=CC(=C(C=C2)N)OC)N
InChI: InChI=1S/C14H16N2O2/c1-17-13-7-9(3-5-11(13)15)10-4-6-12(16)14(8-10)18-2/h3-8H,15-16H2,1-2H3
Instrument: TripleTOF 6600 SCIEX
Instrument type: LC-ESI-QTOF
Ms type: MS2
Ion mode: POSITIVE
Collision energy: 40
Fragmentation mode: CID
Ionization: ESI
Column name: Zorbax Eclipse Plus C18 2.1 mm x 150 mm, 3.5 um, Agilent
Retention time: 5.188 min
Precursor m/z: 245.1285
Precursor type: [M+H]+
m/z	relative intensity
143.0714	56
153.0571	12
154.0634	22
158.0825	20
159.0865	54
169.0763	41
170.083	248
171.0919	16
181.0749	20
182.0832	43
186.0792	31
187.0859	999
197.0699	11
198.0784	189
199.0826	10
201.1003	35
202.1054	214
213.1035	32
215.0808	174
230.1042	101
