Mass spectrum: Ecgonine ethyl ester; LC-ESI-QTOF; MS2; 140 V
Name: Ecgonine ethyl ester
Formula: C11H19NO3
Exact mass: 213.1365
SMILES: CCOC(=O)C1C2CCC(N2C)CC1O
InChI: InChI=1S/C11H19NO3/c1-3-15-11(14)10-8-5-4-7(12(8)2)6-9(10)13/h7-10,13H,3-6H2,1-2H3
Instrument: TripleTOF 6600 SCIEX
Instrument type: LC-ESI-QTOF
Ms type: MS2
Ion mode: POSITIVE
Collision energy: 140
Fragmentation mode: CID
Ionization: ESI
Column name: Zorbax Eclipse Plus C18 2.1 mm x 150 mm, 3.5 um, Agilent
Retention time: 2.108 min
Precursor m/z: 214.1438
Precursor type: [M+H]+
m/z	relative intensity
35.9992	222
37.0078	333
38.0159	666
39.0243	999
40.019	111
41.0267	333
41.0389	111
42.0105	111
42.0349	333
51.0245	333
52.0175	0
52.0325	111
65.0397	111
66.0452	111
67.0421	111
78.0331	0
79.0434	111
80.0498	111
