Mass spectrum: Bromacil; LC-ESI-QTOF; MS2; 90 V
Name: Bromacil
Class: Herbicide
Formula: C9H13BrN2O2
Exact mass: 260.016
SMILES: CCC(C)N1C(=O)C(=C(NC1=O)C)Br
InChI: InChI=1S/C9H13BrN2O2/c1-4-5(2)12-8(13)7(10)6(3)11-9(12)14/h5H,4H2,1-3H3,(H,11,14)
Instrument: TripleTOF 6600 SCIEX
Instrument type: LC-ESI-QTOF
Ms type: MS2
Ion mode: POSITIVE
Collision energy: 90
Fragmentation mode: CID
Ionization: ESI
Column name: Zorbax Eclipse Plus C18 2.1 mm x 150 mm, 3.5 um, Agilent
Retention time: 8.493 min
Precursor m/z: 261.0233
Precursor type: [M+H]+
m/z	relative intensity
44.011	313
51.0094	114
52.0166	884
54.0323	999
55.0394	171
67.0155	114
68.0112	456
69.9903	114
92.9301	399
104.9308	599
105.9271	171
106.9086	142
131.9418	313
