Mass spectrum: Dehydroepiandrosterone; LC-ESI-QTOF; MS2; 90 V
Name: Dehydroepiandrosterone
Class: Pharmaceutical
Formula: C19H28O2
Exact mass: 288.2089
SMILES: C[C@]12CC[C@H]3[C@@H](CC=C4C[C@@H](O)CC[C@]34C)[C@@H]1CCC2=O
InChI: InChI=1S/C19H28O2/c1-18-9-7-13(20)11-12(18)3-4-14-15-5-6-17(21)19(15,2)10-8-16(14)18/h3,13-16,20H,4-11H2,1-2H3/t13-,14-,15-,16-,18-,19-/m0/s1
Instrument: TripleTOF 5600 SCIEX
Instrument type: LC-ESI-QTOF
Ms type: MS2
Ion mode: POSITIVE
Collision energy: 90
Fragmentation mode: CID
Ionization: ESI
Column name: Zorbax Eclipse Plus C18 2.1 mm x 150 mm, 3.5 um, Agilent
Retention time: 11.589 min
Precursor m/z: 289.2162
Precursor type: [M+H]+
m/z	relative intensity
65.043	205
77.0418	705
79.0585	293
81.073	117
91.0559	822
93.0733	117
103.0554	176
105.0692	146
115.0538	999
116.0631	146
127.0536	264
128.0621	881
129.0697	293
141.0703	617
152.0617	235
153.0708	235
165.0701	293
