Mass spectrum: Flavanone; LC-ESI-QTOF; MS2; 50 V
Name: Flavanone
Class: Personal_care_product
Formula: C15H12O2
Exact mass: 224.0837
SMILES: C1C(OC2=CC=CC=C2C1=O)C3=CC=CC=C3
InChI: InChI=1S/C15H12O2/c16-13-10-15(11-6-2-1-3-7-11)17-14-9-5-4-8-12(13)14/h1-9,15H,10H2
Instrument: TripleTOF 5600 SCIEX
Instrument type: LC-ESI-QTOF
Ms type: MS2
Ion mode: POSITIVE
Collision energy: 50
Fragmentation mode: CID
Ionization: ESI
Column name: Zorbax Eclipse Plus C18 2.1 mm x 150 mm, 3.5 um, Agilent
Retention time: 12.61 min
Precursor m/z: 225.091
Precursor type: [M+H]+
m/z	relative intensity
39.0229	61
51.0234	33
65.0386	999
75.0253	18
77.0385	666
79.054	91
91.0548	91
93.0337	549
101.0386	39
102.0462	54
103.0546	919
119.0497	18
121.0289	907
128.0662	21
129.0341	27
131.0484	54
147.0469	21
151.0535	30
152.0623	109
153.0692	48
165.0699	45
176.0626	58
177.0684	70
178.0778	720
179.0878	33
181.0637	146
182.073	15
207.0832	21
