Mass spectrum: Metolachlor ESA; LC-ESI-QTOF; MS2; 120 V
Name: Metolachlor ESA
Class: Herbicide; Transformation_product-Metabolite
Formula: C15H23NO5S
Exact mass: 329.1297
SMILES: CCC1=CC=CC(=C1N(C(C)COC)C(=O)CS(=O)(=O)O)C
InChI: InChI=1S/C15H23NO5S/c1-5-13-8-6-7-11(2)15(13)16(12(3)9-21-4)14(17)10-22(18,19)20/h6-8,12H,5,9-10H2,1-4H3,(H,18,19,20)
Instrument: TripleTOF 5600 SCIEX
Instrument type: LC-ESI-QTOF
Ms type: MS2
Ion mode: POSITIVE
Collision energy: 120
Fragmentation mode: CID
Ionization: ESI
Column name: Zorbax Eclipse Plus C18 2.1 mm x 150 mm, 3.5 um, Agilent
Retention time: 8.247 min
Precursor m/z: 330.137
Precursor type: [M+H]+
m/z	relative intensity
45.0408	50
51.0305	50
65.0421	312
77.0419	575
78.0487	100
79.0582	80
89.0391	252
90.0484	111
91.0563	766
93.0581	70
102.0456	80
103.055	333
104.048	50
104.0604	50
106.0653	90
115.0536	534
116.0612	70
117.0567	373
118.0638	100
119.0761	70
127.0542	121
128.0546	201
130.0651	999
131.0744	151
132.0812	50
141.0677	60
142.0645	191
143.0719	242
144.0813	736
156.0808	70
157.0876	50
158.0955	100
