Mass spectrum: Capecitabine; LC-ESI-QTOF; MS2; 100 V
Name: Capecitabine
Class: Pharmaceutical
Formula: C15H22FN3O6
Exact mass: 359.1493
SMILES: CCCCCOC(=O)NC1=NC(=O)N(C=C1F)[C@@H]2O[C@H](C)[C@@H](O)[C@H]2O
InChI: InChI=1S/C15H22FN3O6/c1-3-4-5-6-24-15(23)18-12-9(16)7-19(14(22)17-12)13-11(21)10(20)8(2)25-13/h7-8,10-11,13,20-21H,3-6H2,1-2H3,(H,17,18,22,23)/t8-,10-,11-,13-/m1/s1
Instrument: TripleTOF 5600 SCIEX
Instrument type: LC-ESI-QTOF
Ms type: MS2
Ion mode: POSITIVE
Collision energy: 100
Fragmentation mode: CID
Ionization: ESI
Column name: Zorbax Eclipse Plus C18 2.1 mm x 150 mm, 3.5 um, Agilent
Retention time: 8.389 min
Precursor m/z: 360.1565
Precursor type: [M+H]+
m/z	relative intensity
43.0311	23
45.0413	53
58.0131	336
58.042	41
60.0287	41
67.0319	59
73.0309	106
85.0209	703
85.0477	65
87.0357	266
112.0294	378
112.0581	23
112.0692	23
113.0138	999
130.0398	206
