Mass spectrum: Metachrome Yellow free acid; LC-ESI-QTOF; MS2; 50 V
Name: Metachrome Yellow free acid
Formula: C13H9N3O5
Exact mass: 287.0542
SMILES: C1=CC(=CC(=C1)[N+](=O)[O-])N=NC2=CC(=C(C=C2)O)C(=O)O
InChI: InChI=1S/C13H9N3O5/c17-12-5-4-9(7-11(12)13(18)19)15-14-8-2-1-3-10(6-8)16(20)21/h1-7,17H,(H,18,19)
Instrument: TripleTOF 6600 SCIEX
Instrument type: LC-ESI-QTOF
Ms type: MS2
Ion mode: POSITIVE
Collision energy: 50
Fragmentation mode: CID
Ionization: ESI
Column name: Zorbax Eclipse Plus C18 2.1 mm x 150 mm, 3.5 um, Agilent
Retention time: 11.919 min
Precursor m/z: 288.0615
Precursor type: [M+H]+
m/z	relative intensity
39.0224	29
51.0235	17
53.0016	12
61.0071	10
62.0138	29
63.0218	401
64.0299	753
74.0136	34
75.0221	710
76.0294	151
77.0246	21
77.0368	44
78.0325	55
80.0129	44
89.0356	12
90.0347	14
90.0443	10
91.0166	426
91.0397	19
92.0248	999
103.0416	17
105.0176	10
106.0271	98
113.0417	10
114.0449	145
115.041	27
116.0486	19
117.0561	61
118.0537	12
119.0109	435
120.0261	27
122.0228	181
128.0483	44
128.0594	46
130.0496	10
134.023	234
137.0318	17
139.0534	456
140.0494	456
141.0548	226
142.051	258
143.0608	23
150.0291	249
153.0564	12
154.0619	14
155.0592	183
156.0622	14
166.0516	72
167.0592	550
168.0665	984
169.051	51
170.0479	83
171.0553	23
179.0601	49
182.0472	12
195.0526	371
196.0613	187
211.047	12
222.0429	25
223.0493	83
224.0566	27
242.0531	61
270.0491	14
