Mass spectrum: 3,5-Diiodothyronine; LC-ESI-QTOF; MS2; 50 V
Name: 3,5-Diiodothyronine
Class: Pharmaceutical
Formula: C15H13I2NO4
Exact mass: 524.8934
SMILES: NC(Cc1cc(I)c(Oc2ccc(O)cc2)c(I)c1)C(O)=O
InChI: InChI=1S/C15H13I2NO4/c16-11-5-8(7-13(18)15(20)21)6-12(17)14(11)22-10-3-1-9(19)2-4-10/h1-6,13,19H,7,18H2,(H,20,21)
Instrument: TripleTOF 5600 SCIEX
Instrument type: LC-ESI-QTOF
Ms type: MS2
Ion mode: POSITIVE
Collision energy: 50
Fragmentation mode: CID
Ionization: ESI
Column name: Zorbax Eclipse Plus C18 2.1 mm x 150 mm, 3.5 um, Agilent
Retention time: 7.539 min
Precursor m/z: 525.9007
Precursor type: [M+H]+
m/z	relative intensity
94.0429	35
109.0288	21
117.0571	60
118.0648	22
128.0615	11
129.0701	13
132.0447	13
143.0854	9
152.062	10
153.0695	40
157.0641	41
161.023	24
165.0699	28
167.048	21
170.0724	28
171.0801	37
180.0807	16
181.0654	195
183.0798	15
184.0523	108
185.0606	116
197.0599	115
198.0674	32
198.0921	31
199.0759	306
208.0758	20
209.0601	122
210.0674	75
211.0758	15
216.9506	55
217.9219	23
224.0714	26
225.0786	122
226.0864	142
231.939	17
232.9462	91
237.0549	69
243.9604	18
244.9708	12
245.9184	46
255.0666	15
259.9573	100
287.9269	38
296.9771	18
307.9695	15
311.9645	99
322.9579	24
324.9734	718
325.9801	780
335.9648	83
336.9726	72
338.9519	24
339.9603	122
344.8266	16
351.9834	64
352.9919	999
353.9758	17
358.8424	36
364.9664	15
372.8244	35
380.9642	31
381.9713	67
386.8366	14
466.869	64
479.8958	381
