Mass spectrum: Methyltriphenylphosphonium; LC-ESI-QTOF; MS2; 140 V
Name: Methyltriphenylphosphonium
Class: Pharmaceutical
Formula: [C19H18P]+
Exact mass: 277.1141
SMILES: C[P+](c1ccccc1)(c2ccccc2)c3ccccc3
InChI: InChI=1S/C19H18P/c1-20(17-11-5-2-6-12-17,18-13-7-3-8-14-18)19-15-9-4-10-16-19/h2-16H,1H3/q+1
Instrument: TripleTOF 5600 SCIEX
Instrument type: LC-ESI-QTOF
Ms type: MS2
Ion mode: POSITIVE
Collision energy: 140
Fragmentation mode: CID
Ionization: ESI
Column name: Zorbax Eclipse Plus C18 2.1 mm x 150 mm, 3.5 um, Agilent
Retention time: 7.192 min
Precursor m/z: 277.1141
Precursor type: [M]+
m/z	relative intensity
51.032	246
55.9849	90
56.9931	250
65.0431	160
67.9841	78
74.0172	215
75.0275	74
76.0326	180
77.0409	238
78.9756	156
79.9837	501
80.9908	607
86.0155	141
87.0231	188
89.04	411
91.9819	101
98.016	109
99.0219	54
102.0459	188
102.9731	50
103.981	199
104.9901	90
107.0048	999
113.0388	117
115.0549	250
115.9809	50
125.0391	66
126.0466	329
127.9798	66
131.0046	129
139.0548	137
150.047	564
151.0548	497
152.0619	321
155.0053	160
156.0102	105
157.0209	188
179.0034	195
180.0141	168
181.0201	368
