Mass spectrum: 4,4`-Thiodianiline; LC-ESI-QTOF; MS2; 30 V
Name: 4,4`-Thiodianiline
Formula: C12H12N2S
Exact mass: 216.0721
SMILES: C1=CC(=CC=C1N)SC2=CC=C(C=C2)N
InChI: InChI=1S/C12H12N2S/c13-9-1-5-11(6-2-9)15-12-7-3-10(14)4-8-12/h1-8H,13-14H2
Instrument: TripleTOF 6600 SCIEX
Instrument type: LC-ESI-QTOF
Ms type: MS2
Ion mode: POSITIVE
Collision energy: 30
Fragmentation mode: CID
Ionization: ESI
Column name: Zorbax Eclipse Plus C18 2.1 mm x 150 mm, 3.5 um, Agilent
Retention time: 6.429 min
Precursor m/z: 217.0794
Precursor type: [M+H]+
m/z	relative intensity
80.0483	89
93.0565	56
124.0208	999
139.053	67
156.078	10
167.0722	138
171.0267	15
173.0391	11
183.0248	198
184.0328	137
184.0978	43
185.1018	90
199.0439	390
200.0523	346
211.0313	14
215.0655	17
216.0693	184
217.0775	196
