Mass spectrum: Trimethoprim; LC-ESI-QTOF; MS2; 70 V
Name: Trimethoprim
Class: Pharmaceutical
Formula: C14H18N4O3
Exact mass: 290.1379
SMILES: COC1=CC(=CC(=C1OC)OC)CC2=CN=C(N=C2N)N
InChI: InChI=1S/C14H18N4O3/c1-19-10-5-8(6-11(20-2)12(10)21-3)4-9-7-17-14(16)18-13(9)15/h5-7H,4H2,1-3H3,(H4,15,16,17,18)
Instrument: TripleTOF 5600 SCIEX
Instrument type: LC-ESI-QTOF
Ms type: MS2
Ion mode: POSITIVE
Collision energy: 70
Fragmentation mode: CID
Ionization: ESI
Column name: Zorbax Eclipse Plus C18 2.1 mm x 150 mm, 3.5 um, Agilent
Retention time: 5.112 min
Precursor m/z: 291.1452
Precursor type: [M+H]+
m/z	relative intensity
41.0261	49
43.0294	83
51.0227	15
52.0181	31
54.0339	152
55.0181	18
55.0412	10
60.0564	13
63.0238	13
65.0386	52
66.048	13
67.0301	10
67.0541	34
68.0371	204
68.9965	26
69.0448	36
77.0385	186
78.0348	18
79.0291	44
79.0528	39
80.0332	13
80.0501	20
81.0449	875
82.0517	18
83.0473	144
89.0387	62
90.0345	13
90.0465	10
91.0546	136
92.0492	39
93.0326	15
93.056	26
94.0399	34
94.0646	55
95.0505	31
96.0557	47
97.0628	28
101.0384	47
102.0333	55
103.0534	89
104.0489	131
105.038	99
105.068	15
106.0398	123
106.0639	44
107.0506	94
108.0552	26
109.0513	157
110.0589	479
111.0659	70
113.0392	13
114.0335	20
115.0546	301
116.0496	157
117.0504	138
117.0708	10
118.0517	65
118.0643	73
119.0595	186
120.0564	49
121.0292	18
121.0763	102
122.0352	13
122.0624	23
123.0449	47
123.0667	673
124.0756	133
126.0336	15
127.0444	20
128.0499	159
129.0439	128
130.0388	31
130.0656	120
131.0596	220
132.0463	89
132.079	68
133.0309	20
133.063	89
134.0496	15
134.0598	13
134.0698	36
135.0457	31
135.0663	298
137.0594	39
139.0416	13
140.0498	146
141.0512	44
142.0636	165
143.0597	99
143.0743	23
144.0554	298
145.0755	149
146.0701	288
147.0494	49
147.0663	152
148.0519	28
148.0736	133
149.0221	31
149.0779	180
152.0452	20
153.0445	41
154.0311	13
155.06	57
156.0448	107
157.036	23
157.0761	70
158.0671	112
159.0536	70
159.0926	49
160.0472	13
160.0776	89
161.0829	999
162.055	23
162.0911	152
163.0957	31
166.0506	13
167.0582	52
168.0453	10
168.0599	55
169.0589	23
169.0748	28
170.0668	170
171.0593	97
172.0437	68
172.076	81
173.0253	18
173.0532	39
173.082	138
174.066	99
174.092	18
175.0602	107
175.0994	107
176.0688	41
180.0552	20
181.0667	15
182.073	44
183.0682	47
184.0417	13
184.0856	110
185.0822	201
186.0655	57
186.0879	73
187.0513	18
187.0976	201
188.0648	20
189.0723	196
190.0467	13
190.0845	52
191.0918	23
194.0697	13
196.0463	13
197.0753	34
197.0886	20
198.0704	34
198.0884	26
199.0643	31
199.0988	83
200.0692	31
200.1045	13
201.077	55
201.1124	73
202.0892	10
203.094	112
204.086	18
211.0988	34
212.0881	15
213.0795	68
214.0621	39
214.0818	28
215.0866	39
215.0993	31
217.0678	28
218.0676	10
227.0933	47
228.1042	10
229.0732	47
229.1114	60
230.0802	36
231.0876	335
232.0984	36
233.1028	23
239.0981	23
243.0884	26
245.108	18
257.1018	20
