Mass spectrum: Methyl 3-hydroxybenzoate; LC-ESI-QTOF; MS2; 50 V
Name: Methyl 3-hydroxybenzoate
Class: Pharmaceutical
Formula: C8H8O3
Exact mass: 152.0473
SMILES: COC(=O)C1=CC(=CC=C1)O
InChI: InChI=1S/C8H8O3/c1-11-8(10)6-3-2-4-7(9)5-6/h2-5,9H,1H3
Instrument: TripleTOF 5600 SCIEX
Instrument type: LC-ESI-QTOF
Ms type: MS2
Ion mode: POSITIVE
Collision energy: 50
Fragmentation mode: CID
Ionization: ESI
Column name: Zorbax Eclipse Plus C18 2.1 mm x 150 mm, 3.5 um, Agilent
Retention time: 7.88 min
Precursor m/z: 153.0546
Precursor type: [M+H]+
m/z	relative intensity
37.0076	42
38.0146	42
39.0227	212
41.0403	21
51.022	42
53.0015	42
59.0123	63
65.0381	999
66.0463	212
77.0394	233
79.0183	42
79.0551	42
91.0547	21
93.0334	255
94.0386	212
121.0345	63
