Mass spectrum: Boscalid; LC-ESI-QTOF; MS2; 40 V
Name: Boscalid
Class: Fungicide
Formula: C18H12Cl2N2O
Exact mass: 342.0327
SMILES: C1=CC=C(C(=C1)C2=CC=C(C=C2)Cl)NC(=O)C3=C(N=CC=C3)Cl
InChI: InChI=1S/C18H12Cl2N2O/c19-13-9-7-12(8-10-13)14-4-1-2-6-16(14)22-18(23)15-5-3-11-21-17(15)20/h1-11H,(H,22,23)
Instrument: TripleTOF 6600 SCIEX
Instrument type: LC-ESI-QTOF
Ms type: MS2
Ion mode: POSITIVE
Collision energy: 40
Fragmentation mode: CID
Ionization: ESI
Column name: Zorbax Eclipse Plus C18 2.1 mm x 150 mm, 3.5 um, Agilent
Retention time: 12.31 min
Precursor m/z: 343.04
Precursor type: [M+H]+
m/z	relative intensity
76.0184	20
78.0335	83
111.9945	186
114.0097	25
139.9894	357
152.0624	13
216.0811	12
227.0728	11
228.0801	16
229.0883	10
242.0842	23
243.0917	74
244.0999	33
253.0766	57
254.0848	75
262.0397	11
264.0574	16
270.0794	20
271.0873	944
272.0947	934
289.0539	229
305.0479	14
307.0638	999
