Mass spectrum: Losartan; LC-ESI-QTOF; MS2; 140 V
Name: Losartan
Class: Pharmaceutical
Formula: C22H23ClN6O
Exact mass: 422.1622
SMILES: CCCCc1nc(c(n1Cc2ccc(cc2)c3ccccc3c4n[nH]nn4)CO)Cl
InChI: InChI=1S/C22H23ClN6O/c1-2-3-8-20-24-21(23)19(14-30)29(20)13-15-9-11-16(12-10-15)17-6-4-5-7-18(17)22-25-27-28-26-22/h4-7,9-12,30H,2-3,8,13-14H2,1H3,(H,25,26,27,28)
Instrument: TripleTOF 5600 SCIEX
Instrument type: LC-ESI-QTOF
Ms type: MS2
Ion mode: POSITIVE
Collision energy: 140
Fragmentation mode: CID
Ionization: ESI
Column name: Zorbax Eclipse Plus C18 2.1 mm x 150 mm, 3.5 um, Agilent
Retention time: 9.819 min
Precursor m/z: 423.1695
Precursor type: [M+H]+
m/z	relative intensity
51.0288	66
65.0414	17
74.0179	45
75.0257	103
76.0334	31
77.0416	237
78.0369	10
78.048	20
80.0514	22
86.017	26
87.0245	65
88.0314	17
89.0402	118
90.0486	14
91.0545	11
98.0154	40
99.0239	68
100.033	14
101.0383	77
102.0331	22
102.0461	56
110.0143	14
111.0228	20
112.0181	13
113.0384	176
114.0339	48
114.0453	28
115.0542	179
122.0136	11
123.0221	11
124.0319	16
125.0378	124
126.0464	220
127.0539	160
128.0537	78
137.0383	130
138.0318	20
138.0453	50
139.0539	269
140.0492	167
149.0387	83
150.0464	652
151.0542	999
152.0621	704
153.0425	13
153.0565	68
161.0373	37
162.047	118
163.0541	486
164.0542	449
165.0446	13
165.0702	229
166.0654	26
175.0417	28
176.0557	99
177.0572	333
178.0655	263
179.0723	25
187.0445	22
188.0496	164
189.0575	51
190.0652	127
191.0615	29
201.0579	11
203.0607	26
205.0746	90
212.0498	19
214.0649	13
