Mass spectrum: Methyl-tris(4-fluorophenyl)phosphonium; LC-ESI-QTOF; MS2; 140 V
Name: Methyl-tris(4-fluorophenyl)phosphonium
Class: Industrial_process
Formula: [C19H15F3P]+
Exact mass: 331.0858
SMILES: C[P+](c1ccc(F)cc1)(c2ccc(F)cc2)c3ccc(F)cc3
InChI: InChI=1S/C19H15F3P/c1-23(17-8-2-14(20)3-9-17,18-10-4-15(21)5-11-18)19-12-6-16(22)7-13-19/h2-13H,1H3/q+1
Instrument: TripleTOF 5600 SCIEX
Instrument type: LC-ESI-QTOF
Ms type: MS2
Ion mode: POSITIVE
Collision energy: 140
Fragmentation mode: CID
Ionization: ESI
Column name: Zorbax Eclipse Plus C18 2.1 mm x 150 mm, 3.5 um, Agilent
Retention time: 7.52 min
Precursor m/z: 331.0858
Precursor type: [M]+
m/z	relative intensity
57.0194	102
68.9724	141
74.0184	556
74.9821	420
75.0251	261
76.0318	90
78.9767	153
79.9836	363
81.0153	96
83.0308	85
85.0104	96
86.0174	90
87.0239	96
91.9824	79
92.9886	56
94.022	79
98.0152	539
98.9804	510
99.0232	227
103.9816	124
104.9911	62
107.0056	68
107.0293	113
110.0143	96
111.0231	85
120.036	73
122.0143	283
122.9792	153
123.0233	317
124.0312	73
124.9954	999
127.982	85
133.0436	51
144.0369	170
148.0314	62
149.0367	295
150.0471	471
155.0277	62
157.0444	85
162.0277	85
167.0328	124
168.0373	613
169.0452	221
170.0558	90
179.0016	119
180.0122	51
186.0268	68
187.037	124
188.0436	175
196.9938	96
198.003	79
199.0126	181
217.0047	68
