Mass spectrum: Guaifenesin; LC-ESI-QTOF; MS2; 80 V
Name: Guaifenesin
Formula: C10H14O4
Exact mass: 198.0892
SMILES: COC1=CC=CC=C1OCC(CO)O
InChI: InChI=1S/C10H14O4/c1-13-9-4-2-3-5-10(9)14-7-8(12)6-11/h2-5,8,11-12H,6-7H2,1H3
Instrument: TripleTOF X500R SCIEX
Instrument type: LC-ESI-QTOF
Ms type: MS2
Ion mode: POSITIVE
Collision energy: 80
Fragmentation mode: CID
Ionization: ESI
Column name: Zorbax Eclipse Plus C18 2.1 mm x 150 mm, 3.5 um, Agilent
Retention time: 6.298 min
Precursor m/z: 199.0965
Precursor type: [M+H]+
m/z	relative intensity
31.0172	90
37.0075	90
38.0147	136
39.023	454
41.0408	45
43.0167	90
45.0349	90
51.0232	999
53.0396	45
58.0287	90
60.9858	136
64.0312	181
65.039	408
77.0388	227
91.0543	90
121.0268	227
