Mass spectrum: 4-(4-Chloro-2-methylphenoxy)butanoic acid; LC-ESI-QTOF; MS2; 40 V
Name: 4-(4-Chloro-2-methylphenoxy)butanoic acid
Class: Herbicide
Formula: C11H13ClO3
Exact mass: 228.0553
SMILES: CC1=C(C=CC(=C1)Cl)OCCCC(=O)O
InChI: InChI=1S/C11H13ClO3/c1-8-7-9(12)4-5-10(8)15-6-2-3-11(13)14/h4-5,7H,2-3,6H2,1H3,(H,13,14)
Instrument: TripleTOF 6600 SCIEX
Instrument type: LC-ESI-QTOF
Ms type: MS2
Ion mode: POSITIVE
Collision energy: 40
Fragmentation mode: CID
Ionization: ESI
Column name: Zorbax Eclipse Plus C18 2.1 mm x 150 mm, 3.5 um, Agilent
Retention time: 11.775 min
Precursor m/z: 229.0626
Precursor type: [M+H]+
m/z	relative intensity
37.008	30
38.0146	23
39.0223	222
41.0381	691
43.0173	568
43.0536	61
44.9969	23
45.0332	999
57.0334	23
65.0392	15
69.0323	722
69.0686	15
77.0393	53
79.0515	23
81.0676	7
87.0434	699
89.0373	69
90.049	15
91.0528	276
92.062	30
93.0564	7
98.9979	30
103.0535	46
104.0591	15
105.0698	38
107.0487	38
108.0544	38
113.014	15
113.0179	15
113.0594	23
115.0538	84
116.0608	30
119.0859	15
125.0133	292
127.0309	92
127.0532	15
128.0609	76
129.0697	161
130.0769	130
132.0586	15
133.0615	46
139.0308	84
139.0519	15
141.0094	30
141.0448	15
143.027	30
147.0789	15
148.0865	23
155.0256	484
157.0643	38
157.0757	15
158.0725	115
167.0274	15
169.01	30
193.0408	15
