Mass spectrum: Methabenzthiazuron; LC-ESI-QTOF; MS2; 70 V
Name: Methabenzthiazuron
Class: Herbicide
Formula: C10H11N3OS
Exact mass: 221.0623
SMILES: CNC(=O)N(C)c1sc2ccccc2n1
InChI: InChI=1S/C10H11N3OS/c1-11-9(14)13(2)10-12-7-5-3-4-6-8(7)15-10/h3-6H,1-2H3,(H,11,14)
Instrument: TripleTOF 5600 SCIEX
Instrument type: LC-ESI-QTOF
Ms type: MS2
Ion mode: POSITIVE
Collision energy: 70
Fragmentation mode: CID
Ionization: ESI
Column name: Zorbax Eclipse Plus C18 2.1 mm x 150 mm, 3.5 um, Agilent
Retention time: 9.783 min
Precursor m/z: 222.0696
Precursor type: [M+H]+
m/z	relative intensity
53.0443	13
58.0335	28
65.0431	89
68.9835	61
69.9911	123
77.0415	24
78.0357	10
79.0445	26
80.0522	163
91.0429	22
92.0509	12
94.9959	115
96.0048	999
97.0099	21
105.0444	17
106.052	29
108.0022	16
109.0102	58
118.0519	66
122.0054	123
123.0139	409
124.0216	32
131.0592	18
150.0242	360
