Mass spectrum: 19-Nortestosterone; LC-ESI-QTOF; MS2; 60 V
Name: 19-Nortestosterone
Class: Pharmaceutical
Formula: C18H26O2
Exact mass: 274.1933
SMILES: C[C@]12CC[C@H]3[C@@H](CCC4=CC(=O)CC[C@H]34)[C@@H]1CC[C@@H]2O
InChI: InChI=1S/C18H26O2/c1-18-9-8-14-13-5-3-12(19)10-11(13)2-4-15(14)16(18)6-7-17(18)20/h10,13-17,20H,2-9H2,1H3/t13-,14+,15+,16-,17-,18-/m0/s1
Instrument: TripleTOF 5600 SCIEX
Instrument type: LC-ESI-QTOF
Ms type: MS2
Ion mode: POSITIVE
Collision energy: 60
Fragmentation mode: CID
Ionization: ESI
Column name: Zorbax Eclipse Plus C18 2.1 mm x 150 mm, 3.5 um, Agilent
Retention time: 10.421 min
Precursor m/z: 275.2006
Precursor type: [M+H]+
m/z	relative intensity
43.0275	30
55.0236	21
57.041	10
65.0429	104
66.0514	13
67.0581	249
69.0741	19
77.0415	670
79.057	851
81.0721	459
83.051	372
83.084	16
91.0564	999
93.0719	235
94.0444	32
95.05	21
95.0865	109
97.0664	30
103.0549	73
104.0648	27
105.0704	440
107.049	142
107.0865	54
109.065	588
109.101	16
115.0535	180
116.0623	46
117.0696	183
119.0849	131
123.0841	24
127.0541	54
128.0621	229
129.0699	213
130.0776	38
131.0857	104
133.0623	16
133.1003	27
135.0796	30
141.069	109
142.078	76
143.0849	71
145.1015	60
147.0804	19
152.0637	21
153.0686	43
154.0753	21
155.0872	68
156.0943	27
157.1005	24
159.0808	10
161.0935	16
165.0692	13
167.0838	41
169.0994	35
170.1075	10
171.1195	13
181.0999	16
185.1287	10
195.1139	13
