Mass spectrum: Fluroxypyr; LC-ESI-QTOF; MS2; 130 V
Name: Fluroxypyr
Class: Herbicide
Formula: C7H5Cl2FN2O3
Exact mass: 253.9661
SMILES: C(C(=O)O)OC1=NC(=C(C(=C1Cl)N)Cl)F
InChI: InChI=1S/C7H5Cl2FN2O3/c8-3-5(11)4(9)7(12-6(3)10)15-1-2(13)14/h1H2,(H2,11,12)(H,13,14)
Instrument: TripleTOF 6600 SCIEX
Instrument type: LC-ESI-QTOF
Ms type: MS2
Ion mode: POSITIVE
Collision energy: 130
Fragmentation mode: CID
Ionization: ESI
Column name: Zorbax Eclipse Plus C18 2.1 mm x 150 mm, 3.5 um, Agilent
Retention time: 8.859 min
Precursor m/z: 254.9734
Precursor type: [M+H]+
m/z	relative intensity
30.998	288
37.0072	192
46.0083	115
46.9679	249
51.0094	365
52.0187	115
54.9976	249
56.0057	249
60.9854	76
61.9779	172
62.0024	134
63.0109	115
64.0189	115
66.9733	403
70.0077	557
70.9681	326
71.9751	441
72.9819	96
74.9857	134
76.006	172
77.0128	749
82.0083	96
82.9458	96
85.9789	730
89.9658	999
90.9728	422
91.9685	115
96.9706	115
106.9445	134
124.9345	307
