Mass spectrum: Phenacetin; LC-ESI-QTOF; MS2; 90 V
Name: Phenacetin
Class: Pharmaceutical
Formula: C10H13NO2
Exact mass: 179.0946
SMILES: CCOC1=CC=C(C=C1)NC(=O)C
InChI: InChI=1S/C10H13NO2/c1-3-13-10-6-4-9(5-7-10)11-8(2)12/h4-7H,3H2,1-2H3,(H,11,12)
Instrument: TripleTOF 5600 SCIEX
Instrument type: LC-ESI-QTOF
Ms type: MS2
Ion mode: POSITIVE
Collision energy: 90
Fragmentation mode: CID
Ionization: ESI
Column name: Zorbax Eclipse Plus C18 2.1 mm x 150 mm, 3.5 um, Agilent
Retention time: 7.622 min
Precursor m/z: 180.1019
Precursor type: [M+H]+
m/z	relative intensity
35.9994	64
37.0074	290
38.0029	18
38.015	253
39.023	999
41.0259	36
42.0342	64
43.0179	897
44.0125	41
51.0226	142
52.0181	36
53.0025	41
53.0386	248
54.0338	59
65.0389	552
66.0464	156
67.0412	82
74.0158	23
77.0382	46
78.0332	18
80.0495	658
81.0577	23
92.0511	55
93.0565	87
94.0408	18
108.0437	36
