Mass spectrum: Tetraconazole; LC-ESI-QTOF; MS2; 120 V
Name: Tetraconazole
Class: Fungicide
Formula: C13H11Cl2F4N3O
Exact mass: 371.0215
SMILES: C1=CC(=C(C=C1Cl)Cl)C(CN2C=NC=N2)COC(C(F)F)(F)F
InChI: InChI=1S/C13H11Cl2F4N3O/c14-9-1-2-10(11(15)3-9)8(4-22-7-20-6-21-22)5-23-13(18,19)12(16)17/h1-3,6-8,12H,4-5H2
Instrument: TripleTOF 6600 SCIEX
Instrument type: LC-ESI-QTOF
Ms type: MS2
Ion mode: POSITIVE
Collision energy: 120
Fragmentation mode: CID
Ionization: ESI
Column name: Zorbax Eclipse Plus C18 2.1 mm x 150 mm, 3.5 um, Agilent
Retention time: 12.382 min
Precursor m/z: 372.0288
Precursor type: [M+H]+
m/z	relative intensity
39.0233	19
43.0293	78
46.9681	17
48.9842	23
51.0042	91
61.0076	34
62.0152	113
63.0233	253
65.0388	15
70.0404	166
72.9843	383
75.023	12
82.9449	36
86.0151	10
87.0231	29
88.031	72
89.0391	999
96.9842	129
98.9997	150
106.9449	13
107.0295	20
113.0386	19
114.0462	17
115.0546	163
122.9998	220
124.0075	52
132.9606	68
133.0454	12
158.9765	35
