Mass spectrum: Ofloxacin; LC-ESI-QTOF; MS2; 90 V
Name: Ofloxacin
Class: Antimicrobial; Pharmaceutical
Formula: C18H20FN3O4
Exact mass: 361.1438
SMILES: CC1COC2=C3N1C=C(C(=O)C3=CC(=C2N4CCN(CC4)C)F)C(=O)O
InChI: InChI=1S/C18H20FN3O4/c1-10-9-26-17-14-11(16(23)12(18(24)25)8-22(10)14)7-13(19)15(17)21-5-3-20(2)4-6-21/h7-8,10H,3-6,9H2,1-2H3,(H,24,25)
Instrument: TripleTOF 5600 SCIEX
Instrument type: LC-ESI-QTOF
Ms type: MS2
Ion mode: POSITIVE
Collision energy: 90
Fragmentation mode: CID
Ionization: ESI
Column name: Zorbax Eclipse Plus C18 2.1 mm x 150 mm, 3.5 um, Agilent
Retention time: 5.185 min
Precursor m/z: 362.1511
Precursor type: [M+H]+
m/z	relative intensity
42.0476	180
51.032	30
58.0723	120
70.0717	97
72.0839	45
74.0212	82
75.0281	307
76.0234	67
76.0416	37
77.0424	127
78.0369	82
80.0547	30
81.019	52
83.0331	90
87.0319	30
89.0424	120
90.0371	90
91.057	105
93.0168	90
94.0229	52
95.0318	338
96.0305	180
97.034	52
100.02	135
101.0416	142
102.0367	353
103.0404	82
103.0528	75
104.0153	67
104.0516	240
106.0256	30
107.0296	195
108.03	142
109.0349	37
109.0465	97
110.0405	75
113.0394	75
114.0362	97
115.0543	202
116.0519	195
117.0467	127
117.0613	30
118.0556	30
120.0256	127
120.0387	75
121.0337	150
122.0405	999
123.0251	90
123.0485	195
124.0212	37
124.055	37
126.0336	45
127.0313	60
127.0416	37
128.0486	247
129.046	165
129.062	37
130.0305	135
130.0661	67
131.0627	37
132.027	97
132.0448	75
133.0452	270
134.0415	300
135.0465	232
136.0193	45
136.0566	60
137.028	60
137.0447	60
138.0341	157
140.0503	105
141.045	75
141.0561	60
142.0527	97
143.0598	135
144.0447	37
145.0393	172
146.0413	150
146.0645	30
147.0374	345
147.0641	30
148.0224	157
148.053	195
149.0281	30
149.0522	105
150.0343	480
150.0577	37
151.0408	398
152.0391	232
153.0425	37
154.0401	30
154.0691	67
155.0599	165
156.0651	165
157.0382	225
157.0787	37
158.0242	165
158.0442	37
159.0487	157
160.0549	225
161.0509	172
162.0354	120
162.0619	67
163.0311	90
163.0449	52
163.0639	37
164.0486	90
165.0476	300
166.0314	75
166.0536	37
167.0645	67
168.0622	82
169.0764	105
170.056	105
171.055	157
172.0576	60
173.0509	52
174.0329	52
174.0629	45
175.0382	112
175.0626	67
176.015	37
176.0484	97
177.0429	37
177.0547	37
178.0298	127
178.0567	37
179.0362	210
179.0591	52
180.0436	67
181.0612	45
182.0712	52
183.054	67
185.0369	105
185.063	52
186.0602	45
187.0309	30
187.064	52
188.0392	52
188.0517	75
189.0454	105
190.0322	37
190.0539	52
191.0585	45
192.0473	52
193.0381	97
194.0483	247
195.0545	37
195.0932	45
198.063	30
199.0457	30
200.0555	45
201.0497	52
202.0566	45
203.0317	52
203.0597	157
204.0323	30
204.0449	37
205.0397	315
205.079	30
209.068	45
210.0683	52
215.0627	52
217.0492	37
217.0705	37
219.058	97
221.0703	37
222.0874	45
224.0795	60
231.0545	75
