Mass spectrum: Erlotinib; LC-ESI-QTOF; MS2; 140 V
Name: Erlotinib
Class: Pharmaceutical
Formula: C22H23N3O4
Exact mass: 393.1689
SMILES: COCCOC1=C(C=C2C(=C1)C(=NC=N2)NC3=CC=CC(=C3)C#C)OCCOC
InChI: InChI=1S/C22H23N3O4/c1-4-16-6-5-7-17(12-16)25-22-18-13-20(28-10-8-26-2)21(29-11-9-27-3)14-19(18)23-15-24-22/h1,5-7,12-15H,8-11H2,2-3H3,(H,23,24,25)
Instrument: TripleTOF 5600 SCIEX
Instrument type: LC-ESI-QTOF
Ms type: MS2
Ion mode: POSITIVE
Collision energy: 140
Fragmentation mode: CID
Ionization: ESI
Column name: Zorbax Eclipse Plus C18 2.1 mm x 150 mm, 3.5 um, Agilent
Retention time: 7.429 min
Precursor m/z: 394.1761
Precursor type: [M+H]+
m/z	relative intensity
39.0233	30
50.0155	100
51.0232	211
52.018	49
53.0383	10
55.0183	33
59.0491	21
61.0072	27
62.0153	34
63.0228	64
64.0184	12
65.0381	45
66.034	27
68.0132	15
73.0069	51
74.0152	536
75.0233	999
76.0174	82
76.0292	22
77.0264	97
77.0383	88
78.0337	60
79.0177	22
80.0134	27
81.0337	13
86.0145	18
87.0229	34
88.0182	84
89.0385	150
90.0463	24
91.0548	24
93.0445	33
94.0281	12
98.0143	61
99.0229	115
100.0185	22
100.0308	18
101.0385	159
102.0332	30
102.0447	22
103.0299	18
104.0374	31
105.0449	18
106.0298	19
108.0213	28
111.0217	18
112.0177	12
113.0386	75
114.033	40
114.0459	12
115.0537	34
116.0491	25
117.058	18
121.0398	18
122.0157	30
123.0224	67
124.0192	24
124.0303	13
125.0386	115
126.0453	87
127.0473	57
128.0485	24
129.0469	10
137.0389	63
138.0411	90
139.0383	19
139.0542	81
140.0492	112
141.0578	16
148.0302	18
149.0379	160
150.0457	312
151.052	153
152.0493	106
153.0513	52
154.0468	10
154.0665	15
155.0602	21
161.0362	37
162.0415	36
163.0491	52
164.049	222
165.0505	99
166.0624	34
167.061	19
174.0387	27
175.0415	159
176.0503	174
177.056	130
178.0655	33
179.0614	34
186.034	21
187.0398	16
188.0484	58
189.0456	33
190.0544	43
191.0607	67
192.0679	88
193.073	12
201.0448	12
202.0525	48
203.0613	118
204.0575	19
213.0442	15
217.0662	34
218.0681	15
229.0596	16
230.0723	39
