Mass spectrum: Oxycodone; LC-ESI-QTOF; MS2; 90 V
Name: Oxycodone
Class: Pharmaceutical
Formula: C18H21NO4
Exact mass: 315.1471
SMILES: CN1CCC23C4C(=O)CCC2(C1CC5=C3C(=C(C=C5)OC)O4)O
InChI: InChI=1S/C18H21NO4/c1-19-8-7-17-14-10-3-4-12(22-2)15(14)23-16(17)11(20)5-6-18(17,21)13(19)9-10/h3-4,13,16,21H,5-9H2,1-2H3
Instrument: TripleTOF 6600 SCIEX
Instrument type: LC-ESI-QTOF
Ms type: MS2
Ion mode: POSITIVE
Collision energy: 90
Fragmentation mode: CID
Ionization: ESI
Column name: Zorbax Eclipse Plus C18 2.1 mm x 150 mm, 3.5 um, Agilent
Retention time: 5.206 min
Precursor m/z: 316.1543
Precursor type: [M+H]+
m/z	relative intensity
39.0223	14
42.0331	55
44.0489	25
51.0223	21
63.0218	21
65.0369	45
75.0219	13
76.0297	14
77.0372	252
78.0452	100
79.0525	20
80.0477	13
88.0284	10
89.0369	123
90.0449	28
91.0521	136
92.0482	10
93.0551	10
94.063	34
101.0367	39
102.0452	153
103.0529	212
104.0588	27
105.0676	11
113.0385	26
114.045	48
115.0527	775
116.0602	87
117.0568	69
118.0389	39
125.0383	10
126.0443	73
127.053	494
128.0604	716
129.0679	120
130.0632	37
131.0479	280
131.0696	36
132.0565	72
132.0779	40
139.0532	318
140.0535	135
141.0677	295
142.0622	57
143.0487	22
143.0727	84
144.0557	50
144.079	26
145.0618	17
150.0444	31
151.0531	158
152.0608	739
153.0642	326
154.0635	540
155.0596	384
156.0577	29
156.0797	50
157.0622	29
157.0859	12
158.069	12
158.0955	10
159.0401	10
160.0474	15
163.0537	34
164.0608	65
165.0681	243
166.064	399
167.0722	379
168.0797	999
169.0614	42
169.086	375
170.0326	13
170.0643	29
170.0938	71
171.0452	18
171.077	12
172.0744	13
176.062	53
177.0642	34
178.0707	102
179.0729	64
180.0793	259
181.0654	64
181.0866	444
182.0595	175
182.0957	109
183.0421	66
183.0666	82
184.05	65
184.0748	43
184.1105	23
185.0589	21
189.0673	27
190.0625	21
191.0724	35
192.0816	57
193.0861	30
194.064	19
194.0953	80
195.0727	28
195.1058	10
196.0741	230
197.0598	33
197.0813	97
198.0605	16
198.0877	50
199.0718	16
203.0714	14
204.0794	40
205.0659	13
206.0589	14
206.0954	12
208.0723	36
209.0788	11
210.0541	49
210.0889	53
211.0609	61
212.0684	21
212.1069	38
214.0827	11
218.0941	15
220.0752	21
221.0833	11
222.0885	23
224.0695	46
224.1065	11
225.0797	28
226.0857	42
236.0704	11
238.0851	37
240.0993	11
