Mass spectrum: Domiphen; LC-ESI-QTOF; MS2; 40 V
Name: Domiphen
Class: Pharmaceutical
Formula: C22H40NO
Exact mass: 334.3104
InChI: InChI=1S/C22H40NO/c1-4-5-6-7-8-9-10-11-12-16-19-23(2,3)20-21-24-22-17-14-13-15-18-22/h13-15,17-18H,4-12,16,19-21H2,1-3H3/q+1
Instrument: TripleTOF 5600 SCIEX
Instrument type: LC-ESI-QTOF
Ms type: CID
Ion mode: POSITIVE
Collision energy: 40
Ionization: ESI
Column name: Zorbax Eclipse Plus C18 2.1 mm x 150 mm, 3.5 um, Agilent
Retention time: 12.027 min
Precursor m/z: 334.3104
Precursor type: [M]+
m/z	relative intensity
58.0708	215
72.0844	423
77.0412	77
91.0549	53
93.0703	75
121.0651	148
166.1229	208
214.2522	85
334.3102	999
