Mass spectrum: Fenhexamid; LC-ESI-QTOF; MS2; 50 V
Name: Fenhexamid
Class: Fungicide
Formula: C14H17Cl2NO2
Exact mass: 301.0636
SMILES: CC1(CCCCC1)C(=O)Nc2ccc(c(c2Cl)Cl)O
InChI: InChI=1S/C14H17Cl2NO2/c1-14(7-3-2-4-8-14)13(19)17-9-5-6-10(18)12(16)11(9)15/h5-6,18H,2-4,7-8H2,1H3,(H,17,19)
Instrument: TripleTOF 6600 SCIEX
Instrument type: LC-ESI-QTOF
Ms type: MS2
Ion mode: NEGATIVE
Collision energy: 50
Fragmentation mode: CID
Ionization: ESI
Column name: Zorbax Eclipse Plus C18 2.1 mm x 150 mm, 3.5 um, Agilent
Retention time: 12.5 min
Precursor m/z: 300.0563
Precursor type: [M-H]-
m/z	relative intensity
34.9702	351
120.0095	25
138.984	105
155.9861	71
157.0531	38
166.978	46
167.9845	80
174.9606	59
180.9925	198
184.0383	42
184.0775	71
185.0522	46
185.0839	139
191.9864	55
192.9941	169
194.0038	139
195.0103	105
200.1054	29
206.0077	33
207.0102	55
208.0145	84
212.0714	131
213.0799	105
220.0176	342
221.0257	440
228.1	33
234.0299	55
248.0485	999
249.0558	465
264.0774	376
