Mass spectrum: Propyphenazone; LC-ESI-QTOF; MS2; 70 V
Name: Propyphenazone
Class: Pharmaceutical
Formula: C14H18N2O
Exact mass: 230.1419
SMILES: CC1=C(C(=O)N(N1C)C2=CC=CC=C2)C(C)C
InChI: InChI=1S/C14H18N2O/c1-10(2)13-11(3)15(4)16(14(13)17)12-8-6-5-7-9-12/h5-10H,1-4H3
Instrument: TripleTOF 5600 SCIEX
Instrument type: LC-ESI-QTOF
Ms type: MS2
Ion mode: POSITIVE
Collision energy: 70
Fragmentation mode: CID
Ionization: ESI
Column name: Zorbax Eclipse Plus C18 2.1 mm x 150 mm, 3.5 um, Agilent
Retention time: 9.545 min
Precursor m/z: 231.1492
Precursor type: [M+H]+
m/z	relative intensity
39.0233	51
41.0387	35
42.0344	49
43.0543	9
44.0492	9
50.0158	35
51.0234	173
53.0384	47
54.0347	9
55.0543	33
56.05	797
58.0655	15
63.0239	9
65.0389	185
66.0465	11
67.0206	11
67.0422	125
67.0543	21
68.0499	19
70.065	11
77.0392	999
78.0344	13
78.0465	21
79.055	55
80.0499	175
81.0571	111
82.0657	291
89.0392	59
90.0461	31
91.0546	103
92.0495	91
93.0586	45
94.0657	189
95.0552	13
95.0721	19
96.0814	93
101.0382	9
102.0467	19
103.0546	49
104.0505	75
106.0676	15
108.0419	13
115.0553	169
116.0482	17
116.0623	21
117.0573	125
118.0657	47
120.0828	19
127.0543	17
128.0541	59
129.0587	15
130.0659	187
131.0617	35
132.0813	13
139.091	11
140.0502	21
142.067	27
143.0729	73
144.0814	31
145.0778	23
156.0813	11
157.0766	13
159.0916	11
171.0564	19
185.071	25
