Mass spectrum: Tetracycline; LC-ESI-QTOF; MS2; 120 V
Name: Tetracycline
Class: Pharmaceutical
Formula: C22H24N2O8
Exact mass: 444.1533
SMILES: CC1(C2CC3C(C(=O)C(=C(C3(C(=O)C2=C(C4=C1C=CC=C4O)O)O)O)C(=O)N)N(C)C)O
InChI: InChI=1S/C22H24N2O8/c1-21(31)8-5-4-6-11(25)12(8)16(26)13-9(21)7-10-15(24(2)3)17(27)14(20(23)30)19(29)22(10,32)18(13)28/h4-6,9-10,15,25-26,29,31-32H,7H2,1-3H3,(H2,23,30)
Instrument: TripleTOF 5600 SCIEX
Instrument type: LC-ESI-QTOF
Ms type: MS2
Ion mode: POSITIVE
Collision energy: 120
Fragmentation mode: CID
Ionization: ESI
Column name: Zorbax Eclipse Plus C18 2.1 mm x 150 mm, 3.5 um, Agilent
Retention time: 5.46 min
Precursor m/z: 445.1605
Precursor type: [M+H]+
m/z	relative intensity
42.0332	48
68.0493	24
68.9986	48
70.065	48
77.0401	48
95.0156	24
98.0596	24
114.0472	48
115.0548	243
127.0591	73
128.0612	73
128.0736	24
139.0543	584
140.0609	219
141.0708	97
150.0439	73
150.0521	24
151.0535	243
152.0624	999
163.0555	146
164.0587	97
165.0691	414
166.0761	24
167.0534	24
168.0576	219
169.0648	121
170.0736	48
176.0629	365
176.0763	24
177.0698	97
178.0752	97
179.0499	121
180.0583	121
181.0522	97
189.0704	121
194.0777	73
197.056	121
226.0697	121
