Mass spectrum: Prednisolone; LC-ESI-QTOF; MS2; 20 V
Name: Prednisolone
Class: Pharmaceutical
Formula: C21H28O5
Exact mass: 360.1937
SMILES: C[C@]12C[C@H](O)[C@H]3[C@@H](CCC4=CC(=O)C=C[C@]34C)[C@@H]1CC[C@]2(O)C(=O)CO
InChI: InChI=1S/C21H28O5/c1-19-7-5-13(23)9-12(19)3-4-14-15-6-8-21(26,17(25)11-22)20(15,2)10-16(24)18(14)19/h5,7,9,14-16,18,22,24,26H,3-4,6,8,10-11H2,1-2H3/t14-,15-,16-,18+,19-,20-,21-/m0/s1
Instrument: TripleTOF 5600 SCIEX
Instrument type: LC-ESI-QTOF
Ms type: MS2
Ion mode: POSITIVE
Collision energy: 20
Fragmentation mode: CID
Ionization: ESI
Column name: Zorbax Eclipse Plus C18 2.1 mm x 150 mm, 3.5 um, Agilent
Retention time: 8.432 min
Precursor m/z: 361.201
Precursor type: [M+H]+
m/z	relative intensity
121.0655	28
135.0806	24
147.0813	221
159.0796	11
161.0975	27
163.0764	17
165.0915	24
171.0814	90
173.0969	96
185.0972	16
187.111	15
197.0963	24
199.1119	27
209.0965	12
211.1132	25
213.1261	14
221.0953	14
223.1123	94
225.1276	28
227.144	10
235.1116	11
237.1276	49
239.1442	57
241.1579	21
247.1124	12
249.1288	34
251.1443	21
261.1287	15
263.1436	59
265.1598	131
266.1672	41
267.1754	72
274.1369	13
277.1594	72
279.1415	22
279.1755	152
281.1535	12
283.1712	28
285.1856	31
289.1602	219
295.1698	49
297.1858	28
307.1709	358
313.1811	15
325.181	435
343.1922	999
