Mass spectrum: Norfloxacin; LC-ESI-QTOF; MS2; 140 V
Name: Norfloxacin
Class: Antimicrobial; Pharmaceutical
Formula: C16H18FN3O3
Exact mass: 319.1332
SMILES: CCN1C=C(C(=O)C2=CC(=C(C=C21)N3CCNCC3)F)C(=O)O
InChI: InChI=1S/C16H18FN3O3/c1-2-19-9-11(16(22)23)15(21)10-7-12(17)14(8-13(10)19)20-5-3-18-4-6-20/h7-9,18H,2-6H2,1H3,(H,22,23)
Instrument: TripleTOF 5600 SCIEX
Instrument type: LC-ESI-QTOF
Ms type: MS2
Ion mode: POSITIVE
Collision energy: 140
Fragmentation mode: CID
Ionization: ESI
Column name: Zorbax Eclipse Plus C18 2.1 mm x 150 mm, 3.5 um, Agilent
Retention time: 5.167 min
Precursor m/z: 320.1405
Precursor type: [M+H]+
m/z	relative intensity
57.0211	293
74.0197	763
75.0283	881
81.0186	293
86.0212	528
87.0162	235
87.026	293
95.0301	293
98.0194	411
99.0234	587
100.0202	411
105.0141	528
106.0193	411
107.0292	940
114.0369	235
132.0267	999
