Mass spectrum: Formononetin; LC-ESI-QTOF; MS2; 80 V
Name: Formononetin
Class: Metabolite; Metabolite; Pharmaceutical
Formula: C16H12O4
Exact mass: 268.0736
SMILES: COc1ccc(cc1)C2=COc3cc(O)ccc3C2=O
InChI: InChI=1S/C16H12O4/c1-19-12-5-2-10(3-6-12)14-9-20-15-8-11(17)4-7-13(15)16(14)18/h2-9,17H,1H3
Instrument: TripleTOF 5600 SCIEX
Instrument type: LC-ESI-QTOF
Ms type: MS2
Ion mode: POSITIVE
Collision energy: 80
Fragmentation mode: CID
Ionization: ESI
Column name: Zorbax Eclipse Plus C18 2.1 mm x 150 mm, 3.5 um, Agilent
Retention time: 10.093 min
Precursor m/z: 269.0808
Precursor type: [M+H]+
m/z	relative intensity
64.0357	39
65.0427	37
69.002	56
75.0264	26
77.0421	177
80.0298	22
81.0364	64
89.042	664
90.0488	192
91.0565	59
92.0284	42
101.0394	16
102.0462	44
103.0547	16
105.0356	13
108.022	20
115.0561	999
116.0633	15
118.041	51
125.0383	10
126.047	40
127.0548	147
128.0626	133
129.0687	11
131.0484	18
137.0228	37
139.0553	188
140.0631	40
141.071	467
142.0435	14
144.0562	16
150.0477	64
151.0555	217
152.063	398
153.0711	53
155.0494	46
163.0546	12
165.0696	10
168.0581	132
169.066	171
171.0464	23
179.0509	34
181.0648	53
196.0521	56
197.0611	173
225.0568	23
