Mass spectrum: 3,3`-Dichlorobenzidine; LC-ESI-QTOF; MS2; 40 V
Name: 3,3`-Dichlorobenzidine
Formula: C12H10Cl2N2
Exact mass: 252.0221
SMILES: C1=CC(=C(C=C1C2=CC(=C(C=C2)N)Cl)Cl)N
InChI: InChI=1S/C12H10Cl2N2/c13-9-5-7(1-3-11(9)15)8-2-4-12(16)10(14)6-8/h1-6H,15-16H2
Instrument: TripleTOF 6600 SCIEX
Instrument type: LC-ESI-QTOF
Ms type: MS2
Ion mode: POSITIVE
Collision energy: 40
Fragmentation mode: CID
Ionization: ESI
Column name: Zorbax Eclipse Plus C18 2.1 mm x 150 mm, 3.5 um, Agilent
Retention time: 11.426 min
Precursor m/z: 253.0294
Precursor type: [M+H]+
m/z	relative intensity
127.0194	28
127.0542	14
130.065	20
131.0741	19
154.0655	248
155.0729	74
164.0255	23
165.0574	38
181.0765	435
182.0847	999
190.0423	492
201.0349	63
216.0464	35
217.0535	382
218.061	315
252.0225	63
253.0283	26
