Mass spectrum: Aclonifen; LC-ESI-QTOF; MS2; 130 V
Name: Aclonifen
Class: Herbicide
Formula: C12H9ClN2O3
Exact mass: 264.0302
SMILES: Nc1c(Cl)c(Oc2ccccc2)ccc1[N+]([O-])=O
InChI: InChI=1S/C12H9ClN2O3/c13-11-10(18-8-4-2-1-3-5-8)7-6-9(12(11)14)15(16)17/h1-7H,14H2
Instrument: TripleTOF 5600 SCIEX
Instrument type: LC-ESI-QTOF
Ms type: MS2
Ion mode: POSITIVE
Collision energy: 130
Fragmentation mode: CID
Ionization: ESI
Column name: Zorbax Eclipse Plus C18 2.1 mm x 150 mm, 3.5 um, Agilent
Retention time: 13.815 min
Precursor m/z: 265.0374
Precursor type: [M+H]+
m/z	relative intensity
52.0239	285
73.0081	118
74.0185	999
75.027	880
76.0213	142
76.0327	214
77.0413	856
77.0545	95
78.049	118
84.9852	95
85.0099	166
85.9806	166
86.0169	333
87.0231	214
88.0338	118
89.0395	95
98.0163	356
99.0235	166
126.0459	309
