Mass spectrum: Meperidine; LC-ESI-QTOF; MS2; 60 V
Name: Meperidine
Class: Pharmaceutical
Formula: C15H21NO2
Exact mass: 247.1572
SMILES: CCOC(=O)C1(CCN(CC1)C)C2=CC=CC=C2
InChI: InChI=1S/C15H21NO2/c1-3-18-14(17)15(9-11-16(2)12-10-15)13-7-5-4-6-8-13/h4-8H,3,9-12H2,1-2H3
Instrument: TripleTOF 6600 SCIEX
Instrument type: LC-ESI-QTOF
Ms type: MS2
Ion mode: POSITIVE
Collision energy: 60
Fragmentation mode: CID
Ionization: ESI
Column name: Zorbax Eclipse Plus C18 2.1 mm x 150 mm, 3.5 um, Agilent
Retention time: 6.573 min
Precursor m/z: 248.1645
Precursor type: [M+H]+
m/z	relative intensity
39.0223	10
42.0336	241
43.041	11
44.0492	261
51.0223	10
53.0383	26
55.0535	23
57.0568	17
58.065	10
65.0378	74
70.0646	416
77.0378	271
79.0531	42
80.0492	10
81.0561	13
82.0641	63
83.0722	15
91.0536	999
94.0639	20
96.0799	67
98.0955	10
99.0418	10
102.0456	19
103.0534	595
105.0354	12
105.0681	63
115.0533	353
116.0611	147
117.069	69
127.0537	43
128.0609	152
129.0689	102
130.075	19
131.0842	68
158.097	27
172.1119	10
174.1273	136
