Mass spectrum: Chlorothiazide; LC-ESI-QTOF; MS2; 110 V
Name: Chlorothiazide
Class: Pharmaceutical; Transformation_product-Metabolite
Formula: C7H6ClN3O4S2
Exact mass: 294.9488
SMILES: N[S](=O)(=O)c1cc2c(NC=N[S]2(=O)=O)cc1Cl
InChI: InChI=1S/C7H6ClN3O4S2/c8-4-1-5-7(2-6(4)16(9,12)13)17(14,15)11-3-10-5/h1-3H,(H,10,11)(H2,9,12,13)
Instrument: TripleTOF 5600 SCIEX
Instrument type: LC-ESI-QTOF
Ms type: MS2
Ion mode: NEGATIVE
Collision energy: 110
Fragmentation mode: CID
Ionization: ESI
Column name: Zorbax Eclipse Plus C18 2.1 mm x 150 mm, 3.5 um, Agilent
Retention time: 5.43 min
Precursor m/z: 293.9415
Precursor type: [M-H]-
m/z	relative intensity
34.9727	729
50.004	323
50.0109	80
56.9817	108
57.9758	108
60.0013	269
61.968	54
62.0055	108
63.0111	80
63.9625	108
64.0047	134
65.0138	809
65.0239	80
65.9974	80
74.0009	108
77.9614	108
86.0005	485
87.0086	539
88.016	729
89.0123	269
101.9604	80
112.003	108
113.0118	567
114.0196	161
115.0269	999
116.0322	80
178.9883	432
