Mass spectrum: p-Phenetidine; LC-ESI-QTOF; MS2; 60 V
Name: p-Phenetidine
Formula: C8H11NO
Exact mass: 137.0841
SMILES: CCOC1=CC=C(C=C1)N
InChI: InChI=1S/C8H11NO/c1-2-10-8-5-3-7(9)4-6-8/h3-6H,2,9H2,1H3
Instrument: TripleTOF 6600 SCIEX
Instrument type: LC-ESI-QTOF
Ms type: MS2
Ion mode: POSITIVE
Collision energy: 60
Fragmentation mode: CID
Ionization: ESI
Column name: Zorbax Eclipse Plus C18 2.1 mm x 150 mm, 3.5 um, Agilent
Retention time: 4.84 min
Precursor m/z: 138.0914
Precursor type: [M+H]+
m/z	relative intensity
36.0001	15
37.0085	154
38.0162	144
39.0239	786
50.0172	27
51.0242	66
53.0397	110
61.0075	32
62.0158	61
63.0239	311
64.0317	23
65.0393	384
66.0472	35
67.0442	27
74.0158	20
77.039	17
80.0502	999
81.0575	25
92.0504	18
93.0589	39
108.0447	56
109.0537	27
