Mass spectrum: Dihexyl phthalate; LC-ESI-QTOF; MS2; 80 V
Name: Dihexyl phthalate
Class: Industrial_process
Formula: C20H30O4
Exact mass: 334.2144
SMILES: CCCCCCOC(=O)C1=CC=CC=C1C(=O)OCCCCCC
InChI: InChI=1S/C20H30O4/c1-3-5-7-11-15-23-19(21)17-13-9-10-14-18(17)20(22)24-16-12-8-6-4-2/h9-10,13-14H,3-8,11-12,15-16H2,1-2H3
Instrument: TripleTOF 6600 SCIEX
Instrument type: LC-ESI-QTOF
Ms type: MS2
Ion mode: POSITIVE
Collision energy: 80
Fragmentation mode: CID
Ionization: ESI
Column name: Zorbax Eclipse Plus C18 2.1 mm x 150 mm, 3.5 um, Agilent
Retention time: 18.102 min
Precursor m/z: 335.2217
Precursor type: [M+H]+
m/z	relative intensity
65.0373	999
93.0329	249
