Mass spectrum: 3-Hydroxycarbamazepine; LC-ESI-QTOF; MS2; 140 V
Name: 3-Hydroxycarbamazepine
Class: Pharmaceutical
Formula: C15H12N2O2
Exact mass: 252.0899
SMILES: NC(=O)N1c2ccccc2C=Cc3ccc(O)cc13
InChI: InChI=1S/C15H12N2O2/c16-15(19)17-13-4-2-1-3-10(13)5-6-11-7-8-12(18)9-14(11)17/h1-9,18H,(H2,16,19)
Instrument: TripleTOF 5600 SCIEX
Instrument type: LC-ESI-QTOF
Ms type: MS2
Ion mode: POSITIVE
Collision energy: 140
Fragmentation mode: CID
Ionization: ESI
Column name: Zorbax Eclipse Plus C18 2.1 mm x 150 mm, 3.5 um, Agilent
Retention time: 7.917 min
Precursor m/z: 253.0972
Precursor type: [M+H]+
m/z	relative intensity
44.0208	33
52.0364	38
60.0046	55
62.0518	22
63.0519	49
64.0341	22
65.043	94
73.0111	127
74.0184	999
75.0251	549
76.0203	49
76.0327	172
77.0411	438
78.0489	66
84.0025	33
85.0087	199
86.017	527
87.0244	444
88.0194	83
88.032	105
89.0398	582
90.0365	22
97.0086	55
98.0159	482
98.0572	27
99.0117	55
99.0237	183
100.0301	61
101.0373	94
102.0462	127
109.0048	61
110.0146	172
110.0316	27
111.0229	99
112.0193	38
113.0377	321
114.032	66
115.0535	88
122.016	66
123.0217	27
124.0294	33
125.0388	116
126.0466	260
127.0541	55
128.0501	33
134.0131	33
134.0228	27
137.0377	122
138.0466	33
139.0533	133
140.0491	88
149.0376	72
150.0457	471
151.0406	44
151.0544	222
152.0603	111
161.0376	99
162.0455	111
163.0537	149
164.0496	49
176.0489	44
177.0557	38
178.0632	38
189.0569	38
