Mass spectrum: Meptazinol; LC-ESI-QTOF; MS2; 30 V
Name: Meptazinol
Class: Pharmaceutical
Formula: C15H23NO
Exact mass: 233.178
SMILES: CCC1(CCCCN(C1)C)C2=CC(=CC=C2)O
InChI: InChI=1S/C15H23NO/c1-3-15(9-4-5-10-16(2)12-15)13-7-6-8-14(17)11-13/h6-8,11,17H,3-5,9-10,12H2,1-2H3
Instrument: TripleTOF 5600 SCIEX
Instrument type: LC-ESI-QTOF
Ms type: MS2
Ion mode: POSITIVE
Collision energy: 30
Fragmentation mode: CID
Ionization: ESI
Column name: Zorbax Eclipse Plus C18 2.1 mm x 150 mm, 3.5 um, Agilent
Retention time: 5.641 min
Precursor m/z: 234.1852
Precursor type: [M+H]+
m/z	relative intensity
44.0495	48
55.054	19
67.054	25
77.038	27
79.0541	18
83.0852	20
84.0807	26
91.0544	14
95.0853	39
105.0699	27
107.0489	847
109.1012	38
119.0855	11
121.0647	117
126.1275	43
133.0649	192
135.0798	45
146.0719	15
147.0804	167
161.096	177
234.1854	999
