Mass spectrum: Metolachlor; LC-ESI-QTOF; MS2; 90 V
Name: Metolachlor
Class: Herbicide
Formula: C15H22ClNO2
Exact mass: 283.1339
SMILES: CCc1cccc(C)c1N(C(C)COC)C(=O)CCl
InChI: InChI=1S/C15H22ClNO2/c1-5-13-8-6-7-11(2)15(13)17(14(18)9-16)12(3)10-19-4/h6-8,12H,5,9-10H2,1-4H3
Instrument: TripleTOF 5600 SCIEX
Instrument type: LC-ESI-QTOF
Ms type: MS2
Ion mode: POSITIVE
Collision energy: 90
Fragmentation mode: CID
Ionization: ESI
Column name: Zorbax Eclipse Plus C18 2.1 mm x 150 mm, 3.5 um, Agilent
Retention time: 13.304 min
Precursor m/z: 284.1412
Precursor type: [M+H]+
m/z	relative intensity
45.0412	136
48.9902	131
51.0282	63
65.0428	403
66.0492	32
73.067	69
75.0256	11
76.9807	10
77.0413	649
78.0483	154
79.056	61
80.0519	14
89.0399	108
90.0467	72
91.0562	999
92.0512	11
92.0636	18
93.0587	323
94.0421	18
101.0385	14
102.0471	34
103.0549	238
104.05	42
104.0606	68
105.0696	82
106.0649	172
107.0717	32
108.0813	33
115.0542	489
116.0495	30
116.0611	52
117.0577	480
118.0652	277
119.0726	113
120.0807	39
127.0535	37
128.0551	74
129.0625	29
130.0652	748
130.0949	11
131.0726	186
132.0806	199
133.0888	20
141.0583	12
142.0645	72
143.073	158
144.081	385
145.0868	28
146.0589	24
146.0963	18
156.0819	25
157.0884	16
158.0968	29
