Mass spectrum: Olmesartan; LC-ESI-QTOF; MS2; 130 V
Name: Olmesartan
Class: Pharmaceutical
Formula: C24H26N6O3
Exact mass: 446.2066
SMILES: CCCc1nc(c(n1Cc2ccc(cc2)c3ccccc3c4n[nH]nn4)C(O)=O)C(C)(C)O
InChI: InChI=1S/C24H26N6O3/c1-4-7-19-25-21(24(2,3)33)20(23(31)32)30(19)14-15-10-12-16(13-11-15)17-8-5-6-9-18(17)22-26-28-29-27-22/h5-6,8-13,33H,4,7,14H2,1-3H3,(H,31,32)(H,26,27,28,29)
Instrument: TripleTOF 5600 SCIEX
Instrument type: LC-ESI-QTOF
Ms type: MS2
Ion mode: POSITIVE
Collision energy: 130
Fragmentation mode: CID
Ionization: ESI
Column name: Zorbax Eclipse Plus C18 2.1 mm x 150 mm, 3.5 um, Agilent
Retention time: 7.356 min
Precursor m/z: 447.2139
Precursor type: [M+H]+
m/z	relative intensity
53.0442	11
74.0178	10
75.025	25
77.0409	135
78.0471	13
80.0517	21
87.0245	20
88.0291	15
89.0398	46
99.0226	17
101.0383	33
102.0338	11
102.0454	33
113.0384	87
114.0326	21
114.0462	29
115.0538	77
125.0378	55
126.0461	105
127.054	142
128.0604	81
137.038	64
138.0452	69
139.0538	132
140.0483	184
141.0568	12
149.037	28
150.0458	248
151.0543	883
152.0618	999
153.0613	70
154.067	10
161.0383	20
162.0449	85
163.054	562
164.0508	415
165.0691	164
166.0637	28
175.0528	23
176.0613	400
177.0609	267
178.0661	248
179.0684	49
180.0802	20
188.0487	146
189.0553	107
190.0646	638
191.0603	41
192.0676	18
203.0596	17
204.0671	14
205.0752	180
