Mass spectrum: Icaridin; LC-ESI-QTOF; MS2; 60 V
Name: Icaridin
Class: Insecticide; Biocide; Personal_care_product
Formula: C12H23NO3
Exact mass: 229.1678
SMILES: CCC(C)OC(=O)N1CCCCC1CCO
InChI: InChI=1S/C12H23NO3/c1-3-10(2)16-12(15)13-8-5-4-6-11(13)7-9-14/h10-11,14H,3-9H2,1-2H3
Instrument: TripleTOF 6600 SCIEX
Instrument type: LC-ESI-QTOF
Ms type: MS2
Ion mode: POSITIVE
Collision energy: 60
Fragmentation mode: CID
Ionization: ESI
Column name: Zorbax Eclipse Plus C18 2.1 mm x 150 mm, 3.5 um, Agilent
Retention time: 10.188 min
Precursor m/z: 230.1751
Precursor type: [M+H]+
m/z	relative intensity
30.0327	68
39.0217	287
41.0376	340
43.0533	75
44.0486	75
53.0369	90
55.0531	809
56.0481	416
57.0321	45
57.0674	37
65.0367	174
67.0526	999
68.048	37
69.0689	37
70.0636	166
71.0471	75
77.0367	189
79.0521	68
80.0607	37
82.0629	45
84.079	476
91.0518	98
93.0679	83
95.0833	128
112.1109	45
128.0671	30
