Mass spectrum: Tetrahydroharman-3-carboxylic acid; LC-ESI-QTOF; MS2; 110 V
Name: Tetrahydroharman-3-carboxylic acid
Formula: C13H14N2O2
Exact mass: 230.1055
SMILES: CC1C2=C(CC(N1)C(=O)O)C3=CC=CC=C3N2
InChI: InChI=1S/C13H14N2O2/c1-7-12-9(6-11(14-7)13(16)17)8-4-2-3-5-10(8)15-12/h2-5,7,11,14-15H,6H2,1H3,(H,16,17)
Instrument: TripleTOF 6600 SCIEX
Instrument type: LC-ESI-QTOF
Ms type: MS2
Ion mode: POSITIVE
Collision energy: 110
Fragmentation mode: CID
Ionization: ESI
Column name: Zorbax Eclipse Plus C18 2.1 mm x 150 mm, 3.5 um, Agilent
Retention time: 5.62 min
Precursor m/z: 231.1128
Precursor type: [M+H]+
m/z	relative intensity
37.0075	56
38.0157	40
39.0231	174
49.0067	24
50.0142	235
51.0225	588
52.0299	16
59.9982	24
61.0066	105
62.014	235
63.0226	584
64.0292	28
65.0374	174
73.0068	32
74.0141	406
75.0215	377
76.0289	97
77.0376	674
78.0455	44
86.0139	40
87.0209	69
88.0294	52
89.0378	999
90.0446	105
91.0527	44
98.0137	28
101.0369	81
102.0316	24
102.0446	138
103.0527	32
105.0438	24
113.0367	97
114.0444	48
115.053	531
116.0491	32
117.0565	36
126.0465	77
127.0516	105
128.0477	40
128.0607	105
129.044	24
130.0388	32
130.0644	20
139.0532	142
140.0481	121
141.0554	40
154.0627	20
155.0569	28
166.0629	36
