Mass spectrum: Meptazinol; LC-ESI-QTOF; MS2; 90 V
Name: Meptazinol
Class: Pharmaceutical
Formula: C15H23NO
Exact mass: 233.178
SMILES: CCC1(CCCCN(C1)C)C2=CC(=CC=C2)O
InChI: InChI=1S/C15H23NO/c1-3-15(9-4-5-10-16(2)12-15)13-7-6-8-14(17)11-13/h6-8,11,17H,3-5,9-10,12H2,1-2H3
Instrument: TripleTOF 5600 SCIEX
Instrument type: LC-ESI-QTOF
Ms type: MS2
Ion mode: POSITIVE
Collision energy: 90
Fragmentation mode: CID
Ionization: ESI
Column name: Zorbax Eclipse Plus C18 2.1 mm x 150 mm, 3.5 um, Agilent
Retention time: 5.641 min
Precursor m/z: 234.1852
Precursor type: [M+H]+
m/z	relative intensity
39.0227	41
41.038	17
42.0331	10
44.0492	57
50.015	47
51.0228	256
53.038	22
55.0179	40
55.0544	11
63.0228	21
65.0383	64
70.0653	24
77.0388	999
78.0461	23
79.0541	81
81.0339	15
89.0392	35
91.0544	69
102.0473	19
103.0543	81
105.0709	11
107.0493	85
115.0544	110
126.0477	11
127.0539	39
128.0612	25
131.0496	52
