Mass spectrum: Flusilazole; LC-ESI-QTOF; MS2; 70 V
Name: Flusilazole
Class: Fungicide
Formula: C16H15F2N3Si
Exact mass: 315.1003
SMILES: C[Si](CN1C=NC=N1)(C2=CC=C(C=C2)F)C3=CC=C(C=C3)F
InChI: InChI=1S/C16H15F2N3Si/c1-22(12-21-11-19-10-20-21,15-6-2-13(17)3-7-15)16-8-4-14(18)5-9-16/h2-11H,12H2,1H3
Instrument: TripleTOF 6600 SCIEX
Instrument type: LC-ESI-QTOF
Ms type: MS2
Ion mode: POSITIVE
Collision energy: 70
Fragmentation mode: CID
Ionization: ESI
Column name: Zorbax Eclipse Plus C18 2.1 mm x 150 mm, 3.5 um, Agilent
Retention time: 12.729 min
Precursor m/z: 316.1076
Precursor type: [M+H]+
m/z	relative intensity
39.0228	12
46.9744	222
51.0226	46
63.0055	21
63.022	19
65.0378	123
72.9896	10
75.0218	20
77.038	305
79.0002	10
79.0532	34
80.9956	67
83.0287	154
89.0379	73
91.0533	174
99.005	24
101.0369	16
102.0449	20
103.0531	59
105.015	13
105.0692	24
109.0442	454
113.0375	11
115.0534	184
123.0053	230
125.0214	95
126.0447	26
127.0527	35
128.0606	23
133.0433	62
139.0532	163
143.0113	19
146.0515	28
149.0197	68
150.0454	128
151.0532	218
152.0613	310
157.0286	54
159.0592	27
162.0456	12
163.0535	274
164.0614	356
165.0694	999
167.0109	20
169.0439	19
170.0521	172
173.0202	18
176.0634	26
177.0692	18
178.0762	63
181.0434	25
182.051	38
183.0602	487
184.0691	15
196.067	21
199.0359	15
201.0493	26
217.0285	47
219.042	35
