Mass spectrum: Warfarin; LC-ESI-QTOF; MS2; 110 V
Name: Warfarin
Class: Pesticide; Biocide; Rodenticide
Formula: C19H16O4
Exact mass: 308.1049
SMILES: CC(=O)CC(C1=CC=CC=C1)C2=C(C3=CC=CC=C3OC2=O)O
InChI: InChI=1S/C19H16O4/c1-12(20)11-15(13-7-3-2-4-8-13)17-18(21)14-9-5-6-10-16(14)23-19(17)22/h2-10,15,21H,11H2,1H3
Instrument: TripleTOF 6600 SCIEX
Instrument type: LC-ESI-QTOF
Ms type: MS2
Ion mode: NEGATIVE
Collision energy: 110
Fragmentation mode: CID
Ionization: ESI
Column name: Zorbax Eclipse Plus C18 2.1 mm x 150 mm, 3.5 um, Agilent
Retention time: 11.631 min
Precursor m/z: 307.0976
Precursor type: [M-H]-
m/z	relative intensity
41.0026	999
57.033	134
64.0319	31
65.0388	25
67.0181	20
93.0324	31
101.0375	41
115.0553	25
117.0329	77
