Mass spectrum: Ampicillin; LC-ESI-QTOF; MS2; 100 V
Name: Ampicillin
Class: Pharmaceutical
Formula: C16H19N3O4S
Exact mass: 349.1096
SMILES: CC1(C)S[C@@H]2[C@H](NC(=O)[C@H](N)c3ccccc3)C(=O)N2[C@H]1C(O)=O
InChI: InChI=1S/C16H19N3O4S/c1-16(2)11(15(22)23)19-13(21)10(14(19)24-16)18-12(20)9(17)8-6-4-3-5-7-8/h3-7,9-11,14H,17H2,1-2H3,(H,18,20)(H,22,23)/t9-,10-,11+,14-/m1/s1
Instrument: TripleTOF 5600 SCIEX
Instrument type: LC-ESI-QTOF
Ms type: MS2
Ion mode: POSITIVE
Collision energy: 100
Fragmentation mode: CID
Ionization: ESI
Column name: Zorbax Eclipse Plus C18 2.1 mm x 150 mm, 3.5 um, Agilent
Retention time: 5.367 min
Precursor m/z: 350.1169
Precursor type: [M+H]+
m/z	relative intensity
43.0259	29
51.0282	29
53.0425	24
58.9993	84
65.0435	217
68.0197	39
70.0679	93
74.0103	24
77.0412	682
78.0478	29
79.0568	979
86.0069	148
87.0281	89
89.04	207
90.0477	242
91.0559	999
101.0399	34
102.0464	19
103.0549	113
104.0601	24
106.0652	959
114.0012	39
114.0363	98
115.0548	39
116.0522	19
117.0571	365
118.0637	113
121.0107	247
128.0512	39
130.0645	89
147.0239	29
173.0273	29
