Mass spectrum: Norfloxacin; LC-ESI-QTOF; MS2; 60 V
Name: Norfloxacin
Class: Antimicrobial; Pharmaceutical
Formula: C16H18FN3O3
Exact mass: 319.1332
SMILES: CCN1C=C(C(=O)C2=CC(=C(C=C21)N3CCNCC3)F)C(=O)O
InChI: InChI=1S/C16H18FN3O3/c1-2-19-9-11(16(22)23)15(21)10-7-12(17)14(8-13(10)19)20-5-3-18-4-6-20/h7-9,18H,2-6H2,1H3,(H,22,23)
Instrument: TripleTOF 5600 SCIEX
Instrument type: LC-ESI-QTOF
Ms type: MS2
Ion mode: POSITIVE
Collision energy: 60
Fragmentation mode: CID
Ionization: ESI
Column name: Zorbax Eclipse Plus C18 2.1 mm x 150 mm, 3.5 um, Agilent
Retention time: 5.167 min
Precursor m/z: 320.1405
Precursor type: [M+H]+
m/z	relative intensity
116.0493	31
128.0514	36
130.0653	27
133.0344	18
134.0394	59
135.0487	36
136.056	63
143.0728	27
148.0547	205
149.061	22
154.0563	18
155.0624	41
156.0689	54
157.0742	27
158.0691	18
160.0558	27
161.0245	22
161.0589	109
162.0336	63
162.0621	41
163.0423	31
163.0663	54
164.0487	41
169.0756	41
170.0753	31
171.0952	18
173.0506	27
174.0588	68
175.0645	109
176.0502	22
176.0748	260
177.0606	22
177.085	27
183.0866	31
185.0684	41
186.0645	18
187.0302	41
187.0688	31
188.0372	86
188.0726	36
189.052	36
189.0815	570
191.0619	63
196.0856	36
197.0662	18
197.0971	45
198.067	27
198.0975	36
203.0618	314
203.0965	68
204.0672	31
204.1043	200
205.0749	91
210.1042	27
211.1154	22
212.0818	18
215.0294	27
217.0318	31
217.0811	22
218.0844	22
225.0834	18
231.055	999
233.1022	27
245.0645	27
252.0816	18
254.0908	77
282.1172	36
302.1368	41
