Mass spectrum: Enilconazole; LC-ESI-QTOF; MS2; 40 V
Name: Enilconazole
Class: Pharmaceutical; Fungicide; Biocide
Formula: C14H14Cl2N2O
Exact mass: 296.0483
SMILES: Clc1ccc(C(Cn2ccnc2)OCC=C)c(Cl)c1
InChI: InChI=1S/C14H14Cl2N2O/c1-2-7-19-14(9-18-6-5-17-10-18)12-4-3-11(15)8-13(12)16/h2-6,8,10,14H,1,7,9H2
Instrument: TripleTOF 5600 SCIEX
Instrument type: LC-ESI-QTOF
Ms type: MS2
Ion mode: POSITIVE
Collision energy: 40
Fragmentation mode: CID
Ionization: ESI
Column name: Zorbax Eclipse Plus C18 2.1 mm x 150 mm, 3.5 um, Agilent
Retention time: 8.159 min
Precursor m/z: 297.0556
Precursor type: [M+H]+
m/z	relative intensity
69.0477	291
81.0474	106
81.06	13
82.067	16
89.0411	19
102.0448	24
109.0754	114
115.0522	16
122.9999	40
124.0067	10
129.0684	19
137.0142	21
138.0208	13
141.0695	76
149.0153	13
150.0216	24
158.9756	999
164.0374	16
172.9918	247
175.0279	19
175.0497	13
176.0382	223
182.9751	16
184.992	35
186.972	29
199.0059	21
200.9864	171
203.0371	10
211.0048	19
255.0077	212
297.0547	454
