Mass spectrum: Budesonide; LC-ESI-QTOF; MS2; 110 V
Name: Budesonide
Class: Pharmaceutical
Formula: C25H34O6
Exact mass: 430.2355
SMILES: CCC[C@@H]1O[C@@H]2C[C@H]3[C@@H]4CCC5=CC(=O)C=C[C@]5(C)[C@H]4[C@@H](O)C[C@]3(C)[C@@]2(O1)C(=O)CO
InChI: InChI=1S/C25H34O6/c1-4-5-21-30-20-11-17-16-7-6-14-10-15(27)8-9-23(14,2)22(16)18(28)12-24(17,3)25(20,31-21)19(29)13-26/h8-10,16-18,20-22,26,28H,4-7,11-13H2,1-3H3/t16-,17-,18-,20+,21+,22+,23-,24-,25+/m0/s1
Instrument: TripleTOF 5600 SCIEX
Instrument type: LC-ESI-QTOF
Ms type: MS2
Ion mode: POSITIVE
Collision energy: 110
Fragmentation mode: CID
Ionization: ESI
Column name: Zorbax Eclipse Plus C18 2.1 mm x 150 mm, 3.5 um, Agilent
Retention time: 11.041 min
Precursor m/z: 431.2428
Precursor type: [M+H]+
m/z	relative intensity
65.0433	149
67.0562	49
77.0409	874
78.0489	99
79.0571	162
81.0708	49
91.0551	936
93.0714	62
103.0543	249
104.0618	74
105.0709	199
107.049	174
115.053	999
116.0612	124
117.0699	137
119.0839	124
121.0643	274
127.0538	312
128.0618	699
129.0693	324
130.0753	87
131.0485	362
132.0565	187
139.0538	62
141.0694	349
144.0561	99
145.0626	87
147.0783	99
151.0531	199
152.0606	549
153.0687	324
154.0777	49
155.0832	99
157.0645	262
158.0715	137
163.0557	49
164.0609	74
165.0685	736
166.0753	124
167.0845	112
171.0805	74
176.0609	99
177.0676	174
178.0763	599
179.086	199
181.0646	399
189.0702	387
190.0782	237
191.0859	324
192.0897	74
193.1013	49
194.0707	112
195.0811	174
196.088	49
201.0699	87
202.0763	387
203.0807	74
205.0637	112
205.0986	74
206.0707	62
208.0882	49
215.0853	224
218.0704	162
219.08	49
226.0769	99
228.0915	74
231.0776	62
239.0868	62
