Mass spectrum: Carbamazepine; LC-ESI-QTOF; MS2; 70 V
Name: Carbamazepine
Class: Pharmaceutical
Formula: C15H12N2O
Exact mass: 236.095
SMILES: NC(=O)N1c2ccccc2C=Cc3ccccc13
InChI: InChI=1S/C15H12N2O/c16-15(18)17-13-7-3-1-5-11(13)9-10-12-6-2-4-8-14(12)17/h1-10H,(H2,16,18)
Instrument: TripleTOF 5600 SCIEX
Instrument type: LC-ESI-QTOF
Ms type: MS2
Ion mode: POSITIVE
Collision energy: 70
Fragmentation mode: CID
Ionization: ESI
Column name: Zorbax Eclipse Plus C18 2.1 mm x 150 mm, 3.5 um, Agilent
Retention time: 8.87 min
Precursor m/z: 237.1022
Precursor type: [M+H]+
m/z	relative intensity
65.0424	23
75.0274	11
77.0405	24
89.0409	176
90.0475	58
91.0559	29
101.0389	18
102.0484	23
113.0385	16
115.0546	114
116.05	19
117.0574	32
125.0404	14
126.0471	53
127.054	28
128.0554	77
129.0566	16
138.0452	14
139.0537	214
140.0505	132
141.0717	15
150.046	86
151.0545	323
152.0614	335
153.0566	101
154.0654	11
163.0536	205
164.0613	268
165.0693	821
166.0652	198
167.0725	256
176.0596	70
177.0579	146
178.0653	400
179.0727	163
188.0474	10
189.0588	41
190.0648	469
191.0727	999
192.0808	601
193.0891	207
