Mass spectrum: Fluxapyroxad; LC-ESI-QTOF; MS2; 150 V
Name: Fluxapyroxad
Class: Fungicide
Formula: C18H12F5N3O
Exact mass: 381.0901
SMILES: Cn1cc(c(n1)C(F)F)C(=O)Nc2ccccc2c3cc(c(c(c3)F)F)F
InChI: InChI=1S/C18H12F5N3O/c1-26-8-11(16(25-26)17(22)23)18(27)24-14-5-3-2-4-10(14)9-6-12(19)15(21)13(20)7-9/h2-8,17H,1H3,(H,24,27)
Instrument: TripleTOF 6600 SCIEX
Instrument type: LC-ESI-QTOF
Ms type: MS2
Ion mode: POSITIVE
Collision energy: 150
Fragmentation mode: CID
Ionization: ESI
Column name: Zorbax Eclipse Plus C18 2.1 mm x 150 mm, 3.5 um, Agilent
Retention time: 12.239 min
Precursor m/z: 382.0973
Precursor type: [M+H]+
m/z	relative intensity
42.0334	99
50.0142	71
51.0041	114
51.0222	57
57.0127	256
61.0065	185
62.0139	142
63.0222	114
69.0115	71
74.0142	313
75.0034	228
75.0223	85
81.0124	185
83.0274	71
85.0061	399
86.0139	299
87.0214	171
88.0132	99
92.0047	99
94.0194	71
98.0137	813
99.0035	142
99.0219	99
101.019	71
105.012	328
106.0195	85
109.006	499
110.0141	756
111.0099	114
111.0213	299
112.0133	171
116.0044	256
117.0124	99
118.0191	85
119.9983	85
121.0062	99
122.0145	713
123.007	271
123.0218	85
125.0195	114
128.0058	128
129.0126	228
130.0049	85
130.0201	71
131.0271	99
131.9979	71
133.0061	171
134.0143	627
135.007	114
135.0208	570
136.0127	199
140.0046	199
141.012	142
143.0107	71
145.0065	128
146.0141	999
147.0082	156
147.0201	242
149.019	114
153.0125	114
155.0275	313
156.019	71
157.0432	85
159.0097	114
160.0131	114
161.017	71
162.0267	114
165.0126	85
166.0184	185
167.0275	171
168.0361	171
171.009	285
172.0152	114
173.018	114
175.0366	128
177.0137	57
179.0275	214
180.0197	214
184.0106	99
185.0194	285
186.0267	927
191.0107	57
192.0346	71
193.0318	128
194.0229	57
195.0077	85
197.0177	271
198.0252	99
199.0338	114
203.0103	114
204.0175	642
205.0262	114
205.0419	71
206.0368	171
213.0371	99
216.0204	71
217.0248	214
221.0183	85
222.0259	85
223.034	242
224.0297	99
236.0433	85
240.0156	85
241.0249	171
248.0301	57
249.0219	57
