Mass spectrum: Metolachlor OA; LC-ESI-QTOF; MS2; 60 V
Name: Metolachlor OA
Class: Herbicide; Transformation_product-Metabolite
Formula: C15H21NO4
Exact mass: 279.1471
SMILES: CCC1=CC=CC(=C1N(C(C)COC)C(=O)C(=O)O)C
InChI: InChI=1S/C15H21NO4/c1-5-12-8-6-7-10(2)13(12)16(11(3)9-20-4)14(17)15(18)19/h6-8,11H,5,9H2,1-4H3,(H,18,19)
Instrument: TripleTOF 5600 SCIEX
Instrument type: LC-ESI-QTOF
Ms type: MS2
Ion mode: POSITIVE
Collision energy: 60
Fragmentation mode: CID
Ionization: ESI
Column name: Zorbax Eclipse Plus C18 2.1 mm x 150 mm, 3.5 um, Agilent
Retention time: 9.915 min
Precursor m/z: 280.1543
Precursor type: [M+H]+
m/z	relative intensity
45.0482	64
65.0448	112
73.0675	96
77.0436	273
79.0576	161
91.0556	999
93.0708	64
103.0544	161
104.0632	112
105.071	96
106.0712	145
115.0544	241
117.0663	402
118.0646	338
119.0734	322
119.0862	112
128.0582	145
129.0728	64
130.0652	934
131.0724	870
132.0807	386
133.0894	145
134.0965	112
142.066	145
144.0795	547
145.0902	177
146.0963	290
158.0971	145
160.1136	80
