Mass spectrum: Oseltamivir carboxylic acid; LC-ESI-QTOF; MS2; 40 V
Name: Oseltamivir carboxylic acid
Class: Pharmaceutical; Metabolite; Transformation_product
Formula: C14H24N2O4
Exact mass: 284.1736
SMILES: CCC(CC)O[C@@H]1C=C(C[C@H](N)[C@H]1NC(C)=O)C(O)=O
InChI: InChI=1S/C14H24N2O4/c1-4-10(5-2)20-12-7-9(14(18)19)6-11(15)13(12)16-8(3)17/h7,10-13H,4-6,15H2,1-3H3,(H,16,17)(H,18,19)/t11-,12+,13+/m0/s1
Instrument: TripleTOF 5600 SCIEX
Instrument type: LC-ESI-QTOF
Ms type: MS2
Ion mode: POSITIVE
Collision energy: 40
Fragmentation mode: CID
Ionization: ESI
Column name: Zorbax Eclipse Plus C18 2.1 mm x 150 mm, 3.5 um, Agilent
Retention time: 5.65 min
Precursor m/z: 285.1809
Precursor type: [M+H]+
m/z	relative intensity
60.0487	23
65.043	55
67.0582	82
68.0539	13
77.0414	117
80.0521	15
82.0668	17
83.0531	14
92.0502	100
93.0348	137
93.0581	31
94.0669	736
95.0497	22
109.0757	62
110.06	62
111.045	34
119.0606	22
120.0446	674
121.0284	18
133.0749	11
134.0593	23
136.076	14
137.071	224
138.0549	999
139.039	14
156.065	30
161.0709	12
162.0547	53
180.0647	29
198.0759	32
