Mass spectrum: Dichlorvos; LC-ESI-QTOF; MS2; 120 V
Name: Dichlorvos
Class: Insecticide; Transformation_product; Pharmaceutical
Formula: C4H7Cl2O4P
Exact mass: 219.9459
SMILES: CO[P](=O)(OC)OC=C(Cl)Cl
InChI: InChI=1S/C4H7Cl2O4P/c1-8-11(7,9-2)10-3-4(5)6/h3H,1-2H3
Instrument: TripleTOF 5600 SCIEX
Instrument type: LC-ESI-QTOF
Ms type: MS2
Ion mode: POSITIVE
Collision energy: 120
Fragmentation mode: CID
Ionization: ESI
Column name: Zorbax Eclipse Plus C18 2.1 mm x 150 mm, 3.5 um, Agilent
Retention time: 9.126 min
Precursor m/z: 220.9532
Precursor type: [M+H]+
m/z	relative intensity
46.9736	136
47.9877	68
51.0274	95
59.9806	999
65.0409	54
77.039	150
