Mass spectrum: 16alpha-hydroxyestrone; LC-ESI-QTOF; MS2; 30 V
Name: 16alpha-hydroxyestrone
Class: Pharmaceutical; Metabolite
Formula: C18H22O3
Exact mass: 286.1569
SMILES: C[C@]12CC[C@@H]3[C@H](CCc4cc(O)ccc34)[C@H]1C[C@@H](O)C2=O
InChI: InChI=1S/C18H22O3/c1-18-7-6-13-12-5-3-11(19)8-10(12)2-4-14(13)15(18)9-16(20)17(18)21/h3,5,8,13-16,19-20H,2,4,6-7,9H2,1H3/t13-,14-,15+,16+,18-/m0/s1
Instrument: TripleTOF 5600 SCIEX
Instrument type: LC-ESI-QTOF
Ms type: MS2
Ion mode: POSITIVE
Collision energy: 30
Fragmentation mode: CID
Ionization: ESI
Column name: Zorbax Eclipse Plus C18 2.1 mm x 150 mm, 3.5 um, Agilent
Retention time: 8.67 min
Precursor m/z: 287.1642
Precursor type: [M+H]+
m/z	relative intensity
57.0397	24
67.0583	14
69.0742	12
75.0466	13
79.0568	22
81.0729	40
91.0555	14
93.0706	14
95.0866	27
97.0664	14
105.0708	67
107.05	119
107.0839	22
109.0651	28
115.0538	11
121.0647	35
123.0804	31
129.07	11
131.0847	41
133.0656	776
141.0704	40
143.0862	11
144.0576	39
145.0655	116
147.0809	45
157.0657	553
159.081	787
161.096	14
165.0697	12
167.0858	30
169.0676	11
171.0813	85
173.0965	74
175.0754	15
177.0703	13
179.0862	63
181.0655	30
181.0998	17
182.0726	31
183.0812	94
184.0885	20
185.0969	121
191.0857	15
193.1016	11
194.0728	26
195.0814	216
196.0891	60
197.0969	540
198.1043	23
199.112	999
201.1275	17
208.0887	17
209.097	301
210.1048	18
211.1124	162
213.1277	608
215.1072	16
221.0968	22
222.105	59
223.1122	82
225.1285	204
227.1431	46
233.1328	16
236.12	57
241.1593	25
249.128	18
251.1434	952
269.1547	124
287.1647	26
