Mass spectrum: Eprosartan; LC-ESI-QTOF; MS2; 60 V
Name: Eprosartan
Class: Pharmaceutical
Formula: C23H24N2O4S
Exact mass: 424.1457
SMILES: CCCCC1=NC=C(N1CC2=CC=C(C=C2)C(=O)O)/C=C(\CC3=CC=CS3)/C(=O)O
InChI: InChI=1S/C23H24N2O4S/c1-2-3-6-21-24-14-19(12-18(23(28)29)13-20-5-4-11-30-20)25(21)15-16-7-9-17(10-8-16)22(26)27/h4-5,7-12,14H,2-3,6,13,15H2,1H3,(H,26,27)(H,28,29)/b18-12+
Instrument: TripleTOF 5600 SCIEX
Instrument type: LC-ESI-QTOF
Ms type: MS2
Ion mode: NEGATIVE
Collision energy: 60
Fragmentation mode: CID
Ionization: ESI
Column name: Zorbax Eclipse Plus C18 2.1 mm x 150 mm, 3.5 um, Agilent
Retention time: 6.955 min
Precursor m/z: 423.1384
Precursor type: [M-H]-
m/z	relative intensity
77.0378	74
82.9959	374
91.0554	74
93.0475	49
96.0043	149
97.0119	299
121.0292	149
123.0925	199
135.0476	74
148.021	49
160.0172	74
165.075	149
167.0632	74
180.0716	124
181.077	149
198.0437	49
199.0488	49
199.0682	74
200.0388	74
201.0489	299
215.0663	999
243.1005	74
244.0999	99
245.1116	474
291.096	74
