Mass spectrum: Nadolol; LC-ESI-QTOF; MS2; 70 V
Name: Nadolol
Class: Pharmaceutical
Formula: C17H27NO4
Exact mass: 309.194
SMILES: CC(C)(C)NCC(COC1=CC=CC2=C1CC(C(C2)O)O)O
InChI: InChI=1S/C17H27NO4/c1-17(2,3)18-9-12(19)10-22-16-6-4-5-11-7-14(20)15(21)8-13(11)16/h4-6,12,14-15,18-21H,7-10H2,1-3H3
Instrument: TripleTOF 5600 SCIEX
Instrument type: LC-ESI-QTOF
Ms type: MS2
Ion mode: POSITIVE
Collision energy: 70
Fragmentation mode: CID
Ionization: ESI
Column name: Zorbax Eclipse Plus C18 2.1 mm x 150 mm, 3.5 um, Agilent
Retention time: 5.13 min
Precursor m/z: 310.2013
Precursor type: [M+H]+
m/z	relative intensity
43.0257	16
56.055	407
57.0743	151
65.0424	50
74.0619	167
77.0412	163
77.0579	25
78.0518	25
79.0565	67
89.0388	20
91.0567	755
91.0903	20
102.0462	33
103.0552	121
104.0625	50
105.0712	130
107.0495	167
115.0552	999
116.0625	142
116.0836	20
117.0703	285
119.0876	25
126.0458	25
127.0547	554
127.0874	20
127.1083	20
128.0624	952
129.0711	167
130.0833	29
131.0488	176
131.0614	41
131.0836	37
132.057	134
133.0653	79
139.0561	37
140.0603	16
141.0682	104
142.0743	20
143.0841	54
144.0558	159
144.0814	16
145.0646	256
147.08	83
151.0535	25
152.0619	109
153.0693	264
154.0767	75
155.0516	25
155.0844	104
157.0658	121
159.0811	37
160.0509	25
165.069	46
165.0805	29
168.0547	62
169.064	29
171.0785	29
181.0685	25
183.0792	33
