Mass spectrum: Disperse orange 3; LC-ESI-QTOF; MS2; 120 V
Name: Disperse orange 3
Formula: C12H10N4O2
Exact mass: 242.0804
SMILES: C1=CC(=CC=C1N)N=NC2=CC=C(C=C2)[N+](=O)[O-]
InChI: InChI=1S/C12H10N4O2/c13-9-1-3-10(4-2-9)14-15-11-5-7-12(8-6-11)16(17)18/h1-8H,13H2
Instrument: TripleTOF 6600 SCIEX
Instrument type: LC-ESI-QTOF
Ms type: MS2
Ion mode: POSITIVE
Collision energy: 120
Fragmentation mode: CID
Ionization: ESI
Column name: Zorbax Eclipse Plus C18 2.1 mm x 150 mm, 3.5 um, Agilent
Retention time: 12.729 min
Precursor m/z: 243.0877
Precursor type: [M+H]+
m/z	relative intensity
37.0063	68
38.0142	28
39.0219	104
49.0064	227
50.0142	999
51.0218	109
52.0172	39
52.0292	40
54.0329	10
61.0055	32
62.0134	77
63.0217	97
65.0369	41
73.0056	168
74.0135	901
75.0209	178
76.0287	31
78.0314	28
105.0434	10
