Mass spectrum: Rifaximin; LC-ESI-QTOF; MS2; 140 V
Name: Rifaximin
Class: Pharmaceutical
Formula: C43H51N3O11
Exact mass: 785.3524
SMILES: CC1C=CC=C(C(=O)NC2=C(C3=C(C4=C(C(=C3O)C)OC(C4=O)(OC=CC(C(C(C(C(C(C1O)C)O)C)OC(=O)C)C)OC)C)C5=C2N6C=CC(=CC6=N5)C)O)C
InChI: InChI=1S/C43H51N3O11/c1-19-14-16-46-28(18-19)44-32-29-30-37(50)25(7)40-31(29)41(52)43(9,57-40)55-17-15-27(54-10)22(4)39(56-26(8)47)24(6)36(49)23(5)35(48)20(2)12-11-13-21(3)42(53)45-33(34(32)46)38(30)51/h11-18,20,22-24,27,35-36,39,48-51H,1-10H3,(H,45,53)
Instrument: TripleTOF 6600 SCIEX
Instrument type: LC-ESI-QTOF
Ms type: MS2
Ion mode: POSITIVE
Collision energy: 140
Fragmentation mode: CID
Ionization: ESI
Column name: Zorbax Eclipse Plus C18 2.1 mm x 150 mm, 3.5 um, Agilent
Retention time: 11.765 min
Precursor m/z: 808.3416
Precursor type: [M+Na]+
m/z	relative intensity
43.0181	285
67.0541	428
77.0387	428
79.0538	333
91.054	380
93.0699	190
95.0852	475
105.0689	333
205.0767	333
219.0923	666
220.0997	570
221.106	285
231.0902	237
235.0856	237
243.0945	237
244.1003	380
245.1061	523
247.0857	570
248.0969	999
249.1024	713
255.0938	237
259.0861	333
261.106	190
263.1164	380
272.0961	380
273.1041	523
275.0821	333
276.0888	333
277.0952	951
289.1041	190
291.0769	237
291.1146	713
300.0903	380
301.0964	618
302.1038	190
304.0834	237
305.0969	237
317.0909	428
319.1088	903
329.0938	523
332.0798	333
332.1039	237
345.0883	523
346.0938	380
347.1022	475
354.0835	523
362.1132	333
382.0812	333
