Mass spectrum: 2-isopropyl-5,6-dimethyl-1H-benzimidazole; LC-ESI-QTOF; MS2; 120 V
Name: 2-isopropyl-5,6-dimethyl-1H-benzimidazole
Formula: C12H16N2
Exact mass: 188.1313
SMILES: CC1=CC2=C(C=C1C)N=C(N2)C(C)C
InChI: InChI=1S/C12H16N2/c1-7(2)12-13-10-5-8(3)9(4)6-11(10)14-12/h5-7H,1-4H3,(H,13,14)
Instrument: TripleTOF 6600 SCIEX
Instrument type: LC-ESI-QTOF
Ms type: MS2
Ion mode: POSITIVE
Collision energy: 120
Fragmentation mode: CID
Ionization: ESI
Column name: Zorbax Eclipse Plus C18 2.1 mm x 150 mm, 3.5 um, Agilent
Retention time: 6.482 min
Precursor m/z: 189.1386
Precursor type: [M+H]+
m/z	relative intensity
35.9988	13
37.0067	82
38.0145	68
39.0225	261
41.0381	20
49.0066	61
50.0147	559
51.0225	999
52.0172	33
52.0296	36
53.0377	15
54.0328	13
61.0061	51
62.0138	88
63.0219	153
65.0371	115
73.0053	12
74.0136	91
75.0082	16
75.0218	43
76.017	29
76.029	10
77.0376	399
78.0329	42
78.0444	32
80.0482	10
89.0372	99
91.0527	56
102.0315	13
104.0473	52
114.0327	9
117.0543	11
131.0588	18
