Mass spectrum: Tebuconazole; LC-ESI-QTOF; MS2; 140 V
Name: Tebuconazole
Class: Fungicide
Formula: C16H22ClN3O
Exact mass: 307.1451
SMILES: CC(C)(C)C(O)(CCc1ccc(Cl)cc1)Cn2cncn2
InChI: InChI=1S/C16H22ClN3O/c1-15(2,3)16(21,10-20-12-18-11-19-20)9-8-13-4-6-14(17)7-5-13/h4-7,11-12,21H,8-10H2,1-3H3
Instrument: TripleTOF 5600 SCIEX
Instrument type: LC-ESI-QTOF
Ms type: MS2
Ion mode: POSITIVE
Collision energy: 140
Fragmentation mode: CID
Ionization: ESI
Column name: Zorbax Eclipse Plus C18 2.1 mm x 150 mm, 3.5 um, Agilent
Retention time: 12.72 min
Precursor m/z: 308.1524
Precursor type: [M+H]+
m/z	relative intensity
42.0326	28
43.0397	234
57.0756	18
59.0542	33
64.0348	15
65.0438	27
70.0458	999
72.9888	162
74.0178	23
75.0251	21
77.0415	43
82.0422	33
89.0416	334
90.0481	51
99.0007	83
115.0547	115
125.0149	22
128.062	15
