Mass spectrum: Nicosulfuron; LC-ESI-QTOF; MS2; 70 V
Name: Nicosulfuron
Class: Herbicide
Formula: C15H18N6O6S
Exact mass: 410.1009
SMILES: CN(C)C(=O)C1=C(N=CC=C1)S(=O)(=O)NC(=O)NC2=NC(=CC(=N2)OC)OC
InChI: InChI=1S/C15H18N6O6S/c1-21(2)13(22)9-6-5-7-16-12(9)28(24,25)20-15(23)19-14-17-10(26-3)8-11(18-14)27-4/h5-8H,1-4H3,(H2,17,18,19,20,23)
Instrument: TripleTOF 6600 SCIEX
Instrument type: LC-ESI-QTOF
Ms type: MS2
Ion mode: POSITIVE
Collision energy: 70
Fragmentation mode: CID
Ionization: ESI
Column name: Zorbax Eclipse Plus C18 2.1 mm x 150 mm, 3.5 um, Agilent
Retention time: 8.499 min
Precursor m/z: 411.1081
Precursor type: [M+H]+
m/z	relative intensity
45.031	13
51.0199	40
56.0103	13
57.0427	26
65.0352	13
68.0097	22
68.9949	51
71.0572	76
78.0313	999
81.0417	20
82.0256	65
83.0214	909
91.0259	26
92.0465	31
93.005	103
100.0364	100
106.026	738
109.0361	40
111.0405	11
112.0481	10
119.0215	20
124.0485	25
138.0263	17
139.0476	832
140.0429	17
141.0511	22
156.0738	48
160.0481	13
166.0225	20
167.0289	12
182.054	292
