Mass spectrum: 1-(o-Tolyl)-biguanide; LC-ESI-QTOF; MS2; 20 V
Name: 1-(o-Tolyl)-biguanide
Class: Industrial_process
Formula: C9H13N5
Exact mass: 191.1171
SMILES: Cc1ccccc1N=C(N)N=C(N)N
InChI: InChI=1S/C9H13N5/c1-6-4-2-3-5-7(6)13-9(12)14-8(10)11/h2-5H,1H3,(H6,10,11,12,13,14)
Instrument: TripleTOF 5600 SCIEX
Instrument type: LC-ESI-QTOF
Ms type: MS2
Ion mode: POSITIVE
Collision energy: 20
Fragmentation mode: CID
Ionization: ESI
Column name: Zorbax Eclipse Plus C18 2.1 mm x 150 mm, 3.5 um, Agilent
Retention time: 4.675 min
Precursor m/z: 192.1244
Precursor type: [M+H]+
m/z	relative intensity
43.0385	58
60.0614	256
85.0527	35
91.0553	27
106.065	122
108.0806	62
116.0492	122
131.0595	10
132.0673	12
133.0756	695
150.1022	594
158.0707	67
175.0973	433
192.1239	999
