Mass spectrum: 2-Hydroxycarbamazepine; LC-ESI-QTOF; MS2; 120 V
Name: 2-Hydroxycarbamazepine
Class: Pharmaceutical; Metabolite
Formula: C15H12N2O2
Exact mass: 252.0899
SMILES: NC(=O)N1c2ccccc2C=Cc3cc(O)ccc13
InChI: InChI=1S/C15H12N2O2/c16-15(19)17-13-4-2-1-3-10(13)5-6-11-9-12(18)7-8-14(11)17/h1-9,18H,(H2,16,19)
Instrument: TripleTOF 5600 SCIEX
Instrument type: LC-ESI-QTOF
Ms type: MS2
Ion mode: POSITIVE
Collision energy: 120
Fragmentation mode: CID
Ionization: ESI
Column name: Zorbax Eclipse Plus C18 2.1 mm x 150 mm, 3.5 um, Agilent
Retention time: 7.476 min
Precursor m/z: 253.0972
Precursor type: [M+H]+
m/z	relative intensity
44.0221	51
51.0288	464
60.0048	32
63.0589	38
64.033	32
65.0421	141
74.0182	541
75.0257	625
76.0203	25
76.0331	257
77.0411	799
77.069	25
78.0478	77
85.0104	77
86.0166	277
87.0246	438
88.0317	135
89.0405	999
89.0706	25
90.0482	64
91.0539	32
98.0162	283
99.0234	328
100.03	77
101.039	251
102.0467	277
110.0149	77
111.022	90
113.0382	663
114.0345	103
114.0461	45
115.0548	257
116.0494	45
122.0161	45
123.0239	51
124.0303	51
125.0389	219
126.0468	547
127.0398	38
127.0546	206
128.0503	122
137.0385	180
138.046	135
139.0549	592
139.0707	25
140.0488	367
149.0385	96
150.0465	728
151.0536	766
152.0614	766
153.0575	51
161.0374	141
162.0462	251
163.0541	457
164.0509	232
165.0552	38
166.0662	38
175.0415	32
176.0508	109
177.0571	225
178.0653	302
179.0714	38
187.043	25
188.0514	122
189.0565	83
190.0648	90
