Mass spectrum: Benzyl-tributylammonium; LC-ESI-QTOF; MS2; 90 V
Name: Benzyl-tributylammonium
Class: Industrial_process
Formula: [C19H34N]+
Exact mass: 276.2686
SMILES: CCCC[N+](CCCC)(CCCC)Cc1ccccc1
InChI: InChI=1S/C19H34N/c1-4-7-15-20(16-8-5-2,17-9-6-3)18-19-13-11-10-12-14-19/h10-14H,4-9,15-18H2,1-3H3/q+1
Instrument: TripleTOF 5600 SCIEX
Instrument type: LC-ESI-QTOF
Ms type: MS2
Ion mode: POSITIVE
Collision energy: 90
Fragmentation mode: CID
Ionization: ESI
Column name: Zorbax Eclipse Plus C18 2.1 mm x 150 mm, 3.5 um, Agilent
Retention time: 9.126 min
Precursor m/z: 276.2686
Precursor type: [M]+
m/z	relative intensity
58.0705	278
65.0432	475
91.0557	999
