Mass spectrum: Rhodamine B base; LC-ESI-QTOF; MS2; 60 V
Name: Rhodamine B base
Formula: C28H30N2O3
Exact mass: 442.2256
SMILES: CCN(CC)C1=CC2=C(C=C1)C3(C4=C(O2)C=C(C=C4)N(CC)CC)C5=CC=CC=C5C(=O)O3
InChI: InChI=1S/C28H30N2O3/c1-5-29(6-2)19-13-15-23-25(17-19)32-26-18-20(30(7-3)8-4)14-16-24(26)28(23)22-12-10-9-11-21(22)27(31)33-28/h9-18H,5-8H2,1-4H3
Instrument: TripleTOF X500R SCIEX
Instrument type: LC-ESI-QTOF
Ms type: MS2
Ion mode: POSITIVE
Collision energy: 60
Fragmentation mode: CID
Ionization: ESI
Column name: Zorbax Eclipse Plus C18 2.1 mm x 150 mm, 3.5 um, Agilent
Retention time: 10.788 min
Precursor m/z: 443.2329
Precursor type: [M+H]+
m/z	relative intensity
327.0894	24
328.096	13
341.1043	55
355.106	540
369.1228	84
370.143	29
371.1427	146
372.1598	11
383.1385	20
385.166	211
399.1119	34
399.1678	999
413.1851	207
415.1998	22
427.2007	33
443.2316	287
