Mass spectrum: Propyzamid; LC-ESI-QTOF; MS2; 60 V
Name: Propyzamid
Class: Herbicide
Formula: C12H11Cl2NO
Exact mass: 255.0218
SMILES: CC(C)(C#C)NC(=O)c1cc(cc(c1)Cl)Cl
InChI: InChI=1S/C12H11Cl2NO/c1-4-12(2,3)15-11(16)8-5-9(13)7-10(14)6-8/h1,5-7H,2-3H3,(H,15,16)
Instrument: TripleTOF 6600 SCIEX
Instrument type: LC-ESI-QTOF
Ms type: MS2
Ion mode: POSITIVE
Collision energy: 60
Fragmentation mode: CID
Ionization: ESI
Column name: Zorbax Eclipse Plus C18 2.1 mm x 150 mm, 3.5 um, Agilent
Retention time: 12.435 min
Precursor m/z: 256.0291
Precursor type: [M+H]+
m/z	relative intensity
37.0073	22
38.0153	22
39.023	141
41.0387	150
44.0132	311
50.0158	16
51.0228	33
65.0388	72
67.0547	41
73.0081	11
74.0149	230
75.023	58
84.9847	13
108.9841	999
109.9921	41
110.9994	72
139.005	30
144.9604	737
171.9705	19
172.9662	578
