Mass spectrum: 2,6-Dimethylquinoline; LC-ESI-QTOF; MS2; 150 V
Name: 2,6-Dimethylquinoline
Formula: C11H11N
Exact mass: 157.0891
SMILES: CC1=CC2=C(C=C1)N=C(C=C2)C
InChI: InChI=1S/C11H11N/c1-8-3-6-11-10(7-8)5-4-9(2)12-11/h3-7H,1-2H3
Instrument: TripleTOF 6600 SCIEX
Instrument type: LC-ESI-QTOF
Ms type: MS2
Ion mode: POSITIVE
Collision energy: 150
Fragmentation mode: CID
Ionization: ESI
Column name: Zorbax Eclipse Plus C18 2.1 mm x 150 mm, 3.5 um, Agilent
Retention time: 5.162 min
Precursor m/z: 158.0964
Precursor type: [M+H]+
m/z	relative intensity
35.9991	320
37.0072	999
38.0029	119
38.0147	335
39.023	178
49.0071	738
50.0147	849
51.0092	37
51.0221	89
52.0175	44
59.9993	223
61.0069	879
62.0146	402
63.0219	67
73.0065	201
74.014	208
83.9985	52
85.0063	82
86.0147	67
