Mass spectrum: Beclomethasone; LC-ESI-QTOF; MS2; 80 V
Name: Beclomethasone
Class: Pharmaceutical
Formula: C22H29ClO5
Exact mass: 408.1704
SMILES: CC1CC2C3CCC4=CC(=O)C=CC4(C3(C(CC2(C1(C(=O)CO)O)C)O)Cl)C
InChI: InChI=1S/C22H29ClO5/c1-12-8-16-15-5-4-13-9-14(25)6-7-19(13,2)21(15,23)17(26)10-20(16,3)22(12,28)18(27)11-24/h6-7,9,12,15-17,24,26,28H,4-5,8,10-11H2,1-3H3
Instrument: TripleTOF 5600 SCIEX
Instrument type: LC-ESI-QTOF
Ms type: MS2
Ion mode: POSITIVE
Collision energy: 80
Fragmentation mode: CID
Ionization: ESI
Column name: Zorbax Eclipse Plus C18 2.1 mm x 150 mm, 3.5 um, Agilent
Retention time: 9.326 min
Precursor m/z: 409.1776
Precursor type: [M+H]+
m/z	relative intensity
43.0175	137
77.0382	654
79.0544	172
91.0548	999
93.0704	241
103.0554	275
105.0704	378
115.0539	551
117.0706	241
119.086	275
121.0651	964
127.0553	241
128.0606	551
129.0705	344
132.0549	241
141.0704	516
142.0795	241
143.0866	172
144.0589	137
145.0656	206
146.0739	206
147.0791	447
152.0636	344
153.0713	344
155.086	172
158.07	344
159.081	206
161.0965	172
165.0704	688
166.0796	241
167.0866	172
169.0625	241
171.0765	137
177.0711	172
178.0768	378
179.0858	551
181.065	413
182.0763	137
189.0708	310
191.0888	241
194.0711	172
195.0834	344
202.0786	344
203.0874	275
206.0707	137
207.0834	206
208.0875	206
209.0963	378
215.0836	413
216.093	241
221.0937	241
228.0929	137
229.1005	344
231.0802	447
232.089	241
233.0961	241
234.1063	275
235.1068	172
245.1001	137
247.1095	137
248.1159	172
249.1298	172
