Mass spectrum: Metconazole; LC-ESI-QTOF; MS2; 110 V
Name: Metconazole
Class: Fungicide
Formula: C17H22ClN3O
Exact mass: 319.1451
SMILES: CC1(CCC(C1(CN2C=NC=N2)O)CC3=CC=C(C=C3)Cl)C
InChI: InChI=1S/C17H22ClN3O/c1-16(2)8-7-14(9-13-3-5-15(18)6-4-13)17(16,22)10-21-12-19-11-20-21/h3-6,11-12,14,22H,7-10H2,1-2H3
Instrument: TripleTOF 6600 SCIEX
Instrument type: LC-ESI-QTOF
Ms type: MS2
Ion mode: POSITIVE
Collision energy: 110
Fragmentation mode: CID
Ionization: ESI
Column name: Zorbax Eclipse Plus C18 2.1 mm x 150 mm, 3.5 um, Agilent
Retention time: 13.024 min
Precursor m/z: 320.1524
Precursor type: [M+H]+
m/z	relative intensity
39.023	26
42.021	14
43.0293	324
48.9837	11
51.0226	11
61.007	12
62.0149	32
63.0229	131
65.0382	24
70.0401	999
72.9838	79
77.0384	24
89.0384	265
90.0461	60
98.9991	95
115.0534	81
125.0146	45
127.0537	12
128.0612	22
141.0689	13
