Mass spectrum: Levamisole; LC-ESI-QTOF; MS2; 120 V
Name: Levamisole
Class: Pharmaceutical
Formula: C11H12N2S
Exact mass: 204.0721
SMILES: c1ccc(cc1)[C@H]2CN3CCSC3=N2
InChI: InChI=1S/C11H12N2S/c1-2-4-9(5-3-1)10-8-13-6-7-14-11(13)12-10/h1-5,10H,6-8H2/t10-/m1/s1
Instrument: TripleTOF 5600 SCIEX
Instrument type: LC-ESI-QTOF
Ms type: MS2
Ion mode: POSITIVE
Collision energy: 120
Fragmentation mode: CID
Ionization: ESI
Column name: Zorbax Eclipse Plus C18 2.1 mm x 150 mm, 3.5 um, Agilent
Retention time: 5.021 min
Precursor m/z: 205.0794
Precursor type: [M+H]+
m/z	relative intensity
49.0343	19
51.0303	999
52.0356	23
57.9924	35
58.9998	43
59.9938	247
64.0349	19
65.0428	315
71.9925	67
73.0125	27
74.0178	195
75.0257	83
76.0325	51
77.0411	491
78.0499	43
86.0183	19
87.022	15
89.0402	183
91.0568	83
102.045	19
103.0548	35
130.0666	15
