Mass spectrum: Bezafibrate-d4; LC-ESI-QTOF; MS2; 40 V
Name: Bezafibrate-d4
Class: Surrogate_standard
Formula: C19H16ClNO4 2H4
Exact mass: 365.1332
InChI: InChI=1S/C19H20ClNO4/c1-19(2,18(23)24)25-16-9-3-13(4-10-16)11-12-21-17(22)14-5-7-15(20)8-6-14/h3-10H,11-12H2,1-2H3,(H,21,22)(H,23,24)/i5D,6D,7D,8D
Instrument: TripleTOF 5600 SCIEX
Instrument type: LC-ESI-QTOF
Ms type: CID
Ion mode: NEGATIVE
Collision energy: 40
Ionization: ESI
Column name: Zorbax Eclipse Plus C18 2.1 mm x 150 mm, 3.5 um, Agilent
Retention time: 11.05 min
Precursor m/z: 364.1258
Precursor type: [M-H]-
m/z	relative intensity
41.9969	92
85.0283	35
158.0283	620
278.0898	999
