Mass spectrum: Drometrizole; LC-ESI-QTOF; MS2; 90 V
Name: Drometrizole
Class: Industrial_process
Formula: C13H11N3O
Exact mass: 225.0902
SMILES: CC1=CC(=C(C=C1)O)N2N=C3C=CC=CC3=N2
InChI: InChI=1S/C13H11N3O/c1-9-6-7-13(17)12(8-9)16-14-10-4-2-3-5-11(10)15-16/h2-8,17H,1H3
Instrument: TripleTOF 5600 SCIEX
Instrument type: LC-ESI-QTOF
Ms type: MS2
Ion mode: POSITIVE
Collision energy: 90
Fragmentation mode: CID
Ionization: ESI
Column name: Zorbax Eclipse Plus C18 2.1 mm x 150 mm, 3.5 um, Agilent
Retention time: 15.201 min
Precursor m/z: 226.0975
Precursor type: [M+H]+
m/z	relative intensity
65.0454	275
74.0202	35
75.0279	96
76.034	35
77.0444	999
78.0393	224
79.0472	76
79.0609	20
80.0574	35
89.0434	35
93.0571	20
101.0411	56
102.038	25
102.0484	71
105.0467	214
115.0553	50
126.0489	101
127.0568	112
128.0553	56
139.0563	35
150.0457	61
151.0584	30
152.0614	35
153.0574	45
154.0647	20
164.0519	30
166.0674	50
167.0718	30
