Mass spectrum: Hydrocortisone; LC-ESI-QTOF; MS2; 140 V
Name: Hydrocortisone
Class: Pharmaceutical
Formula: C21H30O5
Exact mass: 362.2093
SMILES: C[C@]12CCC(=O)C=C1CC[C@H]3[C@@H]4CC[C@](O)(C(=O)CO)[C@@]4(C)C[C@H](O)[C@H]23
InChI: InChI=1S/C21H30O5/c1-19-7-5-13(23)9-12(19)3-4-14-15-6-8-21(26,17(25)11-22)20(15,2)10-16(24)18(14)19/h9,14-16,18,22,24,26H,3-8,10-11H2,1-2H3/t14-,15-,16-,18+,19-,20-,21-/m0/s1
Instrument: TripleTOF 5600 SCIEX
Instrument type: LC-ESI-QTOF
Ms type: MS2
Ion mode: POSITIVE
Collision energy: 140
Fragmentation mode: CID
Ionization: ESI
Column name: Zorbax Eclipse Plus C18 2.1 mm x 150 mm, 3.5 um, Agilent
Retention time: 8.323 min
Precursor m/z: 363.2166
Precursor type: [M+H]+
m/z	relative intensity
43.0255	50
51.0286	290
55.022	23
55.0603	23
65.0425	372
67.0588	46
75.0292	23
77.0415	999
78.0486	105
79.057	142
89.0394	105
89.05	23
89.0692	23
91.0557	593
101.0384	46
102.046	142
103.0554	101
105.0692	64
107.0486	18
115.0537	847
116.0613	32
117.0672	41
117.0816	23
126.0473	69
127.0538	230
128.0617	649
129.0712	55
139.0545	59
141.0685	124
150.0475	23
151.0531	147
152.0624	280
153.0695	82
163.0532	46
164.0631	50
165.0689	216
176.0643	32
177.0695	27
178.0784	59
189.0669	59
202.0768	27
