Mass spectrum: Tiamulin; LC-ESI-QTOF; MS2; 90 V
Name: Tiamulin
Class: Antimicrobial; Pharmaceutical
Formula: C28H47NO4S
Exact mass: 493.3226
SMILES: CCN(CC)CCSCC(=O)OC1CC(C(C(C23CCC(C1(C2C(=O)CC3)C)C)C)O)(C)C=C
InChI: InChI=1S/C28H47NO4S/c1-8-26(6)17-22(33-23(31)18-34-16-15-29(9-2)10-3)27(7)19(4)11-13-28(20(5)25(26)32)14-12-21(30)24(27)28/h8,19-20,22,24-25,32H,1,9-18H2,2-7H3
Instrument: TripleTOF 6600 SCIEX
Instrument type: LC-ESI-QTOF
Ms type: MS2
Ion mode: POSITIVE
Collision energy: 90
Fragmentation mode: CID
Ionization: ESI
Column name: Zorbax Eclipse Plus C18 2.1 mm x 150 mm, 3.5 um, Agilent
Retention time: 8.661 min
Precursor m/z: 494.3299
Precursor type: [M+H]+
m/z	relative intensity
39.0226	43
41.0382	102
43.0174	131
43.0541	16
44.0487	16
44.979	280
45.0338	27
46.9944	57
53.0387	25
55.017	26
55.054	125
61.0093	19
62.9892	10
65.0377	48
67.0533	185
69.0322	13
69.0697	58
71.0484	15
72.079	24
73.0101	999
74.0953	123
77.0374	254
79.0535	403
81.069	309
83.048	25
90.9848	19
91.0201	12
91.0532	598
93.0689	346
95.0471	24
95.0844	127
97.0631	31
100.1103	43
101.0043	51
103.0532	69
104.0603	16
105.0691	543
107.0477	13
107.0841	204
109.0633	47
109.1006	37
111.0784	17
115.053	115
116.0606	40
117.0687	164
118.0761	15
119.0149	377
119.0581	22
119.0839	257
121.0635	46
121.1001	147
123.0797	30
127.0525	21
128.0607	131
129.068	134
130.0761	72
131.0839	205
132.092	11
133.064	18
133.1	202
135.0801	35
135.1157	20
141.0684	102
142.0764	110
143.084	128
144.0926	49
145.0616	17
145.1005	137
147.0795	29
147.1156	49
149.0952	75
152.06	12
153.0685	57
154.0761	34
155.084	88
156.0926	68
157.1002	79
158.1078	22
159.0801	18
159.1152	64
161.0941	21
161.13	14
163.1104	37
165.0672	25
167.0839	53
168.0926	24
169.1001	52
170.1073	25
171.1157	21
173.1314	21
175.1096	15
181.1003	31
182.1076	20
183.1154	33
185.133	15
187.1486	12
195.117	21
196.1249	10
197.1314	12
