Mass spectrum: N,O-didesmethyl-venlafaxine; LC-ESI-QTOF; MS2; 10 V
Name: N,O-didesmethyl-venlafaxine
Class: Pharmaceutical; Metabolite
Formula: C15H23NO2
Exact mass: 249.1729
SMILES: CNCC(c1ccc(cc1)O)C2(CCCCC2)O
InChI: InChI=1S/C15H23NO2/c1-16-11-14(12-5-7-13(17)8-6-12)15(18)9-3-2-4-10-15/h5-8,14,16-18H,2-4,9-11H2,1H3
Instrument: TripleTOF 5600 SCIEX
Instrument type: LC-ESI-QTOF
Ms type: MS2
Ion mode: POSITIVE
Collision energy: 10
Fragmentation mode: CID
Ionization: ESI
Column name: Zorbax Eclipse Plus C18 2.1 mm x 150 mm, 3.5 um, Agilent
Retention time: 5.659 min
Precursor m/z: 250.1802
Precursor type: [M+H]+
m/z	relative intensity
44.0585	34
201.1279	27
232.1705	666
250.1814	999
