Mass spectrum: Carazolol; LC-ESI-QTOF; MS2; 40 V
Name: Carazolol
Class: Pharmaceutical
Formula: C18H22N2O2
Exact mass: 298.1681
SMILES: CC(C)NCC(O)COc1cccc2[nH]c3ccccc3c12
InChI: InChI=1S/C18H22N2O2/c1-12(2)19-10-13(21)11-22-17-9-5-8-16-18(17)14-6-3-4-7-15(14)20-16/h3-9,12-13,19-21H,10-11H2,1-2H3
Instrument: TripleTOF 5600 SCIEX
Instrument type: LC-ESI-QTOF
Ms type: MS2
Ion mode: POSITIVE
Collision energy: 40
Fragmentation mode: CID
Ionization: ESI
Column name: Zorbax Eclipse Plus C18 2.1 mm x 150 mm, 3.5 um, Agilent
Retention time: 6.882 min
Precursor m/z: 299.1754
Precursor type: [M+H]+
m/z	relative intensity
56.0559	324
58.0699	73
72.0845	264
74.0638	410
98.0973	175
100.1123	39
116.1078	999
128.0615	25
129.0706	106
130.0659	26
139.0547	45
141.0698	14
152.0629	19
154.066	72
155.0726	18
156.0814	215
165.0697	23
166.066	227
167.0749	180
168.0816	239
177.0703	19
178.0711	14
179.0737	36
180.0809	64
182.0605	13
182.0979	20
183.0678	58
184.0763	633
191.0736	15
192.0815	71
193.0892	162
194.0972	877
196.0756	309
204.0812	79
205.089	20
207.0693	48
210.0906	45
220.0776	21
221.0848	19
222.0912	621
257.128	25
299.1748	422
