Mass spectrum: 2-Hydroxy-n-methyl-n-phenylpropanamide; LC-ESI-QTOF; MS2; 110 V
Name: 2-Hydroxy-n-methyl-n-phenylpropanamide
Formula: C10H13NO2
Exact mass: 179.0946
SMILES: CC(C(=O)N(C)C1=CC=CC=C1)O
InChI: InChI=1S/C10H13NO2/c1-8(12)10(13)11(2)9-6-4-3-5-7-9/h3-8,12H,1-2H3
Instrument: TripleTOF 5600 SCIEX
Instrument type: LC-ESI-QTOF
Ms type: MS2
Ion mode: POSITIVE
Collision energy: 110
Fragmentation mode: CID
Ionization: ESI
Column name: Zorbax Eclipse Plus C18 2.1 mm x 150 mm, 3.5 um, Agilent
Retention time: 6.763 min
Precursor m/z: 180.1019
Precursor type: [M+H]+
m/z	relative intensity
37.0071	34
38.0149	46
39.0226	119
42.0345	21
43.017	21
45.0337	46
49.0068	110
50.015	739
51.0229	999
62.014	42
63.0223	80
65.0377	102
66.0457	25
74.0156	42
75.0205	25
77.0386	153
89.0389	29
91.0539	17
