Mass spectrum: Rifaximin; LC-ESI-QTOF; MS2; 120 V
Name: Rifaximin
Class: Pharmaceutical
Formula: C43H51N3O11
Exact mass: 785.3524
SMILES: CC1C=CC=C(C(=O)NC2=C(C3=C(C4=C(C(=C3O)C)OC(C4=O)(OC=CC(C(C(C(C(C(C1O)C)O)C)OC(=O)C)C)OC)C)C5=C2N6C=CC(=CC6=N5)C)O)C
InChI: InChI=1S/C43H51N3O11/c1-19-14-16-46-28(18-19)44-32-29-30-37(50)25(7)40-31(29)41(52)43(9,57-40)55-17-15-27(54-10)22(4)39(56-26(8)47)24(6)36(49)23(5)35(48)20(2)12-11-13-21(3)42(53)45-33(34(32)46)38(30)51/h11-18,20,22-24,27,35-36,39,48-51H,1-10H3,(H,45,53)
Instrument: TripleTOF 6600 SCIEX
Instrument type: LC-ESI-QTOF
Ms type: MS2
Ion mode: POSITIVE
Collision energy: 120
Fragmentation mode: CID
Ionization: ESI
Column name: Zorbax Eclipse Plus C18 2.1 mm x 150 mm, 3.5 um, Agilent
Retention time: 11.765 min
Precursor m/z: 808.3416
Precursor type: [M+Na]+
m/z	relative intensity
43.0176	70
67.0542	154
69.0692	84
77.0385	84
79.0538	98
81.0694	84
91.0538	196
93.0696	98
95.0495	70
95.0856	239
105.0699	182
107.0858	98
109.0646	70
219.0923	112
221.1086	70
234.0782	70
245.108	84
247.0871	98
248.094	337
249.101	253
255.0921	70
263.1198	211
272.0978	56
273.1025	267
276.0898	154
277.0973	365
283.0854	84
291.1132	619
301.0978	422
302.103	84
304.0836	140
305.0932	225
313.0831	126
317.0898	154
319.1084	408
329.0937	365
332.08	225
334.1204	56
340.0674	126
345.0878	168
346.0966	239
347.1049	999
354.0884	281
355.0943	182
360.0972	154
361.1051	126
362.1134	112
368.0625	56
369.0865	168
370.0921	98
382.0802	675
383.0884	393
384.1044	70
450.1462	70
