Mass spectrum: Cyclopropyltriphenylphosphonium; LC-ESI-QTOF; MS2; 120 V
Name: Cyclopropyltriphenylphosphonium
Formula: [C21H20P]+
Exact mass: 303.1297
SMILES: C1CC1[P+](C2=CC=CC=C2)(C3=CC=CC=C3)C4=CC=CC=C4
InChI: InChI=1S/C21H20P/c1-4-10-18(11-5-1)22(21-16-17-21,19-12-6-2-7-13-19)20-14-8-3-9-15-20/h1-15,21H,16-17H2/q+1
Instrument: TripleTOF 6600 SCIEX
Instrument type: LC-ESI-QTOF
Ms type: MS2
Ion mode: POSITIVE
Collision energy: 120
Fragmentation mode: CID
Ionization: ESI
Column name: Zorbax Eclipse Plus C18 2.1 mm x 150 mm, 3.5 um, Agilent
Retention time: 7.786 min
Precursor m/z: 303.1297
Precursor type: [M]+
m/z	relative intensity
55.9848	57
56.9929	112
62.0191	59
63.0268	186
65.0425	166
76.0339	57
77.0415	106
78.9758	58
79.9839	203
80.9917	306
89.0407	297
91.0564	73
102.0485	102
107.0069	999
113.0403	74
115.0563	451
126.0483	196
131.0063	83
133.0221	71
139.0562	231
150.0484	200
151.0564	401
152.064	636
155.0065	50
156.014	72
157.0222	351
180.0135	54
181.0216	325
183.0371	74
