Mass spectrum: Atrazine; LC-ESI-QTOF; MS2; 110 V
Name: Atrazine
Class: Herbicide
Formula: C8H14ClN5
Exact mass: 215.0938
SMILES: CCNc1nc(Cl)nc(NC(C)C)n1
InChI: InChI=1S/C8H14ClN5/c1-4-10-7-12-6(9)13-8(14-7)11-5(2)3/h5H,4H2,1-3H3,(H2,10,11,12,13,14)
Instrument: TripleTOF 5600 SCIEX
Instrument type: LC-ESI-QTOF
Ms type: MS2
Ion mode: POSITIVE
Collision energy: 110
Fragmentation mode: CID
Ionization: ESI
Column name: Zorbax Eclipse Plus C18 2.1 mm x 150 mm, 3.5 um, Agilent
Retention time: 10.312 min
Precursor m/z: 216.101
Precursor type: [M+H]+
m/z	relative intensity
41.0249	40
42.029	12
43.0379	469
53.0176	25
61.9842	999
62.0293	10
68.0287	714
79.0084	10
86.9756	25
