Mass spectrum: Hydrocortisone; LC-ESI-QTOF; MS2; 40 V
Name: Hydrocortisone
Class: Pharmaceutical
Formula: C21H30O5
Exact mass: 362.2093
SMILES: C[C@]12CCC(=O)C=C1CC[C@H]3[C@@H]4CC[C@](O)(C(=O)CO)[C@@]4(C)C[C@H](O)[C@H]23
InChI: InChI=1S/C21H30O5/c1-19-7-5-13(23)9-12(19)3-4-14-15-6-8-21(26,17(25)11-22)20(15,2)10-16(24)18(14)19/h9,14-16,18,22,24,26H,3-8,10-11H2,1-2H3/t14-,15-,16-,18+,19-,20-,21-/m0/s1
Instrument: TripleTOF 5600 SCIEX
Instrument type: LC-ESI-QTOF
Ms type: MS2
Ion mode: POSITIVE
Collision energy: 40
Fragmentation mode: CID
Ionization: ESI
Column name: Zorbax Eclipse Plus C18 2.1 mm x 150 mm, 3.5 um, Agilent
Retention time: 8.323 min
Precursor m/z: 363.2166
Precursor type: [M+H]+
m/z	relative intensity
43.0272	20
67.0584	20
77.0401	55
79.0571	61
81.0719	61
83.0514	57
91.0554	146
93.0715	129
95.0869	68
97.0653	258
99.0436	27
103.0564	12
105.0701	200
107.0498	25
107.0856	89
109.0655	155
109.1	25
111.0434	11
111.0823	20
115.0526	25
117.0698	74
117.0877	11
119.0855	194
121.0649	999
121.0993	74
123.08	215
123.1077	12
125.0589	11
128.0615	42
129.0704	105
130.0773	12
131.0851	191
133.0649	37
133.1002	137
135.0801	126
135.1155	35
137.0967	25
141.0692	83
142.0772	40
143.0846	226
144.0937	12
145.0652	35
145.1007	302
146.1098	24
147.0789	61
147.1163	228
149.095	50
149.1305	27
151.0744	14
153.0728	14
154.0754	22
155.0853	103
156.0929	16
157.0657	20
157.1	209
158.0708	12
159.0791	38
159.1159	198
161.095	120
161.1315	42
163.076	12
163.1118	196
165.0688	22
166.0748	11
167.0858	48
168.0932	20
169.0998	220
170.1053	11
171.0799	53
171.1154	133
172.1241	27
173.0958	135
173.1319	72
174.1033	11
175.1104	124
175.1462	11
177.1267	29
179.0851	37
180.0929	14
181.1013	109
182.1087	22
183.0803	16
183.1162	155
184.1247	11
185.095	83
185.1308	113
187.1105	115
187.1472	20
189.1264	72
192.0933	16
193.0999	64
194.1092	24
195.0795	11
195.1143	120
196.1222	12
197.0965	31
197.1316	96
199.1104	51
199.1466	63
201.128	59
203.1032	12
203.1421	14
205.1002	20
205.1217	16
206.1045	9
206.1149	12
207.1161	89
208.1232	14
209.1313	150
210.1423	11
211.1137	53
211.1482	68
212.1204	11
213.1266	96
213.165	14
215.1419	44
217.1179	11
218.1097	11
220.1218	16
221.1304	64
222.1014	11
223.1134	35
223.1461	79
224.122	12
225.129	122
225.162	51
226.1341	27
227.144	51
227.1757	14
228.1482	18
229.1222	11
229.1608	33
231.1336	11
233.133	29
234.1409	18
235.1463	16
236.1205	20
236.1534	11
237.1261	29
237.1624	18
238.1337	11
239.1418	105
239.1755	22
241.1565	170
241.194	16
242.1654	22
243.1331	20
243.1724	40
247.1471	18
249.128	20
249.1632	74
250.1348	14
251.1404	48
251.1768	50
252.1483	22
253.129	11
253.1571	92
254.1692	18
255.1735	11
257.1497	14
261.1639	18
263.1404	20
263.1819	29
265.157	25
266.1644	20
267.142	18
267.1749	150
268.1806	87
269.1516	27
269.1895	77
276.1466	9
279.1748	35
281.1567	20
281.1889	64
285.1885	18
286.1912	33
291.1745	51
294.1592	20
297.1829	74
299.1962	20
309.185	100
312.1736	22
315.1936	14
327.1923	59
363.2126	12
