Mass spectrum: Ethyltriphenylphosphonium; LC-ESI-QTOF; MS2; 140 V
Name: Ethyltriphenylphosphonium
Class: Industrial_process
Formula: [C20H20P]+
Exact mass: 291.1297
SMILES: CC[P+](C1=CC=CC=C1)(C2=CC=CC=C2)C3=CC=CC=C3
InChI: InChI=1S/C20H20P/c1-2-21(18-12-6-3-7-13-18,19-14-8-4-9-15-19)20-16-10-5-11-17-20/h3-17H,2H2,1H3/q+1
Instrument: TripleTOF 5600 SCIEX
Instrument type: LC-ESI-QTOF
Ms type: MS2
Ion mode: POSITIVE
Collision energy: 140
Fragmentation mode: CID
Ionization: ESI
Column name: Zorbax Eclipse Plus C18 2.1 mm x 150 mm, 3.5 um, Agilent
Retention time: 7.392 min
Precursor m/z: 291.1297
Precursor type: [M]+
m/z	relative intensity
39.0229	79
50.0149	59
51.0226	94
55.9804	90
56.9885	193
61.0068	56
62.0147	110
63.0223	365
65.0381	132
67.9808	58
74.0141	135
75.0217	57
76.0297	124
77.0377	104
78.972	61
79.9799	335
80.9875	463
87.0208	116
89.0367	363
91.9791	55
98.013	81
102.0447	155
103.9793	107
104.9873	52
107.003	999
113.0374	108
115.0534	235
126.0455	338
131.0033	125
139.0531	151
150.0458	386
151.0539	470
152.0613	320
155.0045	93
156.0116	57
157.0199	217
179.0041	94
180.0124	117
181.02	331
