Mass spectrum: Procarbazine; LC-ESI-QTOF; MS2; 110 V
Name: Procarbazine
Class: Pharmaceutical
Formula: C12H19N3O
Exact mass: 221.1528
SMILES: CC(C)NC(=O)c1ccc(cc1)CNNC
InChI: InChI=1S/C12H19N3O/c1-9(2)15-12(16)11-6-4-10(5-7-11)8-14-13-3/h4-7,9,13-14H,8H2,1-3H3,(H,15,16)
Instrument: TripleTOF 5600 SCIEX
Instrument type: LC-ESI-QTOF
Ms type: MS2
Ion mode: POSITIVE
Collision energy: 110
Fragmentation mode: CID
Ionization: ESI
Column name: Zorbax Eclipse Plus C18 2.1 mm x 150 mm, 3.5 um, Agilent
Retention time: 4.911 min
Precursor m/z: 222.1601
Precursor type: [M+H]+
m/z	relative intensity
51.0279	539
65.0438	199
74.0186	619
75.0255	339
75.0433	99
76.0326	99
77.0429	299
89.0407	999
91.0541	119
104.0525	79
