Mass spectrum: Ethofumesate; LC-ESI-QTOF; MS2; 50 V
Name: Ethofumesate
Class: Herbicide
Formula: C13H18O5S
Exact mass: 286.0875
SMILES: CCOC1C(c2cc(ccc2O1)OS(=O)(=O)C)(C)C
InChI: InChI=1S/C13H18O5S/c1-5-16-12-13(2,3)10-8-9(18-19(4,14)15)6-7-11(10)17-12/h6-8,12H,5H2,1-4H3
Instrument: TripleTOF 6600 SCIEX
Instrument type: LC-ESI-QTOF
Ms type: MS2
Ion mode: POSITIVE
Collision energy: 50
Fragmentation mode: CID
Ionization: ESI
Column name: Zorbax Eclipse Plus C18 2.1 mm x 150 mm, 3.5 um, Agilent
Retention time: 12.56 min
Precursor m/z: 287.0948
Precursor type: [M+H]+
m/z	relative intensity
43.0175	157
43.0537	52
55.0174	105
77.0377	630
79.0538	368
81.0687	105
91.0534	630
93.0696	210
103.0535	788
105.069	999
106.0769	157
107.0475	210
109.0295	105
109.0643	52
115.0538	315
117.0692	105
119.0486	157
121.0643	683
123.0436	105
127.0543	52
131.0525	105
133.064	473
134.0715	315
135.0777	210
137.06	315
145.0648	105
147.0462	157
161.0578	157
162.0665	157
