Mass spectrum: Disperse brown 1; LC-ESI-QTOF; MS2; 40 V
Name: Disperse brown 1
Formula: C16H15Cl3N4O4
Exact mass: 432.0159
SMILES: C1=CC(=C(C=C1N(CCO)CCO)Cl)N=NC2=C(C=C(C=C2Cl)[N+](=O)[O-])Cl
InChI: InChI=1S/C16H15Cl3N4O4/c17-12-7-10(22(3-5-24)4-6-25)1-2-15(12)20-21-16-13(18)8-11(23(26)27)9-14(16)19/h1-2,7-9,24-25H,3-6H2
Instrument: TripleTOF 6600 SCIEX
Instrument type: LC-ESI-QTOF
Ms type: MS2
Ion mode: POSITIVE
Collision energy: 40
Fragmentation mode: CID
Ionization: ESI
Column name: Zorbax Eclipse Plus C18 2.1 mm x 150 mm, 3.5 um, Agilent
Retention time: 12.39 min
Precursor m/z: 433.0232
Precursor type: [M+H]+
m/z	relative intensity
98.9832	11
114.055	42
139.0073	23
140.0273	10
145.0756	15
149.0701	13
153.0246	177
158.0377	11
163.0858	50
166.0434	35
167.0364	10
170.0382	17
175.0873	22
179.0407	13
183.0319	23
184.0526	39
185.0465	92
189.9476	39
193.0972	14
197.0488	264
217.9521	35
228.0665	87
310.9759	27
311.9923	10
343.0046	11
349.0214	11
356.9727	375
357.9788	27
358.9858	14
367.0413	34
369.0275	16
370.9865	58
372.0094	10
387.0314	207
389.0104	13
402.0045	174
415.0149	51
433.0244	999
