Mass spectrum: Nitrendipine; LC-ESI-QTOF; MS2; 90 V
Name: Nitrendipine
Class: Pharmaceutical
Formula: C18H20N2O6
Exact mass: 360.1321
SMILES: CCOC(=O)C1=C(NC(=C(C1C2=CC(=CC=C2)[N+](=O)[O-])C(=O)OC)C)C
InChI: InChI=1S/C18H20N2O6/c1-5-26-18(22)15-11(3)19-10(2)14(17(21)25-4)16(15)12-7-6-8-13(9-12)20(23)24/h6-9,16,19H,5H2,1-4H3
Instrument: TripleTOF 5600 SCIEX
Instrument type: LC-ESI-QTOF
Ms type: MS2
Ion mode: POSITIVE
Collision energy: 90
Fragmentation mode: CID
Ionization: ESI
Column name: Zorbax Eclipse Plus C18 2.1 mm x 150 mm, 3.5 um, Agilent
Retention time: 12.373 min
Precursor m/z: 361.1394
Precursor type: [M+H]+
m/z	relative intensity
65.0445	19
67.0243	435
67.061	19
75.0267	27
76.036	31
77.0427	163
78.0501	23
79.0584	38
89.0444	42
91.0572	31
94.0662	34
101.0389	73
102.0474	101
103.0576	34
104.0512	69
105.0641	15
106.0662	89
113.0396	46
114.0486	66
115.055	575
116.0494	23
116.0638	23
122.0595	31
125.0379	23
126.0465	124
127.0548	373
128.0623	377
129.0728	38
130.0418	15
130.0652	34
132.0475	31
134.0593	62
138.0488	46
139.0538	672
140.0547	275
141.0695	291
142.0609	31
142.0719	23
143.0736	38
144.0759	27
144.0831	19
150.0566	104
151.0524	268
152.0617	999
153.0684	466
154.0383	19
154.0654	256
155.0479	27
155.0725	85
156.0805	31
157.069	23
158.0564	15
163.0539	77
164.0434	34
164.0568	66
165.0642	248
166.0645	330
167.0512	15
167.0722	653
168.0809	275
169.0655	38
169.0819	34
170.0595	15
170.0939	31
176.0463	31
177.0539	42
178.0646	202
179.0728	163
180.0471	19
180.0802	726
181.0858	345
182.0514	19
182.0646	15
182.0946	136
183.0657	46
190.0651	50
191.0765	27
192.0708	27
193.0878	15
194.0536	27
195.0691	34
196.0717	50
197.08	46
198.0896	62
207.067	69
208.0723	151
209.0843	97
210.0908	101
224.0641	15
225.0755	23
226.0849	50
