Mass spectrum: Desmethylranitidine; LC-ESI-QTOF; MS2; 90 V
Name: Desmethylranitidine
Class: Pharmaceutical; Transformation_product; Transformation_product-Metabolite
Formula: C12H20N4O3S
Exact mass: 300.1256
SMILES: CNCC1=CC=C(O1)CSCCNC(=C[N+](=O)[O-])NC
InChI: InChI=1S/C12H20N4O3S/c1-13-7-10-3-4-11(19-10)9-20-6-5-15-12(14-2)8-16(17)18/h3-4,8,13-15H,5-7,9H2,1-2H3
Instrument: TripleTOF 5600 SCIEX
Instrument type: LC-ESI-QTOF
Ms type: MS2
Ion mode: POSITIVE
Collision energy: 90
Fragmentation mode: CID
Ionization: ESI
Column name: Zorbax Eclipse Plus C18 2.1 mm x 150 mm, 3.5 um, Agilent
Retention time: 4.769 min
Precursor m/z: 301.1329
Precursor type: [M+H]+
m/z	relative intensity
42.0434	105
51.0307	44
53.0462	327
54.041	33
55.0488	66
56.0556	210
57.0519	55
58.9993	105
60.0079	22
65.0418	94
66.0543	44
67.0586	61
68.0531	111
68.9843	27
69.0498	22
70.0707	27
74.0091	27
77.0417	627
78.0374	44
78.048	49
79.0565	183
80.0144	27
80.0537	244
81.0364	999
82.0569	111
83.064	72
85.0395	27
88.0237	44
89.0393	38
90.0475	27
91.0556	116
92.051	44
93.0598	99
94.0411	33
94.0669	105
95.0573	72
96.0705	111
96.0853	27
97.0118	105
97.0773	493
102.0377	693
104.0491	188
106.066	83
107.0495	238
109.0762	38
110.0739	27
115.033	33
116.0489	22
117.0487	27
117.058	27
118.0619	66
119.0572	66
119.0679	27
121.0773	55
125.0068	72
129.0481	33
131.0596	27
132.044	183
133.0506	49
