Mass spectrum: Tetracycline; LC-ESI-QTOF; MS2; 40 V
Name: Tetracycline
Class: Pharmaceutical
Formula: C22H24N2O8
Exact mass: 444.1533
SMILES: CC1(C2CC3C(C(=O)C(=C(C3(C(=O)C2=C(C4=C1C=CC=C4O)O)O)O)C(=O)N)N(C)C)O
InChI: InChI=1S/C22H24N2O8/c1-21(31)8-5-4-6-11(25)12(8)16(26)13-9(21)7-10-15(24(2)3)17(27)14(20(23)30)19(29)22(10,32)18(13)28/h4-6,9-10,15,25-26,29,31-32H,7H2,1-3H3,(H2,23,30)
Instrument: TripleTOF 5600 SCIEX
Instrument type: LC-ESI-QTOF
Ms type: MS2
Ion mode: POSITIVE
Collision energy: 40
Fragmentation mode: CID
Ionization: ESI
Column name: Zorbax Eclipse Plus C18 2.1 mm x 150 mm, 3.5 um, Agilent
Retention time: 5.46 min
Precursor m/z: 445.1605
Precursor type: [M+H]+
m/z	relative intensity
86.0599	34
98.06	192
126.0548	113
126.0644	11
139.0264	11
147.0718	22
154.0497	942
207.0369	11
211.0838	11
213.0967	22
223.0766	22
226.0633	11
235.0751	22
237.0627	22
239.0705	34
241.0878	204
243.0581	22
243.0657	11
243.073	11
251.0744	68
252.0354	11
253.0862	11
253.0963	11
255.0609	22
255.0692	22
257.0723	22
257.0852	147
267.0674	306
269.0812	397
278.0521	22
279.0699	56
291.0613	136
293.0808	68
296.121	22
296.1397	22
297.0825	113
309.0934	22
319.0637	192
321.0779	295
334.0441	34
334.0569	11
337.0688	737
349.0722	227
349.0925	11
365.0586	90
365.0791	68
392.101	68
392.1235	56
410.1286	999
427.164	22
428.1375	56
