Mass spectrum: 3-Phenylpyridine; LC-ESI-QTOF; MS2; 70 V
Name: 3-Phenylpyridine
Formula: C11H9N
Exact mass: 155.0735
SMILES: C1=CC=C(C=C1)C2=CN=CC=C2
InChI: InChI=1S/C11H9N/c1-2-5-10(6-3-1)11-7-4-8-12-9-11/h1-9H
Instrument: TripleTOF X500R SCIEX
Instrument type: LC-ESI-QTOF
Ms type: MS2
Ion mode: POSITIVE
Collision energy: 70
Fragmentation mode: CID
Ionization: ESI
Column name: Zorbax Eclipse Plus C18 2.1 mm x 150 mm, 3.5 um, Agilent
Retention time: 5.684 min
Precursor m/z: 156.0808
Precursor type: [M+H]+
m/z	relative intensity
39.0232	48
49.0075	28
50.015	462
51.023	999
52.0309	221
62.0147	24
63.0233	64
65.0391	18
74.0153	87
75.023	132
76.0311	114
77.0387	461
78.0463	219
79.0419	66
86.0168	14
87.0232	22
89.039	64
90.0462	16
98.0158	31
99.023	17
100.0313	13
101.0384	103
102.0465	540
103.0539	12
104.0494	12
113.0393	18
115.0537	20
125.0384	20
126.0468	257
127.0545	415
128.062	401
129.0449	10
153.0562	17
154.0671	21
155.0628	21
