Mass spectrum: Triclabendazole; LC-ESI-QTOF; MS2; 80 V
Name: Triclabendazole
Class: Pharmaceutical
Formula: C14H9Cl3N2OS
Exact mass: 357.9501
SMILES: CSc1[nH]c2cc(Cl)c(Oc3cccc(Cl)c3Cl)cc2n1
InChI: InChI=1S/C14H9Cl3N2OS/c1-21-14-18-9-5-8(16)12(6-10(9)19-14)20-11-4-2-3-7(15)13(11)17/h2-6H,1H3,(H,18,19)
Instrument: TripleTOF 5600 SCIEX
Instrument type: LC-ESI-QTOF
Ms type: MS2
Ion mode: POSITIVE
Collision energy: 80
Fragmentation mode: CID
Ionization: ESI
Column name: Zorbax Eclipse Plus C18 2.1 mm x 150 mm, 3.5 um, Agilent
Retention time: 13.11 min
Precursor m/z: 358.9574
Precursor type: [M+H]+
m/z	relative intensity
44.9796	14
64.0187	18
76.0188	23
78.0349	13
91.0293	27
92.0373	18
99.9954	58
102.0354	11
103.0296	25
107.9906	27
108.9986	11
111.0005	16
111.9944	24
113.0038	12
117.046	10
119.9913	11
120.997	14
123.9937	17
125.0402	12
126.0463	29
127.0064	294
128.9564	30
130.053	16
135.002	42
136.0099	19
138.0132	28
139.006	95
140.0498	21
143.9681	62
148.0103	187
151.0425	27
152.0501	45
153.0222	30
153.0585	24
155.9662	67
160.008	52
161.0158	27
162.0204	11
163.0334	141
165.0226	43
170.9789	999
174.0114	17
178.0525	10
179.0605	38
180.0458	49
182.9792	27
183.0153	14
184.0227	14
185.0062	11
186.0131	31
187.0188	47
188.027	70
189.0094	116
194.0459	14
195.0564	22
195.9836	10
198.9731	115
203.0179	15
207.053	30
210.0262	12
211.0334	217
212.0184	54
213.0191	35
214.0055	102
215.0147	55
216.0224	83
218.992	11
219.973	23
220.9787	17
221.9861	14
222.973	18
223.9799	10
229.0187	14
238.0228	15
239.0281	193
241.0171	54
242.0252	692
244.9964	24
245.9784	74
248.977	15
249.9838	15
250.9931	135
272.9911	47
273.9964	321
275.9875	76
