Mass spectrum: Benzoylecgonine; LC-ESI-QTOF; MS2; 40 V
Name: Benzoylecgonine
Class: Pharmaceutical; Metabolite; Transformation_product
Formula: C16H19NO4
Exact mass: 289.1314
SMILES: CN1C2CCC1[C@H]([C@H](C2)OC(=O)c3ccccc3)C(O)=O
InChI: InChI=1S/C16H19NO4/c1-17-11-7-8-12(17)14(15(18)19)13(9-11)21-16(20)10-5-3-2-4-6-10/h2-6,11-14H,7-9H2,1H3,(H,18,19)/t11?,12?,13-,14+/m0/s1
Instrument: TripleTOF 5600 SCIEX
Instrument type: LC-ESI-QTOF
Ms type: MS2
Ion mode: POSITIVE
Collision energy: 40
Fragmentation mode: CID
Ionization: ESI
Column name: Zorbax Eclipse Plus C18 2.1 mm x 150 mm, 3.5 um, Agilent
Retention time: 5.641 min
Precursor m/z: 290.1387
Precursor type: [M+H]+
m/z	relative intensity
65.0434	17
67.0586	23
68.0531	39
77.0423	369
79.0575	15
81.0728	12
82.0683	326
83.0509	15
83.0751	77
83.0925	12
84.0833	12
91.0563	222
93.0704	74
94.0667	35
96.0819	35
100.0766	47
105.0347	810
107.0737	11
108.081	56
109.066	10
111.0457	12
117.0589	12
119.0494	170
122.0967	91
124.1125	60
132.0814	26
135.069	29
137.0604	16
140.0705	16
150.0917	155
168.1027	999
168.1328	11
272.1268	60
290.1389	324
