Mass spectrum: Venlafaxine; LC-ESI-QTOF; MS2; 70 V
Name: Venlafaxine
Class: Pharmaceutical
Formula: C17H27NO2
Exact mass: 277.2042
SMILES: CN(C)CC(c1ccc(cc1)OC)C2(CCCCC2)O
InChI: InChI=1S/C17H27NO2/c1-18(2)13-16(17(19)11-5-4-6-12-17)14-7-9-15(20-3)10-8-14/h7-10,16,19H,4-6,11-13H2,1-3H3
Instrument: TripleTOF 5600 SCIEX
Instrument type: LC-ESI-QTOF
Ms type: MS2
Ion mode: POSITIVE
Collision energy: 70
Fragmentation mode: CID
Ionization: ESI
Column name: Zorbax Eclipse Plus C18 2.1 mm x 150 mm, 3.5 um, Agilent
Retention time: 6.626 min
Precursor m/z: 278.2115
Precursor type: [M+H]+
m/z	relative intensity
42.0436	32
43.0498	16
51.0271	13
58.0718	999
65.0433	95
77.0415	235
78.0494	222
79.0566	67
81.0709	31
91.0562	429
93.07	9
103.0558	36
104.0644	29
106.0419	29
107.0495	32
115.0551	190
116.0636	36
117.0694	16
121.0652	450
127.0554	24
128.0631	47
129.0698	26
131.0488	52
132.0563	36
141.068	18
144.0573	19
147.08	13
148.0769	13
158.0709	21
159.0808	9
