Mass spectrum: Fluroxypyr; LC-ESI-QTOF; MS2; 60 V
Name: Fluroxypyr
Class: Herbicide
Formula: C7H5Cl2FN2O3
Exact mass: 253.9661
SMILES: C(C(=O)O)OC1=NC(=C(C(=C1Cl)N)Cl)F
InChI: InChI=1S/C7H5Cl2FN2O3/c8-3-5(11)4(9)7(12-6(3)10)15-1-2(13)14/h1H2,(H2,11,12)(H,13,14)
Instrument: TripleTOF 6600 SCIEX
Instrument type: LC-ESI-QTOF
Ms type: MS2
Ion mode: POSITIVE
Collision energy: 60
Fragmentation mode: CID
Ionization: ESI
Column name: Zorbax Eclipse Plus C18 2.1 mm x 150 mm, 3.5 um, Agilent
Retention time: 8.859 min
Precursor m/z: 254.9734
Precursor type: [M+H]+
m/z	relative intensity
48.9846	54
60.9827	22
61.9791	18
62.9627	49
64.0178	22
66.9745	262
70.0076	27
71.975	27
72.9825	72
73.9788	67
74.9866	27
77.0137	27
82.0082	85
82.944	144
83.0152	49
84.0245	54
85.9794	67
89.9659	40
90.9734	999
91.0289	18
91.9672	18
91.9835	22
93.984	67
97.9786	185
98.9856	103
99.9937	63
100.9347	49
103.9686	27
105.985	40
106.944	357
109.0196	27
109.9803	22
110.0258	131
111.0353	226
112.9891	99
115.9694	90
116.978	90
117.9842	352
118.9932	94
121.956	49
124.935	818
124.9886	76
125.9971	176
126.9538	18
131.9398	99
132.995	31
133.9552	515
142.9772	45
143.987	438
144.995	144
146.0025	424
151.9458	465
152.9548	58
160.967	117
175.9483	22
178.9567	176
180.9746	94
182.9113	36
210.9306	27
