Mass spectrum: Linezolid; LC-ESI-QTOF; MS2; 140 V
Name: Linezolid
Class: Pharmaceutical
Formula: C16H20FN3O4
Exact mass: 337.1438
SMILES: CC(=O)NCC1CN(C(=O)O1)C2=CC(=C(C=C2)N3CCOCC3)F
InChI: InChI=1S/C16H20FN3O4/c1-11(21)18-9-13-10-20(16(22)24-13)12-2-3-15(14(17)8-12)19-4-6-23-7-5-19/h2-3,8,13H,4-7,9-10H2,1H3,(H,18,21)
Instrument: TripleTOF 5600 SCIEX
Instrument type: LC-ESI-QTOF
Ms type: MS2
Ion mode: POSITIVE
Collision energy: 140
Fragmentation mode: CID
Ionization: ESI
Column name: Zorbax Eclipse Plus C18 2.1 mm x 150 mm, 3.5 um, Agilent
Retention time: 6.936 min
Precursor m/z: 338.1511
Precursor type: [M+H]+
m/z	relative intensity
39.0232	71
43.0173	71
50.0169	112
51.0232	316
56.0487	101
57.0145	203
61.0077	71
62.0164	142
63.0231	377
65.0382	81
70.0205	50
73.006	50
74.0149	560
75.0228	999
76.0192	112
76.0327	50
77.0391	295
78.0336	91
81.014	346
82.0205	132
83.0287	458
84.0364	61
87.0236	40
88.0311	50
89.0258	61
89.0389	479
90.0349	61
90.0451	50
91.0536	61
94.0229	61
95.0288	346
96.0368	81
98.0168	61
99.0213	112
100.0184	50
101.0396	275
102.0325	50
102.0442	50
104.0496	101
107.0292	988
108.024	81
108.0371	295
109.0452	316
113.0394	81
114.0329	91
115.0469	50
115.0557	71
116.0521	91
117.0568	50
120.0389	112
122.0397	71
126.0352	50
128.0497	101
129.0472	71
130.0644	40
133.045	81
134.0394	61
135.0491	101
140.0509	61
146.0376	81
148.0576	142
