Mass spectrum: Estrone; LC-ESI-QTOF; MS2; 90 V
Name: Estrone
Class: Pharmaceutical; Natural_product
Formula: C18H22O2
Exact mass: 270.162
SMILES: CC12CCC3C(C1CCC2=O)CCC4=C3C=CC(=C4)O
InChI: InChI=1S/C18H22O2/c1-18-9-8-14-13-5-3-12(19)10-11(13)2-4-15(14)16(18)6-7-17(18)20/h3,5,10,14-16,19H,2,4,6-9H2,1H3
Instrument: TripleTOF 5600 SCIEX
Instrument type: LC-ESI-QTOF
Ms type: MS2
Ion mode: POSITIVE
Collision energy: 90
Fragmentation mode: CID
Ionization: ESI
Column name: Zorbax Eclipse Plus C18 2.1 mm x 150 mm, 3.5 um, Agilent
Retention time: 11.224 min
Precursor m/z: 271.1693
Precursor type: [M+H]+
m/z	relative intensity
39.0226	26
41.0383	16
43.0177	38
50.0148	19
51.0228	83
53.0384	14
55.0177	20
62.0149	14
63.0227	43
65.0385	151
66.0462	17
67.0538	28
75.0225	22
77.0382	757
78.046	42
79.0542	230
81.0697	19
89.0384	179
90.0463	13
91.0541	325
94.0409	50
101.0381	27
102.0464	91
103.0541	298
104.0618	11
105.0697	162
107.0489	154
114.0461	21
115.0537	999
116.0617	207
117.0693	15
118.0408	23
126.046	77
127.054	350
128.0617	759
129.0692	58
131.0488	189
132.0566	19
133.0644	28
139.0538	88
140.0618	14
141.0697	93
144.0567	193
150.0459	21
151.0544	111
152.0619	399
153.0693	123
155.0575	15
157.0646	77
163.0543	33
164.0621	57
165.0699	239
168.0577	10
169.0647	17
176.0613	50
177.069	23
178.0772	57
181.0647	120
189.0705	17
