Mass spectrum: Hydroxytorasemide; LC-ESI-QTOF; MS2; 60 V
Name: Hydroxytorasemide
Class: Pharmaceutical; Transformation_product
Formula: C16H20N4O4S
Exact mass: 364.1205
SMILES: CC(C)NC(=O)NS(=O)(=O)c1cnccc1Nc2cccc(c2)CO
InChI: InChI=1S/C16H20N4O4S/c1-11(2)18-16(22)20-25(23,24)15-9-17-7-6-14(15)19-13-5-3-4-12(8-13)10-21/h3-9,11,21H,10H2,1-2H3,(H,17,19)(H2,18,20,22)
Instrument: TripleTOF 5600 SCIEX
Instrument type: LC-ESI-QTOF
Ms type: MS2
Ion mode: POSITIVE
Collision energy: 60
Fragmentation mode: CID
Ionization: ESI
Column name: Zorbax Eclipse Plus C18 2.1 mm x 150 mm, 3.5 um, Agilent
Retention time: 5.824 min
Precursor m/z: 365.1278
Precursor type: [M+H]+
m/z	relative intensity
98.0061	12
115.0539	170
125.0163	55
127.0532	25
128.0488	45
137.0166	20
140.0494	20
141.0557	14
142.0647	83
152.003	31
154.0645	61
155.0603	19
156.0674	25
157.0746	13
167.0598	24
168.068	318
169.0749	999
179.0615	13
180.0683	26
181.0757	464
182.0836	107
184.0622	31
185.0704	42
187.0324	42
188.0392	17
189.0475	48
197.0707	98
198.0786	14
199.0865	173
200.0392	14
214.0743	33
215.0811	39
216.0347	31
217.0423	26
228.0363	17
233.037	72
245.036	28
263.0481	15
280.0768	38
