Mass spectrum: 4,4`-Thiodianiline; LC-ESI-QTOF; MS2; 100 V
Name: 4,4`-Thiodianiline
Formula: C12H12N2S
Exact mass: 216.0721
SMILES: C1=CC(=CC=C1N)SC2=CC=C(C=C2)N
InChI: InChI=1S/C12H12N2S/c13-9-1-5-11(6-2-9)15-12-7-3-10(14)4-8-12/h1-8H,13-14H2
Instrument: TripleTOF 6600 SCIEX
Instrument type: LC-ESI-QTOF
Ms type: MS2
Ion mode: POSITIVE
Collision energy: 100
Fragmentation mode: CID
Ionization: ESI
Column name: Zorbax Eclipse Plus C18 2.1 mm x 150 mm, 3.5 um, Agilent
Retention time: 6.429 min
Precursor m/z: 217.0794
Precursor type: [M+H]+
m/z	relative intensity
39.0222	268
44.9781	192
50.0147	749
51.0221	268
53.0379	999
54.0325	134
61.0058	76
62.0144	288
63.0223	614
65.0383	172
68.9786	499
74.0138	268
75.0217	115
76.0309	249
77.0373	403
78.0326	134
79.0416	153
80.0485	864
81.9859	76
86.0131	288
87.0229	288
88.0303	115
89.0379	499
90.043	96
94.994	134
95.9996	96
97.0096	115
98.0138	134
101.0344	96
102.0444	76
113.0372	172
123.0132	192
124.0204	96
126.045	192
127.0519	172
137.0355	115
138.0417	96
139.0541	326
171.0304	76
