Mass spectrum: Fingolimod; LC-ESI-QTOF; MS2; 130 V
Name: Fingolimod
Class: Pharmaceutical
Formula: C19H33NO2
Exact mass: 307.2511
SMILES: CCCCCCCCC1=CC=C(C=C1)CCC(CO)(CO)N
InChI: InChI=1S/C19H33NO2/c1-2-3-4-5-6-7-8-17-9-11-18(12-10-17)13-14-19(20,15-21)16-22/h9-12,21-22H,2-8,13-16,20H2,1H3
Instrument: TripleTOF 6600 SCIEX
Instrument type: LC-ESI-QTOF
Ms type: MS2
Ion mode: POSITIVE
Collision energy: 130
Fragmentation mode: CID
Ionization: ESI
Column name: Zorbax Eclipse Plus C18 2.1 mm x 150 mm, 3.5 um, Agilent
Retention time: 10.17 min
Precursor m/z: 308.2584
Precursor type: [M+H]+
m/z	relative intensity
37.0065	199
38.0145	177
39.0222	999
41.0377	244
49.0065	111
50.014	377
51.0225	799
62.0146	155
63.0217	333
65.0375	732
74.0143	177
75.0227	88
76.0301	133
77.0376	821
78.0448	310
89.0379	266
91.0529	399
102.0455	222
115.0528	843
126.0493	133
127.0514	244
128.0609	266
152.0586	133
