Mass spectrum: Difenoconazole; LC-ESI-QTOF; MS2; 60 V
Name: Difenoconazole
Class: Fungicide
Formula: C19H17Cl2N3O3
Exact mass: 405.0647
SMILES: CC1COC(Cn2cncn2)(O1)c3ccc(Oc4ccc(Cl)cc4)cc3Cl
InChI: InChI=1S/C19H17Cl2N3O3/c1-13-9-25-19(27-13,10-24-12-22-11-23-24)17-7-6-16(8-18(17)21)26-15-4-2-14(20)3-5-15/h2-8,11-13H,9-10H2,1H3
Instrument: TripleTOF 6600 SCIEX
Instrument type: LC-ESI-QTOF
Ms type: MS2
Ion mode: POSITIVE
Collision energy: 60
Fragmentation mode: CID
Ionization: ESI
Column name: Zorbax Eclipse Plus C18 2.1 mm x 150 mm, 3.5 um, Agilent
Retention time: 13.755 min
Precursor m/z: 406.072
Precursor type: [M+H]+
m/z	relative intensity
41.0389	10
75.0227	55
110.9993	323
129.0691	33
139.0047	128
141.0093	219
149.0143	13
151.0535	28
152.0616	348
153.0693	270
173.015	13
181.0641	176
182.9758	17
187.0306	135
188.0385	862
202.0172	61
208.9913	29
215.0248	111
216.0329	49
223.0073	345
251.0021	999
264.981	195
