Mass spectrum: Tributyltetradecylphosphonium; LC-ESI-QTOF; MS2; 120 V
Name: Tributyltetradecylphosphonium
Formula: [C26H56P]+
Exact mass: 399.4114
SMILES: CCCCCCCCCCCCCC[P+](CCCC)(CCCC)CCCC
InChI: InChI=1S/C26H56P/c1-5-9-13-14-15-16-17-18-19-20-21-22-26-27(23-10-6-2,24-11-7-3)25-12-8-4/h5-26H2,1-4H3/q+1
Instrument: TripleTOF 5600 SCIEX
Instrument type: LC-ESI-QTOF
Ms type: MS2
Ion mode: POSITIVE
Collision energy: 120
Fragmentation mode: CID
Ionization: ESI
Column name: Zorbax Eclipse Plus C18 2.1 mm x 150 mm, 3.5 um, Agilent
Retention time: 14.891 min
Precursor m/z: 399.4114
Precursor type: [M]+
m/z	relative intensity
39.0234	80
41.039	132
43.9813	99
44.9892	192
45.9972	240
47.0047	121
48.0129	51
56.9889	372
59.0045	480
61.0203	999
62.0277	497
73.0196	92
75.035	487
76.0429	920
89.0495	104
90.0577	99
101.0498	54
103.0662	70
115.0672	72
131.0972	92
