Mass spectrum: Foramsulfuron; LC-ESI-QTOF; MS2; 100 V
Name: Foramsulfuron
Class: Herbicide
Formula: C17H20N6O7S
Exact mass: 452.1114
SMILES: CN(C)C(=O)C1=C(C=C(C=C1)NC=O)S(=O)(=O)NC(=O)NC2=NC(=CC(=N2)OC)OC
InChI: InChI=1S/C17H20N6O7S/c1-23(2)15(25)11-6-5-10(18-9-24)7-12(11)31(27,28)22-17(26)21-16-19-13(29-3)8-14(20-16)30-4/h5-9H,1-4H3,(H,18,24)(H2,19,20,21,22,26)
Instrument: TripleTOF 6600 SCIEX
Instrument type: LC-ESI-QTOF
Ms type: MS2
Ion mode: NEGATIVE
Collision energy: 100
Fragmentation mode: CID
Ionization: ESI
Column name: Zorbax Eclipse Plus C18 2.1 mm x 150 mm, 3.5 um, Agilent
Retention time: 8.823 min
Precursor m/z: 451.1041
Precursor type: [M-H]-
m/z	relative intensity
40.008	20
41.0161	56
41.9991	999
61.9707	33
63.9634	18
64.0072	15
65.0145	87
65.9988	415
68.0165	10
77.9652	28
89.023	20
90.0109	25
90.0339	15
92.017	25
107.0139	129
115.0288	20
116.0144	30
117.0451	28
118.0303	25
122.0347	51
139.0399	25
145.043	38
154.0677	10
159.0245	20
195.9926	20
222.9908	12
