Mass spectrum: Nitenpyram; LC-ESI-QTOF; MS2; 100 V
Name: Nitenpyram
Class: Pharmaceutical; Insecticide
Formula: C11H15ClN4O2
Exact mass: 270.0884
InChI: InChI=1S/C11H15ClN4O2/c1-3-15(11(13-2)8-16(17)18)7-9-4-5-10(12)14-6-9/h4-6,8,13H,3,7H2,1-2H3/b11-8+
Instrument: TripleTOF 5600 SCIEX
Instrument type: LC-ESI-QTOF
Ms type: CID
Ion mode: POSITIVE
Collision energy: 100
Ionization: ESI
Column name: Zorbax Eclipse Plus C18 2.1 mm x 150 mm, 3.5 um, Agilent
Retention time: 5.386 min
Precursor m/z: 271.0956
Precursor type: [M+H]+
m/z	relative intensity
51.0255	26
56.0553	939
57.0484	33
58.0692	26
63.0487	39
64.0349	92
65.0415	33
72.9876	999
73.0148	86
74.0188	39
75.0254	66
76.0226	59
77.0442	59
78.0358	66
89.0423	46
90.0344	205
91.0421	99
98.9998	251
99.0208	26
102.0329	39
104.0518	39
116.0425	33
117.0455	33
126.0089	52
131.0615	26
152.0172	33
