Mass spectrum: 3-Hydroxycarbamazepine; LC-ESI-QTOF; MS2; 120 V
Name: 3-Hydroxycarbamazepine
Class: Pharmaceutical
Formula: C15H12N2O2
Exact mass: 252.0899
SMILES: NC(=O)N1c2ccccc2C=Cc3ccc(O)cc13
InChI: InChI=1S/C15H12N2O2/c16-15(19)17-13-4-2-1-3-10(13)5-6-11-7-8-12(18)9-14(11)17/h1-9,18H,(H2,16,19)
Instrument: TripleTOF 5600 SCIEX
Instrument type: LC-ESI-QTOF
Ms type: MS2
Ion mode: POSITIVE
Collision energy: 120
Fragmentation mode: CID
Ionization: ESI
Column name: Zorbax Eclipse Plus C18 2.1 mm x 150 mm, 3.5 um, Agilent
Retention time: 7.917 min
Precursor m/z: 253.0972
Precursor type: [M+H]+
m/z	relative intensity
44.0278	25
52.035	30
60.0036	20
62.0524	25
64.0356	25
65.0427	145
73.0102	30
74.0178	522
75.0265	597
75.0541	20
76.0196	40
76.0333	210
77.0417	803
78.0341	25
78.0489	85
85.0093	55
86.0164	215
87.0247	371
88.0187	50
88.0308	120
89.0402	999
90.0467	40
91.0565	20
98.0154	291
98.0465	25
99.0218	205
100.0307	70
101.0394	240
102.0318	60
102.0465	180
109.0069	25
110.0143	95
111.0225	55
112.0232	25
113.0381	687
114.0342	80
114.0455	85
115.0541	311
116.0482	40
122.013	40
123.0228	25
124.0311	30
125.0384	195
126.0461	527
127.0546	256
128.0491	85
128.0613	55
129.0449	30
137.0391	200
138.0458	165
139.0537	627
140.0495	396
149.0397	100
150.0458	823
151.0539	788
152.0615	758
153.0557	65
161.0379	120
162.0466	180
163.0534	426
164.0485	185
165.0601	50
166.0614	25
175.0425	30
176.0479	80
177.0573	195
178.0655	291
179.0726	45
187.0405	30
188.0496	95
189.0588	80
190.068	55
