Mass spectrum: Clothianidin; LC-ESI-QTOF; MS2; 60 V
Name: Clothianidin
Class: Insecticide
Formula: C6H8ClN5O2S
Exact mass: 249.0087
SMILES: CN=C(NCc1sc(Cl)nc1)N[N+]([O-])=O
InChI: InChI=1S/C6H8ClN5O2S/c1-8-6(11-12(13)14)10-3-4-2-9-5(7)15-4/h2H,3H2,1H3,(H2,8,10,11)
Instrument: TripleTOF 5600 SCIEX
Instrument type: LC-ESI-QTOF
Ms type: MS2
Ion mode: POSITIVE
Collision energy: 60
Fragmentation mode: CID
Ionization: ESI
Column name: Zorbax Eclipse Plus C18 2.1 mm x 150 mm, 3.5 um, Agilent
Retention time: 6.736 min
Precursor m/z: 250.016
Precursor type: [M+H]+
m/z	relative intensity
54.0389	219
57.0507	159
58.9999	99
69.0483	159
70.9964	439
71.0114	159
83.992	79
86.0063	999
96.0551	419
98.0048	99
108.0552	99
110.0693	679
111.0789	379
113.0151	999
118.9549	119
119.9669	119
126.0141	79
131.9648	839
132.9734	199
146.973	99
