Mass spectrum: Aripiprazole; LC-ESI-QTOF; MS2; 100 V
Name: Aripiprazole
Class: Pharmaceutical
Formula: C23H27Cl2N3O2
Exact mass: 447.148
SMILES: Clc1cccc(N2CCN(CCCCOc3ccc4CCC(=O)Nc4c3)CC2)c1Cl
InChI: InChI=1S/C23H27Cl2N3O2/c24-19-4-3-5-21(23(19)25)28-13-11-27(12-14-28)10-1-2-15-30-18-8-6-17-7-9-22(29)26-20(17)16-18/h3-6,8,16H,1-2,7,9-15H2,(H,26,29)
Instrument: TripleTOF 5600 SCIEX
Instrument type: LC-ESI-QTOF
Ms type: MS2
Ion mode: POSITIVE
Collision energy: 100
Fragmentation mode: CID
Ionization: ESI
Column name: Zorbax Eclipse Plus C18 2.1 mm x 150 mm, 3.5 um, Agilent
Retention time: 8.305 min
Precursor m/z: 448.1553
Precursor type: [M+H]+
m/z	relative intensity
55.0238	26
55.0583	49
56.0556	93
65.0421	44
70.068	62
74.017	40
75.023	26
77.0407	240
78.0372	31
79.0585	49
84.084	62
89.0398	89
90.046	115
91.0553	566
92.0518	40
93.0707	35
94.0641	26
96.0806	22
98.0971	40
102.0339	31
103.0559	49
104.0492	178
106.0667	26
108.9828	107
110.0595	31
110.9975	66
116.0493	71
117.0571	999
118.0642	664
120.08	75
122.0584	35
125.0156	31
128.0461	22
130.0644	31
131.0739	57
133.0547	22
134.0589	35
135.998	35
138.0089	44
144.9594	272
146.0591	93
148.0761	35
151.019	98
152.0252	472
153.0317	102
158.9771	49
160.9765	44
164.0269	57
165.0313	31
171.9705	285
172.9643	62
172.9769	40
173.9865	44
188.0001	84
212.9999	62
228.022	22
