Mass spectrum: Triphenylphosphine oxide; LC-ESI-QTOF; MS2; 150 V
Name: Triphenylphosphine oxide
Class: Industrial_process
Formula: C18H15OP
Exact mass: 278.0861
SMILES: O=[P](c1ccccc1)(c2ccccc2)c3ccccc3
InChI: InChI=1S/C18H15OP/c19-20(16-10-4-1-5-11-16,17-12-6-2-7-13-17)18-14-8-3-9-15-18/h1-15H
Instrument: TripleTOF 5600 SCIEX
Instrument type: LC-ESI-QTOF
Ms type: MS2
Ion mode: POSITIVE
Collision energy: 150
Fragmentation mode: CID
Ionization: ESI
Column name: Zorbax Eclipse Plus C18 2.1 mm x 150 mm, 3.5 um, Agilent
Retention time: 10.458 min
Precursor m/z: 279.0933
Precursor type: [M+H]+
m/z	relative intensity
51.0311	999
56.9945	19
65.0443	16
67.9841	97
68.9928	45
73.0123	35
74.0186	171
75.0277	42
76.0331	51
77.0418	123
78.0477	16
79.9837	61
80.9904	58
86.0194	29
87.0249	32
89.0422	45
91.983	38
92.9887	12
98.0179	35
99.0225	16
102.0494	42
103.9838	22
107.0063	58
115.0545	32
125.0395	22
126.0455	55
139.0579	19
150.046	97
151.0543	42
152.0648	22
155.0005	12
157.0161	12
178.9987	16
