Mass spectrum: Salbutamol; LC-ESI-QTOF; MS2; 50 V
Name: Salbutamol
Class: Pharmaceutical
Formula: C13H21NO3
Exact mass: 239.1521
SMILES: CC(C)(NCC(c1cc(CO)c(O)cc1)O)C
InChI: InChI=1S/C13H21NO3/c1-13(2,3)14-7-12(17)9-4-5-11(16)10(6-9)8-15/h4-6,12,14-17H,7-8H2,1-3H3
Instrument: TripleTOF 5600 SCIEX
Instrument type: LC-ESI-QTOF
Ms type: MS2
Ion mode: POSITIVE
Collision energy: 50
Fragmentation mode: CID
Ionization: ESI
Column name: Zorbax Eclipse Plus C18 2.1 mm x 150 mm, 3.5 um, Agilent
Retention time: 4.69 min
Precursor m/z: 240.1594
Precursor type: [M+H]+
m/z	relative intensity
53.044	13
55.0228	114
57.0742	173
65.0434	57
68.0542	15
77.0419	768
78.0483	25
79.0571	442
80.0516	229
81.0357	67
91.056	999
92.0509	51
93.0713	440
94.0654	65
102.0477	21
103.0548	615
104.0495	41
105.0575	114
106.0405	17
106.0652	84
107.0495	63
108.0603	11
117.0571	126
118.065	223
119.0497	51
119.0752	17
120.0582	15
120.0812	367
121.0649	999
128.0496	21
130.0659	683
131.0493	130
131.0711	33
132.0428	9
133.0522	783
134.0593	19
135.0682	51
146.0601	59
147.068	57
148.0761	456
