Mass spectrum: Phencyclidine; LC-ESI-QTOF; MS2; 140 V
Name: Phencyclidine
Class: Pharmaceutical
Formula: C17H25N
Exact mass: 243.1987
SMILES: C1CCC(CC1)(C2=CC=CC=C2)N3CCCCC3
InChI: InChI=1S/C17H25N/c1-4-10-16(11-5-1)17(12-6-2-7-13-17)18-14-8-3-9-15-18/h1,4-5,10-11H,2-3,6-9,12-15H2
Instrument: TripleTOF 6600 SCIEX
Instrument type: LC-ESI-QTOF
Ms type: MS2
Ion mode: POSITIVE
Collision energy: 140
Fragmentation mode: CID
Ionization: ESI
Column name: Zorbax Eclipse Plus C18 2.1 mm x 150 mm, 3.5 um, Agilent
Retention time: 7.311 min
Precursor m/z: 244.206
Precursor type: [M+H]+
m/z	relative intensity
35.9981	56
37.0064	342
38.014	301
39.0222	999
41.0375	53
49.0072	41
50.014	249
51.0218	203
59.9984	22
61.0058	106
62.0138	192
63.0216	184
65.0375	219
74.0135	42
77.0372	24
89.0366	27
91.0522	27
115.0534	13
