Mass spectrum: Spinosad A; LC-ESI-QTOF; MS2; 40 V
Name: Spinosad A
Class: Insecticide
Formula: C41H65NO10
Exact mass: 731.4608
SMILES: CCC1CCCC(C(C(=O)C2=CC3C4CC(CC4C=CC3C2CC(=O)O1)OC5C(C(C(C(O5)C)OC)OC)OC)C)OC6CCC(C(O6)C)N(C)C
InChI: InChI=1S/C41H65NO10/c1-10-26-12-11-13-34(52-36-17-16-33(42(5)6)23(3)48-36)22(2)37(44)32-20-30-28(31(32)21-35(43)50-26)15-14-25-18-27(19-29(25)30)51-41-40(47-9)39(46-8)38(45-7)24(4)49-41/h14-15,20,22-31,33-34,36,38-41H,10-13,16-19,21H2,1-9H3
Instrument: TripleTOF 6600 SCIEX
Instrument type: LC-ESI-QTOF
Ms type: MS2
Ion mode: POSITIVE
Collision energy: 40
Fragmentation mode: CID
Ionization: ESI
Column name: Zorbax Eclipse Plus C18 2.1 mm x 150 mm, 3.5 um, Agilent
Retention time: 10.391 min
Precursor m/z: 732.4681
Precursor type: [M+H]+
m/z	relative intensity
97.0639	14
98.0958	33
99.0795	10
142.1226	999
160.1318	10
189.1119	37
449.2187	12
732.4742	310
