Mass spectrum: 4-Amino-2,6-dimethoxypyrimidine; LC-ESI-QTOF; MS2; 60 V
Name: 4-Amino-2,6-dimethoxypyrimidine
Class: Pharmaceutical
Formula: C6H9N3O2
Exact mass: 155.0695
SMILES: COC1=NC(=NC(=C1)N)OC
InChI: InChI=1S/C6H9N3O2/c1-10-5-3-4(7)8-6(9-5)11-2/h3H,1-2H3,(H2,7,8,9)
Instrument: TripleTOF 5600 SCIEX
Instrument type: LC-ESI-QTOF
Ms type: MS2
Ion mode: POSITIVE
Collision energy: 60
Fragmentation mode: CID
Ionization: ESI
Column name: Zorbax Eclipse Plus C18 2.1 mm x 150 mm, 3.5 um, Agilent
Retention time: 4.656 min
Precursor m/z: 156.0768
Precursor type: [M+H]+
m/z	relative intensity
39.0221	21
40.0339	217
41.0402	79
42.0465	53
43.0403	185
44.0234	95
52.0276	31
54.0452	100
55.0251	58
55.0348	90
56.0461	26
57.0531	233
58.0348	100
58.0437	53
65.0202	148
66.0281	345
67.0087	31
67.0358	754
68.0197	999
69.0139	297
69.9998	58
71.0335	31
72.0499	69
81.047	42
82.0335	951
83.0524	74
84.0378	21
84.0582	47
92.0283	47
95.0249	31
98.0355	47
111.0204	69
