Mass spectrum: 1,2-Benzisothiazol-3(2H)-one; LC-ESI-QTOF; MS2; 120 V
Name: 1,2-Benzisothiazol-3(2H)-one
Class: Antimicrobial
Formula: C7H5NOS
Exact mass: 151.0092
SMILES: C1=CC=C2C(=C1)C(=O)NS2
InChI: InChI=1S/C7H5NOS/c9-7-5-3-1-2-4-6(5)10-8-7/h1-4H,(H,8,9)
Instrument: TripleTOF 6600 SCIEX
Instrument type: LC-ESI-QTOF
Ms type: MS2
Ion mode: POSITIVE
Collision energy: 120
Fragmentation mode: CID
Ionization: ESI
Column name: Zorbax Eclipse Plus C18 2.1 mm x 150 mm, 3.5 um, Agilent
Retention time: 6.233 min
Precursor m/z: 152.0165
Precursor type: [M+H]+
m/z	relative intensity
35.9988	191
37.0071	711
38.0027	95
38.0146	328
39.0228	218
43.9712	109
44.014	68
44.9783	246
45.9748	54
49.0069	492
50.0147	999
51.0225	260
56.98	68
59.9984	123
61.0066	410
62.0144	232
63.0223	95
67.9715	177
68.9789	437
73.0072	95
74.0141	150
