Mass spectrum: 1-Benzyl-3-cyclohexylurea; LC-ESI-QTOF; MS2; 120 V
Name: 1-Benzyl-3-cyclohexylurea
Formula: C14H20N2O
Exact mass: 232.1576
SMILES: C1CCC(CC1)NC(=O)NCC2=CC=CC=C2
InChI: InChI=1S/C14H20N2O/c17-14(16-13-9-5-2-6-10-13)15-11-12-7-3-1-4-8-12/h1,3-4,7-8,13H,2,5-6,9-11H2,(H2,15,16,17)
Instrument: TripleTOF 6600 SCIEX
Instrument type: LC-ESI-QTOF
Ms type: MS2
Ion mode: POSITIVE
Collision energy: 120
Fragmentation mode: CID
Ionization: ESI
Column name: Zorbax Eclipse Plus C18 2.1 mm x 150 mm, 3.5 um, Agilent
Retention time: 10.259 min
Precursor m/z: 233.1649
Precursor type: [M+H]+
m/z	relative intensity
35.9993	32
37.0073	259
38.0148	222
39.0232	999
41.0383	51
44.0126	12
49.0068	36
50.0149	183
51.0227	131
61.0067	53
62.0148	170
63.0227	162
65.0384	357
74.0144	10
91.0537	33
