Mass spectrum: Florfenicol; LC-ESI-QTOF; MS2; 50 V
Name: Florfenicol
Class: Pharmaceutical
Formula: C12H14Cl2FNO4S
Exact mass: 357.0005
SMILES: C[S](=O)(=O)c1ccc(cc1)[C@@H](O)[C@@H](CF)NC(=O)C(Cl)Cl
InChI: InChI=1S/C12H14Cl2FNO4S/c1-21(19,20)8-4-2-7(3-5-8)10(17)9(6-15)16-12(18)11(13)14/h2-5,9-11,17H,6H2,1H3,(H,16,18)/t9-,10-/m1/s1
Instrument: TripleTOF 5600 SCIEX
Instrument type: LC-ESI-QTOF
Ms type: MS2
Ion mode: POSITIVE
Collision energy: 50
Fragmentation mode: CID
Ionization: ESI
Column name: Zorbax Eclipse Plus C18 2.1 mm x 150 mm, 3.5 um, Agilent
Retention time: 7.507 min
Precursor m/z: 358.0077
Precursor type: [M+H]+
m/z	relative intensity
77.0405	43
82.9466	122
103.0537	210
104.0608	35
115.0526	113
127.0534	403
128.0607	297
129.0571	70
130.0638	955
131.0491	271
131.0714	306
132.0551	692
134.0511	35
142.0647	254
152.049	70
163.0303	271
170.0584	999
171.0682	43
177.0318	52
178.0404	52
206.0353	499
210.058	113
241.0049	184
