Mass spectrum: Fenoxycarb; LC-ESI-QTOF; MS2; 50 V
Name: Fenoxycarb
Class: Insecticide
Formula: C17H19NO4
Exact mass: 301.1314
SMILES: CCOC(=O)NCCOc1ccc(Oc2ccccc2)cc1
InChI: InChI=1S/C17H19NO4/c1-2-20-17(19)18-12-13-21-14-8-10-16(11-9-14)22-15-6-4-3-5-7-15/h3-11H,2,12-13H2,1H3,(H,18,19)
Instrument: TripleTOF 5600 SCIEX
Instrument type: LC-ESI-QTOF
Ms type: MS2
Ion mode: POSITIVE
Collision energy: 50
Fragmentation mode: CID
Ionization: ESI
Column name: Zorbax Eclipse Plus C18 2.1 mm x 150 mm, 3.5 um, Agilent
Retention time: 13.067 min
Precursor m/z: 302.1387
Precursor type: [M+H]+
m/z	relative intensity
42.0444	44
44.0594	284
65.0429	24
66.051	59
70.0325	198
77.0414	166
79.0568	21
88.0413	999
91.0554	137
92.0629	22
94.0422	170
105.0331	59
107.0486	78
109.0278	36
110.0358	10
115.0536	172
116.0701	218
118.0412	84
119.0485	31
120.056	101
127.0531	33
128.0612	111
129.069	231
131.0488	12
134.0357	32
139.0535	15
141.0691	221
142.0765	13
145.0568	11
151.0535	14
152.0614	65
153.0688	16
155.0837	12
157.064	97
158.0717	51
163.0619	13
165.0687	129
166.076	15
167.0832	18
168.057	22
169.0644	50
170.0722	18
176.0615	25
177.0693	18
181.0647	18
183.08	27
185.0594	82
186.0664	256
195.0811	10
197.0582	18
198.0654	10
213.0538	104
