Mass spectrum: Norgestrel; LC-ESI-QTOF; MS2; 150 V
Name: Norgestrel
Class: Pharmaceutical
Formula: C21H28O2
Exact mass: 312.2089
SMILES: CCC12CCC3C(C1CCC2(C#C)O)CCC4=CC(=O)CCC34
InChI: InChI=1S/C21H28O2/c1-3-20-11-9-17-16-8-6-15(22)13-14(16)5-7-18(17)19(20)10-12-21(20,23)4-2/h2,13,16-19,23H,3,5-12H2,1H3
Instrument: TripleTOF 5600 SCIEX
Instrument type: LC-ESI-QTOF
Ms type: MS2
Ion mode: POSITIVE
Collision energy: 150
Fragmentation mode: CID
Ionization: ESI
Column name: Zorbax Eclipse Plus C18 2.1 mm x 150 mm, 3.5 um, Agilent
Retention time: 12.063 min
Precursor m/z: 313.2162
Precursor type: [M+H]+
m/z	relative intensity
43.0317	48
53.0112	48
55.0274	48
65.0463	417
67.061	42
74.0225	54
75.0277	54
76.0369	60
77.045	999
78.0518	133
79.0605	108
81.0748	30
83.0535	30
89.0424	254
91.0592	314
101.045	30
102.0508	175
103.0538	24
114.0521	24
115.0565	484
126.0505	48
127.0546	145
128.065	193
139.0558	54
150.0492	54
151.0563	84
152.0663	96
163.0567	78
164.0668	24
165.0709	36
176.0669	36
