Mass spectrum: 19-Nortestosterone; LC-ESI-QTOF; MS2; 120 V
Name: 19-Nortestosterone
Class: Pharmaceutical
Formula: C18H26O2
Exact mass: 274.1933
SMILES: C[C@]12CC[C@H]3[C@@H](CCC4=CC(=O)CC[C@H]34)[C@@H]1CC[C@@H]2O
InChI: InChI=1S/C18H26O2/c1-18-9-8-14-13-5-3-12(19)10-11(13)2-4-15(14)16(18)6-7-17(18)20/h10,13-17,20H,2-9H2,1H3/t13-,14+,15+,16-,17-,18-/m0/s1
Instrument: TripleTOF 5600 SCIEX
Instrument type: LC-ESI-QTOF
Ms type: MS2
Ion mode: POSITIVE
Collision energy: 120
Fragmentation mode: CID
Ionization: ESI
Column name: Zorbax Eclipse Plus C18 2.1 mm x 150 mm, 3.5 um, Agilent
Retention time: 10.421 min
Precursor m/z: 275.2006
Precursor type: [M+H]+
m/z	relative intensity
51.0288	274
53.0438	67
55.0231	40
55.06	80
65.0431	355
66.05	40
67.0593	93
75.0243	26
77.041	999
78.0475	60
79.0571	154
83.0535	60
89.0425	67
91.0557	395
91.0777	33
102.0446	60
103.0517	40
115.0535	321
127.0572	46
128.0616	127
152.0629	33
165.0683	26
