Mass spectrum: 16alpha-hydroxyestrone; LC-ESI-QTOF; MS2; 130 V
Name: 16alpha-hydroxyestrone
Class: Pharmaceutical; Metabolite
Formula: C18H22O3
Exact mass: 286.1569
SMILES: C[C@]12CC[C@@H]3[C@H](CCc4cc(O)ccc34)[C@H]1C[C@@H](O)C2=O
InChI: InChI=1S/C18H22O3/c1-18-7-6-13-12-5-3-11(19)8-10(12)2-4-14(13)15(18)9-16(20)17(18)21/h3,5,8,13-16,19-20H,2,4,6-7,9H2,1H3/t13-,14-,15+,16+,18-/m0/s1
Instrument: TripleTOF 5600 SCIEX
Instrument type: LC-ESI-QTOF
Ms type: MS2
Ion mode: POSITIVE
Collision energy: 130
Fragmentation mode: CID
Ionization: ESI
Column name: Zorbax Eclipse Plus C18 2.1 mm x 150 mm, 3.5 um, Agilent
Retention time: 8.67 min
Precursor m/z: 287.1642
Precursor type: [M+H]+
m/z	relative intensity
43.0278	43
53.0446	14
55.0238	17
65.0438	204
66.0506	15
74.0183	62
75.026	82
76.0334	46
77.0428	681
78.0492	71
79.0568	47
86.0167	18
87.0244	31
88.0326	15
89.0413	371
91.0558	87
94.0427	18
98.016	19
99.0234	12
101.0389	30
102.0473	145
103.0548	81
107.0491	25
113.0382	38
114.0463	21
115.0552	999
116.0615	20
125.0388	14
126.0465	116
127.0544	136
128.0625	202
131.0493	31
139.0546	107
141.0704	10
150.0469	80
151.0545	138
152.062	191
162.0467	14
163.0544	100
164.0619	57
165.0696	60
176.0624	43
187.0546	16
189.0702	27
200.0619	12
