Mass spectrum: Epirubicin; LC-ESI-QTOF; MS2; 120 V
Name: Epirubicin
Class: Pharmaceutical
Formula: C27H29NO11
Exact mass: 543.1741
SMILES: CC1C(C(CC(O1)OC2CC(CC3=C(C4=C(C(=C23)O)C(=O)C5=C(C4=O)C=CC=C5OC)O)(C(=O)CO)O)N)O
InChI: InChI=1S/C27H29NO11/c1-10-22(31)13(28)6-17(38-10)39-15-8-27(36,16(30)9-29)7-12-19(15)26(35)21-20(24(12)33)23(32)11-4-3-5-14(37-2)18(11)25(21)34/h3-5,10,13,15,17,22,29,31,33,35-36H,6-9,28H2,1-2H3
Instrument: TripleTOF 5600 SCIEX
Instrument type: LC-ESI-QTOF
Ms type: MS2
Ion mode: NEGATIVE
Collision energy: 120
Fragmentation mode: CID
Ionization: ESI
Column name: Zorbax Eclipse Plus C18 2.1 mm x 150 mm, 3.5 um, Agilent
Retention time: 7.492 min
Precursor m/z: 542.1668
Precursor type: [M-H]-
m/z	relative intensity
91.0194	55
93.033	111
116.0273	55
117.0352	194
129.0313	83
145.0304	360
151.0611	83
157.0292	55
163.0592	83
164.062	111
165.0758	83
167.0483	111
169.0347	55
173.0256	194
179.055	194
180.0579	55
180.0707	111
181.0704	111
182.0418	111
191.0515	416
192.0577	111
193.0655	305
194.0376	55
195.0457	194
204.0592	333
207.0433	305
208.0516	305
209.0241	83
209.0644	194
211.0395	222
219.0457	943
220.0536	194
221.0626	249
223.0423	166
231.047	83
232.0528	277
233.0588	111
235.0406	582
236.0478	194
237.0579	333
239.0347	83
247.0426	804
248.0486	999
249.0535	138
249.0703	83
251.0384	305
252.0464	83
253.0527	55
259.0453	111
260.0512	166
261.0507	83
263.036	582
264.0444	582
265.0512	360
275.0348	166
276.0426	499
277.0463	166
279.0346	194
291.0338	638
292.0418	471
293.0427	527
304.0363	305
305.0318	83
305.0556	111
320.0267	138
321.037	194
