Mass spectrum: 16alpha-hydroxyestrone; LC-ESI-QTOF; MS2; 40 V
Name: 16alpha-hydroxyestrone
Class: Pharmaceutical; Metabolite
Formula: C18H22O3
Exact mass: 286.1569
SMILES: C[C@]12CC[C@@H]3[C@H](CCc4cc(O)ccc34)[C@H]1C[C@@H](O)C2=O
InChI: InChI=1S/C18H22O3/c1-18-7-6-13-12-5-3-11(19)8-10(12)2-4-14(13)15(18)9-16(20)17(18)21/h3,5,8,13-16,19-20H,2,4,6-7,9H2,1H3/t13-,14-,15+,16+,18-/m0/s1
Instrument: TripleTOF 5600 SCIEX
Instrument type: LC-ESI-QTOF
Ms type: MS2
Ion mode: POSITIVE
Collision energy: 40
Fragmentation mode: CID
Ionization: ESI
Column name: Zorbax Eclipse Plus C18 2.1 mm x 150 mm, 3.5 um, Agilent
Retention time: 8.67 min
Precursor m/z: 287.1642
Precursor type: [M+H]+
m/z	relative intensity
43.0255	17
55.0596	13
57.0386	27
67.0585	46
69.0727	18
77.0414	43
79.0566	75
81.072	55
91.0557	83
93.0706	26
95.0861	30
97.0648	12
103.0542	29
105.0706	254
107.0495	221
107.082	18
109.0642	29
115.0539	72
116.062	23
117.069	23
119.0846	18
121.0645	52
123.0797	20
127.0538	45
128.0618	47
129.0695	64
131.0496	13
131.0833	185
132.0568	12
133.0646	984
141.0701	214
143.0855	25
144.0574	249
145.065	251
147.0805	74
152.0616	20
153.0697	41
154.0771	12
155.0853	26
157.0649	997
158.0726	49
159.0803	999
161.0964	10
165.0698	76
166.0773	31
167.0855	95
169.0693	44
169.0995	18
170.0717	29
171.0809	203
171.1124	13
172.0876	32
173.0958	43
177.0697	54
178.0775	43
179.0853	182
181.0656	102
181.0978	39
182.0724	123
183.0804	137
184.0881	84
185.0961	155
190.0766	10
191.0853	48
193.1014	28
194.0725	109
195.0805	225
196.0882	119
197.0963	293
198.1035	43
199.1113	843
205.101	13
207.0802	43
208.0877	64
209.0961	254
210.1025	27
211.1117	79
213.1276	217
221.0959	84
222.1037	74
223.1114	60
225.1268	52
227.1423	11
233.1321	10
235.1114	15
236.1192	77
249.1265	11
251.1427	204
