Mass spectrum: Isoxaben; LC-ESI-QTOF; MS2; 120 V
Name: Isoxaben
Class: Herbicide
Formula: C18H24N2O4
Exact mass: 332.1736
SMILES: CCC(C)(CC)C1=NOC(=C1)NC(=O)C2=C(C=CC=C2OC)OC
InChI: InChI=1S/C18H24N2O4/c1-6-18(3,7-2)14-11-15(24-20-14)19-17(21)16-12(22-4)9-8-10-13(16)23-5/h8-11H,6-7H2,1-5H3,(H,19,21)
Instrument: TripleTOF 6600 SCIEX
Instrument type: LC-ESI-QTOF
Ms type: MS2
Ion mode: POSITIVE
Collision energy: 120
Fragmentation mode: CID
Ionization: ESI
Column name: Zorbax Eclipse Plus C18 2.1 mm x 150 mm, 3.5 um, Agilent
Retention time: 12.747 min
Precursor m/z: 333.1809
Precursor type: [M+H]+
m/z	relative intensity
37.0073	22
38.0145	36
39.0229	60
41.0389	18
49.0064	24
50.0152	252
51.0229	702
53.0025	151
53.0385	10
55.0178	504
59.9985	11
61.0072	45
62.0146	88
63.0224	400
64.0303	127
65.0385	38
66.0451	20
68.996	31
73.0062	15
74.0147	92
75.0225	175
77.0379	94
79.0174	330
91.0171	22
92.0253	91
107.0123	999
119.0129	21
122.0347	15
