Mass spectrum: Estrone 3-methyl ether; LC-ESI-QTOF; MS2; 40 V
Name: Estrone 3-methyl ether
Class: Pharmaceutical
Formula: C19H24O2
Exact mass: 284.1776
SMILES: C[C@]12CC[C@@H]3c4ccc(cc4CC[C@H]3[C@@H]1CCC2=O)OC
InChI: InChI=1S/C19H24O2/c1-19-10-9-15-14-6-4-13(21-2)11-12(14)3-5-16(15)17(19)7-8-18(19)20/h4,6,11,15-17H,3,5,7-10H2,1-2H3/t15-,16-,17+,19+/m1/s1
Instrument: TripleTOF 5600 SCIEX
Instrument type: LC-ESI-QTOF
Ms type: MS2
Ion mode: POSITIVE
Collision energy: 40
Fragmentation mode: CID
Ionization: ESI
Column name: Zorbax Eclipse Plus C18 2.1 mm x 150 mm, 3.5 um, Agilent
Retention time: 10.549 min
Precursor m/z: 285.1849
Precursor type: [M+H]+
m/z	relative intensity
67.0586	30
77.041	18
79.0557	33
81.0722	87
91.0554	260
93.0712	36
95.0868	51
103.0544	15
105.0696	51
107.0481	28
107.0863	41
109.1001	12
115.0527	56
116.0603	10
117.0696	46
117.0829	12
119.0867	41
121.0663	131
128.0627	108
129.0724	30
130.0782	28
131.0495	30
132.0553	46
135.0799	49
141.0692	49
142.075	25
143.0865	25
144.0559	51
145.0637	64
145.1009	15
146.0713	20
147.0802	999
153.069	30
154.0788	15
155.085	28
156.0574	28
157.066	15
158.0716	237
159.0796	185
161.0957	72
165.0688	92
167.085	41
168.0921	20
169.0654	15
170.0725	30
171.0802	807
172.0883	23
173.0955	632
178.0768	18
179.0864	95
180.0906	15
181.0627	30
181.1028	23
182.0722	23
183.0821	23
184.0893	51
185.0961	136
186.1001	33
187.1117	23
193.0993	18
195.0778	30
196.0876	80
197.0948	157
198.1058	46
199.1108	152
209.095	30
210.101	41
211.1114	211
212.1185	108
213.1293	23
223.1079	12
224.117	18
225.1249	56
226.1368	25
227.144	41
238.1337	18
239.1424	28
241.1572	92
252.1505	18
267.1743	49
