Mass spectrum: Triphenyl(2-pyridylmethyl)phosphonium; LC-ESI-QTOF; MS2; 140 V
Name: Triphenyl(2-pyridylmethyl)phosphonium
Formula: [C24H21NP]+
Exact mass: 354.1406
SMILES: c1ccc(cc1)[P+](Cc2ccccn2)(c3ccccc3)c4ccccc4
InChI: InChI=1S/C24H21NP/c1-4-13-22(14-5-1)26(23-15-6-2-7-16-23,24-17-8-3-9-18-24)20-21-12-10-11-19-25-21/h1-19H,20H2/q+1
Instrument: TripleTOF 5600 SCIEX
Instrument type: LC-ESI-QTOF
Ms type: MS2
Ion mode: POSITIVE
Collision energy: 140
Fragmentation mode: CID
Ionization: ESI
Column name: Zorbax Eclipse Plus C18 2.1 mm x 150 mm, 3.5 um, Agilent
Retention time: 8.341 min
Precursor m/z: 354.1406
Precursor type: [M]+
m/z	relative intensity
56.9933	74
65.0424	95
79.9833	133
80.9906	236
89.0392	249
102.0465	101
107.0054	999
113.0386	102
115.0546	389
126.0462	271
131.0043	87
133.0198	76
139.0545	358
150.0462	166
151.0545	518
152.0625	979
156.0123	101
157.0204	479
180.0126	62
181.0203	396
183.0354	90
