Mass spectrum: Amoxicillin; LC-ESI-QTOF; MS2; 90 V
Name: Amoxicillin
Class: Pharmaceutical
Formula: C16H19N3O5S
Exact mass: 365.1045
SMILES: CC1(S[C@@H]2[C@@H](C(N2[C@H]1C(O)=O)=O)NC([C@@H](c3ccc(O)cc3)N)=O)C
InChI: InChI=1S/C16H19N3O5S/c1-16(2)11(15(23)24)19-13(22)10(14(19)25-16)18-12(21)9(17)7-3-5-8(20)6-4-7/h3-6,9-11,14,20H,17H2,1-2H3,(H,18,21)(H,23,24)/t9-,10-,11+,14-/m1/s1
Instrument: TripleTOF 5600 SCIEX
Instrument type: LC-ESI-QTOF
Ms type: MS2
Ion mode: POSITIVE
Collision energy: 90
Fragmentation mode: CID
Ionization: ESI
Column name: Zorbax Eclipse Plus C18 2.1 mm x 150 mm, 3.5 um, Agilent
Retention time: 4.706 min
Precursor m/z: 366.1118
Precursor type: [M+H]+
m/z	relative intensity
77.0407	440
78.0502	117
79.0573	146
86.0077	793
89.0432	235
91.0549	146
105.0323	176
106.0429	146
107.05	999
114.0021	293
116.0501	381
133.0535	176
137.0059	264
