Mass spectrum: Sitagliptin; LC-ESI-QTOF; MS2; 40 V
Name: Sitagliptin
Class: Pharmaceutical
Formula: C16H15F6N5O
Exact mass: 407.1181
SMILES: c1c(c(cc(c1F)F)F)C[C@H](CC(=O)N2CCn3c(nnc3C(F)(F)F)C2)N
InChI: InChI=1S/C16H15F6N5O/c17-10-6-12(19)11(18)4-8(10)3-9(23)5-14(28)26-1-2-27-13(7-26)24-25-15(27)16(20,21)22/h4,6,9H,1-3,5,7,23H2/t9-/m1/s1
Instrument: TripleTOF 5600 SCIEX
Instrument type: LC-ESI-QTOF
Ms type: MS2
Ion mode: POSITIVE
Collision energy: 40
Fragmentation mode: CID
Ionization: ESI
Column name: Zorbax Eclipse Plus C18 2.1 mm x 150 mm, 3.5 um, Agilent
Retention time: 6.571 min
Precursor m/z: 408.1254
Precursor type: [M+H]+
m/z	relative intensity
56.0548	16
127.035	49
138.027	26
154.0458	99
171.041	60
174.0524	999
193.0694	717
219.0481	12
235.08	319
391.0982	45
