Mass spectrum: Bromacil; LC-ESI-QTOF; MS2; 90 V
Name: Bromacil
Class: Herbicide
Formula: C9H13BrN2O2
Exact mass: 260.016
SMILES: CCC(C)N1C(=O)C(=C(NC1=O)C)Br
InChI: InChI=1S/C9H13BrN2O2/c1-4-5(2)12-8(13)7(10)6(3)11-9(12)14/h5H,4H2,1-3H3,(H,11,14)
Instrument: TripleTOF 6600 SCIEX
Instrument type: LC-ESI-QTOF
Ms type: MS2
Ion mode: NEGATIVE
Collision energy: 90
Fragmentation mode: CID
Ionization: ESI
Column name: Zorbax Eclipse Plus C18 2.1 mm x 150 mm, 3.5 um, Agilent
Retention time: 8.493 min
Precursor m/z: 259.0087
Precursor type: [M-H]-
m/z	relative intensity
41.9993	28
78.9193	999
