Mass spectrum: Diflufenican; LC-ESI-QTOF; MS2; 110 V
Name: Diflufenican
Class: Herbicide
Formula: C19H11F5N2O2
Exact mass: 394.0741
SMILES: C1=CC(=CC(=C1)OC2=C(C=CC=N2)C(=O)NC3=C(C=C(C=C3)F)F)C(F)(F)F
InChI: InChI=1S/C19H11F5N2O2/c20-12-6-7-16(15(21)10-12)26-17(27)14-5-2-8-25-18(14)28-13-4-1-3-11(9-13)19(22,23)24/h1-10H,(H,26,27)
Instrument: TripleTOF 6600 SCIEX
Instrument type: LC-ESI-QTOF
Ms type: MS2
Ion mode: POSITIVE
Collision energy: 110
Fragmentation mode: CID
Ionization: ESI
Column name: Zorbax Eclipse Plus C18 2.1 mm x 150 mm, 3.5 um, Agilent
Retention time: 14.853 min
Precursor m/z: 395.0814
Precursor type: [M+H]+
m/z	relative intensity
39.0239	78
50.0149	70
51.0233	117
57.0139	54
61.0083	62
62.0154	70
63.0234	210
66.0332	54
68.9962	54
73.0095	39
74.0154	148
75.0044	132
75.0226	429
76.0189	39
78.0339	171
81.0133	85
83.029	70
86.0142	31
87.0236	85
88.031	148
89.0383	62
94.0298	54
95.0289	319
98.0156	62
99.0058	70
99.0216	70
100.0175	70
101.0197	85
101.0379	70
105.0153	39
106.021	39
107.0285	124
108.0235	46
112.0179	46
113.0202	62
113.0385	507
114.0326	117
114.0459	405
115.0418	39
115.0535	78
117.0126	117
119.0087	39
119.0266	31
122.0152	148
123.023	522
124.0185	187
125.0195	327
125.0384	62
126.0291	31
126.0454	46
127.042	39
129.0345	62
131.0287	210
132.0305	179
133.0444	538
134.0386	46
137.0201	39
138.031	132
139.039	62
140.049	999
141.0267	46
141.0555	109
143.0284	351
144.0378	109
145.0251	460
148.0198	62
149.0195	85
150.0322	195
151.0358	132
156.0216	39
157.0309	109
158.0395	226
162.0298	179
163.0349	171
164.03	46
164.043	117
165.0417	46
168.0443	70
169.0312	85
169.0521	93
170.0408	124
171.0479	46
175.0333	54
176.0308	124
177.0367	31
182.0326	280
183.041	124
184.0412	70
185.0491	62
188.031	54
189.0376	156
190.045	93
191.037	78
198.0345	78
218.041	124
