Mass spectrum: Diphenylphosphinamide; LC-ESI-QTOF; MS2; 80 V
Name: Diphenylphosphinamide
Formula: C12H12NOP
Exact mass: 217.0657
SMILES: C1=CC=C(C=C1)P(=O)(C2=CC=CC=C2)N
InChI: InChI=1S/C12H12NOP/c13-15(14,11-7-3-1-4-8-11)12-9-5-2-6-10-12/h1-10H,(H2,13,14)
Instrument: TripleTOF 5600 SCIEX
Instrument type: LC-ESI-QTOF
Ms type: MS2
Ion mode: POSITIVE
Collision energy: 80
Fragmentation mode: CID
Ionization: ESI
Column name: Zorbax Eclipse Plus C18 2.1 mm x 150 mm, 3.5 um, Agilent
Retention time: 7.411 min
Precursor m/z: 218.0729
Precursor type: [M+H]+
m/z	relative intensity
45.9835	12
46.9681	19
49.0076	38
50.0152	224
51.0233	999
65.0382	12
67.9814	14
68.989	90
74.0144	12
75.0243	17
77.0386	660
78.0469	26
89.0387	17
95.0039	21
102.0461	31
107.0045	63
115.0537	53
126.0454	21
127.0542	43
128.0631	60
133.0191	19
139.0542	26
144.0121	14
150.0462	12
151.0566	53
152.0625	148
153.0692	19
157.0184	31
170.0297	36
181.0211	17
