Mass spectrum: 2-(2-Hydroxyphenyl)-1H-benzimidazole; LC-ESI-QTOF; MS2; 70 V
Name: 2-(2-Hydroxyphenyl)-1H-benzimidazole
Class: Industrial_process; Pharmaceutical
Formula: C13H10N2O
Exact mass: 210.0793
SMILES: C1=CC=C2C(=C1)NC(=C3C=CC=CC3=O)N2
InChI: InChI=1S/C13H10N2O/c16-12-8-4-1-5-9(12)13-14-10-6-2-3-7-11(10)15-13/h1-8,14-15H
Instrument: TripleTOF 5600 SCIEX
Instrument type: LC-ESI-QTOF
Ms type: MS2
Ion mode: NEGATIVE
Collision energy: 70
Fragmentation mode: CID
Ionization: ESI
Column name: Zorbax Eclipse Plus C18 2.1 mm x 150 mm, 3.5 um, Agilent
Retention time: 6.225 min
Precursor m/z: 209.072
Precursor type: [M-H]-
m/z	relative intensity
41.0032	122
41.9986	55
50.0031	61
90.0346	999
115.0292	122
117.0468	208
118.0305	588
130.0545	208
131.0614	153
141.0464	778
154.0532	202
155.0625	116
165.0455	159
179.0616	79
180.0712	288
