Mass spectrum: Tetraconazole; LC-ESI-QTOF; MS2; 140 V
Name: Tetraconazole
Class: Fungicide
Formula: C13H11Cl2F4N3O
Exact mass: 371.0215
SMILES: C1=CC(=C(C=C1Cl)Cl)C(CN2C=NC=N2)COC(C(F)F)(F)F
InChI: InChI=1S/C13H11Cl2F4N3O/c14-9-1-2-10(11(15)3-9)8(4-22-7-20-6-21-22)5-23-13(18,19)12(16)17/h1-3,6-8,12H,4-5H2
Instrument: TripleTOF 6600 SCIEX
Instrument type: LC-ESI-QTOF
Ms type: MS2
Ion mode: POSITIVE
Collision energy: 140
Fragmentation mode: CID
Ionization: ESI
Column name: Zorbax Eclipse Plus C18 2.1 mm x 150 mm, 3.5 um, Agilent
Retention time: 12.382 min
Precursor m/z: 372.0288
Precursor type: [M+H]+
m/z	relative intensity
37.0075	16
38.0152	16
39.0231	59
42.0213	10
43.0293	124
46.9682	47
48.984	51
50.0153	11
51.0043	163
57.0134	10
59.9998	16
61.0075	121
62.0155	344
63.0233	566
65.0386	31
70.0399	134
71.9761	10
72.9843	609
74.0156	36
75.0231	32
82.9446	67
85.0074	10
86.0151	44
87.0228	59
88.031	85
89.039	999
96.984	145
98.9996	87
106.9449	23
107.0286	24
113.0384	32
114.0464	15
115.0542	122
122.9995	88
124.0074	12
132.9604	32
133.0447	16
