Mass spectrum: Celiprolol; LC-ESI-QTOF; MS2; 140 V
Name: Celiprolol
Class: Pharmaceutical
Formula: C20H33N3O4
Exact mass: 379.2471
SMILES: CCN(CC)C(=O)NC1=CC(=C(C=C1)OCC(CNC(C)(C)C)O)C(=O)C
InChI: InChI=1S/C20H33N3O4/c1-7-23(8-2)19(26)22-15-9-10-18(17(11-15)14(3)24)27-13-16(25)12-21-20(4,5)6/h9-11,16,21,25H,7-8,12-13H2,1-6H3,(H,22,26)
Instrument: TripleTOF 5600 SCIEX
Instrument type: LC-ESI-QTOF
Ms type: MS2
Ion mode: POSITIVE
Collision energy: 140
Fragmentation mode: CID
Ionization: ESI
Column name: Zorbax Eclipse Plus C18 2.1 mm x 150 mm, 3.5 um, Agilent
Retention time: 6.532 min
Precursor m/z: 380.2544
Precursor type: [M+H]+
m/z	relative intensity
43.0256	103
44.0228	778
52.0247	41
52.0368	34
56.0552	999
57.0752	475
58.0713	103
65.0425	227
72.0488	110
74.0179	48
74.0642	303
74.0995	96
75.0251	34
77.0417	992
77.0689	41
78.0365	117
80.0148	41
81.0345	34
89.0403	124
90.0349	48
91.0564	41
92.0513	41
101.0397	34
102.0388	34
102.0488	34
104.0489	82
105.0332	34
106.0316	62
115.0546	117
117.0605	41
128.0524	34
