Mass spectrum: Benzyldiphenylphosphine oxide; LC-ESI-QTOF; MS2; 120 V
Name: Benzyldiphenylphosphine oxide
Class: Industrial_process
Formula: C19H17OP
Exact mass: 292.1017
SMILES: O=P(c1ccccc1)(c2ccccc2)Cc3ccccc3
InChI: InChI=1S/C19H17OP/c20-21(18-12-6-2-7-13-18,19-14-8-3-9-15-19)16-17-10-4-1-5-11-17/h1-15H,16H2
Instrument: TripleTOF 5600 SCIEX
Instrument type: LC-ESI-QTOF
Ms type: MS2
Ion mode: POSITIVE
Collision energy: 120
Fragmentation mode: CID
Ionization: ESI
Column name: Zorbax Eclipse Plus C18 2.1 mm x 150 mm, 3.5 um, Agilent
Retention time: 10.822 min
Precursor m/z: 293.109
Precursor type: [M+H]+
m/z	relative intensity
37.0186	38
51.0306	89
65.0431	999
77.041	23
89.0395	21
91.0557	721
107.0054	15
126.0488	12
150.0453	13
151.0554	19
152.0623	38
181.0209	15
