Mass spectrum: Fluxapyroxad; LC-ESI-QTOF; MS2; 40 V
Name: Fluxapyroxad
Class: Fungicide
Formula: C18H12F5N3O
Exact mass: 381.0901
SMILES: Cn1cc(c(n1)C(F)F)C(=O)Nc2ccccc2c3cc(c(c(c3)F)F)F
InChI: InChI=1S/C18H12F5N3O/c1-26-8-11(16(25-26)17(22)23)18(27)24-14-5-3-2-4-10(14)9-6-12(19)15(21)13(20)7-9/h2-8,17H,1H3,(H,24,27)
Instrument: TripleTOF 6600 SCIEX
Instrument type: LC-ESI-QTOF
Ms type: MS2
Ion mode: NEGATIVE
Collision energy: 40
Fragmentation mode: CID
Ionization: ESI
Column name: Zorbax Eclipse Plus C18 2.1 mm x 150 mm, 3.5 um, Agilent
Retention time: 12.239 min
Precursor m/z: 380.0828
Precursor type: [M-H]-
m/z	relative intensity
41.9985	18
50.0032	18
63.0232	27
65.0133	12
91.0296	999
111.0357	138
131.0424	545
200.0294	10
220.0369	205
222.0515	10
248.0316	938
291.058	37
360.0727	10
380.0795	386
