Mass spectrum: Triphenylphosphine oxide; LC-ESI-QTOF; MS2; 80 V
Name: Triphenylphosphine oxide
Class: Industrial_process
Formula: C18H15OP
Exact mass: 278.0861
SMILES: O=[P](c1ccccc1)(c2ccccc2)c3ccccc3
InChI: InChI=1S/C18H15OP/c19-20(16-10-4-1-5-11-16,17-12-6-2-7-13-17)18-14-8-3-9-15-18/h1-15H
Instrument: TripleTOF 5600 SCIEX
Instrument type: LC-ESI-QTOF
Ms type: MS2
Ion mode: POSITIVE
Collision energy: 80
Fragmentation mode: CID
Ionization: ESI
Column name: Zorbax Eclipse Plus C18 2.1 mm x 150 mm, 3.5 um, Agilent
Retention time: 10.458 min
Precursor m/z: 279.0933
Precursor type: [M+H]+
m/z	relative intensity
51.031	475
67.9864	14
68.9928	102
74.0186	10
77.0418	999
78.0499	11
95.006	147
102.0467	22
107.0047	88
115.0548	97
126.05	17
127.0562	53
128.0631	203
129.0716	29
133.0212	101
139.0539	38
141.0694	29
144.0121	14
145.0195	25
151.0563	46
152.062	304
153.07	115
154.0776	16
157.0202	84
169.0211	11
170.0287	147
171.0351	59
173.0478	10
181.0226	24
183.0357	86
