Mass spectrum: 4-Bromoantipyrine; LC-ESI-QTOF; MS2; 100 V
Name: 4-Bromoantipyrine
Class: Industrial_process
Formula: C11H11BrN2O
Exact mass: 266.0055
SMILES: CC1=C(C(=O)N(N1C)C2=CC=CC=C2)Br
InChI: InChI=1S/C11H11BrN2O/c1-8-10(12)11(15)14(13(8)2)9-6-4-3-5-7-9/h3-7H,1-2H3
Instrument: TripleTOF 6600 SCIEX
Instrument type: LC-ESI-QTOF
Ms type: MS2
Ion mode: POSITIVE
Collision energy: 100
Fragmentation mode: CID
Ionization: ESI
Column name: Zorbax Eclipse Plus C18 2.1 mm x 150 mm, 3.5 um, Agilent
Retention time: 7.678 min
Precursor m/z: 267.0128
Precursor type: [M+H]+
m/z	relative intensity
39.0222	199
42.0328	374
49.0057	99
50.014	324
51.0218	924
54.0323	199
56.048	974
63.0213	149
65.0371	324
74.0131	99
75.0205	124
76.0285	99
77.037	999
89.0365	199
104.9304	174
115.0508	174
