Mass spectrum: Ketoconazole; LC-ESI-QTOF; MS2; 100 V
Name: Ketoconazole
Class: Fungicide; Pharmaceutical
Formula: C26H28Cl2N4O4
Exact mass: 530.1488
SMILES: CC(=O)N1CCN(CC1)C2=CC=C(C=C2)OCC3COC(O3)(CN4C=CN=C4)C5=C(C=C(C=C5)Cl)Cl
InChI: InChI=1S/C26H28Cl2N4O4/c1-19(33)31-10-12-32(13-11-31)21-3-5-22(6-4-21)34-15-23-16-35-26(36-23,17-30-9-8-29-18-30)24-7-2-20(27)14-25(24)28/h2-9,14,18,23H,10-13,15-17H2,1H3
Instrument: TripleTOF 5600 SCIEX
Instrument type: LC-ESI-QTOF
Ms type: MS2
Ion mode: POSITIVE
Collision energy: 100
Fragmentation mode: CID
Ionization: ESI
Column name: Zorbax Eclipse Plus C18 2.1 mm x 150 mm, 3.5 um, Agilent
Retention time: 7.94 min
Precursor m/z: 531.156
Precursor type: [M+H]+
m/z	relative intensity
54.0434	56
56.0591	36
68.0425	19
69.0499	86
70.0714	89
71.0676	29
77.0442	103
78.0409	19
79.0584	89
80.0531	16
81.0495	999
82.0575	522
83.0654	26
86.0644	23
89.0423	36
91.0577	93
93.0367	96
94.043	39
94.0717	19
98.9985	16
99.0242	19
102.0458	16
103.0564	109
104.0486	16
104.0648	16
105.0722	26
106.0662	39
107.0523	69
107.0705	13
108.0464	13
108.9859	19
109.0398	23
109.0525	16
111.0016	33
112.0755	109
115.054	139
116.0625	26
117.0612	99
118.0676	76
119.0494	23
119.0779	46
120.0457	382
120.0808	73
121.0419	19
121.056	33
122.0621	176
123.001	259
124.0096	36
125.0174	26
127.0519	316
128.0525	13
128.0641	33
129.0727	36
130.0665	186
131.0505	83
131.0727	53
132.0601	36
132.0824	39
133.0539	23
133.0689	16
134.0616	153
135.0001	43
135.0694	36
136.0098	59
136.0752	123
137.0181	16
143.0766	26
144.0816	83
144.96	83
145.0737	19
145.9707	29
146.0602	63
146.0977	56
146.9782	16
148.0749	73
149.0153	83
150.0228	69
156.0848	39
157.9684	153
158.0619	33
158.0974	16
158.9774	532
159.0625	33
160.0744	29
163.0065	16
163.0334	13
167.0276	16
167.0827	73
169.9697	349
170.9782	66
172.9566	229
174.0904	69
174.9699	19
177.1068	13
182.9765	16
184.9944	19
185.9632	53
186.9745	13
203.0288	19
203.0412	46
204.0246	16
205.0281	36
239.0156	19
252.9912	36
255.0021	13
267.0054	16
