Mass spectrum: Eprosartan; LC-ESI-QTOF; MS2; 50 V
Name: Eprosartan
Class: Pharmaceutical
Formula: C23H24N2O4S
Exact mass: 424.1457
SMILES: CCCCc1ncc(\C=C(/Cc2sccc2)C(O)=O)n1Cc3ccc(cc3)C(O)=O
InChI: InChI=1S/C23H24N2O4S/c1-2-3-6-21-24-14-19(12-18(23(28)29)13-20-5-4-11-30-20)25(21)15-16-7-9-17(10-8-16)22(26)27/h4-5,7-12,14H,2-3,6,13,15H2,1H3,(H,26,27)(H,28,29)/b18-12+
Instrument: TripleTOF 5600 SCIEX
Instrument type: LC-ESI-QTOF
Ms type: MS2
Ion mode: NEGATIVE
Collision energy: 50
Fragmentation mode: CID
Ionization: ESI
Column name: Zorbax Eclipse Plus C18 2.1 mm x 150 mm, 3.5 um, Agilent
Retention time: 6.955 min
Precursor m/z: 423.1384
Precursor type: [M-H]-
m/z	relative intensity
82.9949	114
91.0559	71
93.0441	57
96.0045	99
97.0107	313
121.0289	214
123.0917	85
135.0433	99
165.0678	85
167.0661	57
180.0701	128
198.0548	85
199.0595	185
201.047	199
208.0973	99
214.0499	57
215.0648	999
237.1391	242
243.0954	85
244.1024	428
245.1099	585
291.095	57
322.0731	57
