Mass spectrum: 6alpha-Methylprednisolone; LC-ESI-QTOF; MS2; 40 V
Name: 6alpha-Methylprednisolone
Class: Pharmaceutical
Formula: C22H30O5
Exact mass: 374.2093
SMILES: C[C@H]1C[C@H]2[C@@H]3CC[C@](O)(C(=O)CO)[C@@]3(C)C[C@H](O)[C@@H]2[C@@]4(C)C=CC(=O)C=C14
InChI: InChI=1S/C22H30O5/c1-12-8-14-15-5-7-22(27,18(26)11-23)21(15,3)10-17(25)19(14)20(2)6-4-13(24)9-16(12)20/h4,6,9,12,14-15,17,19,23,25,27H,5,7-8,10-11H2,1-3H3/t12-,14-,15-,17-,19+,20-,21-,22-/m0/s1
Instrument: TripleTOF 5600 SCIEX
Instrument type: LC-ESI-QTOF
Ms type: MS2
Ion mode: POSITIVE
Collision energy: 40
Fragmentation mode: CID
Ionization: ESI
Column name: Zorbax Eclipse Plus C18 2.1 mm x 150 mm, 3.5 um, Agilent
Retention time: 9.016 min
Precursor m/z: 375.2166
Precursor type: [M+H]+
m/z	relative intensity
67.0582	26
77.0398	22
79.0559	48
81.0734	53
91.056	132
93.0713	75
95.0858	53
97.0671	35
105.0692	194
107.05	22
107.0861	92
109.0659	22
109.1004	44
115.0519	44
117.0699	66
119.0855	106
121.0642	411
121.0997	26
123.0809	39
125.0617	35
128.0621	30
129.071	35
131.0863	119
133.0645	44
133.0996	106
135.0802	742
137.0598	30
137.0946	30
139.0737	22
141.0706	39
142.0774	22
143.0852	79
145.0653	119
145.1004	97
146.0722	61
147.0804	159
147.1156	44
149.0944	61
151.0737	26
157.0637	35
157.1015	53
158.0755	132
159.0803	362
159.1146	44
160.0873	48
161.0585	30
161.0959	999
165.0932	30
166.0767	26
167.089	35
169.1036	35
171.079	106
171.1149	44
172.0876	106
173.0959	243
175.1121	83
177.0915	44
178.0769	22
179.0811	26
180.0936	22
181.0629	26
181.0998	48
183.0812	26
184.0874	35
185.0962	888
186.1031	22
187.1109	455
189.0912	106
189.1274	26
191.1065	26
192.0904	26
193.1007	110
194.1083	26
195.0788	79
195.1192	39
196.0884	132
197.0942	101
198.1012	26
199.1117	150
201.1311	26
204.093	17
205.1009	17
206.1102	17
207.1171	44
208.0907	83
208.1237	17
209.0966	269
209.1345	17
210.1034	119
211.1112	693
212.1169	30
213.0911	22
213.1282	145
217.1025	39
218.1056	22
219.115	35
220.1252	48
221.0947	61
221.1339	39
222.1051	137
223.1124	251
224.118	88
225.1261	181
227.1073	22
227.1428	61
231.1387	30
233.1328	39
234.1047	39
235.1113	119
235.1451	61
236.1188	92
237.1273	353
238.1356	159
239.1409	128
241.1584	17
243.1142	26
245.0933	39
245.1224	17
246.104	44
247.1115	44
248.1177	48
249.1248	137
250.1353	44
251.1066	26
251.1432	296
253.1218	22
253.1584	455
255.1334	22
259.1102	44
260.1179	17
261.1277	101
261.1634	22
262.1373	61
263.1429	101
263.1781	70
264.1161	26
264.1491	35
265.1575	300
267.1386	48
269.1508	26
273.1269	48
274.1342	44
275.1444	30
277.1572	92
278.1649	48
279.1377	83
279.1747	141
280.1819	282
281.1534	39
281.1902	48
288.1508	57
291.1762	61
293.1563	17
293.1914	83
295.175	30
297.1464	26
303.1723	79
306.1624	30
321.1889	35
339.1922	17
