Mass spectrum: Sudan I; LC-ESI-QTOF; MS2; 70 V
Name: Sudan I
Formula: C16H12N2O
Exact mass: 248.095
SMILES: C1=CC=C(C=C1)N=NC2=C(C=CC3=CC=CC=C32)O
InChI: InChI=1S/C16H12N2O/c19-15-11-10-12-6-4-5-9-14(12)16(15)18-17-13-7-2-1-3-8-13/h1-11,19H
Instrument: TripleTOF 6600 SCIEX
Instrument type: LC-ESI-QTOF
Ms type: MS2
Ion mode: POSITIVE
Collision energy: 70
Fragmentation mode: CID
Ionization: ESI
Column name: Zorbax Eclipse Plus C18 2.1 mm x 150 mm, 3.5 um, Agilent
Retention time: 15.674 min
Precursor m/z: 249.1023
Precursor type: [M+H]+
m/z	relative intensity
39.0232	29
40.031	12
50.0161	10
51.0229	104
54.0336	19
65.0383	199
66.0463	433
67.0413	17
74.0147	70
75.0227	409
76.0183	18
77.0385	299
78.0331	44
92.0491	258
93.0573	999
101.0386	207
102.0331	70
127.0395	12
127.0527	45
128.0484	54
129.0449	116
130.0392	46
151.0543	22
176.0618	27
201.0613	11
202.0664	10
203.0747	28
204.082	21
229.0778	29
230.0828	14
231.0919	69
