Mass spectrum: Flavanone; LC-ESI-QTOF; MS2; 150 V
Name: Flavanone
Class: Personal_care_product
Formula: C15H12O2
Exact mass: 224.0837
SMILES: C1C(OC2=CC=CC=C2C1=O)C3=CC=CC=C3
InChI: InChI=1S/C15H12O2/c16-13-10-15(11-6-2-1-3-7-11)17-14-9-5-4-8-12(13)14/h1-9,15H,10H2
Instrument: TripleTOF 5600 SCIEX
Instrument type: LC-ESI-QTOF
Ms type: CID
Ion mode: POSITIVE
Collision energy: 150
Ionization: ESI
Column name: Zorbax Eclipse Plus C18 2.1 mm x 150 mm, 3.5 um, Agilent
Retention time: 12.61 min
Precursor m/z: 225.091
Precursor type: [M+H]+
m/z	relative intensity
35.9997	63
37.007	285
38.0149	222
39.023	269
49.0064	142
50.015	999
51.0227	792
53.0021	79
61.0077	206
62.0152	222
63.023	142
73.0068	222
74.0149	570
77.0376	79
85.0069	95
86.0138	79
98.0161	174
110.0153	95
