Mass spectrum: Cyproterone; LC-ESI-QTOF; MS2; 40 V
Name: Cyproterone
Class: Pharmaceutical
Formula: C22H27ClO3
Exact mass: 374.1649
SMILES: CC(=O)C1(CCC2C1(CCC3C2C=C(C4=CC(=O)C5CC5C34C)Cl)C)O
InChI: InChI=1S/C22H27ClO3/c1-11(24)22(26)7-5-14-12-9-18(23)17-10-19(25)13-8-16(13)21(17,3)15(12)4-6-20(14,22)2/h9-10,12-16,26H,4-8H2,1-3H3
Instrument: TripleTOF 5600 SCIEX
Instrument type: LC-ESI-QTOF
Ms type: MS2
Ion mode: POSITIVE
Collision energy: 40
Fragmentation mode: CID
Ionization: ESI
Column name: Zorbax Eclipse Plus C18 2.1 mm x 150 mm, 3.5 um, Agilent
Retention time: 11.881 min
Precursor m/z: 375.1721
Precursor type: [M+H]+
m/z	relative intensity
43.0182	66
67.0534	15
77.0391	17
79.0545	33
81.0696	28
83.0482	25
85.0649	10
87.0437	38
91.0536	89
93.0694	48
95.0482	12
95.0855	23
97.0641	15
105.0702	110
107.052	12
107.085	48
109.0635	23
109.1039	17
111.0815	35
115.0533	25
117.0691	51
119.0843	79
121.0661	43
121.1019	28
123.0799	35
127.0516	12
128.0602	33
129.0696	48
131.0491	17
131.0858	64
133.0654	25
133.1004	136
135.0813	12
137.0944	12
141.07	56
142.077	48
143.0849	82
144.0916	12
145.0653	46
145.0992	66
146.0754	20
147.0805	28
147.1163	95
149.0967	20
151.1111	17
153.0679	15
154.0792	20
155.0281	23
155.0631	20
155.0857	64
156.0934	28
157.0652	23
157.1003	71
158.0718	17
159.0798	51
159.1165	30
163.0262	23
163.1096	15
165.0683	41
166.0781	25
167.0255	15
167.085	56
168.0916	35
169.0399	10
169.059	12
169.1025	38
170.0761	12
171.079	41
171.1171	35
173.0924	10
175.1118	71
177.0457	28
177.055	12
177.1214	10
178.0741	15
179.0847	74
180.0931	43
181.0411	59
181.0999	82
182.1087	38
183.0801	38
183.1172	92
184.0911	25
185.0954	97
187.1113	28
189.0437	17
189.0869	10
189.1266	20
191.0233	35
191.0625	46
191.0861	33
192.0916	28
193.0427	28
193.1017	87
194.1107	25
195.06	12
195.0764	33
195.1171	118
196.0862	15
196.1287	17
197.0971	30
197.1318	38
198.1061	10
199.1113	28
201.0495	15
201.1273	15
203.0612	23
203.0786	38
204.0821	12
204.0928	20
205.0408	61
205.1007	82
206.0679	10
206.1064	30
207.0608	25
207.0806	20
207.1153	97
208.0862	17
208.1213	25
209.0946	51
209.1309	59
210.1058	15
210.1402	23
211.1095	41
213.1261	12
215.0612	23
215.0854	23
216.0944	20
217.0759	35
217.1021	56
218.1085	38
218.1204	10
219.057	205
219.0824	12
219.1174	84
220.0865	10
220.1277	25
221.0653	10
221.0945	74
221.1316	61
222.1048	33
222.149	12
223.1111	66
223.1513	30
224.1154	20
225.1254	23
227.1429	10
229.0967	35
230.1	12
231.0575	17
231.097	23
231.1175	28
232.1251	38
233.0937	25
233.1311	87
234.0978	12
234.1363	28
235.1117	84
235.146	148
236.1187	53
237.129	79
237.1604	41
238.1331	25
239.1416	33
241.0781	15
241.1037	15
243.0991	15
243.119	12
244.1202	17
245.0699	43
245.0901	10
245.1299	95
246.0952	12
246.1393	35
247.0864	17
247.1104	35
247.1451	48
248.1208	38
248.1583	17
249.1283	56
249.1661	66
250.135	28
250.1634	12
250.1739	17
251.1404	115
251.1769	46
253.1546	43
255.0917	17
257.0757	12
257.1073	20
257.1391	12
259.0879	35
259.1243	25
259.1487	28
259.159	20
260.1569	30
261.1147	15
261.1293	10
261.1628	84
262.1355	38
262.1736	10
263.1439	241
264.1494	46
265.1209	12
265.1578	51
269.0813	10
269.1121	12
270.1531	12
271.088	20
271.1267	17
273.1021	23
273.125	23
273.1565	12
274.1172	17
275.1303	15
275.1718	25
277.1209	10
277.157	148
278.1667	138
279.1733	338
281.1141	12
285.1014	23
285.1307	17
285.1592	12
287.1095	15
287.1199	23
287.1454	30
288.1537	20
289.1055	12
289.14	12
293.1517	192
293.1937	25
297.1382	25
297.1855	10
299.1218	56
301.1353	30
303.1735	105
306.1608	61
313.1347	130
314.1401	97
315.15	82
321.1311	10
321.1844	439
322.184	10
329.1634	23
332.1424	17
339.145	17
339.1631	12
339.1922	30
357.1594	223
375.1707	999
