Mass spectrum: O-desmethyl-metoprolol; LC-ESI-QTOF; MS2; 140 V
Name: O-desmethyl-metoprolol
Class: Pharmaceutical; Metabolite; Transformation_product; Transformation_product-Metabolite
Formula: C14H23NO3
Exact mass: 253.1678
SMILES: CC(C)NCC(O)COc1ccc(CCO)cc1
InChI: InChI=1S/C14H23NO3/c1-11(2)15-9-13(17)10-18-14-5-3-12(4-6-14)7-8-16/h3-6,11,13,15-17H,7-10H2,1-2H3
Instrument: TripleTOF 5600 SCIEX
Instrument type: LC-ESI-QTOF
Ms type: MS2
Ion mode: POSITIVE
Collision energy: 140
Fragmentation mode: CID
Ionization: ESI
Column name: Zorbax Eclipse Plus C18 2.1 mm x 150 mm, 3.5 um, Agilent
Retention time: 5.112 min
Precursor m/z: 254.1751
Precursor type: [M+H]+
m/z	relative intensity
42.0462	104
44.0626	187
56.0568	166
58.0715	124
65.0424	520
74.0186	437
75.0256	166
76.036	83
77.0417	999
89.0407	312
91.0539	104
