Mass spectrum: Norfloxacin; LC-ESI-QTOF; MS2; 30 V
Name: Norfloxacin
Class: Antimicrobial; Pharmaceutical
Formula: C16H18FN3O3
Exact mass: 319.1332
SMILES: CCN1C=C(C(=O)C2=CC(=C(C=C21)N3CCNCC3)F)C(=O)O
InChI: InChI=1S/C16H18FN3O3/c1-2-19-9-11(16(22)23)15(21)10-7-12(17)14(8-13(10)19)20-5-3-18-4-6-20/h7-9,18H,2-6H2,1H3,(H,22,23)
Instrument: TripleTOF 5600 SCIEX
Instrument type: LC-ESI-QTOF
Ms type: MS2
Ion mode: POSITIVE
Collision energy: 30
Fragmentation mode: CID
Ionization: ESI
Column name: Zorbax Eclipse Plus C18 2.1 mm x 150 mm, 3.5 um, Agilent
Retention time: 5.167 min
Precursor m/z: 320.1405
Precursor type: [M+H]+
m/z	relative intensity
205.0774	27
219.0923	33
231.0563	30
233.1069	173
256.1409	48
274.1376	12
276.1498	173
282.1227	95
302.129	999
320.1367	80
