Mass spectrum: Norgestrel; LC-ESI-QTOF; MS2; 120 V
Name: Norgestrel
Class: Pharmaceutical
Formula: C21H28O2
Exact mass: 312.2089
SMILES: CCC12CCC3C(C1CCC2(C#C)O)CCC4=CC(=O)CCC34
InChI: InChI=1S/C21H28O2/c1-3-20-11-9-17-16-8-6-15(22)13-14(16)5-7-18(17)19(20)10-12-21(20,23)4-2/h2,13,16-19,23H,3,5-12H2,1H3
Instrument: TripleTOF 5600 SCIEX
Instrument type: LC-ESI-QTOF
Ms type: MS2
Ion mode: POSITIVE
Collision energy: 120
Fragmentation mode: CID
Ionization: ESI
Column name: Zorbax Eclipse Plus C18 2.1 mm x 150 mm, 3.5 um, Agilent
Retention time: 12.063 min
Precursor m/z: 313.2162
Precursor type: [M+H]+
m/z	relative intensity
55.0247	14
65.0463	384
75.029	31
76.0371	28
77.0448	999
78.0518	109
79.0595	278
81.0767	45
83.0545	77
89.0429	158
91.0591	571
94.0425	24
101.0428	24
102.0493	151
103.0586	91
105.0752	28
107.0521	24
114.0493	24
115.0573	744
116.0634	31
117.0734	49
126.0483	60
127.057	215
128.0649	441
129.0724	38
139.0567	42
141.0725	60
151.0549	60
152.0632	180
153.0717	52
155.0584	21
163.0541	24
164.0648	35
165.0715	112
176.0577	17
177.0683	14
178.0754	31
189.0669	35
202.0802	17
