Mass spectrum: (2-Hydroxyethyl)triphenylphosphonium; LC-ESI-QTOF; MS2; 120 V
Name: (2-Hydroxyethyl)triphenylphosphonium
Class: Industrial_process
Formula: [C20H20OP]+
Exact mass: 307.1246
SMILES: OCC[P+](c1ccccc1)(c2ccccc2)c3ccccc3
InChI: InChI=1S/C20H20OP/c21-16-17-22(18-10-4-1-5-11-18,19-12-6-2-7-13-19)20-14-8-3-9-15-20/h1-15,21H,16-17H2/q+1
Instrument: TripleTOF 5600 SCIEX
Instrument type: LC-ESI-QTOF
Ms type: MS2
Ion mode: POSITIVE
Collision energy: 120
Fragmentation mode: CID
Ionization: ESI
Column name: Zorbax Eclipse Plus C18 2.1 mm x 150 mm, 3.5 um, Agilent
Retention time: 7.101 min
Precursor m/z: 307.1246
Precursor type: [M]+
m/z	relative intensity
65.043	69
77.0409	76
79.9833	120
80.9908	197
89.0398	176
102.0477	83
107.0048	999
113.0383	64
115.0548	362
126.0464	194
131.0042	84
133.0204	97
139.0545	300
150.0465	140
151.0545	422
152.0625	991
156.0127	71
157.0201	556
181.0202	392
183.0358	212
226.0782	115
255.0344	64
257.0517	89
