Mass spectrum: 3-Amino-5-methylisoxazole; LC-ESI-QTOF; MS2; 60 V
Name: 3-Amino-5-methylisoxazole
Formula: C4H6N2O
Exact mass: 98.048
SMILES: CC1=CC(=NO1)N
InChI: InChI=1S/C4H6N2O/c1-3-2-4(5)6-7-3/h2H,1H3,(H2,5,6)
Instrument: TripleTOF 6600 SCIEX
Instrument type: LC-ESI-QTOF
Ms type: MS2
Ion mode: POSITIVE
Collision energy: 60
Fragmentation mode: CID
Ionization: ESI
Column name: Zorbax Eclipse Plus C18 2.1 mm x 150 mm, 3.5 um, Agilent
Retention time: 4.412 min
Precursor m/z: 99.0553
Precursor type: [M+H]+
m/z	relative intensity
30.033	34
31.0166	13
38.0018	34
39.022	17
40.0174	62
42.0199	69
42.033	65
43.0183	318
43.0277	999
44.0121	100
44.0483	58
68.0123	24
