Mass spectrum: Atrazine; LC-ESI-QTOF; MS2; 20 V
Name: Atrazine
Class: Herbicide
Formula: C8H14ClN5
Exact mass: 215.0938
SMILES: CCNc1nc(Cl)nc(NC(C)C)n1
InChI: InChI=1S/C8H14ClN5/c1-4-10-7-12-6(9)13-8(14-7)11-5(2)3/h5H,4H2,1-3H3,(H2,10,11,12,13,14)
Instrument: TripleTOF 5600 SCIEX
Instrument type: LC-ESI-QTOF
Ms type: MS2
Ion mode: POSITIVE
Collision energy: 20
Fragmentation mode: CID
Ionization: ESI
Column name: Zorbax Eclipse Plus C18 2.1 mm x 150 mm, 3.5 um, Agilent
Retention time: 10.312 min
Precursor m/z: 216.101
Precursor type: [M+H]+
m/z	relative intensity
68.0286	13
79.0087	29
96.0575	53
104.002	39
132.0328	53
138.1022	20
146.024	37
146.0474	13
174.0546	752
216.1011	999
