Mass spectrum: Nitrendipine; LC-ESI-QTOF; MS2; 150 V
Name: Nitrendipine
Class: Pharmaceutical
Formula: C18H20N2O6
Exact mass: 360.1321
SMILES: CCOC(=O)C1=C(NC(=C(C1C2=CC(=CC=C2)[N+](=O)[O-])C(=O)OC)C)C
InChI: InChI=1S/C18H20N2O6/c1-5-26-18(22)15-11(3)19-10(2)14(17(21)25-4)16(15)12-7-6-8-13(9-12)20(23)24/h6-9,16,19H,5H2,1-4H3
Instrument: TripleTOF 5600 SCIEX
Instrument type: LC-ESI-QTOF
Ms type: MS2
Ion mode: POSITIVE
Collision energy: 150
Fragmentation mode: CID
Ionization: ESI
Column name: Zorbax Eclipse Plus C18 2.1 mm x 150 mm, 3.5 um, Agilent
Retention time: 12.373 min
Precursor m/z: 361.1394
Precursor type: [M+H]+
m/z	relative intensity
65.0441	109
67.0239	450
74.0216	186
75.0283	252
76.0356	131
77.0429	867
78.0375	109
78.0506	87
79.0565	43
85.0095	54
86.0188	120
87.0269	230
88.0346	87
89.0416	537
91.0551	76
98.0189	87
99.0233	98
101.0395	142
102.0478	296
104.0512	87
106.0665	43
113.0391	340
114.0367	65
114.0496	76
115.0554	494
125.0371	87
126.0469	439
127.0543	362
128.0623	186
137.0408	142
138.0448	120
139.0543	999
140.0507	296
141.0627	54
150.0462	373
151.0543	548
152.0626	911
153.0564	54
154.065	87
163.0544	164
164.0516	87
166.0642	98
167.0717	87
177.0575	87
178.0593	76
