Mass spectrum: 11alpha-Hydroxyprogesterone; LC-ESI-QTOF; MS2; 90 V
Name: 11alpha-Hydroxyprogesterone
Class: Pharmaceutical; Metabolite
Formula: C21H30O3
Exact mass: 330.2195
SMILES: CC(=O)C1CC[C@H]2[C@@H]3CCC4=CC(=O)CC[C@]4(C)[C@H]3[C@H](O)C[C@]12C
InChI: InChI=1S/C21H30O3/c1-12(22)16-6-7-17-15-5-4-13-10-14(23)8-9-20(13,2)19(15)18(24)11-21(16,17)3/h10,15-19,24H,4-9,11H2,1-3H3/t15-,16?,17-,18+,19+,20-,21+/m0/s1
Instrument: TripleTOF 5600 SCIEX
Instrument type: LC-ESI-QTOF
Ms type: MS2
Ion mode: POSITIVE
Collision energy: 90
Fragmentation mode: CID
Ionization: ESI
Column name: Zorbax Eclipse Plus C18 2.1 mm x 150 mm, 3.5 um, Agilent
Retention time: 10.293 min
Precursor m/z: 331.2268
Precursor type: [M+H]+
m/z	relative intensity
43.027	355
43.0581	15
53.0418	26
55.0224	61
55.0589	103
65.0425	195
67.0584	202
69.0353	19
71.0528	19
77.0416	968
78.0471	22
79.0569	440
81.0349	15
81.0715	80
83.0508	99
83.0801	15
89.0419	15
91.0556	999
93.0702	91
94.0421	53
95.0488	19
95.0854	49
97.0659	103
102.0466	34
103.0547	149
104.0617	38
105.0698	340
107.0502	80
108.0572	26
109.0633	34
115.054	451
116.0607	80
117.0687	141
119.0847	57
121.0642	130
123.0805	61
127.0526	91
128.0617	424
129.0686	202
130.0764	38
131.0478	30
131.0853	65
133.0657	22
141.0691	260
142.0768	42
143.0824	30
147.0804	57
148.087	22
152.0612	118
153.0701	103
154.0773	53
155.0863	65
157.0644	19
165.0697	126
166.0738	42
167.0851	42
168.0855	19
169.1013	19
178.0786	65
179.0846	53
189.0696	30
190.0772	22
191.0871	15
192.0916	15
