Mass spectrum: Codeine; LC-ESI-QTOF; MS2; 120 V
Name: Codeine
Formula: C18H21NO3
Exact mass: 299.1521
SMILES: CN1CCC23C4C1CC5=C2C(=C(C=C5)OC)OC3C(C=C4)O
InChI: InChI=1S/C18H21NO3/c1-19-8-7-18-11-4-5-13(20)17(18)22-16-14(21-2)6-3-10(15(16)18)9-12(11)19/h3-6,11-13,17,20H,7-9H2,1-2H3
Instrument: TripleTOF 6600 SCIEX
Instrument type: LC-ESI-QTOF
Ms type: MS2
Ion mode: POSITIVE
Collision energy: 120
Fragmentation mode: CID
Ionization: ESI
Column name: Zorbax Eclipse Plus C18 2.1 mm x 150 mm, 3.5 um, Agilent
Retention time: 5.043 min
Precursor m/z: 300.1594
Precursor type: [M+H]+
m/z	relative intensity
37.0062	12
38.0139	10
39.0217	82
42.0328	20
44.0495	48
50.0139	61
51.0221	202
52.0293	21
59.9987	12
61.0062	42
62.0136	78
63.0218	203
65.0375	132
73.0056	16
74.0141	195
75.0216	191
76.0294	148
77.0371	553
78.0445	121
85.0053	10
86.0131	60
87.0216	89
88.0293	63
89.0373	496
90.0461	11
91.0532	78
98.0141	74
99.0208	44
100.0301	28
101.0373	92
102.045	361
103.0534	35
110.0123	16
111.0201	11
113.0365	177
114.0449	72
115.0528	999
125.0372	62
126.0447	427
127.0523	341
128.0607	288
129.0423	32
131.0468	10
137.0363	24
138.0448	25
139.0531	530
140.0608	20
141.0673	38
149.0358	34
150.045	429
151.0528	562
152.0606	826
153.0691	31
155.0557	43
161.0376	21
162.0429	60
163.0519	385
164.0601	111
165.0687	125
174.0448	17
175.0516	10
176.0603	80
177.0663	17
178.0772	15
179.0592	24
181.0617	10
187.0519	43
188.0599	27
189.0692	43
200.0587	17
202.0761	10
