Mass spectrum: Flusilazole; LC-ESI-QTOF; MS2; 120 V
Name: Flusilazole
Class: Fungicide
Formula: C16H15F2N3Si
Exact mass: 315.1003
SMILES: C[Si](CN1C=NC=N1)(C2=CC=C(C=C2)F)C3=CC=C(C=C3)F
InChI: InChI=1S/C16H15F2N3Si/c1-22(12-21-11-19-10-20-21,15-6-2-13(17)3-7-15)16-8-4-14(18)5-9-16/h2-11H,12H2,1H3
Instrument: TripleTOF 6600 SCIEX
Instrument type: LC-ESI-QTOF
Ms type: MS2
Ion mode: POSITIVE
Collision energy: 120
Fragmentation mode: CID
Ionization: ESI
Column name: Zorbax Eclipse Plus C18 2.1 mm x 150 mm, 3.5 um, Agilent
Retention time: 12.729 min
Precursor m/z: 316.1076
Precursor type: [M+H]+
m/z	relative intensity
30.9977	17
33.0132	19
37.0071	43
38.0147	33
39.0228	169
42.999	16
46.9745	999
49.0066	19
50.0146	137
51.0225	359
52.9837	18
57.0128	342
59.0284	40
59.9979	29
61.0068	85
62.0143	178
63.0064	10
63.0222	387
65.0375	104
72.9881	13
73.0066	33
74.014	273
75.022	235
76.0293	57
77.0378	234
78.0448	14
80.9956	28
81.0124	46
83.0284	671
83.998	12
85.0059	54
86.0139	86
87.0222	138
88.0307	17
89.0372	301
90.9806	22
91.0534	12
94.0194	25
95.0284	24
96.0367	20
97.0058	13
98.014	164
99.0225	82
100.0307	20
101.0374	16
102.0451	44
105.0127	16
107.0286	105
109.0056	12
109.0434	132
110.0141	50
111.0213	44
113.0375	101
114.0476	12
115.0529	159
120.0363	39
122.0139	43
123.0045	14
123.0211	49
124.0303	16
125.0365	40
126.0464	73
128.0606	10
131.0277	32
133.0443	145
137.0373	91
138.0446	28
139.0529	149
144.0356	45
146.0517	11
149.0364	65
150.045	287
151.0524	93
152.0617	35
155.0281	20
156.0353	19
157.0429	107
161.0373	126
162.0453	223
163.0534	840
164.0595	102
165.0748	33
168.0354	62
169.0435	45
170.0483	29
176.0601	34
179.0289	28
180.0369	61
181.0436	382
182.0519	82
183.0597	97
199.0343	33
201.0512	20
