Mass spectrum: 3,5-Dichloro-2-hydroxybenzenesulfonic acid-candidate; LC-ESI-QTOF; MS2; 40 V
Name: 3,5-Dichloro-2-hydroxybenzenesulfonic acid-candidate
Formula: C6H4Cl2O4S
Exact mass: 241.9207
SMILES: C1=C(C=C(C(=C1S(=O)(=O)O)O)Cl)Cl
InChI: InChI=1S/C6H4Cl2O4S/c7-3-1-4(8)6(9)5(2-3)13(10,11)12/h1-2,9H,(H,10,11,12)
Instrument: TripleTOF 6600 SCIEX
Instrument type: LC-ESI-QTOF
Ms type: MS2
Ion mode: NEGATIVE
Collision energy: 40
Fragmentation mode: CID
Ionization: ESI
Column name: Zorbax Eclipse Plus C18 2.1 mm x 150 mm, 3.5 um, Agilent
Retention time: 8.24 min
Precursor m/z: 240.9115
Precursor type: [M-H]-
m/z	relative intensity
76.9659	4
89.0019	16
124.9776	135
132.9023	69
137.0942	3
147.8892	5
148.8973	64
150.9138	76
160.4439	5
160.9537	999
240.9113	6
