Mass spectrum: Napropamide; LC-ESI-QTOF; MS2; 80 V
Name: Napropamide
Class: Herbicide
Formula: C17H21NO2
Exact mass: 271.1572
SMILES: CCN(CC)C(=O)C(C)Oc1cccc2c1cccc2
InChI: InChI=1S/C17H21NO2/c1-4-18(5-2)17(19)13(3)20-16-12-8-10-14-9-6-7-11-15(14)16/h6-13H,4-5H2,1-3H3
Instrument: TripleTOF 6600 SCIEX
Instrument type: LC-ESI-QTOF
Ms type: MS2
Ion mode: POSITIVE
Collision energy: 80
Fragmentation mode: CID
Ionization: ESI
Column name: Zorbax Eclipse Plus C18 2.1 mm x 150 mm, 3.5 um, Agilent
Retention time: 12.596 min
Precursor m/z: 272.1645
Precursor type: [M+H]+
m/z	relative intensity
30.0338	41
38.0025	41
42.0342	28
44.0133	134
44.0239	16
44.0495	627
46.0653	16
50.0147	25
51.023	44
53.0134	16
54.0339	19
55.0175	96
56.0491	19
57.0333	268
58.0283	28
58.0651	563
63.0224	12
65.0387	54
72.0438	60
72.0801	102
74.0147	16
74.0953	12
75.0223	35
76.0309	19
77.0382	211
78.0463	54
86.0588	22
89.0377	73
91.0539	86
100.0739	12
100.1119	16
101.0379	57
102.0456	160
115.0537	547
116.0616	32
125.0376	25
126.0451	163
127.0538	393
128.0613	999
129.0447	16
141.0698	83
144.0569	25
145.0641	16
150.0466	80
151.0537	217
152.0612	736
153.069	41
155.0587	89
179.0618	16
