Mass spectrum: Tris(4-methylphenyl) phosphate; LC-ESI-QTOF; MS2; 130 V
Name: Tris(4-methylphenyl) phosphate
Class: Industrial_process
Formula: C21H21O4P
Exact mass: 368.1177
SMILES: CC1=CC=C(C=C1)OP(=O)(OC2=CC=C(C=C2)C)OC3=CC=C(C=C3)C
InChI: InChI=1S/C21H21O4P/c1-16-4-10-19(11-5-16)23-26(22,24-20-12-6-17(2)7-13-20)25-21-14-8-18(3)9-15-21/h4-15H,1-3H3
Instrument: TripleTOF 6600 SCIEX
Instrument type: LC-ESI-QTOF
Ms type: MS2
Ion mode: POSITIVE
Collision energy: 130
Fragmentation mode: CID
Ionization: ESI
Column name: Zorbax Eclipse Plus C18 2.1 mm x 150 mm, 3.5 um, Agilent
Retention time: 15.924 min
Precursor m/z: 369.125
Precursor type: [M+H]+
m/z	relative intensity
35.9984	22
37.0062	96
38.0143	89
39.0223	569
41.0377	49
49.0069	14
50.0138	68
51.022	149
53.0374	10
59.9983	16
61.0063	58
62.014	115
63.0219	214
65.0378	616
74.0138	28
75.0217	19
76.0296	16
77.0377	173
78.0451	23
79.053	13
85.006	16
86.0139	31
87.0219	53
89.0376	175
91.0533	75
98.0145	22
99.022	11
102.0454	40
107.0483	22
111.0226	11
113.0376	67
114.0455	11
115.0537	455
125.0372	10
126.0457	61
127.0535	41
128.0617	42
137.0387	37
138.0458	46
139.054	456
141.0687	18
149.0386	13
150.0457	81
151.0542	111
152.0617	183
153.0707	13
161.0381	26
162.0466	87
163.0545	999
164.0621	611
165.0702	641
168.0556	10
175.0529	15
176.0622	83
177.0703	28
178.0774	36
181.0639	14
187.0533	15
189.0702	15
194.0722	29
195.0818	18
200.0626	15
201.0699	10
211.0548	13
213.0706	35
224.0631	31
225.0706	19
226.0797	22
235.0562	13
236.0629	19
237.0718	120
238.0793	29
239.086	44
250.0784	45
252.095	29
