Mass spectrum: Ampicillin; LC-ESI-QTOF; MS2; 50 V
Name: Ampicillin
Class: Pharmaceutical
Formula: C16H19N3O4S
Exact mass: 349.1096
SMILES: CC1(C)S[C@@H]2[C@H](NC(=O)[C@H](N)c3ccccc3)C(=O)N2[C@H]1C(O)=O
InChI: InChI=1S/C16H19N3O4S/c1-16(2)11(15(22)23)19-13(21)10(14(19)24-16)18-12(20)9(17)8-6-4-3-5-7-8/h3-7,9-11,14H,17H2,1-2H3,(H,18,20)(H,22,23)/t9-,10-,11+,14-/m1/s1
Instrument: TripleTOF 5600 SCIEX
Instrument type: LC-ESI-QTOF
Ms type: MS2
Ion mode: POSITIVE
Collision energy: 50
Fragmentation mode: CID
Ionization: ESI
Column name: Zorbax Eclipse Plus C18 2.1 mm x 150 mm, 3.5 um, Agilent
Retention time: 5.367 min
Precursor m/z: 350.1169
Precursor type: [M+H]+
m/z	relative intensity
68.0186	11
70.0692	53
74.0087	31
77.0417	17
79.0575	186
86.0079	49
87.0275	32
91.0559	127
94.0674	14
96.0448	18
103.0542	17
106.0662	999
114.0017	110
114.0364	184
117.0574	41
118.0433	12
118.0655	268
119.0481	19
121.0101	87
122.06	17
128.0496	36
130.0644	29
135.0274	12
137.0427	33
137.0702	31
142.0327	11
146.0595	42
147.0258	57
160.0427	80
162.0366	23
164.0521	50
165.0663	29
174.0379	10
174.0543	41
192.0486	15
