Mass spectrum: Thioridazine; LC-ESI-QTOF; MS2; 30 V
Name: Thioridazine
Class: Pharmaceutical
Formula: C21H26N2S2
Exact mass: 370.1537
InChI: InChI=1S/C21H26N2S2/c1-22-13-6-5-7-16(22)12-14-23-18-8-3-4-9-20(18)25-21-11-10-17(24-2)15-19(21)23/h3-4,8-11,15-16H,5-7,12-14H2,1-2H3
Instrument: TripleTOF 5600 SCIEX
Instrument type: LC-ESI-QTOF
Ms type: CID
Ion mode: POSITIVE
Collision energy: 30
Ionization: ESI
Column name: Zorbax Eclipse Plus C18 2.1 mm x 150 mm, 3.5 um, Agilent
Retention time: 9.472 min
Precursor m/z: 371.161
Precursor type: [M+H]+
m/z	relative intensity
70.0691	13
98.0989	475
126.1288	766
258.0408	108
324.1652	18
371.1613	999
