Mass spectrum: Thioridazine; LC-ESI-QTOF; MS2; 140 V
Name: Thioridazine
Class: Pharmaceutical
Formula: C21H26N2S2
Exact mass: 370.1537
SMILES: CN1CCCCC1CCN2C3=CC=CC=C3SC4=C2C=C(C=C4)SC
InChI: InChI=1S/C21H26N2S2/c1-22-13-6-5-7-16(22)12-14-23-18-8-3-4-9-20(18)25-21-11-10-17(24-2)15-19(21)23/h3-4,8-11,15-16H,5-7,12-14H2,1-2H3
Instrument: TripleTOF 5600 SCIEX
Instrument type: LC-ESI-QTOF
Ms type: MS2
Ion mode: POSITIVE
Collision energy: 140
Fragmentation mode: CID
Ionization: ESI
Column name: Zorbax Eclipse Plus C18 2.1 mm x 150 mm, 3.5 um, Agilent
Retention time: 9.472 min
Precursor m/z: 371.161
Precursor type: [M+H]+
m/z	relative intensity
42.0438	445
44.0583	57
51.029	23
55.0602	40
56.0543	23
56.0668	11
57.063	25
58.0714	69
65.0442	25
67.0576	11
68.0534	241
68.9839	43
70.0695	771
74.0185	35
75.0253	45
76.0351	25
77.0403	96
78.0497	10
80.0512	11
82.0674	64
83.0757	27
84.0851	23
86.0181	21
87.0243	23
88.0314	27
89.0404	113
90.0487	10
92.9808	11
96.0814	33
98.0165	27
98.0977	474
99.023	37
101.0391	37
102.0461	37
108.0062	11
109.0127	11
113.0375	136
114.0459	62
115.0541	153
116.0487	35
117.0591	11
125.0383	80
126.0463	168
127.0539	113
128.0493	69
128.0689	10
129.0546	11
134.0173	16
137.0383	48
138.0455	82
139.0544	999
140.0494	410
141.0578	15
149.0376	48
150.0461	354
151.0534	361
152.0546	180
153.0556	96
154.0642	43
163.053	27
164.0486	146
165.0584	42
166.0651	629
167.0725	452
169.0081	18
171.0259	28
172.0224	10
176.0528	38
177.0571	106
178.0642	94
179.0717	11
182.0164	16
183.0245	16
186.0355	15
190.0647	21
191.0711	18
196.0236	32
197.0282	20
202.0654	20
203.0701	10
204.0803	11
208.0228	21
209.031	52
210.036	25
