Mass spectrum: Nicosulfuron; LC-ESI-QTOF; MS2; 70 V
Name: Nicosulfuron
Class: Herbicide
Formula: C15H18N6O6S
Exact mass: 410.1009
SMILES: CN(C)C(=O)C1=C(N=CC=C1)S(=O)(=O)NC(=O)NC2=NC(=CC(=N2)OC)OC
InChI: InChI=1S/C15H18N6O6S/c1-21(2)13(22)9-6-5-7-16-12(9)28(24,25)20-15(23)19-14-17-10(26-3)8-11(18-14)27-4/h5-8H,1-4H3,(H2,17,18,19,20,23)
Instrument: TripleTOF 6600 SCIEX
Instrument type: LC-ESI-QTOF
Ms type: MS2
Ion mode: NEGATIVE
Collision energy: 70
Fragmentation mode: CID
Ionization: ESI
Column name: Zorbax Eclipse Plus C18 2.1 mm x 150 mm, 3.5 um, Agilent
Retention time: 8.499 min
Precursor m/z: 409.0936
Precursor type: [M-H]-
m/z	relative intensity
40.0064	58
41.0152	106
41.9978	64
64.0056	44
65.0139	421
65.9981	978
82.0146	73
90.0084	76
93.046	38
94.0305	32
97.0385	20
107.012	987
108.0197	55
109.027	73
119.0238	11
122.0355	999
124.0509	58
139.0387	509
147.0499	14
154.0618	548
182.9843	20
