Mass spectrum: 3-Desmethyl-trimethoprim; LC-ESI-QTOF; MS2; 130 V
Name: 3-Desmethyl-trimethoprim
Class: Pharmaceutical; Transformation_product
Formula: C13H16N4O3
Exact mass: 276.1222
SMILES: OC1=CC(CC2=CN=C(N=C2N)N)=CC(OC)=C1OC
InChI: InChI=1S/C13H16N4O3/c1-19-10-5-7(4-9(18)11(10)20-2)3-8-6-16-13(15)17-12(8)14/h4-6,18H,3H2,1-2H3,(H4,14,15,16,17)
Instrument: TripleTOF 5600 SCIEX
Instrument type: LC-ESI-QTOF
Ms type: MS2
Ion mode: POSITIVE
Collision energy: 130
Fragmentation mode: CID
Ionization: ESI
Column name: Zorbax Eclipse Plus C18 2.1 mm x 150 mm, 3.5 um, Agilent
Retention time: 5.021 min
Precursor m/z: 277.1295
Precursor type: [M+H]+
m/z	relative intensity
43.0431	691
52.0286	722
53.0103	76
53.0192	76
53.035	92
54.0437	584
55.0511	107
65.044	599
66.0431	153
67.0368	92
67.0475	107
67.0567	61
68.0284	122
69.0496	61
73.0094	61
74.0206	491
75.0263	783
76.0246	553
77.0299	138
77.0433	999
78.0387	537
79.0344	122
79.0452	138
80.0531	169
81.0472	122
87.0268	92
88.0229	169
89.0423	491
90.037	199
91.0452	61
91.0555	107
92.0529	138
93.0491	153
94.0523	122
96.0583	76
99.0108	61
100.0209	61
102.0355	199
103.0291	184
104.0485	199
105.0456	261
109.0524	61
114.037	122
115.04	92
117.055	76
120.0563	199
129.0438	92
130.0406	76
147.0686	92
