Mass spectrum: 1-Benzyl-3-cyclohexylurea; LC-ESI-QTOF; MS2; 130 V
Name: 1-Benzyl-3-cyclohexylurea
Formula: C14H20N2O
Exact mass: 232.1576
SMILES: C1CCC(CC1)NC(=O)NCC2=CC=CC=C2
InChI: InChI=1S/C14H20N2O/c17-14(16-13-9-5-2-6-10-13)15-11-12-7-3-1-4-8-12/h1,3-4,7-8,13H,2,5-6,9-11H2,(H2,15,16,17)
Instrument: TripleTOF 6600 SCIEX
Instrument type: LC-ESI-QTOF
Ms type: MS2
Ion mode: POSITIVE
Collision energy: 130
Fragmentation mode: CID
Ionization: ESI
Column name: Zorbax Eclipse Plus C18 2.1 mm x 150 mm, 3.5 um, Agilent
Retention time: 10.259 min
Precursor m/z: 233.1649
Precursor type: [M+H]+
m/z	relative intensity
35.999	43
37.0073	335
38.0147	274
39.0231	999
41.0382	33
49.0068	43
50.0148	235
51.0226	119
61.0069	87
62.0148	181
63.0227	128
65.0383	167
74.0147	13
91.053	10
