Mass spectrum: Dimethenamid-ESA; LC-ESI-QTOF; MS2; 140 V
Name: Dimethenamid-ESA
Class: Transformation_product; Herbicide; Metabolite
Formula: C12H19NO5S2
Exact mass: 321.0705
SMILES: CC1=CSC(=C1N(C(C)COC)C(=O)CS(=O)(=O)O)C
InChI: InChI=1S/C12H19NO5S2/c1-8-6-19-10(3)12(8)13(9(2)5-18-4)11(14)7-20(15,16)17/h6,9H,5,7H2,1-4H3,(H,15,16,17)
Instrument: TripleTOF 6600 SCIEX
Instrument type: LC-ESI-QTOF
Ms type: MS2
Ion mode: POSITIVE
Collision energy: 140
Fragmentation mode: CID
Ionization: ESI
Column name: Zorbax Eclipse Plus C18 2.1 mm x 150 mm, 3.5 um, Agilent
Retention time: 7.036 min
Precursor m/z: 322.0778
Precursor type: [M+H]+
m/z	relative intensity
37.0074	161
38.0162	188
39.0235	999
41.0392	242
42.0347	161
43.0184	269
44.9796	999
45.0335	188
50.016	377
51.0235	864
52.0179	134
53.0388	594
54.0337	134
56.98	161
57.9869	323
58.9951	594
59.99	188
62.0146	108
63.0222	323
64.031	134
65.0381	755
66.0468	297
67.0423	188
68.9798	458
69.9878	134
70.9963	297
77.0386	755
78.0337	323
78.0459	188
80.0494	404
89.0391	242
90.0464	161
91.0549	458
92.0495	216
92.9808	134
93.0578	242
94.0653	377
96.003	108
97.0103	458
104.0492	269
105.0526	108
111.0244	134
117.0571	297
118.0669	216
134.0138	161
136.0222	216
