Mass spectrum: Dimethachlor; LC-ESI-QTOF; MS2; 40 V
Name: Dimethachlor
Class: Herbicide
Formula: C13H18ClNO2
Exact mass: 255.1026
SMILES: CC1=C(C(=CC=C1)C)N(CCOC)C(=O)CCl
InChI: InChI=1S/C13H18ClNO2/c1-10-5-4-6-11(2)13(10)15(7-8-17-3)12(16)9-14/h4-6H,7-9H2,1-3H3
Instrument: TripleTOF 6600 SCIEX
Instrument type: LC-ESI-QTOF
Ms type: MS2
Ion mode: POSITIVE
Collision energy: 40
Fragmentation mode: CID
Ionization: ESI
Column name: Zorbax Eclipse Plus C18 2.1 mm x 150 mm, 3.5 um, Agilent
Retention time: 10.992 min
Precursor m/z: 256.1099
Precursor type: [M+H]+
m/z	relative intensity
48.9842	59
76.9789	45
77.039	55
79.0543	71
91.0544	36
103.0542	52
105.0701	208
106.0777	15
107.0847	11
116.0619	10
117.057	30
118.0651	68
119.0855	19
120.0803	26
121.0648	15
130.0649	13
131.0735	59
132.0807	208
133.0883	99
134.0961	10
144.0805	15
146.097	47
147.1037	23
148.1124	999
174.0917	28
224.0833	461
