Mass spectrum: Dimethyldioctylammonium; LC-ESI-QTOF; MS2; 100 V
Name: Dimethyldioctylammonium
Class: Antimicrobial
Formula: [C18H40N]+
Exact mass: 270.3155
SMILES: CCCCCCCC[N+](C)(C)CCCCCCCC
InChI: InChI=1S/C18H40N/c1-5-7-9-11-13-15-17-19(3,4)18-16-14-12-10-8-6-2/h5-18H2,1-4H3/q+1
Instrument: TripleTOF 6600 SCIEX
Instrument type: LC-ESI-QTOF
Ms type: MS2
Ion mode: POSITIVE
Collision energy: 100
Fragmentation mode: CID
Ionization: ESI
Column name: Zorbax Eclipse Plus C18 2.1 mm x 150 mm, 3.5 um, Agilent
Retention time: 11.669 min
Precursor m/z: 270.3155
Precursor type: [M]+
m/z	relative intensity
30.0346	86
37.0076	161
38.0031	63
38.0164	144
39.0234	733
41.039	646
42.0344	381
43.0425	103
43.0544	179
44.0496	63
46.0653	202
56.0491	115
58.0649	999
