Mass spectrum: Triphenyl phosphate; LC-ESI-QTOF; MS2; 20 V
Name: Triphenyl phosphate
Class: Industrial_process
Formula: C18H15O4P
Exact mass: 326.0708
SMILES: C1=CC=C(C=C1)OP(=O)(OC2=CC=CC=C2)OC3=CC=CC=C3
InChI: InChI=1S/C18H15O4P/c19-23(20-16-10-4-1-5-11-16,21-17-12-6-2-7-13-17)22-18-14-8-3-9-15-18/h1-15H
Instrument: TripleTOF 5600 SCIEX
Instrument type: LC-ESI-QTOF
Ms type: MS2
Ion mode: POSITIVE
Collision energy: 20
Fragmentation mode: CID
Ionization: ESI
Column name: Zorbax Eclipse Plus C18 2.1 mm x 150 mm, 3.5 um, Agilent
Retention time: 14.07 min
Precursor m/z: 327.0781
Precursor type: [M+H]+
m/z	relative intensity
153.0694	19
215.0249	30
228.0908	10
229.101	11
233.0367	34
251.0469	20
326.0483	24
327.0775	999
