Mass spectrum: Didodecyl-dimethylammonium; LC-ESI-QTOF; MS2; 140 V
Name: Didodecyl-dimethylammonium
Class: Pharmaceutical; Biocide; Industrial_process
Formula: [C26H56N]+
Exact mass: 382.4407
SMILES: CCCCCCCCCCCC[N+](C)(C)CCCCCCCCCCCC
InChI: InChI=1S/C26H56N/c1-5-7-9-11-13-15-17-19-21-23-25-27(3,4)26-24-22-20-18-16-14-12-10-8-6-2/h5-26H2,1-4H3/q+1
Instrument: TripleTOF 5600 SCIEX
Instrument type: LC-ESI-QTOF
Ms type: MS2
Ion mode: POSITIVE
Collision energy: 140
Fragmentation mode: CID
Ionization: ESI
Column name: Zorbax Eclipse Plus C18 2.1 mm x 150 mm, 3.5 um, Agilent
Retention time: 15.329 min
Precursor m/z: 382.4407
Precursor type: [M]+
m/z	relative intensity
57.0739	68
58.0702	999
