Mass spectrum: Dexamethasone; LC-ESI-QTOF; MS2; 20 V
Name: Dexamethasone
Class: Pharmaceutical
Formula: C22H29FO5
Exact mass: 392.1999
SMILES: C[C@@H]1C[C@H]2[C@@H]3CCC4=CC(=O)C=C[C@@]4([C@]3([C@H](C[C@@]2([C@]1(C(=O)CO)O)C)O)F)C
InChI: InChI=1S/C22H29FO5/c1-12-8-16-15-5-4-13-9-14(25)6-7-19(13,2)21(15,23)17(26)10-20(16,3)22(12,28)18(27)11-24/h6-7,9,12,15-17,24,26,28H,4-5,8,10-11H2,1-3H3/t12-,15+,16+,17+,19+,20+,21+,22+/m1/s1
Instrument: TripleTOF 5600 SCIEX
Instrument type: LC-ESI-QTOF
Ms type: MS2
Ion mode: POSITIVE
Collision energy: 20
Fragmentation mode: CID
Ionization: ESI
Column name: Zorbax Eclipse Plus C18 2.1 mm x 150 mm, 3.5 um, Agilent
Retention time: 9.089 min
Precursor m/z: 393.2072
Precursor type: [M+H]+
m/z	relative intensity
107.0887	19
115.0783	16
119.0869	11
121.0675	11
123.0826	11
125.0615	15
133.1033	10
135.0823	26
137.0973	13
147.0821	116
149.0964	46
153.0922	30
159.0815	31
161.0971	42
165.0896	10
167.1055	20
171.0815	70
173.0968	46
177.0913	55
183.0818	12
185.0967	62
187.0752	28
187.1126	19
189.0942	10
195.1018	36
197.0952	22
199.1127	14
209.0946	16
211.1106	48
213.093	11
213.1262	33
215.1071	18
221.0961	20
223.1126	57
225.1269	50
227.1429	22
235.1105	58
237.1272	297
239.1132	14
239.1425	81
241.1231	51
249.1279	28
251.1091	13
251.1406	25
253.1215	81
253.1611	14
255.1365	53
261.1257	25
263.144	58
265.1575	27
267.1397	68
267.1727	39
275.1432	73
277.1585	154
278.1657	21
279.1735	242
281.1596	16
281.1878	29
289.1592	65
291.1743	246
293.155	18
295.1684	93
297.1838	76
301.1589	120
307.1693	131
309.184	236
311.164	23
319.1685	384
325.1796	120
327.1946	74
337.1792	542
355.1902	999
373.2016	544
393.2091	163
