Mass spectrum: 3,5-Diacetamidobenzoic acid; LC-ESI-QTOF; MS2; 40 V
Name: 3,5-Diacetamidobenzoic acid
Class: Pharmaceutical
Formula: C11H12N2O4
Exact mass: 236.0797
SMILES: CC(=O)NC1=CC(=CC(=C1)C(=O)O)NC(=O)C
InChI: InChI=1S/C11H12N2O4/c1-6(14)12-9-3-8(11(16)17)4-10(5-9)13-7(2)15/h3-5H,1-2H3,(H,12,14)(H,13,15)(H,16,17)
Instrument: TripleTOF 5600 SCIEX
Instrument type: LC-ESI-QTOF
Ms type: MS2
Ion mode: NEGATIVE
Collision energy: 40
Fragmentation mode: CID
Ionization: ESI
Column name: Zorbax Eclipse Plus C18 2.1 mm x 150 mm, 3.5 um, Agilent
Retention time: 5.221 min
Precursor m/z: 235.0724
Precursor type: [M-H]-
m/z	relative intensity
41.9984	52
58.0301	88
66.0346	84
90.0345	56
107.0614	999
132.0467	84
133.0406	153
149.0723	202
175.0514	56
