Mass spectrum: Napropamide; LC-ESI-QTOF; MS2; 60 V
Name: Napropamide
Class: Herbicide
Formula: C17H21NO2
Exact mass: 271.1572
SMILES: CCN(CC)C(=O)C(C)Oc1cccc2c1cccc2
InChI: InChI=1S/C17H21NO2/c1-4-18(5-2)17(19)13(3)20-16-12-8-10-14-9-6-7-11-15(14)16/h6-13H,4-5H2,1-3H3
Instrument: TripleTOF 6600 SCIEX
Instrument type: LC-ESI-QTOF
Ms type: MS2
Ion mode: POSITIVE
Collision energy: 60
Fragmentation mode: CID
Ionization: ESI
Column name: Zorbax Eclipse Plus C18 2.1 mm x 150 mm, 3.5 um, Agilent
Retention time: 12.596 min
Precursor m/z: 272.1645
Precursor type: [M+H]+
m/z	relative intensity
30.0339	18
38.0023	12
42.0339	12
44.0132	90
44.0495	454
46.0652	18
54.0334	14
55.0175	82
56.0493	12
57.0334	352
58.0281	10
58.0651	932
72.044	119
72.0804	255
74.0962	59
77.0378	47
86.0596	30
89.0377	12
91.0534	47
100.0755	70
100.1114	86
101.0377	12
101.0832	16
102.0459	24
114.0908	22
115.0539	260
116.0614	49
126.0457	41
127.0535	357
128.0614	999
129.0692	20
141.0681	57
142.0778	20
143.0474	12
143.0842	55
144.056	47
150.045	10
151.0536	107
152.0613	579
153.0685	121
155.0589	105
169.0649	30
171.079	14
179.0607	14
