Mass spectrum: Nitrendipine; LC-ESI-QTOF; MS2; 30 V
Name: Nitrendipine
Class: Pharmaceutical
Formula: C18H20N2O6
Exact mass: 360.1321
SMILES: CCOC(=O)C1=C(NC(=C(C1C2=CC(=CC=C2)[N+](=O)[O-])C(=O)OC)C)C
InChI: InChI=1S/C18H20N2O6/c1-5-26-18(22)15-11(3)19-10(2)14(17(21)25-4)16(15)12-7-6-8-13(9-12)20(23)24/h6-9,16,19H,5H2,1-4H3
Instrument: TripleTOF 5600 SCIEX
Instrument type: LC-ESI-QTOF
Ms type: MS2
Ion mode: POSITIVE
Collision energy: 30
Fragmentation mode: CID
Ionization: ESI
Column name: Zorbax Eclipse Plus C18 2.1 mm x 150 mm, 3.5 um, Agilent
Retention time: 12.373 min
Precursor m/z: 361.1394
Precursor type: [M+H]+
m/z	relative intensity
183.1044	12
209.0823	25
210.0894	47
211.0985	23
226.0864	90
227.0811	18
237.0769	11
238.0737	18
239.0817	14
240.0936	16
253.073	46
254.081	90
255.0848	129
256.0923	11
257.0902	23
267.0884	81
268.0959	74
269.1044	224
281.0988	27
283.0711	183
283.1163	40
284.0802	72
297.0891	12
298.0937	131
301.0813	277
312.1114	43
313.0812	11
315.0974	999
329.113	661
