Mass spectrum: Aclonifen; LC-ESI-QTOF; MS2; 30 V
Name: Aclonifen
Class: Herbicide
Formula: C12H9ClN2O3
Exact mass: 264.0302
SMILES: Nc1c(Cl)c(Oc2ccccc2)ccc1[N+]([O-])=O
InChI: InChI=1S/C12H9ClN2O3/c13-11-10(18-8-4-2-1-3-5-8)7-6-9(12(11)14)15(16)17/h1-7H,14H2
Instrument: TripleTOF 5600 SCIEX
Instrument type: LC-ESI-QTOF
Ms type: MS2
Ion mode: POSITIVE
Collision energy: 30
Fragmentation mode: CID
Ionization: ESI
Column name: Zorbax Eclipse Plus C18 2.1 mm x 150 mm, 3.5 um, Agilent
Retention time: 13.815 min
Precursor m/z: 265.0374
Precursor type: [M+H]+
m/z	relative intensity
77.0405	28
80.0147	17
154.0633	10
155.052	21
163.0292	11
165.0436	77
166.0513	31
167.0361	11
174.0086	31
182.0593	242
183.0674	30
193.0381	100
194.0466	176
201.0187	17
202.0042	11
217.0275	60
218.0352	239
229.0132	13
247.0249	20
248.0339	999
265.0366	20
