Mass spectrum: Flufenacet ESA; LC-ESI-QTOF; MS2; 80 V
Name: Flufenacet ESA
Class: Herbicide; Transformation_product
Formula: C11H14FNO4S
Exact mass: 275.0628
SMILES: CC(C)N(C1=CC=C(C=C1)F)C(=O)CS(=O)(=O)O
InChI: InChI=1S/C11H14FNO4S/c1-8(2)13(11(14)7-18(15,16)17)10-5-3-9(12)4-6-10/h3-6,8H,7H2,1-2H3,(H,15,16,17)
Instrument: TripleTOF 6600 SCIEX
Instrument type: LC-ESI-QTOF
Ms type: MS2
Ion mode: POSITIVE
Collision energy: 80
Fragmentation mode: CID
Ionization: ESI
Column name: Zorbax Eclipse Plus C18 2.1 mm x 150 mm, 3.5 um, Agilent
Retention time: 6.781 min
Precursor m/z: 276.07
Precursor type: [M+H]+
m/z	relative intensity
31.0178	18
39.0226	36
41.0382	25
43.0539	10
50.0149	18
51.0226	43
57.0131	49
59.0122	29
59.0284	16
63.0228	27
64.0305	14
64.9684	12
65.0381	140
69.0134	20
73.0068	12
74.0148	238
75.0228	846
77.0379	169
80.9639	21
81.0125	10
83.0289	222
84.0363	49
85.0438	23
89.038	12
92.049	127
95.0289	999
96.0366	127
97.0441	69
104.0485	20
107.0281	38
108.0359	21
109.0443	198
110.04	20
111.0476	132
112.055	87
113.0399	16
123.0346	292
124.0557	58
134.0387	14
135.047	50
