Mass spectrum: Thiabendazole; LC-ESI-QTOF; MS2; 80 V
Name: Thiabendazole
Class: Fungicide; Pharmaceutical
Formula: C10H7N3S
Exact mass: 201.0361
SMILES: [nH]1c2ccccc2nc1c3cscn3
InChI: InChI=1S/C10H7N3S/c1-2-4-8-7(3-1)12-10(13-8)9-5-14-6-11-9/h1-6H,(H,12,13)
Instrument: TripleTOF 5600 SCIEX
Instrument type: LC-ESI-QTOF
Ms type: MS2
Ion mode: POSITIVE
Collision energy: 80
Fragmentation mode: CID
Ionization: ESI
Column name: Zorbax Eclipse Plus C18 2.1 mm x 150 mm, 3.5 um, Agilent
Retention time: 5.203 min
Precursor m/z: 202.0433
Precursor type: [M+H]+
m/z	relative intensity
51.0298	156
52.025	17
64.0362	65
65.0436	999
66.0374	19
68.9817	14
74.0197	19
75.0266	48
76.0204	17
76.0302	22
77.0418	545
78.0368	25
83.9918	22
89.0411	17
90.0339	51
91.0427	171
92.0511	99
102.0335	51
103.0399	17
104.0499	134
114.0335	31
116.049	17
118.0517	25
129.0436	19
131.0601	85
142.0517	14
143.0583	34
