Mass spectrum: 2-Phenyl-1H-benzimidazol-4-amine; LC-ESI-QTOF; MS2; 30 V
Name: 2-Phenyl-1H-benzimidazol-4-amine
Class: Pharmaceutical
Formula: C13H11N3
Exact mass: 209.0953
SMILES: C1=CC=C(C=C1)C2=NC3=C(N2)C=CC=C3N
InChI: InChI=1S/C13H11N3/c14-10-7-4-8-11-12(10)16-13(15-11)9-5-2-1-3-6-9/h1-8H,14H2,(H,15,16)
Instrument: TripleTOF 5600 SCIEX
Instrument type: LC-ESI-QTOF
Ms type: MS2
Ion mode: POSITIVE
Collision energy: 30
Fragmentation mode: CID
Ionization: ESI
Column name: Zorbax Eclipse Plus C18 2.1 mm x 150 mm, 3.5 um, Agilent
Retention time: 5.276 min
Precursor m/z: 210.1026
Precursor type: [M+H]+
m/z	relative intensity
80.0544	203
90.0365	10
104.0506	13
107.0619	271
166.0649	21
183.0915	31
193.0753	87
194.0815	20
209.0938	61
210.1011	999
