Mass spectrum: Triisopropanolamine; LC-ESI-QTOF; MS2; 60 V
Name: Triisopropanolamine
Formula: C9H21NO3
Exact mass: 191.1521
SMILES: CC(CN(CC(C)O)CC(C)O)O
InChI: InChI=1S/C9H21NO3/c1-7(11)4-10(5-8(2)12)6-9(3)13/h7-9,11-13H,4-6H2,1-3H3
Instrument: TripleTOF 6600 SCIEX
Instrument type: LC-ESI-QTOF
Ms type: MS2
Ion mode: POSITIVE
Collision energy: 60
Fragmentation mode: CID
Ionization: ESI
Column name: Zorbax Eclipse Plus C18 2.1 mm x 150 mm, 3.5 um, Agilent
Retention time: 2.182 min
Precursor m/z: 192.1594
Precursor type: [M+H]+
m/z	relative intensity
30.034	11
31.0182	405
35.9996	13
37.0077	117
38.0155	99
39.0234	994
41.0394	999
42.0345	272
43.0182	97
43.042	33
43.0542	53
44.0493	17
53.038	22
54.0335	48
55.0533	11
56.0494	70
58.0648	35
59.0492	206
67.0411	11
68.0497	197
70.0653	135
77.0386	26
79.0541	22
80.0497	55
81.0578	15
82.0645	81
84.0808	17
94.0663	13
98.0971	15
