Mass spectrum: Tiamulin; LC-ESI-QTOF; MS2; 40 V
Name: Tiamulin
Class: Antimicrobial; Pharmaceutical
Formula: C28H47NO4S
Exact mass: 493.3226
SMILES: CCN(CC)CCSCC(=O)OC1CC(C(C(C23CCC(C1(C2C(=O)CC3)C)C)C)O)(C)C=C
InChI: InChI=1S/C28H47NO4S/c1-8-26(6)17-22(33-23(31)18-34-16-15-29(9-2)10-3)27(7)19(4)11-13-28(20(5)25(26)32)14-12-21(30)24(27)28/h8,19-20,22,24-25,32H,1,9-18H2,2-7H3
Instrument: TripleTOF 6600 SCIEX
Instrument type: LC-ESI-QTOF
Ms type: MS2
Ion mode: POSITIVE
Collision energy: 40
Fragmentation mode: CID
Ionization: ESI
Column name: Zorbax Eclipse Plus C18 2.1 mm x 150 mm, 3.5 um, Agilent
Retention time: 8.661 min
Precursor m/z: 494.3299
Precursor type: [M+H]+
m/z	relative intensity
73.0097	19
74.0956	38
81.0688	22
95.0841	16
105.068	11
107.0844	15
109.1002	13
119.0151	247
121.0997	16
133.1002	24
135.1148	10
145.0994	14
147.115	20
149.0951	22
157.0996	9
159.1149	20
161.1306	15
163.1104	70
171.1152	11
173.1299	19
175.11	18
175.1467	17
177.1258	26
185.131	14
187.1468	16
189.1261	10
192.1042	999
197.1303	10
201.1613	11
203.1414	15
211.1475	17
221.1524	11
227.1774	17
229.1932	13
245.1889	26
257.2247	11
267.2091	27
285.2196	30
