Mass spectrum: Tiamulin; LC-ESI-QTOF; MS2; 130 V
Name: Tiamulin
Class: Antimicrobial; Pharmaceutical
Formula: C28H47NO4S
Exact mass: 493.3226
SMILES: CCN(CC)CCSCC(=O)OC1CC(C(C(C23CCC(C1(C2C(=O)CC3)C)C)C)O)(C)C=C
InChI: InChI=1S/C28H47NO4S/c1-8-26(6)17-22(33-23(31)18-34-16-15-29(9-2)10-3)27(7)19(4)11-13-28(20(5)25(26)32)14-12-21(30)24(27)28/h8,19-20,22,24-25,32H,1,9-18H2,2-7H3
Instrument: TripleTOF 6600 SCIEX
Instrument type: LC-ESI-QTOF
Ms type: MS2
Ion mode: POSITIVE
Collision energy: 130
Fragmentation mode: CID
Ionization: ESI
Column name: Zorbax Eclipse Plus C18 2.1 mm x 150 mm, 3.5 um, Agilent
Retention time: 8.661 min
Precursor m/z: 494.3299
Precursor type: [M+H]+
m/z	relative intensity
37.007	23
38.0151	21
39.0226	222
41.0383	264
43.0175	114
43.0539	14
44.0493	22
44.9791	676
45.0334	30
46.9947	98
51.0227	76
53.0381	63
55.0174	29
55.054	136
61.0086	24
62.9895	37
63.022	11
65.0379	252
66.0453	22
67.0539	132
69.0694	11
73.0096	253
74.0955	28
77.038	890
78.0448	47
79.0534	500
81.0691	90
83.0482	11
89.0383	26
90.9829	11
91.0533	999
92.0598	12
93.0687	102
95.0481	26
95.0843	21
102.0448	24
103.0529	172
104.0606	52
105.0438	26
105.0683	342
107.0479	13
107.0845	20
109.0626	10
115.053	489
116.0604	72
117.0683	199
118.0759	17
119.0844	85
127.0521	90
128.0611	430
129.0683	214
130.0767	37
131.0494	15
131.0842	45
133.0636	18
133.1002	12
141.0683	302
142.0751	80
143.0833	51
144.0932	10
145.0636	18
145.0997	12
147.0792	10
151.0523	10
152.0609	91
153.069	106
154.0756	31
155.0585	23
155.0863	56
156.0919	16
157.0973	11
165.0677	115
166.0776	25
167.084	35
169.1005	13
178.0784	16
179.0816	13
