Mass spectrum: Alizarin; LC-ESI-QTOF; MS2; 30 V
Name: Alizarin
Formula: C14H8O4
Exact mass: 240.0423
SMILES: C1=CC=C2C(=C1)C(=O)C3=C(C2=O)C(=C(C=C3)O)O
InChI: InChI=1S/C14H8O4/c15-10-6-5-9-11(14(10)18)13(17)8-4-2-1-3-7(8)12(9)16/h1-6,15,18H
Instrument: TripleTOF X500R SCIEX
Instrument type: LC-ESI-QTOF
Ms type: MS2
Ion mode: POSITIVE
Collision energy: 30
Fragmentation mode: CID
Ionization: ESI
Column name: Zorbax Eclipse Plus C18 2.1 mm x 150 mm, 3.5 um, Agilent
Retention time: 10.763 min
Precursor m/z: 241.0496
Precursor type: [M+H]+
m/z	relative intensity
105.0364	15
107.0144	15
115.0562	20
119.0168	13
127.0548	18
128.0632	94
129.0705	216
137.0264	11
139.0548	175
141.0708	18
157.0655	588
167.0492	205
185.0607	572
195.0219	13
195.0442	227
213.0549	394
241.0499	999
