Mass spectrum: Betaxolol; LC-ESI-QTOF; MS2; 130 V
Name: Betaxolol
Class: Pharmaceutical
Formula: C18H29NO3
Exact mass: 307.2147
SMILES: CC(C)NCC(COC1=CC=C(C=C1)CCOCC2CC2)O
InChI: InChI=1S/C18H29NO3/c1-14(2)19-11-17(20)13-22-18-7-5-15(6-8-18)9-10-21-12-16-3-4-16/h5-8,14,16-17,19-20H,3-4,9-13H2,1-2H3
Instrument: TripleTOF 5600 SCIEX
Instrument type: LC-ESI-QTOF
Ms type: MS2
Ion mode: POSITIVE
Collision energy: 130
Fragmentation mode: CID
Ionization: ESI
Column name: Zorbax Eclipse Plus C18 2.1 mm x 150 mm, 3.5 um, Agilent
Retention time: 7.064 min
Precursor m/z: 308.222
Precursor type: [M+H]+
m/z	relative intensity
42.0447	32
44.0605	77
56.0579	238
58.0719	77
58.0804	32
72.0859	25
74.0656	32
75.0273	38
76.0362	25
76.0455	32
77.0445	999
78.0525	122
79.0586	58
89.0436	186
91.0587	212
102.0505	128
103.0579	83
115.0577	451
126.0509	25
127.0563	70
128.0647	148
152.0609	32
