Mass spectrum: Norlidocaine; LC-ESI-QTOF; MS2; 30 V
Name: Norlidocaine
Class: Pharmaceutical; Metabolite
Formula: C12H18N2O
Exact mass: 206.1419
SMILES: CCNCC(=O)Nc1c(cccc1C)C
InChI: InChI=1S/C12H18N2O/c1-4-13-8-11(15)14-12-9(2)6-5-7-10(12)3/h5-7,13H,4,8H2,1-3H3,(H,14,15)
Instrument: TripleTOF 5600 SCIEX
Instrument type: LC-ESI-QTOF
Ms type: MS2
Ion mode: POSITIVE
Collision energy: 30
Fragmentation mode: CID
Ionization: ESI
Column name: Zorbax Eclipse Plus C18 2.1 mm x 150 mm, 3.5 um, Agilent
Retention time: 5.349 min
Precursor m/z: 207.1492
Precursor type: [M+H]+
m/z	relative intensity
58.0715	999
105.0693	17
107.0727	16
122.0959	96
132.0809	13
150.0913	30
