Mass spectrum: Hydroxytorasemide; LC-ESI-QTOF; MS2; 140 V
Name: Hydroxytorasemide
Class: Pharmaceutical; Transformation_product; Transformation_product-Metabolite
Formula: C16H20N4O4S
Exact mass: 364.1205
SMILES: CC(C)NC(=O)NS(=O)(=O)c1cnccc1Nc2cccc(c2)CO
InChI: InChI=1S/C16H20N4O4S/c1-11(2)18-16(22)20-25(23,24)15-9-17-7-6-14(15)19-13-5-3-4-12(8-13)10-21/h3-9,11,21H,10H2,1-2H3,(H,17,19)(H2,18,20,22)
Instrument: TripleTOF 5600 SCIEX
Instrument type: LC-ESI-QTOF
Ms type: MS2
Ion mode: POSITIVE
Collision energy: 140
Fragmentation mode: CID
Ionization: ESI
Column name: Zorbax Eclipse Plus C18 2.1 mm x 150 mm, 3.5 um, Agilent
Retention time: 5.824 min
Precursor m/z: 365.1278
Precursor type: [M+H]+
m/z	relative intensity
51.0295	182
52.0362	12
64.0335	18
65.043	119
67.0441	18
68.9862	10
73.0106	12
74.0177	175
75.026	362
76.0194	41
76.0321	41
77.0407	565
78.0341	29
78.0421	33
79.0444	29
85.0095	27
86.0162	48
87.0238	138
88.031	261
89.0401	990
90.034	33
90.0469	127
91.0406	10
91.0508	25
93.0451	12
98.0153	33
99.022	73
100.0181	25
100.0295	20
101.0377	282
102.0335	46
102.0441	96
103.0384	35
103.0531	37
104.0495	25
110.0044	10
113.038	542
114.0441	498
115.0535	999
116.049	108
117.0428	14
117.0556	111
118.0503	25
125.0371	58
125.0533	10
126.0457	249
127.0531	441
128.0483	467
129.0423	96
130.0342	10
130.0614	14
131.0602	10
138.0322	29
139.0407	52
140.0491	812
141.0561	213
142.0498	106
151.0389	18
151.0505	10
152.0489	127
153.0565	203
154.0385	12
154.064	257
155.0601	129
165.0467	18
166.0517	144
167.0601	106
168.0671	232
169.0755	85
178.0537	14
179.0588	245
180.0665	100
181.075	703
182.0864	23
197.073	18
