Mass spectrum: Clopidogrel carboxylic acid; LC-ESI-QTOF; MS2; 140 V
Name: Clopidogrel carboxylic acid
Class: Pharmaceutical
Formula: C15H14ClNO2S
Exact mass: 307.0434
SMILES: C1CN(CC2=C1SC=C2)C(C3=CC=CC=C3Cl)C(=O)O
InChI: InChI=1S/C15H14ClNO2S/c16-12-4-2-1-3-11(12)14(15(18)19)17-7-5-13-10(9-17)6-8-20-13/h1-4,6,8,14H,5,7,9H2,(H,18,19)
Instrument: TripleTOF 6600 SCIEX
Instrument type: LC-ESI-QTOF
Ms type: MS2
Ion mode: POSITIVE
Collision energy: 140
Fragmentation mode: CID
Ionization: ESI
Column name: Zorbax Eclipse Plus C18 2.1 mm x 150 mm, 3.5 um, Agilent
Retention time: 6.621 min
Precursor m/z: 308.0507
Precursor type: [M+H]+
m/z	relative intensity
37.008	14
38.0164	14
39.0239	37
44.9803	18
48.9849	14
49.0079	103
50.0159	575
51.0239	999
52.0314	33
61.0076	23
62.0153	75
63.0234	119
64.0312	12
65.0395	19
68.9804	15
72.9841	65
74.0153	41
75.0237	22
77.039	189
78.0469	34
89.0391	163
90.0467	29
98.9988	19
