Mass spectrum: Valsartanic acid; LC-ESI-QTOF; MS2; 150 V
Name: Valsartanic acid
Class: Pharmaceutical; Transformation_product
Formula: C14H10N4O2
Exact mass: 266.0804
SMILES: O=C(O)C(C=C1)=CC=C1C2=CC=CC=C2C3=NN=NN3
InChI: InChI=1S/C14H10N4O2/c19-14(20)10-7-5-9(6-8-10)11-3-1-2-4-12(11)13-15-17-18-16-13/h1-8H,(H,19,20)(H,15,16,17,18)
Instrument: TripleTOF 5600 SCIEX
Instrument type: LC-ESI-QTOF
Ms type: MS2
Ion mode: POSITIVE
Collision energy: 150
Fragmentation mode: CID
Ionization: ESI
Column name: Zorbax Eclipse Plus C18 2.1 mm x 150 mm, 3.5 um, Agilent
Retention time: 8.027 min
Precursor m/z: 267.0877
Precursor type: [M+H]+
m/z	relative intensity
51.029	322
60.0048	21
73.0104	165
74.0179	999
75.0116	30
75.0245	331
76.0323	82
77.0403	56
85.0083	143
86.0158	257
87.0239	78
89.0408	26
97.0064	113
97.0234	17
98.015	951
98.0374	34
99.0088	69
99.0226	152
100.0201	52
100.0378	17
102.0462	26
109.0076	113
110.0153	117
110.0281	21
111.0238	56
121.0063	65
122.0147	218
123.0115	61
123.024	30
125.0388	39
126.048	30
149.0408	26
150.047	95
151.052	26
