Mass spectrum: Dienogest Impurity G; LC-ESI-QTOF; MS2; 50 V
Name: Dienogest Impurity G
Class: Pharmaceutical
Formula: C20H23NO2
Exact mass: 309.1729
SMILES: CC12CC=C3C(C1CCC2(CC#N)O)CCC4=C3C=CC(=C4)O
InChI: InChI=1S/C20H23NO2/c1-19-8-6-16-15-5-3-14(22)12-13(15)2-4-17(16)18(19)7-9-20(19,23)10-11-21/h3,5-6,12,17-18,22-23H,2,4,7-10H2,1H3
Instrument: TripleTOF 6600 SCIEX
Instrument type: LC-ESI-QTOF
Ms type: MS2
Ion mode: POSITIVE
Collision energy: 50
Fragmentation mode: CID
Ionization: ESI
Column name: Zorbax Eclipse Plus C18 2.1 mm x 150 mm, 3.5 um, Agilent
Retention time: 9.956 min
Precursor m/z: 310.1802
Precursor type: [M+H]+
m/z	relative intensity
43.0175	14
53.0375	12
55.0165	19
55.0544	14
65.0368	14
67.0534	48
77.0378	67
79.0531	134
81.0689	86
91.0533	259
92.0608	9
93.057	12
93.0684	64
95.0849	50
97.0634	50
103.0534	57
105.0686	429
107.0484	105
107.0847	45
108.0795	48
109.0634	38
110.0699	16
115.0528	141
116.0609	52
117.0686	60
118.0636	14
119.0837	86
120.0788	16
121.0646	28
122.0946	12
123.0791	91
127.053	67
128.0609	93
129.0682	86
130.0654	16
131.048	134
131.0847	259
132.0552	43
132.0785	45
133.0639	886
141.0687	288
142.0751	19
143.0837	33
144.0559	427
145.0644	88
145.0995	16
146.096	64
147.0794	115
152.0618	19
153.0676	16
155.0593	19
155.0847	19
157.0638	770
158.0719	26
159.0798	999
160.0811	21
160.1126	14
161.0942	9
161.1235	9
165.0694	43
167.0842	31
169.0738	86
170.0724	12
171.08	62
173.0954	31
177.0699	16
178.0756	16
179.0834	26
181.0644	43
182.0713	40
183.08	74
185.0959	31
189.0707	12
191.0855	24
193.1009	16
194.0723	60
195.0797	79
196.086	33
197.0946	50
198.1027	36
207.0792	40
208.0873	45
209.0944	86
210.1044	26
211.112	40
215.0871	14
219.0787	21
220.0876	19
221.0934	33
222.0981	21
223.1093	31
224.1172	12
231.0782	14
233.095	16
234.1049	28
235.1098	26
237.1271	69
241.1219	24
245.0967	16
246.0998	12
249.1299	12
251.1439	36
252.1483	16
260.1132	12
264.1404	12
