Mass spectrum: Ranitidine-N-oxide; LC-ESI-QTOF; MS2; 40 V
Name: Ranitidine-N-oxide
Class: Pharmaceutical; Transformation_product; Transformation_product-Metabolite
Formula: C13H22N4O4S
Exact mass: 330.1362
SMILES: CNC(/NCCSCc1oc(C[N+](C)(C)[O-])cc1)=C\[N+]([O-])=O
InChI: InChI=1S/C13H22N4O4S/c1-14-13(8-16(18)19)15-6-7-22-10-12-5-4-11(21-12)9-17(2,3)20/h4-5,8,14-15H,6-7,9-10H2,1-3H3/b13-8+
Instrument: TripleTOF 5600 SCIEX
Instrument type: LC-ESI-QTOF
Ms type: MS2
Ion mode: POSITIVE
Collision energy: 40
Fragmentation mode: CID
Ionization: ESI
Column name: Zorbax Eclipse Plus C18 2.1 mm x 150 mm, 3.5 um, Agilent
Retention time: 4.879 min
Precursor m/z: 331.1435
Precursor type: [M+H]+
m/z	relative intensity
56.0552	15
81.0356	132
83.0628	23
84.0696	40
88.0234	24
95.0504	36
97.0133	14
97.0768	209
98.0846	401
101.03	20
102.038	633
104.0169	12
107.0488	69
110.0596	22
113.0703	11
115.0326	17
117.0467	28
118.0314	24
118.0636	11
121.0746	48
124.0762	89
125.0059	853
129.0476	32
130.0559	999
131.0631	17
132.0433	20
133.0527	22
135.0268	13
135.091	81
136.0756	11
144.0777	17
145.042	15
147.0648	23
147.0916	15
148.0751	120
149.0718	30
153.0356	29
163.0865	48
163.1219	12
164.0943	49
165.1024	191
167.0636	55
170.0628	22
176.0492	346
177.102	131
178.0316	26
178.109	14
181.0794	95
191.1182	195
192.048	56
193.0558	41
194.0641	11
223.0887	26
224.0998	34
