Mass spectrum: Malachite green cation; LC-ESI-QTOF; MS2; 100 V
Name: Malachite green cation
Class: Industrial_process; Pigment; Antimicrobial; Fungicide
Formula: [C23H25N2]+
Exact mass: 329.2012
SMILES: CN(C)C1=CC=C(C=C1)C(=C2C=CC(=[N+](C)C)C=C2)C3=CC=CC=C3
InChI: InChI=1S/C23H25N2/c1-24(2)21-14-10-19(11-15-21)23(18-8-6-5-7-9-18)20-12-16-22(17-13-20)25(3)4/h5-17H,1-4H3/q+1
Instrument: TripleTOF 5600 SCIEX
Instrument type: LC-ESI-QTOF
Ms type: MS2
Ion mode: POSITIVE
Collision energy: 100
Fragmentation mode: CID
Ionization: ESI
Column name: Zorbax Eclipse Plus C18 2.1 mm x 150 mm, 3.5 um, Agilent
Retention time: 9.29 min
Precursor m/z: 329.2012
Precursor type: [M]+
m/z	relative intensity
115.0509	73
139.053	59
152.0623	93
163.0539	133
164.0614	219
165.0692	519
189.0704	93
190.0661	119
191.0717	66
192.0813	159
202.0777	73
213.0698	99
215.0843	239
225.0757	53
226.0764	319
227.0812	93
228.0946	79
237.0691	86
238.0799	139
239.0843	999
240.087	166
241.1	206
242.1051	53
254.0886	53
255.1027	53
266.0959	59
267.104	66
268.1085	93
