Mass spectrum: Nitenpyram; LC-ESI-QTOF; MS2; 40 V
Name: Nitenpyram
Class: Pharmaceutical; Insecticide
Formula: C11H15ClN4O2
Exact mass: 270.0884
SMILES: CCN(Cc1ccc(Cl)nc1)\C(NC)=C\[N+]([O-])=O
InChI: InChI=1S/C11H15ClN4O2/c1-3-15(11(13-2)8-16(17)18)7-9-4-5-10(12)14-6-9/h4-6,8,13H,3,7H2,1-2H3/b11-8+
Instrument: TripleTOF 5600 SCIEX
Instrument type: LC-ESI-QTOF
Ms type: MS2
Ion mode: POSITIVE
Collision energy: 40
Fragmentation mode: CID
Ionization: ESI
Column name: Zorbax Eclipse Plus C18 2.1 mm x 150 mm, 3.5 um, Agilent
Retention time: 5.386 min
Precursor m/z: 271.0956
Precursor type: [M+H]+
m/z	relative intensity
56.0558	999
57.0605	17
58.0693	42
58.0781	13
70.0688	22
71.0258	11
71.0625	13
83.0622	11
85.0421	24
85.0771	11
86.0853	31
90.0341	48
91.0447	11
98.0718	34
98.9986	31
99.0918	122
99.1106	11
106.0661	21
111.0766	14
112.0875	17
117.05	13
125.0022	14
126.01	430
127.0168	11
128.0244	22
133.0752	22
138.0112	13
139.004	86
141.0195	48
145.0753	22
147.0888	9
152.0254	45
153.0215	26
155.0332	17
160.0866	83
165.0228	31
166.0207	37
167.0362	50
169.0515	215
179.0358	127
180.0381	22
181.0518	37
188.1154	31
190.1317	75
193.0513	58
194.0344	13
194.0541	34
195.0672	63
196.0623	161
207.0402	16
208.0491	22
209.0574	44
210.0785	53
224.0937	223
237.0894	35
