Mass spectrum: Isotianil; LC-ESI-QTOF; MS2; 80 V
Name: Isotianil
Class: Fungicide
Formula: C11H5Cl2N3OS
Exact mass: 296.953
InChI: InChI=1S/C11H5Cl2N3OS/c12-8-9(18-16-10(8)13)11(17)15-7-4-2-1-3-6(7)5-14/h1-4H,(H,15,17)
Instrument: TripleTOF 5600 SCIEX
Instrument type: LC-ESI-QTOF
Ms type: CID
Ion mode: NEGATIVE
Collision energy: 80
Ionization: ESI
Column name: Zorbax Eclipse Plus C18 2.1 mm x 150 mm, 3.5 um, Agilent
Retention time: 12.41 min
Precursor m/z: 295.9458
Precursor type: [M-H]-
m/z	relative intensity
34.9688	999
81.9749	368
90.9402	368
118.9384	52
151.9109	210
