Mass spectrum: Cyclopropyltriphenylphosphonium; LC-ESI-QTOF; MS2; 140 V
Name: Cyclopropyltriphenylphosphonium
Formula: [C21H20P]+
Exact mass: 303.1297
SMILES: C1CC1[P+](C2=CC=CC=C2)(C3=CC=CC=C3)C4=CC=CC=C4
InChI: InChI=1S/C21H20P/c1-4-10-18(11-5-1)22(21-16-17-21,19-12-6-2-7-13-19)20-14-8-3-9-15-20/h1-15,21H,16-17H2/q+1
Instrument: TripleTOF 6600 SCIEX
Instrument type: LC-ESI-QTOF
Ms type: MS2
Ion mode: POSITIVE
Collision energy: 140
Fragmentation mode: CID
Ionization: ESI
Column name: Zorbax Eclipse Plus C18 2.1 mm x 150 mm, 3.5 um, Agilent
Retention time: 7.786 min
Precursor m/z: 303.1297
Precursor type: [M]+
m/z	relative intensity
39.0275	227
50.019	120
51.0269	129
55.9848	138
56.9926	255
61.0113	131
62.0188	225
63.0266	476
65.0423	229
67.9846	96
74.0183	190
75.0257	65
76.0336	154
77.0416	157
78.0496	52
78.976	207
79.9839	519
80.9915	603
86.0169	113
87.0249	149
89.0404	403
91.9825	83
98.0168	104
102.0485	171
102.9748	60
103.9825	139
104.9906	73
107.0066	999
113.0404	113
115.056	296
126.0483	302
131.0058	119
139.0557	158
150.048	431
151.056	409
152.0634	318
155.0058	123
156.0134	84
157.0214	156
179.0057	99
180.0134	131
181.0214	291
