Mass spectrum: Lamotrigine; LC-ESI-QTOF; MS2; 90 V
Name: Lamotrigine
Class: Pharmaceutical
Formula: C9H7Cl2N5
Exact mass: 255.0079
SMILES: Nc1nnc(c(N)n1)c2cccc(Cl)c2Cl
InChI: InChI=1S/C9H7Cl2N5/c10-5-3-1-2-4(6(5)11)7-8(12)14-9(13)16-15-7/h1-3H,(H4,12,13,14,16)
Instrument: TripleTOF 5600 SCIEX
Instrument type: LC-ESI-QTOF
Ms type: MS2
Ion mode: POSITIVE
Collision energy: 90
Fragmentation mode: CID
Ionization: ESI
Column name: Zorbax Eclipse Plus C18 2.1 mm x 150 mm, 3.5 um, Agilent
Retention time: 6.024 min
Precursor m/z: 256.0151
Precursor type: [M+H]+
m/z	relative intensity
42.0291	27
43.0384	740
44.0456	27
58.0449	43
61.9851	15
68.028	43
72.9872	250
73.0095	131
74.0181	999
75.025	159
75.0429	19
77.0412	31
82.9462	35
83.9768	31
84.9843	43
87.024	63
88.0196	43
88.0316	59
89.0392	250
90.0355	71
96.9843	167
97.9806	19
98.0166	51
99.0105	187
99.0258	23
100.0188	401
102.0328	31
104.0514	23
106.946	91
108.9835	581
109.9901	39
110.9984	47
114.0336	87
116.0461	23
121.9906	39
122.9999	143
123.9941	51
124.0173	55
125.0018	55
132.9597	103
135.9942	59
138.0117	47
144.9577	35
148.9998	19
156.9589	71
163.9997	15
170.9623	19
