Mass spectrum: Fipronil; LC-ESI-QTOF; MS2; 40 V
Name: Fipronil
Class: Insecticide
Formula: C12H4Cl2F6N4OS
Exact mass: 435.9387
SMILES: C1=C(C=C(C(=C1Cl)N2C(=C(C(=N2)C#N)S(=O)C(F)(F)F)N)Cl)C(F)(F)F
InChI: InChI=1S/C12H4Cl2F6N4OS/c13-5-1-4(11(15,16)17)2-6(14)8(5)24-10(22)9(7(3-21)23-24)26(25)12(18,19)20/h1-2H,22H2
Instrument: TripleTOF 6600 SCIEX
Instrument type: LC-ESI-QTOF
Ms type: MS2
Ion mode: POSITIVE
Collision energy: 40
Fragmentation mode: CID
Ionization: ESI
Column name: Zorbax Eclipse Plus C18 2.1 mm x 150 mm, 3.5 um, Agilent
Retention time: 13.577 min
Precursor m/z: 436.946
Precursor type: [M+H]+
m/z	relative intensity
221.0058	435
228.9615	138
239.9569	106
246.0013	95
249.0005	53
252.9761	159
253.9571	95
254.967	999
255.9731	63
262.9621	329
264.9523	116
265.0045	53
270.9214	244
277.96	127
280.972	233
285.0104	95
289.9736	563
305.9688	85
314.9676	95
319.9796	138
332.9796	233
341.9379	53
350.9476	53
367.947	499
