Mass spectrum: N-desmethyl-venlafaxine; LC-ESI-QTOF; MS2; 40 V
Name: N-desmethyl-venlafaxine
Class: Pharmaceutical; Metabolite; Transformation_product-Metabolite
Formula: C16H25NO2
Exact mass: 263.1885
SMILES: CNCC(c1ccc(cc1)OC)C2(CCCCC2)O
InChI: InChI=1S/C16H25NO2/c1-17-12-15(16(18)10-4-3-5-11-16)13-6-8-14(19-2)9-7-13/h6-9,15,17-18H,3-5,10-12H2,1-2H3
Instrument: TripleTOF 5600 SCIEX
Instrument type: LC-ESI-QTOF
Ms type: MS2
Ion mode: POSITIVE
Collision energy: 40
Fragmentation mode: CID
Ionization: ESI
Column name: Zorbax Eclipse Plus C18 2.1 mm x 150 mm, 3.5 um, Agilent
Retention time: 6.444 min
Precursor m/z: 264.1958
Precursor type: [M+H]+
m/z	relative intensity
44.0579	535
65.0424	19
69.073	12
77.04	82
78.0487	32
79.0561	82
81.072	53
91.0554	337
93.0699	31
103.0551	13
105.0704	24
107.0485	36
107.0849	25
115.0534	62
116.0613	19
117.0685	36
119.0859	15
121.0647	999
127.0533	15
128.0608	27
129.0709	17
131.0492	29
132.0568	60
133.0644	17
134.0579	10
135.079	53
141.0698	20
144.0565	36
145.0624	17
146.0708	15
147.0803	418
148.0732	24
149.0828	24
158.0728	82
159.0804	124
163.0995	20
164.1101	15
171.0787	13
173.0967	165
187.1085	12
215.1436	143
246.1851	43
