Mass spectrum: 2-[(4-hydroxy-9,10-dioxoanthracen-1-yl)amino]-5-methylbenzenesulfonic acid; LC-ESI-QTOF; MS2; 60 V
Name: 2-[(4-hydroxy-9,10-dioxoanthracen-1-yl)amino]-5-methylbenzenesulfonic acid
Formula: C21H15NO6S
Exact mass: 409.062
SMILES: CC1=CC(=C(C=C1)NC2=C3C(=C(C=C2)O)C(=O)C4=CC=CC=C4C3=O)S(=O)(=O)O
InChI: InChI=1S/C21H15NO6S/c1-11-6-7-14(17(10-11)29(26,27)28)22-15-8-9-16(23)19-18(15)20(24)12-4-2-3-5-13(12)21(19)25/h2-10,22-23H,1H3,(H,26,27,28)
Instrument: TripleTOF X500R SCIEX
Instrument type: LC-ESI-QTOF
Ms type: MS2
Ion mode: NEGATIVE
Collision energy: 60
Fragmentation mode: CID
Ionization: ESI
Column name: Zorbax Eclipse Plus C18 2.1 mm x 150 mm, 3.5 um, Agilent
Retention time: 11.683 min
Precursor m/z: 408.0547
Precursor type: [M-H]-
m/z	relative intensity
79.9574	527
80.966	35
121.0539	111
129.0356	19
132.0466	91
167.0497	63
171.0464	27
183.0416	19
184.0074	351
185.0163	507
195.048	55
196.0076	39
209.0479	127
210.032	107
211.0407	411
223.0439	23
237.0422	23
282.0922	195
283.0612	31
284.0922	67
297.0728	15
298.091	47
300.1019	191
308.0659	35
308.0919	39
309.0773	147
310.0871	999
311.0918	51
326.0808	79
327.0915	87
327.1214	19
328.0563	15
328.0968	139
328.1248	31
342.0841	19
364.0731	23
