Mass spectrum: Lamotrigine; LC-ESI-QTOF; MS2; 40 V
Name: Lamotrigine
Class: Pharmaceutical
Formula: C9H7Cl2N5
Exact mass: 255.0079
SMILES: Nc1nnc(c(N)n1)c2cccc(Cl)c2Cl
InChI: InChI=1S/C9H7Cl2N5/c10-5-3-1-2-4(6(5)11)7-8(12)14-9(13)16-15-7/h1-3H,(H4,12,13,14,16)
Instrument: TripleTOF 5600 SCIEX
Instrument type: LC-ESI-QTOF
Ms type: MS2
Ion mode: POSITIVE
Collision energy: 40
Fragmentation mode: CID
Ionization: ESI
Column name: Zorbax Eclipse Plus C18 2.1 mm x 150 mm, 3.5 um, Agilent
Retention time: 6.024 min
Precursor m/z: 256.0151
Precursor type: [M+H]+
m/z	relative intensity
43.0382	105
44.0445	13
58.0444	49
89.0384	10
100.0187	14
108.9839	74
115.0293	14
122.999	71
123.9946	35
124.01	9
131.0592	31
132.9598	33
135.9944	22
138.0095	31
144.9602	164
150.0098	18
151.0178	129
152.0132	85
156.9602	167
158.9761	184
159.971	54
163.9995	12
165.0205	97
166.029	159
170.9634	40
171.9708	149
172.9654	36
173.9867	52
176.0131	12
178.0153	24
179.0243	19
183.9705	134
184.9775	22
185.986	52
186.9818	167
193.0393	17
194.9637	27
196.9684	13
210.9821	313
211.9772	74
213.9928	21
220.0378	70
229.0045	47
256.0151	999
