Mass spectrum: Hydrocodone; LC-ESI-QTOF; MS2; 70 V
Name: Hydrocodone
Class: Pharmaceutical
Formula: C18H21NO3
Exact mass: 299.1521
SMILES: CN1CCC23C4C1CC5=C2C(=C(C=C5)OC)OC3C(=O)CC4
InChI: InChI=1S/C18H21NO3/c1-19-8-7-18-11-4-5-13(20)17(18)22-16-14(21-2)6-3-10(15(16)18)9-12(11)19/h3,6,11-12,17H,4-5,7-9H2,1-2H3
Instrument: TripleTOF 6600 SCIEX
Instrument type: LC-ESI-QTOF
Ms type: MS2
Ion mode: POSITIVE
Collision energy: 70
Fragmentation mode: CID
Ionization: ESI
Column name: Zorbax Eclipse Plus C18 2.1 mm x 150 mm, 3.5 um, Agilent
Retention time: 5.331 min
Precursor m/z: 300.1594
Precursor type: [M+H]+
m/z	relative intensity
44.0486	28
55.0169	15
77.0373	39
78.0457	10
89.0386	12
91.0524	25
102.0451	42
103.0531	17
113.0369	13
114.0453	73
115.053	468
116.0607	28
126.0448	24
127.0531	266
128.061	999
129.0684	58
131.0478	15
139.0539	62
140.0611	31
141.0688	400
142.0407	26
142.0762	34
143.0482	38
143.0818	10
144.0571	57
145.0617	15
151.0533	71
152.0608	486
153.0688	346
154.0755	48
155.0483	248
155.0852	21
156.0552	134
157.0639	28
158.0725	17
164.0596	24
165.0683	190
166.0759	13
167.0827	10
168.0567	64
169.0261	18
169.0635	111
170.0347	137
170.0718	44
171.0427	20
171.079	195
178.0768	17
181.0634	111
182.0707	29
183.0432	361
184.0503	62
185.0584	126
189.0656	10
193.0627	13
197.0592	32
198.067	76
199.0741	84
