Mass spectrum: Propamocarb; LC-ESI-QTOF; MS2; 50 V
Name: Propamocarb
Class: Fungicide
Formula: C9H20N2O2
Exact mass: 188.1525
SMILES: CCCOC(=O)NCCCN(C)C
InChI: InChI=1S/C9H20N2O2/c1-4-8-13-9(12)10-6-5-7-11(2)3/h4-8H2,1-3H3,(H,10,12)
Instrument: TripleTOF 6600 SCIEX
Instrument type: LC-ESI-QTOF
Ms type: MS2
Ion mode: POSITIVE
Collision energy: 50
Fragmentation mode: CID
Ionization: ESI
Column name: Zorbax Eclipse Plus C18 2.1 mm x 150 mm, 3.5 um, Agilent
Retention time: 4.882 min
Precursor m/z: 189.1598
Precursor type: [M+H]+
m/z	relative intensity
30.0342	245
37.0075	20
38.015	16
39.0236	211
41.0389	377
42.0342	130
43.0423	120
43.0543	80
44.0496	27
44.9973	22
46.0654	39
56.0137	29
56.0487	14
58.0652	558
71.0732	12
74.0235	999
86.0957	41
102.0536	209
