Mass spectrum: Irbesartan; LC-ESI-QTOF; MS2; 60 V
Name: Irbesartan
Class: Pharmaceutical
Formula: C25H28N6O
Exact mass: 428.2325
SMILES: CCCCC1=NC2(CCCC2)C(=O)N1Cc3ccc(cc3)c4ccccc4c5n[nH]nn5
InChI: InChI=1S/C25H28N6O/c1-2-3-10-22-26-25(15-6-7-16-25)24(32)31(22)17-18-11-13-19(14-12-18)20-8-4-5-9-21(20)23-27-29-30-28-23/h4-5,8-9,11-14H,2-3,6-7,10,15-17H2,1H3,(H,27,28,29,30)
Instrument: TripleTOF 5600 SCIEX
Instrument type: LC-ESI-QTOF
Ms type: MS2
Ion mode: POSITIVE
Collision energy: 60
Fragmentation mode: CID
Ionization: ESI
Column name: Zorbax Eclipse Plus C18 2.1 mm x 150 mm, 3.5 um, Agilent
Retention time: 9.345 min
Precursor m/z: 429.2397
Precursor type: [M+H]+
m/z	relative intensity
67.058	11
77.0415	30
79.0564	15
80.052	23
84.0838	191
129.0447	18
140.0498	29
151.0546	95
152.0624	145
153.07	302
154.0654	13
163.0542	41
164.0562	21
165.0699	115
166.0706	36
167.0727	45
167.1549	21
168.0692	9
177.0571	29
178.0667	229
179.0731	273
180.0811	851
181.076	16
189.0572	12
190.0659	372
191.0732	126
192.0742	478
195.1492	40
205.0767	680
206.0846	608
207.0921	999
