Mass spectrum: Sulfanilamide; LC-ESI-QTOF; MS2; 70 V
Name: Sulfanilamide
Class: Pharmaceutical; Transformation_product
Formula: C6H8N2O2S
Exact mass: 172.0306
SMILES: C1=CC(=CC=C1N)S(=O)(=O)N
InChI: InChI=1S/C6H8N2O2S/c7-5-1-3-6(4-2-5)11(8,9)10/h1-4H,7H2,(H2,8,9,10)
Instrument: TripleTOF 6600 SCIEX
Instrument type: LC-ESI-QTOF
Ms type: MS2
Ion mode: POSITIVE
Collision energy: 70
Fragmentation mode: CID
Ionization: ESI
Column name: Zorbax Eclipse Plus C18 2.1 mm x 150 mm, 3.5 um, Agilent
Retention time: 3.091 min
Precursor m/z: 173.0379
Precursor type: [M+H]+
m/z	relative intensity
37.0064	96
38.0141	77
39.0217	320
49.0062	116
50.014	999
65.0367	242
66.0448	96
73.0057	48
74.0134	387
75.0215	261
76.029	339
92.0479	48
93.0563	38
