Mass spectrum: Fluoxastrobin; LC-ESI-QTOF; MS2; 50 V
Name: Fluoxastrobin
Class: Fungicide
Formula: C21H16ClFN4O5
Exact mass: 458.0793
SMILES: CON=C(C1=CC=CC=C1OC2=C(C(=NC=N2)OC3=CC=CC=C3Cl)F)C4=NOCCO4
InChI: InChI=1S/C21H16ClFN4O5/c1-28-26-18(21-27-30-11-10-29-21)13-6-2-4-8-15(13)31-19-17(23)20(25-12-24-19)32-16-9-5-3-7-14(16)22/h2-9,12H,10-11H2,1H3
Instrument: TripleTOF 6600 SCIEX
Instrument type: LC-ESI-QTOF
Ms type: MS2
Ion mode: POSITIVE
Collision energy: 50
Fragmentation mode: CID
Ionization: ESI
Column name: Zorbax Eclipse Plus C18 2.1 mm x 150 mm, 3.5 um, Agilent
Retention time: 13.269 min
Precursor m/z: 459.0866
Precursor type: [M+H]+
m/z	relative intensity
45.0334	12
65.0387	18
74.0153	12
75.022	29
77.0379	34
78.0332	11
90.0325	52
93.0327	23
98.9983	11
102.033	54
104.0485	19
105.0336	10
106.0274	20
110.9988	127
117.0469	13
118.0511	13
119.0352	23
120.0434	60
122.0396	24
128.0001	12
129.0072	19
129.0437	46
130.0347	124
132.0457	24
133.0317	21
134.0381	21
138.009	239
139.0025	88
142.0401	12
144.0305	35
145.0382	111
146.0234	81
147.0333	16
148.0435	10
149.0262	13
150.0334	193
151.0047	13
154.0389	15
157.0388	12
159.0352	33
160.0249	12
160.0414	28
161.0324	45
162.033	25
163.0033	24
163.033	11
167.9994	61
170.0321	40
174.0464	14
175.0283	53
176.0366	23
177.047	11
178.0291	146
178.9991	45
182.0353	11
183.9932	22
185.0354	10
186.0426	15
187.0304	22
188.0372	999
189.0451	22
190.0415	19
191.0245	25
195.9943	10
196.0511	11
198.0287	14
200.0403	12
202.0404	30
203.0247	19
204.0513	19
205.0395	35
205.0574	33
212.0506	10
213.0314	11
214.0032	27
214.0395	16
215.042	10
216.0568	17
218.0363	15
221.0446	11
223.0059	16
223.9912	16
225.057	22
228.0473	31
229.0258	28
230.0343	113
231.0197	18
232.0577	17
239.0347	11
240.043	27
241.0536	21
242.0574	12
244.0489	19
246.0274	47
248.0594	12
251.0568	21
252.0648	13
255.0292	15
257.0418	16
261.067	11
262.0534	15
263.0624	11
264.0317	12
266.0124	38
267.0306	13
274.0608	20
277.0628	18
278.0727	43
279.0547	41
280.0642	48
286.0597	10
304.0535	27
305.0644	10
306.0652	484
313.0423	12
313.0666	17
315.0343	51
318.0657	50
320.0216	10
331.0607	50
340.0257	102
342.045	25
343.0335	10
367.0382	50
383.031	36
397.0518	12
427.0595	19
