Mass spectrum: Ciprofloxacin; LC-ESI-QTOF; MS2; 110 V
Name: Ciprofloxacin
Class: Pharmaceutical
Formula: C17H18FN3O3
Exact mass: 331.1332
SMILES: C1CC1N2C=C(C(=O)C3=CC(=C(C=C32)N4CCNCC4)F)C(=O)O
InChI: InChI=1S/C17H18FN3O3/c18-13-7-11-14(8-15(13)20-5-3-19-4-6-20)21(10-1-2-10)9-12(16(11)22)17(23)24/h7-10,19H,1-6H2,(H,23,24)
Instrument: TripleTOF 6600 SCIEX
Instrument type: LC-ESI-QTOF
Ms type: MS2
Ion mode: POSITIVE
Collision energy: 110
Fragmentation mode: CID
Ionization: ESI
Column name: Zorbax Eclipse Plus C18 2.1 mm x 150 mm, 3.5 um, Agilent
Retention time: 5.497 min
Precursor m/z: 332.1405
Precursor type: [M+H]+
m/z	relative intensity
74.0156	218
75.0228	374
77.0388	156
87.0114	156
87.0211	124
89.039	124
101.0383	249
106.021	280
107.0299	624
114.0346	156
129.0486	218
132.0244	999
133.0337	280
133.0438	124
134.0385	156
135.0486	124
140.0484	124
146.0403	187
148.0564	218
154.0436	156
160.0419	218
187.029	187
