Mass spectrum: Sulpiride; LC-ESI-QTOF; MS2; 150 V
Name: Sulpiride
Class: Pharmaceutical
Formula: C15H23N3O4S
Exact mass: 341.1409
SMILES: CCN1CCCC1CNC(=O)c2cc(ccc2OC)[S](N)(=O)=O
InChI: InChI=1S/C15H23N3O4S/c1-3-18-8-4-5-11(18)10-17-15(19)13-9-12(23(16,20)21)6-7-14(13)22-2/h6-7,9,11H,3-5,8,10H2,1-2H3,(H,17,19)(H2,16,20,21)
Instrument: TripleTOF 5600 SCIEX
Instrument type: LC-ESI-QTOF
Ms type: MS2
Ion mode: POSITIVE
Collision energy: 150
Fragmentation mode: CID
Ionization: ESI
Column name: Zorbax Eclipse Plus C18 2.1 mm x 150 mm, 3.5 um, Agilent
Retention time: 4.958 min
Precursor m/z: 342.1482
Precursor type: [M+H]+
m/z	relative intensity
42.0427	135
51.03	406
52.0253	67
52.0364	203
56.0552	152
58.0694	118
62.03	67
68.0548	84
70.0698	423
74.0181	999
75.0255	829
76.0333	338
77.0407	101
78.0439	84
82.0654	84
84.0848	101
91.0173	135
98.0962	118
