Mass spectrum: Amethopterin; LC-ESI-QTOF; MS2; 50 V
Name: Amethopterin
Class: Pharmaceutical
Formula: C20H22N8O5
Exact mass: 454.1713
SMILES: CN(Cc1cnc2nc(N)nc(N)c2n1)c3ccc(cc3)C(=O)NC(CCC(O)=O)C(O)=O
InChI: InChI=1S/C20H22N8O5/c1-28(9-11-8-23-17-15(24-11)16(21)26-20(22)27-17)12-4-2-10(3-5-12)18(31)25-13(19(32)33)6-7-14(29)30/h2-5,8,13H,6-7,9H2,1H3,(H,25,31)(H,29,30)(H,32,33)(H4,21,22,23,26,27)
Instrument: TripleTOF 5600 SCIEX
Instrument type: LC-ESI-QTOF
Ms type: MS2
Ion mode: NEGATIVE
Collision energy: 50
Fragmentation mode: CID
Ionization: ESI
Column name: Zorbax Eclipse Plus C18 2.1 mm x 150 mm, 3.5 um, Agilent
Retention time: 5.057 min
Precursor m/z: 453.164
Precursor type: [M-H]-
m/z	relative intensity
106.0676	150
119.0396	65
132.0455	546
133.0531	141
149.0485	94
149.0727	282
150.0547	197
157.0394	169
161.0742	169
162.0823	169
173.0586	179
174.0665	999
175.0783	216
189.1056	103
191.1204	499
217.1008	141
235.1112	292
238.112	207
281.1203	56
282.1048	169
323.1623	94
324.1225	301
367.1436	65
