Mass spectrum: Sulfasalazine; LC-ESI-QTOF; MS2; 120 V
Name: Sulfasalazine
Class: Pharmaceutical
Formula: C18H14N4O5S
Exact mass: 398.0685
SMILES: C1=CC=NC(=C1)NS(=O)(=O)C2=CC=C(C=C2)NN=C3C=CC(=O)C(=C3)C(=O)O
InChI: InChI=1S/C18H14N4O5S/c23-16-9-6-13(11-15(16)18(24)25)21-20-12-4-7-14(8-5-12)28(26,27)22-17-3-1-2-10-19-17/h1-11,20H,(H,19,22)(H,24,25)
Instrument: TripleTOF 5600 SCIEX
Instrument type: LC-ESI-QTOF
Ms type: MS2
Ion mode: POSITIVE
Collision energy: 120
Fragmentation mode: CID
Ionization: ESI
Column name: Zorbax Eclipse Plus C18 2.1 mm x 150 mm, 3.5 um, Agilent
Retention time: 9.217 min
Precursor m/z: 399.0758
Precursor type: [M+H]+
m/z	relative intensity
41.0397	32
50.0241	36
53.0473	32
55.0266	20
61.0159	32
62.0232	93
63.0308	260
67.0488	999
75.0295	28
76.0379	57
77.0431	65
78.0402	61
80.016	16
81.0393	122
87.0266	24
89.0414	32
91.0237	207
94.0573	191
95.0654	24
101.0429	20
113.0426	57
119.015	20
126.0454	20
138.0446	20
140.0492	36
141.0589	20
155.0593	16
166.0525	20
167.0619	24
168.0669	28
180.0574	16
