Mass spectrum: Voriconazole-N-oxide; LC-ESI-QTOF; MS2; 90 V
Name: Voriconazole-N-oxide
Class: Metabolite; Pharmaceutical
Formula: C16H14F3N5O2
Exact mass: 365.11
SMILES: CC(C1=NC=[N+](C=C1F)[O-])C(CN2C=NC=N2)(C3=C(C=C(C=C3)F)F)O
InChI: InChI=1S/C16H14F3N5O2/c1-10(15-14(19)5-24(26)9-21-15)16(25,6-23-8-20-7-22-23)12-3-2-11(17)4-13(12)18/h2-5,7-10,25H,6H2,1H3
Instrument: TripleTOF 5600 SCIEX
Instrument type: LC-ESI-QTOF
Ms type: MS2
Ion mode: POSITIVE
Collision energy: 90
Fragmentation mode: CID
Ionization: ESI
Column name: Zorbax Eclipse Plus C18 2.1 mm x 150 mm, 3.5 um, Agilent
Retention time: 7.739 min
Precursor m/z: 366.1172
Precursor type: [M+H]+
m/z	relative intensity
55.0348	19
71.0195	15
75.0077	21
77.0217	23
77.0419	46
81.016	24
82.0419	23
95.0612	31
97.025	15
98.0277	53
98.0399	46
99.0344	19
101.0204	265
105.0459	17
107.0291	212
113.0199	15
125.0507	575
126.0582	132
127.0357	999
141.0123	12
