Mass spectrum: Sunitinib; LC-ESI-QTOF; MS2; 140 V
Name: Sunitinib
Class: Pharmaceutical
Formula: C22H27FN4O2
Exact mass: 398.2118
SMILES: CCN(CC)CCNC(=O)C1=C(NC(=C1C)C=C2C3=C(C=CC(=C3)F)NC2=O)C
InChI: InChI=1S/C22H27FN4O2/c1-5-27(6-2)10-9-24-22(29)20-13(3)19(25-14(20)4)12-17-16-11-15(23)7-8-18(16)26-21(17)28/h7-8,11-12,25H,5-6,9-10H2,1-4H3,(H,24,29)(H,26,28)
Instrument: TripleTOF 5600 SCIEX
Instrument type: LC-ESI-QTOF
Ms type: MS2
Ion mode: POSITIVE
Collision energy: 140
Fragmentation mode: CID
Ionization: ESI
Column name: Zorbax Eclipse Plus C18 2.1 mm x 150 mm, 3.5 um, Agilent
Retention time: 6.516 min
Precursor m/z: 399.2191
Precursor type: [M+H]+
m/z	relative intensity
42.0433	19
51.0284	58
57.0191	24
65.043	52
65.0564	11
73.0096	13
74.019	180
74.0439	13
75.0263	396
76.0197	19
76.0328	19
77.0419	69
78.0364	27
80.0516	19
81.0159	52
83.0314	135
86.0167	41
87.0254	49
88.0209	16
88.0364	22
89.0401	86
91.0557	13
93.0169	24
94.0223	38
95.0305	191
95.0616	13
96.0382	47
97.0068	19
98.0167	224
98.0555	11
99.0239	441
99.0425	27
99.0541	13
100.0193	197
101.0389	99
101.0585	16
102.0353	22
102.0472	16
104.0498	19
105.0128	22
106.0217	52
107.0295	527
107.0618	13
108.0232	27
108.0371	102
109.045	52
110.0164	22
111.0235	13
112.0283	11
113.0382	88
114.0335	36
115.0542	30
117.0147	19
117.0588	24
118.0229	16
119.0283	80
120.0379	83
121.0446	13
122.0147	99
122.039	38
122.0581	13
123.0106	83
123.0219	219
123.0459	19
124.0186	308
125.0385	158
126.0334	191
127.0409	13
127.0528	30
128.0495	16
129.0474	16
131.0289	213
132.0333	88
133.0451	477
133.0718	13
134.0397	174
135.0471	44
137.0396	116
137.0647	22
138.0469	147
139.0538	141
140.049	72
141.0144	16
142.0215	16
143.0293	58
144.0362	213
145.0311	27
145.0437	94
146.0144	13
146.0412	227
147.0229	58
147.0446	38
148.0239	38
148.0557	58
149.0389	180
150.0466	210
151.0323	27
151.0549	152
151.0826	11
152.0612	111
153.0598	16
154.0391	61
154.0647	13
155.0284	83
156.0363	102
157.0458	999
157.0728	24
158.041	635
159.0486	30
161.0386	94
162.0431	127
163.0543	246
163.0818	13
164.0501	416
165.0575	55
165.0708	33
166.0649	24
167.0293	52
168.0371	388
169.0451	263
170.0532	360
171.0473	122
171.068	16
172.0333	11
172.0572	58
173.0437	55
174.0378	86
175.0424	72
176.0507	49
177.056	55
178.0645	69
179.0304	33
179.0625	13
180.0369	80
181.0455	746
182.045	493
183.0596	233
184.0563	654
184.0846	13
185.0641	202
185.0918	11
186.0571	19
187.0453	16
188.0492	246
189.0568	99
190.0665	83
191.0594	19
191.0738	16
192.0382	74
192.0689	16
193.0316	33
193.0446	19
194.0423	86
195.049	180
196.0555	91
197.0607	69
198.0727	86
199.0421	52
199.0681	22
200.0507	16
201.06	16
203.063	13
204.0547	13
206.0402	86
207.0481	119
208.0568	677
209.0625	299
210.0595	166
211.0665	49
216.067	19
219.0489	69
220.0422	11
220.0645	13
221.0533	27
222.0518	19
223.0679	108
224.0764	36
233.052	47
234.0586	41
235.0693	44
236.0734	36
237.0798	11
