Mass spectrum: 2-Hydroxybenzothiazole; LC-ESI-QTOF; MS2; 50 V
Name: 2-Hydroxybenzothiazole
Class: Industrial_process
Formula: C7H5NOS
Exact mass: 151.0092
SMILES: C1=CC=C2C(=C1)NC(=O)S2
InChI: InChI=1S/C7H5NOS/c9-7-8-5-3-1-2-4-6(5)10-7/h1-4H,(H,8,9)
Instrument: TripleTOF 5600 SCIEX
Instrument type: LC-ESI-QTOF
Ms type: MS2
Ion mode: POSITIVE
Collision energy: 50
Fragmentation mode: CID
Ionization: ESI
Column name: Zorbax Eclipse Plus C18 2.1 mm x 150 mm, 3.5 um, Agilent
Retention time: 7.776 min
Precursor m/z: 152.0165
Precursor type: [M+H]+
m/z	relative intensity
39.0237	157
53.0389	178
64.031	178
65.0386	799
68.9788	241
80.0499	999
90.0344	347
91.0412	452
92.0495	73
97.0102	136
106.9975	52
108.0062	94
109.0105	199
119.0376	157
124.0214	52
134.0045	52
