Mass spectrum: Flazasulfuron; LC-ESI-QTOF; MS2; 90 V
Name: Flazasulfuron
Class: Herbicide
Formula: C13H12F3N5O5S
Exact mass: 407.0511
SMILES: COC1=CC(=NC(=N1)NC(=O)NS(=O)(=O)C2=C(C=CC=N2)C(F)(F)F)OC
InChI: InChI=1S/C13H12F3N5O5S/c1-25-8-6-9(26-2)19-11(18-8)20-12(22)21-27(23,24)10-7(13(14,15)16)4-3-5-17-10/h3-6H,1-2H3,(H2,18,19,20,21,22)
Instrument: TripleTOF 6600 SCIEX
Instrument type: LC-ESI-QTOF
Ms type: MS2
Ion mode: NEGATIVE
Collision energy: 90
Fragmentation mode: CID
Ionization: ESI
Column name: Zorbax Eclipse Plus C18 2.1 mm x 150 mm, 3.5 um, Agilent
Retention time: 11.145 min
Precursor m/z: 406.0438
Precursor type: [M-H]-
m/z	relative intensity
38.0025	11
40.005	61
41.0134	137
41.9974	250
50.0025	12
64.0045	38
65.0127	202
65.997	999
74.0016	38
77.9639	22
82.0149	20
87.9968	18
89.0135	11
90.0082	31
91.0274	25
94.0057	12
107.0109	352
108.0166	22
109.028	12
121.0207	12
122.035	126
139.0367	42
