Mass spectrum: Pindolol; LC-ESI-QTOF; MS2; 30 V
Name: Pindolol
Class: Pharmaceutical
Formula: C14H20N2O2
Exact mass: 248.1525
SMILES: CC(C)NCC(COC1=CC=CC2=C1C=CN2)O
InChI: InChI=1S/C14H20N2O2/c1-10(2)16-8-11(17)9-18-14-5-3-4-13-12(14)6-7-15-13/h3-7,10-11,15-17H,8-9H2,1-2H3
Instrument: TripleTOF 5600 SCIEX
Instrument type: LC-ESI-QTOF
Ms type: MS2
Ion mode: POSITIVE
Collision energy: 30
Fragmentation mode: CID
Ionization: ESI
Column name: Zorbax Eclipse Plus C18 2.1 mm x 150 mm, 3.5 um, Agilent
Retention time: 5.148 min
Precursor m/z: 249.1598
Precursor type: [M+H]+
m/z	relative intensity
56.0588	134
58.0743	66
72.0876	198
74.0665	262
86.1018	13
98.1007	142
100.1158	27
106.0673	10
116.0525	19
116.11	999
117.071	39
118.0675	78
127.0564	10
130.0667	31
132.0469	24
132.0835	10
134.0618	230
143.0759	13
144.0822	300
145.0666	10
146.0618	285
154.0668	10
160.0785	31
172.0768	447
207.1126	11
249.1596	204
