Mass spectrum: Sildenafil; LC-ESI-QTOF; MS2; 120 V
Name: Sildenafil
Class: Pharmaceutical
Formula: C22H30N6O4S
Exact mass: 474.2049
SMILES: CCCC1=NN(C2=C1NC(=NC2=O)C3=C(C=CC(=C3)S(=O)(=O)N4CCN(CC4)C)OCC)C
InChI: InChI=1S/C22H30N6O4S/c1-5-7-17-19-20(27(4)25-17)22(29)24-21(23-19)16-14-15(8-9-18(16)32-6-2)33(30,31)28-12-10-26(3)11-13-28/h8-9,14H,5-7,10-13H2,1-4H3,(H,23,24,29)
Instrument: TripleTOF 5600 SCIEX
Instrument type: LC-ESI-QTOF
Ms type: MS2
Ion mode: POSITIVE
Collision energy: 120
Fragmentation mode: CID
Ionization: ESI
Column name: Zorbax Eclipse Plus C18 2.1 mm x 150 mm, 3.5 um, Agilent
Retention time: 7.283 min
Precursor m/z: 475.2122
Precursor type: [M+H]+
m/z	relative intensity
42.0466	65
43.0538	18
51.0321	13
56.0587	109
58.0744	999
66.0422	13
67.0374	10
68.0406	23
69.0503	18
70.0712	65
75.0305	15
77.0445	44
78.0386	36
79.0444	13
80.0574	15
81.0492	20
83.0645	23
84.0706	15
89.0426	26
90.0376	46
91.0436	31
92.0539	20
93.0492	15
94.0581	10
95.0622	20
99.0959	15
101.0407	36
102.0346	33
103.045	31
104.0515	36
105.0452	33
107.0618	10
114.0361	26
115.0517	36
116.0349	13
116.0493	44
117.0491	54
118.0393	13
118.0574	15
119.0348	13
119.0641	10
120.0457	20
122.0346	13
127.041	23
128.0513	72
128.0744	10
129.0451	98
130.0517	31
131.0588	33
132.0476	15
133.0471	13
136.0502	57
140.0494	23
141.0468	23
142.051	31
142.062	13
143.0595	57
144.0547	10
144.0657	15
145.0419	18
145.0791	10
153.0444	15
154.0394	13
154.0555	33
155.0615	119
156.0568	88
157.0402	18
157.0677	26
158.0735	15
159.0641	10
166.0525	15
167.049	15
167.0627	13
168.0607	36
168.0762	10
169.0569	31
169.077	18
170.0722	78
171.0609	23
171.0754	20
173.0647	10
179.062	15
180.0565	18
181.0641	18
182.0535	26
182.0691	23
183.0572	33
183.0742	23
184.0516	20
184.0787	20
187.0629	13
194.0721	13
195.0652	31
196.0786	26
197.067	13
197.0813	41
198.0666	44
207.0784	13
211.06	59
223.0634	20
224.0662	15
225.0785	72
237.0738	13
253.0743	13
