Mass spectrum: Metoprolol; LC-ESI-QTOF; MS2; 110 V
Name: Metoprolol
Class: Pharmaceutical
Formula: C15H25NO3
Exact mass: 267.1834
SMILES: CC(C)NCC(COC1=CC=C(C=C1)CCOC)O
InChI: InChI=1S/C15H25NO3/c1-12(2)16-10-14(17)11-19-15-6-4-13(5-7-15)8-9-18-3/h4-7,12,14,16-17H,8-11H2,1-3H3
Instrument: TripleTOF 6600 SCIEX
Instrument type: LC-ESI-QTOF
Ms type: MS2
Ion mode: POSITIVE
Collision energy: 110
Fragmentation mode: CID
Ionization: ESI
Column name: Zorbax Eclipse Plus C18 2.1 mm x 150 mm, 3.5 um, Agilent
Retention time: 6.14 min
Precursor m/z: 268.1907
Precursor type: [M+H]+
m/z	relative intensity
30.0335	126
35.9999	14
37.0071	77
38.0025	30
38.0146	75
39.0227	450
41.0381	234
42.0332	30
43.0427	18
43.0549	24
44.0492	30
45.0328	32
49.0065	22
50.0146	275
51.0226	999
53.0141	10
53.0377	12
56.0486	24
58.0645	18
61.0068	26
62.0139	36
63.0216	97
65.0378	256
66.0461	10
74.0139	67
75.0218	32
76.0303	24
77.0375	888
78.0458	34
79.0543	22
89.0372	120
91.0531	216
94.04	12
95.0507	16
102.0447	59
103.0532	38
105.0427	22
115.0524	126
127.0537	12
128.0632	16
