Mass spectrum: Tebuconazole; LC-ESI-QTOF; MS2; 150 V
Name: Tebuconazole
Class: Fungicide
Formula: C16H22ClN3O
Exact mass: 307.1451
SMILES: CC(C)(C)C(O)(CCc1ccc(Cl)cc1)Cn2cncn2
InChI: InChI=1S/C16H22ClN3O/c1-15(2,3)16(21,10-20-12-18-11-19-20)9-8-13-4-6-14(17)7-5-13/h4-7,11-12,21H,8-10H2,1-3H3
Instrument: TripleTOF 5600 SCIEX
Instrument type: LC-ESI-QTOF
Ms type: MS2
Ion mode: POSITIVE
Collision energy: 150
Fragmentation mode: CID
Ionization: ESI
Column name: Zorbax Eclipse Plus C18 2.1 mm x 150 mm, 3.5 um, Agilent
Retention time: 12.72 min
Precursor m/z: 308.1524
Precursor type: [M+H]+
m/z	relative intensity
42.0325	38
43.0397	248
57.0749	21
59.0546	30
64.0353	22
65.0431	32
70.0458	999
72.9883	178
74.0186	37
75.0254	24
77.0418	37
82.0426	27
89.0416	321
90.0478	31
99.0007	65
102.0457	10
115.0547	76
125.0147	11
128.0614	11
