Mass spectrum: Olmesartan; LC-ESI-QTOF; MS2; 90 V
Name: Olmesartan
Class: Pharmaceutical
Formula: C24H26N6O3
Exact mass: 446.2066
SMILES: CCCc1nc(c(n1Cc2ccc(cc2)c3ccccc3c4n[nH]nn4)C(O)=O)C(C)(C)O
InChI: InChI=1S/C24H26N6O3/c1-4-7-19-25-21(24(2,3)33)20(23(31)32)30(19)14-15-10-12-16(13-11-15)17-8-5-6-9-18(17)22-26-28-29-27-22/h5-6,8-13,33H,4,7,14H2,1-3H3,(H,31,32)(H,26,27,28,29)
Instrument: TripleTOF 5600 SCIEX
Instrument type: LC-ESI-QTOF
Ms type: MS2
Ion mode: POSITIVE
Collision energy: 90
Fragmentation mode: CID
Ionization: ESI
Column name: Zorbax Eclipse Plus C18 2.1 mm x 150 mm, 3.5 um, Agilent
Retention time: 7.356 min
Precursor m/z: 447.2139
Precursor type: [M+H]+
m/z	relative intensity
77.0411	72
80.0521	33
102.0345	13
113.0372	14
115.0541	30
127.0538	69
128.0616	20
138.046	25
139.0555	23
140.05	115
141.0633	20
150.0463	25
151.0548	260
152.0624	666
153.0699	233
154.0651	24
162.0465	12
163.0548	233
164.0575	212
165.0672	196
166.0654	33
167.0723	29
168.0677	20
176.0626	97
177.069	175
177.101	52
178.0765	594
179.0728	151
180.0811	215
181.0751	12
188.0497	16
189.0575	69
190.0658	999
191.0726	232
192.0687	213
205.0769	536
206.0841	116
207.0909	35
