Mass spectrum: Diethylamino hydroxybenzoyl hexyl benzoate; LC-ESI-QTOF; MS2; 110 V
Name: Diethylamino hydroxybenzoyl hexyl benzoate
Formula: C24H31NO4
Exact mass: 397.2253
SMILES: CCCCCCOC(=O)C1=CC=CC=C1C(=O)C2=C(C=C(C=C2)N(CC)CC)O
InChI: InChI=1S/C24H31NO4/c1-4-7-8-11-16-29-24(28)20-13-10-9-12-19(20)23(27)21-15-14-18(17-22(21)26)25(5-2)6-3/h9-10,12-15,17,26H,4-8,11,16H2,1-3H3
Instrument: TripleTOF 6600 SCIEX
Instrument type: LC-ESI-QTOF
Ms type: MS2
Ion mode: POSITIVE
Collision energy: 110
Fragmentation mode: CID
Ionization: ESI
Column name: Zorbax Eclipse Plus C18 2.1 mm x 150 mm, 3.5 um, Agilent
Retention time: 17.769 min
Precursor m/z: 398.2326
Precursor type: [M+H]+
m/z	relative intensity
39.0231	89
41.0385	35
43.054	18
51.0227	13
53.0384	16
63.0226	15
65.0385	295
68.0128	13
76.0304	10
77.0383	139
78.0334	10
80.0491	133
89.038	55
91.0172	11
91.0535	20
92.0497	11
93.0329	42
94.0411	11
101.0379	15
102.0457	25
105.0333	33
108.0444	26
113.0378	49
114.046	25
115.0541	251
119.0121	22
121.029	34
125.0375	16
126.0459	47
127.0534	157
128.0612	171
129.0697	16
137.0378	12
138.0456	67
139.0541	999
140.0574	113
141.0686	80
149.0363	16
150.0458	60
151.0536	143
152.0612	224
153.0627	49
154.0645	118
155.0515	32
156.0577	11
156.0796	12
164.056	31
165.0682	57
166.0415	13
166.0641	68
167.0507	59
167.0696	66
168.0566	217
169.0639	14
176.0607	25
177.0572	31
178.0662	21
180.0533	12
180.0788	11
181.0638	17
182.0588	30
183.0447	23
183.0637	13
184.0511	84
191.0723	15
194.0368	44
194.059	29
195.0664	116
196.0518	69
197.0585	52
210.0305	36
220.0752	10
222.0533	16
223.0616	51
224.0694	14
