Mass spectrum: Ethyl 4-hydroxy-3-nitrobenzoate; LC-ESI-QTOF; MS2; 110 V
Name: Ethyl 4-hydroxy-3-nitrobenzoate
Formula: C9H9NO5
Exact mass: 211.0481
SMILES: CCOC(=O)C1=CC(=C(C=C1)O)[N+](=O)[O-]
InChI: InChI=1S/C9H9NO5/c1-2-15-9(12)6-3-4-8(11)7(5-6)10(13)14/h3-5,11H,2H2,1H3
Instrument: TripleTOF 5600 SCIEX
Instrument type: LC-ESI-QTOF
Ms type: MS2
Ion mode: NEGATIVE
Collision energy: 110
Fragmentation mode: CID
Ionization: ESI
Column name: Zorbax Eclipse Plus C18 2.1 mm x 150 mm, 3.5 um, Agilent
Retention time: 10.686 min
Precursor m/z: 210.0408
Precursor type: [M-H]-
m/z	relative intensity
41.0029	176
43.0175	117
45.9929	999
65.001	176
