Mass spectrum: Oxazepam; LC-ESI-QTOF; MS2; 40 V
Name: Oxazepam
Class: Pharmaceutical
Formula: C15H11ClN2O2
Exact mass: 286.0509
SMILES: C1=CC=C(C=C1)C2=NC(C(=O)NC3=C2C=C(C=C3)Cl)O
InChI: InChI=1S/C15H11ClN2O2/c16-10-6-7-12-11(8-10)13(9-4-2-1-3-5-9)18-15(20)14(19)17-12/h1-8,15,20H,(H,17,19)
Instrument: TripleTOF 6600 SCIEX
Instrument type: LC-ESI-QTOF
Ms type: MS2
Ion mode: POSITIVE
Collision energy: 40
Fragmentation mode: CID
Ionization: ESI
Column name: Zorbax Eclipse Plus C18 2.1 mm x 150 mm, 3.5 um, Agilent
Retention time: 9.314 min
Precursor m/z: 287.0582
Precursor type: [M+H]+
m/z	relative intensity
77.0386	35
93.0573	53
104.0497	251
110.9994	13
118.0524	18
128.0262	59
138.0104	24
153.0215	59
163.0061	122
164.0007	15
166.0053	17
195.0919	17
205.0759	18
207.0676	10
214.0424	15
229.0535	24
231.069	115
241.054	999
257.0482	21
269.0486	83
