Mass spectrum: Flutamide; LC-ESI-QTOF; MS2; 90 V
Name: Flutamide
Class: Pharmaceutical
Formula: C11H11F3N2O3
Exact mass: 276.0722
SMILES: CC(C)C(=O)NC1=CC(=C(C=C1)[N+](=O)[O-])C(F)(F)F
InChI: InChI=1S/C11H11F3N2O3/c1-6(2)10(17)15-7-3-4-9(16(18)19)8(5-7)11(12,13)14/h3-6H,1-2H3,(H,15,17)
Instrument: TripleTOF 6600 SCIEX
Instrument type: LC-ESI-QTOF
Ms type: MS2
Ion mode: POSITIVE
Collision energy: 90
Fragmentation mode: CID
Ionization: ESI
Column name: Zorbax Eclipse Plus C18 2.1 mm x 150 mm, 3.5 um, Agilent
Retention time: 12.297 min
Precursor m/z: 277.0795
Precursor type: [M+H]+
m/z	relative intensity
37.0066	61
38.0021	61
38.0136	97
39.0224	459
41.0387	999
43.0538	495
51.0041	26
52.0047	26
52.0167	26
53.0103	17
60.9849	17
64.0304	26
65.0379	114
68.994	17
74.0158	26
75.0012	35
75.0224	70
76.0201	26
77.0352	17
83.0293	44
84.0361	159
85.0315	17
88.01	106
91.04	44
91.0514	35
92.0476	35
93.0136	26
94.0189	26
95.0286	123
96.0235	17
99.0037	17
99.0084	26
100.0163	17
101.0179	35
101.0444	17
102.0405	26
111.0459	114
113.0183	70
114.0254	185
115.0312	35
115.0578	26
120.0229	17
123.0332	17
125.0207	61
126.0468	17
133.0225	8
140.0293	35
141.0237	35
142.0472	106
143.0046	17
145.0275	26
148.0282	17
160.0266	44
