Mass spectrum: Guaifenesin; LC-ESI-QTOF; MS2; 10 V
Name: Guaifenesin
Formula: C10H14O4
Exact mass: 198.0892
SMILES: COC1=CC=CC=C1OCC(CO)O
InChI: InChI=1S/C10H14O4/c1-13-9-4-2-3-5-10(9)14-7-8(12)6-11/h2-5,8,11-12H,6-7H2,1H3
Instrument: TripleTOF X500R SCIEX
Instrument type: LC-ESI-QTOF
Ms type: MS2
Ion mode: POSITIVE
Collision energy: 10
Fragmentation mode: CID
Ionization: ESI
Column name: Zorbax Eclipse Plus C18 2.1 mm x 150 mm, 3.5 um, Agilent
Retention time: 6.298 min
Precursor m/z: 199.0965
Precursor type: [M+H]+
m/z	relative intensity
57.0341	33
75.0438	36
93.034	12
100.0767	57
107.0485	9
110.036	27
116.9763	21
121.0267	18
121.0661	33
122.0353	15
123.0441	45
125.06	999
135.0814	27
137.0596	54
151.0756	660
158.0041	247
163.0754	905
199.0966	887
