Mass spectrum: Atenolol acid; LC-ESI-QTOF; MS2; 120 V
Name: Atenolol acid
Class: Pharmaceutical
Formula: C14H21NO4
Exact mass: 267.1471
SMILES: CC(C)NCC(COC1=CC=C(C=C1)CC(=O)O)O
InChI: InChI=1S/C14H21NO4/c1-10(2)15-8-12(16)9-19-13-5-3-11(4-6-13)7-14(17)18/h3-6,10,12,15-16H,7-9H2,1-2H3,(H,17,18)
Instrument: TripleTOF 5600 SCIEX
Instrument type: LC-ESI-QTOF
Ms type: MS2
Ion mode: POSITIVE
Collision energy: 120
Fragmentation mode: CID
Ionization: ESI
Column name: Zorbax Eclipse Plus C18 2.1 mm x 150 mm, 3.5 um, Agilent
Retention time: 4.893 min
Precursor m/z: 268.1543
Precursor type: [M+H]+
m/z	relative intensity
37.0077	33
39.0231	202
41.0389	134
43.0554	40
44.0505	47
50.0149	161
51.0236	634
53.0379	33
56.0495	87
58.0653	40
61.0071	47
62.0151	134
63.0231	398
65.0389	195
74.0154	47
77.0388	999
79.0545	33
89.0394	209
91.0545	114
107.0505	33
115.0551	134
