Mass spectrum: Tenoxicam; LC-ESI-QTOF; MS2; 30 V
Name: Tenoxicam
Class: Pharmaceutical
Formula: C13H11N3O4S2
Exact mass: 337.0191
SMILES: CN1C(=C(C2=C(S1(=O)=O)C=CS2)O)C(=O)NC3=CC=CC=N3
InChI: InChI=1S/C13H11N3O4S2/c1-16-10(13(18)15-9-4-2-3-6-14-9)11(17)12-8(5-7-21-12)22(16,19)20/h2-7,17H,1H3,(H,14,15,18)
Instrument: TripleTOF 5600 SCIEX
Instrument type: LC-ESI-QTOF
Ms type: MS2
Ion mode: NEGATIVE
Collision energy: 30
Fragmentation mode: CID
Ionization: ESI
Column name: Zorbax Eclipse Plus C18 2.1 mm x 150 mm, 3.5 um, Agilent
Retention time: 7.356 min
Precursor m/z: 336.0118
Precursor type: [M-H]-
m/z	relative intensity
93.0444	63
136.9943	418
152.0181	999
272.0489	157
