Mass spectrum: Bixafen; LC-ESI-QTOF; MS2; 120 V
Name: Bixafen
Class: Fungicide
Formula: C18H12Cl2F3N3O
Exact mass: 413.031
SMILES: CN1C=C(C(=N1)C(F)F)C(=O)NC2=C(C=C(C=C2)F)C3=CC(=C(C=C3)Cl)Cl
InChI: InChI=1S/C18H12Cl2F3N3O/c1-26-8-12(16(25-26)17(22)23)18(27)24-15-5-3-10(21)7-11(15)9-2-4-13(19)14(20)6-9/h2-8,17H,1H3,(H,24,27)
Instrument: TripleTOF 6600 SCIEX
Instrument type: LC-ESI-QTOF
Ms type: MS2
Ion mode: POSITIVE
Collision energy: 120
Fragmentation mode: CID
Ionization: ESI
Column name: Zorbax Eclipse Plus C18 2.1 mm x 150 mm, 3.5 um, Agilent
Retention time: 13.359 min
Precursor m/z: 414.0382
Precursor type: [M+H]+
m/z	relative intensity
42.0335	58
43.0288	22
51.0039	11
57.0135	22
68.0098	17
74.0149	51
75.0227	64
81.0098	13
82.0278	15
84.0257	11
88.017	11
94.0207	15
95.0277	20
98.0144	91
99.0216	160
100.0199	24
105.0127	11
107.0273	26
108.9836	13
109.0382	26
111.0205	13
116.0043	11
117.0128	13
118.0198	22
119.9981	11
120.0349	20
122.0145	102
123.0219	319
124.0166	67
125.0342	15
131.0279	26
132.0384	11
133.0452	11
137.0375	11
138.0312	15
140.0057	11
141.0118	46
142.0202	37
143.0279	84
144.0356	35
145.0321	24
146.0144	44
146.0398	13
147.0221	183
148.0169	129
149.0374	469
150.0452	67
151.042	13
151.0576	15
155.0269	37
156.0226	15
156.0347	15
157.0437	35
158.0405	35
159.0322	20
161.0366	46
162.0372	15
163.0505	17
164.051	15
166.0201	58
167.0281	480
168.0362	999
169.0429	905
170.042	87
171.01	17
172.0195	20
173.038	42
174.0322	333
175.0427	102
176.0462	96
177.0439	17
177.9966	22
178.018	11
179.0277	98
180.0353	147
181.0438	230
182.0417	116
183.0346	15
184.0019	17
185.0341	29
186.0323	75
187.0474	98
188.0475	151
189.0502	33
192.0323	109
193.0324	404
194.0398	509
195.0459	520
196.0544	136
197.0504	67
198.0106	11
198.036	35
199.0443	82
200.0508	143
201.0553	75
201.9973	80
202.0388	26
202.0621	15
203.0025	33
203.0285	15
204.0141	236
204.0354	60
205.0426	605
206.0405	558
207.0457	185
208.0534	143
209.0022	17
209.0439	13
209.0586	17
210.0195	11
212.0473	145
213.0465	122
214.0559	46
215.0045	49
215.0551	24
215.9993	11
216.0275	17
217.0317	46
217.0474	29
218.0464	165
219.0479	223
220.0571	216
221.0149	17
221.0609	107
222.012	17
222.0449	107
223.0196	20
224.0464	24
225.0544	55
226.062	75
227.0636	53
228.0114	15
228.0591	24
228.0751	13
229.0087	245
230.04	163
231.0433	181
232.0558	480
233.0485	272
234.0559	62
235.0643	17
241.0175	55
241.0505	11
242.0156	37
243.0459	20
244.0525	100
245.0619	172
246.0704	156
247.0666	55
248.0507	11
250.9838	11
254.0199	13
254.0667	13
255.0187	20
256.0566	13
257.048	11
258.0603	17
259.0542	40
260.0568	15
261.0481	11
266.011	15
267.0151	35
268.0272	29
280.0301	22
