Mass spectrum: 2-Methylquinoline; LC-ESI-QTOF; MS2; 70 V
Name: 2-Methylquinoline
Formula: C10H9N
Exact mass: 143.0735
SMILES: CC1=NC2=CC=CC=C2C=C1
InChI: InChI=1S/C10H9N/c1-8-6-7-9-4-2-3-5-10(9)11-8/h2-7H,1H3
Instrument: TripleTOF X500R SCIEX
Instrument type: LC-ESI-QTOF
Ms type: MS2
Ion mode: POSITIVE
Collision energy: 70
Fragmentation mode: CID
Ionization: ESI
Column name: Zorbax Eclipse Plus C18 2.1 mm x 150 mm, 3.5 um, Agilent
Retention time: 4.69 min
Precursor m/z: 144.0808
Precursor type: [M+H]+
m/z	relative intensity
39.0235	44
49.0075	15
50.0153	259
51.0232	999
62.0163	17
63.0227	42
65.0393	22
74.0159	128
75.0234	159
76.0307	82
77.0388	250
78.0477	15
89.0387	75
101.039	46
102.0467	77
115.0559	102
128.0504	42
141.0574	11
