Mass spectrum: 4-Aminoazobenzene; LC-ESI-QTOF; MS2; 30 V
Name: 4-Aminoazobenzene
Formula: C12H11N3
Exact mass: 197.0953
SMILES: C1=CC=C(C=C1)N=NC2=CC=C(C=C2)N
InChI: InChI=1S/C12H11N3/c13-10-6-8-12(9-7-10)15-14-11-4-2-1-3-5-11/h1-9H,13H2
Instrument: TripleTOF 6600 SCIEX
Instrument type: LC-ESI-QTOF
Ms type: MS2
Ion mode: POSITIVE
Collision energy: 30
Fragmentation mode: CID
Ionization: ESI
Column name: Zorbax Eclipse Plus C18 2.1 mm x 150 mm, 3.5 um, Agilent
Retention time: 12.247 min
Precursor m/z: 198.1026
Precursor type: [M+H]+
m/z	relative intensity
51.0228	20
76.0301	15
77.0387	999
92.0483	18
93.0573	349
95.0486	51
105.0443	155
106.0516	13
152.0601	13
198.1011	65
