Mass spectrum: Bixafen; LC-ESI-QTOF; MS2; 80 V
Name: Bixafen
Class: Fungicide
Formula: C18H12Cl2F3N3O
Exact mass: 413.031
SMILES: CN1C=C(C(=N1)C(F)F)C(=O)NC2=C(C=C(C=C2)F)C3=CC(=C(C=C3)Cl)Cl
InChI: InChI=1S/C18H12Cl2F3N3O/c1-26-8-12(16(25-26)17(22)23)18(27)24-15-5-3-10(21)7-11(15)9-2-4-13(19)14(20)6-9/h2-8,17H,1H3,(H,24,27)
Instrument: TripleTOF 6600 SCIEX
Instrument type: LC-ESI-QTOF
Ms type: MS2
Ion mode: POSITIVE
Collision energy: 80
Fragmentation mode: CID
Ionization: ESI
Column name: Zorbax Eclipse Plus C18 2.1 mm x 150 mm, 3.5 um, Agilent
Retention time: 13.359 min
Precursor m/z: 414.0382
Precursor type: [M+H]+
m/z	relative intensity
42.0339	55
57.0138	10
82.0266	12
109.0382	77
111.0339	13
123.0213	11
131.0416	10
134.0354	11
139.0283	26
149.0393	41
159.0354	62
167.0295	24
168.0352	79
169.044	284
170.0437	15
174.0325	21
176.05	31
181.0432	22
182.0441	12
184.007	20
188.047	16
193.0333	40
194.0396	182
195.0461	223
196.0544	333
197.053	30
200.0519	30
201.0548	21
201.0677	13
201.9984	29
202.0622	16
203.0071	45
204.0122	741
205.0434	36
206.0439	81
207.048	96
208.0544	175
209.0029	14
210.0131	10
211.0179	24
213.0505	15
214.0562	26
215.0056	23
215.0589	30
216.0096	11
217.021	25
218.0478	19
218.9732	11
219.0475	42
220.0549	110
221.0615	113
222.0565	72
224.0509	15
226.0623	19
227.0669	31
228.0035	14
228.0701	22
229.0082	999
229.0801	17
230.0154	77
231.0237	609
232.0538	199
233.0559	253
234.0576	143
235.0151	12
235.0672	50
241.0182	147
241.0641	12
242.0153	144
243.0214	27
244.0405	15
245.0581	67
245.9876	13
246.0693	272
247.0716	190
248.025	16
248.0772	39
249.02	24
249.0805	20
249.9785	13
250.0288	26
250.0611	10
250.9838	19
253.0044	12
254.0201	13
255.0238	63
256.0303	97
258.058	19
259.0559	35
260.062	55
261.0662	73
262.0491	38
263.0399	23
263.978	21
264.0468	11
264.9914	10
265.9951	162
267.0263	38
268.0302	171
269.0291	59
270.0324	51
272.0569	12
274.0778	85
274.9803	13
275.071	57
275.9764	16
276.0928	10
276.9913	11
279.0081	11
280.0291	47
281.026	58
282.0483	86
283.0396	32
284.0292	29
289.9962	21
290.0415	14
290.9823	14
293.0326	24
294.0298	15
295.0303	58
295.0438	23
296.0443	34
297.0214	22
301.9924	76
302.0713	31
302.9943	34
303.0823	49
303.9948	19
304.0901	15
308.0291	42
309.0226	25
309.0435	11
310.0571	71
311.0426	21
314.9854	10
316.0058	15
317.0034	31
338.046	47
