Mass spectrum: Quinoxyfen; LC-ESI-QTOF; MS2; 110 V
Name: Quinoxyfen
Class: Fungicide
Formula: C15H8Cl2FNO
Exact mass: 306.9967
SMILES: C1=CC(=CC=C1OC2=C3C(=CC(=CC3=NC=C2)Cl)Cl)F
InChI: InChI=1S/C15H8Cl2FNO/c16-9-7-12(17)15-13(8-9)19-6-5-14(15)20-11-3-1-10(18)2-4-11/h1-8H
Instrument: TripleTOF 6600 SCIEX
Instrument type: LC-ESI-QTOF
Ms type: MS2
Ion mode: POSITIVE
Collision energy: 110
Fragmentation mode: CID
Ionization: ESI
Column name: Zorbax Eclipse Plus C18 2.1 mm x 150 mm, 3.5 um, Agilent
Retention time: 15.195 min
Precursor m/z: 308.004
Precursor type: [M+H]+
m/z	relative intensity
39.0222	12
50.0139	34
51.0223	31
61.0064	41
62.0138	87
63.0221	84
68.0053	11
69.012	48
72.9834	111
73.0054	102
74.0142	999
75.0218	456
76.0169	66
84.9836	21
85.0061	11
86.0141	32
87.0211	57
88.0286	108
89.0374	110
95.0276	12
96.983	54
97.0044	18
98.0142	321
99.0213	399
100.0173	159
107.0272	12
108.9825	66
110.9979	17
111.9938	39
114.0329	89
115.0403	133
116.048	20
122.9988	252
124.0141	30
126.0327	39
127.0405	120
133.0428	11
134.9988	47
150.0096	21
151.0173	20
155.0289	12
157.0448	14
161.0374	41
162.0097	47
162.0452	20
163.0029	11
163.0524	28
164.0483	10
179.0286	15
180.0359	33
181.0434	122
182.04	28
188.0482	38
206.04	21
207.0447	11
208.0547	30
