Mass spectrum: Benzyldiphenylphosphine oxide; LC-ESI-QTOF; MS2; 150 V
Name: Benzyldiphenylphosphine oxide
Class: Industrial_process
Formula: C19H17OP
Exact mass: 292.1017
SMILES: O=P(c1ccccc1)(c2ccccc2)Cc3ccccc3
InChI: InChI=1S/C19H17OP/c20-21(18-12-6-2-7-13-18,19-14-8-3-9-15-19)16-17-10-4-1-5-11-17/h1-15H,16H2
Instrument: TripleTOF 5600 SCIEX
Instrument type: LC-ESI-QTOF
Ms type: MS2
Ion mode: POSITIVE
Collision energy: 150
Fragmentation mode: CID
Ionization: ESI
Column name: Zorbax Eclipse Plus C18 2.1 mm x 150 mm, 3.5 um, Agilent
Retention time: 10.822 min
Precursor m/z: 293.109
Precursor type: [M+H]+
m/z	relative intensity
36.0103	32
37.0201	171
51.031	218
65.0434	999
74.0188	42
75.0281	14
77.0406	32
78.0517	17
80.9899	10
89.0418	32
91.0555	337
107.0044	23
126.0467	19
150.0487	27
151.054	34
152.0613	10
181.0248	10
