Mass spectrum: N-desmethylterbinafine; LC-ESI-QTOF; MS2; 150 V
Name: N-desmethylterbinafine
Class: Pharmaceutical; Metabolite
Formula: C20H23N
Exact mass: 277.183
SMILES: CC(C)(C)C#C/C=C/CNCc1cccc2ccccc12
InChI: InChI=1S/C20H23N/c1-20(2,3)14-7-4-8-15-21-16-18-12-9-11-17-10-5-6-13-19(17)18/h4-6,8-13,21H,15-16H2,1-3H3/b8-4+
Instrument: TripleTOF 5600 SCIEX
Instrument type: LC-ESI-QTOF
Ms type: MS2
Ion mode: POSITIVE
Collision energy: 150
Fragmentation mode: CID
Ionization: ESI
Column name: Zorbax Eclipse Plus C18 2.1 mm x 150 mm, 3.5 um, Agilent
Retention time: 9.089 min
Precursor m/z: 278.1903
Precursor type: [M+H]+
m/z	relative intensity
52.0356	28
60.0048	66
65.0437	731
73.0129	52
74.0187	411
75.0252	210
76.0343	86
77.0408	243
78.0485	28
85.0107	86
86.0162	248
87.0241	238
88.0319	81
89.0405	999
89.087	23
91.056	152
98.0148	57
102.0471	47
113.0378	138
114.0459	52
115.0539	592
138.0467	19
139.0546	167
