Mass spectrum: Medroxyprogesterone-17-acetate; LC-ESI-QTOF; MS2; 140 V
Name: Medroxyprogesterone-17-acetate
Class: Pharmaceutical
Formula: C24H34O4
Exact mass: 386.2457
SMILES: CC1CC2C(CCC3(C2CCC3(C(=O)C)OC(=O)C)C)C4(C1=CC(=O)CC4)C
InChI: InChI=1S/C24H34O4/c1-14-12-18-19(22(4)9-6-17(27)13-21(14)22)7-10-23(5)20(18)8-11-24(23,15(2)25)28-16(3)26/h13-14,18-20H,6-12H2,1-5H3
Instrument: TripleTOF 5600 SCIEX
Instrument type: LC-ESI-QTOF
Ms type: MS2
Ion mode: POSITIVE
Collision energy: 140
Fragmentation mode: CID
Ionization: ESI
Column name: Zorbax Eclipse Plus C18 2.1 mm x 150 mm, 3.5 um, Agilent
Retention time: 13.723 min
Precursor m/z: 387.253
Precursor type: [M+H]+
m/z	relative intensity
37.0074	25
38.0153	25
39.0229	160
41.0388	125
43.0178	341
50.0151	17
51.0229	172
53.0388	60
55.0185	25
55.0537	99
63.0235	34
65.0387	263
66.0457	25
67.0549	125
69.0322	21
69.0692	25
75.0245	17
77.0385	999
78.0467	69
79.0544	371
81.0337	21
81.0705	34
82.0415	17
83.0492	47
89.0397	73
91.0543	722
93.0713	47
94.0423	34
95.049	21
95.0863	21
97.0648	155
101.0383	17
102.0466	86
103.0549	112
104.062	38
105.0701	99
107.0496	73
108.0558	21
109.0621	17
115.0547	748
116.0619	69
117.0702	73
123.0769	34
126.0466	34
127.0539	121
128.0619	605
129.0701	125
130.0815	17
139.059	17
141.0698	207
151.0557	47
152.0626	220
153.0702	112
163.0561	34
164.0587	34
165.0699	237
176.0638	34
178.0766	82
179.086	30
189.0732	34
191.0864	21
