Mass spectrum: Tiapride; LC-ESI-QTOF; MS2; 60 V
Name: Tiapride
Class: Pharmaceutical
Formula: C15H24N2O4S
Exact mass: 328.1457
SMILES: CCN(CC)CCNC(=O)C1=C(C=CC(=C1)S(=O)(=O)C)OC
InChI: InChI=1S/C15H24N2O4S/c1-5-17(6-2)10-9-16-15(18)13-11-12(22(4,19)20)7-8-14(13)21-3/h7-8,11H,5-6,9-10H2,1-4H3,(H,16,18)
Instrument: TripleTOF 5600 SCIEX
Instrument type: LC-ESI-QTOF
Ms type: MS2
Ion mode: POSITIVE
Collision energy: 60
Fragmentation mode: CID
Ionization: ESI
Column name: Zorbax Eclipse Plus C18 2.1 mm x 150 mm, 3.5 um, Agilent
Retention time: 4.856 min
Precursor m/z: 329.153
Precursor type: [M+H]+
m/z	relative intensity
45.0444	13
65.0446	33
72.0868	17
74.1005	12
76.0353	66
77.0433	61
78.051	163
78.9898	20
79.0222	12
79.0588	34
91.0569	20
94.0443	21
100.1139	30
103.0431	11
104.0505	98
105.0581	126
106.0422	57
106.0663	20
107.0128	18
107.05	47
109.0119	31
119.0135	23
122.0368	25
132.0444	39
133.0526	529
134.0369	788
135.0088	12
148.0761	18
154.9786	18
155.0166	42
162.0554	239
170.0034	19
177.0786	623
178.0499	177
181.9918	21
183.0217	63
185.0272	66
197.9986	18
212.037	197
213.0217	999
226.0162	43
241.0414	39
256.0644	52
