Mass spectrum: Sildenafil; LC-ESI-QTOF; MS2; 130 V
Name: Sildenafil
Class: Pharmaceutical
Formula: C22H30N6O4S
Exact mass: 474.2049
SMILES: CCCC1=NN(C2=C1NC(=NC2=O)C3=C(C=CC(=C3)S(=O)(=O)N4CCN(CC4)C)OCC)C
InChI: InChI=1S/C22H30N6O4S/c1-5-7-17-19-20(27(4)25-17)22(29)24-21(23-19)16-14-15(8-9-18(16)32-6-2)33(30,31)28-12-10-26(3)11-13-28/h8-9,14H,5-7,10-13H2,1-4H3,(H,23,24,29)
Instrument: TripleTOF 5600 SCIEX
Instrument type: LC-ESI-QTOF
Ms type: MS2
Ion mode: NEGATIVE
Collision energy: 130
Fragmentation mode: CID
Ionization: ESI
Column name: Zorbax Eclipse Plus C18 2.1 mm x 150 mm, 3.5 um, Agilent
Retention time: 7.283 min
Precursor m/z: 473.1976
Precursor type: [M-H]-
m/z	relative intensity
41.9989	142
65.9976	171
74.0024	57
76.0194	57
88.0186	85
89.0262	142
90.0341	742
105.0329	57
114.0264	85
115.0315	342
117.0235	313
118.0306	941
126.0354	57
131.0254	114
139.0312	114
143.0256	285
153.0478	114
154.0411	57
155.0491	57
171.0321	342
181.0414	171
182.0346	114
195.0319	142
209.0478	999
210.0573	85
215.097	57
222.0545	114
224.0707	57
237.0439	171
238.0555	85
238.0914	57
