Mass spectrum: N-acetyl-sitagliptin; LC-ESI-QTOF; MS2; 150 V
Name: N-acetyl-sitagliptin
Class: Metabolite; Pharmaceutical
Formula: C18H17F6N5O2
Exact mass: 449.1286
SMILES: CC(=O)NC(CC1=CC(=C(C=C1F)F)F)CC(=O)N2CCN3C(=NN=C3C(F)(F)F)C2
InChI: InChI=1S/C18H17F6N5O2/c1-9(30)25-11(4-10-5-13(20)14(21)7-12(10)19)6-16(31)28-2-3-29-15(8-28)26-27-17(29)18(22,23)24/h5,7,11H,2-4,6,8H2,1H3,(H,25,30)
Instrument: TripleTOF 5600 SCIEX
Instrument type: LC-ESI-QTOF
Ms type: MS2
Ion mode: POSITIVE
Collision energy: 150
Fragmentation mode: CID
Ionization: ESI
Column name: Zorbax Eclipse Plus C18 2.1 mm x 150 mm, 3.5 um, Agilent
Retention time: 8.852 min
Precursor m/z: 450.1359
Precursor type: [M+H]+
m/z	relative intensity
43.0257	50
51.0119	40
56.0539	15
57.0184	58
60.0489	10
68.9988	37
74.0179	47
75.007	163
75.0251	58
77.0217	60
77.0409	68
81.0166	131
83.0305	17
86.0173	65
87.025	229
91.0128	42
95.0138	27
95.0298	118
98.0157	22
99.0049	30
101.0209	678
105.0147	35
107.0293	444
117.0138	52
118.0216	32
119.0113	128
120.0377	37
125.0203	557
126.0278	63
127.036	999
131.0301	98
134.0387	32
137.0191	88
138.0281	20
145.0259	436
149.0207	25
150.0283	25
151.0359	302
153.0379	73
157.0294	10
165.026	17
169.0264	68
