Mass spectrum: Terbutrynesulfoxide; LC-ESI-QTOF; MS2; 60 V
Name: Terbutrynesulfoxide
Class: Transformation_product; Herbicide; Pesticide; Transformation_product-Metabolite
Formula: C10H19N5OS
Exact mass: 257.131
SMILES: CCNC1=NC(=NC(=N1)S(=O)C)NC(C)(C)C
InChI: InChI=1S/C10H19N5OS/c1-6-11-7-12-8(15-10(2,3)4)14-9(13-7)17(5)16/h6H2,1-5H3,(H2,11,12,13,14,15)
Instrument: TripleTOF 5600 SCIEX
Instrument type: LC-ESI-QTOF
Ms type: MS2
Ion mode: POSITIVE
Collision energy: 60
Fragmentation mode: CID
Ionization: ESI
Column name: Zorbax Eclipse Plus C18 2.1 mm x 150 mm, 3.5 um, Agilent
Retention time: 8.816 min
Precursor m/z: 258.1383
Precursor type: [M+H]+
m/z	relative intensity
43.0424	218
44.0591	30
47.0073	15
55.0392	54
56.0445	27
57.0534	21
58.0733	23
59.0576	23
68.032	999
69.0155	688
69.0364	76
69.0498	29
70.0468	80
71.0666	195
71.9961	98
82.0445	27
83.0656	15
84.0595	14
84.9907	542
85.057	31
86.0402	281
86.0618	25
89.0224	28
94.0439	18
95.0411	10
95.0516	18
96.0602	253
97.0454	177
98.0634	54
99.0048	39
110.0481	55
111.0353	37
111.0627	237
112.0657	259
113.02	50
114.0137	16
114.0692	133
121.0536	67
122.0616	33
124.064	98
127.01	73
138.0792	136
139.0651	25
139.0868	150
141.0249	21
155.0395	45
156.0884	24
187.0558	18
