Mass spectrum: Mesotrione; LC-ESI-QTOF; MS2; 40 V
Name: Mesotrione
Class: Herbicide
Formula: C14H13NO7S
Exact mass: 339.0413
SMILES: CS(=O)(=O)C1=CC(=C(C=C1)C(=O)C2C(=O)CCCC2=O)[N+](=O)[O-]
InChI: InChI=1S/C14H13NO7S/c1-23(21,22)8-5-6-9(10(7-8)15(19)20)14(18)13-11(16)3-2-4-12(13)17/h5-7,13H,2-4H2,1H3
Instrument: TripleTOF 6600 SCIEX
Instrument type: LC-ESI-QTOF
Ms type: MS2
Ion mode: POSITIVE
Collision energy: 40
Fragmentation mode: CID
Ionization: ESI
Column name: Zorbax Eclipse Plus C18 2.1 mm x 150 mm, 3.5 um, Agilent
Retention time: 9.26 min
Precursor m/z: 340.0486
Precursor type: [M+H]+
m/z	relative intensity
39.023	9
53.002	13
55.0173	23
62.9895	48
66.033	15
68.9968	12
76.0177	140
77.0255	132
78.0328	26
78.9843	49
79.0175	20
95.0123	12
104.0125	531
107.0117	20
119.0101	12
154.9784	40
166.0126	49
182.0016	13
197.9967	16
214.0617	23
227.996	999
275.0351	13
