Mass spectrum: Telmisartan; LC-ESI-QTOF; MS2; 60 V
Name: Telmisartan
Class: Pharmaceutical; Personal_care_product
Formula: C33H30N4O2
Exact mass: 514.2369
SMILES: CCCc1nc2c(C)cc(cc2n1Cc3ccc(cc3)c4ccccc4C(O)=O)c5nc6ccccc6n5C
InChI: InChI=1S/C33H30N4O2/c1-4-9-30-35-31-21(2)18-24(32-34-27-12-7-8-13-28(27)36(32)3)19-29(31)37(30)20-22-14-16-23(17-15-22)25-10-5-6-11-26(25)33(38)39/h5-8,10-19H,4,9,20H2,1-3H3,(H,38,39)
Instrument: TripleTOF 5600 SCIEX
Instrument type: LC-ESI-QTOF
Ms type: MS2
Ion mode: POSITIVE
Collision energy: 60
Fragmentation mode: CID
Ionization: ESI
Column name: Zorbax Eclipse Plus C18 2.1 mm x 150 mm, 3.5 um, Agilent
Retention time: 8.861 min
Precursor m/z: 515.2442
Precursor type: [M+H]+
m/z	relative intensity
165.0681	17
183.0849	20
193.0642	91
211.0738	97
260.1098	14
261.1141	45
275.1286	28
276.1373	999
287.1302	20
289.1459	198
303.1599	97
305.1734	51
317.1779	31
455.1883	40
467.189	80
485.1956	54
497.2333	384
515.2416	54
