Mass spectrum: Foramsulfuron; LC-ESI-QTOF; MS2; 60 V
Name: Foramsulfuron
Class: Herbicide
Formula: C17H20N6O7S
Exact mass: 452.1114
SMILES: CN(C)C(=O)C1=C(C=C(C=C1)NC=O)S(=O)(=O)NC(=O)NC2=NC(=CC(=N2)OC)OC
InChI: InChI=1S/C17H20N6O7S/c1-23(2)15(25)11-6-5-10(18-9-24)7-12(11)31(27,28)22-17(26)21-16-19-13(29-3)8-14(20-16)30-4/h5-9H,1-4H3,(H,18,24)(H2,19,20,21,22,26)
Instrument: TripleTOF 6600 SCIEX
Instrument type: LC-ESI-QTOF
Ms type: MS2
Ion mode: POSITIVE
Collision energy: 60
Fragmentation mode: CID
Ionization: ESI
Column name: Zorbax Eclipse Plus C18 2.1 mm x 150 mm, 3.5 um, Agilent
Retention time: 8.823 min
Precursor m/z: 453.1187
Precursor type: [M+H]+
m/z	relative intensity
65.0493	20
69.0072	19
71.0706	32
80.0596	13
81.0556	12
82.0388	24
83.0339	605
90.0436	10
92.0586	41
93.0178	35
100.0482	47
105.0535	46
106.0742	18
107.0687	27
109.0485	19
117.0532	13
120.0521	79
121.0367	63
124.0576	11
135.0626	26
135.0988	13
136.0463	37
139.0577	840
148.0458	76
156.0834	95
161.0401	46
162.0242	27
163.0333	9
163.0561	33
167.038	11
182.0611	999
212.0039	115
227.0135	55
252.9913	29
255.0429	67
