Mass spectrum: Sildenafil; LC-ESI-QTOF; MS2; 50 V
Name: Sildenafil
Class: Pharmaceutical
Formula: C22H30N6O4S
Exact mass: 474.2049
SMILES: CCCC1=NN(C2=C1NC(=NC2=O)C3=C(C=CC(=C3)S(=O)(=O)N4CCN(CC4)C)OCC)C
InChI: InChI=1S/C22H30N6O4S/c1-5-7-17-19-20(27(4)25-17)22(29)24-21(23-19)16-14-15(8-9-18(16)32-6-2)33(30,31)28-12-10-26(3)11-13-28/h8-9,14H,5-7,10-13H2,1-4H3,(H,23,24,29)
Instrument: TripleTOF 5600 SCIEX
Instrument type: LC-ESI-QTOF
Ms type: MS2
Ion mode: POSITIVE
Collision energy: 50
Fragmentation mode: CID
Ionization: ESI
Column name: Zorbax Eclipse Plus C18 2.1 mm x 150 mm, 3.5 um, Agilent
Retention time: 7.283 min
Precursor m/z: 475.2122
Precursor type: [M+H]+
m/z	relative intensity
44.0645	12
56.0575	43
58.0747	737
70.0715	84
84.0732	19
97.0788	18
98.086	13
99.0944	337
100.1018	383
101.1093	17
163.0528	10
166.0979	28
225.0793	15
226.0805	9
227.0951	13
240.1082	9
253.0642	23
254.0797	95
255.0873	15
255.124	92
256.096	32
267.1265	10
269.1407	24
278.1185	24
279.1301	13
281.1103	12
282.111	96
283.1198	999
284.1255	69
285.1345	41
293.14	18
296.1279	34
297.1397	35
299.1143	214
301.1306	15
311.1517	344
312.159	174
313.1681	46
377.1303	41
475.2146	180
