Mass spectrum: 10,11-Dihydrocarbamazepine; LC-ESI-QTOF; MS2; 90 V
Name: 10,11-Dihydrocarbamazepine
Class: Pharmaceutical; Metabolite
Formula: C15H14N2O
Exact mass: 238.1106
SMILES: NC(=O)N1c2ccccc2CCc3ccccc13
InChI: InChI=1S/C15H14N2O/c16-15(18)17-13-7-3-1-5-11(13)9-10-12-6-2-4-8-14(12)17/h1-8H,9-10H2,(H2,16,18)
Instrument: TripleTOF 5600 SCIEX
Instrument type: LC-ESI-QTOF
Ms type: MS2
Ion mode: POSITIVE
Collision energy: 90
Fragmentation mode: CID
Ionization: ESI
Column name: Zorbax Eclipse Plus C18 2.1 mm x 150 mm, 3.5 um, Agilent
Retention time: 9.235 min
Precursor m/z: 239.1179
Precursor type: [M+H]+
m/z	relative intensity
51.0287	96
65.0429	531
66.0511	19
74.0181	40
75.026	117
76.035	21
77.0408	349
78.0481	26
87.0259	12
88.0314	14
89.04	276
90.0476	67
91.0559	580
92.0504	12
93.0593	31
98.0156	9
99.0236	26
101.0393	125
102.0472	69
103.0534	19
113.0385	57
114.0455	24
115.0547	154
116.0477	21
117.0574	84
118.0649	74
125.0385	43
126.045	154
127.0544	199
128.0501	194
129.057	16
130.0642	24
137.0393	16
138.0458	21
139.0545	247
140.0488	202
141.0612	28
149.0396	38
150.0461	272
151.054	645
152.0617	999
152.1078	16
153.0576	187
154.0641	45
162.0459	12
163.0547	129
164.0606	91
165.069	187
166.0648	187
167.0718	108
174.0469	14
175.0532	26
176.0605	139
177.0569	207
178.0653	681
179.0724	512
180.0806	387
189.0572	26
190.0641	163
191.0727	387
192.0799	117
193.0885	33
201.0544	9
