Mass spectrum: Cybutryne-N-descyclopropyl; LC-ESI-QTOF; MS2; 130 V
Name: Cybutryne-N-descyclopropyl
Class: Fungicide; Metabolite; Transformation_product; Herbicide
Formula: C8H15N5S
Exact mass: 213.1048
InChI: InChI=1S/C8H15N5S/c1-8(2,3)13-6-10-5(9)11-7(12-6)14-4/h1-4H3,(H3,9,10,11,12,13)
Instrument: TripleTOF 5600 SCIEX
Instrument type: LC-ESI-QTOF
Ms type: CID
Ion mode: POSITIVE
Collision energy: 130
Ionization: ESI
Column name: Zorbax Eclipse Plus C18 2.1 mm x 150 mm, 3.5 um, Agilent
Retention time: 7.502 min
Precursor m/z: 214.1121
Precursor type: [M+H]+
m/z	relative intensity
43.0375	397
51.0291	999
68.0285	180
74.0194	108
77.0435	72
