Mass spectrum: Perfluorobutanesulfonic acid; LC-ESI-QTOF; MS2; 40 V
Name: Perfluorobutanesulfonic acid
Formula: C4HF9O3S
Exact mass: 299.9503
SMILES: OS(=O)(C(F)(C(F)(C(F)(C(F)(F)F)F)F)F)=O
InChI: InChI=1S/C4HF9O3S/c5-1(6,3(9,10)11)2(7,8)4(12,13)17(14,15)16/h(H,14,15,16)
Instrument: TripleTOF 5600 SCIEX
Instrument type: LC-ESI-QTOF
Ms type: MS2
Ion mode: NEGATIVE
Collision energy: 40
Fragmentation mode: CID
Ionization: ESI
Column name: Zorbax Eclipse Plus C18 2.1 mm x 150 mm, 3.5 um, Agilent
Retention time: 9.254 min
Precursor m/z: 298.943
Precursor type: [M-H]-
m/z	relative intensity
79.9585	999
82.9622	72
98.9567	716
298.9424	574
298.9661	62
299.9466	85
