Mass spectrum: Propranolol; LC-ESI-QTOF; MS2; 50 V
Name: Propranolol
Class: Pharmaceutical
Formula: C16H21NO2
Exact mass: 259.1572
SMILES: CC(C)NCC(O)COc1cccc2ccccc12
InChI: InChI=1S/C16H21NO2/c1-12(2)17-10-14(18)11-19-16-9-5-7-13-6-3-4-8-15(13)16/h3-9,12,14,17-18H,10-11H2,1-2H3
Instrument: TripleTOF 5600 SCIEX
Instrument type: LC-ESI-QTOF
Ms type: MS2
Ion mode: POSITIVE
Collision energy: 50
Fragmentation mode: CID
Ionization: ESI
Column name: Zorbax Eclipse Plus C18 2.1 mm x 150 mm, 3.5 um, Agilent
Retention time: 7.356 min
Precursor m/z: 260.1645
Precursor type: [M+H]+
m/z	relative intensity
44.0571	15
56.0561	383
58.071	231
72.0844	147
74.0633	195
77.0413	46
84.082	33
91.056	19
98.0979	32
100.1129	88
115.0547	287
116.063	14
116.1071	54
117.0708	53
126.0465	17
127.055	618
128.062	999
129.0705	459
139.0562	10
141.0691	65
144.0565	18
145.0645	52
152.062	46
153.0703	359
154.0782	138
155.0858	316
157.0651	116
164.0618	13
165.0703	260
168.0573	78
181.0639	16
182.0706	15
183.0808	14
