Mass spectrum: 2-isopropyl-5,6-dimethyl-1H-benzimidazole; LC-ESI-QTOF; MS2; 110 V
Name: 2-isopropyl-5,6-dimethyl-1H-benzimidazole
Formula: C12H16N2
Exact mass: 188.1313
SMILES: CC1=CC2=C(C=C1C)N=C(N2)C(C)C
InChI: InChI=1S/C12H16N2/c1-7(2)12-13-10-5-8(3)9(4)6-11(10)14-12/h5-7H,1-4H3,(H,13,14)
Instrument: TripleTOF 6600 SCIEX
Instrument type: LC-ESI-QTOF
Ms type: MS2
Ion mode: POSITIVE
Collision energy: 110
Fragmentation mode: CID
Ionization: ESI
Column name: Zorbax Eclipse Plus C18 2.1 mm x 150 mm, 3.5 um, Agilent
Retention time: 6.482 min
Precursor m/z: 189.1386
Precursor type: [M+H]+
m/z	relative intensity
37.0069	57
38.0141	45
39.0225	214
41.038	27
49.0067	42
50.0147	374
51.0226	999
52.018	24
52.0297	43
53.0381	21
54.033	12
61.006	28
62.0142	66
63.0218	131
64.0175	10
65.0376	168
74.0142	64
75.0219	52
76.0173	36
76.029	18
77.0375	681
78.0336	59
78.0444	64
80.0488	21
89.0372	118
90.0448	12
91.0527	136
102.033	12
103.0515	10
104.0482	130
105.0435	14
114.0316	12
115.0403	14
116.0479	13
117.0551	21
118.0617	10
130.0645	13
131.0587	69
142.048	11
155.0563	15
157.0749	19
