Mass spectrum: Daidzein; LC-ESI-QTOF; MS2; 50 V
Name: Daidzein
Class: Pharmaceutical; Natural_product
Formula: C15H10O4
Exact mass: 254.0579
SMILES: Oc1ccc(cc1)C2=COc3cc(O)ccc3C2=O
InChI: InChI=1S/C15H10O4/c16-10-3-1-9(2-4-10)13-8-19-14-7-11(17)5-6-12(14)15(13)18/h1-8,16-17H
Instrument: TripleTOF 5600 SCIEX
Instrument type: LC-ESI-QTOF
Ms type: MS2
Ion mode: POSITIVE
Collision energy: 50
Fragmentation mode: CID
Ionization: ESI
Column name: Zorbax Eclipse Plus C18 2.1 mm x 150 mm, 3.5 um, Agilent
Retention time: 7.744 min
Precursor m/z: 255.0652
Precursor type: [M+H]+
m/z	relative intensity
39.0235	12
53.0384	23
55.018	41
63.0237	11
65.0388	361
68.9974	56
77.0386	78
78.0467	37
81.0339	214
89.0387	53
91.0546	961
92.027	11
93.0331	33
103.0541	21
105.0344	69
106.0417	67
107.0503	12
109.029	41
115.0546	106
116.0625	10
118.0422	31
119.0496	107
121.0284	62
127.0542	97
128.063	474
129.0712	107
131.0493	108
131.0855	11
133.0307	15
134.037	50
137.024	581
141.0708	89
143.0864	36
144.057	20
145.0295	45
147.0445	36
149.0222	25
151.0546	170
152.0628	999
153.07	527
155.0502	32
156.0594	19
157.0654	86
163.0542	15
165.0714	31
168.0582	24
169.0653	75
170.0731	41
171.0813	78
175.0417	14
180.0557	15
181.0657	789
182.0727	71
184.0523	142
185.0591	10
197.0607	213
198.067	89
199.0759	273
209.0604	55
210.0676	28
211.0739	10
212.0467	19
225.0568	23
226.0607	34
227.0708	85
237.0547	71
255.0683	51
