Mass spectrum: Donepezil; LC-ESI-QTOF; MS2; 110 V
Name: Donepezil
Class: Pharmaceutical
Formula: C24H29NO3
Exact mass: 379.2147
SMILES: COc1cc2CC(CC3CCN(CC3)Cc4ccccc4)C(=O)c2cc1OC
InChI: InChI=1S/C24H29NO3/c1-27-22-14-19-13-20(24(26)21(19)15-23(22)28-2)12-17-8-10-25(11-9-17)16-18-6-4-3-5-7-18/h3-7,14-15,17,20H,8-13,16H2,1-2H3
Instrument: TripleTOF 5600 SCIEX
Instrument type: LC-ESI-QTOF
Ms type: MS2
Ion mode: POSITIVE
Collision energy: 110
Fragmentation mode: CID
Ionization: ESI
Column name: Zorbax Eclipse Plus C18 2.1 mm x 150 mm, 3.5 um, Agilent
Retention time: 7.429 min
Precursor m/z: 380.222
Precursor type: [M+H]+
m/z	relative intensity
65.0443	526
77.0407	20
91.0571	999
103.0552	11
115.0547	29
127.0543	11
128.0614	19
152.0625	15
165.0698	18
