Mass spectrum: Cyproterone; LC-ESI-QTOF; MS2; 150 V
Name: Cyproterone
Class: Pharmaceutical
Formula: C22H27ClO3
Exact mass: 374.1649
SMILES: CC(=O)C1(CCC2C1(CCC3C2C=C(C4=CC(=O)C5CC5C34C)Cl)C)O
InChI: InChI=1S/C22H27ClO3/c1-11(24)22(26)7-5-14-12-9-18(23)17-10-19(25)13-8-16(13)21(17,3)15(12)4-6-20(14,22)2/h9-10,12-16,26H,4-8H2,1-3H3
Instrument: TripleTOF 5600 SCIEX
Instrument type: LC-ESI-QTOF
Ms type: MS2
Ion mode: POSITIVE
Collision energy: 150
Fragmentation mode: CID
Ionization: ESI
Column name: Zorbax Eclipse Plus C18 2.1 mm x 150 mm, 3.5 um, Agilent
Retention time: 11.881 min
Precursor m/z: 375.1721
Precursor type: [M+H]+
m/z	relative intensity
39.0234	80
43.0183	356
51.0231	214
63.0232	89
65.0392	231
75.0238	53
76.031	89
77.0387	588
78.0462	62
79.0545	53
89.0388	231
91.0545	276
102.0462	222
103.0543	62
114.0447	62
115.0541	999
126.0454	133
127.0541	258
128.0618	445
139.0545	222
141.071	98
150.0451	160
151.0541	347
152.0627	615
153.0744	71
163.0548	303
164.0612	222
165.0701	490
175.0546	53
176.0611	258
177.0714	115
178.0771	178
187.0562	133
188.0644	71
189.0682	526
190.0756	35
200.0619	187
201.0721	160
202.0754	276
213.0707	124
215.0821	35
226.0798	107
