Mass spectrum: Valsartanic acid; LC-ESI-QTOF; MS2; 40 V
Name: Valsartanic acid
Class: Pharmaceutical; Transformation_product
Formula: C14H10N4O2
Exact mass: 266.0804
SMILES: O=C(O)C(C=C1)=CC=C1C2=CC=CC=C2C3=NN=NN3
InChI: InChI=1S/C14H10N4O2/c19-14(20)10-7-5-9(6-8-10)11-3-1-2-4-12(11)13-15-17-18-16-13/h1-8H,(H,19,20)(H,15,16,17,18)
Instrument: TripleTOF 5600 SCIEX
Instrument type: LC-ESI-QTOF
Ms type: MS2
Ion mode: POSITIVE
Collision energy: 40
Fragmentation mode: CID
Ionization: ESI
Column name: Zorbax Eclipse Plus C18 2.1 mm x 150 mm, 3.5 um, Agilent
Retention time: 8.027 min
Precursor m/z: 267.0877
Precursor type: [M+H]+
m/z	relative intensity
77.0414	48
127.0542	11
139.0538	42
140.0477	22
150.0462	63
151.0547	879
152.0479	15
152.0603	38
165.0665	20
166.0649	89
176.0491	40
177.0579	342
178.0651	994
179.0594	28
180.0808	118
192.0677	80
193.0767	46
206.0605	999
221.0702	23
249.0775	15
