Mass spectrum: Mandipropamid; LC-ESI-QTOF; MS2; 80 V
Name: Mandipropamid
Class: Fungicide
Formula: C23H22ClNO4
Exact mass: 411.1237
SMILES: COC1=C(C=CC(=C1)CCNC(=O)C(C2=CC=C(C=C2)Cl)OCC#C)OCC#C
InChI: InChI=1S/C23H22ClNO4/c1-4-14-28-20-11-6-17(16-21(20)27-3)12-13-25-23(26)22(29-15-5-2)18-7-9-19(24)10-8-18/h1-2,6-11,16,22H,12-15H2,3H3,(H,25,26)
Instrument: TripleTOF 6600 SCIEX
Instrument type: LC-ESI-QTOF
Ms type: MS2
Ion mode: POSITIVE
Collision energy: 80
Fragmentation mode: CID
Ionization: ESI
Column name: Zorbax Eclipse Plus C18 2.1 mm x 150 mm, 3.5 um, Agilent
Retention time: 12.239 min
Precursor m/z: 412.131
Precursor type: [M+H]+
m/z	relative intensity
63.0228	27
65.0382	27
72.9835	16
77.038	102
78.0464	20
79.0539	30
80.0497	11
89.038	216
90.0465	78
91.0536	203
93.0571	14
93.0701	16
94.0647	27
95.048	20
98.9991	102
102.0466	22
103.0536	83
104.0484	16
104.0613	12
105.0348	16
105.0682	19
106.0643	19
107.0482	53
110.9986	19
115.0532	133
116.0618	43
117.0561	53
117.0681	44
118.0651	75
119.0473	30
121.0637	62
122.0587	46
123.0434	16
124.0055	12
125.0147	999
127.0535	38
128.0609	96
129.0686	24
130.0399	14
130.0632	43
131.0483	48
133.0279	19
133.0524	20
134.0592	48
135.043	46
135.0662	14
136.0747	16
137.0602	11
144.0568	17
145.0644	17
146.0595	36
147.0429	64
148.0477	12
148.0747	17
149.0143	9
149.0578	20
150.0537	19
152.0249	30
152.061	28
153.0688	22
155.0597	17
157.0629	16
164.0678	12
165.0692	107
166.0763	24
176.0659	22
177.0691	9
178.077	85
179.0852	33
181.0651	25
182.072	17
189.0693	43
190.0761	40
191.0855	28
194.0713	38
199.0314	17
201.044	11
202.0778	33
203.0833	41
204.0911	12
205.063	12
205.0964	9
207.0795	19
208.0879	12
210.0682	9
212.0371	14
215.0838	35
216.0826	12
217.0878	14
218.0715	11
225.046	12
233.0854	12
234.0891	17
