Mass spectrum: N-desmethyl-diphenhydramine; LC-ESI-QTOF; MS2; 90 V
Name: N-desmethyl-diphenhydramine
Class: Pharmaceutical; Metabolite
Formula: C16H19NO
Exact mass: 241.1467
SMILES: CNCCOC(c1ccccc1)c2ccccc2
InChI: InChI=1S/C16H19NO/c1-17-12-13-18-16(14-8-4-2-5-9-14)15-10-6-3-7-11-15/h2-11,16-17H,12-13H2,1H3
Instrument: TripleTOF 5600 SCIEX
Instrument type: LC-ESI-QTOF
Ms type: MS2
Ion mode: POSITIVE
Collision energy: 90
Fragmentation mode: CID
Ionization: ESI
Column name: Zorbax Eclipse Plus C18 2.1 mm x 150 mm, 3.5 um, Agilent
Retention time: 7.557 min
Precursor m/z: 242.1539
Precursor type: [M+H]+
m/z	relative intensity
65.0438	53
74.018	22
75.0259	16
76.0337	39
77.0417	53
78.0496	45
87.0232	21
89.0402	110
91.0554	31
98.0153	12
102.0472	144
113.0382	25
115.054	454
125.0377	22
126.0461	167
127.0537	56
128.0614	149
138.0482	11
139.0536	235
141.068	19
149.038	11
150.0457	162
151.0541	343
152.0613	408
162.0467	15
163.0536	356
164.0615	426
165.0693	999
