Mass spectrum: Parathion-methyl; LC-ESI-QTOF; MS2; 50 V
Name: Parathion-methyl
Class: Insecticide
Formula: C8H10NO5PS
Exact mass: 263.0017
SMILES: COP(=S)(OC)OC1=CC=C(C=C1)[N+](=O)[O-]
InChI: InChI=1S/C8H10NO5PS/c1-12-15(16,13-2)14-8-5-3-7(4-6-8)9(10)11/h3-6H,1-2H3
Instrument: TripleTOF 6600 SCIEX
Instrument type: LC-ESI-QTOF
Ms type: MS2
Ion mode: POSITIVE
Collision energy: 50
Fragmentation mode: CID
Ionization: ESI
Column name: Zorbax Eclipse Plus C18 2.1 mm x 150 mm, 3.5 um, Agilent
Retention time: 12.495 min
Precursor m/z: 264.009
Precursor type: [M+H]+
m/z	relative intensity
44.9788	163
46.9666	93
46.994	421
62.0181	124
62.9441	70
63.0214	179
64.0295	117
65.0367	54
69.9855	54
74.0135	140
75.0215	866
76.0303	85
77.0378	62
78.9934	999
91.0523	39
92.0238	288
93.0095	78
93.031	54
94.9924	54
95.9998	156
108.0003	187
109.003	374
123.0287	39
123.9964	54
124.9788	585
125.0132	31
125.9669	46
126.9764	46
139.0202	85
141.962	54
150.0256	70
153.9622	413
154.9684	694
170.9635	70
184.984	132
185.9892	46
199.9532	46
