Mass spectrum: Oxytetracycline; LC-ESI-QTOF; MS2; 40 V
Name: Oxytetracycline
Class: Pharmaceutical
Formula: C22H24N2O9
Exact mass: 460.1482
SMILES: CC1(C2C(C3C(C(=O)C(=C(C3(C(=O)C2=C(C4=C1C=CC=C4O)O)O)O)C(=O)N)N(C)C)O)O
InChI: InChI=1S/C22H24N2O9/c1-21(32)7-5-4-6-8(25)9(7)15(26)10-12(21)17(28)13-14(24(2)3)16(27)11(20(23)31)19(30)22(13,33)18(10)29/h4-6,12-14,17,25-26,28,30,32-33H,1-3H3,(H2,23,31)
Instrument: TripleTOF 5600 SCIEX
Instrument type: LC-ESI-QTOF
Ms type: MS2
Ion mode: NEGATIVE
Collision energy: 40
Fragmentation mode: CID
Ionization: ESI
Column name: Zorbax Eclipse Plus C18 2.1 mm x 150 mm, 3.5 um, Agilent
Retention time: 5.586 min
Precursor m/z: 459.1409
Precursor type: [M-H]-
m/z	relative intensity
135.0459	101
142.0149	82
173.0587	71
181.0361	86
201.0572	123
245.0466	71
253.0511	138
255.0644	56
267.0671	153
271.0618	90
289.0764	120
309.079	63
312.1306	97
353.0889	108
354.1387	52
371.1044	60
374.1248	999
398.1301	52
416.1344	127
442.1161	255
459.1403	311
