Mass spectrum: (Methoxymethyl)diphenylphosphine oxide; LC-ESI-QTOF; MS2; 80 V
Name: (Methoxymethyl)diphenylphosphine oxide
Class: Industrial_process
Formula: C14H15O2P
Exact mass: 246.081
SMILES: COC[P](=O)(c1ccccc1)c2ccccc2
InChI: InChI=1S/C14H15O2P/c1-16-12-17(15,13-8-4-2-5-9-13)14-10-6-3-7-11-14/h2-11H,12H2,1H3
Instrument: TripleTOF 5600 SCIEX
Instrument type: LC-ESI-QTOF
Ms type: MS2
Ion mode: POSITIVE
Collision energy: 80
Fragmentation mode: CID
Ionization: ESI
Column name: Zorbax Eclipse Plus C18 2.1 mm x 150 mm, 3.5 um, Agilent
Retention time: 8.67 min
Precursor m/z: 247.0882
Precursor type: [M+H]+
m/z	relative intensity
45.0434	361
51.0273	32
56.994	21
63.0368	13
65.043	124
74.021	10
77.0424	99
78.0476	16
79.984	13
80.9907	37
83.0074	24
89.0405	70
91.0566	143
102.0487	51
107.0054	302
108.0118	16
109.0203	27
113.0384	24
115.0543	315
126.0479	81
128.0613	29
131.006	43
133.0195	81
139.0551	259
144.015	16
150.0478	48
151.0547	180
152.0627	999
155.0047	13
156.013	45
157.0203	507
165.0722	18
170.0274	21
180.0233	13
181.0207	194
182.0238	27
183.0361	326
199.0344	13
