Mass spectrum: Penciclovir; LC-ESI-QTOF; MS2; 40 V
Name: Penciclovir
Class: Pharmaceutical
Formula: C10H15N5O3
Exact mass: 253.1175
SMILES: NC1=NC(=O)c2ncn(CCC(CO)CO)c2N1
InChI: InChI=1S/C10H15N5O3/c11-10-13-8-7(9(18)14-10)12-5-15(8)2-1-6(3-16)4-17/h5-6,16-17H,1-4H2,(H3,11,13,14,18)
Instrument: TripleTOF 5600 SCIEX
Instrument type: LC-ESI-QTOF
Ms type: MS2
Ion mode: NEGATIVE
Collision energy: 40
Fragmentation mode: CID
Ionization: ESI
Column name: Zorbax Eclipse Plus C18 2.1 mm x 150 mm, 3.5 um, Agilent
Retention time: 2.597 min
Precursor m/z: 252.1102
Precursor type: [M-H]-
m/z	relative intensity
107.0397	47
108.0216	428
119.0122	999
132.9922	47
133.0174	523
135.0051	95
150.0428	333
163.0023	333
