Mass spectrum: Torasemide; LC-ESI-QTOF; MS2; 110 V
Name: Torasemide
Class: Pharmaceutical
Formula: C16H20N4O3S
Exact mass: 348.1256
SMILES: CC(C)NC(=O)N[S](=O)(=O)c1cnccc1Nc2cccc(C)c2
InChI: InChI=1S/C16H20N4O3S/c1-11(2)18-16(21)20-24(22,23)15-10-17-8-7-14(15)19-13-6-4-5-12(3)9-13/h4-11H,1-3H3,(H,17,19)(H2,18,20,21)
Instrument: TripleTOF 5600 SCIEX
Instrument type: LC-ESI-QTOF
Ms type: MS2
Ion mode: POSITIVE
Collision energy: 110
Fragmentation mode: CID
Ionization: ESI
Column name: Zorbax Eclipse Plus C18 2.1 mm x 150 mm, 3.5 um, Agilent
Retention time: 7.633 min
Precursor m/z: 349.1329
Precursor type: [M+H]+
m/z	relative intensity
51.0274	10
65.0417	23
67.0428	14
74.0169	23
75.0259	48
76.0326	12
77.041	148
78.0359	13
78.0467	15
79.0434	25
81.0456	19
86.0165	13
87.024	25
88.032	120
89.0399	243
90.0473	138
91.0535	10
101.0384	86
102.0456	49
103.0531	27
104.0486	15
113.0379	249
114.0455	515
115.0463	181
116.0481	39
117.0564	208
118.0536	14
126.0448	51
127.0531	277
128.0543	476
129.0435	11
129.0678	18
130.0644	13
139.041	35
140.0489	999
141.0559	319
142.0513	95
152.0487	25
153.056	64
154.0639	238
155.0595	97
156.0685	21
165.0442	12
166.0516	73
167.0594	174
168.0672	612
169.0732	20
179.0587	57
180.0665	73
181.0747	623
182.0819	98
183.0904	75
