Mass spectrum: Pentoxifylline; LC-ESI-QTOF; MS2; 70 V
Name: Pentoxifylline
Class: Pharmaceutical
Formula: C13H18N4O3
Exact mass: 278.1379
SMILES: Cn1cnc2N(C)C(=O)N(CCCCC(C)=O)C(=O)c12
InChI: InChI=1S/C13H18N4O3/c1-9(18)6-4-5-7-17-12(19)10-11(14-8-15(10)2)16(3)13(17)20/h8H,4-7H2,1-3H3
Instrument: TripleTOF 5600 SCIEX
Instrument type: LC-ESI-QTOF
Ms type: MS2
Ion mode: POSITIVE
Collision energy: 70
Fragmentation mode: CID
Ionization: ESI
Column name: Zorbax Eclipse Plus C18 2.1 mm x 150 mm, 3.5 um, Agilent
Retention time: 6.772 min
Precursor m/z: 279.1452
Precursor type: [M+H]+
m/z	relative intensity
42.0428	999
43.0264	927
53.0188	52
54.0384	33
56.0545	205
67.0332	879
68.0406	248
69.0487	454
69.0652	33
70.0325	19
77.0391	23
79.0336	38
81.0472	119
82.0543	71
83.0627	611
85.0414	66
93.0467	19
94.0416	76
95.0494	62
96.0561	57
99.0805	28
108.0553	253
109.0392	100
109.0559	28
110.0716	391
111.0532	23
113.0339	95
122.0583	301
122.0832	28
123.0433	578
123.0703	19
135.0676	57
137.0844	38
138.0667	262
148.0361	23
163.0627	124
181.0729	52
