Mass spectrum: 3-Hydroxycarbamazepine; LC-ESI-QTOF; MS2; 60 V
Name: 3-Hydroxycarbamazepine
Class: Pharmaceutical
Formula: C15H12N2O2
Exact mass: 252.0899
SMILES: NC(=O)N1c2ccccc2C=Cc3ccc(O)cc13
InChI: InChI=1S/C15H12N2O2/c16-15(19)17-13-4-2-1-3-10(13)5-6-11-7-8-12(18)9-14(11)17/h1-9,18H,(H2,16,19)
Instrument: TripleTOF 5600 SCIEX
Instrument type: LC-ESI-QTOF
Ms type: MS2
Ion mode: POSITIVE
Collision energy: 60
Fragmentation mode: CID
Ionization: ESI
Column name: Zorbax Eclipse Plus C18 2.1 mm x 150 mm, 3.5 um, Agilent
Retention time: 7.917 min
Precursor m/z: 253.0972
Precursor type: [M+H]+
m/z	relative intensity
77.0417	28
89.0396	35
90.0469	34
91.0545	11
104.0499	10
115.0537	108
116.05	17
117.0569	44
127.0544	42
128.0512	38
139.0541	125
140.0553	99
141.0677	27
151.0536	68
152.0618	308
153.0694	129
154.0656	56
163.0537	35
164.0615	65
165.0697	193
166.0652	355
167.0731	999
168.0557	10
177.0564	30
178.0649	112
179.0724	79
180.081	740
181.0871	230
182.0646	12
182.0961	45
183.0676	33
189.057	12
190.0651	129
191.0726	127
192.08	45
193.0874	28
194.0622	14
195.0675	72
206.0594	28
207.0676	89
208.0753	146
209.0832	154
210.091	31
