Mass spectrum: 14-Hydroxycodeinone; LC-ESI-QTOF; MS2; 80 V
Name: 14-Hydroxycodeinone
Class: Pharmaceutical; Transformation_product
Formula: C18H19NO4
Exact mass: 313.1314
SMILES: COc1ccc2C[C@H]3N(C)CC[C@@]45C(Oc1c24)C(=O)C=C[C@@]35O
InChI: InChI=1S/C18H19NO4/c1-19-8-7-17-14-10-3-4-12(22-2)15(14)23-16(17)11(20)5-6-18(17,21)13(19)9-10/h3-6,13,16,21H,7-9H2,1-2H3/t13-,16?,17+,18-/m1/s1
Instrument: TripleTOF 5600 SCIEX
Instrument type: LC-ESI-QTOF
Ms type: MS2
Ion mode: POSITIVE
Collision energy: 80
Fragmentation mode: CID
Ionization: ESI
Column name: Zorbax Eclipse Plus C18 2.1 mm x 150 mm, 3.5 um, Agilent
Retention time: 5.367 min
Precursor m/z: 314.1387
Precursor type: [M+H]+
m/z	relative intensity
42.0414	23
65.0425	14
77.041	48
78.048	10
89.0405	50
91.0559	29
93.0596	14
94.0656	28
102.0467	18
103.0548	19
113.0401	14
114.046	17
115.0551	330
116.0488	31
117.0576	37
118.0418	10
118.0644	28
126.0461	20
127.0544	71
128.0621	129
129.0701	34
130.065	36
131.0496	24
131.0722	34
139.0544	365
140.0607	141
141.0697	192
142.0652	28
143.072	18
144.0802	30
150.0472	31
151.0543	118
152.0618	390
153.0696	200
154.0655	114
155.0503	24
155.0746	37
155.0864	18
156.0795	28
163.054	50
164.0623	59
165.0701	457
166.0657	487
167.0735	702
168.0622	31
168.0801	193
169.065	39
169.0864	41
170.0602	10
170.0976	14
175.0544	12
176.0616	89
177.0665	60
178.0744	112
179.0515	14
179.0735	67
180.0551	10
180.0808	304
181.0887	775
182.062	34
182.0964	296
183.0688	31
184.052	10
184.076	23
189.0705	24
190.0653	37
191.0724	126
192.0592	17
192.0801	92
193.0652	19
193.0889	42
194.0603	128
194.0957	62
195.0683	261
195.1046	17
196.0524	15
196.0734	43
196.1118	17
197.0633	51
197.0845	28
202.0685	15
203.0726	64
204.0807	39
205.0654	37
205.0895	30
206.0597	26
206.0972	31
207.0683	51
208.0755	108
209.0626	20
209.0832	124
210.091	445
211.068	34
212.1055	13
216.0824	10
217.0872	17
218.0956	37
219.0714	25
220.0755	56
221.0563	24
221.0835	32
222.0551	79
222.0893	24
223.0649	68
223.0992	21
224.0717	14
224.1069	24
234.0926	23
236.0712	79
237.0797	30
238.0869	999
239.0949	24
248.0722	19
250.0863	12
252.1067	23
