Mass spectrum: Isorhamnetin; LC-ESI-QTOF; MS2; 60 V
Name: Isorhamnetin
Class: Pharmaceutical; Metabolite
Formula: C16H12O7
Exact mass: 316.0583
SMILES: COc1cc(ccc1O)C2=C(O)C(=O)c3c(O)cc(O)cc3O2
InChI: InChI=1S/C16H12O7/c1-22-11-4-7(2-3-9(11)18)16-15(21)14(20)13-10(19)5-8(17)6-12(13)23-16/h2-6,17-19,21H,1H3
Instrument: TripleTOF 5600 SCIEX
Instrument type: LC-ESI-QTOF
Ms type: MS2
Ion mode: POSITIVE
Collision energy: 60
Fragmentation mode: CID
Ionization: ESI
Column name: Zorbax Eclipse Plus C18 2.1 mm x 150 mm, 3.5 um, Agilent
Retention time: 9.418 min
Precursor m/z: 317.0656
Precursor type: [M+H]+
m/z	relative intensity
65.0417	64
69.0016	75
92.0265	257
93.0323	64
94.0432	64
111.0097	53
115.0556	150
121.0308	96
122.0388	42
124.0146	64
126.0318	85
127.0532	107
137.0222	96
147.0425	96
152.0126	64
153.018	999
155.0525	150
161.0575	75
171.0419	53
173.0601	64
177.0549	42
179.0336	53
183.0429	42
187.0369	75
189.0544	85
199.0378	75
200.0434	96
201.0566	85
203.0346	311
204.0365	42
217.0496	730
219.0295	150
227.0347	75
228.038	85
229.0483	365
231.0249	64
245.0426	569
256.0333	64
257.0431	75
285.0408	96
