Mass spectrum: Atenolol acid; LC-ESI-QTOF; MS2; 140 V
Name: Atenolol acid
Class: Pharmaceutical; Transformation_product-Metabolite
Formula: C14H21NO4
Exact mass: 267.1471
SMILES: CC(C)NCC(COC1=CC=C(C=C1)CC(=O)O)O
InChI: InChI=1S/C14H21NO4/c1-10(2)15-8-12(16)9-19-13-5-3-11(4-6-13)7-14(17)18/h3-6,10,12,15-16H,7-9H2,1-2H3,(H,17,18)
Instrument: TripleTOF 5600 SCIEX
Instrument type: LC-ESI-QTOF
Ms type: MS2
Ion mode: POSITIVE
Collision energy: 140
Fragmentation mode: CID
Ionization: ESI
Column name: Zorbax Eclipse Plus C18 2.1 mm x 150 mm, 3.5 um, Agilent
Retention time: 4.893 min
Precursor m/z: 268.1543
Precursor type: [M+H]+
m/z	relative intensity
37.0074	112
38.0153	89
39.0235	437
41.0392	314
43.0547	89
44.0502	78
49.0083	78
50.0159	460
51.0234	999
56.0503	112
58.0654	101
61.0071	123
62.0153	303
63.0232	516
65.0385	168
74.014	44
77.0389	493
89.0388	112
91.0532	56
115.0539	67
