Mass spectrum: Flufenacet; LC-ESI-QTOF; MS2; 110 V
Name: Flufenacet
Class: Herbicide
Formula: C14H13F4N3O2S
Exact mass: 363.0665
SMILES: CC(C)N(C1=CC=C(C=C1)F)C(=O)COC2=NN=C(S2)C(F)(F)F
InChI: InChI=1S/C14H13F4N3O2S/c1-8(2)21(10-5-3-9(15)4-6-10)11(22)7-23-13-20-19-12(24-13)14(16,17)18/h3-6,8H,7H2,1-2H3
Instrument: TripleTOF 6600 SCIEX
Instrument type: LC-ESI-QTOF
Ms type: MS2
Ion mode: POSITIVE
Collision energy: 110
Fragmentation mode: CID
Ionization: ESI
Column name: Zorbax Eclipse Plus C18 2.1 mm x 150 mm, 3.5 um, Agilent
Retention time: 13.345 min
Precursor m/z: 364.0738
Precursor type: [M+H]+
m/z	relative intensity
39.0228	34
41.0383	23
49.007	23
50.0151	97
51.0231	367
57.0135	199
59.0287	27
61.0069	10
62.0152	16
63.0228	68
69.0133	20
70.021	36
71.0291	11
73.0075	12
74.0151	229
75.0231	707
76.0176	29
77.0389	999
78.0339	54
81.0133	41
83.0294	499
84.0369	15
85.0325	14
89.0377	38
95.0295	686
96.0367	317
97.0447	237
98.0394	15
104.0494	56
105.0445	20
107.0291	166
108.0238	14
108.0367	22
109.0448	217
111.048	17
122.0399	74
123.0353	172
124.0553	108
134.0393	10
135.0475	19
136.0555	35
