Mass spectrum: Imidacloprid; LC-ESI-QTOF; MS2; 30 V
Name: Imidacloprid
Class: Insecticide
Formula: C9H10ClN5O2
Exact mass: 255.0523
SMILES: [O-][N+](=O)NC1=NCCN1Cc2ccc(Cl)nc2
InChI: InChI=1S/C9H10ClN5O2/c10-8-2-1-7(5-12-8)6-14-4-3-11-9(14)13-15(16)17/h1-2,5H,3-4,6H2,(H,11,13)
Instrument: TripleTOF 5600 SCIEX
Instrument type: LC-ESI-QTOF
Ms type: MS2
Ion mode: NEGATIVE
Collision energy: 30
Fragmentation mode: CID
Ionization: ESI
Column name: Zorbax Eclipse Plus C18 2.1 mm x 150 mm, 3.5 um, Agilent
Retention time: 7.098 min
Precursor m/z: 254.045
Precursor type: [M-H]-
m/z	relative intensity
45.9962	124
46.0034	62
162.9506	62
164.9591	124
190.9605	499
208.0071	249
208.9512	249
208.9726	999
208.9985	124
210.0295	62
211.0184	312
