Mass spectrum: Entacapone; LC-ESI-QTOF; MS2; 30 V
Name: Entacapone
Class: Pharmaceutical
Formula: C14H15N3O5
Exact mass: 305.1012
SMILES: CCN(CC)C(=O)C(=CC1=CC(=C(C(=C1)O)O)[N+](=O)[O-])C#N
InChI: InChI=1S/C14H15N3O5/c1-3-16(4-2)14(20)10(8-15)5-9-6-11(17(21)22)13(19)12(18)7-9/h5-7,18-19H,3-4H2,1-2H3
Instrument: TripleTOF 5600 SCIEX
Instrument type: LC-ESI-QTOF
Ms type: MS2
Ion mode: POSITIVE
Collision energy: 30
Fragmentation mode: CID
Ionization: ESI
Column name: Zorbax Eclipse Plus C18 2.1 mm x 150 mm, 3.5 um, Agilent
Retention time: 9.381 min
Precursor m/z: 306.1084
Precursor type: [M+H]+
m/z	relative intensity
68.0194	11
71.0662	14
72.0497	59
72.0865	73
74.1017	122
76.0247	17
88.0217	45
96.0486	20
99.0934	122
100.0773	107
101.0279	22
103.03	93
104.0149	59
115.0311	91
116.0144	28
116.0512	11
118.0646	11
119.0609	14
124.0767	54
129.0216	73
131.0249	254
132.0102	16
134.0231	10
134.0609	10
142.0183	11
143.024	39
144.0309	17
145.038	11
157.016	121
158.0279	13
159.0196	486
160.0123	14
161.0353	53
163.0511	23
168.0288	48
170.0113	282
171.0184	166
182.0425	36
185.011	573
186.0195	13
186.0641	14
186.0999	16
187.014	566
187.0708	26
189.0317	25
200.0784	20
204.0859	13
207.0396	14
208.0241	39
215.008	279
215.1052	87
217.104	10
233.0196	999
239.1024	141
260.1099	13
272.0967	10
278.1121	76
306.1079	589
