Mass spectrum: 6`-Hydroxymethyl Simvastatin; LC-ESI-QTOF; MS2; 30 V
Name: 6`-Hydroxymethyl Simvastatin
Class: Metabolite; Pharmaceutical
Formula: C25H38O6
Exact mass: 434.2668
SMILES: CCC(C)(C)C(=O)OC1CC(C=C2C1C(C(C=C2)C)CCC3CC(CC(=O)O3)O)CO
InChI: InChI=1S/C25H38O6/c1-5-25(3,4)24(29)31-21-11-16(14-26)10-17-7-6-15(2)20(23(17)21)9-8-19-12-18(27)13-22(28)30-19/h6-7,10,15-16,18-21,23,26-27H,5,8-9,11-14H2,1-4H3
Instrument: TripleTOF 5600 SCIEX
Instrument type: LC-ESI-QTOF
Ms type: MS2
Ion mode: POSITIVE
Collision energy: 30
Fragmentation mode: CID
Ionization: ESI
Column name: Zorbax Eclipse Plus C18 2.1 mm x 150 mm, 3.5 um, Agilent
Retention time: 10.786 min
Precursor m/z: 435.2741
Precursor type: [M+H]+
m/z	relative intensity
79.0582	37
125.0617	30
129.0737	45
131.0858	37
141.074	37
143.0853	52
155.0861	112
157.1029	165
159.1209	82
169.1027	202
171.1182	322
173.1345	52
181.1003	75
183.1212	67
189.1277	217
195.1204	120
197.1343	999
199.1468	165
209.1328	52
211.1165	37
211.1484	52
213.1632	90
215.1429	202
219.1257	52
221.1338	187
223.111	37
223.1489	736
227.1202	30
237.129	37
237.1649	157
241.1599	225
247.1497	615
265.1583	383
283.1694	292
301.1781	165
