Mass spectrum: 2-Hydroxycarbamazepine; LC-ESI-QTOF; MS2; 40 V
Name: 2-Hydroxycarbamazepine
Class: Pharmaceutical; Metabolite
Formula: C15H12N2O2
Exact mass: 252.0899
SMILES: NC(=O)N1c2ccccc2C=Cc3cc(O)ccc13
InChI: InChI=1S/C15H12N2O2/c16-15(19)17-13-4-2-1-3-10(13)5-6-11-9-12(18)7-8-14(11)17/h1-9,18H,(H2,16,19)
Instrument: TripleTOF 5600 SCIEX
Instrument type: LC-ESI-QTOF
Ms type: MS2
Ion mode: POSITIVE
Collision energy: 40
Fragmentation mode: CID
Ionization: ESI
Column name: Zorbax Eclipse Plus C18 2.1 mm x 150 mm, 3.5 um, Agilent
Retention time: 7.476 min
Precursor m/z: 253.0972
Precursor type: [M+H]+
m/z	relative intensity
115.0538	13
117.0575	43
139.0539	22
140.0615	13
151.0561	21
152.0618	80
153.0697	81
154.0639	14
163.0533	15
164.0613	19
165.0703	148
166.0661	82
167.0735	526
178.0663	34
179.0725	34
180.0815	316
181.088	157
182.0963	240
183.0727	28
190.0657	110
191.0725	69
192.0807	75
193.089	108
194.0689	16
195.0681	267
206.0607	21
207.0678	64
208.0763	804
209.084	360
210.092	999
253.0976	85
