Mass spectrum: Aclonifen; LC-ESI-QTOF; MS2; 50 V
Name: Aclonifen
Class: Herbicide
Formula: C12H9ClN2O3
Exact mass: 264.0302
SMILES: Nc1c(Cl)c(Oc2ccccc2)ccc1[N+]([O-])=O
InChI: InChI=1S/C12H9ClN2O3/c13-11-10(18-8-4-2-1-3-5-8)7-6-9(12(11)14)15(16)17/h1-7H,14H2
Instrument: TripleTOF 5600 SCIEX
Instrument type: LC-ESI-QTOF
Ms type: MS2
Ion mode: POSITIVE
Collision energy: 50
Fragmentation mode: CID
Ionization: ESI
Column name: Zorbax Eclipse Plus C18 2.1 mm x 150 mm, 3.5 um, Agilent
Retention time: 13.815 min
Precursor m/z: 265.0374
Precursor type: [M+H]+
m/z	relative intensity
51.0282	31
52.024	33
65.0423	26
72.9861	13
77.0415	431
78.0393	10
80.0159	309
88.0329	13
101.0385	10
102.0473	15
112.0061	15
113.0351	10
115.0527	13
123.9935	12
125.0034	24
126.0462	22
127.0544	294
128.0486	33
128.0614	85
129.0577	12
131.0495	17
138.0337	125
139.0417	201
140.0488	24
140.9968	20
147.0024	13
149.015	12
152.0515	13
153.0573	45
154.0643	205
155.0493	250
155.071	20
156.0571	12
163.0316	26
165.0443	114
166.0527	64
167.0354	48
174.01	33
181.0525	45
182.0599	999
183.0675	243
190.0168	24
190.0434	22
193.0402	13
194.0483	76
203.0141	17
216.0198	22
217.0289	292
218.0374	43
248.0322	12
