Mass spectrum: Icaridin; LC-ESI-QTOF; MS2; 80 V
Name: Icaridin
Class: Insecticide; Biocide; Personal_care_product
Formula: C12H23NO3
Exact mass: 229.1678
SMILES: CCC(C)OC(=O)N1CCCCC1CCO
InChI: InChI=1S/C12H23NO3/c1-3-10(2)16-12(15)13-8-5-4-6-11(13)7-9-14/h10-11,14H,3-9H2,1-2H3
Instrument: TripleTOF 6600 SCIEX
Instrument type: LC-ESI-QTOF
Ms type: MS2
Ion mode: POSITIVE
Collision energy: 80
Fragmentation mode: CID
Ionization: ESI
Column name: Zorbax Eclipse Plus C18 2.1 mm x 150 mm, 3.5 um, Agilent
Retention time: 10.188 min
Precursor m/z: 230.1751
Precursor type: [M+H]+
m/z	relative intensity
30.0327	142
37.0065	142
38.0143	166
39.022	999
41.0375	832
44.0478	95
51.0216	142
53.0374	142
55.053	594
56.048	666
65.0361	285
67.0524	451
70.0635	118
77.0371	333
79.0528	214
82.0628	142
84.0789	309
