Mass spectrum: Simvastatin; LC-ESI-QTOF; MS2; 110 V
Name: Simvastatin
Class: Pharmaceutical
Formula: C25H38O5
Exact mass: 418.2719
SMILES: CCC(C)(C)C(=O)O[C@H]1C[C@@H](C)C=C2C=C[C@H](C)[C@H](CC[C@@H]3C[C@@H](O)CC(=O)O3)[C@@H]12
InChI: InChI=1S/C25H38O5/c1-6-25(4,5)24(28)30-21-12-15(2)11-17-8-7-16(3)20(23(17)21)10-9-19-13-18(26)14-22(27)29-19/h7-8,11,15-16,18-21,23,26H,6,9-10,12-14H2,1-5H3/t15-,16-,18+,19+,20-,21-,23-/m0/s1
Instrument: TripleTOF 5600 SCIEX
Instrument type: LC-ESI-QTOF
Ms type: MS2
Ion mode: POSITIVE
Collision energy: 110
Fragmentation mode: CID
Ionization: ESI
Column name: Zorbax Eclipse Plus C18 2.1 mm x 150 mm, 3.5 um, Agilent
Retention time: 15.438 min
Precursor m/z: 419.2792
Precursor type: [M+H]+
m/z	relative intensity
77.0412	257
79.0566	242
81.0749	75
91.0556	408
103.054	105
105.0705	181
115.0528	529
116.0626	151
117.0691	105
119.0882	105
127.0556	272
128.0616	999
129.07	484
130.076	121
131.0853	151
141.0689	575
142.0781	211
143.0858	317
144.0928	105
152.0605	105
153.069	302
154.0787	90
155.0846	166
165.0686	181
167.0832	90
168.0991	60
169.0994	75
178.078	105
