Mass spectrum: Paroxetine; LC-ESI-QTOF; MS2; 150 V
Name: Paroxetine
Class: Pharmaceutical
Formula: C19H20FNO3
Exact mass: 329.1427
SMILES: C1CNCC(C1C2=CC=C(C=C2)F)COC3=CC4=C(C=C3)OCO4
InChI: InChI=1S/C19H20FNO3/c20-15-3-1-13(2-4-15)17-7-8-21-10-14(17)11-22-16-5-6-18-19(9-16)24-12-23-18/h1-6,9,14,17,21H,7-8,10-12H2
Instrument: TripleTOF 5600 SCIEX
Instrument type: LC-ESI-QTOF
Ms type: MS2
Ion mode: POSITIVE
Collision energy: 150
Fragmentation mode: CID
Ionization: ESI
Column name: Zorbax Eclipse Plus C18 2.1 mm x 150 mm, 3.5 um, Agilent
Retention time: 7.812 min
Precursor m/z: 330.15
Precursor type: [M+H]+
m/z	relative intensity
36.0006	33
37.0072	126
38.0152	79
39.0233	579
41.0387	326
42.0338	99
44.0496	293
50.0154	59
51.0229	119
53.0023	26
56.05	53
57.0137	319
59.0302	53
61.0074	46
62.0157	99
63.0233	253
65.0387	113
68.0492	46
70.0203	33
70.0651	199
73.007	26
74.0147	199
75.023	372
77.0382	199
81.0139	59
82.0661	39
83.0294	999
87.0247	73
89.0383	246
95.0302	39
96.037	79
98.0152	53
99.0232	53
102.0464	53
107.0301	213
109.0448	499
115.0549	313
120.0376	66
125.039	53
126.0462	33
127.0556	46
133.0446	432
145.0409	39
146.053	119
