Mass spectrum: O-Desmethyl amisulpride; LC-ESI-QTOF; MS2; 120 V
Name: O-Desmethyl amisulpride
Class: Pharmaceutical; Transformation_product; Transformation_product-Metabolite
Formula: C16H25N3O4S
Exact mass: 355.1566
SMILES: CCN1CCCC1CNC(=O)c2cc(c(cc2O)N)S(=O)(=O)CC
InChI: InChI=1S/C16H25N3O4S/c1-3-19-7-5-6-11(19)10-18-16(21)12-8-15(24(22,23)4-2)13(17)9-14(12)20/h8-9,11,20H,3-7,10,17H2,1-2H3,(H,18,21)
Instrument: TripleTOF 5600 SCIEX
Instrument type: LC-ESI-QTOF
Ms type: MS2
Ion mode: POSITIVE
Collision energy: 120
Fragmentation mode: CID
Ionization: ESI
Column name: Zorbax Eclipse Plus C18 2.1 mm x 150 mm, 3.5 um, Agilent
Retention time: 5.619 min
Precursor m/z: 356.1639
Precursor type: [M+H]+
m/z	relative intensity
42.0416	187
44.0211	215
44.059	22
51.0295	198
52.037	652
53.007	62
53.0455	79
54.0386	68
55.0605	204
56.0554	692
56.9843	51
57.9915	39
58.0699	221
58.9999	73
60.0042	28
62.0406	28
64.0522	22
65.0294	187
65.041	73
66.0145	90
66.0383	62
67.008	28
67.0216	73
67.046	62
67.058	119
68.0172	862
68.0526	107
68.9827	147
69.0001	28
69.0633	28
69.9941	34
70.033	34
70.069	261
70.9996	107
76.0219	96
77.007	39
77.0278	79
78.0365	368
78.0578	28
79.0204	56
79.0438	181
79.0585	34
80.0154	34
80.0286	68
80.051	175
80.9818	28
81.9921	39
82.0677	238
83.9932	34
84.0831	999
84.9765	192
86.993	56
88.02	113
89.0282	862
91.0208	56
93.0217	22
94.0303	806
98.0979	119
98.9919	51
99.0142	22
99.9863	278
105.0204	39
107.0139	22
107.037	493
107.9905	170
108.0207	141
108.0445	22
110.097	34
112.1122	255
126.0002	34
134.0247	34
135.01	34
135.0296	73
