Mass spectrum: 2-Benzylimidazole; LC-ESI-QTOF; MS2; 80 V
Name: 2-Benzylimidazole
Class: Pharmaceutical
Formula: C10H12N2
Exact mass: 160.1
SMILES: C1CN=C(N1)CC2=CC=CC=C2
InChI: InChI=1S/C10H12N2/c1-2-4-9(5-3-1)8-10-11-6-7-12-10/h1-5H,6-8H2,(H,11,12)
Instrument: TripleTOF 5600 SCIEX
Instrument type: LC-ESI-QTOF
Ms type: MS2
Ion mode: POSITIVE
Collision energy: 80
Fragmentation mode: CID
Ionization: ESI
Column name: Zorbax Eclipse Plus C18 2.1 mm x 150 mm, 3.5 um, Agilent
Retention time: 4.619 min
Precursor m/z: 161.1073
Precursor type: [M+H]+
m/z	relative intensity
35.9996	24
37.0074	54
38.0151	88
39.0233	364
41.0392	44
44.0494	24
50.015	83
51.0231	108
54.0333	39
61.0075	59
62.0156	118
63.0227	236
65.0388	999
77.0388	78
89.0399	78
91.0543	477
