Mass spectrum: Flurtamone; LC-ESI-QTOF; MS2; 150 V
Name: Flurtamone
Class: Herbicide
Formula: C18H14F3NO2
Exact mass: 333.0977
SMILES: CNC1=C(C(=O)C(O1)C2=CC=CC=C2)C3=CC(=CC=C3)C(F)(F)F
InChI: InChI=1S/C18H14F3NO2/c1-22-17-14(12-8-5-9-13(10-12)18(19,20)21)15(23)16(24-17)11-6-3-2-4-7-11/h2-10,16,22H,1H3
Instrument: TripleTOF 6600 SCIEX
Instrument type: LC-ESI-QTOF
Ms type: MS2
Ion mode: POSITIVE
Collision energy: 150
Fragmentation mode: CID
Ionization: ESI
Column name: Zorbax Eclipse Plus C18 2.1 mm x 150 mm, 3.5 um, Agilent
Retention time: 11.864 min
Precursor m/z: 334.105
Precursor type: [M+H]+
m/z	relative intensity
39.0228	32
42.0336	18
49.0071	94
50.0151	462
51.0229	634
52.0301	22
57.0134	40
61.007	63
62.015	91
63.0228	171
65.0382	25
68.9943	26
73.007	42
74.0151	447
75.0223	276
76.0305	143
77.0384	269
78.0459	37
81.0134	38
83.0294	18
85.0071	71
86.0151	133
87.0228	133
88.0301	10
89.0384	99
97.007	35
98.0152	404
99.0224	171
100.0302	45
101.0378	24
102.0462	130
105.0132	24
107.029	33
109.0067	38
110.0151	103
111.0227	66
113.038	29
115.054	24
122.015	119
123.0229	64
124.0305	33
125.0385	83
126.0463	176
127.0544	36
128.0619	18
131.0293	17
134.0147	35
135.0225	17
137.0384	32
138.0455	11
139.0538	33
144.0367	11
146.0148	21
149.0385	175
150.0469	999
151.0545	246
152.0627	40
155.028	16
161.0385	43
162.046	23
163.0548	36
168.0371	42
169.0448	12
173.0385	15
174.0466	240
175.0544	130
176.0625	267
179.029	60
180.037	21
181.0447	32
185.0384	41
186.0467	22
187.0547	25
194.0529	25
197.0204	11
199.0359	21
203.0302	58
204.0375	65
205.0451	101
223.0366	45
