Mass spectrum: Thieno[3,2-b]pyridin-7-ol; LC-ESI-QTOF; MS2; 90 V
Name: Thieno[3,2-b]pyridin-7-ol
Formula: C7H5NOS
Exact mass: 151.0092
SMILES: C1=CNC2=C(C1=O)SC=C2
InChI: InChI=1S/C7H5NOS/c9-6-1-3-8-5-2-4-10-7(5)6/h1-4H,(H,8,9)
Instrument: TripleTOF 6600 SCIEX
Instrument type: LC-ESI-QTOF
Ms type: MS2
Ion mode: POSITIVE
Collision energy: 90
Fragmentation mode: CID
Ionization: ESI
Column name: Zorbax Eclipse Plus C18 2.1 mm x 150 mm, 3.5 um, Agilent
Retention time: 4.72 min
Precursor m/z: 152.0165
Precursor type: [M+H]+
m/z	relative intensity
31.9712	24
35.9993	117
37.0078	730
38.0027	37
38.0155	489
39.0234	788
40.018	65
41.0253	51
43.9717	89
44.0131	24
44.9798	999
45.9743	13
49.0079	62
50.0151	161
51.0231	89
52.018	68
53.0027	234
53.0383	82
54.0335	17
56.9793	99
57.986	93
59.9988	48
61.0063	161
62.0149	227
63.0227	179
64.0178	17
67.9714	65
68.0115	41
68.9793	378
69.9866	17
70.9939	31
75.01	196
76.017	99
80.9801	51
81.9864	27
92.9778	17
94.9937	13
