Mass spectrum: Guanosine; LC-ESI-QTOF; MS2; 50 V
Name: Guanosine
Class: Pharmaceutical
Formula: C10H13N5O5
Exact mass: 283.0917
SMILES: NC1=NC(=O)c2ncn(C3OC(CO)C(O)C3O)c2N1
InChI: InChI=1S/C10H13N5O5/c11-10-13-7-4(8(19)14-10)12-2-15(7)9-6(18)5(17)3(1-16)20-9/h2-3,5-6,9,16-18H,1H2,(H3,11,13,14,19)
Instrument: TripleTOF 5600 SCIEX
Instrument type: LC-ESI-QTOF
Ms type: MS2
Ion mode: NEGATIVE
Collision energy: 50
Fragmentation mode: CID
Ionization: ESI
Column name: Zorbax Eclipse Plus C18 2.1 mm x 150 mm, 3.5 um, Agilent
Retention time: 3.148 min
Precursor m/z: 282.0844
Precursor type: [M-H]-
m/z	relative intensity
80.0277	90
107.0345	90
108.0221	544
133.0196	999
133.0405	90
150.0397	90
150.0444	363
