Mass spectrum: Iminostilbene; LC-ESI-QTOF; MS2; 10 V
Name: Iminostilbene
Class: Pharmaceutical
Formula: C14H11N
Exact mass: 193.0891
SMILES: C1=CC=C2C(=C1)C=CC3=CC=CC=C3N2
InChI: InChI=1S/C14H11N/c1-3-7-13-11(5-1)9-10-12-6-2-4-8-14(12)15-13/h1-10,15H
Instrument: TripleTOF 6600 SCIEX
Instrument type: LC-ESI-QTOF
Ms type: MS2
Ion mode: POSITIVE
Collision energy: 10
Fragmentation mode: CID
Ionization: ESI
Column name: Zorbax Eclipse Plus C18 2.1 mm x 150 mm, 3.5 um, Agilent
Retention time: 13.175 min
Precursor m/z: 194.0964
Precursor type: [M+H]+
m/z	relative intensity
194.0861	999
