Mass spectrum: 2-Hydroxyestrone; LC-ESI-QTOF; MS2; 50 V
Name: 2-Hydroxyestrone
Class: Pharmaceutical; Metabolite
Formula: C18H22O3
Exact mass: 286.1569
SMILES: C[C@]12CC[C@H]3[C@@H](CCc4cc(O)c(O)cc34)[C@@H]1CCC2=O
InChI: InChI=1S/C18H22O3/c1-18-7-6-11-12(14(18)4-5-17(18)21)3-2-10-8-15(19)16(20)9-13(10)11/h8-9,11-12,14,19-20H,2-7H2,1H3/t11-,12+,14-,18-/m0/s1
Instrument: TripleTOF 5600 SCIEX
Instrument type: LC-ESI-QTOF
Ms type: MS2
Ion mode: POSITIVE
Collision energy: 50
Fragmentation mode: CID
Ionization: ESI
Column name: Zorbax Eclipse Plus C18 2.1 mm x 150 mm, 3.5 um, Agilent
Retention time: 9.978 min
Precursor m/z: 287.1642
Precursor type: [M+H]+
m/z	relative intensity
67.0589	84
77.043	225
79.0572	126
81.0704	98
91.0544	126
103.0546	675
113.0598	56
115.053	225
117.0682	98
123.0433	267
127.0539	295
128.0615	422
129.0692	787
131.0482	802
137.0587	56
141.0689	112
143.0484	56
143.0872	84
147.0421	126
149.0587	337
152.0631	196
153.0694	196
155.0477	154
155.0836	182
157.0641	309
160.052	182
161.0609	211
165.0686	140
166.0783	112
167.0838	295
173.0591	999
175.0751	422
181.0637	154
183.0797	56
195.0783	211
198.0691	98
199.077	98
201.093	70
213.0942	84
214.0973	70
