Mass spectrum: Benzothiazole; LC-ESI-QTOF; MS2; 40 V
Name: Benzothiazole
Class: Food_additive; Industrial_process
Formula: C7H5NS
Exact mass: 135.0143
SMILES: C1=CC=C2C(=C1)N=CS2
InChI: InChI=1S/C7H5NS/c1-2-4-7-6(3-1)8-5-9-7/h1-5H
Instrument: TripleTOF 5600 SCIEX
Instrument type: LC-ESI-QTOF
Ms type: MS2
Ion mode: POSITIVE
Collision energy: 40
Fragmentation mode: CID
Ionization: ESI
Column name: Zorbax Eclipse Plus C18 2.1 mm x 150 mm, 3.5 um, Agilent
Retention time: 8.779 min
Precursor m/z: 136.0215
Precursor type: [M+H]+
m/z	relative intensity
65.0416	544
77.0406	181
109.0103	726
136.0199	999
