Mass spectrum: Flufenacet ESA; LC-ESI-QTOF; MS2; 40 V
Name: Flufenacet ESA
Class: Herbicide; Transformation_product
Formula: C11H14FNO4S
Exact mass: 275.0628
SMILES: CC(C)N(C1=CC=C(C=C1)F)C(=O)CS(=O)(=O)O
InChI: InChI=1S/C11H14FNO4S/c1-8(2)13(11(14)7-18(15,16)17)10-5-3-9(12)4-6-10/h3-6,8H,7H2,1-2H3,(H,15,16,17)
Instrument: TripleTOF 6600 SCIEX
Instrument type: LC-ESI-QTOF
Ms type: MS2
Ion mode: POSITIVE
Collision energy: 40
Fragmentation mode: CID
Ionization: ESI
Column name: Zorbax Eclipse Plus C18 2.1 mm x 150 mm, 3.5 um, Agilent
Retention time: 6.781 min
Precursor m/z: 276.07
Precursor type: [M+H]+
m/z	relative intensity
59.0127	87
65.038	11
92.0491	71
95.0287	42
97.0443	33
109.0446	81
110.0404	12
111.0476	16
112.0559	999
122.0393	11
122.9739	17
123.0347	20
124.0557	299
135.048	333
136.0558	16
152.0498	33
216.0125	60
