Mass spectrum: Fluoxastrobin; LC-ESI-QTOF; MS2; 100 V
Name: Fluoxastrobin
Class: Fungicide
Formula: C21H16ClFN4O5
Exact mass: 458.0793
SMILES: CON=C(C1=CC=CC=C1OC2=C(C(=NC=N2)OC3=CC=CC=C3Cl)F)C4=NOCCO4
InChI: InChI=1S/C21H16ClFN4O5/c1-28-26-18(21-27-30-11-10-29-21)13-6-2-4-8-15(13)31-19-17(23)20(25-12-24-19)32-16-9-5-3-7-14(16)22/h2-9,12H,10-11H2,1H3
Instrument: TripleTOF 6600 SCIEX
Instrument type: LC-ESI-QTOF
Ms type: MS2
Ion mode: POSITIVE
Collision energy: 100
Fragmentation mode: CID
Ionization: ESI
Column name: Zorbax Eclipse Plus C18 2.1 mm x 150 mm, 3.5 um, Agilent
Retention time: 13.269 min
Precursor m/z: 459.0866
Precursor type: [M+H]+
m/z	relative intensity
39.0225	35
43.0172	37
50.0148	94
51.0229	194
52.0189	11
57.0133	15
61.0066	25
62.0155	39
63.0224	162
64.0178	45
64.0293	60
65.0382	104
69.0063	15
69.9906	29
70.0073	17
72.9837	27
73.0071	43
74.0142	329
75.0223	999
76.0188	125
76.0293	211
77.0375	323
78.0333	58
81.0138	25
83.0288	11
84.9828	72
86.0146	17
87.011	21
87.0214	9
88.0283	27
89.0265	25
89.0377	21
90.033	196
91.042	86
92.0249	84
92.0472	15
93.033	37
94.0209	35
95.0288	170
98.9998	51
99.0218	15
100.0174	82
102.0336	659
103.041	37
104.0264	13
104.0369	17
104.0479	23
105.0113	23
105.0322	119
106.0195	102
107.0272	151
108.0261	19
108.0361	17
109.0282	15
110.9993	596
113.0254	37
114.0332	96
115.0413	56
116.0361	41
117.0428	27
118.0246	11
118.0499	19
119.0349	33
120.0244	11
120.043	29
121.031	78
122.039	76
123.0337	47
124.018	21
127.0282	21
127.9999	17
128.0404	23
129.0437	133
130.0394	457
131.0174	11
132.0234	225
133.0309	264
134.039	49
135.0345	9
137.0257	33
138.0102	31
139.0045	176
139.0255	19
139.0503	9
140.0362	68
140.9891	70
141.0437	21
142.0405	19
143.0435	19
144.0289	17
145.0362	52
146.0295	13
146.0437	9
147.0338	43
147.9948	17
148.0282	21
149.0292	56
150.034	111
151.0365	9
151.0512	23
154.0398	27
155.0351	11
158.0293	17
159.0329	62
160.0402	86
161.0282	76
162.0359	15
164.0489	13
166.0385	15
167.9988	37
168.0346	21
169.0409	162
170.0529	39
171.0448	25
173.037	11
174.0345	17
175.0263	13
175.0375	33
176.0497	68
177.057	56
178.0294	15
178.0629	21
179.0589	11
181.0423	15
182.0396	19
188.0358	174
189.0494	15
190.0526	15
191.0544	11
195.0462	51
196.0539	62
202.0509	39
203.0574	54
204.054	35
208.0585	11
215.0643	19
221.0502	41
222.0576	13
223.0701	19
224.0476	9
228.0546	11
230.069	13
234.0616	17
248.0635	17
250.0528	70
251.0609	21
263.0589	11
