Mass spectrum: 3-O-benzyl estriol; LC-ESI-QTOF; MS2; 20 V
Name: 3-O-benzyl estriol
Class: Pharmaceutical
Formula: C25H30O3
Exact mass: 378.2195
SMILES: CC12CCC3C(C1CC(C2O)O)CCC4=C3C=CC(=C4)OCC5=CC=CC=C5
InChI: InChI=1S/C25H30O3/c1-25-12-11-20-19-10-8-18(28-15-16-5-3-2-4-6-16)13-17(19)7-9-21(20)22(25)14-23(26)24(25)27/h2-6,8,10,13,20-24,26-27H,7,9,11-12,14-15H2,1H3
Instrument: TripleTOF 5600 SCIEX
Instrument type: LC-ESI-QTOF
Ms type: MS2
Ion mode: POSITIVE
Collision energy: 20
Fragmentation mode: CID
Ionization: ESI
Column name: Zorbax Eclipse Plus C18 2.1 mm x 150 mm, 3.5 um, Agilent
Retention time: 13.267 min
Precursor m/z: 379.2268
Precursor type: [M+H]+
m/z	relative intensity
91.056	598
147.1181	13
157.0631	17
159.0806	10
197.0961	61
211.1119	15
213.1312	17
225.1248	13
227.1436	13
249.1232	15
251.143	133
253.1572	20
269.1536	234
287.1637	278
301.1809	83
343.2037	87
379.2269	999
