Mass spectrum: Mandipropamid; LC-ESI-QTOF; MS2; 110 V
Name: Mandipropamid
Class: Fungicide
Formula: C23H22ClNO4
Exact mass: 411.1237
SMILES: COC1=C(C=CC(=C1)CCNC(=O)C(C2=CC=C(C=C2)Cl)OCC#C)OCC#C
InChI: InChI=1S/C23H22ClNO4/c1-4-14-28-20-11-6-17(16-21(20)27-3)12-13-25-23(26)22(29-15-5-2)18-7-9-19(24)10-8-18/h1-2,6-11,16,22H,12-15H2,3H3,(H,25,26)
Instrument: TripleTOF 6600 SCIEX
Instrument type: LC-ESI-QTOF
Ms type: MS2
Ion mode: POSITIVE
Collision energy: 110
Fragmentation mode: CID
Ionization: ESI
Column name: Zorbax Eclipse Plus C18 2.1 mm x 150 mm, 3.5 um, Agilent
Retention time: 12.239 min
Precursor m/z: 412.131
Precursor type: [M+H]+
m/z	relative intensity
39.0228	51
50.0148	28
51.0228	65
61.0057	23
62.0142	46
63.0226	200
64.0302	18
65.0384	280
66.0462	37
67.0536	28
72.9829	121
74.9986	32
75.0229	37
76.0308	37
77.038	718
78.0452	116
79.0538	112
80.0489	18
89.0379	999
90.0458	345
91.0536	695
92.0479	23
93.0568	46
94.042	37
94.0646	60
95.0485	28
98.9991	392
101.0386	32
102.0462	126
103.0532	247
104.0489	56
105.0325	37
105.0439	32
106.0654	28
107.0484	107
110.9989	32
115.0533	359
116.0469	23
116.0613	32
117.056	275
118.0401	28
118.0645	93
119.0475	46
121.0637	32
125.0143	676
126.0462	37
127.0533	70
128.0615	172
129.0461	18
130.0644	60
131.0482	42
133.0269	23
133.0514	37
134.0593	37
135.0453	23
139.0544	46
146.0605	56
147.0443	23
149.0149	23
150.0444	18
151.0533	60
152.0613	191
153.0689	93
163.0547	51
164.0612	79
165.0689	368
166.0791	28
176.061	121
177.0692	56
178.0781	228
181.0642	93
187.0519	18
188.063	28
189.0682	228
190.0747	32
191.0798	60
199.0303	18
200.0604	23
201.0678	37
202.0775	121
203.0863	28
204.0788	28
213.0716	32
215.0852	65
216.0786	28
218.0744	18
233.0858	23
