Mass spectrum: Dronabinol; LC-ESI-QTOF; MS2; 50 V
Name: Dronabinol
Class: Pharmaceutical
Formula: C21H30O2
Exact mass: 314.2246
SMILES: CCCCCC1=CC(=C2C3C=C(CCC3C(OC2=C1)(C)C)C)O
InChI: InChI=1S/C21H30O2/c1-5-6-7-8-15-12-18(22)20-16-11-14(2)9-10-17(16)21(3,4)23-19(20)13-15/h11-13,16-17,22H,5-10H2,1-4H3
Instrument: TripleTOF 6600 SCIEX
Instrument type: LC-ESI-QTOF
Ms type: MS2
Ion mode: POSITIVE
Collision energy: 50
Fragmentation mode: CID
Ionization: ESI
Column name: Zorbax Eclipse Plus C18 2.1 mm x 150 mm, 3.5 um, Agilent
Retention time: 17.589 min
Precursor m/z: 315.2319
Precursor type: [M+H]+
m/z	relative intensity
39.0223	63
41.0381	185
43.0175	12
43.0536	132
55.0172	22
55.0536	69
57.0686	14
65.0376	33
67.053	183
69.0325	22
69.0688	176
71.0844	12
77.0377	215
79.0534	226
81.0329	13
81.069	402
83.0113	17
83.0484	19
91.0531	299
93.0686	296
95.0484	119
95.0838	48
103.0533	13
105.0351	10
105.0683	115
107.0477	104
107.0839	197
108.0558	14
109.0263	12
109.0627	102
109.0998	66
111.0427	35
115.0525	18
117.0682	25
119.0477	11
119.0842	63
121.0636	88
121.0993	30
123.043	999
124.0513	10
128.0594	17
129.0703	22
131.0838	28
133.0652	22
135.0413	18
135.0774	19
135.1148	31
136.0495	40
137.0581	154
141.0684	11
142.0759	12
143.0837	18
145.0619	23
145.0979	14
147.0429	45
147.0771	18
149.0604	18
149.0954	11
151.0757	16
159.0792	23
160.0511	38
161.058	62
161.0966	12
162.0642	12
163.0744	18
165.0889	33
171.078	16
173.0597	17
174.0663	63
175.0727	48
177.0903	14
177.1275	40
185.0929	11
187.0742	29
188.0802	25
189.0874	12
189.1238	13
193.1216	455
201.0913	13
202.0977	24
207.1364	14
217.1206	84
231.1349	96
233.1509	10
241.1549	11
245.1538	16
259.1646	43
