Mass spectrum: Medroxyprogesterone-17-acetate; LC-ESI-QTOF; MS2; 90 V
Name: Medroxyprogesterone-17-acetate
Class: Pharmaceutical
Formula: C24H34O4
Exact mass: 386.2457
SMILES: CC1CC2C(CCC3(C2CCC3(C(=O)C)OC(=O)C)C)C4(C1=CC(=O)CC4)C
InChI: InChI=1S/C24H34O4/c1-14-12-18-19(22(4)9-6-17(27)13-21(14)22)7-10-23(5)20(18)8-11-24(23,15(2)25)28-16(3)26/h13-14,18-20H,6-12H2,1-5H3
Instrument: TripleTOF 5600 SCIEX
Instrument type: LC-ESI-QTOF
Ms type: MS2
Ion mode: POSITIVE
Collision energy: 90
Fragmentation mode: CID
Ionization: ESI
Column name: Zorbax Eclipse Plus C18 2.1 mm x 150 mm, 3.5 um, Agilent
Retention time: 13.723 min
Precursor m/z: 387.253
Precursor type: [M+H]+
m/z	relative intensity
39.0228	49
41.0377	49
43.0181	280
51.0227	22
53.039	44
55.0194	40
55.0547	160
65.0382	115
67.0544	361
69.0339	22
69.0701	89
77.0388	713
78.0481	22
79.0543	526
80.0629	26
81.0346	49
81.0698	147
82.0425	26
83.0489	182
91.0543	999
93.0701	254
94.0423	17
95.0501	66
95.0853	222
97.0649	691
103.0537	151
104.0617	35
105.07	633
107.0491	89
107.0852	44
108.0573	98
109.065	84
109.1013	17
115.054	343
116.0623	84
117.0697	245
118.0762	31
119.0846	245
121.0653	49
122.0744	17
123.0809	512
127.0541	107
128.0619	432
129.0696	356
130.0785	111
131.0854	236
133.1028	40
137.0956	40
139.0555	22
141.0695	361
142.0776	173
143.0847	142
144.0928	49
145.101	98
147.1178	31
152.0615	84
153.0685	156
154.0783	80
155.0863	160
156.0954	62
157.0618	17
157.1031	53
159.0818	26
159.119	26
165.0697	160
166.077	93
167.0854	133
168.0931	31
169.1016	62
171.1152	40
178.0772	57
179.0841	84
180.0932	44
181.1031	71
183.1171	22
191.0869	31
192.0943	31
193.1052	31
194.1124	17
195.1198	35
199.1142	53
209.1375	26
211.1562	17
213.128	49
221.1336	40
