Mass spectrum: 1-(o-Tolyl)-biguanide; LC-ESI-QTOF; MS2; 40 V
Name: 1-(o-Tolyl)-biguanide
Class: Industrial_process
Formula: C9H13N5
Exact mass: 191.1171
SMILES: Cc1ccccc1N=C(N)N=C(N)N
InChI: InChI=1S/C9H13N5/c1-6-4-2-3-5-7(6)13-9(12)14-8(10)11/h2-5H,1H3,(H6,10,11,12,13,14)
Instrument: TripleTOF 5600 SCIEX
Instrument type: LC-ESI-QTOF
Ms type: MS2
Ion mode: POSITIVE
Collision energy: 40
Fragmentation mode: CID
Ionization: ESI
Column name: Zorbax Eclipse Plus C18 2.1 mm x 150 mm, 3.5 um, Agilent
Retention time: 4.675 min
Precursor m/z: 192.1244
Precursor type: [M+H]+
m/z	relative intensity
43.0388	241
60.0613	435
65.0431	75
68.028	22
77.0409	51
79.0566	86
85.0527	37
89.0402	189
91.0556	782
93.0587	178
104.0493	59
106.0652	999
108.0807	235
114.0332	10
116.0492	914
117.0567	68
118.0519	96
131.06	94
132.0679	153
133.0756	765
141.044	39
150.1022	51
158.0708	57
175.0967	17
