Mass spectrum: Alpha-hydroxy-metoprolol; LC-ESI-QTOF; MS2; 130 V
Name: Alpha-hydroxy-metoprolol
Class: Pharmaceutical; Metabolite
Formula: C15H25NO4
Exact mass: 283.1784
SMILES: COCC(O)c1ccc(OCC(O)CNC(C)C)cc1
InChI: InChI=1S/C15H25NO4/c1-11(2)16-8-13(17)9-20-14-6-4-12(5-7-14)15(18)10-19-3/h4-7,11,13,15-18H,8-10H2,1-3H3
Instrument: TripleTOF 5600 SCIEX
Instrument type: LC-ESI-QTOF
Ms type: MS2
Ion mode: POSITIVE
Collision energy: 130
Fragmentation mode: CID
Ionization: ESI
Column name: Zorbax Eclipse Plus C18 2.1 mm x 150 mm, 3.5 um, Agilent
Retention time: 5.057 min
Precursor m/z: 284.1856
Precursor type: [M+H]+
m/z	relative intensity
42.0443	29
43.0278	13
44.0591	49
45.0401	26
56.0562	105
58.0705	92
64.0379	16
65.0437	310
74.018	39
75.0265	39
76.033	26
77.0421	999
78.0492	79
79.0575	29
89.04	221
91.0568	201
102.0488	36
103.0548	13
105.0352	46
107.0509	26
115.056	43
