Mass spectrum: 2-(3-Pyridyl)-1H-benzimidazole; LC-ESI-QTOF; MS2; 100 V
Name: 2-(3-Pyridyl)-1H-benzimidazole
Class: Pharmaceutical
Formula: C12H9N3
Exact mass: 195.0796
SMILES: C1=CC=C2C(=C1)NC(=N2)C3=CN=CC=C3
InChI: InChI=1S/C12H9N3/c1-2-6-11-10(5-1)14-12(15-11)9-4-3-7-13-8-9/h1-8H,(H,14,15)
Instrument: TripleTOF 5600 SCIEX
Instrument type: LC-ESI-QTOF
Ms type: MS2
Ion mode: POSITIVE
Collision energy: 100
Fragmentation mode: CID
Ionization: ESI
Column name: Zorbax Eclipse Plus C18 2.1 mm x 150 mm, 3.5 um, Agilent
Retention time: 5.155 min
Precursor m/z: 196.0869
Precursor type: [M+H]+
m/z	relative intensity
35.9992	82
37.0073	312
38.0028	16
38.0151	243
39.023	999
51.0101	13
51.0229	305
52.0178	73
52.0309	24
64.0305	24
65.0387	489
74.0151	34
75.0241	32
76.0188	26
77.0378	11
78.0347	29
88.0304	9
89.0386	16
91.0415	16
113.0377	19
140.0474	16
