Mass spectrum: Baclofen; LC-ESI-QTOF; MS2; 40 V
Name: Baclofen
Class: Pharmaceutical
Formula: C10H12ClNO2
Exact mass: 213.0557
SMILES: NCC(CC(O)=O)c1ccc(Cl)cc1
InChI: InChI=1S/C10H12ClNO2/c11-9-3-1-7(2-4-9)8(6-12)5-10(13)14/h1-4,8H,5-6,12H2,(H,13,14)
Instrument: TripleTOF 5600 SCIEX
Instrument type: LC-ESI-QTOF
Ms type: MS2
Ion mode: POSITIVE
Collision energy: 40
Fragmentation mode: CID
Ionization: ESI
Column name: Zorbax Eclipse Plus C18 2.1 mm x 150 mm, 3.5 um, Agilent
Retention time: 5.336 min
Precursor m/z: 214.0629
Precursor type: [M+H]+
m/z	relative intensity
51.0284	23
75.0285	9
77.0413	486
89.0391	45
91.0544	48
101.0386	18
102.047	34
115.0547	984
116.062	999
117.0575	11
118.0646	56
119.0506	17
119.0726	75
125.0146	135
126.0457	11
137.0135	40
140.9992	45
143.0496	18
143.072	63
144.0562	330
149.0142	29
151.0303	699
154.041	44
155.0249	37
178.0403	44
179.0231	97
196.0508	22
197.0374	17
