Mass spectrum: Terbuthylazine; LC-ESI-QTOF; MS2; 40 V
Name: Terbuthylazine
Class: Herbicide
Formula: C9H16ClN5
Exact mass: 229.1094
InChI: InChI=1S/C9H16ClN5/c1-5-11-7-12-6(10)13-8(14-7)15-9(2,3)4/h5H2,1-4H3,(H2,11,12,13,14,15)
Instrument: TripleTOF 5600 SCIEX
Instrument type: LC-ESI-QTOF
Ms type: CID
Ion mode: POSITIVE
Collision energy: 40
Ionization: ESI
Column name: Zorbax Eclipse Plus C18 2.1 mm x 150 mm, 3.5 um, Agilent
Retention time: 11.917 min
Precursor m/z: 230.1167
Precursor type: [M+H]+
m/z	relative intensity
43.0381	70
57.075	42
61.9836	77
68.0291	563
71.0639	199
79.0092	506
90.0118	25
96.0575	649
104.0022	875
110.0462	102
132.0327	570
138.0776	142
146.0232	409
174.0546	999
