Mass spectrum: Acridone; LC-ESI-QTOF; MS2; 120 V
Name: Acridone
Class: Metabolite; Pharmaceutical; Transformation_product
Formula: C13H9NO
Exact mass: 195.0684
SMILES: O=C1c2ccccc2Nc3ccccc13
InChI: InChI=1S/C13H9NO/c15-13-9-5-1-3-7-11(9)14-12-8-4-2-6-10(12)13/h1-8H,(H,14,15)
Instrument: TripleTOF 5600 SCIEX
Instrument type: LC-ESI-QTOF
Ms type: MS2
Ion mode: POSITIVE
Collision energy: 120
Fragmentation mode: CID
Ionization: ESI
Column name: Zorbax Eclipse Plus C18 2.1 mm x 150 mm, 3.5 um, Agilent
Retention time: 8.5 min
Precursor m/z: 196.0757
Precursor type: [M+H]+
m/z	relative intensity
52.0232	125
62.0498	39
65.0422	125
73.0105	62
74.0185	723
75.0264	125
76.0335	86
84.0017	212
85.0101	621
86.0173	999
87.0252	786
88.0202	125
88.0312	86
89.0403	700
97.0096	86
98.0165	519
99.0113	47
99.0225	70
109.007	133
110.0148	212
111.023	94
112.0192	39
113.0393	448
114.0368	94
115.0555	94
122.0159	39
126.0486	31
137.0384	188
138.0468	149
139.0536	220
140.0488	86
164.0494	62
