Mass spectrum: Sulfadoxine; LC-ESI-QTOF; MS2; 90 V
Name: Sulfadoxine
Class: Pharmaceutical
Formula: C12H14N4O4S
Exact mass: 310.0736
SMILES: COc1ncnc(N[S](=O)(=O)c2ccc(N)cc2)c1OC
InChI: InChI=1S/C12H14N4O4S/c1-19-10-11(14-7-15-12(10)20-2)16-21(17,18)9-5-3-8(13)4-6-9/h3-7H,13H2,1-2H3,(H,14,15,16)
Instrument: TripleTOF 5600 SCIEX
Instrument type: LC-ESI-QTOF
Ms type: MS2
Ion mode: POSITIVE
Collision energy: 90
Fragmentation mode: CID
Ionization: ESI
Column name: Zorbax Eclipse Plus C18 2.1 mm x 150 mm, 3.5 um, Agilent
Retention time: 7.083 min
Precursor m/z: 311.0809
Precursor type: [M+H]+
m/z	relative intensity
39.0303	182
53.0442	81
58.0362	31
65.0428	999
66.044	87
67.0326	56
68.0165	383
78.0347	31
80.038	43
80.0513	628
82.0294	31
85.0431	25
92.0501	301
92.0694	25
93.0576	94
94.0406	31
95.0474	62
96.0088	50
96.0556	37
105.0441	87
108.044	238
111.0424	31
112.0509	138
113.035	50
132.0563	50
