Mass spectrum: Norgestrel; LC-ESI-QTOF; MS2; 100 V
Name: Norgestrel
Class: Pharmaceutical
Formula: C21H28O2
Exact mass: 312.2089
SMILES: CCC12CCC3C(C1CCC2(C#C)O)CCC4=CC(=O)CCC34
InChI: InChI=1S/C21H28O2/c1-3-20-11-9-17-16-8-6-15(22)13-14(16)5-7-18(17)19(20)10-12-21(20,23)4-2/h2,13,16-19,23H,3,5-12H2,1H3
Instrument: TripleTOF 5600 SCIEX
Instrument type: LC-ESI-QTOF
Ms type: MS2
Ion mode: POSITIVE
Collision energy: 100
Fragmentation mode: CID
Ionization: ESI
Column name: Zorbax Eclipse Plus C18 2.1 mm x 150 mm, 3.5 um, Agilent
Retention time: 12.063 min
Precursor m/z: 313.2162
Precursor type: [M+H]+
m/z	relative intensity
43.0303	28
53.0111	9
55.0269	42
66.0531	16
67.0599	101
77.0445	999
78.0513	75
79.0603	394
81.0387	16
81.0747	108
83.0538	125
89.0439	47
91.0591	784
93.076	25
94.0443	30
95.0531	11
102.051	59
103.058	122
104.0656	14
105.0728	87
107.0524	47
107.0889	11
109.0673	44
115.0572	684
116.0648	47
117.0733	54
126.0476	30
127.0577	155
128.0646	571
129.0714	96
131.0503	16
139.0557	25
141.0709	167
142.0771	18
150.0509	16
151.0543	35
152.0642	141
153.0692	85
154.0814	18
155.0637	11
155.0857	18
164.0606	21
165.069	153
167.0862	11
176.0661	16
177.0772	9
178.0796	54
189.0697	49
190.0752	11
202.0771	23
