Mass spectrum: Ethofumesate; LC-ESI-QTOF; MS2; 40 V
Name: Ethofumesate
Class: Herbicide
Formula: C13H18O5S
Exact mass: 286.0875
SMILES: CCOC1C(c2cc(ccc2O1)OS(=O)(=O)C)(C)C
InChI: InChI=1S/C13H18O5S/c1-5-16-12-13(2,3)10-8-9(18-19(4,14)15)6-7-11(10)17-12/h6-8,12H,5H2,1-4H3
Instrument: TripleTOF 6600 SCIEX
Instrument type: LC-ESI-QTOF
Ms type: MS2
Ion mode: POSITIVE
Collision energy: 40
Fragmentation mode: CID
Ionization: ESI
Column name: Zorbax Eclipse Plus C18 2.1 mm x 150 mm, 3.5 um, Agilent
Retention time: 12.56 min
Precursor m/z: 287.0948
Precursor type: [M+H]+
m/z	relative intensity
43.0171	131
43.0547	78
53.0387	26
55.017	26
65.0383	26
77.039	157
79.0518	52
81.0318	26
91.0531	262
93.069	236
103.0544	184
105.0688	473
106.0775	26
107.0484	105
109.0263	105
109.0637	52
115.0534	341
116.0625	26
117.0695	78
121.0639	999
123.0423	26
133.0655	368
134.0708	184
135.081	52
137.06	289
143.0496	26
145.063	131
147.0427	52
149.0951	26
161.0586	473
162.0665	184
163.0743	78
