Mass spectrum: 4-Hydroxytrimethoprim; LC-ESI-QTOF; MS2; 90 V
Name: 4-Hydroxytrimethoprim
Class: Pharmaceutical; Transformation_product
Formula: C14H18N4O4
Exact mass: 306.1328
SMILES: COc1cc(cc(c1OC)OC)Cc2c(nc(nc2O)N)N
InChI: InChI=1S/C14H18N4O4/c1-20-9-5-7(6-10(21-2)11(9)22-3)4-8-12(15)17-14(16)18-13(8)19/h5-6H,4H2,1-3H3,(H5,15,16,17,18,19)
Instrument: TripleTOF 5600 SCIEX
Instrument type: LC-ESI-QTOF
Ms type: MS2
Ion mode: POSITIVE
Collision energy: 90
Fragmentation mode: CID
Ionization: ESI
Column name: Zorbax Eclipse Plus C18 2.1 mm x 150 mm, 3.5 um, Agilent
Retention time: 5.43 min
Precursor m/z: 307.1401
Precursor type: [M+H]+
m/z	relative intensity
43.0384	846
51.0283	70
52.0237	987
54.0387	470
55.0228	705
55.0464	70
60.0593	70
64.0359	58
65.0419	270
66.0515	94
68.0287	70
69.0117	129
69.0477	517
77.0407	575
78.0489	105
79.0563	199
80.0153	940
89.0403	705
90.0478	164
91.0427	47
91.0553	376
93.0344	70
94.0433	176
95.0497	58
97.0409	999
105.0333	82
107.0474	199
116.0498	58
121.0309	94
122.0363	117
130.0289	94
136.0515	70
137.0623	117
139.0624	223
148.0533	94
