Mass spectrum: Phenacetin; LC-ESI-QTOF; MS2; 120 V
Name: Phenacetin
Class: Pharmaceutical
Formula: C10H13NO2
Exact mass: 179.0946
SMILES: CCOC1=CC=C(C=C1)NC(=O)C
InChI: InChI=1S/C10H13NO2/c1-3-13-10-6-4-9(5-7-10)11-8(2)12/h4-7H,3H2,1-2H3,(H,11,12)
Instrument: TripleTOF 5600 SCIEX
Instrument type: LC-ESI-QTOF
Ms type: MS2
Ion mode: POSITIVE
Collision energy: 120
Fragmentation mode: CID
Ionization: ESI
Column name: Zorbax Eclipse Plus C18 2.1 mm x 150 mm, 3.5 um, Agilent
Retention time: 7.622 min
Precursor m/z: 180.1019
Precursor type: [M+H]+
m/z	relative intensity
35.9991	171
37.0069	646
38.0028	47
38.0151	523
39.0227	999
41.0256	38
42.0338	85
43.0178	960
44.0135	66
51.0227	256
52.0177	104
53.0013	66
53.0382	190
54.0336	123
65.0384	123
74.0152	95
77.039	38
80.049	152
