Mass spectrum: Hydrocodone; LC-ESI-QTOF; MS2; 50 V
Name: Hydrocodone
Class: Pharmaceutical; Transformation_product-Metabolite
Formula: C18H21NO3
Exact mass: 299.1521
SMILES: CN1CCC23C4C1CC5=C2C(=C(C=C5)OC)OC3C(=O)CC4
InChI: InChI=1S/C18H21NO3/c1-19-8-7-18-11-4-5-13(20)17(18)22-16-14(21-2)6-3-10(15(16)18)9-12(11)19/h3,6,11-12,17H,4-5,7-9H2,1-2H3
Instrument: TripleTOF 6600 SCIEX
Instrument type: LC-ESI-QTOF
Ms type: MS2
Ion mode: POSITIVE
Collision energy: 50
Fragmentation mode: CID
Ionization: ESI
Column name: Zorbax Eclipse Plus C18 2.1 mm x 150 mm, 3.5 um, Agilent
Retention time: 5.331 min
Precursor m/z: 300.1594
Precursor type: [M+H]+
m/z	relative intensity
44.0492	23
55.0169	16
115.0527	48
127.0538	15
128.0605	121
129.0684	24
137.0581	13
141.0686	183
143.0844	18
144.0546	19
152.0609	40
153.0688	172
154.0764	31
155.0505	14
155.0833	47
156.0549	69
157.0613	15
158.0714	17
159.0799	10
161.0573	10
165.0684	103
166.0757	10
167.0841	10
168.0562	26
169.0651	29
170.0337	13
170.0714	59
171.0792	541
172.0511	11
181.0634	164
182.0722	39
183.0438	43
183.0781	76
184.05	36
185.0593	154
185.0917	54
186.0696	21
187.0742	26
193.0632	19
194.0714	20
195.0801	17
197.0596	19
197.0946	12
198.0665	110
199.0746	999
200.0807	15
201.0905	14
210.0658	17
211.0738	18
212.0823	15
213.0895	141
215.1065	12
225.0904	38
241.0871	95
243.1015	24
285.1343	10
300.1599	64
