Mass spectrum: Nadolol; LC-ESI-QTOF; MS2; 80 V
Name: Nadolol
Class: Pharmaceutical
Formula: C17H27NO4
Exact mass: 309.194
SMILES: CC(C)(C)NCC(COC1=CC=CC2=C1CC(C(C2)O)O)O
InChI: InChI=1S/C17H27NO4/c1-17(2,3)18-9-12(19)10-22-16-6-4-5-11-7-14(20)15(21)8-13(11)16/h4-6,12,14-15,18-21H,7-10H2,1-3H3
Instrument: TripleTOF 5600 SCIEX
Instrument type: LC-ESI-QTOF
Ms type: MS2
Ion mode: POSITIVE
Collision energy: 80
Fragmentation mode: CID
Ionization: ESI
Column name: Zorbax Eclipse Plus C18 2.1 mm x 150 mm, 3.5 um, Agilent
Retention time: 5.13 min
Precursor m/z: 310.2013
Precursor type: [M+H]+
m/z	relative intensity
43.0254	14
51.0277	25
56.0544	267
57.0741	117
65.0425	62
74.0629	73
77.0409	270
78.0492	47
79.0562	43
89.0402	36
91.0564	702
102.0465	25
103.0563	164
104.0635	62
105.071	87
107.0495	80
115.0551	999
115.0906	25
115.1046	18
116.0628	120
117.0706	98
118.0424	18
119.0856	14
126.0461	40
127.0554	376
127.0805	21
128.0625	845
129.0692	102
131.0494	252
131.0798	21
132.0579	73
133.0671	21
139.0544	29
140.0665	18
141.0694	84
143.0482	14
144.0573	76
145.065	80
147.0804	14
151.0548	29
152.0615	109
153.0692	142
154.0775	36
155.0841	29
157.066	36
158.0681	18
165.0703	54
168.0579	29
169.0645	21
181.0627	25
