Mass spectrum: 14-Hydroxycodeinone; LC-ESI-QTOF; MS2; 40 V
Name: 14-Hydroxycodeinone
Class: Pharmaceutical; Transformation_product
Formula: C18H19NO4
Exact mass: 313.1314
SMILES: COc1ccc2C[C@H]3N(C)CC[C@@]45C(Oc1c24)C(=O)C=C[C@@]35O
InChI: InChI=1S/C18H19NO4/c1-19-8-7-17-14-10-3-4-12(22-2)15(14)23-16(17)11(20)5-6-18(17,21)13(19)9-10/h3-6,13,16,21H,7-9H2,1-2H3/t13-,16?,17+,18-/m1/s1
Instrument: TripleTOF 5600 SCIEX
Instrument type: LC-ESI-QTOF
Ms type: MS2
Ion mode: POSITIVE
Collision energy: 40
Fragmentation mode: CID
Ionization: ESI
Column name: Zorbax Eclipse Plus C18 2.1 mm x 150 mm, 3.5 um, Agilent
Retention time: 5.367 min
Precursor m/z: 314.1387
Precursor type: [M+H]+
m/z	relative intensity
94.0665	26
122.0585	15
128.0604	10
131.0732	15
139.0536	24
141.0689	11
144.0543	11
152.062	19
153.0683	17
155.0491	14
159.0693	44
165.0695	47
166.0752	18
167.0482	46
167.0787	37
168.0563	20
168.08	19
169.0627	11
177.0694	16
178.0785	16
179.0859	24
180.0812	11
181.0629	18
181.0875	34
182.0958	52
183.0796	17
187.0755	11
193.0869	13
194.0718	26
194.0951	31
195.0426	68
195.0792	51
196.0521	39
196.0811	26
196.1107	15
197.0586	29
197.0858	15
199.0746	14
205.0639	29
206.0718	11
207.0777	27
208.0784	18
208.1105	15
209.0897	28
210.0907	126
211.0749	35
211.099	35
212.0822	34
212.1064	25
218.0957	56
220.0739	24
221.0586	14
221.0841	34
222.0663	47
222.0911	29
223.0735	18
223.0984	75
224.0776	18
224.1061	50
225.0908	24
225.1129	19
226.085	18
227.071	66
227.1058	43
234.0906	24
235.0972	15
236.0706	11
236.106	56
237.0852	52
237.1139	37
238.0858	568
239.0936	999
240.08	26
240.1009	11
241.108	28
246.091	19
247.0988	19
248.0713	11
249.0782	12
252.1015	157
253.1087	96
254.1174	987
255.1012	81
263.0933	15
264.1016	290
265.0859	22
265.1083	37
266.0804	139
268.1328	127
278.1175	27
280.0955	75
281.1044	317
296.1281	658
314.1394	146
