Mass spectrum: Fluazifop; LC-ESI-QTOF; MS2; 60 V
Name: Fluazifop
Class: Herbicide; Transformation_product
Formula: C15H12F3NO4
Exact mass: 327.0718
SMILES: CC(C(=O)O)Oc1ccc(cc1)Oc2ccc(cn2)C(F)(F)F
InChI: InChI=1S/C15H12F3NO4/c1-9(14(20)21)22-11-3-5-12(6-4-11)23-13-7-2-10(8-19-13)15(16,17)18/h2-9H,1H3,(H,20,21)
Instrument: TripleTOF 6600 SCIEX
Instrument type: LC-ESI-QTOF
Ms type: MS2
Ion mode: NEGATIVE
Collision energy: 60
Fragmentation mode: CID
Ionization: ESI
Column name: Zorbax Eclipse Plus C18 2.1 mm x 150 mm, 3.5 um, Agilent
Retention time: 11.668 min
Precursor m/z: 326.0646
Precursor type: [M-H]-
m/z	relative intensity
41.0021	10
67.0175	10
68.9943	21
71.0128	25
74.0019	18
79.0168	18
94.9928	16
108.0208	999
114.9987	34
118.0087	9
122.0047	14
123.0253	10
124.0199	12
126.0153	16
132.0248	21
137.0217	16
138.0342	139
142.01	76
143.0287	27
144.0238	25
146.0216	12
150.0339	89
152.0308	38
158.0397	194
159.0255	18
160.0374	27
162.0162	311
163.0345	18
164.0308	102
166.0284	80
170.0198	14
170.0402	36
172.0192	21
172.037	25
178.0469	241
180.0251	20
184.0374	53
186.0177	32
186.035	124
187.0179	16
189.0394	18
190.0473	16
192.0257	31
194.0235	16
196.037	29
197.0474	16
198.0523	65
199.0249	51
200.0321	10
206.0412	300
210.0526	16
212.0326	49
214.0313	12
225.0393	23
226.0475	69
234.0368	31
253.0337	126
254.0418	29
