Mass spectrum: Progesterone; LC-ESI-QTOF; MS2; 60 V
Name: Progesterone
Class: Pharmaceutical
Formula: C21H30O2
Exact mass: 314.2246
SMILES: CC(=O)[C@H]1CC[C@H]2[C@@H]3CCC4=CC(=O)CC[C@]4(C)[C@H]3CC[C@]12C
InChI: InChI=1S/C21H30O2/c1-13(22)17-6-7-18-16-5-4-14-12-15(23)8-10-20(14,2)19(16)9-11-21(17,18)3/h12,16-19H,4-11H2,1-3H3/t16-,17+,18-,19-,20-,21+/m0/s1
Instrument: TripleTOF 5600 SCIEX
Instrument type: LC-ESI-QTOF
Ms type: MS2
Ion mode: POSITIVE
Collision energy: 60
Fragmentation mode: CID
Ionization: ESI
Column name: Zorbax Eclipse Plus C18 2.1 mm x 150 mm, 3.5 um, Agilent
Retention time: 13.796 min
Precursor m/z: 315.2319
Precursor type: [M+H]+
m/z	relative intensity
43.0274	121
53.0443	21
55.0237	37
55.0604	29
65.0424	34
66.0511	12
67.0581	115
69.0729	54
77.0415	218
79.0575	525
81.0391	19
81.0728	339
83.0513	54
91.0558	230
93.0717	84
94.042	18
95.0518	16
95.0866	93
97.0667	946
103.0539	19
105.0704	140
107.0484	20
107.0845	42
108.0562	10
109.0656	999
109.1001	15
115.0536	25
116.0631	12
117.0691	43
119.0851	73
121.0633	19
121.1015	12
123.0795	129
128.0606	34
129.0691	41
130.0792	16
131.0852	69
133.1002	23
141.0722	14
142.0776	21
143.086	36
144.0932	23
145.0992	33
155.0844	15
157.0994	24
159.1165	15
165.0683	10
167.0857	11
173.1306	11
183.1173	12
