Mass spectrum: Didesmethyl-citalopram; LC-ESI-QTOF; MS2; 40 V
Name: Didesmethyl-citalopram
Class: Pharmaceutical; Metabolite
Formula: C18H17FN2O
Exact mass: 296.1325
SMILES: c1cc(ccc1C2(c3ccc(cc3CO2)C#N)CCCN)F
InChI: InChI=1S/C18H17FN2O/c19-16-5-3-15(4-6-16)18(8-1-9-20)17-7-2-13(11-21)10-14(17)12-22-18/h2-7,10H,1,8-9,12,20H2
Instrument: TripleTOF 5600 SCIEX
Instrument type: LC-ESI-QTOF
Ms type: MS2
Ion mode: POSITIVE
Collision energy: 40
Fragmentation mode: CID
Ionization: ESI
Column name: Zorbax Eclipse Plus C18 2.1 mm x 150 mm, 3.5 um, Agilent
Retention time: 7.575 min
Precursor m/z: 297.1398
Precursor type: [M+H]+
m/z	relative intensity
83.0317	39
89.0409	23
109.0449	999
116.0499	211
140.0491	31
142.0594	18
154.0644	14
156.0809	14
166.0654	84
183.0907	31
202.0744	14
207.0606	18
208.0577	17
214.0683	16
215.087	68
218.0616	12
220.0689	65
221.0643	146
222.0714	59
226.0675	12
227.0738	200
233.0756	52
234.0719	395
235.0888	58
236.0863	12
238.0663	16
240.082	67
241.0899	51
242.0968	52
244.0693	16
245.0703	33
246.0733	166
247.0799	330
250.1018	20
259.0816	12
260.088	39
261.0961	67
262.1039	194
279.13	27
