Mass spectrum: Dexpanthenol; LC-ESI-QTOF; MS2; 70 V
Name: Dexpanthenol
Formula: C9H19NO4
Exact mass: 205.1314
SMILES: CC(C)(CO)C(C(=O)NCCCO)O
InChI: InChI=1S/C9H19NO4/c1-9(2,6-12)7(13)8(14)10-4-3-5-11/h7,11-13H,3-6H2,1-2H3,(H,10,14)
Instrument: TripleTOF 6600 SCIEX
Instrument type: LC-ESI-QTOF
Ms type: MS2
Ion mode: POSITIVE
Collision energy: 70
Fragmentation mode: CID
Ionization: ESI
Column name: Zorbax Eclipse Plus C18 2.1 mm x 150 mm, 3.5 um, Agilent
Retention time: 4.791 min
Precursor m/z: 206.1387
Precursor type: [M+H]+
m/z	relative intensity
30.0333	67
31.0178	188
37.0069	134
38.0153	67
39.0225	999
41.0386	762
42.0327	60
43.0178	425
43.0402	74
45.0324	40
46.0282	33
55.0526	40
56.0126	722
58.064	60
65.0371	67
67.0534	33
80.048	40
