Mass spectrum: 4-Acetylbenzoic acid; LC-ESI-QTOF; MS2; 30 V
Name: 4-Acetylbenzoic acid
Class: Pharmaceutical; Industrial_process
Formula: C9H8O3
Exact mass: 164.0473
SMILES: CC(=O)c1ccc(cc1)C(O)=O
InChI: InChI=1S/C9H8O3/c1-6(10)7-2-4-8(5-3-7)9(11)12/h2-5H,1H3,(H,11,12)
Instrument: TripleTOF 5600 SCIEX
Instrument type: LC-ESI-QTOF
Ms type: MS2
Ion mode: POSITIVE
Collision energy: 30
Fragmentation mode: CID
Ionization: ESI
Column name: Zorbax Eclipse Plus C18 2.1 mm x 150 mm, 3.5 um, Agilent
Retention time: 7.099 min
Precursor m/z: 165.0546
Precursor type: [M+H]+
m/z	relative intensity
43.0253	999
77.0415	322
79.0582	257
105.0308	161
137.0613	193
