Mass spectrum: N,N`-diphenyl-p-phenylenediamine; LC-ESI-QTOF; MS2; 110 V
Name: N,N`-diphenyl-p-phenylenediamine
Class: Industrial_process
Formula: C18H16N2
Exact mass: 260.1313
SMILES: N(c1ccccc1)c2ccc(Nc3ccccc3)cc2
InChI: InChI=1S/C18H16N2/c1-3-7-15(8-4-1)19-17-11-13-18(14-12-17)20-16-9-5-2-6-10-16/h1-14,19-20H
Instrument: TripleTOF 5600 SCIEX
Instrument type: LC-ESI-QTOF
Ms type: MS2
Ion mode: POSITIVE
Collision energy: 110
Fragmentation mode: CID
Ionization: ESI
Column name: Zorbax Eclipse Plus C18 2.1 mm x 150 mm, 3.5 um, Agilent
Retention time: 14.544 min
Precursor m/z: 261.1386
Precursor type: [M+H]+
m/z	relative intensity
52.033	33
54.0407	23
62.0457	10
64.0349	65
65.0304	14
65.0423	147
66.0495	82
74.0185	54
75.0257	88
76.0334	27
77.0416	314
78.0461	162
79.0432	10
79.0528	12
80.053	999
86.0176	16
87.0238	48
88.0308	44
89.0248	10
89.0409	225
90.0418	118
91.0429	25
91.0516	25
92.0519	16
92.0638	10
93.0582	33
99.0211	10
100.0222	10
101.0383	52
102.0455	99
103.0518	50
105.0448	25
106.0519	16
107.0611	139
113.0382	115
114.0403	75
115.054	164
116.056	50
117.0566	18
118.0587	10
126.0478	54
127.0536	210
128.0608	299
129.0651	113
130.0658	23
137.0394	25
138.0467	25
139.0545	318
140.0511	307
141.0526	52
141.0687	10
153.0547	16
153.0682	10
154.0646	107
155.0662	33
156.0833	14
164.0474	29
165.0546	18
166.0654	145
167.0716	96
168.0757	12
181.0782	44
182.0853	16
