Mass spectrum: Ranitidine; LC-ESI-QTOF; MS2; 130 V
Name: Ranitidine
Class: Pharmaceutical
Formula: C13H22N4O3S
Exact mass: 314.1413
SMILES: CNC(=C[N+](=O)[O-])NCCSCC1=CC=C(O1)CN(C)C
InChI: InChI=1S/C13H22N4O3S/c1-14-13(9-17(18)19)15-6-7-21-10-12-5-4-11(20-12)8-16(2)3/h4-5,9,14-15H,6-8,10H2,1-3H3
Instrument: TripleTOF 5600 SCIEX
Instrument type: LC-ESI-QTOF
Ms type: MS2
Ion mode: POSITIVE
Collision energy: 130
Fragmentation mode: CID
Ionization: ESI
Column name: Zorbax Eclipse Plus C18 2.1 mm x 150 mm, 3.5 um, Agilent
Retention time: 4.832 min
Precursor m/z: 315.1485
Precursor type: [M+H]+
m/z	relative intensity
39.0303	149
43.0323	57
44.0611	57
45.0017	68
51.0285	574
52.0354	57
53.0437	620
54.0385	172
55.0341	57
55.0455	103
56.0543	436
57.0483	195
58.0708	68
58.9996	241
65.0429	355
66.0494	137
67.0449	103
68.0538	241
68.9828	91
70.0674	45
71.0002	68
74.0094	68
77.0415	999
77.0669	57
78.0357	126
78.0481	103
79.0208	80
79.0436	45
79.0563	126
80.0171	68
80.0509	241
81.0348	459
81.046	367
82.0545	195
83.0638	68
89.04	91
91.0554	103
92.0495	114
93.0614	91
94.0431	91
94.0654	183
95.0622	68
96.0683	172
97.0102	114
97.0765	275
102.0364	195
104.0503	103
105.0409	45
105.0544	57
106.064	57
119.0603	80
132.0438	68
