Mass spectrum: Mirtazapine; LC-ESI-QTOF; MS2; 40 V
Name: Mirtazapine
Class: Pharmaceutical
Formula: C17H19N3
Exact mass: 265.1579
SMILES: CN1CCN2C(C1)C3=CC=CC=C3CC4=C2N=CC=C4
InChI: InChI=1S/C17H19N3/c1-19-9-10-20-16(12-19)15-7-3-2-5-13(15)11-14-6-4-8-18-17(14)20/h2-8,16H,9-12H2,1H3
Instrument: TripleTOF 5600 SCIEX
Instrument type: LC-ESI-QTOF
Ms type: MS2
Ion mode: POSITIVE
Collision energy: 40
Fragmentation mode: CID
Ionization: ESI
Column name: Zorbax Eclipse Plus C18 2.1 mm x 150 mm, 3.5 um, Agilent
Retention time: 5.459 min
Precursor m/z: 266.1652
Precursor type: [M+H]+
m/z	relative intensity
70.0707	13
72.0864	160
91.0575	10
92.0524	44
115.0554	30
131.0676	24
144.0817	14
167.0727	30
168.0806	34
178.066	34
179.0715	17
180.0809	51
181.0822	12
182.0971	29
192.0787	18
193.0745	15
194.0835	249
195.091	999
206.0845	10
207.0913	30
208.1009	10
209.1071	155
218.0961	13
219.0897	31
220.0981	11
223.1222	22
235.1215	29
264.1492	12
