Mass spectrum: Flunixin; LC-ESI-QTOF; MS2; 20 V
Name: Flunixin
Class: Pharmaceutical
Formula: C14H11F3N2O2
Exact mass: 296.0773
SMILES: CC1=C(C=CC=C1NC2=C(C=CC=N2)C(=O)O)C(F)(F)F
InChI: InChI=1S/C14H11F3N2O2/c1-8-10(14(15,16)17)5-2-6-11(8)19-12-9(13(20)21)4-3-7-18-12/h2-7H,1H3,(H,18,19)(H,20,21)
Instrument: TripleTOF 5600 SCIEX
Instrument type: LC-ESI-QTOF
Ms type: MS2
Ion mode: POSITIVE
Collision energy: 20
Fragmentation mode: CID
Ionization: ESI
Column name: Zorbax Eclipse Plus C18 2.1 mm x 150 mm, 3.5 um, Agilent
Retention time: 11.023 min
Precursor m/z: 297.0845
Precursor type: [M+H]+
m/z	relative intensity
239.0615	21
259.0679	15
264.0497	24
277.0781	48
279.0729	773
297.0837	999
