Mass spectrum: Nitenpyram; LC-ESI-QTOF; MS2; 20 V
Name: Nitenpyram
Class: Pharmaceutical; Insecticide
Formula: C11H15ClN4O2
Exact mass: 270.0884
SMILES: CCN(Cc1ccc(Cl)nc1)\C(NC)=C\[N+]([O-])=O
InChI: InChI=1S/C11H15ClN4O2/c1-3-15(11(13-2)8-16(17)18)7-9-4-5-10(12)14-6-9/h4-6,8,13H,3,7H2,1-2H3/b11-8+
Instrument: TripleTOF 5600 SCIEX
Instrument type: LC-ESI-QTOF
Ms type: MS2
Ion mode: POSITIVE
Collision energy: 20
Fragmentation mode: CID
Ionization: ESI
Column name: Zorbax Eclipse Plus C18 2.1 mm x 150 mm, 3.5 um, Agilent
Retention time: 5.386 min
Precursor m/z: 271.0956
Precursor type: [M+H]+
m/z	relative intensity
56.0552	79
58.0709	11
85.0401	18
85.0786	15
86.0851	61
98.0724	11
99.055	11
99.0922	299
114.1017	11
115.085	31
126.0097	50
129.0885	37
130.0964	43
153.0322	22
160.0863	14
166.0288	16
167.0355	18
169.0511	88
170.0613	10
176.1165	10
179.0362	14
181.0514	32
188.1157	17
189.125	102
190.1328	90
194.0598	160
195.0667	69
196.0624	314
210.079	104
212.0948	14
224.0933	258
225.1017	999
237.0883	80
271.0946	424
