Mass spectrum: Metamitron; LC-ESI-QTOF; MS2; 50 V
Name: Metamitron
Class: Herbicide
Formula: C10H10N4O
Exact mass: 202.0855
SMILES: CC1=NN=C(c2ccccc2)C(=O)N1N
InChI: InChI=1S/C10H10N4O/c1-7-12-13-9(10(15)14(7)11)8-5-3-2-4-6-8/h2-6H,11H2,1H3
Instrument: TripleTOF 5600 SCIEX
Instrument type: LC-ESI-QTOF
Ms type: MS2
Ion mode: POSITIVE
Collision energy: 50
Fragmentation mode: CID
Ionization: ESI
Column name: Zorbax Eclipse Plus C18 2.1 mm x 150 mm, 3.5 um, Agilent
Retention time: 6.783 min
Precursor m/z: 203.0927
Precursor type: [M+H]+
m/z	relative intensity
42.0438	591
43.0496	20
44.0611	11
55.0366	22
56.0188	16
57.0523	33
59.0303	27
65.0441	44
77.0416	873
79.0564	42
80.0521	18
83.0251	14
89.0401	86
91.0445	51
92.0504	16
93.0573	12
103.0426	12
103.0533	14
104.0498	999
105.0594	20
107.0597	12
118.0532	66
145.0688	11
175.0982	12
