Mass spectrum: 5-Chlorobenzotriazole; LC-ESI-QTOF; MS2; 90 V
Name: 5-Chlorobenzotriazole
Class: Industrial_process
Formula: C6H4ClN3
Exact mass: 153.0094
SMILES: Clc1ccc2n[nH]nc2c1
InChI: InChI=1S/C6H4ClN3/c7-4-1-2-5-6(3-4)9-10-8-5/h1-3H,(H,8,9,10)
Instrument: TripleTOF 5600 SCIEX
Instrument type: LC-ESI-QTOF
Ms type: MS2
Ion mode: POSITIVE
Collision energy: 90
Fragmentation mode: CID
Ionization: ESI
Column name: Zorbax Eclipse Plus C18 2.1 mm x 150 mm, 3.5 um, Agilent
Retention time: 7.635 min
Precursor m/z: 154.0167
Precursor type: [M+H]+
m/z	relative intensity
40.0264	15
41.035	28
51.0178	50
52.0252	221
60.0043	133
65.0294	55
71.9785	21
72.9876	999
74.0168	54
75.0133	263
76.0207	97
88.0192	12
89.0267	12
90.0344	16
