Mass spectrum: Diflufenican; LC-ESI-QTOF; MS2; 80 V
Name: Diflufenican
Class: Herbicide
Formula: C19H11F5N2O2
Exact mass: 394.0741
SMILES: C1=CC(=CC(=C1)OC2=C(C=CC=N2)C(=O)NC3=C(C=C(C=C3)F)F)C(F)(F)F
InChI: InChI=1S/C19H11F5N2O2/c20-12-6-7-16(15(21)10-12)26-17(27)14-5-2-8-25-18(14)28-13-4-1-3-11(9-13)19(22,23)24/h1-10H,(H,26,27)
Instrument: TripleTOF 6600 SCIEX
Instrument type: LC-ESI-QTOF
Ms type: MS2
Ion mode: POSITIVE
Collision energy: 80
Fragmentation mode: CID
Ionization: ESI
Column name: Zorbax Eclipse Plus C18 2.1 mm x 150 mm, 3.5 um, Agilent
Retention time: 14.853 min
Precursor m/z: 395.0814
Precursor type: [M+H]+
m/z	relative intensity
39.0234	52
51.0242	62
63.0239	41
66.0341	20
74.0152	31
75.0232	78
78.0338	224
87.0218	26
88.0299	26
94.0282	62
95.029	141
107.0282	31
113.0207	26
113.0384	88
114.0469	214
115.0553	36
122.0203	36
123.0235	151
124.0188	47
125.0199	94
126.045	31
129.0353	57
131.0295	52
132.029	52
133.045	381
134.0409	41
138.0331	41
140.0312	26
140.0495	507
141.024	20
141.057	339
142.0409	36
143.0288	277
144.0343	36
145.026	674
145.0444	26
150.0333	162
151.0364	88
152.0295	41
153.0565	36
157.0319	67
158.0393	266
160.0556	31
162.0274	20
163.035	308
164.0377	193
165.0413	115
166.0487	20
168.0256	31
168.045	130
169.0521	512
170.0394	298
171.0495	67
172.0364	41
172.0553	57
173.0352	36
175.0326	41
176.0301	62
177.0392	26
178.0393	78
182.033	256
183.0409	460
184.0412	125
185.0499	88
188.0313	52
188.0478	41
189.0377	135
190.0457	512
191.0397	188
193.0327	20
196.0396	57
198.0346	120
200.0494	31
204.0499	125
208.0373	47
209.046	31
210.0515	52
214.0481	31
218.0414	999
232.0404	20
238.0478	167
246.0346	151
259.0673	20
266.0415	31
