Mass spectrum: Methyltriphenylphosphonium; LC-ESI-QTOF; MS2; 130 V
Name: Methyltriphenylphosphonium
Class: Pharmaceutical
Formula: [C19H18P]+
Exact mass: 277.1141
SMILES: C[P+](c1ccccc1)(c2ccccc2)c3ccccc3
InChI: InChI=1S/C19H18P/c1-20(17-11-5-2-6-12-17,18-13-7-3-8-14-18)19-15-9-4-10-16-19/h2-16H,1H3/q+1
Instrument: TripleTOF 5600 SCIEX
Instrument type: LC-ESI-QTOF
Ms type: MS2
Ion mode: POSITIVE
Collision energy: 130
Fragmentation mode: CID
Ionization: ESI
Column name: Zorbax Eclipse Plus C18 2.1 mm x 150 mm, 3.5 um, Agilent
Retention time: 7.192 min
Precursor m/z: 277.1141
Precursor type: [M]+
m/z	relative intensity
51.0283	142
55.9876	71
56.9946	160
65.0425	145
67.9842	59
74.0167	115
76.0329	112
77.041	207
78.0471	53
78.9759	85
79.9821	317
80.9907	429
86.0173	56
87.0234	121
89.0393	426
91.9805	50
98.0145	88
102.0461	177
103.9791	118
104.9894	56
107.0043	999
113.0387	142
115.0539	311
125.0382	68
126.0461	426
131.0031	151
133.0207	50
139.0532	243
150.0457	459
151.0536	637
152.0618	601
155.0024	112
156.0134	145
157.0207	397
179.0046	106
180.0114	136
181.0196	459
