Mass spectrum: Simvastatin; LC-ESI-QTOF; MS2; 40 V
Name: Simvastatin
Class: Pharmaceutical
Formula: C25H38O5
Exact mass: 418.2719
SMILES: CCC(C)(C)C(=O)O[C@H]1C[C@@H](C)C=C2C=C[C@H](C)[C@H](CC[C@@H]3C[C@@H](O)CC(=O)O3)[C@@H]12
InChI: InChI=1S/C25H38O5/c1-6-25(4,5)24(28)30-21-12-15(2)11-17-8-7-16(3)20(23(17)21)10-9-19-13-18(26)14-22(27)29-19/h7-8,11,15-16,18-21,23,26H,6,9-10,12-14H2,1-5H3/t15-,16-,18+,19+,20-,21-,23-/m0/s1
Instrument: TripleTOF 5600 SCIEX
Instrument type: LC-ESI-QTOF
Ms type: MS2
Ion mode: POSITIVE
Collision energy: 40
Fragmentation mode: CID
Ionization: ESI
Column name: Zorbax Eclipse Plus C18 2.1 mm x 150 mm, 3.5 um, Agilent
Retention time: 15.438 min
Precursor m/z: 419.2792
Precursor type: [M+H]+
m/z	relative intensity
79.0551	43
81.072	75
83.0508	31
85.0683	19
91.0561	27
93.0707	27
95.0866	23
97.0637	39
105.0691	67
107.0848	103
108.0447	27
119.0837	31
121.1006	35
125.058	19
128.0616	15
129.0701	19
131.085	115
133.0999	43
135.1166	15
141.0685	15
142.0773	31
143.0844	211
145.1005	183
147.1163	19
155.0861	71
156.0953	23
157.1002	175
158.1078	35
159.1157	263
161.1327	23
163.1089	19
165.088	15
169.1002	207
171.1164	203
173.1316	691
181.1001	39
183.1158	107
183.1295	15
185.1284	35
191.1057	51
193.0975	35
195.1146	35
197.1318	135
199.1472	999
201.1623	163
203.1057	15
207.1153	59
211.1092	19
211.1462	47
215.175	31
219.1166	19
221.1307	39
223.1474	175
225.1248	43
225.1631	703
229.1238	27
234.1354	15
239.1762	115
243.1715	179
249.1627	139
267.1741	87
285.183	99
