Mass spectrum: Hydrocortisone; LC-ESI-QTOF; MS2; 30 V
Name: Hydrocortisone
Class: Pharmaceutical
Formula: C21H30O5
Exact mass: 362.2093
SMILES: C[C@]12CCC(=O)C=C1CC[C@H]3[C@@H]4CC[C@](O)(C(=O)CO)[C@@]4(C)C[C@H](O)[C@H]23
InChI: InChI=1S/C21H30O5/c1-19-7-5-13(23)9-12(19)3-4-14-15-6-8-21(26,17(25)11-22)20(15,2)10-16(24)18(14)19/h9,14-16,18,22,24,26H,3-8,10-11H2,1-2H3/t14-,15-,16-,18+,19-,20-,21-/m0/s1
Instrument: TripleTOF 5600 SCIEX
Instrument type: LC-ESI-QTOF
Ms type: MS2
Ion mode: POSITIVE
Collision energy: 30
Fragmentation mode: CID
Ionization: ESI
Column name: Zorbax Eclipse Plus C18 2.1 mm x 150 mm, 3.5 um, Agilent
Retention time: 8.323 min
Precursor m/z: 363.2166
Precursor type: [M+H]+
m/z	relative intensity
67.0581	9
77.0419	11
79.0578	17
81.073	30
83.0519	22
91.0563	35
93.0717	45
95.0515	9
95.0866	35
97.0658	210
99.0448	17
105.0699	64
107.0858	51
109.0656	131
111.0449	9
111.0807	19
115.0575	11
117.0713	22
119.0848	122
121.0652	999
121.0984	38
123.0805	180
123.121	14
125.0587	14
128.06	9
129.0695	37
131.0857	96
133.0662	16
133.1003	61
135.0803	135
135.1155	19
137.0593	9
137.0963	40
139.075	11
141.0691	30
143.0852	144
145.067	32
145.1004	175
147.0803	46
147.1162	168
149.0956	54
149.1323	38
151.075	19
153.0911	11
155.085	61
157.0626	17
157.1007	176
159.0796	54
159.1162	148
161.0969	85
161.1318	32
163.1111	125
165.0937	16
167.0846	24
168.0924	12
169.1001	136
171.0805	64
171.1164	104
172.1236	17
173.0959	144
173.1331	78
175.1118	144
177.0924	17
177.1255	30
179.0847	9
179.1047	11
181.1003	62
183.0811	11
183.1151	133
185.0949	85
185.1306	96
187.1107	191
187.1453	20
189.1267	82
191.1065	12
193.1011	22
193.1194	11
195.1168	67
197.0958	41
197.1322	59
199.1112	88
199.1471	43
201.1272	96
203.1069	20
203.146	22
205.1061	11
205.1227	41
207.1146	54
207.1345	9
208.1236	9
209.0995	25
209.132	162
211.1119	53
211.1468	86
213.1274	111
213.1581	20
215.1432	70
217.1241	20
217.1606	11
219.1184	16
219.1367	32
221.1326	67
223.1137	41
223.1481	123
224.1582	12
225.1279	175
225.1628	61
227.1407	109
227.1774	20
229.1224	14
229.158	46
231.1362	70
233.1356	30
235.1103	24
235.1482	48
237.128	38
237.1589	24
239.1091	11
239.1416	173
239.1813	24
241.1222	12
241.1572	286
242.1718	11
243.1371	35
243.1748	96
245.1538	25
247.1472	41
249.131	37
249.1635	141
250.1691	12
251.1428	133
251.178	93
252.1497	11
253.1199	12
253.1568	94
253.1908	19
255.1764	22
257.153	33
257.1871	12
261.1598	43
263.1449	35
263.1778	74
265.1586	59
266.1684	25
267.1391	35
267.1747	487
268.182	115
269.1539	46
269.1888	366
271.1678	33
271.1992	11
273.1638	43
276.1546	19
279.1754	115
281.154	70
281.1895	223
283.1641	27
285.1842	78
286.1897	16
287.2009	51
291.1746	252
297.1852	328
299.1612	22
299.2013	59
301.1883	14
309.1847	608
312.1703	14
315.1961	86
327.1957	698
345.206	262
363.2163	920
