Mass spectrum: 3-Iodoprop-2-yn-1-yl butylcarbamate; LC-ESI-QTOF; MS2; 40 V
Name: 3-Iodoprop-2-yn-1-yl butylcarbamate
Class: Fungicide; Personal_care_product
Formula: C8H12INO2
Exact mass: 280.9913
SMILES: CCCCNC(=O)OCC#CI
InChI: InChI=1S/C8H12INO2/c1-2-3-6-10-8(11)12-7-4-5-9/h2-3,6-7H2,1H3,(H,10,11)
Instrument: TripleTOF 5600 SCIEX
Instrument type: LC-ESI-QTOF
Ms type: MS2
Ion mode: POSITIVE
Collision energy: 40
Fragmentation mode: CID
Ionization: ESI
Column name: Zorbax Eclipse Plus C18 2.1 mm x 150 mm, 3.5 um, Agilent
Retention time: 11.443 min
Precursor m/z: 281.9986
Precursor type: [M+H]+
m/z	relative intensity
57.074	23
164.9194	999
