Mass spectrum: Sulfluramid; LC-ESI-QTOF; MS2; 50 V
Name: Sulfluramid
Formula: C10H6F17NO2S
Exact mass: 526.9848
SMILES: CCNS(=O)(=O)C(C(C(C(C(C(C(C(F)(F)F)(F)F)(F)F)(F)F)(F)F)(F)F)(F)F)(F)F
InChI: InChI=1S/C10H6F17NO2S/c1-2-28-31(29,30)10(26,27)8(21,22)6(17,18)4(13,14)3(11,12)5(15,16)7(19,20)9(23,24)25/h28H,2H2,1H3
Instrument: TripleTOF 6600 SCIEX
Instrument type: LC-ESI-QTOF
Ms type: MS2
Ion mode: NEGATIVE
Collision energy: 50
Fragmentation mode: CID
Ionization: ESI
Column name: Zorbax Eclipse Plus C18 2.1 mm x 150 mm, 3.5 um, Agilent
Retention time: 16.156 min
Precursor m/z: 525.9775
Precursor type: [M-H]-
m/z	relative intensity
63.9596	119
64.9672	215
82.9573	76
118.9891	339
125.9989	167
168.9856	999
218.981	272
225.9876	28
242.983	23
266.977	23
268.9766	81
292.98	33
361.9806	76
375.9711	38
418.9644	23
477.9362	23
525.9655	186
