Mass spectrum: 2'-Bromo-5-chloro-2-hydroxybenzophenone; LC-ESI-QTOF; MS2; 40 V
Name: 2'-Bromo-5-chloro-2-hydroxybenzophenone
Formula: C13H8BrClO2
Exact mass: 309.9396
SMILES: C1=CC=C(C(=C1)C(=O)C2=C(C=CC(=C2)Cl)O)Br
InChI: InChI=1S/C13H8BrClO2/c14-11-4-2-1-3-9(11)13(17)10-7-8(15)5-6-12(10)16/h1-7,16H
Instrument: TripleTOF 5600 SCIEX
Instrument type: LC-ESI-QTOF
Ms type: MS2
Ion mode: POSITIVE
Collision energy: 40
Fragmentation mode: CID
Ionization: ESI
Column name: Zorbax Eclipse Plus C18 2.1 mm x 150 mm, 3.5 um, Agilent
Retention time: 15.09 min
Precursor m/z: 312.9441
Precursor type: [M+H]+
m/z	relative intensity
72.9865	62
98.9998	161
99.018	61
100.9972	139
126.9953	251
128.9921	83
154.9485	101
154.9884	999
155.0096	162
156.9465	264
156.9854	360
182.944	126
182.9537	77
184.9394	431
312.9378	86
