Mass spectrum: Fluquinconazole; LC-ESI-QTOF; MS2; 30 V
Name: Fluquinconazole
Class: Fungicide
Formula: C16H8Cl2FN5O
Exact mass: 375.009
SMILES: C1=CC2=C(C=C1F)C(=O)N(C(=N2)N3C=NC=N3)C4=C(C=C(C=C4)Cl)Cl
InChI: InChI=1S/C16H8Cl2FN5O/c17-9-1-4-14(12(18)5-9)24-15(25)11-6-10(19)2-3-13(11)22-16(24)23-8-20-7-21-23/h1-8H
Instrument: TripleTOF 6600 SCIEX
Instrument type: LC-ESI-QTOF
Ms type: MS2
Ion mode: POSITIVE
Collision energy: 30
Fragmentation mode: CID
Ionization: ESI
Column name: Zorbax Eclipse Plus C18 2.1 mm x 150 mm, 3.5 um, Agilent
Retention time: 12.549 min
Precursor m/z: 376.0163
Precursor type: [M+H]+
m/z	relative intensity
163.0289	27
272.0153	36
306.9845	471
314.0369	14
331.9793	14
349.0068	999
376.0169	70
