Mass spectrum: Triadimefon; LC-ESI-QTOF; MS2; 130 V
Name: Triadimefon
Class: Fungicide; Transformation_product
Formula: C14H16ClN3O2
Exact mass: 293.0931
SMILES: CC(C)(C)C(=O)C(N1C=NC=N1)OC2=CC=C(C=C2)Cl
InChI: InChI=1S/C14H16ClN3O2/c1-14(2,3)12(19)13(18-9-16-8-17-18)20-11-6-4-10(15)5-7-11/h4-9,13H,1-3H3
Instrument: TripleTOF 5600 SCIEX
Instrument type: LC-ESI-QTOF
Ms type: MS2
Ion mode: POSITIVE
Collision energy: 130
Fragmentation mode: CID
Ionization: ESI
Column name: Zorbax Eclipse Plus C18 2.1 mm x 150 mm, 3.5 um, Agilent
Retention time: 12.319 min
Precursor m/z: 294.1004
Precursor type: [M+H]+
m/z	relative intensity
37.0076	53
38.0154	59
39.0232	275
41.0389	135
43.0306	14
46.969	19
48.984	30
49.007	14
50.0152	95
51.0231	123
55.0545	33
57.07	177
60.9841	19
61.0078	11
62.0152	33
63.0233	75
65.0382	87
66.0468	19
70.0403	70
72.9838	278
73.0076	84
74.0153	999
75.0227	571
76.0308	30
77.0383	33
82.0422	11
84.9838	101
91.0544	19
98.9994	45
102.0473	19
111.0009	30
115.0536	14
128.0047	11
