Mass spectrum: Alachlor; LC-ESI-QTOF; MS2; 30 V
Name: Alachlor
Class: Herbicide
Formula: C14H20ClNO2
Exact mass: 269.1183
SMILES: CCC1=C(C(=CC=C1)CC)N(COC)C(=O)CCl
InChI: InChI=1S/C14H20ClNO2/c1-4-11-7-6-8-12(5-2)14(11)16(10-18-3)13(17)9-15/h6-8H,4-5,9-10H2,1-3H3
Instrument: TripleTOF 6600 SCIEX
Instrument type: LC-ESI-QTOF
Ms type: MS2
Ion mode: POSITIVE
Collision energy: 30
Fragmentation mode: CID
Ionization: ESI
Column name: Zorbax Eclipse Plus C18 2.1 mm x 150 mm, 3.5 um, Agilent
Retention time: 13.233 min
Precursor m/z: 270.1255
Precursor type: [M+H]+
m/z	relative intensity
31.0171	61
41.0381	18
45.0324	235
59.0487	186
76.9767	33
90.0089	173
91.0526	14
105.0693	13
117.0548	16
117.0675	9
118.0634	26
120.0794	20
130.0706	20
131.083	63
132.0782	85
133.0871	162
134.0955	65
143.071	20
144.0781	24
145.0988	35
146.0948	78
147.1022	235
148.1107	911
149.0942	91
156.079	11
158.0965	24
159.1018	16
160.111	29
161.1179	52
162.1261	999
163.109	255
170.093	24
171.1092	11
172.1121	16
173.0836	20
174.089	22
174.1249	11
184.1139	35
185.1184	20
192.0564	31
194.0697	13
206.0715	130
208.0858	48
210.0645	28
220.0869	125
224.0827	239
238.0987	323
240.1118	11
