Mass spectrum: 3-Hydroxycarbamazepine; LC-ESI-QTOF; MS2; 110 V
Name: 3-Hydroxycarbamazepine
Class: Pharmaceutical
Formula: C15H12N2O2
Exact mass: 252.0899
SMILES: NC(=O)N1c2ccccc2C=Cc3ccc(O)cc13
InChI: InChI=1S/C15H12N2O2/c16-15(19)17-13-4-2-1-3-10(13)5-6-11-7-8-12(18)9-14(11)17/h1-9,18H,(H2,16,19)
Instrument: TripleTOF 5600 SCIEX
Instrument type: LC-ESI-QTOF
Ms type: MS2
Ion mode: POSITIVE
Collision energy: 110
Fragmentation mode: CID
Ionization: ESI
Column name: Zorbax Eclipse Plus C18 2.1 mm x 150 mm, 3.5 um, Agilent
Retention time: 7.917 min
Precursor m/z: 253.0972
Precursor type: [M+H]+
m/z	relative intensity
44.0214	16
52.0366	25
60.0052	16
63.0628	16
64.0326	16
65.0415	128
73.0104	22
74.0178	239
74.0473	13
75.025	345
75.0507	13
76.0338	91
77.0417	528
78.036	11
78.0487	64
85.0084	22
86.0165	97
87.0247	192
88.0187	36
88.0318	72
88.0479	13
89.04	748
90.0353	13
90.0471	61
91.0544	27
98.0159	97
99.0223	102
100.0303	25
101.039	186
102.0329	25
102.0463	172
103.0532	11
104.0514	16
110.0148	27
111.0228	44
112.0319	13
113.0382	461
114.0384	136
115.0541	286
116.0498	30
117.0603	11
122.0157	19
123.0217	19
124.0297	22
125.0371	153
126.0459	406
127.0536	275
128.0493	147
129.0436	30
134.0126	11
137.0374	116
138.0452	91
139.0535	806
139.0937	11
140.0483	506
141.0593	13
149.0382	52
150.0461	450
151.0535	734
152.0607	999
153.0597	91
154.0635	50
161.0385	61
162.0461	122
163.0533	392
164.0477	111
164.0611	61
165.063	69
166.0647	86
175.0384	13
176.0502	58
177.0563	178
178.064	358
179.0722	83
180.0787	36
188.0478	97
189.0573	58
190.0641	89
191.0715	22
