Mass spectrum: Ranitidine; LC-ESI-QTOF; MS2; 30 V
Name: Ranitidine
Class: Pharmaceutical
Formula: C13H22N4O3S
Exact mass: 314.1413
SMILES: CNC(=C[N+](=O)[O-])NCCSCC1=CC=C(O1)CN(C)C
InChI: InChI=1S/C13H22N4O3S/c1-14-13(9-17(18)19)15-6-7-21-10-12-5-4-11(20-12)8-16(2)3/h4-5,9,14-15H,6-8,10H2,1-3H3
Instrument: TripleTOF 5600 SCIEX
Instrument type: LC-ESI-QTOF
Ms type: MS2
Ion mode: POSITIVE
Collision energy: 30
Fragmentation mode: CID
Ionization: ESI
Column name: Zorbax Eclipse Plus C18 2.1 mm x 150 mm, 3.5 um, Agilent
Retention time: 4.832 min
Precursor m/z: 315.1485
Precursor type: [M+H]+
m/z	relative intensity
81.0354	25
88.0223	27
95.0499	26
97.0765	44
98.0849	282
102.0374	176
107.0484	12
110.0606	11
110.0965	28
114.0789	17
117.0478	14
118.032	17
124.0755	133
125.0059	393
129.0488	15
130.0562	709
135.0913	26
138.0916	48
144.0766	79
145.0426	13
146.0512	12
148.0749	31
153.0368	52
163.0861	18
164.0937	34
165.1024	96
167.0633	35
170.0635	73
176.0494	999
177.1015	66
178.1096	21
181.0789	79
191.118	165
192.0476	18
193.0554	45
195.0709	10
223.0884	12
224.0975	172
270.0903	34
315.1479	15
