Mass spectrum: 2-Hydroxyestrone; LC-ESI-QTOF; MS2; 40 V
Name: 2-Hydroxyestrone
Class: Pharmaceutical; Metabolite
Formula: C18H22O3
Exact mass: 286.1569
SMILES: C[C@]12CC[C@H]3[C@@H](CCc4cc(O)c(O)cc34)[C@@H]1CCC2=O
InChI: InChI=1S/C18H22O3/c1-18-7-6-11-12(14(18)4-5-17(18)21)3-2-10-8-15(19)16(20)9-13(10)11/h8-9,11-12,14,19-20H,2-7H2,1H3/t11-,12+,14-,18-/m0/s1
Instrument: TripleTOF 5600 SCIEX
Instrument type: LC-ESI-QTOF
Ms type: MS2
Ion mode: POSITIVE
Collision energy: 40
Fragmentation mode: CID
Ionization: ESI
Column name: Zorbax Eclipse Plus C18 2.1 mm x 150 mm, 3.5 um, Agilent
Retention time: 9.978 min
Precursor m/z: 287.1642
Precursor type: [M+H]+
m/z	relative intensity
77.0439	70
81.07	80
91.0552	80
103.0531	373
115.0539	80
123.0445	232
127.0521	131
128.061	121
129.0695	282
131.0485	353
137.0621	70
141.0687	60
149.0595	534
152.0673	50
153.0701	90
155.0495	60
157.0638	161
160.052	70
161.0567	121
165.0673	70
167.083	131
173.0591	999
175.0748	847
181.0667	80
187.0738	60
189.0908	60
195.08	131
198.0668	40
199.0762	100
209.094	40
211.1108	90
213.0907	282
214.0983	141
217.1207	50
227.1056	111
229.1197	90
251.1418	50
269.1535	353
