Mass spectrum: Clofibric acid; LC-ESI-QTOF; MS2; 140 V
Name: Clofibric acid
Class: Pharmaceutical
Formula: C10H11ClO3
Exact mass: 214.0397
SMILES: CC(C)(C(=O)O)OC1=CC=C(C=C1)Cl
InChI: InChI=1S/C10H11ClO3/c1-10(2,9(12)13)14-8-5-3-7(11)4-6-8/h3-6H,1-2H3,(H,12,13)
Instrument: TripleTOF 5600 SCIEX
Instrument type: LC-ESI-QTOF
Ms type: MS2
Ion mode: NEGATIVE
Collision energy: 140
Fragmentation mode: CID
Ionization: ESI
Column name: Zorbax Eclipse Plus C18 2.1 mm x 150 mm, 3.5 um, Agilent
Retention time: 10.56 min
Precursor m/z: 213.0324
Precursor type: [M-H]-
m/z	relative intensity
34.9697	999
41.0029	187
62.966	62
