Mass spectrum: Disperse Orange 37; LC-ESI-QTOF; MS2; 70 V
Name: Disperse Orange 37
Formula: C17H15Cl2N5O2
Exact mass: 391.0603
SMILES: CCN(CCC#N)C1=CC=C(C=C1)N=NC2=C(C=C(C=C2Cl)[N+](=O)[O-])Cl
InChI: InChI=1S/C17H15Cl2N5O2/c1-2-23(9-3-8-20)13-6-4-12(5-7-13)21-22-17-15(18)10-14(24(25)26)11-16(17)19/h4-7,10-11H,2-3,9H2,1H3
Instrument: TripleTOF X500R SCIEX
Instrument type: LC-ESI-QTOF
Ms type: MS2
Ion mode: POSITIVE
Collision energy: 70
Fragmentation mode: CID
Ionization: ESI
Column name: Zorbax Eclipse Plus C18 2.1 mm x 150 mm, 3.5 um, Agilent
Retention time: 15.169 min
Precursor m/z: 392.0676
Precursor type: [M+H]+
m/z	relative intensity
54.0346	40
65.0388	147
77.0389	147
78.0338	33
78.0467	40
79.0424	33
79.0543	80
80.05	33
90.0347	33
91.0548	154
92.0504	415
96.984	140
97.9778	40
103.0555	40
104.0502	710
105.0578	999
106.0653	221
106.9452	120
107.0753	40
107.9762	140
108.9843	328
109.979	93
116.0526	40
117.057	160
118.0522	33
118.066	221
118.95	33
119.0617	422
120.0811	107
128.0501	60
130.0655	33
131.0608	127
132.0673	93
132.0804	60
133.0889	777
134.0956	73
142.9457	583
143.9532	730
144.9508	40
145.0781	134
147.0928	154
150.0473	67
151.0568	73
152.0613	73
159.0927	26
159.9484	87
171.96	40
172.0858	33
178.0683	80
186.026	46
189.9461	93
213.0283	40
214.041	100
241.0453	73
242.0502	73
277.0191	254
305.0525	73
323.0119	40
