Mass spectrum: Saccharin; LC-ESI-QTOF; MS2; 140 V
Name: Saccharin
Class: Food_additive
Formula: C7H5NO3S
Exact mass: 182.999
SMILES: C1=CC=C2C(=C1)C(=O)NS2(=O)=O
InChI: InChI=1S/C7H5NO3S/c9-7-5-3-1-2-4-6(5)12(10,11)8-7/h1-4H,(H,8,9)
Instrument: TripleTOF 5600 SCIEX
Instrument type: LC-ESI-QTOF
Ms type: MS2
Ion mode: NEGATIVE
Collision energy: 140
Fragmentation mode: CID
Ionization: ESI
Column name: Zorbax Eclipse Plus C18 2.1 mm x 150 mm, 3.5 um, Agilent
Retention time: 5.195 min
Precursor m/z: 181.9917
Precursor type: [M-H]-
m/z	relative intensity
41.9988	999
61.9699	54
