Mass spectrum: N,N-Dimethyldecanamide; LC-ESI-QTOF; MS2; 150 V
Name: N,N-Dimethyldecanamide
Class: Industrial_process
Formula: C12H25NO
Exact mass: 199.1936
SMILES: CCCCCCCCCC(=O)N(C)C
InChI: InChI=1S/C12H25NO/c1-4-5-6-7-8-9-10-11-12(14)13(2)3/h4-11H2,1-3H3
Instrument: TripleTOF 6600 SCIEX
Instrument type: LC-ESI-QTOF
Ms type: MS2
Ion mode: POSITIVE
Collision energy: 150
Fragmentation mode: CID
Ionization: ESI
Column name: Zorbax Eclipse Plus C18 2.1 mm x 150 mm, 3.5 um, Agilent
Retention time: 13.577 min
Precursor m/z: 200.2009
Precursor type: [M+H]+
m/z	relative intensity
30.0334	141
35.9989	94
37.0066	634
38.0028	258
38.0141	575
39.0224	987
42.0087	47
42.0325	258
43.0172	340
43.0401	47
44.0123	70
44.049	999
52.0042	58
53.0126	58
58.0274	105
