Mass spectrum: Flumequin; LC-ESI-QTOF; MS2; 80 V
Name: Flumequin
Class: Pharmaceutical; Antimicrobial
Formula: C14H12FNO3
Exact mass: 261.0801
SMILES: CC1CCc2cc(F)cc3C(=O)C(=CN1c23)C(O)=O
InChI: InChI=1S/C14H12FNO3/c1-7-2-3-8-4-9(15)5-10-12(8)16(7)6-11(13(10)17)14(18)19/h4-7H,2-3H2,1H3,(H,18,19)
Instrument: TripleTOF 5600 SCIEX
Instrument type: LC-ESI-QTOF
Ms type: MS2
Ion mode: POSITIVE
Collision energy: 80
Fragmentation mode: CID
Ionization: ESI
Column name: Zorbax Eclipse Plus C18 2.1 mm x 150 mm, 3.5 um, Agilent
Retention time: 9.545 min
Precursor m/z: 262.0874
Precursor type: [M+H]+
m/z	relative intensity
51.0289	48
53.0084	71
53.0267	10
74.0169	83
75.0256	307
76.0213	38
77.0393	15
93.0139	53
94.0222	15
95.0299	94
96.0373	35
98.0154	266
98.0461	15
99.0239	999
100.0192	678
101.0381	15
107.0292	27
109.0443	12
118.0226	12
119.0292	205
120.0241	86
120.0359	88
125.04	38
126.0338	625
131.0303	50
132.0365	15
133.0456	35
145.0324	48
145.0448	22
146.0405	218
147.0347	40
147.049	17
152.0504	15
154.0401	183
158.0445	30
159.0493	17
161.0603	12
172.0561	73
174.0349	40
202.0317	12
