Mass spectrum: Betamethasone; LC-ESI-QTOF; MS2; 90 V
Name: Betamethasone
Class: Pharmaceutical
Formula: C22H29FO5
Exact mass: 392.1999
SMILES: C[C@H]1C[C@H]2[C@@H]3CCC4=CC(=O)C=C[C@@]4([C@]3([C@H](C[C@@]2([C@]1(C(=O)CO)O)C)O)F)C
InChI: InChI=1S/C22H29FO5/c1-12-8-16-15-5-4-13-9-14(25)6-7-19(13,2)21(15,23)17(26)10-20(16,3)22(12,28)18(27)11-24/h6-7,9,12,15-17,24,26,28H,4-5,8,10-11H2,1-3H3/t12-,15-,16-,17-,19-,20-,21-,22-/m0/s1
Instrument: TripleTOF 5600 SCIEX
Instrument type: LC-ESI-QTOF
Ms type: MS2
Ion mode: POSITIVE
Collision energy: 90
Fragmentation mode: CID
Ionization: ESI
Column name: Zorbax Eclipse Plus C18 2.1 mm x 150 mm, 3.5 um, Agilent
Retention time: 9.016 min
Precursor m/z: 393.2072
Precursor type: [M+H]+
m/z	relative intensity
43.0301	50
51.0343	21
65.046	106
67.0593	103
69.0403	12
77.0435	637
78.0515	28
79.0587	191
81.073	25
83.0545	12
89.0424	15
91.0579	999
93.0724	84
95.0891	43
102.0478	34
103.0565	188
104.0635	50
105.0714	235
107.0509	100
107.0858	37
108.0569	25
109.0456	18
109.0662	12
115.0558	653
116.0628	128
117.0701	172
119.0858	135
120.0551	12
121.0653	405
127.0548	185
128.0628	766
129.0709	238
130.0795	72
131.0506	201
131.0839	37
132.0582	207
133.0456	15
133.1044	18
135.0802	28
139.0547	25
140.0623	18
141.0708	333
142.0787	87
143.0843	56
144.0577	103
145.0645	119
145.1049	15
146.0488	18
146.0712	47
147.0829	97
151.0546	40
152.0644	213
153.0714	223
154.0782	53
155.0515	43
155.0897	69
156.0976	15
157.0649	125
158.0734	97
159.0824	31
163.0573	25
164.067	25
165.0705	502
166.0774	84
167.0846	69
168.0587	47
169.0638	65
170.0773	21
171.0821	59
176.0616	59
177.0712	81
178.0778	562
179.0863	273
180.0924	21
181.0652	219
181.1068	28
182.0715	56
183.0788	43
189.0702	361
190.0774	175
191.0857	201
192.0927	69
193.0644	12
193.1013	69
194.0723	94
195.0823	116
195.1161	12
196.0898	40
197.0987	15
200.0593	15
201.0737	25
202.0775	298
203.0866	163
204.0937	62
205.0651	84
205.102	59
206.0702	37
206.1076	15
207.0793	144
208.0802	12
208.0926	50
209.102	65
214.0718	25
215.0851	307
216.0953	75
217.098	56
218.0734	97
218.1112	15
219.0812	100
219.1155	12
220.063	15
220.085	28
221.0966	94
222.0963	15
222.1114	15
223.1083	25
226.0798	62
227.0886	56
228.0935	131
229.1006	109
230.1133	18
231.0787	135
231.121	18
232.0879	72
233.0984	87
234.0983	18
235.1094	21
239.084	37
241.1002	28
242.0699	15
242.107	18
243.117	18
244.0938	25
245.0942	75
246.1039	25
247.1143	43
248.0884	18
248.1244	12
252.0892	12
257.1106	12
259.112	18
