Mass spectrum: Desmethylranitidine; LC-ESI-QTOF; MS2; 130 V
Name: Desmethylranitidine
Class: Pharmaceutical; Transformation_product
Formula: C12H20N4O3S
Exact mass: 300.1256
SMILES: CNCC1=CC=C(O1)CSCCNC(=C[N+](=O)[O-])NC
InChI: InChI=1S/C12H20N4O3S/c1-13-7-10-3-4-11(19-10)9-20-6-5-15-12(14-2)8-16(17)18/h3-4,8,13-15H,5-7,9H2,1-2H3
Instrument: TripleTOF 5600 SCIEX
Instrument type: LC-ESI-QTOF
Ms type: MS2
Ion mode: POSITIVE
Collision energy: 130
Fragmentation mode: CID
Ionization: ESI
Column name: Zorbax Eclipse Plus C18 2.1 mm x 150 mm, 3.5 um, Agilent
Retention time: 4.769 min
Precursor m/z: 301.1329
Precursor type: [M+H]+
m/z	relative intensity
42.0432	285
45.9831	89
51.0308	553
52.024	89
52.0403	142
53.0467	802
54.0409	178
55.0347	89
55.0514	196
56.0537	267
57.0487	142
59.0015	196
65.0435	285
66.0509	107
68.054	178
68.9844	142
69.0488	89
70.0691	107
70.9997	107
75.0267	89
77.0421	999
78.0382	142
78.0501	89
79.054	124
80.0522	463
81.0395	856
82.0552	196
89.0433	142
92.0517	89
93.0587	124
95.057	89
96.07	160
97.0119	160
97.0775	231
102.0386	214
104.0511	124
132.046	71
