Mass spectrum: Food Yellow 3 free acid; LC-ESI-QTOF; MS2; 50 V
Name: Food Yellow 3 free acid
Formula: C16H12N2O7S2
Exact mass: 408.0086
SMILES: C1=CC(=CC=C1N=NC2=C(C=CC3=C2C=CC(=C3)S(=O)(=O)O)O)S(=O)(=O)O
InChI: InChI=1S/C16H12N2O7S2/c19-15-8-1-10-9-13(27(23,24)25)6-7-14(10)16(15)18-17-11-2-4-12(5-3-11)26(20,21)22/h1-9,19H,(H,20,21,22)(H,23,24,25)
Instrument: TripleTOF 6600 SCIEX
Instrument type: LC-ESI-QTOF
Ms type: MS2
Ion mode: POSITIVE
Collision energy: 50
Fragmentation mode: CID
Ionization: ESI
Column name: Zorbax Eclipse Plus C18 2.1 mm x 150 mm, 3.5 um, Agilent
Retention time: 5.59 min
Precursor m/z: 409.0159
Precursor type: [M+H]+
m/z	relative intensity
80.0493	87
89.0381	87
92.0488	23
108.0444	449
109.0516	42
116.0491	95
126.0334	98
127.0413	130
128.0494	51
144.0447	66
154.0298	219
156.0103	34
156.046	16
173.0144	693
182.0348	26
208.0073	999
210.0215	16
218.083	20
230.0842	26
236.0019	74
246.0777	11
247.0865	25
299.048	45
310.0425	44
311.0487	136
327.0429	49
328.0516	11
391.0057	113
392.013	137
