Mass spectrum: Desmethylranitidine; LC-ESI-QTOF; MS2; 140 V
Name: Desmethylranitidine
Class: Pharmaceutical; Transformation_product
Formula: C12H20N4O3S
Exact mass: 300.1256
SMILES: CNCC1=CC=C(O1)CSCCNC(=C[N+](=O)[O-])NC
InChI: InChI=1S/C12H20N4O3S/c1-13-7-10-3-4-11(19-10)9-20-6-5-15-12(14-2)8-16(17)18/h3-4,8,13-15H,5-7,9H2,1-2H3
Instrument: TripleTOF 5600 SCIEX
Instrument type: LC-ESI-QTOF
Ms type: MS2
Ion mode: NEGATIVE
Collision energy: 140
Fragmentation mode: CID
Ionization: ESI
Column name: Zorbax Eclipse Plus C18 2.1 mm x 150 mm, 3.5 um, Agilent
Retention time: 4.769 min
Precursor m/z: 299.1183
Precursor type: [M-H]-
m/z	relative intensity
42.0025	235
45.9938	999
56.9789	58
60.0089	117
60.0147	58
69.0119	58
110.9887	58
