Mass spectrum: Picolinafen; LC-ESI-QTOF; MS2; 110 V
Name: Picolinafen
Class: Herbicide
Formula: C19H12F4N2O2
Exact mass: 376.0835
SMILES: C1=CC(=CC(=C1)OC2=CC=CC(=N2)C(=O)NC3=CC=C(C=C3)F)C(F)(F)F
InChI: InChI=1S/C19H12F4N2O2/c20-13-7-9-14(10-8-13)24-18(26)16-5-2-6-17(25-16)27-15-4-1-3-12(11-15)19(21,22)23/h1-11H,(H,24,26)
Instrument: TripleTOF 6600 SCIEX
Instrument type: LC-ESI-QTOF
Ms type: MS2
Ion mode: POSITIVE
Collision energy: 110
Fragmentation mode: CID
Ionization: ESI
Column name: Zorbax Eclipse Plus C18 2.1 mm x 150 mm, 3.5 um, Agilent
Retention time: 15.501 min
Precursor m/z: 377.0908
Precursor type: [M+H]+
m/z	relative intensity
35.9982	10
37.006	60
38.0139	60
39.022	264
51.0034	46
57.0117	23
68.993	71
69.011	14
73.0059	29
74.0135	353
75.0036	155
75.021	999
81.0114	37
95.0092	31
95.0272	767
99.0033	98
105.0125	12
113.0365	42
114.0437	21
119.0078	92
122.0144	21
123.0197	48
123.0322	155
124.0167	10
125.0177	347
132.0362	10
133.0431	82
140.0472	82
143.0264	42
145.0245	679
150.0324	10
162.0239	18
163.0328	18
170.0338	12
171.0279	10
182.0316	33
189.0332	14
