Mass spectrum: 2-Dimethylaminoguanosine; LC-ESI-QTOF; MS2; 70 V
Name: 2-Dimethylaminoguanosine
Class: Pharmaceutical
Formula: C12H17N5O5
Exact mass: 311.123
SMILES: CN(C)C1=NC(=O)c2ncn([C@@H]3O[C@H](CO)[C@@H](O)[C@H]3O)c2N1
InChI: InChI=1S/C12H17N5O5/c1-16(2)12-14-9-6(10(21)15-12)13-4-17(9)11-8(20)7(19)5(3-18)22-11/h4-5,7-8,11,18-20H,3H2,1-2H3,(H,14,15,21)/t5-,7-,8-,11-/m1/s1
Instrument: TripleTOF 5600 SCIEX
Instrument type: LC-ESI-QTOF
Ms type: MS2
Ion mode: POSITIVE
Collision energy: 70
Fragmentation mode: CID
Ionization: ESI
Column name: Zorbax Eclipse Plus C18 2.1 mm x 150 mm, 3.5 um, Agilent
Retention time: 4.565 min
Precursor m/z: 312.1302
Precursor type: [M+H]+
m/z	relative intensity
55.0348	84
71.0635	243
82.0427	185
83.0268	21
107.0364	52
108.0428	37
110.0349	999
110.0663	31
119.0342	31
122.0593	174
135.0295	718
136.0367	68
137.0447	37
137.0817	153
147.0539	116
148.0383	42
162.0762	84
163.0605	79
165.0653	63
178.0759	26
180.087	449
