Mass spectrum: Rhein; LC-ESI-QTOF; MS2; 100 V
Name: Rhein
Class: Metabolite
Formula: C15H8O6
Exact mass: 284.0321
SMILES: C1=CC2=C(C(=C1)O)C(=O)C3=C(C=C(C=C3C2=O)C(=O)O)O
InChI: InChI=1S/C15H8O6/c16-9-3-1-2-7-11(9)14(19)12-8(13(7)18)4-6(15(20)21)5-10(12)17/h1-5,16-17H,(H,20,21)
Instrument: TripleTOF 5600 SCIEX
Instrument type: LC-ESI-QTOF
Ms type: MS2
Ion mode: POSITIVE
Collision energy: 100
Fragmentation mode: CID
Ionization: ESI
Column name: Zorbax Eclipse Plus C18 2.1 mm x 150 mm, 3.5 um, Agilent
Retention time: 10.796 min
Precursor m/z: 285.0394
Precursor type: [M+H]+
m/z	relative intensity
39.0224	153
51.0229	333
63.023	307
65.039	461
74.0153	204
75.0236	409
76.0311	204
77.038	999
86.0154	128
87.0228	179
89.0376	230
98.016	128
101.0396	230
102.0458	230
113.0369	128
126.0464	435
127.0551	435
128.0613	204
137.0393	204
139.0548	256
