Mass spectrum: Lomefloxacin; LC-ESI-QTOF; MS2; 30 V
Name: Lomefloxacin
Class: Pharmaceutical; Antimicrobial
Formula: C17H19F2N3O3
Exact mass: 351.1394
SMILES: CCn1cc(c(=O)c2c1c(c(c(c2)F)N3CCNC(C3)C)F)C(=O)O
InChI: InChI=1S/C17H19F2N3O3/c1-3-21-8-11(17(24)25)16(23)10-6-12(18)15(13(19)14(10)21)22-5-4-20-9(2)7-22/h6,8-9,20H,3-5,7H2,1-2H3,(H,24,25)
Instrument: TripleTOF 5600 SCIEX
Instrument type: LC-ESI-QTOF
Ms type: MS2
Ion mode: POSITIVE
Collision energy: 30
Fragmentation mode: CID
Ionization: ESI
Column name: Zorbax Eclipse Plus C18 2.1 mm x 150 mm, 3.5 um, Agilent
Retention time: 5.44 min
Precursor m/z: 352.1467
Precursor type: [M+H]+
m/z	relative intensity
84.0835	15
223.0699	33
225.0812	33
231.0901	14
235.0699	9
236.0718	11
237.0847	77
238.0879	14
245.1081	15
249.045	12
251.0998	182
258.1385	20
265.1151	892
288.1509	126
291.0949	69
291.1294	53
306.1058	15
306.1413	52
308.1577	477
314.1303	60
334.1372	999
352.1487	228
