Mass spectrum: Sulpiride; LC-ESI-QTOF; MS2; 70 V
Name: Sulpiride
Class: Pharmaceutical
Formula: C15H23N3O4S
Exact mass: 341.1409
SMILES: CCN1CCCC1CNC(=O)c2cc(ccc2OC)[S](N)(=O)=O
InChI: InChI=1S/C15H23N3O4S/c1-3-18-8-4-5-11(18)10-17-15(19)13-9-12(23(16,20)21)6-7-14(13)22-2/h6-7,9,11H,3-5,8,10H2,1-2H3,(H,17,19)(H2,16,20,21)
Instrument: TripleTOF 5600 SCIEX
Instrument type: LC-ESI-QTOF
Ms type: MS2
Ion mode: POSITIVE
Collision energy: 70
Fragmentation mode: CID
Ionization: ESI
Column name: Zorbax Eclipse Plus C18 2.1 mm x 150 mm, 3.5 um, Agilent
Retention time: 4.958 min
Precursor m/z: 342.1482
Precursor type: [M+H]+
m/z	relative intensity
42.0427	41
51.0292	20
52.0364	44
53.0474	11
55.0594	106
56.0559	198
58.0714	240
65.0429	74
67.0587	85
68.0517	20
70.0696	103
74.018	35
75.0262	412
76.0327	85
77.0413	97
78.0497	145
79.0195	14
79.0432	106
79.0604	11
80.0511	41
81.0386	41
82.0667	106
82.9971	20
83.0762	17
84.083	999
86.0113	14
90.0355	47
91.0185	53
92.0507	44
94.0677	20
95.0508	41
96.0806	26
97.0863	17
98.097	500
103.0183	14
104.0274	53
105.0329	50
106.0389	44
106.0513	14
107.0122	109
107.0363	234
108.0234	35
108.0439	204
109.0281	130
110.0952	74
110.9954	20
112.1118	972
119.0128	32
133.0272	130
134.0357	542
135.0036	17
136.017	20
138.9853	266
154.9791	222
156.0117	50
170.9977	103
182.9712	59
184.0169	133
198.9942	136
214.0162	960
