Mass spectrum: Duloxetine; LC-ESI-QTOF; MS2; 70 V
Name: Duloxetine
Class: Pharmaceutical
Formula: C18H19NOS
Exact mass: 297.1187
SMILES: CNCCC(C1=CC=CS1)OC2=CC=CC3=CC=CC=C32
InChI: InChI=1S/C18H19NOS/c1-19-12-11-17(18-10-5-13-21-18)20-16-9-4-7-14-6-2-3-8-15(14)16/h2-10,13,17,19H,11-12H2,1H3
Instrument: TripleTOF 5600 SCIEX
Instrument type: LC-ESI-QTOF
Ms type: MS2
Ion mode: POSITIVE
Collision energy: 70
Fragmentation mode: CID
Ionization: ESI
Column name: Zorbax Eclipse Plus C18 2.1 mm x 150 mm, 3.5 um, Agilent
Retention time: 8.432 min
Precursor m/z: 298.126
Precursor type: [M+H]+
m/z	relative intensity
44.0582	999
79.0554	33
91.0543	74
97.0103	158
115.0526	41
123.0248	208
124.0323	58
127.0546	99
128.0623	124
152.061	58
165.0682	66
178.0767	49
