Mass spectrum: Nitrendipine; LC-ESI-QTOF; MS2; 40 V
Name: Nitrendipine
Class: Pharmaceutical
Formula: C18H20N2O6
Exact mass: 360.1321
SMILES: CCOC(=O)C1=C(NC(=C(C1C2=CC(=CC=C2)[N+](=O)[O-])C(=O)OC)C)C
InChI: InChI=1S/C18H20N2O6/c1-5-26-18(22)15-11(3)19-10(2)14(17(21)25-4)16(15)12-7-6-8-13(9-12)20(23)24/h6-9,16,19H,5H2,1-4H3
Instrument: TripleTOF 5600 SCIEX
Instrument type: LC-ESI-QTOF
Ms type: MS2
Ion mode: POSITIVE
Collision energy: 40
Fragmentation mode: CID
Ionization: ESI
Column name: Zorbax Eclipse Plus C18 2.1 mm x 150 mm, 3.5 um, Agilent
Retention time: 12.373 min
Precursor m/z: 361.1394
Precursor type: [M+H]+
m/z	relative intensity
67.0247	72
128.0619	11
129.0356	11
134.0587	20
139.053	13
140.0641	30
141.0702	20
150.0161	11
151.0582	11
152.06	15
153.0716	20
154.0421	10
154.0682	15
165.0725	23
166.0652	25
166.0835	18
167.0719	35
168.0787	194
170.0601	10
170.097	10
171.1031	28
176.0334	30
178.0491	15
178.0643	13
179.0709	20
180.0803	150
181.0675	16
181.0871	116
182.0961	123
183.1042	89
184.0721	11
185.0688	10
186.0495	10
189.0608	11
192.0706	20
194.0618	21
195.0637	16
196.0741	101
197.0838	32
198.0932	60
199.0864	10
199.0985	10
200.0343	32
206.0607	18
207.0661	38
208.0745	205
209.0835	320
210.0897	528
211.0981	231
212.0692	48
214.0863	25
217.0589	30
221.0639	10
222.0489	15
222.0784	10
223.0867	27
224.0684	25
224.1005	11
225.0791	70
226.0857	678
227.0858	114
228.0911	21
235.0657	37
236.0711	188
237.0772	91
238.0763	72
238.0978	11
239.084	77
240.0643	32
240.0935	106
241.0624	28
241.1081	13
242.0787	60
249.0665	15
252.0739	11
253.072	259
254.0798	683
255.087	661
256.0931	47
257.0987	33
266.0694	33
267.0874	241
268.0951	342
269.1043	654
270.0821	40
270.1071	13
281.0972	38
281.1147	10
282.1128	32
283.0731	325
283.1143	48
284.079	187
287.0989	13
297.0837	21
298.0957	207
299.064	13
301.0811	416
312.1093	37
313.0814	30
315.0989	999
329.1134	732
