Mass spectrum: Oxcarbazepine; LC-ESI-QTOF; MS2; 120 V
Name: Oxcarbazepine
Class: Pharmaceutical
Formula: C15H12N2O2
Exact mass: 252.0899
SMILES: NC(=O)N1c2ccccc2CC(=O)c3ccccc13
InChI: InChI=1S/C15H12N2O2/c16-15(19)17-12-7-3-1-5-10(12)9-14(18)11-6-2-4-8-13(11)17/h1-8H,9H2,(H2,16,19)
Instrument: TripleTOF 5600 SCIEX
Instrument type: LC-ESI-QTOF
Ms type: MS2
Ion mode: POSITIVE
Collision energy: 120
Fragmentation mode: CID
Ionization: ESI
Column name: Zorbax Eclipse Plus C18 2.1 mm x 150 mm, 3.5 um, Agilent
Retention time: 8.323 min
Precursor m/z: 253.0972
Precursor type: [M+H]+
m/z	relative intensity
51.0288	569
60.0027	18
63.0464	37
65.0425	60
73.0096	32
74.0177	555
75.0251	686
76.0329	266
77.041	751
78.0475	98
85.0086	28
86.0159	130
87.0238	191
88.0191	23
88.0321	37
89.0396	364
90.0454	37
91.0532	18
97.0072	23
98.0154	172
99.0223	177
100.031	56
101.0375	275
102.0336	79
102.0457	233
110.0148	46
111.0212	37
113.0375	312
114.0331	28
114.0458	32
115.0543	154
116.0487	28
122.0148	23
123.0207	32
124.0296	37
125.0363	219
126.0453	541
127.0532	219
128.0492	130
129.0521	37
137.0365	98
138.0461	51
139.053	266
139.0736	23
140.0493	214
149.0384	116
150.0456	849
150.0784	32
151.0533	999
152.0613	653
153.0567	102
161.0389	46
162.0457	93
163.0527	256
164.0498	88
165.06	42
166.0633	18
176.0481	102
177.0556	210
178.0648	392
179.0739	88
180.0811	28
188.046	28
190.064	37
