Mass spectrum: 2,2,6,6-Tetramethylpiperidin-1-oxyl; LC-ESI-QTOF; MS2; 30 V
Name: 2,2,6,6-Tetramethylpiperidin-1-oxyl
Formula: C9H18NO
Exact mass: 156.1388
SMILES: CC1(CCCC(N1[O])(C)C)C
InChI: InChI=1S/C9H18NO/c1-8(2)6-5-7-9(3,4)10(8)11/h5-7H2,1-4H3
Instrument: TripleTOF 5600 SCIEX
Instrument type: LC-ESI-QTOF
Ms type: MS2
Ion mode: POSITIVE
Collision energy: 30
Fragmentation mode: CID
Ionization: ESI
Column name: Zorbax Eclipse Plus C18 2.1 mm x 150 mm, 3.5 um, Agilent
Retention time: 10.403 min
Precursor m/z: 157.1461
Precursor type: [M+H]+
m/z	relative intensity
41.0377	106
55.0544	63
67.0542	127
68.058	21
69.0705	340
74.062	106
80.0519	21
81.0698	85
82.0637	21
82.072	42
82.0829	21
84.0766	42
86.06	127
96.0826	63
109.1	361
110.0984	21
124.1154	21
142.1226	999
