Mass spectrum: Phenylphosphoric acid; LC-ESI-QTOF; MS2; 70 V
Name: Phenylphosphoric acid
Class: Industrial_process
Formula: C6H7O4P
Exact mass: 174.0082
InChI: InChI=1S/C6H7O4P/c7-11(8,9)10-6-4-2-1-3-5-6/h1-5H,(H2,7,8,9)
Instrument: TripleTOF 5600 SCIEX
Instrument type: LC-ESI-QTOF
Ms type: CID
Ion mode: POSITIVE
Collision energy: 70
Ionization: ESI
Column name: Zorbax Eclipse Plus C18 2.1 mm x 150 mm, 3.5 um, Agilent
Retention time: 3.47 min
Precursor m/z: 175.0155
Precursor type: [M+H]+
m/z	relative intensity
50.0154	356
51.0227	999
60.9869	95
77.0384	356
