Mass spectrum: 4-(4-Chloro-2-methylphenoxy)butanoic acid; LC-ESI-QTOF; MS2; 80 V
Name: 4-(4-Chloro-2-methylphenoxy)butanoic acid
Class: Herbicide
Formula: C11H13ClO3
Exact mass: 228.0553
SMILES: CC1=C(C=CC(=C1)Cl)OCCCC(=O)O
InChI: InChI=1S/C11H13ClO3/c1-8-7-9(12)4-5-10(8)15-6-2-3-11(13)14/h4-5,7H,2-3,6H2,1H3,(H,13,14)
Instrument: TripleTOF 6600 SCIEX
Instrument type: LC-ESI-QTOF
Ms type: MS2
Ion mode: POSITIVE
Collision energy: 80
Fragmentation mode: CID
Ionization: ESI
Column name: Zorbax Eclipse Plus C18 2.1 mm x 150 mm, 3.5 um, Agilent
Retention time: 11.775 min
Precursor m/z: 229.0626
Precursor type: [M+H]+
m/z	relative intensity
31.0169	27
35.9985	54
37.0072	216
38.0016	27
38.0149	216
39.0225	999
41.0377	377
42.0087	27
43.0171	755
44.9975	242
45.0327	837
48.9845	27
51.0223	161
55.0538	27
65.0375	161
72.9829	269
74.0122	27
75.0218	27
75.0259	27
77.038	297
78.0448	80
79.0549	27
88.0319	27
89.0374	458
90.0464	134
91.0518	80
91.0599	27
98.9989	134
102.0478	27
103.0549	27
107.0481	54
115.0554	134
127.0535	54
128.0611	188
