Mass spectrum: 3,4,5-Trimethoxybenzoic acid; LC-ESI-QTOF; MS2; 60 V
Name: 3,4,5-Trimethoxybenzoic acid
Class: Pharmaceutical; Industrial_process; Metabolite
Formula: C10H12O5
Exact mass: 212.0685
SMILES: COc1cc(cc(OC)c1OC)C(O)=O
InChI: InChI=1S/C10H12O5/c1-13-7-4-6(10(11)12)5-8(14-2)9(7)15-3/h4-5H,1-3H3,(H,11,12)
Instrument: TripleTOF 5600 SCIEX
Instrument type: LC-ESI-QTOF
Ms type: MS2
Ion mode: POSITIVE
Collision energy: 60
Fragmentation mode: CID
Ionization: ESI
Column name: Zorbax Eclipse Plus C18 2.1 mm x 150 mm, 3.5 um, Agilent
Retention time: 7.633 min
Precursor m/z: 213.0757
Precursor type: [M+H]+
m/z	relative intensity
53.044	144
55.0229	197
55.0591	92
65.0419	999
66.0497	92
67.0573	92
68.0298	670
69.0024	65
77.0407	499
78.0483	92
79.0204	144
79.0578	52
80.0289	144
81.0358	368
82.0428	52
83.0511	118
92.0261	78
93.0354	210
94.0409	157
95.0138	276
95.0497	341
96.0213	775
107.013	223
108.0229	118
109.0294	118
109.0649	131
110.0389	78
111.0433	420
121.0302	92
123.0455	144
125.0594	52
137.0223	65
139.0381	92
