Mass spectrum: Mandipropamid; LC-ESI-QTOF; MS2; 60 V
Name: Mandipropamid
Class: Fungicide
Formula: C23H22ClNO4
Exact mass: 411.1237
SMILES: COC1=C(C=CC(=C1)CCNC(=O)C(C2=CC=C(C=C2)Cl)OCC#C)OCC#C
InChI: InChI=1S/C23H22ClNO4/c1-4-14-28-20-11-6-17(16-21(20)27-3)12-13-25-23(26)22(29-15-5-2)18-7-9-19(24)10-8-18/h1-2,6-11,16,22H,12-15H2,3H3,(H,25,26)
Instrument: TripleTOF 6600 SCIEX
Instrument type: LC-ESI-QTOF
Ms type: MS2
Ion mode: POSITIVE
Collision energy: 60
Fragmentation mode: CID
Ionization: ESI
Column name: Zorbax Eclipse Plus C18 2.1 mm x 150 mm, 3.5 um, Agilent
Retention time: 12.239 min
Precursor m/z: 412.131
Precursor type: [M+H]+
m/z	relative intensity
77.0376	19
89.0381	47
90.046	11
91.0535	80
94.0646	11
98.9987	19
103.0528	28
105.0684	16
107.0477	15
115.0537	46
116.0611	23
117.0687	25
118.0643	51
119.0483	20
119.0724	10
121.0635	43
122.0593	23
125.0149	999
127.0545	21
128.0612	55
129.0694	26
130.0651	15
131.0488	49
132.0546	12
134.0591	16
135.0431	33
136.0745	22
137.0591	12
138.994	14
140.0255	16
144.0552	13
145.0638	24
146.06	48
147.0437	38
147.0666	11
148.0515	49
148.0749	16
149.0596	19
150.0545	43
151.075	11
152.0255	23
160.0747	11
161.0577	13
162.0548	15
164.0697	39
165.0717	33
166.077	11
176.0696	20
177.075	17
178.0779	27
179.0847	23
189.0703	11
190.076	10
191.0851	20
193.1004	10
194.0719	29
199.0308	10
202.0764	15
203.0851	26
204.0953	14
205.1005	13
207.0795	15
208.0885	18
212.0377	10
213.0468	10
215.0856	23
217.0977	11
225.0502	11
225.0899	14
229.0426	17
231.0809	11
235.0982	10
241.0402	10
243.0571	10
271.0511	12
