Mass spectrum: Lorazepam; LC-ESI-QTOF; MS2; 40 V
Name: Lorazepam
Class: Pharmaceutical
Formula: C15H10Cl2N2O2
Exact mass: 320.0119
SMILES: OC1N=C(c2ccccc2Cl)c3cc(Cl)ccc3NC1=O
InChI: InChI=1S/C15H10Cl2N2O2/c16-8-5-6-12-10(7-8)13(19-15(21)14(20)18-12)9-3-1-2-4-11(9)17/h1-7,15,21H,(H,18,20)
Instrument: TripleTOF 5600 SCIEX
Instrument type: LC-ESI-QTOF
Ms type: MS2
Ion mode: POSITIVE
Collision energy: 40
Fragmentation mode: CID
Ionization: ESI
Column name: Zorbax Eclipse Plus C18 2.1 mm x 150 mm, 3.5 um, Agilent
Retention time: 9.538 min
Precursor m/z: 321.0192
Precursor type: [M+H]+
m/z	relative intensity
128.0239	22
138.0088	57
163.0036	122
194.081	61
205.0756	15
229.051	505
239.0323	30
239.0471	15
263.0108	19
265.0435	19
275.0114	999
291.0173	22
303.0085	57
