Mass spectrum: Climbazole; LC-ESI-QTOF; MS2; 100 V
Name: Climbazole
Class: Pharmaceutical; Personal_care_product
Formula: C15H17ClN2O2
Exact mass: 292.0979
SMILES: CC(C)(C)C(=O)C(Oc1ccc(Cl)cc1)n2ccnc2
InChI: InChI=1S/C15H17ClN2O2/c1-15(2,3)13(19)14(18-9-8-17-10-18)20-12-6-4-11(16)5-7-12/h4-10,14H,1-3H3
Instrument: TripleTOF 5600 SCIEX
Instrument type: LC-ESI-QTOF
Ms type: MS2
Ion mode: POSITIVE
Collision energy: 100
Fragmentation mode: CID
Ionization: ESI
Column name: Zorbax Eclipse Plus C18 2.1 mm x 150 mm, 3.5 um, Agilent
Retention time: 8.761 min
Precursor m/z: 293.1051
Precursor type: [M+H]+
m/z	relative intensity
48.9899	16
51.0286	74
55.0589	87
57.0758	200
65.0421	57
66.0505	16
67.034	13
68.0408	43
69.0468	148
69.0713	16
70.0802	13
72.9874	526
73.0178	24
73.0427	16
74.0178	551
74.0498	16
74.0716	16
75.026	999
76.0334	19
77.0402	87
78.0504	21
81.0461	57
82.0557	16
84.9849	137
89.0417	19
91.0554	43
94.0412	35
98.9995	312
102.0479	16
110.9988	247
115.0516	10
128.0021	16
128.0591	16
139.005	24
