Mass spectrum: Flecainide meta-O-dealkylated; LC-ESI-QTOF; MS2; 90 V
Name: Flecainide meta-O-dealkylated
Class: Pharmaceutical; Transformation_product
Formula: C15H19F3N2O3
Exact mass: 332.1348
SMILES: C1CCNC(C1)CNC(=O)C2=C(C=CC(=C2)O)OCC(F)(F)F
InChI: InChI=1S/C15H19F3N2O3/c16-15(17,18)9-23-13-5-4-11(21)7-12(13)14(22)20-8-10-3-1-2-6-19-10/h4-5,7,10,19,21H,1-3,6,8-9H2,(H,20,22)
Instrument: TripleTOF 5600 SCIEX
Instrument type: LC-ESI-QTOF
Ms type: MS2
Ion mode: POSITIVE
Collision energy: 90
Fragmentation mode: CID
Ionization: ESI
Column name: Zorbax Eclipse Plus C18 2.1 mm x 150 mm, 3.5 um, Agilent
Retention time: 5.586 min
Precursor m/z: 333.1421
Precursor type: [M+H]+
m/z	relative intensity
42.0481	11
44.0596	75
51.0319	253
54.0192	133
56.0572	80
57.0213	22
65.0442	170
66.0511	11
67.0553	13
68.0544	9
69.0017	15
69.0751	11
70.0704	26
71.034	133
74.0203	13
75.0256	73
77.0418	99
79.0203	39
79.0574	165
80.0289	890
81.036	76
81.0737	69
82.0079	336
82.0687	75
83.0324	45
84.0834	107
92.0273	11
93.0347	26
95.0301	193
96.0817	15
98.097	75
99.0245	999
105.0327	41
108.0201	873
109.0262	22
114.027	16
115.0343	35
121.0251	28
123.0232	13
123.0348	18
125.0159	11
127.017	589
135.0428	9
136.0138	336
137.0223	39
143.0283	225
155.0098	15
171.0232	20
172.0285	15
