Mass spectrum: (S)-N-methyl-pregabalin; LC-ESI-QTOF; MS2; 100 V
Name: (S)-N-methyl-pregabalin
Formula: C9H19NO2
Exact mass: 173.1416
SMILES: CC(C)CC(CC(=O)O)CNC
InChI: InChI=1S/C9H19NO2/c1-7(2)4-8(6-10-3)5-9(11)12/h7-8,10H,4-6H2,1-3H3,(H,11,12)
Instrument: TripleTOF 5600 SCIEX
Instrument type: LC-ESI-QTOF
Ms type: MS2
Ion mode: POSITIVE
Collision energy: 100
Fragmentation mode: CID
Ionization: ESI
Column name: Zorbax Eclipse Plus C18 2.1 mm x 150 mm, 3.5 um, Agilent
Retention time: 4.84 min
Precursor m/z: 174.1489
Precursor type: [M+H]+
m/z	relative intensity
35.9993	70
37.0075	266
38.0033	29
38.0151	242
39.0233	999
41.0388	472
42.034	65
43.0181	153
43.0542	100
44.0499	443
44.9975	47
45.0345	106
50.0153	35
51.0226	41
53.0388	76
54.0336	76
55.0175	65
55.0549	141
58.0286	23
59.0498	35
