Mass spectrum: 2,2,6,6-Tetramethylpiperidine; LC-ESI-QTOF; MS2; 40 V
Name: 2,2,6,6-Tetramethylpiperidine
Class: Industrial_process
Formula: C9H19N
Exact mass: 141.1517
SMILES: CC1(CCCC(N1)(C)C)C
InChI: InChI=1S/C9H19N/c1-8(2)6-5-7-9(3,4)10-8/h10H,5-7H2,1-4H3
Instrument: TripleTOF 6600 SCIEX
Instrument type: LC-ESI-QTOF
Ms type: MS2
Ion mode: POSITIVE
Collision energy: 40
Fragmentation mode: CID
Ionization: ESI
Column name: Zorbax Eclipse Plus C18 2.1 mm x 150 mm, 3.5 um, Agilent
Retention time: 4.823 min
Precursor m/z: 142.159
Precursor type: [M+H]+
m/z	relative intensity
37.0064	29
38.0145	27
39.0226	487
41.0383	999
42.0339	13
55.0535	52
57.0683	13
58.0639	24
69.0692	624
83.0838	23
142.1582	19
