Mass spectrum: Clonazepam; LC-ESI-QTOF; MS2; 40 V
Name: Clonazepam
Class: Pharmaceutical
Formula: C15H10ClN3O3
Exact mass: 315.0411
SMILES: C1C(=O)NC2=C(C=C(C=C2)[N+](=O)[O-])C(=N1)C3=CC=CC=C3Cl
InChI: InChI=1S/C15H10ClN3O3/c16-12-4-2-1-3-10(12)15-11-7-9(19(21)22)5-6-13(11)18-14(20)8-17-15/h1-7H,8H2,(H,18,20)
Instrument: TripleTOF 6600 SCIEX
Instrument type: LC-ESI-QTOF
Ms type: MS2
Ion mode: NEGATIVE
Collision energy: 40
Fragmentation mode: CID
Ionization: ESI
Column name: Zorbax Eclipse Plus C18 2.1 mm x 150 mm, 3.5 um, Agilent
Retention time: 9.867 min
Precursor m/z: 314.0338
Precursor type: [M-H]-
m/z	relative intensity
34.9693	403
41.9981	41
45.9929	21
139.0468	10
140.0493	26
146.023	26
164.0483	10
165.0523	15
177.0549	17
191.0594	65
192.0426	17
192.056	13
193.0392	15
203.0587	46
204.0677	54
205.0506	120
206.0408	15
219.0561	496
220.0638	212
221.0472	35
231.0566	254
232.063	887
234.0415	15
238.0315	10
241.0301	32
247.0495	999
248.0581	702
250.0362	19
251.0458	158
256.0147	21
261.0543	61
266.0195	17
266.0327	15
271.0281	37
277.0451	15
278.0574	362
286.0136	197
287.0157	13
