Mass spectrum: Oxazepam; LC-ESI-QTOF; MS2; 60 V
Name: Oxazepam
Class: Pharmaceutical
Formula: C15H11ClN2O2
Exact mass: 286.0509
SMILES: C1=CC=C(C=C1)C2=NC(C(=O)NC3=C2C=C(C=C3)Cl)O
InChI: InChI=1S/C15H11ClN2O2/c16-10-6-7-12-11(8-10)13(9-4-2-1-3-5-9)18-15(20)14(19)17-12/h1-8,15,20H,(H,17,19)
Instrument: TripleTOF 6600 SCIEX
Instrument type: LC-ESI-QTOF
Ms type: MS2
Ion mode: POSITIVE
Collision energy: 60
Fragmentation mode: CID
Ionization: ESI
Column name: Zorbax Eclipse Plus C18 2.1 mm x 150 mm, 3.5 um, Agilent
Retention time: 9.314 min
Precursor m/z: 287.0582
Precursor type: [M+H]+
m/z	relative intensity
50.0152	23
51.0229	85
63.0227	15
65.0384	13
66.0462	24
72.9837	11
74.0153	12
75.0228	55
77.0387	821
90.0336	86
91.0415	47
92.05	11
93.0574	428
98.9996	75
100.0181	181
102.033	16
104.0497	999
105.0446	23
110.9996	259
117.0444	39
118.0525	259
123.9944	14
126.01	70
128.0259	43
129.0438	11
135.9949	181
138.0105	118
139.0058	97
150.0463	16
151.0055	34
151.0546	143
152.0137	31
152.0621	114
153.0206	96
163.006	615
164.001	327
165.0699	10
166.0046	11
167.0727	15
177.0577	61
178.0647	99
179.0014	23
179.0719	71
180.0579	15
180.0795	19
193.0757	29
194.084	155
195.0917	142
205.0765	259
206.0842	28
214.0425	54
229.0526	161
239.0371	43
241.0531	360
257.0489	24
