Mass spectrum: Ecgonine ethyl ester; LC-ESI-QTOF; MS2; 40 V
Name: Ecgonine ethyl ester
Formula: C11H19NO3
Exact mass: 213.1365
SMILES: CCOC(=O)C1C2CCC(N2C)CC1O
InChI: InChI=1S/C11H19NO3/c1-3-15-11(14)10-8-5-4-7(12(8)2)6-9(10)13/h7-10,13H,3-6H2,1-2H3
Instrument: TripleTOF 6600 SCIEX
Instrument type: LC-ESI-QTOF
Ms type: MS2
Ion mode: POSITIVE
Collision energy: 40
Fragmentation mode: CID
Ionization: ESI
Column name: Zorbax Eclipse Plus C18 2.1 mm x 150 mm, 3.5 um, Agilent
Retention time: 2.108 min
Precursor m/z: 214.1438
Precursor type: [M+H]+
m/z	relative intensity
39.0247	21
41.0397	21
42.0351	36
44.0512	15
55.0553	21
56.0507	10
57.0585	31
65.0395	52
67.043	52
67.0547	110
68.0506	89
69.0348	21
70.0662	21
71.0137	21
77.0392	31
79.0555	10
80.0504	42
81.0582	15
82.0663	999
83.0501	52
83.0731	89
84.0816	42
91.0547	147
93.0351	15
93.0701	21
94.066	68
95.0738	10
96.0812	52
100.0754	47
106.0653	10
108.0804	42
111.0434	36
119.0499	68
122.0969	52
124.1099	26
132.0793	15
140.0723	31
150.0912	42
168.1026	105
196.134	168
214.1441	36
