Mass spectrum: Triphenyl phosphate; LC-ESI-QTOF; MS2; 70 V
Name: Triphenyl phosphate
Class: Industrial_process
Formula: C18H15O4P
Exact mass: 326.0708
SMILES: C1=CC=C(C=C1)OP(=O)(OC2=CC=CC=C2)OC3=CC=CC=C3
InChI: InChI=1S/C18H15O4P/c19-23(20-16-10-4-1-5-11-16,21-17-12-6-2-7-13-17)22-18-14-8-3-9-15-18/h1-15H
Instrument: TripleTOF 5600 SCIEX
Instrument type: LC-ESI-QTOF
Ms type: MS2
Ion mode: POSITIVE
Collision energy: 70
Fragmentation mode: CID
Ionization: ESI
Column name: Zorbax Eclipse Plus C18 2.1 mm x 150 mm, 3.5 um, Agilent
Retention time: 14.07 min
Precursor m/z: 327.0781
Precursor type: [M+H]+
m/z	relative intensity
50.0156	16
51.023	144
65.0383	14
77.0384	586
95.0497	13
115.0531	25
126.0449	25
127.0539	53
133.0207	16
138.9943	13
139.0536	61
140.0621	13
141.0695	16
150.0463	53
151.0538	218
152.0619	999
153.0677	14
168.0568	338
175.0172	14
187.0303	23
202.076	42
215.0277	25
226.0759	131
227.0849	28
228.092	23
