Mass spectrum: Methiocarb; LC-ESI-QTOF; MS2; 150 V
Name: Methiocarb
Class: Acaricide; Insecticide
Formula: C11H15NO2S
Exact mass: 225.0823
SMILES: Cc1cc(cc(c1SC)C)OC(=O)NC
InChI: InChI=1S/C11H15NO2S/c1-7-5-9(14-11(13)12-3)6-8(2)10(7)15-4/h5-6H,1-4H3,(H,12,13)
Instrument: TripleTOF 6600 SCIEX
Instrument type: LC-ESI-QTOF
Ms type: MS2
Ion mode: POSITIVE
Collision energy: 150
Fragmentation mode: CID
Ionization: ESI
Column name: Zorbax Eclipse Plus C18 2.1 mm x 150 mm, 3.5 um, Agilent
Retention time: 11.34614 min
Precursor m/z: 226.0896
Precursor type: [M+H]+
m/z	relative intensity
35.9966	71
37.005	311
37.9997	39
38.0128	255
39.0208	479
43.969	39
44.9765	239
49.005	247
50.0125	999
51.0204	671
59.9962	39
61.0044	159
62.0124	183
63.0204	119
65.0362	71
67.9674	39
68.976	167
73.0056	39
74.0118	111
75.0201	31
77.0361	47
89.0348	47
