Mass spectrum: Icaridin acid; LC-ESI-QTOF; MS2; 80 V
Name: Icaridin acid
Formula: C12H21NO4
Exact mass: 243.1471
SMILES: CCC(C)OC(=O)N1CCCCC1CC(O)=O
InChI: InChI=1S/C12H21NO4/c1-3-9(2)17-12(16)13-7-5-4-6-10(13)8-11(14)15/h9-10H,3-8H2,1-2H3,(H,14,15)
Instrument: TripleTOF 6600 SCIEX
Instrument type: LC-ESI-QTOF
Ms type: MS2
Ion mode: POSITIVE
Collision energy: 80
Fragmentation mode: CID
Ionization: ESI
Column name: Zorbax Eclipse Plus C18 2.1 mm x 150 mm, 3.5 um, Agilent
Retention time: 9.741 min
Precursor m/z: 244.1543
Precursor type: [M+H]+
m/z	relative intensity
30.0322	46
37.005	19
38.0002	10
38.0127	22
39.0208	153
41.0361	148
42.0313	93
43.0155	14
43.0392	22
53.0367	24
54.0315	14
55.0515	173
56.0474	999
57.0688	20
65.0364	46
67.0514	117
68.0465	49
69.0544	76
77.0356	21
79.0512	22
80.046	11
82.0625	51
84.0782	978
