Mass spectrum: 5-(3,4,5-Trimethoxybenzoyl)-2,4-pyrimidinediamine; LC-ESI-QTOF; MS2; 100 V
Name: 5-(3,4,5-Trimethoxybenzoyl)-2,4-pyrimidinediamine
Class: Pharmaceutical; Transformation_product
Formula: C14H16N4O4
Exact mass: 304.1172
SMILES: COc1cc(cc(c1OC)OC)C(=O)c2cnc(nc2N)N
InChI: InChI=1S/C14H16N4O4/c1-20-9-4-7(5-10(21-2)12(9)22-3)11(19)8-6-17-14(16)18-13(8)15/h4-6H,1-3H3,(H4,15,16,17,18)
Instrument: TripleTOF 5600 SCIEX
Instrument type: LC-ESI-QTOF
Ms type: MS2
Ion mode: POSITIVE
Collision energy: 100
Fragmentation mode: CID
Ionization: ESI
Column name: Zorbax Eclipse Plus C18 2.1 mm x 150 mm, 3.5 um, Agilent
Retention time: 5.86 min
Precursor m/z: 305.1244
Precursor type: [M+H]+
m/z	relative intensity
40.0272	39
41.0347	55
43.0368	111
52.0233	39
52.0358	46
53.0084	29
53.0186	13
55.0305	26
64.0347	29
65.0193	65
65.0429	187
66.0186	32
66.0367	16
66.051	19
67.0321	128
67.0448	16
67.0578	16
68.018	999
68.0475	52
69.0045	46
69.048	26
69.0584	13
70.0312	42
74.0184	23
75.0248	78
76.0213	36
76.0337	65
77.0186	19
77.0284	19
77.0408	328
78.0358	88
78.0462	49
79.0213	32
79.0446	111
80.0298	52
80.0496	118
81.0347	59
83.0489	59
87.0247	23
88.0224	49
89.0395	167
90.0343	161
91.0406	16
91.0562	49
92.0264	144
92.0498	52
93.012	23
93.0329	16
93.0454	49
94.0034	29
94.0399	23
94.0514	23
94.0626	16
95.0242	233
95.048	49
99.0243	13
100.0172	26
101.0397	52
102.0346	105
103.0284	36
103.0425	49
104.0356	78
104.0491	88
105.0445	302
106.0288	13
106.0526	98
107.0122	32
107.0698	13
108.0193	42
109.0272	42
109.0498	78
110.0579	75
114.0343	138
115.0388	46
116.0508	115
117.0493	82
118.035	59
118.052	26
118.0691	16
119.0411	13
119.0589	39
120.0191	42
120.0555	157
121.0297	65
121.0613	19
122.0344	26
126.0338	26
127.0357	26
128.048	46
129.0431	108
130.0381	85
131.0339	13
131.0578	52
132.0477	32
135.065	26
136.0121	16
136.0428	13
137.019	13
141.044	55
142.0506	49
143.0625	42
144.0552	82
145.0366	23
146.0377	13
146.0728	29
147.0662	147
148.0703	19
149.0269	19
151.0404	23
153.0411	23
154.0366	36
155.0605	19
156.056	29
157.0409	26
158.0481	55
159.0705	16
161.0825	13
163.0602	29
168.0526	32
169.0434	23
171.0637	65
173.0674	19
174.0653	19
175.0599	26
184.039	19
187.0581	19
189.0761	59
199.0501	13
200.0685	29
201.0738	23
213.0846	16
