Mass spectrum: Sulfasalazine; LC-ESI-QTOF; MS2; 100 V
Name: Sulfasalazine
Class: Pharmaceutical
Formula: C18H14N4O5S
Exact mass: 398.0685
SMILES: C1=CC=NC(=C1)NS(=O)(=O)C2=CC=C(C=C2)NN=C3C=CC(=O)C(=C3)C(=O)O
InChI: InChI=1S/C18H14N4O5S/c23-16-9-6-13(11-15(16)18(24)25)21-20-12-4-7-14(8-5-12)28(26,27)22-17-3-1-2-10-19-17/h1-11,20H,(H,19,22)(H,24,25)
Instrument: TripleTOF 5600 SCIEX
Instrument type: LC-ESI-QTOF
Ms type: MS2
Ion mode: POSITIVE
Collision energy: 100
Fragmentation mode: CID
Ionization: ESI
Column name: Zorbax Eclipse Plus C18 2.1 mm x 150 mm, 3.5 um, Agilent
Retention time: 9.217 min
Precursor m/z: 399.0758
Precursor type: [M+H]+
m/z	relative intensity
41.0372	15
50.0244	18
55.0287	18
61.0147	30
62.0224	42
63.0305	215
67.049	999
75.0284	21
76.0361	78
77.0445	97
78.0393	66
80.019	33
81.0389	194
89.0437	36
91.022	595
93.0489	24
94.0564	261
101.04	12
102.0375	36
107.0185	15
113.0403	36
114.0384	12
119.0161	106
127.056	18
128.0507	21
129.0469	30
130.0406	15
137.0246	48
139.0569	66
140.0491	39
141.0611	18
142.057	12
154.0553	15
155.0611	18
156.0691	24
166.0571	15
167.0618	24
168.0681	69
169.0783	27
180.0567	24
229.0742	15
