Mass spectrum: Clozapine; LC-ESI-QTOF; MS2; 40 V
Name: Clozapine
Class: Pharmaceutical
Formula: C18H19ClN4
Exact mass: 326.1298
SMILES: CN1CCN(CC1)C2=NC3=C(C=CC(=C3)Cl)NC4=CC=CC=C42
InChI: InChI=1S/C18H19ClN4/c1-22-8-10-23(11-9-22)18-14-4-2-3-5-15(14)20-16-7-6-13(19)12-17(16)21-18/h2-7,12,20H,8-11H2,1H3
Instrument: TripleTOF 6600 SCIEX
Instrument type: LC-ESI-QTOF
Ms type: MS2
Ion mode: POSITIVE
Collision energy: 40
Fragmentation mode: CID
Ionization: ESI
Column name: Zorbax Eclipse Plus C18 2.1 mm x 150 mm, 3.5 um, Agilent
Retention time: 6.951 min
Precursor m/z: 327.1371
Precursor type: [M+H]+
m/z	relative intensity
84.0804	44
191.0597	11
192.0681	264
226.0287	14
227.037	147
228.0434	10
235.1102	10
253.0501	20
255.0554	12
270.0799	999
296.0951	126
