Mass spectrum: Hydrocodone; LC-ESI-QTOF; MS2; 120 V
Name: Hydrocodone
Class: Pharmaceutical; Transformation_product-Metabolite
Formula: C18H21NO3
Exact mass: 299.1521
SMILES: CN1CCC23C4C1CC5=C2C(=C(C=C5)OC)OC3C(=O)CC4
InChI: InChI=1S/C18H21NO3/c1-19-8-7-18-11-4-5-13(20)17(18)22-16-14(21-2)6-3-10(15(16)18)9-12(11)19/h3,6,11-12,17H,4-5,7-9H2,1-2H3
Instrument: TripleTOF 6600 SCIEX
Instrument type: LC-ESI-QTOF
Ms type: MS2
Ion mode: POSITIVE
Collision energy: 120
Fragmentation mode: CID
Ionization: ESI
Column name: Zorbax Eclipse Plus C18 2.1 mm x 150 mm, 3.5 um, Agilent
Retention time: 5.331 min
Precursor m/z: 300.1594
Precursor type: [M+H]+
m/z	relative intensity
37.0067	11
39.0221	62
42.0322	14
44.0493	20
50.0141	63
51.022	176
52.0298	19
59.9991	14
61.0065	55
62.0137	129
63.0218	185
64.0305	10
65.037	107
73.0059	22
74.0138	200
75.0216	294
76.0293	137
77.0375	665
78.0449	174
85.0061	22
86.0138	63
87.0212	114
88.0291	190
89.0372	323
91.0524	66
98.0131	42
99.0216	31
100.0291	20
101.0367	135
102.0451	480
103.0514	17
105.0426	14
113.0371	396
114.0448	195
115.053	999
116.0617	10
125.0369	31
126.0449	474
127.0523	507
128.0602	376
129.043	34
137.0394	15
138.0449	19
139.0528	339
141.0665	61
150.0445	202
151.0525	310
152.06	530
153.069	23
155.0523	103
162.0444	9
163.0521	81
164.0613	34
165.0676	52
176.0656	11
179.059	14
