Mass spectrum: Benzyltriphenylphosphonium; LC-ESI-QTOF; MS2; 140 V
Name: Benzyltriphenylphosphonium
Class: Industrial_process
Formula: [C25H22P]+
Exact mass: 353.1454
SMILES: C1=CC=C(C=C1)C[P+](C2=CC=CC=C2)(C3=CC=CC=C3)C4=CC=CC=C4
InChI: InChI=1S/C25H22P/c1-5-13-22(14-6-1)21-26(23-15-7-2-8-16-23,24-17-9-3-10-18-24)25-19-11-4-12-20-25/h1-20H,21H2/q+1
Instrument: TripleTOF 5600 SCIEX
Instrument type: LC-ESI-QTOF
Ms type: MS2
Ion mode: POSITIVE
Collision energy: 140
Fragmentation mode: CID
Ionization: ESI
Column name: Zorbax Eclipse Plus C18 2.1 mm x 150 mm, 3.5 um, Agilent
Retention time: 8.706 min
Precursor m/z: 353.1454
Precursor type: [M]+
m/z	relative intensity
39.0233	232
51.0229	66
56.9892	56
62.0143	60
63.0226	195
65.0382	826
79.9798	103
80.9875	245
89.0365	257
91.0527	677
102.0441	128
107.0029	974
113.0364	105
115.0523	398
126.0443	288
131.0034	103
133.0185	78
139.0532	361
150.0448	209
151.0534	569
152.0609	999
155.0012	72
156.0109	116
157.0192	483
180.0129	72
181.0197	417
183.0348	95
