Mass spectrum: Hydroxychloroquine; LC-ESI-QTOF; MS2; 110 V
Name: Hydroxychloroquine
Class: Pharmaceutical
Formula: C18H26ClN3O
Exact mass: 335.1764
InChI: InChI=1S/C18H26ClN3O/c1-3-22(11-12-23)10-4-5-14(2)21-17-8-9-20-18-13-15(19)6-7-16(17)18/h6-9,13-14,23H,3-5,10-12H2,1-2H3,(H,20,21)
Instrument: TripleTOF 5600 SCIEX
Instrument type: LC-ESI-QTOF
Ms type: CID
Ion mode: POSITIVE
Collision energy: 110
Ionization: ESI
Column name: Zorbax Eclipse Plus C18 2.1 mm x 150 mm, 3.5 um, Agilent
Retention time: 4.747 min
Precursor m/z: 336.1837
Precursor type: [M+H]+
m/z	relative intensity
39.0225	0
41.0385	199
44.0528	0
45.0335	199
70.0666	0
74.0154	99
75.0234	599
77.0373	99
84.9836	0
89.0392	799
90.0501	199
98.0179	99
99.0193	199
100.0176	199
101.0389	299
102.0332	0
110.9966	199
111.0042	0
115.0578	99
116.0497	299
117.0549	999
118.0512	99
127.0402	299
128.0489	899
129.0561	299
136.0104	299
138.0128	99
143.052	99
143.0659	299
144.0676	299
151.0194	99
155.0601	99
155.0687	99
162.0128	99
163.0164	299
168.0704	399
