Mass spectrum: Lincomycin; LC-ESI-QTOF; MS2; 110 V
Name: Lincomycin
Class: Pharmaceutical
Formula: C18H34N2O6S
Exact mass: 406.2138
SMILES: CCCC1CC(N(C1)C)C(=O)NC(C2C(C(C(C(O2)SC)O)O)O)C(C)O
InChI: InChI=1S/C18H34N2O6S/c1-5-6-10-7-11(20(3)8-10)17(25)19-12(9(2)21)16-14(23)13(22)15(24)18(26-16)27-4/h9-16,18,21-24H,5-8H2,1-4H3,(H,19,25)
Instrument: TripleTOF 5600 SCIEX
Instrument type: LC-ESI-QTOF
Ms type: MS2
Ion mode: POSITIVE
Collision energy: 110
Fragmentation mode: CID
Ionization: ESI
Column name: Zorbax Eclipse Plus C18 2.1 mm x 150 mm, 3.5 um, Agilent
Retention time: 4.875 min
Precursor m/z: 407.221
Precursor type: [M+H]+
m/z	relative intensity
39.0226	49
41.0387	93
42.0335	259
44.0485	44
55.0539	66
58.0641	44
67.0415	77
67.0549	49
68.0492	253
69.0695	121
70.0651	353
80.0501	33
81.0565	22
82.0651	794
83.0719	298
84.0806	77
95.0877	33
96.0804	126
97.0871	49
124.1118	60
126.1276	999
