Mass spectrum: N-(1,3-Dimethylbutyl)-N`-phenyl-p-phenylenediamine; LC-ESI-QTOF; MS2; 110 V
Name: N-(1,3-Dimethylbutyl)-N`-phenyl-p-phenylenediamine
Class: Industrial_process
Formula: C18H24N2
Exact mass: 268.1939
SMILES: CC(C)CC(C)NC1=CC=C(C=C1)NC2=CC=CC=C2
InChI: InChI=1S/C18H24N2/c1-14(2)13-15(3)19-17-9-11-18(12-10-17)20-16-7-5-4-6-8-16/h4-12,14-15,19-20H,13H2,1-3H3
Instrument: TripleTOF 6600 SCIEX
Instrument type: LC-ESI-QTOF
Ms type: MS2
Ion mode: POSITIVE
Collision energy: 110
Fragmentation mode: CID
Ionization: ESI
Column name: Zorbax Eclipse Plus C18 2.1 mm x 150 mm, 3.5 um, Agilent
Retention time: 9.189 min
Precursor m/z: 269.2012
Precursor type: [M+H]+
m/z	relative intensity
37.0065	27
38.0144	29
39.0222	132
41.025	10
41.0377	23
49.0063	21
50.0145	80
51.022	164
52.0174	23
52.0296	29
53.0379	507
54.0331	56
61.006	18
62.0143	48
63.0221	202
64.0173	25
64.0299	33
65.0267	12
65.0378	113
66.0336	14
66.045	71
67.0416	18
74.0139	29
75.0215	31
77.0372	122
78.033	50
79.0406	23
80.0489	999
87.0221	27
88.0297	16
89.0378	115
90.0334	61
91.0403	23
91.052	14
92.0486	35
93.0569	31
101.0386	25
102.045	33
103.0528	12
105.0442	31
106.052	23
107.0598	99
113.0384	107
114.0339	18
114.0443	16
115.0528	71
116.0485	29
117.056	16
126.0449	23
127.0534	56
128.0575	82
130.0637	18
137.0364	12
138.0453	23
139.0533	214
140.0489	153
141.0544	16
153.0562	14
154.0643	59
155.0598	10
164.0477	27
165.056	14
166.0646	77
167.0726	33
181.0761	44
