Mass spectrum: Foramsulfuron; LC-ESI-QTOF; MS2; 30 V
Name: Foramsulfuron
Class: Herbicide
Formula: C17H20N6O7S
Exact mass: 452.1114
SMILES: CN(C)C(=O)C1=C(C=C(C=C1)NC=O)S(=O)(=O)NC(=O)NC2=NC(=CC(=N2)OC)OC
InChI: InChI=1S/C17H20N6O7S/c1-23(2)15(25)11-6-5-10(18-9-24)7-12(11)31(27,28)22-17(26)21-16-19-13(29-3)8-14(20-16)30-4/h5-9H,1-4H3,(H,18,24)(H2,19,20,21,22,26)
Instrument: TripleTOF 6600 SCIEX
Instrument type: LC-ESI-QTOF
Ms type: CID
Ion mode: POSITIVE
Collision energy: 30
Ionization: ESI
Column name: Zorbax Eclipse Plus C18 2.1 mm x 150 mm, 3.5 um, Agilent
Retention time: 8.823 min
Precursor m/z: 453.1187
Precursor type: [M+H]+
m/z	relative intensity
139.0578	15
156.0831	31
182.0634	999
227.0136	42
252.9899	14
255.0431	190
272.0685	41
298.0443	17
