Mass spectrum: Sudan I; LC-ESI-QTOF; MS2; 130 V
Name: Sudan I
Formula: C16H12N2O
Exact mass: 248.095
SMILES: C1=CC=C(C=C1)N=NC2=C(C=CC3=CC=CC=C32)O
InChI: InChI=1S/C16H12N2O/c19-15-11-10-12-6-4-5-9-14(12)16(15)18-17-13-7-2-1-3-8-13/h1-11,19H
Instrument: TripleTOF 6600 SCIEX
Instrument type: LC-ESI-QTOF
Ms type: MS2
Ion mode: POSITIVE
Collision energy: 130
Fragmentation mode: CID
Ionization: ESI
Column name: Zorbax Eclipse Plus C18 2.1 mm x 150 mm, 3.5 um, Agilent
Retention time: 15.674 min
Precursor m/z: 249.1023
Precursor type: [M+H]+
m/z	relative intensity
35.9989	13
37.0073	117
38.0153	105
39.0233	392
40.0308	21
41.0261	32
42.0342	20
49.0074	69
50.0154	354
51.023	384
52.0178	73
54.0337	34
61.0082	18
62.0152	21
63.023	32
65.0255	15
65.0379	291
66.0334	27
66.0464	87
73.0076	160
74.0153	999
75.0112	50
75.0224	251
76.0177	45
77.0376	24
78.0337	12
86.0145	11
92.0493	59
93.0563	10
98.0163	51
99.0119	11
99.0226	11
