Mass spectrum: Valsartan; LC-ESI-QTOF; MS2; 130 V
Name: Valsartan
Class: Pharmaceutical
Formula: C24H29N5O3
Exact mass: 435.227
SMILES: CCCCC(=O)N(Cc1ccc(cc1)c2ccccc2c3n[nH]nn3)[C@@H](C(C)C)C(O)=O
InChI: InChI=1S/C24H29N5O3/c1-4-5-10-21(30)29(22(16(2)3)24(31)32)15-17-11-13-18(14-12-17)19-8-6-7-9-20(19)23-25-27-28-26-23/h6-9,11-14,16,22H,4-5,10,15H2,1-3H3,(H,31,32)(H,25,26,27,28)/t22-/m0/s1
Instrument: TripleTOF 5600 SCIEX
Instrument type: LC-ESI-QTOF
Ms type: MS2
Ion mode: NEGATIVE
Collision energy: 130
Fragmentation mode: CID
Ionization: ESI
Column name: Zorbax Eclipse Plus C18 2.1 mm x 150 mm, 3.5 um, Agilent
Retention time: 11.443 min
Precursor m/z: 434.2198
Precursor type: [M-H]-
m/z	relative intensity
41.017	66
42.003	166
42.0125	999
42.0436	66
83.0484	66
116.0725	99
164.0459	66
165.074	133
178.079	99
190.0658	299
204.072	99
