Mass spectrum: Resorcinol bis(diphenyl phosphate); LC-ESI-QTOF; MS2; 70 V
Name: Resorcinol bis(diphenyl phosphate)
Class: Industrial_process
Formula: C30H24O8P2
Exact mass: 574.0946
SMILES: C1=CC=C(C=C1)OP(=O)(OC2=CC=CC=C2)OC3=CC(=CC=C3)OP(=O)(OC4=CC=CC=C4)OC5=CC=CC=C5
InChI: InChI=1S/C30H24O8P2/c31-39(33-25-14-5-1-6-15-25,34-26-16-7-2-8-17-26)37-29-22-13-23-30(24-29)38-40(32,35-27-18-9-3-10-19-27)36-28-20-11-4-12-21-28/h1-24H
Instrument: TripleTOF 6600 SCIEX
Instrument type: LC-ESI-QTOF
Ms type: MS2
Ion mode: POSITIVE
Collision energy: 70
Fragmentation mode: CID
Ionization: ESI
Column name: Zorbax Eclipse Plus C18 2.1 mm x 150 mm, 3.5 um, Agilent
Retention time: 15.87 min
Precursor m/z: 575.1019
Precursor type: [M+H]+
m/z	relative intensity
50.0154	17
51.0228	55
65.0387	45
77.039	571
89.0393	15
91.055	12
92.026	12
93.0338	43
94.042	12
95.0131	15
95.0493	41
102.0462	13
105.0449	19
109.0296	12
115.0546	213
121.0302	10
125.0378	13
126.0457	13
127.0548	36
128.0626	97
129.0711	24
133.0214	26
138.9962	34
139.0552	171
140.0629	31
141.0708	523
149.016	19
149.0388	12
150.0468	101
151.0553	478
152.0635	999
153.0707	342
154.0777	17
154.9899	10
155.0508	41
156.0581	48
157.0047	22
157.0203	36
157.0657	45
159.0374	26
165.0709	19
167.0505	89
168.0581	537
169.0655	268
170.0748	47
171.082	29
173.0157	24
175.024	139
177.0107	29
178.0775	20
179.0626	55
183.0452	22
184.0535	179
185.0166	24
185.0614	43
186.0242	17
187.032	80
187.0754	10
189.0119	29
189.0706	54
190.0785	24
191.0873	94
195.0564	19
199.0336	13
200.0636	22
201.0122	26
201.0713	50
202.0796	326
203.027	225
203.0873	24
204.094	24
205.0066	64
205.0653	15
206.0736	13
206.9623	13
207.082	22
213.0112	66
213.0709	19
214.0177	15
214.0805	29
215.0277	696
215.0867	190
216.0952	71
217.066	41
217.103	113
218.0751	118
218.9626	31
219.0208	38
219.0825	52
221.0384	19
222.0092	99
223.0169	158
224.0637	13
225.0722	45
226.0799	855
227.0872	195
228.0956	214
229.0081	52
229.0742	20
229.103	41
230.0152	12
230.076	40
231.023	735
231.0571	10
231.0839	43
232.0301	41
232.0911	31
233.0391	146
233.0991	13
234.0703	55
234.9582	52
242.075	130
243.0825	94
244.0912	136
245.0981	90
246.0695	15
246.1049	15
247.0182	34
248.0253	129
249.0336	199
251.0491	309
253.0447	90
258.0702	19
259.0213	10
259.0766	22
260.0418	45
260.0854	76
261.0485	75
261.096	10
263.0281	29
264.9855	12
265.0457	10
265.1022	12
267.044	54
276.0965	38
276.9897	12
277.0454	22
277.1018	24
278.1124	22
279.0596	75
281.0408	78
289.0442	223
289.1039	34
290.113	13
291.0595	61
291.1192	22
292.9793	110
293.0951	10
293.1302	12
294.9948	54
295.0546	13
297.0286	10
298.0432	27
299.0501	282
300.096	54
301.1045	54
302.1133	200
303.1197	22
304.1325	13
305.0395	47
305.0974	33
306.0484	29
306.1054	15
307.0551	321
308.0644	29
309.0342	61
309.0708	33
310.0417	10
310.9905	433
313.0052	45
313.0586	15
318.1077	43
319.1125	15
320.1226	31
322.0427	12
323.0515	24
324.0573	20
325.0656	73
326.0732	12
327.0816	120
329.0011	111
336.1175	17
341.0207	10
341.0634	22
343.0761	216
347.0675	13
350.9994	29
363.0651	10
365.0774	36
369.0103	124
371.0295	13
383.088	50
387.022	169
389.0413	15
405.0331	225
417.0916	10
419.1087	85
423.0395	15
427.0286	12
445.0451	24
463.0549	59
481.0658	125
499.0757	40
575.109	24
