Mass spectrum: Valsartan; LC-ESI-QTOF; MS2; 130 V
Name: Valsartan
Class: Pharmaceutical
Formula: C24H29N5O3
Exact mass: 435.227
SMILES: CCCCC(=O)N(Cc1ccc(cc1)c2ccccc2c3n[nH]nn3)[C@@H](C(C)C)C(O)=O
InChI: InChI=1S/C24H29N5O3/c1-4-5-10-21(30)29(22(16(2)3)24(31)32)15-17-11-13-18(14-12-17)19-8-6-7-9-20(19)23-25-27-28-26-23/h6-9,11-14,16,22H,4-5,10,15H2,1-3H3,(H,31,32)(H,25,26,27,28)/t22-/m0/s1
Instrument: TripleTOF 5600 SCIEX
Instrument type: LC-ESI-QTOF
Ms type: MS2
Ion mode: POSITIVE
Collision energy: 130
Fragmentation mode: CID
Ionization: ESI
Column name: Zorbax Eclipse Plus C18 2.1 mm x 150 mm, 3.5 um, Agilent
Retention time: 11.443 min
Precursor m/z: 436.2343
Precursor type: [M+H]+
m/z	relative intensity
74.0194	14
75.0263	37
76.0351	10
77.0419	149
87.0246	17
88.0342	13
89.0403	55
99.0239	15
101.0395	32
102.0341	10
102.046	33
113.0389	83
114.034	19
114.0436	30
115.0545	83
116.0506	11
125.0391	58
126.047	100
127.0543	149
128.062	74
137.0389	62
138.0464	67
139.0542	145
140.0499	171
141.0594	12
149.0395	23
150.047	290
151.055	769
152.0628	999
153.0599	49
154.0665	14
161.0397	21
162.0464	80
163.0549	413
164.0519	342
165.0699	197
166.0646	24
175.0527	15
176.063	310
177.0601	156
178.0667	306
179.0729	42
180.0813	20
188.0495	119
189.0567	67
190.0655	250
191.0605	37
192.0667	13
204.0708	16
205.0763	159
