Mass spectrum: Sulfadimethoxine; LC-ESI-QTOF; MS2; 150 V
Name: Sulfadimethoxine
Class: Pharmaceutical
Formula: C12H14N4O4S
Exact mass: 310.0736
SMILES: COC1=NC(=NC(=C1)NS(=O)(=O)C2=CC=C(C=C2)N)OC
InChI: InChI=1S/C12H14N4O4S/c1-19-11-7-10(14-12(15-11)20-2)16-21(17,18)9-5-3-8(13)4-6-9/h3-7H,13H2,1-2H3,(H,14,15,16)
Instrument: TripleTOF 5600 SCIEX
Instrument type: LC-ESI-QTOF
Ms type: MS2
Ion mode: POSITIVE
Collision energy: 150
Fragmentation mode: CID
Ionization: ESI
Column name: Zorbax Eclipse Plus C18 2.1 mm x 150 mm, 3.5 um, Agilent
Retention time: 8.09 min
Precursor m/z: 311.0809
Precursor type: [M+H]+
m/z	relative intensity
36.0002	66
37.0074	280
38.0147	247
39.0231	999
40.0185	173
41.0265	57
42.0337	66
43.0291	66
44.0123	74
50.0157	49
51.0237	66
52.0183	107
53.0142	41
53.0387	247
54.0336	99
58.03	33
62.0153	74
63.023	156
64.0185	41
65.0138	66
65.0246	41
65.0383	941
66.0211	99
66.033	57
66.0437	41
67.0056	41
67.0291	297
68.0132	239
69.0081	239
69.0444	41
69.9912	82
74.0146	57
77.0135	49
77.039	33
78.0218	41
80.0491	346
82.0303	33
