Mass spectrum: Sotalol; LC-ESI-QTOF; MS2; 130 V
Name: Sotalol
Class: Pharmaceutical
Formula: C12H20N2O3S
Exact mass: 272.1195
SMILES: CC(C)NCC(C1=CC=C(C=C1)NS(=O)(=O)C)O
InChI: InChI=1S/C12H20N2O3S/c1-9(2)13-8-12(15)10-4-6-11(7-5-10)14-18(3,16)17/h4-7,9,12-15H,8H2,1-3H3
Instrument: TripleTOF 5600 SCIEX
Instrument type: LC-ESI-QTOF
Ms type: MS2
Ion mode: POSITIVE
Collision energy: 130
Fragmentation mode: CID
Ionization: ESI
Column name: Zorbax Eclipse Plus C18 2.1 mm x 150 mm, 3.5 um, Agilent
Retention time: 4.583 min
Precursor m/z: 273.1267
Precursor type: [M+H]+
m/z	relative intensity
65.0453	142
67.0476	142
77.0434	999
78.0377	59
79.0583	190
80.0527	237
89.0426	297
90.0489	71
91.0521	95
104.0532	107
106.0661	166
