Mass spectrum: Atrazine-desisopropyl-2-hydroxy; LC-ESI-QTOF; MS2; 20 V
Name: Atrazine-desisopropyl-2-hydroxy
Class: Herbicide; Transformation_product
Formula: C5H9N5O
Exact mass: 155.0807
SMILES: CCNC1=NC(=O)N=C(N)N1
InChI: InChI=1S/C5H9N5O/c1-2-7-4-8-3(6)9-5(11)10-4/h2H2,1H3,(H4,6,7,8,9,10,11)
Instrument: TripleTOF 5600 SCIEX
Instrument type: LC-ESI-QTOF
Ms type: MS2
Ion mode: NEGATIVE
Collision energy: 20
Fragmentation mode: CID
Ionization: ESI
Column name: Zorbax Eclipse Plus C18 2.1 mm x 150 mm, 3.5 um, Agilent
Retention time: 2.315 min
Precursor m/z: 154.0734
Precursor type: [M-H]-
m/z	relative intensity
41.0175	150
42.0022	131
69.045	395
83.0361	113
84.0194	226
111.0672	999
154.0725	753
