Mass spectrum: 2-Aminobenzimidazole; LC-ESI-QTOF; MS2; 40 V
Name: 2-Aminobenzimidazole
Class: Transformation_product; Fungicide; Transformation_product-Metabolite
Formula: C7H7N3
Exact mass: 133.064
SMILES: C1=CC=C2C(=C1)NC(=N2)N
InChI: InChI=1S/C7H7N3/c8-7-9-5-3-1-2-4-6(5)10-7/h1-4H,(H3,8,9,10)
Instrument: TripleTOF 6600 SCIEX
Instrument type: LC-ESI-QTOF
Ms type: MS2
Ion mode: POSITIVE
Collision energy: 40
Fragmentation mode: CID
Ionization: ESI
Column name: Zorbax Eclipse Plus C18 2.1 mm x 150 mm, 3.5 um, Agilent
Retention time: 4.787 min
Precursor m/z: 134.0713
Precursor type: [M+H]+
m/z	relative intensity
37.007	26
38.0148	27
39.0229	240
53.0382	37
63.0231	14
65.0384	999
66.0343	10
66.0459	37
80.0489	190
90.0333	19
92.0492	573
93.057	191
105.0447	11
106.0516	10
107.0598	108
117.0439	28
133.0628	39
134.0707	435
