Mass spectrum: Fexofenadinone; LC-ESI-QTOF; MS2; 90 V
Name: Fexofenadinone
Class: Pharmaceutical
Formula: C32H37NO4
Exact mass: 499.2723
SMILES: O=C(C1=CC=C(C(C)(C(O)=O)C)C=C1)CCCN(CCC2)CC2C(C3=CC=CC=C3)(O)C4=CC=CC=C4
InChI: InChI=1S/C32H37NO4/c1-31(2,30(35)36)25-19-17-24(18-20-25)29(34)16-10-22-33-21-9-15-28(23-33)32(37,26-11-5-3-6-12-26)27-13-7-4-8-14-27/h3-8,11-14,17-20,28,37H,9-10,15-16,21-23H2,1-2H3,(H,35,36)
Instrument: TripleTOF 5600 SCIEX
Instrument type: LC-ESI-QTOF
Ms type: MS2
Ion mode: POSITIVE
Collision energy: 90
Fragmentation mode: CID
Ionization: ESI
Column name: Zorbax Eclipse Plus C18 2.1 mm x 150 mm, 3.5 um, Agilent
Retention time: 8.706 min
Precursor m/z: 500.2795
Precursor type: [M+H]+
m/z	relative intensity
77.038	24
79.0539	22
89.0388	10
90.0462	26
91.0542	264
93.0331	10
96.0817	10
103.0543	43
104.0622	11
105.0338	16
105.0707	20
107.0487	44
107.0853	15
115.0541	321
116.0627	26
117.0701	568
118.0779	583
119.085	49
121.0286	130
127.0539	12
128.0635	15
131.0489	85
132.0564	10
132.0939	77
135.08	29
145.0646	37
146.073	534
147.0807	33
148.0522	23
163.0753	34
173.0974	83
176.0458	22
188.1207	29
191.071	999
233.1167	14
