Mass spectrum: 3,3-Diphenylacrylonitrile; LC-ESI-QTOF; MS2; 30 V
Name: 3,3-Diphenylacrylonitrile
Formula: C15H11N
Exact mass: 205.0891
SMILES: C1=CC=C(C=C1)C(=CC#N)C2=CC=CC=C2
InChI: InChI=1S/C15H11N/c16-12-11-15(13-7-3-1-4-8-13)14-9-5-2-6-10-14/h1-11H
Instrument: TripleTOF 6600 SCIEX
Instrument type: LC-ESI-QTOF
Ms type: MS2
Ion mode: POSITIVE
Collision energy: 30
Fragmentation mode: CID
Ionization: ESI
Column name: Zorbax Eclipse Plus C18 2.1 mm x 150 mm, 3.5 um, Agilent
Retention time: 13.746 min
Precursor m/z: 206.0964
Precursor type: [M+H]+
m/z	relative intensity
77.0372	90
101.0358	62
103.0524	65
104.0479	631
128.0482	999
129.0426	40
165.0662	78
166.0764	16
177.0682	10
178.0761	238
179.0838	82
189.0734	13
191.0696	24
204.0809	88
205.0874	30
206.0964	897
