Mass spectrum: Primidone; LC-ESI-QTOF; MS2; 60 V
Name: Primidone
Class: Pharmaceutical
Formula: C12H14N2O2
Exact mass: 218.1055
SMILES: CCC1(C(=O)NCNC1=O)c2ccccc2
InChI: InChI=1S/C12H14N2O2/c1-2-12(9-6-4-3-5-7-9)10(15)13-8-14-11(12)16/h3-7H,2,8H2,1H3,(H,13,15)(H,14,16)
Instrument: TripleTOF 5600 SCIEX
Instrument type: LC-ESI-QTOF
Ms type: MS2
Ion mode: POSITIVE
Collision energy: 60
Fragmentation mode: CID
Ionization: ESI
Column name: Zorbax Eclipse Plus C18 2.1 mm x 150 mm, 3.5 um, Agilent
Retention time: 6.353 min
Precursor m/z: 219.1128
Precursor type: [M+H]+
m/z	relative intensity
44.02	11
65.0417	141
77.0422	50
79.0575	31
89.0403	26
89.0669	11
90.047	11
91.0559	999
104.0487	66
104.065	11
105.0618	16
106.0663	19
115.0538	210
116.0577	11
117.069	62
128.0517	33
133.0518	23
146.062	19
