Mass spectrum: Bupropion; LC-ESI-QTOF; MS2; 40 V
Name: Bupropion
Class: Pharmaceutical
Formula: C13H18ClNO
Exact mass: 239.1077
SMILES: CC(C(=O)C1=CC(=CC=C1)Cl)NC(C)(C)C
InChI: InChI=1S/C13H18ClNO/c1-9(15-13(2,3)4)12(16)10-6-5-7-11(14)8-10/h5-9,15H,1-4H3
Instrument: TripleTOF 5600 SCIEX
Instrument type: LC-ESI-QTOF
Ms type: MS2
Ion mode: POSITIVE
Collision energy: 40
Fragmentation mode: CID
Ionization: ESI
Column name: Zorbax Eclipse Plus C18 2.1 mm x 150 mm, 3.5 um, Agilent
Retention time: 6.717 min
Precursor m/z: 240.115
Precursor type: [M+H]+
m/z	relative intensity
57.0744	80
77.0402	71
103.0541	233
104.0604	20
110.9973	14
130.0645	571
131.0727	999
132.0557	15
138.9922	18
139.03	317
151.0173	40
166.0413	330
167.0248	181
184.0515	128
