Mass spectrum: 4,4-Chlorophenoxyphenol; LC-ESI-QTOF; MS2; 40 V
Name: 4,4-Chlorophenoxyphenol
Class: Herbicide
Formula: C12H9ClO2
Exact mass: 220.0291
SMILES: c1cc(ccc1O)Oc2ccc(cc2)Cl
InChI: InChI=1S/C12H9ClO2/c13-9-1-5-11(6-2-9)15-12-7-3-10(14)4-8-12/h1-8,14H
Instrument: TripleTOF 5600 SCIEX
Instrument type: LC-ESI-QTOF
Ms type: MS2
Ion mode: POSITIVE
Collision energy: 40
Fragmentation mode: CID
Ionization: ESI
Column name: Zorbax Eclipse Plus C18 2.1 mm x 150 mm, 3.5 um, Agilent
Retention time: 12.354 min
Precursor m/z: 221.0364
Precursor type: [M+H]+
m/z	relative intensity
55.0599	295
57.0757	158
65.0416	181
67.057	249
69.0746	113
77.04	272
79.0558	408
81.0359	317
81.0721	385
83.0497	113
91.0563	817
93.0701	249
94.0435	340
99.0012	340
103.0531	90
105.0717	431
107.057	136
107.0834	158
109.0294	181
109.0652	113
110.0337	272
111.0789	317
115.054	113
117.0698	90
121.0638	340
127.054	136
128.0012	113
128.0619	317
129.0709	249
131.0535	204
135.0826	136
138.0663	158
139.0535	590
140.0613	204
157.0651	363
158.0716	249
167.0536	113
168.057	999
185.0559	204
186.0671	930
186.0836	90
