Mass spectrum: Gabapentin-lactam; LC-ESI-QTOF; MS2; 70 V
Name: Gabapentin-lactam
Class: Pharmaceutical; Transformation_product-Metabolite
Formula: C9H15NO
Exact mass: 153.1154
SMILES: C1CCC2(CC1)CC(=O)NC2
InChI: InChI=1S/C9H15NO/c11-8-6-9(7-10-8)4-2-1-3-5-9/h1-7H2,(H,10,11)
Instrument: TripleTOF 5600 SCIEX
Instrument type: LC-ESI-QTOF
Ms type: MS2
Ion mode: POSITIVE
Collision energy: 70
Fragmentation mode: CID
Ionization: ESI
Column name: Zorbax Eclipse Plus C18 2.1 mm x 150 mm, 3.5 um, Agilent
Retention time: 7.593 min
Precursor m/z: 154.1227
Precursor type: [M+H]+
m/z	relative intensity
37.0071	148
38.0161	222
39.0229	999
41.0382	666
43.0176	222
44.0131	888
51.0232	222
53.039	185
55.0541	518
65.038	481
67.0537	554
77.0381	777
79.0545	481
91.0525	185
