Mass spectrum: 3,3`-Dimethoxybenzidine; LC-ESI-QTOF; MS2; 150 V
Name: 3,3`-Dimethoxybenzidine
Formula: C14H16N2O2
Exact mass: 244.1212
SMILES: COC1=C(C=CC(=C1)C2=CC(=C(C=C2)N)OC)N
InChI: InChI=1S/C14H16N2O2/c1-17-13-7-9(3-5-11(13)15)10-4-6-12(16)14(8-10)18-2/h3-8H,15-16H2,1-2H3
Instrument: TripleTOF 6600 SCIEX
Instrument type: LC-ESI-QTOF
Ms type: MS2
Ion mode: POSITIVE
Collision energy: 150
Fragmentation mode: CID
Ionization: ESI
Column name: Zorbax Eclipse Plus C18 2.1 mm x 150 mm, 3.5 um, Agilent
Retention time: 5.188 min
Precursor m/z: 245.1285
Precursor type: [M+H]+
m/z	relative intensity
37.0072	121
39.0227	341
50.0153	438
51.022	584
52.0193	170
61.0064	389
62.0146	755
63.0225	609
73.0069	170
74.0142	999
75.022	292
77.0379	146
78.0393	121
86.0141	341
87.0223	170
89.0391	146
98.0148	316
113.0383	170
