Mass spectrum: 1-Boc-4-[3-(ethoxycarbonyl)phenyl]piperazine; LC-ESI-QTOF; MS2; 100 V
Name: 1-Boc-4-[3-(ethoxycarbonyl)phenyl]piperazine
Formula: C18H26N2O4
Exact mass: 334.1893
SMILES: CCOC(=O)C1=CC(=CC=C1)N2CCN(CC2)C(=O)OC(C)(C)C
InChI: InChI=1S/C18H26N2O4/c1-5-23-16(21)14-7-6-8-15(13-14)19-9-11-20(12-10-19)17(22)24-18(2,3)4/h6-8,13H,5,9-12H2,1-4H3
Instrument: TripleTOF 6600 SCIEX
Instrument type: LC-ESI-QTOF
Ms type: MS2
Ion mode: POSITIVE
Collision energy: 100
Fragmentation mode: CID
Ionization: ESI
Column name: Zorbax Eclipse Plus C18 2.1 mm x 150 mm, 3.5 um, Agilent
Retention time: 14.611 min
Precursor m/z: 335.1965
Precursor type: [M+H]+
m/z	relative intensity
37.0072	22
38.0025	17
38.0159	25
39.0231	204
41.0385	118
42.0339	45
44.0494	119
49.0072	11
50.0149	58
51.023	228
53.0396	11
56.0506	45
57.0697	48
63.0234	17
65.0387	569
66.0468	16
75.023	85
76.0308	14
77.0386	999
78.0338	38
78.0461	84
79.0544	77
80.0494	27
89.039	85
90.0333	9
90.0463	89
91.0543	884
92.0491	55
92.062	19
93.0324	12
93.0571	123
94.0637	37
102.0468	14
103.0542	124
104.0492	114
105.0328	9
105.0453	21
105.0575	25
106.0648	27
115.0539	29
116.0495	51
117.0573	440
118.0651	898
119.0733	63
120.0454	14
120.08	87
121.0285	48
129.0561	9
130.0647	72
131.0587	9
131.0718	16
132.0801	17
143.0714	11
144.0493	16
144.0823	11
145.0767	21
148.0395	58
149.0343	11
149.0464	16
150.0549	38
159.091	12
164.0709	48
