Mass spectrum: Bentazone; LC-ESI-QTOF; MS2; 110 V
Name: Bentazone
Class: Herbicide
Formula: C10H12N2O3S
Exact mass: 240.0569
SMILES: CC(C)N1C(=O)c2ccccc2NS1(=O)=O
InChI: InChI=1S/C10H12N2O3S/c1-7(2)12-10(13)8-5-3-4-6-9(8)11-16(12,14)15/h3-7,11H,1-2H3
Instrument: TripleTOF 6600 SCIEX
Instrument type: LC-ESI-QTOF
Ms type: MS2
Ion mode: POSITIVE
Collision energy: 110
Fragmentation mode: CID
Ionization: ESI
Column name: Zorbax Eclipse Plus C18 2.1 mm x 150 mm, 3.5 um, Agilent
Retention time: 9.867 min
Precursor m/z: 241.0642
Precursor type: [M+H]+
m/z	relative intensity
37.0069	315
38.0149	262
39.0228	999
50.0152	262
51.0225	525
53.0385	683
62.0146	262
63.0226	630
64.0185	210
80.0487	525
