Mass spectrum: Lumichrome; LC-ESI-QTOF; MS2; 100 V
Name: Lumichrome
Class: Pharmaceutical
Formula: C12H10N4O2
Exact mass: 242.0804
SMILES: CC1=CC2=C(C=C1C)N=C3C(=N2)C(=O)NC(=O)N3
InChI: InChI=1S/C12H10N4O2/c1-5-3-7-8(4-6(5)2)14-10-9(13-7)11(17)16-12(18)15-10/h3-4H,1-2H3,(H2,14,15,16,17,18)
Instrument: TripleTOF 6600 SCIEX
Instrument type: LC-ESI-QTOF
Ms type: MS2
Ion mode: POSITIVE
Collision energy: 100
Fragmentation mode: CID
Ionization: ESI
Column name: Zorbax Eclipse Plus C18 2.1 mm x 150 mm, 3.5 um, Agilent
Retention time: 7.067 min
Precursor m/z: 243.0877
Precursor type: [M+H]+
m/z	relative intensity
37.0081	18
38.0158	20
39.0235	72
44.0139	18
49.0084	67
50.0158	385
51.0237	999
52.0188	26
52.0314	13
61.008	26
62.0156	62
63.0231	184
64.0185	41
65.0392	143
74.0153	114
75.011	20
75.0231	187
76.0187	57
76.0307	65
77.0393	733
78.0461	39
86.0166	15
88.0308	15
89.0392	223
90.0339	23
90.0469	28
91.0543	57
99.0151	18
100.0178	20
101.0405	18
102.0354	44
102.047	70
103.0435	15
103.0549	28
104.0528	15
105.045	18
114.0344	20
116.0505	31
117.0572	23
129.045	10
130.0397	15
156.0559	15
