Mass spectrum: Laureth-5; LC-ESI-QTOF; MS2; 30 V
Name: Laureth-5
Formula: C22H46O6
Exact mass: 406.3294
SMILES: CCCCCCCCCCCCOCCOCCOCCOCCOCCO
InChI: InChI=1S/C22H46O6/c1-2-3-4-5-6-7-8-9-10-11-13-24-15-17-26-19-21-28-22-20-27-18-16-25-14-12-23/h23H,2-22H2,1H3
Instrument: TripleTOF 6600 SCIEX
Instrument type: LC-ESI-QTOF
Ms type: MS2
Ion mode: POSITIVE
Collision energy: 30
Fragmentation mode: CID
Ionization: ESI
Column name: Zorbax Eclipse Plus C18 2.1 mm x 150 mm, 3.5 um, Agilent
Retention time: 17.227 min
Precursor m/z: 407.3367
Precursor type: [M+H]+
m/z	relative intensity
43.0538	14
45.0336	231
57.0697	116
69.0688	12
71.0852	184
73.0642	33
83.0841	11
85.1007	157
87.0432	13
89.0595	999
97.1001	21
99.1163	57
111.116	13
113.132	39
117.09	13
127.1468	17
133.0857	382
151.0956	26
169.195	18
177.1111	59
195.1221	25
239.1492	41
