Mass spectrum: Acid Red 1; LC-ESI-QTOF; MS2; 90 V
Name: Acid Red 1
Class: Industrial_process; Personal_care_product; Pigment; Food_additive
Formula: C18H15N3O8S2
Exact mass: 465.0301
SMILES: CC(=O)NC1=C2C(=CC(=C1)S(=O)(=O)O)C=C(C(=C2O)N=NC3=CC=CC=C3)S(=O)(=O)O
InChI: InChI=1S/C18H15N3O8S2/c1-10(22)19-14-9-13(30(24,25)26)7-11-8-15(31(27,28)29)17(18(23)16(11)14)21-20-12-5-3-2-4-6-12/h2-9,23H,1H3,(H,19,22)(H,24,25,26)(H,27,28,29)
Instrument: TripleTOF 5600 SCIEX
Instrument type: LC-ESI-QTOF
Ms type: MS2
Ion mode: NEGATIVE
Collision energy: 90
Fragmentation mode: CID
Ionization: ESI
Column name: Zorbax Eclipse Plus C18 2.1 mm x 150 mm, 3.5 um, Agilent
Retention time: 7.21 min
Precursor m/z: 464.0228
Precursor type: [M-H]-
m/z	relative intensity
79.9567	799
80.9651	266
114.0236	133
116.0155	66
117.0273	133
118.0261	66
128.0489	532
129.0325	399
129.0489	66
142.0143	133
143.0238	799
144.043	199
156.03	66
156.0475	333
157.0401	999
157.0563	66
158.027	133
159.0532	133
160.0389	266
172.0437	133
173.0409	133
183.0565	199
183.0651	66
184.0391	266
185.0352	999
196.0092	133
198.0563	399
200.035	599
208.0054	133
208.0216	66
214.0397	66
216.0323	133
224.0023	199
253.001	66
263.9906	466
