Mass spectrum: Parathion-methyl; LC-ESI-QTOF; MS2; 20 V
Name: Parathion-methyl
Class: Insecticide
Formula: C8H10NO5PS
Exact mass: 263.0017
SMILES: COP(=S)(OC)OC1=CC=C(C=C1)[N+](=O)[O-]
InChI: InChI=1S/C8H10NO5PS/c1-12-15(16,13-2)14-8-5-3-7(4-6-8)9(10)11/h3-6H,1-2H3
Instrument: TripleTOF 6600 SCIEX
Instrument type: LC-ESI-QTOF
Ms type: MS2
Ion mode: POSITIVE
Collision energy: 20
Fragmentation mode: CID
Ionization: ESI
Column name: Zorbax Eclipse Plus C18 2.1 mm x 150 mm, 3.5 um, Agilent
Retention time: 12.495 min
Precursor m/z: 264.009
Precursor type: [M+H]+
m/z	relative intensity
78.9936	23
109.0036	167
123.0302	104
124.9809	490
127.0147	45
137.9996	19
139.0064	47
141.9836	24
142.9919	12
153.9965	10
185.9881	41
199.9559	35
201.9832	11
214.9781	17
218.0133	29
231.9821	999
249.9918	99
264.0087	730
