Mass spectrum: Azithromycin; LC-ESI-QTOF; MS2; 90 V
Name: Azithromycin
Class: Pharmaceutical
Formula: C38H72N2O12
Exact mass: 748.5085
SMILES: CC[C@H]1OC(=O)[C@H](C)[C@@H](O[C@H]2C[C@@](C)(OC)[C@@H](O)[C@H](C)O2)C(C)[C@@H](O[C@@H]3O[C@H](C)C[C@@H]([C@H]3O)N(C)C)[C@](C)(O)C[C@@H](C)CN(C)[C@H](C)[C@@H](O)[C@]1(C)O
InChI: InChI=1S/C38H72N2O12/c1-15-27-38(10,46)31(42)24(6)40(13)19-20(2)17-36(8,45)33(52-35-29(41)26(39(11)12)16-21(3)48-35)22(4)30(23(5)34(44)50-27)51-28-18-37(9,47-14)32(43)25(7)49-28/h20-33,35,41-43,45-46H,15-19H2,1-14H3/t20-,21-,22?,23-,24-,25+,26+,27-,28+,29-,30+,31-,32+,33-,35+,36-,37-,38-/m1/s1
Instrument: TripleTOF 5600 SCIEX
Instrument type: LC-ESI-QTOF
Ms type: MS2
Ion mode: POSITIVE
Collision energy: 90
Fragmentation mode: CID
Ionization: ESI
Column name: Zorbax Eclipse Plus C18 2.1 mm x 150 mm, 3.5 um, Agilent
Retention time: 6.249 min
Precursor m/z: 749.5158
Precursor type: [M+H]+
m/z	relative intensity
43.0241	20
45.0431	27
55.0603	86
57.0629	20
58.0687	13
59.054	34
70.0679	24
72.0848	375
73.0671	27
79.0573	20
81.0733	34
83.0522	999
84.0832	51
85.0288	13
85.0684	20
86.0592	20
87.046	179
88.0774	148
98.0585	17
98.0706	17
98.0975	485
99.0804	34
99.106	24
100.0756	41
105.0703	17
110.0969	31
113.0602	58
114.0931	27
115.0768	27
116.0723	272
116.1067	444
121.101	41
127.0763	17
128.1078	13
138.1267	41
140.1045	24
156.1365	55
158.1176	230
