Mass spectrum: Nitrendipine; LC-ESI-QTOF; MS2; 100 V
Name: Nitrendipine
Class: Pharmaceutical
Formula: C18H20N2O6
Exact mass: 360.1321
SMILES: CCOC(=O)C1=C(NC(=C(C1C2=CC(=CC=C2)[N+](=O)[O-])C(=O)OC)C)C
InChI: InChI=1S/C18H20N2O6/c1-5-26-18(22)15-11(3)19-10(2)14(17(21)25-4)16(15)12-7-6-8-13(9-12)20(23)24/h6-9,16,19H,5H2,1-4H3
Instrument: TripleTOF 5600 SCIEX
Instrument type: LC-ESI-QTOF
Ms type: MS2
Ion mode: POSITIVE
Collision energy: 100
Fragmentation mode: CID
Ionization: ESI
Column name: Zorbax Eclipse Plus C18 2.1 mm x 150 mm, 3.5 um, Agilent
Retention time: 12.373 min
Precursor m/z: 361.1394
Precursor type: [M+H]+
m/z	relative intensity
67.0237	390
75.0283	30
76.0379	45
77.0428	191
78.0494	41
79.0581	22
88.0316	15
89.042	116
91.0575	41
94.0687	26
101.041	48
102.048	131
103.0547	30
104.0512	90
105.0582	30
106.0678	75
113.0393	71
114.0499	86
115.0551	634
116.0594	22
117.0562	15
118.0695	15
122.06	41
125.0395	33
126.0468	138
127.0546	428
128.0623	375
129.0706	41
130.0659	52
131.0756	15
132.0436	18
134.0581	33
137.0393	30
138.0454	48
139.0551	807
140.0535	390
141.0665	225
142.0635	18
143.0724	33
144.0831	48
150.049	116
151.0552	334
152.0615	999
153.0671	315
154.0637	232
155.0742	45
156.0799	18
163.0543	105
164.0565	123
165.0673	131
166.0645	322
167.0731	503
168.0799	172
169.0879	37
170.0941	22
177.0584	48
178.065	259
179.0732	108
180.0802	439
181.0631	26
181.0881	153
182.0593	18
182.099	52
190.063	45
191.0698	18
192.0776	15
194.0592	18
196.0698	22
197.0867	26
198.0906	22
206.0605	30
207.0667	22
208.0756	48
209.0876	41
225.0714	18
