Mass spectrum: 2-Mercaptobenzothiazole; LC-ESI-QTOF; MS2; 20 V
Name: 2-Mercaptobenzothiazole
Class: Fungicide; Transformation_product
Formula: C7H5NS2
Exact mass: 166.9863
InChI: InChI=1S/C7H5NS2/c9-7-8-5-3-1-2-4-6(5)10-7/h1-4H,(H,8,9)
Instrument: TripleTOF 5600 SCIEX
Instrument type: LC-ESI-QTOF
Ms type: CID
Ion mode: NEGATIVE
Collision energy: 20
Ionization: ESI
Column name: Zorbax Eclipse Plus C18 2.1 mm x 150 mm, 3.5 um, Agilent
Retention time: 9.12 min
Precursor m/z: 165.9791
Precursor type: [M-H]-
m/z	relative intensity
134.0072	171
165.9797	999
