Mass spectrum: Pyrimethanil; LC-ESI-QTOF; MS2; 70 V
Name: Pyrimethanil
Class: Fungicide
Formula: C12H13N3
Exact mass: 199.1109
SMILES: CC1=CC(=NC(=N1)NC2=CC=CC=C2)C
InChI: InChI=1S/C12H13N3/c1-9-8-10(2)14-12(13-9)15-11-6-4-3-5-7-11/h3-8H,1-2H3,(H,13,14,15)
Instrument: TripleTOF 6600 SCIEX
Instrument type: LC-ESI-QTOF
Ms type: MS2
Ion mode: POSITIVE
Collision energy: 70
Fragmentation mode: CID
Ionization: ESI
Column name: Zorbax Eclipse Plus C18 2.1 mm x 150 mm, 3.5 um, Agilent
Retention time: 9.225 min
Precursor m/z: 200.1182
Precursor type: [M+H]+
m/z	relative intensity
35.9995	11
37.0073	45
38.0154	33
39.023	211
40.0182	29
41.0259	40
42.0341	909
49.0071	24
50.0148	218
51.023	999
52.0173	15
52.03	18
53.0383	272
54.0333	27
55.0538	22
62.0147	18
63.0225	76
65.0385	384
66.034	45
66.0455	83
67.0306	548
74.0149	18
75.0222	40
76.0179	13
76.0297	24
77.0383	778
78.0326	24
78.0453	15
80.0485	92
82.0642	27
88.0298	38
89.038	112
90.0461	18
91.0414	33
91.0538	20
92.0487	92
93.0568	72
95.0597	22
101.0374	29
102.0339	36
102.045	22
103.0406	38
105.0437	15
113.0373	114
114.0456	186
115.0414	13
115.0531	87
116.0484	27
117.0559	15
118.0506	24
119.0593	20
126.0449	24
127.0532	112
128.0488	38
128.0617	38
129.0439	18
129.0547	15
130.0394	27
130.0628	18
131.0607	18
139.0536	29
140.0489	301
141.0565	47
142.0525	15
143.0591	38
153.0555	20
154.0636	62
155.059	33
156.0676	27
166.0639	13
167.0613	33
168.0661	33
179.0594	18
180.0665	18
181.0751	157
182.0835	9
183.0827	11
