Mass spectrum: Resorcinol bis(diphenyl phosphate); LC-ESI-QTOF; MS2; 40 V
Name: Resorcinol bis(diphenyl phosphate)
Class: Industrial_process
Formula: C30H24O8P2
Exact mass: 574.0946
SMILES: C1=CC=C(C=C1)OP(=O)(OC2=CC=CC=C2)OC3=CC(=CC=C3)OP(=O)(OC4=CC=CC=C4)OC5=CC=CC=C5
InChI: InChI=1S/C30H24O8P2/c31-39(33-25-14-5-1-6-15-25,34-26-16-7-2-8-17-26)37-29-22-13-23-30(24-29)38-40(32,35-27-18-9-3-10-19-27)36-28-20-11-4-12-21-28/h1-24H
Instrument: TripleTOF 6600 SCIEX
Instrument type: LC-ESI-QTOF
Ms type: MS2
Ion mode: POSITIVE
Collision energy: 40
Fragmentation mode: CID
Ionization: ESI
Column name: Zorbax Eclipse Plus C18 2.1 mm x 150 mm, 3.5 um, Agilent
Retention time: 15.87 min
Precursor m/z: 575.1019
Precursor type: [M+H]+
m/z	relative intensity
215.0264	10
231.0219	12
325.0632	14
343.0759	15
387.0199	14
405.0309	22
419.1073	51
463.0538	10
481.0642	72
499.0736	14
575.107	999
