Mass spectrum: Zoxamide; LC-ESI-QTOF; MS2; 110 V
Name: Zoxamide
Class: Fungicide
Formula: C14H16Cl3NO2
Exact mass: 335.0247
SMILES: CCC(C)(C(=O)CCl)NC(=O)C1=CC(=C(C(=C1)Cl)C)Cl
InChI: InChI=1S/C14H16Cl3NO2/c1-4-14(3,12(19)7-15)18-13(20)9-5-10(16)8(2)11(17)6-9/h5-6H,4,7H2,1-3H3,(H,18,20)
Instrument: TripleTOF 6600 SCIEX
Instrument type: LC-ESI-QTOF
Ms type: MS2
Ion mode: POSITIVE
Collision energy: 110
Fragmentation mode: CID
Ionization: ESI
Column name: Zorbax Eclipse Plus C18 2.1 mm x 150 mm, 3.5 um, Agilent
Retention time: 14.13 min
Precursor m/z: 336.032
Precursor type: [M+H]+
m/z	relative intensity
39.0231	40
44.013	20
46.9679	27
48.9835	77
61.0073	37
62.015	134
63.0227	293
72.9836	519
82.9444	50
87.0233	43
88.0305	108
89.0382	999
96.9832	158
98.9993	168
106.9433	30
122.9993	212
124.006	33
132.9599	84
158.9745	23
