Mass spectrum: Dimethachlor; LC-ESI-QTOF; MS2; 40 V
Name: Dimethachlor
Class: Herbicide
Formula: C13H18ClNO2
Exact mass: 255.1026
SMILES: CC1=C(C(=CC=C1)C)N(CCOC)C(=O)CCl
InChI: InChI=1S/C13H18ClNO2/c1-10-5-4-6-11(2)13(10)15(7-8-17-3)12(16)9-14/h4-6H,7-9H2,1-3H3
Instrument: TripleTOF 6600 SCIEX
Instrument type: LC-ESI-QTOF
Ms type: MS2
Ion mode: POSITIVE
Collision energy: 40
Fragmentation mode: CID
Ionization: ESI
Column name: Zorbax Eclipse Plus C18 2.1 mm x 150 mm, 3.5 um, Agilent
Retention time: 10.992 min
Precursor m/z: 256.1099
Precursor type: [M+H]+
m/z	relative intensity
48.9843	46
76.9788	48
77.0387	26
79.0546	53
91.0541	31
103.0543	35
105.0701	183
106.0779	16
107.0859	12
117.0573	13
118.0652	51
119.0854	23
120.0805	26
121.0647	16
131.073	28
131.0839	22
132.0808	176
133.0888	106
144.081	16
146.096	45
147.1041	17
148.1123	999
174.09	26
224.0831	199
