Mass spectrum: Codeine; LC-ESI-QTOF; MS2; 150 V
Name: Codeine
Formula: C18H21NO3
Exact mass: 299.1521
SMILES: CN1CCC23C4C1CC5=C2C(=C(C=C5)OC)OC3C(C=C4)O
InChI: InChI=1S/C18H21NO3/c1-19-8-7-18-11-4-5-13(20)17(18)22-16-14(21-2)6-3-10(15(16)18)9-12(11)19/h3-6,11-13,17,20H,7-9H2,1-2H3
Instrument: TripleTOF 6600 SCIEX
Instrument type: LC-ESI-QTOF
Ms type: MS2
Ion mode: POSITIVE
Collision energy: 150
Fragmentation mode: CID
Ionization: ESI
Column name: Zorbax Eclipse Plus C18 2.1 mm x 150 mm, 3.5 um, Agilent
Retention time: 5.043 min
Precursor m/z: 300.1594
Precursor type: [M+H]+
m/z	relative intensity
37.0068	111
38.0147	88
39.0222	418
41.0377	22
42.0327	40
44.0493	40
49.0065	62
50.0141	481
51.0221	706
52.0298	62
59.9979	62
61.006	281
62.0141	462
63.0217	865
65.0376	336
73.006	151
74.0137	999
75.022	658
76.0294	373
77.0373	836
78.0449	218
83.9976	44
85.0058	177
86.0141	377
87.022	403
88.0286	122
89.0377	906
91.0528	44
97.0041	40
98.0141	492
99.0216	218
100.0285	74
101.0367	66
102.0451	473
103.0534	14
109.0052	37
110.0132	107
111.0227	74
113.0367	310
114.0446	51
115.0529	751
122.0127	59
123.023	33
124.0269	25
125.037	99
126.0442	592
127.0523	170
128.0599	140
129.0439	22
137.0363	74
138.0443	51
139.053	399
140.0556	22
149.0364	96
150.0452	806
151.0527	488
152.061	296
161.0374	70
162.0428	122
163.0535	336
164.0588	55
165.071	33
174.0418	22
175.0505	22
176.06	66
186.046	25
187.0519	92
189.0736	14
