Mass spectrum: Flubendazole; LC-ESI-QTOF; MS2; 120 V
Name: Flubendazole
Class: Pharmaceutical
Formula: C16H12FN3O3
Exact mass: 313.0863
SMILES: COC(=O)Nc1[nH]c2cc(ccc2n1)C(=O)c3ccc(F)cc3
InChI: InChI=1S/C16H12FN3O3/c1-23-16(22)20-15-18-12-7-4-10(8-13(12)19-15)14(21)9-2-5-11(17)6-3-9/h2-8H,1H3,(H2,18,19,20,22)
Instrument: TripleTOF 5600 SCIEX
Instrument type: LC-ESI-QTOF
Ms type: MS2
Ion mode: POSITIVE
Collision energy: 120
Fragmentation mode: CID
Ionization: ESI
Column name: Zorbax Eclipse Plus C18 2.1 mm x 150 mm, 3.5 um, Agilent
Retention time: 9.113 min
Precursor m/z: 314.0935
Precursor type: [M+H]+
m/z	relative intensity
51.0287	53
69.0159	66
73.0107	71
74.019	792
74.0562	13
75.0266	999
76.0205	135
77.0286	182
78.0358	79
83.0325	12
90.035	11
95.0304	280
99.0233	14
103.0296	26
104.0375	47
105.0444	61
107.0298	16
123.034	13
125.0385	12
131.0307	18
133.0446	12
146.0509	10
157.0453	21
158.0392	13
182.0389	10
