Mass spectrum: Tributylmethylammonium; LC-ESI-QTOF; MS2; 40 V
Name: Tributylmethylammonium
Formula: [C13H30N]+
Exact mass: 200.2373
SMILES: CCCC[N+](C)(CCCC)CCCC
InChI: InChI=1S/C13H30N/c1-5-8-11-14(4,12-9-6-2)13-10-7-3/h5-13H2,1-4H3/q+1
Instrument: TripleTOF 5600 SCIEX
Instrument type: LC-ESI-QTOF
Ms type: MS2
Ion mode: POSITIVE
Collision energy: 40
Fragmentation mode: CID
Ionization: ESI
Column name: Zorbax Eclipse Plus C18 2.1 mm x 150 mm, 3.5 um, Agilent
Retention time: 7.009 min
Precursor m/z: 200.2373
Precursor type: [M]+
m/z	relative intensity
44.0592	90
57.0756	438
58.0708	659
86.0974	144
88.113	308
100.1123	999
142.1588	251
144.1747	324
200.2378	261
