Mass spectrum: Daidzein; LC-ESI-QTOF; MS2; 150 V
Name: Daidzein
Class: Pharmaceutical; Natural_product
Formula: C15H10O4
Exact mass: 254.0579
SMILES: Oc1ccc(cc1)C2=COc3cc(O)ccc3C2=O
InChI: InChI=1S/C15H10O4/c16-10-3-1-9(2-4-10)13-8-19-14-7-11(17)5-6-12(14)15(13)18/h1-8,16-17H
Instrument: TripleTOF 5600 SCIEX
Instrument type: LC-ESI-QTOF
Ms type: MS2
Ion mode: POSITIVE
Collision energy: 150
Fragmentation mode: CID
Ionization: ESI
Column name: Zorbax Eclipse Plus C18 2.1 mm x 150 mm, 3.5 um, Agilent
Retention time: 7.744 min
Precursor m/z: 255.0652
Precursor type: [M+H]+
m/z	relative intensity
35.9997	96
37.0073	418
38.0151	273
39.0231	805
49.0072	209
50.015	837
51.023	692
53.0022	80
59.9997	112
61.0076	435
62.015	725
63.023	725
65.0375	193
68.9977	112
73.0072	225
74.0153	999
75.0234	209
77.0387	161
85.0082	145
86.0147	177
87.0236	112
89.0385	145
98.0153	290
110.015	96
150.0438	96
