Mass spectrum: Chlorhexidine; LC-ESI-QTOF; MS2; 50 V
Name: Chlorhexidine
Class: Antimicrobial; Personal_care_product; Pharmaceutical
Formula: C22H30Cl2N10
Exact mass: 504.2032
SMILES: C1=CC(=CC=C1NC(=NC(=NCCCCCCN=C(N)N=C(N)NC2=CC=C(C=C2)Cl)N)N)Cl
InChI: InChI=1S/C22H30Cl2N10/c23-15-5-9-17(10-6-15)31-21(27)33-19(25)29-13-3-1-2-4-14-30-20(26)34-22(28)32-18-11-7-16(24)8-12-18/h5-12H,1-4,13-14H2,(H5,25,27,29,31,33)(H5,26,28,30,32,34)
Instrument: TripleTOF 5600 SCIEX
Instrument type: LC-ESI-QTOF
Ms type: MS2
Ion mode: POSITIVE
Collision energy: 50
Fragmentation mode: CID
Ionization: ESI
Column name: Zorbax Eclipse Plus C18 2.1 mm x 150 mm, 3.5 um, Agilent
Retention time: 7.301 min
Precursor m/z: 505.2105
Precursor type: [M+H]+
m/z	relative intensity
100.1129	113
125.1074	476
142.1333	158
153.0205	204
159.1575	181
167.1304	408
170.0467	999
184.1538	544
195.0416	272
201.1816	90
319.1412	272
