Mass spectrum: Ethyl-2-cyano-3.3-diphenylacrylate; LC-ESI-QTOF; MS2; 30 V
Name: Ethyl-2-cyano-3.3-diphenylacrylate
Class: Industrial_process; Personal_care_product
Formula: C18H15NO2
Exact mass: 277.1103
SMILES: CCOC(=O)C(=C(C1=CC=CC=C1)C2=CC=CC=C2)C#N
InChI: InChI=1S/C18H15NO2/c1-2-21-18(20)16(13-19)17(14-9-5-3-6-10-14)15-11-7-4-8-12-15/h3-12H,2H2,1H3
Instrument: TripleTOF 5600 SCIEX
Instrument type: LC-ESI-QTOF
Ms type: MS2
Ion mode: POSITIVE
Collision energy: 30
Fragmentation mode: CID
Ionization: ESI
Column name: Zorbax Eclipse Plus C18 2.1 mm x 150 mm, 3.5 um, Agilent
Retention time: 13.596 min
Precursor m/z: 278.1176
Precursor type: [M+H]+
m/z	relative intensity
77.044	13
104.0511	14
105.035	193
147.0433	13
157.0294	19
176.0621	23
177.0705	87
178.0774	15
179.0824	11
182.0955	17
203.0728	82
204.0802	412
206.0945	23
232.0753	999
250.0846	13
