Mass spectrum: 4'-O-Demethyl pantoprazole sulfide; LC-ESI-QTOF; MS2; 150 V
Name: 4'-O-Demethyl pantoprazole sulfide
Class: Pharmaceutical; Transformation_product-Metabolite
Formula: C15H13F2N3O3S
Exact mass: 353.0646
SMILES: COC1=C(NC=CC1=O)CSC2=NC3=C(N2)C=C(C=C3)OC(F)F
InChI: InChI=1S/C15H13F2N3O3S/c1-22-13-11(18-5-4-12(13)21)7-24-15-19-9-3-2-8(23-14(16)17)6-10(9)20-15/h2-6,14H,7H2,1H3,(H,18,21)(H,19,20)
Instrument: TripleTOF 6600 SCIEX
Instrument type: LC-ESI-QTOF
Ms type: MS2
Ion mode: POSITIVE
Collision energy: 150
Fragmentation mode: CID
Ionization: ESI
Column name: Zorbax Eclipse Plus C18 2.1 mm x 150 mm, 3.5 um, Agilent
Retention time: 7.57 min
Precursor m/z: 354.0719
Precursor type: [M+H]+
m/z	relative intensity
35.9987	45
37.0066	422
38.004	22
38.0143	372
39.0227	999
40.0178	68
41.0254	286
42.0335	313
43.0172	68
44.0124	49
44.9787	49
50.0145	104
51.0224	149
52.0168	168
52.0297	27
53.0013	276
53.0381	494
53.996	68
54.0331	86
55.0168	72
57.9865	27
61.0065	40
62.0146	118
63.0224	358
64.0172	136
65.0376	90
66.0086	454
66.0324	99
67.0183	72
67.0401	99
68.0134	90
68.9782	18
70.0274	68
70.9941	95
76.0192	22
78.0322	31
79.0414	22
80.0478	95
81.0325	31
83.0368	27
90.0337	22
91.0412	27
92.0489	36
94.0273	63
96.0433	18
98.0054	27
125.9978	59
