Mass spectrum: Sulfadiazine; LC-ESI-QTOF; MS2; 110 V
Name: Sulfadiazine
Class: Antimicrobial; Pharmaceutical
Formula: C10H10N4O2S
Exact mass: 250.0524
SMILES: C1=CN=C(N=C1)NS(=O)(=O)C2=CC=C(C=C2)N
InChI: InChI=1S/C10H10N4O2S/c11-8-2-4-9(5-3-8)17(15,16)14-10-12-6-1-7-13-10/h1-7H,11H2,(H,12,13,14)
Instrument: TripleTOF 5600 SCIEX
Instrument type: LC-ESI-QTOF
Ms type: MS2
Ion mode: POSITIVE
Collision energy: 110
Fragmentation mode: CID
Ionization: ESI
Column name: Zorbax Eclipse Plus C18 2.1 mm x 150 mm, 3.5 um, Agilent
Retention time: 5.24 min
Precursor m/z: 251.0597
Precursor type: [M+H]+
m/z	relative intensity
52.0318	40
53.0232	47
53.033	40
53.0478	217
54.0499	27
65.0462	999
66.0432	88
67.0365	47
68.0438	27
69.0562	33
74.0207	40
79.0341	190
80.0546	353
92.0533	81
96.0582	67
