Mass spectrum: Trihexyltetradecylphosphonium; LC-ESI-QTOF; MS2; 130 V
Name: Trihexyltetradecylphosphonium
Formula: [C32H68P]+
Exact mass: 483.5053
SMILES: CCCCCCCCCCCCCC[P+](CCCCCC)(CCCCCC)CCCCCC
InChI: InChI=1S/C32H68P/c1-5-9-13-17-18-19-20-21-22-23-24-28-32-33(29-25-14-10-6-2,30-26-15-11-7-3)31-27-16-12-8-4/h5-32H2,1-4H3/q+1
Instrument: TripleTOF 5600 SCIEX
Instrument type: LC-ESI-QTOF
Ms type: MS2
Ion mode: POSITIVE
Collision energy: 130
Fragmentation mode: CID
Ionization: ESI
Column name: Zorbax Eclipse Plus C18 2.1 mm x 150 mm, 3.5 um, Agilent
Retention time: 17.125 min
Precursor m/z: 483.5053
Precursor type: [M]+
m/z	relative intensity
39.0236	95
41.0396	191
43.0548	121
43.9815	102
44.9893	171
45.9971	283
47.0046	85
48.0127	138
55.0546	168
56.9888	240
59.0046	300
61.0206	679
62.0282	722
73.0201	181
74.0282	89
75.0355	530
76.0435	999
87.0337	75
88.041	98
89.051	303
90.0579	184
101.0503	148
102.0582	56
103.0663	201
115.0666	174
117.0831	178
129.0817	128
131.0986	125
143.0977	69
145.1142	65
157.1135	52
159.1309	98
185.1461	52
201.1796	65
