Mass spectrum: Ganciclovir; LC-ESI-QTOF; MS2; 50 V
Name: Ganciclovir
Class: Pharmaceutical
Formula: C9H13N5O4
Exact mass: 255.0968
SMILES: NC1=NC(=O)c2ncn(COC(CO)CO)c2N1
InChI: InChI=1S/C9H13N5O4/c10-9-12-7-6(8(17)13-9)11-3-14(7)4-18-5(1-15)2-16/h3,5,15-16H,1-2,4H2,(H3,10,12,13,17)
Instrument: TripleTOF 5600 SCIEX
Instrument type: LC-ESI-QTOF
Ms type: MS2
Ion mode: NEGATIVE
Collision energy: 50
Fragmentation mode: CID
Ionization: ESI
Column name: Zorbax Eclipse Plus C18 2.1 mm x 150 mm, 3.5 um, Agilent
Retention time: 2.235 min
Precursor m/z: 254.0895
Precursor type: [M-H]-
m/z	relative intensity
65.0159	666
66.0092	499
92.0256	832
106.0298	333
108.0202	832
119.033	666
119.0417	166
120.018	666
120.9949	166
133.0148	999
150.0408	333
