Mass spectrum: 2-Ethylhexyl diphenyl phosphate; LC-ESI-QTOF; MS2; 40 V
Name: 2-Ethylhexyl diphenyl phosphate
Class: Industrial_process
Formula: C20H27O4P
Exact mass: 362.1647
SMILES: CCCCC(CC)COP(=O)(OC1=CC=CC=C1)OC2=CC=CC=C2
InChI: InChI=1S/C20H27O4P/c1-3-5-12-18(4-2)17-22-25(21,23-19-13-8-6-9-14-19)24-20-15-10-7-11-16-20/h6-11,13-16,18H,3-5,12,17H2,1-2H3
Instrument: TripleTOF 5600 SCIEX
Instrument type: LC-ESI-QTOF
Ms type: MS2
Ion mode: POSITIVE
Collision energy: 40
Fragmentation mode: CID
Ionization: ESI
Column name: Zorbax Eclipse Plus C18 2.1 mm x 150 mm, 3.5 um, Agilent
Retention time: 16.989 min
Precursor m/z: 363.172
Precursor type: [M+H]+
m/z	relative intensity
77.0396	103
95.0504	43
152.0625	60
153.0712	156
157.0044	25
175.0167	53
215.027	103
233.0376	111
251.0487	999
