Mass spectrum: Isopropyltriphenylphosphonium; LC-ESI-QTOF; MS2; 130 V
Name: Isopropyltriphenylphosphonium
Formula: [C21H22P]+
Exact mass: 305.1454
SMILES: CC(C)[P+](C1=CC=CC=C1)(C2=CC=CC=C2)C3=CC=CC=C3
InChI: InChI=1S/C21H22P/c1-18(2)22(19-12-6-3-7-13-19,20-14-8-4-9-15-20)21-16-10-5-11-17-21/h3-18H,1-2H3/q+1
Instrument: TripleTOF 5600 SCIEX
Instrument type: LC-ESI-QTOF
Ms type: MS2
Ion mode: POSITIVE
Collision energy: 130
Fragmentation mode: CID
Ionization: ESI
Column name: Zorbax Eclipse Plus C18 2.1 mm x 150 mm, 3.5 um, Agilent
Retention time: 7.721 min
Precursor m/z: 305.1454
Precursor type: [M]+
m/z	relative intensity
39.0235	50
56.9882	67
63.0224	156
65.0381	96
74.0138	69
76.0297	81
77.037	65
78.9721	50
79.9799	161
80.9874	288
87.0212	72
89.0364	345
102.0451	141
103.9793	63
107.0027	999
113.0366	116
115.0526	390
126.0446	372
131.0021	123
133.0194	59
139.0525	283
150.0458	352
151.0532	597
152.0611	613
155.003	96
156.0118	116
157.0192	403
179.0025	70
180.0119	118
181.0199	454
