Mass spectrum: Azo Rubin S; LC-ESI-QTOF; MS2; 40 V
Name: Azo Rubin S
Formula: C20H14N2O7S2
Exact mass: 458.0242
SMILES: C1=CC=C2C(=C1)C(=CC=C2S(=O)(=O)O)N=NC3=C(C4=CC=CC=C4C(=C3)S(=O)(=O)O)O
InChI: InChI=1S/C20H14N2O7S2/c23-20-15-8-4-3-7-14(15)19(31(27,28)29)11-17(20)22-21-16-9-10-18(30(24,25)26)13-6-2-1-5-12(13)16/h1-11,23H,(H,24,25,26)(H,27,28,29)
Instrument: TripleTOF 6600 SCIEX
Instrument type: LC-ESI-QTOF
Ms type: MS2
Ion mode: POSITIVE
Collision energy: 40
Fragmentation mode: CID
Ionization: ESI
Column name: Zorbax Eclipse Plus C18 2.1 mm x 150 mm, 3.5 um, Agilent
Retention time: 7.286 min
Precursor m/z: 459.0315
Precursor type: [M+H]+
m/z	relative intensity
130.0647	47
142.065	10
143.0724	17
158.0604	211
172.0388	34
174.0555	17
222.0214	24
223.0308	999
238.0175	60
297.1023	12
360.0562	40
362.0643	11
377.0592	29
378.0658	27
441.0207	30
442.0303	278
