Mass spectrum: Amlodipine; LC-ESI-QTOF; MS2; 60 V
Name: Amlodipine
Class: Pharmaceutical
Formula: C20H25ClN2O5
Exact mass: 408.1452
SMILES: CCOC(=O)C1=C(COCCN)NC(=C(C1c2ccccc2Cl)C(=O)OC)C
InChI: InChI=1S/C20H25ClN2O5/c1-4-28-20(25)18-15(11-27-10-9-22)23-12(2)16(19(24)26-3)17(18)13-7-5-6-8-14(13)21/h5-8,17,23H,4,9-11,22H2,1-3H3
Instrument: TripleTOF 5600 SCIEX
Instrument type: LC-ESI-QTOF
Ms type: MS2
Ion mode: POSITIVE
Collision energy: 60
Fragmentation mode: CID
Ionization: ESI
Column name: Zorbax Eclipse Plus C18 2.1 mm x 150 mm, 3.5 um, Agilent
Retention time: 8.432 min
Precursor m/z: 409.1525
Precursor type: [M+H]+
m/z	relative intensity
44.0578	128
65.0415	15
67.0229	15
72.0471	21
74.0645	17
75.0258	25
77.042	12
80.053	10
84.0468	12
89.0425	10
91.0564	12
92.0514	21
93.0601	12
94.067	25
96.0456	40
98.0617	17
100.0388	10
101.0389	64
101.0521	12
102.047	195
105.0342	10
110.9988	15
114.0462	15
115.0546	259
116.0612	79
120.0437	55
122.0592	51
124.0395	34
125.0147	60
126.0529	25
127.0532	66
128.0582	232
129.0439	12
129.0681	32
130.0762	10
137.0154	769
138.0134	17
138.9941	88
139.0543	30
140.0254	40
140.0486	51
140.0617	30
141.0121	10
141.0695	38
142.0435	32
142.0651	784
143.0492	10
143.0726	380
148.0394	266
149.0154	999
149.0449	10
150.0545	12
151.0304	66
151.0583	30
152.0617	66
153.07	42
154.0661	36
154.0771	34
154.0899	12
155.0251	75
155.0729	32
156.044	21
156.0799	100
157.0527	30
157.088	77
161.0145	15
162.0211	15
163.0306	146
164.0258	77
165.0102	769
165.0669	15
166.0637	17
166.078	12
167.0714	88
168.058	36
168.0802	85
169.0644	15
169.0876	55
169.1048	17
170.0595	696
170.0974	15
171.0445	38
171.069	23
173.0153	21
174.0379	10
175.0309	66
176.034	468
177.0095	103
177.0326	32
178.0149	10
178.0413	466
179.0728	51
180.0797	227
181.0638	45
181.0879	133
182.0607	38
182.0959	17
183.0224	17
183.0641	12
183.0749	19
184.0509	15
184.0757	161
185.084	137
187.031	30
188.0243	19
189.0094	42
189.0457	34
190.0417	51
191.0257	27
191.0748	15
192.0202	25
192.0569	66
194.0604	12
194.0944	42
195.0676	36
195.1027	42
196.0758	206
197.0824	161
198.0894	47
199.0309	19
201.0079	10
201.0346	23
202.043	42
202.0844	36
203.0225	15
203.048	40
204.0563	232
205.0623	25
206.0363	403
206.0744	23
207.0675	36
208.0604	498
209.0821	109
210.0596	12
210.0925	15
211.0598	12
212.0712	40
213.0782	32
214.0411	120
214.0865	15
215.0239	30
215.0454	19
216.0575	64
217.0327	19
217.0625	12
218.0369	47
218.0723	25
220.0522	408
222.059	17
222.0913	30
223.0615	10
223.0937	38
224.0699	210
224.104	10
225.0772	150
226.0852	38
230.0343	42
230.0742	23
231.0434	36
231.0676	70
232.0517	369
233.0586	92
234.0663	17
236.0679	30
238.0637	21
238.0835	12
239.0904	25
240.1002	62
242.0351	81
242.0754	12
243.0428	64
244.0523	73
246.0299	12
246.0691	12
248.0456	85
250.0564	12
251.0913	25
252.0616	21
252.1016	42
256.0128	23
258.0331	12
258.0646	27
259.039	10
259.0737	32
260.0461	268
260.0864	15
261.0564	25
262.0587	10
267.1121	10
270.0302	92
274.0626	21
278.082	30
286.0621	23
288.0407	34
306.053	38
334.0859	21
