Mass spectrum: Acridine; LC-ESI-QTOF; MS2; 120 V
Name: Acridine
Class: Industrial_process
Formula: C13H9N
Exact mass: 179.0735
SMILES: c1ccc2nc3ccccc3cc2c1
InChI: InChI=1S/C13H9N/c1-3-7-12-10(5-1)9-11-6-2-4-8-13(11)14-12/h1-9H
Instrument: TripleTOF 5600 SCIEX
Instrument type: LC-ESI-QTOF
Ms type: MS2
Ion mode: POSITIVE
Collision energy: 120
Fragmentation mode: CID
Ionization: ESI
Column name: Zorbax Eclipse Plus C18 2.1 mm x 150 mm, 3.5 um, Agilent
Retention time: 5.776 min
Precursor m/z: 180.0808
Precursor type: [M+H]+
m/z	relative intensity
52.0233	15
60.0049	12
73.011	178
74.0194	999
74.054	15
75.0265	245
76.0219	37
76.034	32
77.0417	30
84.0009	16
85.0097	200
86.018	212
87.0247	55
89.0411	18
97.0087	83
98.0169	387
99.0117	22
99.0226	55
100.0267	18
109.0083	70
110.0159	63
111.0222	15
121.0088	17
122.016	55
123.0203	20
126.0478	11
149.04	12
150.0473	39
