Mass spectrum: Erlotinib; LC-ESI-QTOF; MS2; 80 V
Name: Erlotinib
Class: Pharmaceutical
Formula: C22H23N3O4
Exact mass: 393.1689
SMILES: COCCOC1=C(C=C2C(=C1)C(=NC=N2)NC3=CC=CC(=C3)C#C)OCCOC
InChI: InChI=1S/C22H23N3O4/c1-4-16-6-5-7-17(12-16)25-22-18-13-20(28-10-8-26-2)21(29-11-9-27-3)14-19(18)23-15-24-22/h1,5-7,12-15H,8-11H2,2-3H3,(H,23,24,25)
Instrument: TripleTOF 5600 SCIEX
Instrument type: LC-ESI-QTOF
Ms type: MS2
Ion mode: NEGATIVE
Collision energy: 80
Fragmentation mode: CID
Ionization: ESI
Column name: Zorbax Eclipse Plus C18 2.1 mm x 150 mm, 3.5 um, Agilent
Retention time: 7.429 min
Precursor m/z: 392.1616
Precursor type: [M-H]-
m/z	relative intensity
65.9979	49
118.0292	49
133.0161	83
134.0252	199
141.0474	299
143.027	49
163.0425	83
164.0467	66
165.0479	149
167.0594	66
189.0458	149
190.0554	316
191.0625	616
192.0592	116
201.0446	133
204.0619	116
216.0568	482
217.0656	83
218.072	616
219.0569	283
220.051	116
227.0479	133
228.0581	233
229.0639	266
230.0718	133
244.0508	782
245.0596	366
246.0641	166
257.061	249
258.0684	516
273.0561	266
274.0628	999
276.0761	116
