Mass spectrum: Fenbendazole; LC-ESI-QTOF; MS2; 80 V
Name: Fenbendazole
Class: Pharmaceutical
Formula: C15H13N3O2S
Exact mass: 299.0728
SMILES: COC(=O)Nc1[nH]c2cc(Sc3ccccc3)ccc2n1
InChI: InChI=1S/C15H13N3O2S/c1-20-15(19)18-14-16-12-8-7-11(9-13(12)17-14)21-10-5-3-2-4-6-10/h2-9H,1H3,(H2,16,17,18,19)
Instrument: TripleTOF 5600 SCIEX
Instrument type: LC-ESI-QTOF
Ms type: MS2
Ion mode: POSITIVE
Collision energy: 80
Fragmentation mode: CID
Ionization: ESI
Column name: Zorbax Eclipse Plus C18 2.1 mm x 150 mm, 3.5 um, Agilent
Retention time: 9.947 min
Precursor m/z: 300.0801
Precursor type: [M+H]+
m/z	relative intensity
65.0424	38
68.9833	26
76.0211	99
77.0296	544
78.036	36
79.0434	11
90.035	10
91.0423	17
92.0381	23
94.9958	26
103.0296	15
103.0413	57
104.0378	999
105.0447	52
109.0098	59
115.0537	13
116.0361	25
118.052	12
119.0476	35
119.0597	15
120.0549	10
120.9976	18
122.0055	98
127.0534	39
128.0606	13
130.0395	63
131.0477	589
136.0078	38
139.0529	14
140.0488	14
146.0322	10
153.0566	10
154.064	22
158.0332	13
159.0422	293
163.0192	20
164.0265	10
166.0639	13
171.0253	141
172.0326	17
181.0754	10
186.0364	17
190.0066	14
191.0144	22
196.0201	21
198.0352	20
199.0424	10
211.0317	14
224.0375	21
225.0464	16
239.0483	11
