Mass spectrum: 2,4-Diaminotoluene; LC-ESI-QTOF; MS2; 40 V
Name: 2,4-Diaminotoluene
Class: Industrial_process
Formula: C7H10N2
Exact mass: 122.0844
InChI: InChI=1S/C7H10N2/c1-5-2-3-6(8)4-7(5)9/h2-4H,8-9H2,1H3
Instrument: TripleTOF 5600 SCIEX
Instrument type: LC-ESI-QTOF
Ms type: CID
Ion mode: POSITIVE
Collision energy: 40
Ionization: ESI
Column name: Zorbax Eclipse Plus C18 2.1 mm x 150 mm, 3.5 um, Agilent
Retention time: 2.138 min
Precursor m/z: 123.0917
Precursor type: [M+H]+
m/z	relative intensity
51.0287	138
77.0409	999
79.056	260
80.0516	356
81.0593	78
89.0407	43
91.0418	69
106.0639	173
107.0605	52
108.0676	364
