Mass spectrum: Chlorfenvinfos; LC-ESI-QTOF; MS2; 100 V
Name: Chlorfenvinfos
Class: Insecticide
Formula: C12H14Cl3O4P
Exact mass: 357.9695
SMILES: CCOP(=O)(OCC)OC(=CCl)C1=C(C=C(C=C1)Cl)Cl
InChI: InChI=1S/C12H14Cl3O4P/c1-3-17-20(16,18-4-2)19-12(8-13)10-6-5-9(14)7-11(10)15/h5-8H,3-4H2,1-2H3
Instrument: TripleTOF 6600 SCIEX
Instrument type: LC-ESI-QTOF
Ms type: MS2
Ion mode: POSITIVE
Collision energy: 100
Fragmentation mode: CID
Ionization: ESI
Column name: Zorbax Eclipse Plus C18 2.1 mm x 150 mm, 3.5 um, Agilent
Retention time: 13.629 min
Precursor m/z: 358.9768
Precursor type: [M+H]+
m/z	relative intensity
62.9608	137
73.0044	11
74.0129	111
75.0204	45
80.9715	840
83.9739	24
84.9811	20
97.0051	37
98.0129	993
98.9835	234
99.0203	999
100.0285	29
107.9739	127
108.9821	129
132.9817	144
133.9893	194
134.9971	382
163.003	108
169.9668	655
