Mass spectrum: Codeinone; LC-ESI-QTOF; MS2; 70 V
Name: Codeinone
Class: Pharmaceutical
Formula: C18H19NO3
Exact mass: 297.1365
SMILES: CN1CCC23C4C1CC5=C2C(=C(C=C5)OC)OC3C(=O)C=C4
InChI: InChI=1S/C18H19NO3/c1-19-8-7-18-11-4-5-13(20)17(18)22-16-14(21-2)6-3-10(15(16)18)9-12(11)19/h3-6,11-12,17H,7-9H2,1-2H3
Instrument: TripleTOF 5600 SCIEX
Instrument type: LC-ESI-QTOF
Ms type: MS2
Ion mode: POSITIVE
Collision energy: 70
Fragmentation mode: CID
Ionization: ESI
Column name: Zorbax Eclipse Plus C18 2.1 mm x 150 mm, 3.5 um, Agilent
Retention time: 5.057 min
Precursor m/z: 298.1438
Precursor type: [M+H]+
m/z	relative intensity
44.0633	20
55.0304	18
56.058	11
58.0741	44
77.0445	44
78.0502	11
89.0426	16
91.0569	25
102.0488	24
103.0565	24
113.0412	14
114.0482	48
115.0558	280
116.0643	31
117.0668	20
122.0378	11
126.0469	24
127.056	209
128.0633	271
129.0704	48
131.0488	25
138.0458	11
139.0557	729
140.0632	508
141.0708	297
142.0427	16
142.0787	38
143.0489	24
144.0589	29
145.0702	11
150.0487	29
151.0549	228
152.0633	999
153.071	490
154.0785	51
155.0506	168
155.086	31
156.0565	33
157.0671	16
163.055	33
164.0622	107
165.0706	421
166.0815	22
167.0446	22
167.0852	37
168.0582	477
169.0301	14
169.0627	154
170.0354	55
170.0741	38
171.045	27
171.0813	27
176.0634	51
177.0719	53
178.0777	161
179.0506	24
179.0861	40
180.054	57
181.0648	185
182.074	29
183.0452	256
183.0778	40
184.051	25
185.0581	31
188.0618	11
189.0692	68
193.0673	22
194.0712	11
195.0413	22
195.0785	24
196.0513	66
197.0603	66
198.0661	40
199.0744	16
205.0654	53
206.0783	11
207.0473	12
207.0732	14
208.0531	44
209.0621	55
210.0699	11
210.0917	11
211.0765	40
220.1022	11
221.0613	27
222.0869	12
223.0339	14
223.0752	29
224.0469	18
225.0559	20
237.053	24
239.075	11
