Mass spectrum: Diazinon; LC-ESI-QTOF; MS2; 100 V
Name: Diazinon
Class: Insecticide
Formula: C12H21N2O3PS
Exact mass: 304.1011
SMILES: CCO[P](=S)(OCC)Oc1cc(C)nc(n1)C(C)C
InChI: InChI=1S/C12H21N2O3PS/c1-6-15-18(19,16-7-2)17-11-8-10(5)13-12(14-11)9(3)4/h8-9H,6-7H2,1-5H3
Instrument: TripleTOF 5600 SCIEX
Instrument type: LC-ESI-QTOF
Ms type: MS2
Ion mode: POSITIVE
Collision energy: 100
Fragmentation mode: CID
Ionization: ESI
Column name: Zorbax Eclipse Plus C18 2.1 mm x 150 mm, 3.5 um, Agilent
Retention time: 14.526 min
Precursor m/z: 305.1083
Precursor type: [M+H]+
m/z	relative intensity
42.0439	148
54.0406	15
56.054	11
58.9996	46
59.9942	46
62.9674	101
64.9839	433
66.0372	9
67.0456	77
70.0682	20
78.9437	516
80.9766	187
82.9971	57
84.0465	48
90.9952	16
96.9528	999
100.0229	71
153.0471	24
