Mass spectrum: Metaflumizone; LC-ESI-QTOF; MS2; 110 V
Name: Metaflumizone
Class: Insecticide; Pharmaceutical
Formula: C24H16F6N4O2
Exact mass: 506.1177
SMILES: C1=CC(=CC(=C1)C(F)(F)F)C(=NNC(=O)NC2=CC=C(C=C2)OC(F)(F)F)CC3=CC=C(C=C3)C#N
InChI: InChI=1S/C24H16F6N4O2/c25-23(26,27)18-3-1-2-17(13-18)21(12-15-4-6-16(14-31)7-5-15)33-34-22(35)32-19-8-10-20(11-9-19)36-24(28,29)30/h1-11,13H,12H2,(H2,32,34,35)
Instrument: TripleTOF 6600 SCIEX
Instrument type: LC-ESI-QTOF
Ms type: MS2
Ion mode: POSITIVE
Collision energy: 110
Fragmentation mode: CID
Ionization: ESI
Column name: Zorbax Eclipse Plus C18 2.1 mm x 150 mm, 3.5 um, Agilent
Retention time: 15.496 min
Precursor m/z: 507.125
Precursor type: [M+H]+
m/z	relative intensity
39.0229	30
61.0071	27
62.0149	55
63.0227	183
64.0178	24
65.0384	157
66.0465	37
68.9943	53
74.0146	34
75.0227	95
77.0385	14
80.0491	73
81.0566	22
83.0299	11
88.0179	16
88.0298	50
89.0385	916
90.0334	73
90.0449	24
92.0489	99
93.057	263
95.0291	86
99.0217	17
102.0327	9
108.0436	66
109.0459	22
114.0339	115
115.0416	104
116.0492	322
119.0286	14
123.0228	9
123.035	21
124.018	21
125.0189	13
127.0365	17
129.0431	11
140.0358	16
140.0494	27
142.0522	40
144.0242	19
145.0259	68
149.0209	11
149.038	21
150.0452	11
151.0355	37
152.0621	13
161.0396	11
162.0467	17
163.054	136
164.0304	17
164.0607	81
165.0425	11
165.0683	27
167.0289	14
168.0374	9
169.0436	16
172.0355	37
173.037	53
174.0348	24
174.0475	13
175.0542	29
176.0315	14
176.0593	43
177.0572	37
178.0462	16
182.0528	19
183.0601	42
186.0299	11
187.0336	11
188.0486	73
189.0568	94
190.0651	999
191.0378	11
191.0726	76
192.0374	29
192.0654	16
193.0439	89
194.0484	40
195.0477	11
199.041	58
200.0487	126
201.0559	68
202.0632	26
203.0728	68
206.0377	11
208.0553	48
211.0365	14
212.0423	58
213.0475	27
214.0608	19
215.0599	43
216.0683	87
217.0765	94
218.0408	24
218.083	99
219.0482	193
220.0546	110
221.0608	43
225.0473	13
226.0498	40
227.0602	30
228.0551	40
232.0512	29
233.0552	48
237.0382	11
238.0459	32
239.0536	149
240.0598	30
244.041	13
245.0521	34
246.0583	86
247.0665	97
250.0459	26
252.0638	14
253.0557	19
257.0435	11
258.054	24
264.0438	13
265.058	47
266.0649	26
267.0758	24
270.0532	16
286.0723	26
