Mass spectrum: Methacetin; LC-ESI-QTOF; MS2; 110 V
Name: Methacetin
Class: Pharmaceutical
Formula: C9H11NO2
Exact mass: 165.079
SMILES: COc1ccc(NC(C)=O)cc1
InChI: InChI=1S/C9H11NO2/c1-7(11)10-8-3-5-9(12-2)6-4-8/h3-6H,1-2H3,(H,10,11)
Instrument: TripleTOF 5600 SCIEX
Instrument type: LC-ESI-QTOF
Ms type: MS2
Ion mode: POSITIVE
Collision energy: 110
Fragmentation mode: CID
Ionization: ESI
Column name: Zorbax Eclipse Plus C18 2.1 mm x 150 mm, 3.5 um, Agilent
Retention time: 6.508 min
Precursor m/z: 166.0863
Precursor type: [M+H]+
m/z	relative intensity
41.0371	80
42.0449	100
43.0291	999
44.0224	61
52.0263	307
53.0088	44
54.0411	284
60.0057	72
64.0359	74
65.0431	374
66.05	119
73.0103	23
74.0191	95
76.0205	31
77.0416	26
78.037	59
80.0525	465
92.0508	33
