Mass spectrum: Prallethrin; LC-ESI-QTOF; MS2; 60 V
Name: Prallethrin
Class: Insecticide
Formula: C19H24O3
Exact mass: 300.1725
SMILES: CC1=C(C(=O)CC1OC(=O)C2C(C2(C)C)C=C(C)C)CC#C
InChI: InChI=1S/C19H24O3/c1-7-8-13-12(4)16(10-15(13)20)22-18(21)17-14(9-11(2)3)19(17,5)6/h1,9,14,16-17H,8,10H2,2-6H3
Instrument: TripleTOF 6600 SCIEX
Instrument type: LC-ESI-QTOF
Ms type: MS2
Ion mode: POSITIVE
Collision energy: 60
Fragmentation mode: CID
Ionization: ESI
Column name: Zorbax Eclipse Plus C18 2.1 mm x 150 mm, 3.5 um, Agilent
Retention time: 14.861 min
Precursor m/z: 301.1798
Precursor type: [M+H]+
m/z	relative intensity
39.0237	25
41.0394	51
43.0184	23
43.0548	23
49.0074	11
50.0152	36
51.023	134
53.039	27
55.018	27
55.0547	49
59.0485	12
65.0392	64
67.0548	64
69.0703	37
77.039	999
78.046	11
79.0546	568
81.0702	167
89.0396	18
90.0477	14
91.0543	79
93.0693	28
95.0484	10
95.0862	23
102.0463	14
103.0548	319
104.0618	10
105.0451	31
105.0699	137
107.0508	11
115.0552	56
118.0423	10
128.0618	21
129.0716	10
141.0708	14
142.0771	10
