Mass spectrum: Acridine-9-carboxylic acid; LC-ESI-QTOF; MS2; 110 V
Name: Acridine-9-carboxylic acid
Class: Pharmaceutical; Metabolite; Transformation_product
Formula: C14H9NO2
Exact mass: 223.0633
SMILES: OC(=O)c1c2ccccc2nc3ccccc13
InChI: InChI=1S/C14H9NO2/c16-14(17)13-9-5-1-3-7-11(9)15-12-8-4-2-6-10(12)13/h1-8H,(H,16,17)
Instrument: TripleTOF 5600 SCIEX
Instrument type: LC-ESI-QTOF
Ms type: MS2
Ion mode: POSITIVE
Collision energy: 110
Fragmentation mode: CID
Ionization: ESI
Column name: Zorbax Eclipse Plus C18 2.1 mm x 150 mm, 3.5 um, Agilent
Retention time: 4.656 min
Precursor m/z: 224.0706
Precursor type: [M+H]+
m/z	relative intensity
51.0281	633
65.0421	121
73.0094	109
74.018	986
75.0135	48
75.0249	584
76.0327	268
77.0405	462
78.0518	60
85.009	73
85.022	60
86.0174	194
87.0244	426
88.0308	109
89.0401	536
90.0507	73
98.015	657
99.023	389
100.0186	48
100.0304	97
101.0398	134
102.0475	182
109.0093	73
110.0148	97
111.0211	109
113.0388	645
114.0333	73
115.054	207
122.0152	60
123.0235	73
125.0388	207
126.0456	255
127.0424	85
137.0398	146
138.0484	134
139.0543	767
140.0486	450
149.0379	170
150.0459	999
151.0568	255
152.0558	146
175.0404	60
176.0506	97
177.0592	121
