Mass spectrum: 4-Aminoantipyrine; LC-ESI-QTOF; MS2; 110 V
Name: 4-Aminoantipyrine
Class: Transformation_product; Pharmaceutical; Transformation_product-Metabolite
Formula: C11H13N3O
Exact mass: 203.1059
SMILES: CC1=C(C(=O)N(N1C)C2=CC=CC=C2)N
InChI: InChI=1S/C11H13N3O/c1-8-10(12)11(15)14(13(8)2)9-6-4-3-5-7-9/h3-7H,12H2,1-2H3
Instrument: TripleTOF 5600 SCIEX
Instrument type: LC-ESI-QTOF
Ms type: MS2
Ion mode: POSITIVE
Collision energy: 110
Fragmentation mode: CID
Ionization: ESI
Column name: Zorbax Eclipse Plus C18 2.1 mm x 150 mm, 3.5 um, Agilent
Retention time: 4.783 min
Precursor m/z: 204.1131
Precursor type: [M+H]+
m/z	relative intensity
37.0079	25
38.0143	25
39.0225	75
41.0263	69
42.0337	157
49.0068	56
50.0152	282
51.0229	515
54.0344	25
56.0499	999
62.0148	31
63.023	31
65.0381	94
66.0468	43
74.0145	62
75.0223	31
77.0385	175
