Mass spectrum: Methacetin; LC-ESI-QTOF; MS2; 90 V
Name: Methacetin
Class: Pharmaceutical
Formula: C9H11NO2
Exact mass: 165.079
SMILES: COc1ccc(NC(C)=O)cc1
InChI: InChI=1S/C9H11NO2/c1-7(11)10-8-3-5-9(12-2)6-4-8/h3-6H,1-2H3,(H,10,11)
Instrument: TripleTOF 5600 SCIEX
Instrument type: LC-ESI-QTOF
Ms type: MS2
Ion mode: POSITIVE
Collision energy: 90
Fragmentation mode: CID
Ionization: ESI
Column name: Zorbax Eclipse Plus C18 2.1 mm x 150 mm, 3.5 um, Agilent
Retention time: 6.508 min
Precursor m/z: 166.0863
Precursor type: [M+H]+
m/z	relative intensity
41.0379	41
42.0451	58
43.0292	595
43.0564	13
44.0232	20
52.0274	103
54.0416	197
62.0446	16
64.036	133
65.0437	486
66.0509	286
67.0459	24
74.0193	17
77.0416	84
78.037	83
80.0527	999
81.0594	23
92.0511	131
93.0591	103
