Mass spectrum: Chloroxuron; LC-ESI-QTOF; MS2; 90 V
Name: Chloroxuron
Class: Herbicide
Formula: C15H15ClN2O2
Exact mass: 290.0822
SMILES: CN(C)C(=O)Nc1ccc(Oc2ccc(Cl)cc2)cc1
InChI: InChI=1S/C15H15ClN2O2/c1-18(2)15(19)17-12-5-9-14(10-6-12)20-13-7-3-11(16)4-8-13/h3-10H,1-2H3,(H,17,19)
Instrument: TripleTOF 5600 SCIEX
Instrument type: LC-ESI-QTOF
Ms type: MS2
Ion mode: POSITIVE
Collision energy: 90
Fragmentation mode: CID
Ionization: ESI
Column name: Zorbax Eclipse Plus C18 2.1 mm x 150 mm, 3.5 um, Agilent
Retention time: 12.103 min
Precursor m/z: 291.0895
Precursor type: [M+H]+
m/z	relative intensity
44.0592	14
56.0186	86
72.0488	999
72.084	11
74.0186	101
75.0265	264
77.0423	29
78.0501	15
84.987	24
102.0458	12
110.9995	83
114.0446	12
118.0666	12
126.0485	16
127.0543	59
128.0625	102
139.0547	66
149.0149	11
154.0669	14
