Mass spectrum: Triclocarban; LC-ESI-QTOF; MS2; 120 V
Name: Triclocarban
Class: Antimicrobial; Personal_care_product; Biocide
Formula: C13H9Cl3N2O
Exact mass: 313.978
SMILES: Clc1ccc(NC(=O)Nc2ccc(Cl)c(Cl)c2)cc1
InChI: InChI=1S/C13H9Cl3N2O/c14-8-1-3-9(4-2-8)17-13(19)18-10-5-6-11(15)12(16)7-10/h1-7H,(H2,17,18,19)
Instrument: TripleTOF 5600 SCIEX
Instrument type: LC-ESI-QTOF
Ms type: MS2
Ion mode: POSITIVE
Collision energy: 120
Fragmentation mode: CID
Ionization: ESI
Column name: Zorbax Eclipse Plus C18 2.1 mm x 150 mm, 3.5 um, Agilent
Retention time: 14.574 min
Precursor m/z: 314.9853
Precursor type: [M+H]+
m/z	relative intensity
65.0412	999
66.0502	369
72.9848	477
74.0161	390
75.0255	217
82.9453	108
90.0339	108
91.044	130
92.05	586
93.0571	912
96.9906	108
98.9993	694
100.0089	304
110.9983	86
125.0018	108
127.0152	499
132.9596	108
