Mass spectrum: Propyzamid; LC-ESI-QTOF; MS2; 80 V
Name: Propyzamid
Class: Herbicide
Formula: C12H11Cl2NO
Exact mass: 255.0218
SMILES: CC(C)(C#C)NC(=O)c1cc(cc(c1)Cl)Cl
InChI: InChI=1S/C12H11Cl2NO/c1-4-12(2,3)15-11(16)8-5-9(13)7-10(14)6-8/h1,5-7H,2-3H3,(H,15,16)
Instrument: TripleTOF 6600 SCIEX
Instrument type: LC-ESI-QTOF
Ms type: MS2
Ion mode: POSITIVE
Collision energy: 80
Fragmentation mode: CID
Ionization: ESI
Column name: Zorbax Eclipse Plus C18 2.1 mm x 150 mm, 3.5 um, Agilent
Retention time: 12.435 min
Precursor m/z: 256.0291
Precursor type: [M+H]+
m/z	relative intensity
37.0074	43
38.0152	37
39.0231	269
41.0389	137
44.0132	310
49.0073	21
50.015	72
51.023	81
65.0386	46
73.0075	34
74.0152	926
75.0229	175
83.9773	18
84.9837	50
108.984	999
109.9916	53
110.9991	31
144.9606	137
172.9672	90
