Mass spectrum: Mesosulfuron-methyl; LC-ESI-QTOF; MS2; 80 V
Name: Mesosulfuron-methyl
Class: Herbicide
Formula: C17H21N5O9S2
Exact mass: 503.0781
SMILES: COC(=O)c1ccc(CN[S](C)(=O)=O)cc1[S](=O)(=O)NC(=O)Nc2nc(OC)cc(OC)n2
InChI: InChI=1S/C17H21N5O9S2/c1-29-13-8-14(30-2)20-16(19-13)21-17(24)22-33(27,28)12-7-10(9-18-32(4,25)26)5-6-11(12)15(23)31-3/h5-8,18H,9H2,1-4H3,(H2,19,20,21,22,24)
Instrument: TripleTOF 5600 SCIEX
Instrument type: LC-ESI-QTOF
Ms type: MS2
Ion mode: NEGATIVE
Collision energy: 80
Fragmentation mode: CID
Ionization: ESI
Column name: Zorbax Eclipse Plus C18 2.1 mm x 150 mm, 3.5 um, Agilent
Retention time: 10.025 min
Precursor m/z: 502.0708
Precursor type: [M-H]-
m/z	relative intensity
42.0019	490
61.9727	111
63.9636	351
65.016	120
65.9998	185
78.9858	379
105.96	148
107.0124	166
122.0355	194
139.0381	111
154.0622	342
180.9842	194
195.0007	157
209.003	999
210.0113	83
211.0176	120
239.9958	527
264.9915	120
267.0085	148
288.998	185
