Mass spectrum: Leucomalachite green; LC-ESI-QTOF; MS2; 150 V
Name: Leucomalachite green
Class: Metabolite
Formula: C23H26N2
Exact mass: 330.2096
SMILES: CN(C)C1=CC=C(C=C1)C(C2=CC=CC=C2)C3=CC=C(C=C3)N(C)C
InChI: InChI=1S/C23H26N2/c1-24(2)21-14-10-19(11-15-21)23(18-8-6-5-7-9-18)20-12-16-22(17-13-20)25(3)4/h5-17,23H,1-4H3
Instrument: TripleTOF 6600 SCIEX
Instrument type: LC-ESI-QTOF
Ms type: MS2
Ion mode: POSITIVE
Collision energy: 150
Fragmentation mode: CID
Ionization: ESI
Column name: Zorbax Eclipse Plus C18 2.1 mm x 150 mm, 3.5 um, Agilent
Retention time: 9.974 min
Precursor m/z: 331.2169
Precursor type: [M+H]+
m/z	relative intensity
39.0228	16
50.0146	39
51.0222	59
62.0138	31
63.0218	67
65.0381	39
74.0144	39
75.022	42
76.0294	39
77.0377	127
78.0451	28
86.0142	25
87.0216	45
89.0372	90
91.0533	19
98.0139	28
99.021	19
101.0372	28
102.0456	76
113.0367	45
115.0524	172
125.0368	33
126.0453	183
127.0526	130
128.0612	39
129.0427	16
137.0375	25
139.0533	172
140.0485	28
149.0388	19
150.0449	198
151.0525	373
152.0606	999
153.0683	101
154.0628	11
162.0458	36
163.0525	328
164.0603	158
165.0684	234
166.0686	25
167.0728	11
177.0544	28
178.0638	36
179.0639	42
180.0795	16
187.0522	25
189.0675	16
190.0607	11
194.0945	16
200.0605	67
201.0663	19
202.079	19
212.0621	11
213.0708	28
214.0616	11
224.0594	76
225.0669	36
226.0762	76
237.068	62
238.0719	22
239.0804	25
251.0729	14
254.1004	14
