Mass spectrum: N-Cyclohexyl-1,3-benzothiazol-2-amine; LC-ESI-QTOF; MS2; 120 V
Name: N-Cyclohexyl-1,3-benzothiazol-2-amine
Formula: C13H16N2S
Exact mass: 232.1034
SMILES: C1CCC(CC1)NC2=NC3=CC=CC=C3S2
InChI: InChI=1S/C13H16N2S/c1-2-6-10(7-3-1)14-13-15-11-8-4-5-9-12(11)16-13/h4-5,8-10H,1-3,6-7H2,(H,14,15)
Instrument: TripleTOF 6600 SCIEX
Instrument type: LC-ESI-QTOF
Ms type: MS2
Ion mode: POSITIVE
Collision energy: 120
Fragmentation mode: CID
Ionization: ESI
Column name: Zorbax Eclipse Plus C18 2.1 mm x 150 mm, 3.5 um, Agilent
Retention time: 9.082 min
Precursor m/z: 233.1107
Precursor type: [M+H]+
m/z	relative intensity
35.9989	36
37.007	274
38.0143	262
39.0228	999
41.038	49
43.0281	15
44.9787	39
49.0063	16
50.0144	88
51.0223	133
52.0174	10
53.0376	74
55.0534	26
59.9891	31
61.0061	18
62.014	52
63.022	107
64.0171	63
64.0286	14
65.0377	174
67.9703	41
68.9787	596
74.0131	12
77.0375	26
80.0478	41
80.9791	10
81.9858	32
92.9779	28
94.9929	14
108.0018	19
