Mass spectrum: 10,11-Dihydro-10,11-epoxycarbamazepine; LC-ESI-QTOF; MS2; 100 V
Name: 10,11-Dihydro-10,11-epoxycarbamazepine
Class: Metabolite; Pharmaceutical; Transformation_product-Metabolite
Formula: C15H12N2O2
Exact mass: 252.0899
SMILES: C1=CC=C2C(=C1)C3C(O3)C4=CC=CC=C4N2C(=O)N
InChI: InChI=1S/C15H12N2O2/c16-15(18)17-11-7-3-1-5-9(11)13-14(19-13)10-6-2-4-8-12(10)17/h1-8,13-14H,(H2,16,18)
Instrument: TripleTOF 5600 SCIEX
Instrument type: LC-ESI-QTOF
Ms type: MS2
Ion mode: POSITIVE
Collision energy: 100
Fragmentation mode: CID
Ionization: ESI
Column name: Zorbax Eclipse Plus C18 2.1 mm x 150 mm, 3.5 um, Agilent
Retention time: 7.593 min
Precursor m/z: 253.0972
Precursor type: [M+H]+
m/z	relative intensity
50.0151	21
51.0229	87
62.0152	19
63.0235	57
65.0383	16
74.0146	44
75.0229	185
76.0306	40
77.0387	294
78.0463	27
86.0155	13
87.0231	27
88.0299	28
89.0381	121
90.0476	26
91.0531	12
98.0147	36
99.0226	45
100.0318	22
101.0385	189
102.0458	102
113.0386	111
114.033	9
114.0459	28
115.0539	87
116.0489	22
123.0238	10
125.0386	66
126.0461	250
127.0538	204
128.0502	198
129.0449	33
137.0376	25
138.0464	30
139.0542	262
140.0492	218
141.0562	15
149.0393	40
150.0461	396
151.0543	823
152.0617	999
153.0573	152
154.0652	31
162.0454	18
163.0541	122
164.0525	75
165.0636	32
166.0656	96
167.0725	20
175.0387	10
176.0497	33
177.0584	250
178.0654	715
179.073	378
180.0806	206
189.0545	14
190.0667	56
191.0744	30
