Mass spectrum: Trifloxystrobin acid; LC-ESI-QTOF; MS2; 150 V
Name: Trifloxystrobin acid
Class: Metabolite; Fungicide; Transformation_product
Formula: C19H17F3N2O4
Exact mass: 394.114
SMILES: FC(F)(F)c1cccc(c1)C(\C)=N\OCc2ccccc2C(=N\O)\C(=O)OC
InChI: InChI=1S/C19H17F3N2O4/c1-12(13-7-5-8-15(10-13)19(20,21)22)24-28-11-14-6-3-4-9-16(14)17(23-26)18(25)27-2/h3-10,26H,11H2,1-2H3/b23-17-,24-12+
Instrument: TripleTOF 5600 SCIEX
Instrument type: LC-ESI-QTOF
Ms type: MS2
Ion mode: POSITIVE
Collision energy: 150
Fragmentation mode: CID
Ionization: ESI
Column name: Zorbax Eclipse Plus C18 2.1 mm x 150 mm, 3.5 um, Agilent
Retention time: 13.286 min
Precursor m/z: 395.1213
Precursor type: [M+H]+
m/z	relative intensity
51.0116	33
57.0232	38
64.0351	22
65.0478	29
69.0015	119
69.0184	63
73.0128	38
74.0213	617
75.0287	967
77.0437	63
81.0198	38
88.0219	20
89.0427	999
90.0367	45
90.0482	108
91.0582	13
92.9998	15
95.0141	18
95.0329	278
99.0074	83
104.0533	15
114.0345	11
116.052	92
117.0599	11
119.0127	29
123.0333	15
125.0206	113
145.026	88
