Mass spectrum: Triisopropanolamine; LC-ESI-QTOF; MS2; 30 V
Name: Triisopropanolamine
Formula: C9H21NO3
Exact mass: 191.1521
SMILES: CC(CN(CC(C)O)CC(C)O)O
InChI: InChI=1S/C9H21NO3/c1-7(11)4-10(5-8(2)12)6-9(3)13/h7-9,11-13H,4-6H2,1-3H3
Instrument: TripleTOF 6600 SCIEX
Instrument type: LC-ESI-QTOF
Ms type: MS2
Ion mode: POSITIVE
Collision energy: 30
Fragmentation mode: CID
Ionization: ESI
Column name: Zorbax Eclipse Plus C18 2.1 mm x 150 mm, 3.5 um, Agilent
Retention time: 2.182 min
Precursor m/z: 192.1594
Precursor type: [M+H]+
m/z	relative intensity
31.0183	22
39.0235	31
41.0392	126
42.0342	26
43.055	32
55.0545	36
56.0501	54
58.0652	34
59.0495	212
68.0494	11
69.0697	25
70.0652	103
79.0541	45
81.0698	83
82.0645	10
94.0644	12
96.081	62
98.0968	999
108.0803	10
112.1113	12
114.0912	52
116.1064	120
138.1267	19
156.1381	129
174.1489	255
192.1585	30
