Mass spectrum: Isopyrazam; LC-ESI-QTOF; MS2; 10 V
Name: Isopyrazam
Class: Fungicide
Formula: C20H23F2N3O
Exact mass: 359.1809
SMILES: CC(C)C1C2CCC1C3=C2C=CC=C3NC(=O)C4=CN(N=C4C(F)F)C
InChI: InChI=1S/C20H23F2N3O/c1-10(2)16-12-7-8-13(16)17-11(12)5-4-6-15(17)23-20(26)14-9-25(3)24-18(14)19(21)22/h4-6,9-10,12-13,16,19H,7-8H2,1-3H3,(H,23,26)
Instrument: TripleTOF 6600 SCIEX
Instrument type: LC-ESI-QTOF
Ms type: MS2
Ion mode: POSITIVE
Collision energy: 10
Fragmentation mode: CID
Ionization: ESI
Column name: Zorbax Eclipse Plus C18 2.1 mm x 150 mm, 3.5 um, Agilent
Retention time: 14.619 min
Precursor m/z: 360.1882
Precursor type: [M+H]+
m/z	relative intensity
360.1895	999
