Mass spectrum: Triphenylphosphine oxide; LC-ESI-QTOF; MS2; 90 V
Name: Triphenylphosphine oxide
Class: Industrial_process
Formula: C18H15OP
Exact mass: 278.0861
SMILES: O=[P](c1ccccc1)(c2ccccc2)c3ccccc3
InChI: InChI=1S/C18H15OP/c19-20(16-10-4-1-5-11-16,17-12-6-2-7-13-17)18-14-8-3-9-15-18/h1-15H
Instrument: TripleTOF 5600 SCIEX
Instrument type: LC-ESI-QTOF
Ms type: MS2
Ion mode: POSITIVE
Collision energy: 90
Fragmentation mode: CID
Ionization: ESI
Column name: Zorbax Eclipse Plus C18 2.1 mm x 150 mm, 3.5 um, Agilent
Retention time: 10.458 min
Precursor m/z: 279.0933
Precursor type: [M+H]+
m/z	relative intensity
51.0311	827
65.0444	21
67.985	30
68.9929	203
74.0181	21
75.0269	12
76.0326	14
77.0417	999
77.0717	12
78.0483	24
80.9912	14
89.0396	26
92.9886	10
95.0058	116
102.0476	63
107.0049	152
113.0376	14
115.0541	150
126.0463	63
127.054	109
128.0624	229
133.0197	83
139.0531	84
141.0754	14
144.0107	24
145.0187	14
150.0463	31
151.0545	102
152.0628	475
153.0695	107
155.0531	12
157.0197	102
168.0098	10
169.0196	31
170.0279	162
171.0348	15
181.0201	44
183.0373	47
