Mass spectrum: Resorcinol bis(diphenyl phosphate); LC-ESI-QTOF; MS2; 50 V
Name: Resorcinol bis(diphenyl phosphate)
Class: Industrial_process
Formula: C30H24O8P2
Exact mass: 574.0946
SMILES: C1=CC=C(C=C1)OP(=O)(OC2=CC=CC=C2)OC3=CC(=CC=C3)OP(=O)(OC4=CC=CC=C4)OC5=CC=CC=C5
InChI: InChI=1S/C30H24O8P2/c31-39(33-25-14-5-1-6-15-25,34-26-16-7-2-8-17-26)37-29-22-13-23-30(24-29)38-40(32,35-27-18-9-3-10-19-27)36-28-20-11-4-12-21-28/h1-24H
Instrument: TripleTOF 6600 SCIEX
Instrument type: LC-ESI-QTOF
Ms type: MS2
Ion mode: POSITIVE
Collision energy: 50
Fragmentation mode: CID
Ionization: ESI
Column name: Zorbax Eclipse Plus C18 2.1 mm x 150 mm, 3.5 um, Agilent
Retention time: 15.87 min
Precursor m/z: 575.1019
Precursor type: [M+H]+
m/z	relative intensity
77.0383	32
115.0542	10
141.07	43
151.0546	33
152.0623	65
153.0705	63
168.0572	34
169.0654	61
175.0151	12
202.0787	30
203.0264	23
215.0272	127
215.0865	15
217.102	27
226.0796	73
227.0867	56
228.0942	24
229.1024	18
231.0219	140
233.0379	51
243.0822	12
244.0897	20
245.0982	41
248.0243	20
249.0325	37
251.0482	89
279.0582	16
289.0421	37
291.0592	15
292.9774	19
294.9932	11
299.0488	87
302.1116	28
303.1207	10
307.0546	87
309.0692	15
310.9893	99
325.0648	118
326.0715	11
327.0804	36
328.9998	28
343.0757	119
365.0743	10
369.0102	34
371.0261	10
383.0854	17
387.0218	142
389.0378	11
401.0961	15
405.0325	207
419.108	432
423.0439	11
445.0441	12
463.0529	82
481.0646	556
495.1392	12
499.0747	136
575.108	999
