Mass spectrum: Olmesartan-d6; LC-ESI-QTOF; MS2; 60 V
Name: Olmesartan-d6
Class: Surrogate_standard
Formula: C24H20N6O3 2H6
Exact mass: 452.2443
SMILES: [2H]C([2H])([2H])C(C1=C(N(C(=N1)CCC)CC2=CC=C(C=C2)C3=CC=CC=C3C4=NNN=N4)C(=O)O)(C([2H])([2H])[2H])O
InChI: InChI=1S/C24H26N6O3/c1-4-7-19-25-21(24(2,3)33)20(23(31)32)30(19)14-15-10-12-16(13-11-15)17-8-5-6-9-18(17)22-26-28-29-27-22/h5-6,8-13,33H,4,7,14H2,1-3H3,(H,31,32)(H,26,27,28,29)/i2D3,3D3
Instrument: TripleTOF 5600 SCIEX
Instrument type: LC-ESI-QTOF
Ms type: CID
Ion mode: POSITIVE
Collision energy: 60
Ionization: ESI
Column name: Zorbax Eclipse Plus C18 2.1 mm x 150 mm, 3.5 um, Agilent
Retention time: 7.306 min
Precursor m/z: 453.2527
Precursor type: [M+H]+
m/z	relative intensity
77.0428	11
115.0554	13
127.0552	13
129.0465	11
140.0494	67
150.0468	9
151.0537	67
152.0624	170
153.0701	326
154.0741	45
163.054	100
164.0608	48
165.0694	70
166.0681	35
167.0723	46
168.0724	18
176.0612	20
177.0667	42
178.0766	740
179.0773	231
180.0806	748
181.0866	145
182.1338	149
183.1394	144
189.0573	22
190.0649	909
191.072	554
192.0709	409
193.0739	51
205.0759	336
206.0831	495
207.0907	999
208.0976	416
209.1016	14
