Mass spectrum: 6-Methylthioinosin; LC-ESI-QTOF; MS2; 150 V
Name: 6-Methylthioinosin
Class: Pharmaceutical
Formula: C11H14N4O4S
Exact mass: 298.0736
SMILES: CSc1ncnc2n(cnc12)C3OC(CO)C(O)C3O
InChI: InChI=1S/C11H14N4O4S/c1-20-10-6-9(12-3-13-10)15(4-14-6)11-8(18)7(17)5(2-16)19-11/h3-5,7-8,11,16-18H,2H2,1H3
Instrument: TripleTOF 5600 SCIEX
Instrument type: LC-ESI-QTOF
Ms type: MS2
Ion mode: POSITIVE
Collision energy: 150
Fragmentation mode: CID
Ionization: ESI
Column name: Zorbax Eclipse Plus C18 2.1 mm x 150 mm, 3.5 um, Agilent
Retention time: 5.666 min
Precursor m/z: 299.0809
Precursor type: [M+H]+
m/z	relative intensity
40.0278	97
43.0255	121
54.0274	170
55.9767	170
65.0171	999
66.0245	146
69.9781	194
70.9872	657
71.0179	219
81.9789	146
82.9848	365
