Mass spectrum: Desmethylranitidine; LC-ESI-QTOF; MS2; 40 V
Name: Desmethylranitidine
Class: Pharmaceutical; Transformation_product; Transformation_product-Metabolite
Formula: C12H20N4O3S
Exact mass: 300.1256
SMILES: CNCC1=CC=C(O1)CSCCNC(=C[N+](=O)[O-])NC
InChI: InChI=1S/C12H20N4O3S/c1-13-7-10-3-4-11(19-10)9-20-6-5-15-12(14-2)8-16(17)18/h3-4,8,13-15H,5-7,9H2,1-2H3
Instrument: TripleTOF 5600 SCIEX
Instrument type: LC-ESI-QTOF
Ms type: MS2
Ion mode: POSITIVE
Collision energy: 40
Fragmentation mode: CID
Ionization: ESI
Column name: Zorbax Eclipse Plus C18 2.1 mm x 150 mm, 3.5 um, Agilent
Retention time: 4.769 min
Precursor m/z: 301.1329
Precursor type: [M+H]+
m/z	relative intensity
68.0577	16
69.0628	10
71.0634	15
79.0558	10
80.0515	13
81.0362	275
82.0678	10
83.0619	49
84.0694	52
88.0234	24
91.0551	12
94.0432	10
94.0672	29
95.0495	52
96.0827	52
97.0138	21
97.0771	278
98.0849	292
101.0293	16
102.0374	988
106.0654	12
107.0496	105
108.0593	15
110.0606	38
113.0708	10
115.0324	21
117.0505	29
118.0308	26
118.0652	16
120.0782	13
121.0766	84
124.0336	12
124.0761	94
125.0054	999
129.0452	53
130.056	827
131.0671	21
132.0438	39
133.053	44
133.0772	13
134.0811	15
135.0266	21
135.0924	131
137.1073	12
140.0553	10
145.0444	10
147.0681	18
148.0759	194
149.0715	49
151.0226	22
152.0343	12
153.0415	24
159.0444	18
163.0857	79
164.0947	39
165.102	121
167.063	50
170.0618	16
176.0477	156
177.101	171
178.0306	52
178.1074	10
181.0783	68
191.1186	121
192.0476	73
193.0561	15
194.0645	21
209.0738	16
223.0901	21
224.0948	10
