Mass spectrum: Ethyldiphenylphosphine oxide; LC-ESI-QTOF; MS2; 140 V
Name: Ethyldiphenylphosphine oxide
Class: Industrial_process
Formula: C14H15OP
Exact mass: 230.0861
SMILES: CC[P](=O)(c1ccccc1)c2ccccc2
InChI: InChI=1S/C14H15OP/c1-2-16(15,13-9-5-3-6-10-13)14-11-7-4-8-12-14/h3-12H,2H2,1H3
Instrument: TripleTOF 5600 SCIEX
Instrument type: LC-ESI-QTOF
Ms type: MS2
Ion mode: POSITIVE
Collision energy: 140
Fragmentation mode: CID
Ionization: ESI
Column name: Zorbax Eclipse Plus C18 2.1 mm x 150 mm, 3.5 um, Agilent
Retention time: 8.816 min
Precursor m/z: 231.0933
Precursor type: [M+H]+
m/z	relative intensity
47.0169	52
51.0305	999
55.9875	84
56.994	148
65.0461	52
67.9845	84
73.0112	42
74.0188	385
75.0262	95
76.034	121
77.0422	163
78.0488	47
78.9754	95
79.9836	317
80.9913	142
85.0087	52
86.0173	153
87.0247	84
89.0404	68
91.9823	42
98.0159	148
99.0228	63
102.0491	68
103.9823	89
107.005	111
115.9814	58
126.0466	95
149.0403	47
150.0464	290
151.055	63
