Mass spectrum: Pentachlorophenol; LC-ESI-QTOF; MS2; 40 V
Name: Pentachlorophenol
Class: Herbicide; Pesticide
Formula: C6HCl5O
Exact mass: 263.847
SMILES: C1(=C(C(=C(C(=C1Cl)Cl)Cl)Cl)Cl)O
InChI: InChI=1S/C6HCl5O/c7-1-2(8)4(10)6(12)5(11)3(1)9/h12H
Instrument: TripleTOF 6600 SCIEX
Instrument type: LC-ESI-QTOF
Ms type: MS2
Ion mode: NEGATIVE
Collision energy: 40
Fragmentation mode: CID
Ionization: ESI
Column name: Zorbax Eclipse Plus C18 2.1 mm x 150 mm, 3.5 um, Agilent
Retention time: 14.02 min
Precursor m/z: 264.8368
Precursor type: [M-H]-
m/z	relative intensity
34.9711	479
36.9681	142
201.8747	22
264.8387	999
