Mass spectrum: Fenbendazole; LC-ESI-QTOF; MS2; 20 V
Name: Fenbendazole
Formula: C15H13N3O2S
Exact mass: 299.0728
InChI: InChI=1S/C15H13N3O2S/c1-20-15(19)18-14-16-12-8-7-11(9-13(12)17-14)21-10-5-3-2-4-6-10/h2-9H,1H3,(H2,16,17,18,19)
Ms type: Q
Ion mode: POSITIVE
Collision energy: 20
Ionization: ESI
Retention time: 9.947 min
Precursor m/z: 300.0801
Precursor type: [M+H]+
m/z	relative intensity
159.0422	24
268.0536	830
300.0799	999
