Mass spectrum: Imazamox; LC-ESI-QTOF; MS2; 70 V
Name: Imazamox
Class: Herbicide
Formula: C15H19N3O4
Exact mass: 305.1376
SMILES: CC(C)C1(C(=O)NC(=N1)C2=C(C=C(C=N2)COC)C(=O)O)C
InChI: InChI=1S/C15H19N3O4/c1-8(2)15(3)14(21)17-12(18-15)11-10(13(19)20)5-9(6-16-11)7-22-4/h5-6,8H,7H2,1-4H3,(H,19,20)(H,17,18,21)
Instrument: TripleTOF 6600 SCIEX
Instrument type: LC-ESI-QTOF
Ms type: MS2
Ion mode: POSITIVE
Collision energy: 70
Fragmentation mode: CID
Ionization: ESI
Column name: Zorbax Eclipse Plus C18 2.1 mm x 150 mm, 3.5 um, Agilent
Retention time: 6.853 min
Precursor m/z: 306.1448
Precursor type: [M+H]+
m/z	relative intensity
37.0061	45
38.0139	50
39.0219	485
41.0374	959
42.0324	67
43.0402	33
44.0478	45
45.0323	73
51.0215	45
52.0168	39
53.0366	62
56.048	197
58.0632	28
61.006	50
62.0137	33
63.0211	152
64.0293	45
65.0368	507
67.0525	28
69.0678	462
70.0633	310
71.0714	344
77.0366	39
78.0318	146
79.0394	84
80.0473	163
86.0943	231
88.0163	728
89.0239	90
90.0314	310
91.0399	270
92.0474	999
93.0554	79
95.0478	28
103.027	33
104.0343	28
104.0474	50
105.0426	225
106.0261	62
106.0507	28
106.0618	33
107.0335	28
107.0577	180
108.042	62
115.0264	287
116.0346	491
117.0425	502
118.0279	79
118.0503	660
119.0582	174
120.0421	84
120.0643	28
122.0577	970
123.0657	152
130.062	39
131.0214	45
131.0583	79
132.0321	28
132.0658	62
133.0372	186
133.0736	56
134.0443	45
135.0524	45
142.0511	22
144.0294	327
144.0652	22
145.0375	474
145.0737	28
146.0218	107
146.0455	107
147.0529	152
148.0605	214
149.0315	33
149.0672	33
158.0681	33
159.0532	73
159.0763	28
160.0607	333
161.0567	135
161.0671	129
162.0398	225
163.0481	293
171.0886	28
175.0476	163
177.0264	28
187.0722	45
191.0774	90
193.0577	22
