Mass spectrum: 1-Boc-4-[3-(ethoxycarbonyl)phenyl]piperazine; LC-ESI-QTOF; MS2; 120 V
Name: 1-Boc-4-[3-(ethoxycarbonyl)phenyl]piperazine
Formula: C18H26N2O4
Exact mass: 334.1893
SMILES: CCOC(=O)C1=CC(=CC=C1)N2CCN(CC2)C(=O)OC(C)(C)C
InChI: InChI=1S/C18H26N2O4/c1-5-23-16(21)14-7-6-8-15(13-14)19-9-11-20(12-10-19)17(22)24-18(2,3)4/h6-8,13H,5,9-12H2,1-4H3
Instrument: TripleTOF 6600 SCIEX
Instrument type: LC-ESI-QTOF
Ms type: MS2
Ion mode: POSITIVE
Collision energy: 120
Fragmentation mode: CID
Ionization: ESI
Column name: Zorbax Eclipse Plus C18 2.1 mm x 150 mm, 3.5 um, Agilent
Retention time: 14.611 min
Precursor m/z: 335.1965
Precursor type: [M+H]+
m/z	relative intensity
35.9996	26
37.0075	106
38.003	26
38.0156	83
39.0232	569
41.0388	156
42.0336	66
44.0494	103
49.0071	46
50.0149	233
51.023	666
52.0304	29
53.0376	16
56.0487	33
57.0698	16
61.0081	13
62.0152	19
63.0229	119
64.0307	16
65.0386	892
66.0467	49
73.0064	16
74.0151	83
75.0231	203
76.0305	29
77.0387	999
78.0333	53
78.0461	109
79.0541	36
80.0485	39
89.0394	356
90.046	196
91.0542	972
92.0494	89
93.0328	19
93.057	69
102.0327	16
102.0473	26
103.0541	59
104.049	86
105.0439	53
105.0582	29
106.0637	13
115.0541	39
116.0494	53
117.0571	402
118.0654	506
119.0707	19
120.0805	16
121.0283	43
129.0564	19
130.0646	66
131.0629	19
148.0382	26
