Mass spectrum: Etofibrate; LC-ESI-QTOF; MS2; 100 V
Name: Etofibrate
Class: Pharmaceutical
Formula: C18H18ClNO5
Exact mass: 363.0874
SMILES: CC(C)(C(=O)OCCOC(=O)C1=CN=CC=C1)OC2=CC=C(C=C2)Cl
InChI: InChI=1S/C18H18ClNO5/c1-18(2,25-15-7-5-14(19)6-8-15)17(22)24-11-10-23-16(21)13-4-3-9-20-12-13/h3-9,12H,10-11H2,1-2H3
Instrument: TripleTOF 6600 SCIEX
Instrument type: LC-ESI-QTOF
Ms type: MS2
Ion mode: POSITIVE
Collision energy: 100
Fragmentation mode: CID
Ionization: ESI
Column name: Zorbax Eclipse Plus C18 2.1 mm x 150 mm, 3.5 um, Agilent
Retention time: 12.631 min
Precursor m/z: 364.0946
Precursor type: [M+H]+
m/z	relative intensity
37.0063	10
39.022	92
41.0377	145
42.0452	21
43.0171	15
45.0326	23
49.0061	11
50.0139	58
51.0217	155
52.0171	48
52.0301	28
53.0376	166
55.017	527
65.0368	25
69.0321	66
70.0398	14
73.0268	23
74.0136	35
75.0216	141
77.0372	44
78.0327	999
79.0401	80
80.0483	668
84.9824	15
92.0477	10
93.0556	31
94.0398	25
99.0424	509
106.0271	34
106.0637	25
110.9973	66
113.0577	55
122.0221	13
124.0378	238
139.0036	18
