Mass spectrum: Cocamidopropyl betaine; LC-ESI-QTOF; MS2; 50 V
Name: Cocamidopropyl betaine
Formula: C19H38N2O3
Exact mass: 342.2882
SMILES: CCCCCCCCCCCC(=O)NCCC[N+](C)(C)CC(=O)[O-]
InChI: InChI=1S/C19H38N2O3/c1-4-5-6-7-8-9-10-11-12-14-18(22)20-15-13-16-21(2,3)17-19(23)24/h4-17H2,1-3H3,(H-,20,22,23,24)
Instrument: TripleTOF 6600 SCIEX
Instrument type: LC-ESI-QTOF
Ms type: MS2
Ion mode: POSITIVE
Collision energy: 50
Fragmentation mode: CID
Ionization: ESI
Column name: Zorbax Eclipse Plus C18 2.1 mm x 150 mm, 3.5 um, Agilent
Retention time: 10.623 min
Precursor m/z: 343.2955
Precursor type: [M+H]+
m/z	relative intensity
30.0339	43
39.0226	28
41.0388	177
43.0543	471
55.054	54
57.0701	999
58.0654	150
67.0538	212
69.0692	48
71.0851	551
79.0541	15
81.0693	201
83.0849	91
85.1005	301
93.0686	12
95.085	526
97.1001	53
109.1007	276
123.1149	70
183.1734	130
240.2307	956
