Mass spectrum: Leucomalachite green; LC-ESI-QTOF; MS2; 40 V
Name: Leucomalachite green
Class: Metabolite
Formula: C23H26N2
Exact mass: 330.2096
SMILES: CN(C)C1=CC=C(C=C1)C(C2=CC=CC=C2)C3=CC=C(C=C3)N(C)C
InChI: InChI=1S/C23H26N2/c1-24(2)21-14-10-19(11-15-21)23(18-8-6-5-7-9-18)20-12-16-22(17-13-20)25(3)4/h5-17,23H,1-4H3
Instrument: TripleTOF 6600 SCIEX
Instrument type: LC-ESI-QTOF
Ms type: MS2
Ion mode: POSITIVE
Collision energy: 40
Fragmentation mode: CID
Ionization: ESI
Column name: Zorbax Eclipse Plus C18 2.1 mm x 150 mm, 3.5 um, Agilent
Retention time: 9.974 min
Precursor m/z: 331.2169
Precursor type: [M+H]+
m/z	relative intensity
165.0683	14
194.0948	54
195.1029	32
196.1105	22
208.1103	39
209.118	36
210.1268	46
223.1218	37
224.1304	29
237.1387	10
238.1458	10
239.1535	999
272.1425	62
286.1576	33
301.1679	12
315.1846	207
316.1931	90
331.2155	56
