Mass spectrum: Pendimethalin; LC-ESI-QTOF; MS2; 40 V
Name: Pendimethalin
Class: Herbicide
Formula: C13H19N3O4
Exact mass: 281.1376
SMILES: CCC(CC)Nc1c(cc(c(c1[N+](=O)[O-])C)C)[N+](=O)[O-]
InChI: InChI=1S/C13H19N3O4/c1-5-10(6-2)14-12-11(15(17)18)7-8(3)9(4)13(12)16(19)20/h7,10,14H,5-6H2,1-4H3
Instrument: TripleTOF 6600 SCIEX
Instrument type: LC-ESI-QTOF
Ms type: MS2
Ion mode: POSITIVE
Collision energy: 40
Fragmentation mode: CID
Ionization: ESI
Column name: Zorbax Eclipse Plus C18 2.1 mm x 150 mm, 3.5 um, Agilent
Retention time: 16.198 min
Precursor m/z: 282.1448
Precursor type: [M+H]+
m/z	relative intensity
39.0234	45
41.0393	151
42.034	10
43.019	31
43.055	367
50.0151	12
51.0232	47
52.0186	24
52.0316	14
53.0391	149
54.0352	24
55.0185	12
55.0541	24
63.0231	29
64.0182	10
64.031	64
65.0264	27
65.0394	267
66.0216	12
66.0347	122
66.0468	72
67.0304	12
67.0417	68
67.0544	14
68.0139	12
68.0503	33
69.9925	14
71.0859	66
76.0175	18
76.0314	24
77.0273	56
77.0389	108
78.0344	238
79.0305	22
79.0426	27
79.0543	60
80.0501	195
81.0345	22
81.0575	39
82.0426	18
89.0394	29
90.0344	62
90.0472	35
91.0423	695
92.0371	33
92.0498	483
93.0078	27
93.0446	72
93.0574	105
94.0287	20
94.04	27
94.0513	12
94.0656	33
95.0497	27
95.0601	22
96.0454	20
96.0566	47
102.0338	20
103.0292	33
103.0414	247
104.0376	56
104.0497	151
105.045	286
106.0295	66
106.0529	24
106.0655	76
107.0238	10
107.0385	20
107.0606	68
108.0444	68
109.0394	33
109.0523	12
110.0622	14
116.0511	37
117.0452	161
117.0566	72
118.0532	413
119.0402	12
119.0608	743
120.0195	112
120.0449	168
120.0684	126
121.0025	24
121.0406	56
121.0523	37
122.0477	103
124.0427	10
126.0562	70
129.0442	151
130.0521	199
131.0249	12
131.0604	311
132.0342	14
132.0558	151
133.0397	89
133.0629	24
134.0482	18
134.0606	33
135.0556	95
136.0643	60
145.0398	33
146.0488	24
147.0559	438
148.0634	999
149.0589	193
150.0658	29
160.0511	126
161.0592	16
162.0305	14
164.0576	116
166.0588	12
166.0714	39
176.0447	99
177.0535	234
178.0618	407
194.0566	276
195.0644	230
212.0672	83
