Mass spectrum: 3,5-Diiodothyronine; LC-ESI-QTOF; MS2; 40 V
Name: 3,5-Diiodothyronine
Class: Pharmaceutical
Formula: C15H13I2NO4
Exact mass: 524.8934
SMILES: NC(Cc1cc(I)c(Oc2ccc(O)cc2)c(I)c1)C(O)=O
InChI: InChI=1S/C15H13I2NO4/c16-11-5-8(7-13(18)15(20)21)6-12(17)14(11)22-10-3-1-9(19)2-4-10/h1-6,13,19H,7,18H2,(H,20,21)
Instrument: TripleTOF 5600 SCIEX
Instrument type: LC-ESI-QTOF
Ms type: MS2
Ion mode: POSITIVE
Collision energy: 40
Fragmentation mode: CID
Ionization: ESI
Column name: Zorbax Eclipse Plus C18 2.1 mm x 150 mm, 3.5 um, Agilent
Retention time: 7.539 min
Precursor m/z: 525.9007
Precursor type: [M+H]+
m/z	relative intensity
117.056	10
181.0637	33
185.0577	19
197.0585	17
199.0744	67
209.0588	32
210.0663	20
216.9488	10
225.0766	13
226.0845	63
232.9443	26
237.0545	30
255.0643	17
287.9271	37
311.9612	41
322.9532	12
324.9709	155
325.9787	80
335.9652	33
336.972	44
339.9573	61
351.9813	30
352.9899	667
353.9696	144
358.8393	19
372.8211	24
381.9687	175
386.8314	11
466.8623	121
479.8935	999
