Mass spectrum: Tolnaftate; LC-ESI-QTOF; MS2; 110 V
Name: Tolnaftate
Class: Fungicide; Pharmaceutical
Formula: C19H17NOS
Exact mass: 307.1031
SMILES: CC1=CC(=CC=C1)N(C)C(=S)OC2=CC3=CC=CC=C3C=C2
InChI: InChI=1S/C19H17NOS/c1-14-6-5-9-17(12-14)20(2)19(22)21-18-11-10-15-7-3-4-8-16(15)13-18/h3-13H,1-2H3
Instrument: TripleTOF 5600 SCIEX
Instrument type: LC-ESI-QTOF
Ms type: MS2
Ion mode: POSITIVE
Collision energy: 110
Fragmentation mode: CID
Ionization: ESI
Column name: Zorbax Eclipse Plus C18 2.1 mm x 150 mm, 3.5 um, Agilent
Retention time: 15.53 min
Precursor m/z: 308.1104
Precursor type: [M+H]+
m/z	relative intensity
37.0062	27
38.0147	18
39.0227	156
44.9784	46
51.0222	101
65.0386	999
68.9801	32
75.0235	36
77.0383	313
78.0465	18
79.0542	41
89.0383	69
90.0466	18
91.0543	690
104.0504	69
108.0039	23
115.0543	78
121.0124	23
126.0477	41
127.0518	36
148.0228	32
