Mass spectrum: Piroxicam; LC-ESI-QTOF; MS2; 60 V
Name: Piroxicam
Class: Pharmaceutical
Formula: C15H13N3O4S
Exact mass: 331.0627
SMILES: CN1C(=C(C2=CC=CC=C2S1(=O)=O)O)C(=O)NC3=CC=CC=N3
InChI: InChI=1S/C15H13N3O4S/c1-18-13(15(20)17-12-8-4-5-9-16-12)14(19)10-6-2-3-7-11(10)23(18,21)22/h2-9,19H,1H3,(H,16,17,20)
Instrument: TripleTOF 5600 SCIEX
Instrument type: LC-ESI-QTOF
Ms type: MS2
Ion mode: POSITIVE
Collision energy: 60
Fragmentation mode: CID
Ionization: ESI
Column name: Zorbax Eclipse Plus C18 2.1 mm x 150 mm, 3.5 um, Agilent
Retention time: 9.527 min
Precursor m/z: 332.07
Precursor type: [M+H]+
m/z	relative intensity
77.0445	22
78.0397	733
91.0584	12
94.057	10
95.0648	999
97.0148	19
104.029	18
105.0421	26
107.0649	10
109.015	30
121.0428	484
137.0064	18
146.0635	14
149.0602	15
153.0029	21
164.0146	13
168.9944	30
