Mass spectrum: Didesmethyl-citalopram; LC-ESI-QTOF; MS2; 50 V
Name: Didesmethyl-citalopram
Class: Pharmaceutical; Metabolite
Formula: C18H17FN2O
Exact mass: 296.1325
SMILES: c1cc(ccc1C2(c3ccc(cc3CO2)C#N)CCCN)F
InChI: InChI=1S/C18H17FN2O/c19-16-5-3-15(4-6-16)18(8-1-9-20)17-7-2-13(11-21)10-14(17)12-22-18/h2-7,10H,1,8-9,12,20H2
Instrument: TripleTOF 5600 SCIEX
Instrument type: LC-ESI-QTOF
Ms type: MS2
Ion mode: POSITIVE
Collision energy: 50
Fragmentation mode: CID
Ionization: ESI
Column name: Zorbax Eclipse Plus C18 2.1 mm x 150 mm, 3.5 um, Agilent
Retention time: 7.575 min
Precursor m/z: 297.1398
Precursor type: [M+H]+
m/z	relative intensity
83.0317	105
89.0405	56
109.0449	999
115.0541	19
116.0494	183
127.0546	14
128.0573	10
129.0695	11
133.0436	18
139.0533	18
140.0494	70
142.0586	19
146.0515	10
154.0661	10
166.0652	64
183.0591	12
183.0931	15
190.0656	22
195.0602	20
202.0746	20
203.0756	9
207.0604	55
208.0569	65
214.0666	52
215.0852	59
218.0569	16
219.0606	27
220.0674	110
221.0643	178
222.073	31
226.0674	33
227.0733	260
228.0808	14
232.0549	32
233.0761	86
234.0724	230
235.0792	30
240.0808	108
241.0878	42
242.0961	13
244.0694	30
245.0648	78
246.0723	343
247.0795	231
258.0728	18
259.0809	18
260.0878	42
261.0973	40
262.1029	32
