Mass spectrum: Amoxicillin; LC-ESI-QTOF; MS2; 40 V
Name: Amoxicillin
Class: Pharmaceutical
Formula: C16H19N3O5S
Exact mass: 365.1045
SMILES: CC1(S[C@@H]2[C@@H](C(N2[C@H]1C(O)=O)=O)NC([C@@H](c3ccc(O)cc3)N)=O)C
InChI: InChI=1S/C16H19N3O5S/c1-16(2)11(15(23)24)19-13(22)10(14(19)25-16)18-12(21)9(17)7-3-5-8(20)6-4-7/h3-6,9-11,14,20H,17H2,1-2H3,(H,18,21)(H,23,24)/t9-,10-,11+,14-/m1/s1
Instrument: TripleTOF 5600 SCIEX
Instrument type: LC-ESI-QTOF
Ms type: MS2
Ion mode: POSITIVE
Collision energy: 40
Fragmentation mode: CID
Ionization: ESI
Column name: Zorbax Eclipse Plus C18 2.1 mm x 150 mm, 3.5 um, Agilent
Retention time: 4.706 min
Precursor m/z: 366.1118
Precursor type: [M+H]+
m/z	relative intensity
70.0674	58
86.0077	96
96.0451	48
106.0642	38
107.0493	67
114.0015	999
114.0341	48
116.0512	58
134.0608	494
137.0056	96
137.0715	48
160.0424	135
162.0543	38
163.0214	48
165.0665	106
178.0338	67
180.0494	106
190.048	48
208.0424	87
211.0709	106
234.0217	87
275.0839	48
