Mass spectrum: 6alpha-Methylprednisolone; LC-ESI-QTOF; MS2; 120 V
Name: 6alpha-Methylprednisolone
Class: Pharmaceutical
Formula: C22H30O5
Exact mass: 374.2093
SMILES: C[C@H]1C[C@H]2[C@@H]3CC[C@](O)(C(=O)CO)[C@@]3(C)C[C@H](O)[C@@H]2[C@@]4(C)C=CC(=O)C=C14
InChI: InChI=1S/C22H30O5/c1-12-8-14-15-5-7-22(27,18(26)11-23)21(15,3)10-17(25)19(14)20(2)6-4-13(24)9-16(12)20/h4,6,9,12,14-15,17,19,23,25,27H,5,7-8,10-11H2,1-3H3/t12-,14-,15-,17-,19+,20-,21-,22-/m0/s1
Instrument: TripleTOF 5600 SCIEX
Instrument type: LC-ESI-QTOF
Ms type: MS2
Ion mode: POSITIVE
Collision energy: 120
Fragmentation mode: CID
Ionization: ESI
Column name: Zorbax Eclipse Plus C18 2.1 mm x 150 mm, 3.5 um, Agilent
Retention time: 9.016 min
Precursor m/z: 375.2166
Precursor type: [M+H]+
m/z	relative intensity
51.0283	48
65.0411	201
74.0147	27
77.0396	707
78.0492	62
79.0563	97
89.0391	83
91.0545	797
102.0453	90
103.0521	124
105.0699	90
107.0487	41
115.0528	999
116.0602	69
116.0751	34
117.0683	90
121.0653	48
126.0478	55
127.0538	242
128.0605	631
129.0686	159
131.0466	124
139.0527	131
141.0681	222
145.0621	41
150.0478	48
151.0531	173
152.061	492
153.0689	138
157.064	83
163.0538	76
164.0604	76
165.068	631
165.0984	41
166.0768	34
176.0603	152
177.0684	104
178.0761	291
179.0823	48
181.0616	111
188.0635	55
189.0677	360
190.0742	62
191.0857	83
194.0743	48
195.0763	27
200.0594	55
201.0687	83
202.0767	228
202.1012	27
203.0821	69
205.0597	41
207.0786	34
213.0682	48
215.0867	97
226.0786	48
239.0881	27
