Mass spectrum: Acebutolol; LC-ESI-QTOF; MS2; 80 V
Name: Acebutolol
Class: Pharmaceutical
Formula: C18H28N2O4
Exact mass: 336.2049
SMILES: CCCC(=O)Nc1ccc(OCC(O)CNC(C)C)c(c1)C(C)=O
InChI: InChI=1S/C18H28N2O4/c1-5-6-18(23)20-14-7-8-17(16(9-14)13(4)21)24-11-15(22)10-19-12(2)3/h7-9,12,15,19,22H,5-6,10-11H2,1-4H3,(H,20,23)
Instrument: TripleTOF 5600 SCIEX
Instrument type: LC-ESI-QTOF
Ms type: MS2
Ion mode: POSITIVE
Collision energy: 80
Fragmentation mode: CID
Ionization: ESI
Column name: Zorbax Eclipse Plus C18 2.1 mm x 150 mm, 3.5 um, Agilent
Retention time: 5.965 min
Precursor m/z: 337.2122
Precursor type: [M+H]+
m/z	relative intensity
42.0442	14
43.0256	46
56.0561	999
57.0384	25
58.0707	126
65.0427	111
72.0835	238
74.0629	280
77.0414	151
79.0567	46
80.0518	40
82.0666	14
91.055	75
92.0505	59
93.0351	88
93.0585	92
94.0659	46
98.0967	31
100.1129	23
103.0544	124
104.05	21
105.0699	25
106.0653	115
107.0728	14
108.0443	29
109.0513	61
110.0611	227
115.0538	90
116.1069	44
117.0565	54
117.0691	10
118.0652	42
119.0731	50
120.0812	128
122.06	33
122.0999	10
127.0545	14
130.065	56
131.0736	12
132.0799	12
133.0523	54
134.059	10
136.038	23
136.0768	10
143.072	21
146.0593	29
147.0669	10
148.0755	12
151.0634	10
160.0744	23
