Mass spectrum: Erlotinib; LC-ESI-QTOF; MS2; 80 V
Name: Erlotinib
Class: Pharmaceutical
Formula: C22H23N3O4
Exact mass: 393.1689
SMILES: COCCOC1=C(C=C2C(=C1)C(=NC=N2)NC3=CC=CC(=C3)C#C)OCCOC
InChI: InChI=1S/C22H23N3O4/c1-4-16-6-5-7-17(12-16)25-22-18-13-20(28-10-8-26-2)21(29-11-9-27-3)14-19(18)23-15-24-22/h1,5-7,12-15H,8-11H2,2-3H3,(H,23,24,25)
Instrument: TripleTOF 5600 SCIEX
Instrument type: LC-ESI-QTOF
Ms type: MS2
Ion mode: POSITIVE
Collision energy: 80
Fragmentation mode: CID
Ionization: ESI
Column name: Zorbax Eclipse Plus C18 2.1 mm x 150 mm, 3.5 um, Agilent
Retention time: 7.429 min
Precursor m/z: 394.1761
Precursor type: [M+H]+
m/z	relative intensity
51.0226	37
53.0387	18
55.0179	27
59.0491	94
65.0383	42
68.0496	30
73.0072	13
74.0154	73
75.023	401
76.0186	10
77.0252	13
77.0379	58
78.0337	105
79.0171	42
79.0442	12
80.0136	27
80.0507	16
81.0335	147
88.0185	30
89.0389	94
90.0339	12
90.0459	36
91.0545	321
93.0447	16
94.0518	13
95.0366	10
95.0625	18
96.0443	192
97.0285	61
101.039	999
102.0344	48
102.0452	10
104.0369	66
105.0445	78
106.0288	248
107.0118	25
108.0209	21
109.0284	195
115.0292	51
115.0547	28
116.0499	97
117.0576	255
118.065	111
121.0392	48
122.0241	13
122.0482	13
123.0545	34
124.0397	76
125.0392	19
126.0449	10
127.053	60
128.0499	103
129.0452	121
130.0414	15
132.0096	33
132.0306	12
133.0402	55
134.0238	84
134.0483	18
135.031	84
135.0547	12
136.0396	97
137.0365	30
139.0548	36
140.0496	60
141.065	27
142.0502	16
143.0246	28
143.0605	117
145.0396	10
148.0405	13
149.0359	78
149.0587	22
150.0433	233
151.0542	476
152.0509	216
153.0567	114
154.034	10
154.0663	145
155.0619	57
161.035	680
162.03	39
162.0432	39
163.0541	51
164.0501	69
165.0544	72
166.0653	97
167.0716	93
168.0741	78
169.0737	16
175.0454	18
176.0507	185
177.057	288
178.065	352
179.0613	174
180.0487	12
180.0735	78
181.0767	78
182.061	15
182.0803	22
183.0626	33
187.051	18
188.0502	84
189.0576	39
190.0661	69
191.063	109
192.0684	185
193.0765	377
194.0729	84
195.092	127
200.0595	19
201.0627	27
202.0528	12
203.061	371
204.0683	219
205.077	610
206.0643	275
207.0589	19
207.0788	129
208.067	34
209.0729	34
210.0658	18
211.0599	15
213.0474	27
214.0543	21
215.0607	105
216.0703	34
217.0651	61
218.0708	94
219.0513	10
219.0796	118
220.0872	654
221.0709	269
222.0736	54
222.1022	42
223.0772	18
223.0901	33
229.0629	19
230.0725	582
231.0793	618
232.0872	201
233.0714	81
234.0742	54
235.0766	22
236.073	40
237.0664	252
238.0706	27
242.0694	22
243.0487	10
243.0767	43
244.0878	22
246.0671	227
246.1049	12
247.0749	154
248.0826	373
249.0691	10
249.0895	33
250.0741	51
250.0971	60
251.0814	52
258.0655	60
259.0498	33
259.0727	156
260.0822	201
261.0653	78
262.0663	13
274.0629	15
275.0696	142
276.078	807
277.0908	15
278.0934	361
290.092	18
