Mass spectrum: Carebastine; LC-ESI-QTOF; MS2; 150 V
Name: Carebastine
Class: Pharmaceutical
Formula: C32H37NO4
Exact mass: 499.2723
SMILES: CC(C)(C1=CC=C(C=C1)C(=O)CCCN2CCC(CC2)OC(C3=CC=CC=C3)C4=CC=CC=C4)C(=O)O
InChI: InChI=1S/C32H37NO4/c1-32(2,31(35)36)27-17-15-24(16-18-27)29(34)14-9-21-33-22-19-28(20-23-33)37-30(25-10-5-3-6-11-25)26-12-7-4-8-13-26/h3-8,10-13,15-18,28,30H,9,14,19-23H2,1-2H3,(H,35,36)
Instrument: TripleTOF 6600 SCIEX
Instrument type: LC-ESI-QTOF
Ms type: MS2
Ion mode: POSITIVE
Collision energy: 150
Fragmentation mode: CID
Ionization: ESI
Column name: Zorbax Eclipse Plus C18 2.1 mm x 150 mm, 3.5 um, Agilent
Retention time: 10.045 min
Precursor m/z: 500.2796
Precursor type: [M+H]+
m/z	relative intensity
39.0225	24
51.0224	18
63.0223	29
65.0381	107
77.0383	192
78.0458	45
79.0534	15
89.0381	101
90.0459	73
91.054	462
102.0457	82
103.0538	160
115.054	683
116.0612	31
117.0695	257
118.077	94
126.0457	57
127.0535	27
128.0615	122
131.0486	30
139.0539	100
141.0689	25
150.0461	65
151.0539	197
152.0618	505
163.0539	131
164.0618	203
165.07	999
166.0767	18
