Mass spectrum: Monomethyldiuron; LC-ESI-QTOF; MS2; 70 V
Name: Monomethyldiuron
Class: Herbicide; Transformation_product
Formula: C8H8Cl2N2O
Exact mass: 218.0014
SMILES: CNC(=O)Nc1ccc(Cl)c(Cl)c1
InChI: InChI=1S/C8H8Cl2N2O/c1-11-8(13)12-5-2-3-6(9)7(10)4-5/h2-4H,1H3,(H2,11,12,13)
Instrument: TripleTOF 5600 SCIEX
Instrument type: LC-ESI-QTOF
Ms type: MS2
Ion mode: POSITIVE
Collision energy: 70
Fragmentation mode: CID
Ionization: ESI
Column name: Zorbax Eclipse Plus C18 2.1 mm x 150 mm, 3.5 um, Agilent
Retention time: 9.821 min
Precursor m/z: 219.0086
Precursor type: [M+H]+
m/z	relative intensity
52.0291	15
58.0332	111
64.0363	40
65.0436	509
72.9894	58
74.0195	89
75.0249	13
82.9483	15
90.0371	15
90.0468	11
91.0427	82
92.0506	411
96.9841	17
98.9999	60
100.008	306
108.9837	89
125.0031	33
126.0072	11
127.0185	999
132.9599	46
