Mass spectrum: Mitomycin A; LC-ESI-QTOF; MS2; 70 V
Name: Mitomycin A
Class: Pharmaceutical
Formula: C16H19N3O6
Exact mass: 349.1274
SMILES: COC1=C(C)C(=O)C2=C([C@H](COC(N)=O)[C@]3(OC)[C@@H]4N[C@@H]4CN23)C1=O
InChI: InChI=1S/C16H19N3O6/c1-6-11(20)10-9(12(21)13(6)23-2)7(5-25-15(17)22)16(24-3)14-8(18-14)4-19(10)16/h7-8,14,18H,4-5H2,1-3H3,(H2,17,22)/t7-,8+,14+,16-/m0/s1
Instrument: TripleTOF 5600 SCIEX
Instrument type: LC-ESI-QTOF
Ms type: MS2
Ion mode: POSITIVE
Collision energy: 70
Fragmentation mode: CID
Ionization: ESI
Column name: Zorbax Eclipse Plus C18 2.1 mm x 150 mm, 3.5 um, Agilent
Retention time: 7.046 min
Precursor m/z: 350.1347
Precursor type: [M+H]+
m/z	relative intensity
76.0357	19
77.0412	135
77.062	35
78.035	15
78.0477	47
79.0397	19
79.0555	19
80.0507	15
89.0391	51
90.0474	23
91.055	131
92.0517	23
93.0585	51
101.042	23
102.0459	39
103.0406	19
103.0539	79
104.0502	234
105.0432	19
105.0588	67
106.0418	19
106.0648	19
115.0409	19
115.0536	214
116.049	115
116.0613	51
117.0434	35
117.0581	135
118.0525	31
118.0653	222
118.0838	27
118.0992	27
119.0697	63
120.0461	47
127.0542	59
128.0517	155
129.0561	99
129.0707	23
130.065	437
130.089	19
131.0417	23
131.0603	342
132.0437	63
132.0685	155
132.0904	23
133.0513	43
134.0594	43
140.0508	71
141.0575	115
142.0645	226
143.0312	19
143.0642	258
144.0431	47
144.0793	131
145.0409	63
145.0745	63
146.0589	119
146.0836	23
147.0664	51
153.0491	23
154.0642	127
155.0592	374
156.0474	23
156.0677	593
157.0533	51
157.0759	991
158.0603	75
158.0838	67
159.0548	191
160.0358	23
160.0752	59
161.0469	35
162.0537	31
167.057	35
167.0722	19
168.0675	151
169.0455	15
169.0754	497
169.1006	15
170.0589	35
170.0845	103
171.0583	111
171.0916	127
172.0427	27
172.0736	79
173.0438	15
173.0721	27
174.0544	71
175.0597	39
176.0318	19
176.0686	35
178.0491	27
179.0632	19
181.076	151
182.083	115
183.0567	19
183.0905	71
184.0642	147
185.0693	298
186.0551	87
186.0779	75
187.0615	35
188.0717	67
189.0778	59
197.0689	191
198.0536	19
198.078	191
199.0504	35
199.0863	425
200.0717	47
200.0921	31
201.0732	31
202.0467	31
204.0294	15
204.0645	43
209.0715	31
211.049	15
211.0854	55
212.0605	51
213.0651	330
214.0514	15
214.0714	191
215.0836	67
225.0679	47
226.0712	35
227.081	999
228.0882	39
243.0696	27
