Mass spectrum: Ecgonine ethyl ester; LC-ESI-QTOF; MS2; 70 V
Name: Ecgonine ethyl ester
Formula: C11H19NO3
Exact mass: 213.1365
SMILES: CCOC(=O)C1C2CCC(N2C)CC1O
InChI: InChI=1S/C11H19NO3/c1-3-15-11(14)10-8-5-4-7(12(8)2)6-9(10)13/h7-10,13H,3-6H2,1-2H3
Instrument: TripleTOF 6600 SCIEX
Instrument type: LC-ESI-QTOF
Ms type: MS2
Ion mode: POSITIVE
Collision energy: 70
Fragmentation mode: CID
Ionization: ESI
Column name: Zorbax Eclipse Plus C18 2.1 mm x 150 mm, 3.5 um, Agilent
Retention time: 2.108 min
Precursor m/z: 214.1438
Precursor type: [M+H]+
m/z	relative intensity
37.0083	63
38.0161	42
39.024	233
41.0398	297
42.0346	340
43.0184	42
51.0235	106
53.0405	106
54.0353	21
55.0182	63
55.0549	127
56.0505	42
57.0583	63
58.0293	21
58.0651	21
65.0397	297
67.0426	510
67.0547	148
68.0499	510
69.0332	42
70.0666	21
71.0139	63
77.039	170
78.0344	21
78.0447	42
79.0428	63
79.0548	63
80.0507	148
81.0578	63
82.0661	999
83.0503	21
83.0725	127
84.0812	63
91.0543	191
93.0581	42
94.0654	510
106.0654	42
107.0708	21
