Mass spectrum: Oxcarbazepine; LC-ESI-QTOF; MS2; 40 V
Name: Oxcarbazepine
Class: Pharmaceutical
Formula: C15H12N2O2
Exact mass: 252.0899
SMILES: NC(=O)N1c2ccccc2CC(=O)c3ccccc13
InChI: InChI=1S/C15H12N2O2/c16-15(19)17-12-7-3-1-5-10(12)9-14(18)11-6-2-4-8-13(11)17/h1-8H,9H2,(H2,16,19)
Instrument: TripleTOF 5600 SCIEX
Instrument type: LC-ESI-QTOF
Ms type: MS2
Ion mode: POSITIVE
Collision energy: 40
Fragmentation mode: CID
Ionization: ESI
Column name: Zorbax Eclipse Plus C18 2.1 mm x 150 mm, 3.5 um, Agilent
Retention time: 8.323 min
Precursor m/z: 253.0972
Precursor type: [M+H]+
m/z	relative intensity
77.0415	11
128.0497	31
151.0531	14
152.0625	62
153.0698	21
154.0649	18
165.0697	53
166.0663	10
167.0733	130
178.0657	44
179.0731	110
180.0812	999
181.0885	20
182.0969	124
192.0804	12
193.088	12
195.0679	13
208.076	308
210.0914	85
236.0715	76
