Mass spectrum: N-(2-Methoxyphenyl)acetamide; LC-ESI-QTOF; MS2; 70 V
Name: N-(2-Methoxyphenyl)acetamide
Formula: C9H11NO2
Exact mass: 165.079
SMILES: CC(=O)NC1=CC=CC=C1OC
InChI: InChI=1S/C9H11NO2/c1-7(11)10-8-5-3-4-6-9(8)12-2/h3-6H,1-2H3,(H,10,11)
Instrument: TripleTOF 5600 SCIEX
Instrument type: LC-ESI-QTOF
Ms type: MS2
Ion mode: POSITIVE
Collision energy: 70
Fragmentation mode: CID
Ionization: ESI
Column name: Zorbax Eclipse Plus C18 2.1 mm x 150 mm, 3.5 um, Agilent
Retention time: 7.374 min
Precursor m/z: 166.0863
Precursor type: [M+H]+
m/z	relative intensity
39.0228	58
45.0336	274
50.0156	186
51.0231	773
65.0386	137
66.0455	39
77.0386	999
78.0461	58
79.0547	68
106.0637	39
