Mass spectrum: Budesonide; LC-ESI-QTOF; MS2; 40 V
Name: Budesonide
Class: Pharmaceutical
Formula: C25H34O6
Exact mass: 430.2355
SMILES: CCC[C@@H]1O[C@@H]2C[C@H]3[C@@H]4CCC5=CC(=O)C=C[C@]5(C)[C@H]4[C@@H](O)C[C@]3(C)[C@@]2(O1)C(=O)CO
InChI: InChI=1S/C25H34O6/c1-4-5-21-30-20-11-17-16-7-6-14-10-15(27)8-9-23(14,2)22(16)18(28)12-24(17,3)25(20,31-21)19(29)13-26/h8-10,16-18,20-22,26,28H,4-7,11-13H2,1-3H3/t16-,17-,18-,20+,21+,22+,23-,24-,25+/m0/s1
Instrument: TripleTOF 5600 SCIEX
Instrument type: LC-ESI-QTOF
Ms type: MS2
Ion mode: POSITIVE
Collision energy: 40
Fragmentation mode: CID
Ionization: ESI
Column name: Zorbax Eclipse Plus C18 2.1 mm x 150 mm, 3.5 um, Agilent
Retention time: 11.041 min
Precursor m/z: 431.2428
Precursor type: [M+H]+
m/z	relative intensity
81.0723	58
91.0561	52
93.0703	45
97.0663	26
105.0734	52
107.0845	45
109.0625	39
119.083	71
121.0626	274
128.0589	32
131.0829	39
132.0565	26
133.0629	45
135.0789	124
137.0584	65
139.0741	39
143.0845	58
145.0641	78
145.1002	78
147.0788	999
149.0907	26
155.0812	45
157.0993	45
158.069	84
159.078	176
161.0949	97
163.0745	58
169.0959	32
171.0791	411
171.1101	26
173.0947	659
177.0897	52
179.0849	32
183.0783	52
185.0943	111
187.1107	39
192.0896	32
195.0788	71
196.085	39
197.0949	156
199.1106	91
205.1019	52
208.0867	58
209.0939	130
210.1022	71
211.1109	182
213.0885	39
213.1248	71
219.1183	45
221.0939	84
222.1035	45
223.1079	176
224.1168	71
225.1259	398
226.1333	248
227.1413	143
233.0965	78
234.1009	58
235.1103	176
237.1253	189
239.1404	150
241.1562	52
245.0947	32
246.1037	32
247.1071	45
247.1422	26
248.1186	104
249.1265	130
251.1398	97
253.1207	52
253.1565	71
255.1357	39
261.1251	91
262.1322	117
263.1419	274
264.1482	71
265.1243	45
265.1581	248
267.1718	39
272.1158	39
275.1416	78
277.1325	32
277.158	267
279.1355	71
281.1514	104
281.1834	32
287.1385	156
289.1566	32
290.1234	26
293.1489	39
295.1663	156
297.1473	45
305.1513	293
307.1694	45
323.1622	450
325.1746	71
341.1687	52
395.2194	39
413.2303	613
