Mass spectrum: 3,5-Diacetamidobenzoic acid; LC-ESI-QTOF; MS2; 40 V
Name: 3,5-Diacetamidobenzoic acid
Class: Pharmaceutical
Formula: C11H12N2O4
Exact mass: 236.0797
SMILES: CC(=O)NC1=CC(=CC(=C1)C(=O)O)NC(=O)C
InChI: InChI=1S/C11H12N2O4/c1-6(14)12-9-3-8(11(16)17)4-10(5-9)13-7(2)15/h3-5H,1-2H3,(H,12,14)(H,13,15)(H,16,17)
Instrument: TripleTOF 5600 SCIEX
Instrument type: LC-ESI-QTOF
Ms type: MS2
Ion mode: POSITIVE
Collision energy: 40
Fragmentation mode: CID
Ionization: ESI
Column name: Zorbax Eclipse Plus C18 2.1 mm x 150 mm, 3.5 um, Agilent
Retention time: 5.221 min
Precursor m/z: 237.087
Precursor type: [M+H]+
m/z	relative intensity
43.0332	45
66.044	27
80.0549	280
90.0397	22
92.0533	456
93.0603	31
107.0625	999
108.0462	226
108.0716	54
109.0309	40
109.0774	718
110.0618	31
122.0609	18
131.0634	22
132.048	40
135.0563	461
136.0408	76
148.0597	27
149.0725	560
150.0563	230
153.0667	646
154.042	18
154.0529	22
177.0675	696
178.051	54
191.0809	492
195.0801	76
219.0762	705
237.0849	22
