Mass spectrum: Prochloraz; LC-ESI-QTOF; MS2; 100 V
Name: Prochloraz
Class: Fungicide
Formula: C15H16Cl3N3O2
Exact mass: 375.0308
SMILES: CCCN(CCOc1c(cc(cc1Cl)Cl)Cl)C(=O)n2ccnc2
InChI: InChI=1S/C15H16Cl3N3O2/c1-2-4-20(15(22)21-5-3-19-10-21)6-7-23-14-12(17)8-11(16)9-13(14)18/h3,5,8-10H,2,4,6-7H2,1H3
Instrument: TripleTOF 6600 SCIEX
Instrument type: LC-ESI-QTOF
Ms type: MS2
Ion mode: POSITIVE
Collision energy: 100
Fragmentation mode: CID
Ionization: ESI
Column name: Zorbax Eclipse Plus C18 2.1 mm x 150 mm, 3.5 um, Agilent
Retention time: 11.258 min
Precursor m/z: 376.0381
Precursor type: [M+H]+
m/z	relative intensity
37.0074	95
38.0032	79
38.0151	95
39.0229	444
41.0387	713
42.0336	586
43.0546	253
56.0495	348
62.0158	79
63.0229	285
70.0287	301
70.0652	348
72.9836	444
74.0153	95
82.9446	967
89.038	380
90.0458	63
96.9839	269
97.9919	111
98.9987	301
106.9446	903
107.9756	999
108.9838	348
123.0005	142
125.0159	333
132.9609	380
142.9449	253
144.9604	222
158.9773	63
161.9629	285
166.9212	697
172.9686	63
179.928	79
