Mass spectrum: Trioctylphosphine oxide; LC-ESI-QTOF; MS2; 100 V
Name: Trioctylphosphine oxide
Class: Industrial_process
Formula: C24H51OP
Exact mass: 386.3678
SMILES: CCCCCCCCP(=O)(CCCCCCCC)CCCCCCCC
InChI: InChI=1S/C24H51OP/c1-4-7-10-13-16-19-22-26(25,23-20-17-14-11-8-5-2)24-21-18-15-12-9-6-3/h4-24H2,1-3H3
Instrument: TripleTOF 5600 SCIEX
Instrument type: LC-ESI-QTOF
Ms type: MS2
Ion mode: POSITIVE
Collision energy: 100
Fragmentation mode: CID
Ionization: ESI
Column name: Zorbax Eclipse Plus C18 2.1 mm x 150 mm, 3.5 um, Agilent
Retention time: 22.9 min
Precursor m/z: 387.375
Precursor type: [M+H]+
m/z	relative intensity
44.9996	63
50.0003	13
56.9976	17
59.0119	21
61.0287	14
63.0075	999
64.0143	250
65.0209	22
67.0613	17
69.0769	70
71.0107	11
72.0178	33
73.0261	58
75.0051	55
77.021	651
78.0283	492
79.037	21
85.0252	14
87.042	18
89.0202	16
90.0276	42
91.0348	163
92.0424	169
99.0422	12
101.0542	14
103.034	49
104.0426	22
105.0494	110
117.0489	75
118.055	11
119.0641	77
131.0632	39
133.0788	49
145.0793	38
147.0956	29
159.0939	28
161.1072	19
173.1132	12
175.1313	11
189.14	21
215.1546	16
231.1863	12
