Mass spectrum: Iminostilbene; LC-ESI-QTOF; MS2; 90 V
Name: Iminostilbene
Class: Pharmaceutical
Formula: C14H11N
Exact mass: 193.0891
SMILES: C1=CC=C2C(=C1)C=CC3=CC=CC=C3N2
InChI: InChI=1S/C14H11N/c1-3-7-13-11(5-1)9-10-12-6-2-4-8-14(12)15-13/h1-10,15H
Instrument: TripleTOF 6600 SCIEX
Instrument type: LC-ESI-QTOF
Ms type: MS2
Ion mode: POSITIVE
Collision energy: 90
Fragmentation mode: CID
Ionization: ESI
Column name: Zorbax Eclipse Plus C18 2.1 mm x 150 mm, 3.5 um, Agilent
Retention time: 13.175 min
Precursor m/z: 194.0964
Precursor type: [M+H]+
m/z	relative intensity
35.9964	16
37.004	77
38.0118	66
39.0196	263
41.0348	10
49.0026	35
50.0107	313
51.0185	482
52.026	34
61.0015	74
62.0094	221
63.0174	697
64.0121	14
64.0247	45
65.0328	154
73.0005	14
74.0085	320
75.016	362
76.0118	14
76.0236	191
77.0315	314
78.0389	55
84.9994	26
86.0071	115
87.0149	188
88.0099	28
88.0221	54
89.0306	774
90.0262	17
90.0373	42
91.0457	30
98.0059	194
99.0015	12
99.0137	175
100.0089	14
100.021	67
101.0293	86
102.0368	140
103.0318	10
110.0048	40
111.0127	42
113.0282	315
114.023	58
114.0342	31
115.0437	302
116.0387	30
122.0036	31
123.0116	24
124.0185	35
125.0275	124
126.0346	193
127.0308	37
127.0422	22
128.0375	58
129.0326	29
137.0261	133
138.0335	95
139.0416	499
140.037	319
149.0248	77
150.0326	532
151.04	212
152.0358	52
152.0476	45
153.0433	16
161.0236	40
162.0314	170
163.0396	999
164.0408	430
165.0548	148
166.0501	51
174.0306	17
175.0268	25
176.0333	53
177.0411	90
178.0493	25
188.032	130
189.0401	205
190.0482	479
191.0554	153
