Mass spectrum: Phenylbutazone; LC-ESI-QTOF; MS2; 90 V
Name: Phenylbutazone
Class: Pharmaceutical
Formula: C19H20N2O2
Exact mass: 308.1525
SMILES: CCCCC1C(=O)N(N(C1=O)C2=CC=CC=C2)C3=CC=CC=C3
InChI: InChI=1S/C19H20N2O2/c1-2-3-14-17-18(22)20(15-10-6-4-7-11-15)21(19(17)23)16-12-8-5-9-13-16/h4-13,17H,2-3,14H2,1H3
Instrument: TripleTOF 5600 SCIEX
Instrument type: LC-ESI-QTOF
Ms type: MS2
Ion mode: POSITIVE
Collision energy: 90
Fragmentation mode: CID
Ionization: ESI
Column name: Zorbax Eclipse Plus C18 2.1 mm x 150 mm, 3.5 um, Agilent
Retention time: 13.103 min
Precursor m/z: 309.1598
Precursor type: [M+H]+
m/z	relative intensity
55.0287	27
77.0457	999
78.0481	46
79.0599	31
89.0443	28
90.0525	17
91.0592	79
92.0545	162
93.0395	15
93.0622	80
94.0477	15
94.0697	96
104.0526	66
105.0528	21
106.0696	33
115.0576	28
116.0541	11
117.0602	39
118.067	61
128.0569	23
130.0687	37
132.0482	12
133.0549	16
139.0569	13
140.0529	16
166.067	18
167.0772	22
181.0775	63
206.0829	11
