Mass spectrum: Diclofenac; LC-ESI-QTOF; MS2; 50 V
Name: Diclofenac
Class: Pharmaceutical
Formula: C14H11Cl2NO2
Exact mass: 295.0167
SMILES: OC(Cc1c(Nc2c(Cl)cccc2Cl)cccc1)=O
InChI: InChI=1S/C14H11Cl2NO2/c15-10-5-3-6-11(16)14(10)17-12-7-2-1-4-9(12)8-13(18)19/h1-7,17H,8H2,(H,18,19)
Instrument: TripleTOF 5600 SCIEX
Instrument type: LC-ESI-QTOF
Ms type: MS2
Ion mode: POSITIVE
Collision energy: 50
Fragmentation mode: CID
Ionization: ESI
Column name: Zorbax Eclipse Plus C18 2.1 mm x 150 mm, 3.5 um, Agilent
Retention time: 12.622 min
Precursor m/z: 296.024
Precursor type: [M+H]+
m/z	relative intensity
151.0544	12
178.0639	20
179.0725	31
180.081	22
214.0422	999
215.0483	12
