Mass spectrum: Flutamide; LC-ESI-QTOF; MS2; 80 V
Name: Flutamide
Class: Pharmaceutical
Formula: C11H11F3N2O3
Exact mass: 276.0722
SMILES: CC(C)C(=O)NC1=CC(=C(C=C1)[N+](=O)[O-])C(F)(F)F
InChI: InChI=1S/C11H11F3N2O3/c1-6(2)10(17)15-7-3-4-9(16(18)19)8(5-7)11(12,13)14/h3-6H,1-2H3,(H,15,17)
Instrument: TripleTOF 6600 SCIEX
Instrument type: LC-ESI-QTOF
Ms type: MS2
Ion mode: POSITIVE
Collision energy: 80
Fragmentation mode: CID
Ionization: ESI
Column name: Zorbax Eclipse Plus C18 2.1 mm x 150 mm, 3.5 um, Agilent
Retention time: 12.297 min
Precursor m/z: 277.0795
Precursor type: [M+H]+
m/z	relative intensity
37.007	30
38.002	42
38.0151	30
39.0222	288
40.0073	12
41.0381	999
43.0536	772
52.0025	18
64.0327	12
65.039	49
74.0152	18
75.0036	30
75.0209	36
76.0336	12
77.0374	18
80.0465	12
81.0106	12
83.0288	36
84.0364	122
88.0116	79
91.0403	30
91.0501	30
92.0496	36
94.0208	42
94.0322	12
95.0271	73
100.0147	24
101.0197	24
111.0462	214
113.0181	61
114.0259	171
115.0353	24
115.0514	30
120.0265	12
123.0391	18
125.0179	55
133.0201	18
133.0287	12
140.029	85
141.0199	18
141.0246	12
142.0458	232
143.0088	36
145.0263	18
160.0366	55
161.0425	18
