Mass spectrum: 4,4`-Methylenebis(2-methylaniline); LC-ESI-QTOF; MS2; 60 V
Name: 4,4`-Methylenebis(2-methylaniline)
Formula: C15H18N2
Exact mass: 226.147
SMILES: CC1=C(C=CC(=C1)CC2=CC(=C(C=C2)N)C)N
InChI: InChI=1S/C15H18N2/c1-10-7-12(3-5-14(10)16)9-13-4-6-15(17)11(2)8-13/h3-8H,9,16-17H2,1-2H3
Instrument: TripleTOF 6600 SCIEX
Instrument type: LC-ESI-QTOF
Ms type: MS2
Ion mode: POSITIVE
Collision energy: 60
Fragmentation mode: CID
Ionization: ESI
Column name: Zorbax Eclipse Plus C18 2.1 mm x 150 mm, 3.5 um, Agilent
Retention time: 5.215 min
Precursor m/z: 227.1543
Precursor type: [M+H]+
m/z	relative intensity
42.0336	12
51.0221	18
65.0368	13
77.037	376
79.0525	21
80.0465	36
91.0522	149
92.0486	15
93.0567	32
93.0686	18
94.0641	19
102.0448	18
103.0526	104
104.048	36
105.056	24
106.0631	10
115.0537	16
118.0638	50
119.0721	53
120.0791	999
127.0521	23
128.0607	39
130.0626	10
140.0562	12
151.0516	52
152.0611	182
153.0695	92
163.0501	16
165.0678	59
166.0764	23
167.0841	23
168.0757	19
176.0615	58
177.0696	63
178.0775	138
179.0697	19
180.0805	165
181.083	15
189.0689	16
191.0838	12
192.0803	16
193.0878	96
194.0937	59
195.0946	24
196.0984	18
