Mass spectrum: Zoxamide; LC-ESI-QTOF; MS2; 100 V
Name: Zoxamide
Class: Fungicide
Formula: C14H16Cl3NO2
Exact mass: 335.0247
SMILES: CCC(C)(C(=O)CCl)NC(=O)C1=CC(=C(C(=C1)Cl)C)Cl
InChI: InChI=1S/C14H16Cl3NO2/c1-4-14(3,12(19)7-15)18-13(20)9-5-10(16)8(2)11(17)6-9/h5-6H,4,7H2,1-3H3,(H,18,20)
Instrument: TripleTOF 6600 SCIEX
Instrument type: LC-ESI-QTOF
Ms type: MS2
Ion mode: POSITIVE
Collision energy: 100
Fragmentation mode: CID
Ionization: ESI
Column name: Zorbax Eclipse Plus C18 2.1 mm x 150 mm, 3.5 um, Agilent
Retention time: 14.13 min
Precursor m/z: 336.032
Precursor type: [M+H]+
m/z	relative intensity
39.0227	27
44.013	19
46.9681	22
48.9835	36
61.0071	25
62.015	86
63.0227	190
72.9835	416
74.9977	11
77.0384	25
82.9442	47
87.0218	25
88.031	81
89.0381	999
96.9833	162
98.9987	221
106.9443	19
122.9991	425
124.0065	86
132.9595	109
158.9746	64
