Mass spectrum: Mefenpyr-diethyl; LC-ESI-QTOF; MS2; 20 V
Name: Mefenpyr-diethyl
Class: Herbicide
Formula: C16H18Cl2N2O4
Exact mass: 372.0644
SMILES: CCOC(=O)C1=NN(C(C1)(C)C(=O)OCC)C2=C(C=C(C=C2)Cl)Cl
InChI: InChI=1S/C16H18Cl2N2O4/c1-4-23-14(21)12-9-16(3,15(22)24-5-2)20(19-12)13-7-6-10(17)8-11(13)18/h6-8H,4-5,9H2,1-3H3
Instrument: TripleTOF 5600 SCIEX
Instrument type: LC-ESI-QTOF
Ms type: MS2
Ion mode: POSITIVE
Collision energy: 20
Fragmentation mode: CID
Ionization: ESI
Column name: Zorbax Eclipse Plus C18 2.1 mm x 150 mm, 3.5 um, Agilent
Retention time: 14.581 min
Precursor m/z: 373.0716
Precursor type: [M+H]+
m/z	relative intensity
159.9722	13
252.9935	22
298.9995	37
325.9976	17
327.0296	999
373.0742	19
