Mass spectrum: 2-N-methyl-lamotrigine; LC-ESI-QTOF; MS2; 60 V
Name: 2-N-methyl-lamotrigine
Class: Metabolite; Pharmaceutical
Formula: C10H9Cl2N5
Exact mass: 269.0235
SMILES: CN1N=C(C2=CC=CC(Cl)=C2Cl)C(N)=NC1=N
InChI: InChI=1S/C10H9Cl2N5/c1-17-10(14)15-9(13)8(16-17)5-3-2-4-6(11)7(5)12/h2-4H,1H3,(H3,13,14,15)
Instrument: TripleTOF 5600 SCIEX
Instrument type: LC-ESI-QTOF
Ms type: MS2
Ion mode: POSITIVE
Collision energy: 60
Fragmentation mode: CID
Ionization: ESI
Column name: Zorbax Eclipse Plus C18 2.1 mm x 150 mm, 3.5 um, Agilent
Retention time: 6.444 min
Precursor m/z: 270.0308
Precursor type: [M+H]+
m/z	relative intensity
44.0463	11
57.0505	999
72.0583	40
74.0172	10
75.0257	10
82.0413	13
100.0176	66
102.046	14
108.9827	89
110.9983	21
114.0331	125
121.9912	12
122.9988	176
123.9936	33
125.0059	11
130.0641	26
131.0613	16
132.9611	57
135.994	123
137.0025	21
138.0095	38
144.9596	121
149.0011	21
150.0097	98
151.0138	14
156.9612	12
158.9668	26
159.9698	37
163.0054	20
164.0005	92
164.0262	10
165.021	72
166.0287	42
170.9627	65
171.9714	254
172.9653	34
173.9876	11
183.9717	20
184.9788	248
185.9745	104
191.0233	14
192.0266	10
196.9638	10
198.981	10
200.9956	41
234.0528	13
270.032	19
