Mass spectrum: Chlorothiazide; LC-ESI-QTOF; MS2; 70 V
Name: Chlorothiazide
Class: Pharmaceutical; Transformation_product-Metabolite
Formula: C7H6ClN3O4S2
Exact mass: 294.9488
SMILES: N[S](=O)(=O)c1cc2c(NC=N[S]2(=O)=O)cc1Cl
InChI: InChI=1S/C7H6ClN3O4S2/c8-4-1-5-7(2-6(4)16(9,12)13)17(14,15)11-3-10-5/h1-3H,(H,10,11)(H2,9,12,13)
Instrument: TripleTOF 5600 SCIEX
Instrument type: LC-ESI-QTOF
Ms type: MS2
Ion mode: POSITIVE
Collision energy: 70
Fragmentation mode: CID
Ionization: ESI
Column name: Zorbax Eclipse Plus C18 2.1 mm x 150 mm, 3.5 um, Agilent
Retention time: 5.43 min
Precursor m/z: 295.9561
Precursor type: [M+H]+
m/z	relative intensity
72.9885	194
76.0202	170
78.0353	121
85.9822	121
89.0281	438
90.0343	316
93.0452	97
96.9838	462
97.9799	268
99.9948	170
104.9549	146
106.9805	316
111.9952	146
117.0431	999
123.9972	365
125.0016	194
129.0203	97
155.9869	170
