Mass spectrum: Inabenfide; LC-ESI-QTOF; MS2; 120 V
Name: Inabenfide
Formula: C19H15ClN2O2
Exact mass: 338.0822
SMILES: C1=CC=C(C=C1)C(C2=C(C=CC(=C2)Cl)NC(=O)C3=CC=NC=C3)O
InChI: InChI=1S/C19H15ClN2O2/c20-15-6-7-17(22-19(24)14-8-10-21-11-9-14)16(12-15)18(23)13-4-2-1-3-5-13/h1-12,18,23H,(H,22,24)
Instrument: TripleTOF 6600 SCIEX
Instrument type: LC-ESI-QTOF
Ms type: MS2
Ion mode: POSITIVE
Collision energy: 120
Fragmentation mode: CID
Ionization: ESI
Column name: Zorbax Eclipse Plus C18 2.1 mm x 150 mm, 3.5 um, Agilent
Retention time: 10.231 min
Precursor m/z: 339.0895
Precursor type: [M+H]+
m/z	relative intensity
39.022	27
49.0065	95
50.0142	533
51.0221	588
52.0176	136
52.0296	999
53.0378	150
62.0145	27
63.0221	75
65.0374	41
74.0144	95
75.0216	109
76.0292	82
77.0377	157
78.0337	136
78.0452	34
79.0404	691
80.0486	266
86.0135	34
87.0214	54
89.0372	88
98.0135	68
99.0216	116
100.0158	34
100.0304	41
101.0381	41
102.0453	82
105.0432	41
113.0374	82
114.0457	54
115.0527	198
123.0214	34
125.0371	157
126.0445	266
127.041	82
127.0524	123
128.0484	82
129.0424	34
137.0384	54
138.0472	34
139.0531	410
140.0486	68
140.0599	54
149.0376	136
150.0454	650
151.0525	691
152.0555	431
153.0443	34
153.0562	157
154.0646	41
161.0375	61
162.0097	34
162.0448	68
163.0531	403
164.061	225
165.0681	198
166.0635	164
167.0718	157
174.0441	54
175.0409	61
175.0538	41
176.0465	61
176.0598	88
177.0566	342
178.0636	184
179.0589	130
186.0446	34
187.0529	143
188.0478	102
189.0692	150
190.0636	47
198.0445	34
199.053	41
200.0608	177
201.0571	68
201.0688	82
202.0756	102
204.0535	34
211.0531	109
212.0464	27
212.0628	34
213.0683	246
214.0635	157
215.0815	75
216.0776	68
225.0557	47
226.0634	88
227.0735	177
228.0799	75
238.0645	102
239.0733	34
240.0803	177
241.0865	34
252.0741	27
253.0744	34
254.0848	47
255.0918	47
