Mass spectrum: Tolnaftate; LC-ESI-QTOF; MS2; 70 V
Name: Tolnaftate
Class: Fungicide; Pharmaceutical
Formula: C19H17NOS
Exact mass: 307.1031
SMILES: CC1=CC(=CC=C1)N(C)C(=S)OC2=CC3=CC=CC=C3C=C2
InChI: InChI=1S/C19H17NOS/c1-14-6-5-9-17(12-14)20(2)19(22)21-18-11-10-15-7-3-4-8-16(15)13-18/h3-13H,1-2H3
Instrument: TripleTOF 5600 SCIEX
Instrument type: LC-ESI-QTOF
Ms type: MS2
Ion mode: POSITIVE
Collision energy: 70
Fragmentation mode: CID
Ionization: ESI
Column name: Zorbax Eclipse Plus C18 2.1 mm x 150 mm, 3.5 um, Agilent
Retention time: 15.53 min
Precursor m/z: 308.1104
Precursor type: [M+H]+
m/z	relative intensity
44.979	32
65.0384	274
77.0382	91
79.0541	62
91.0542	999
92.0611	40
93.07	29
104.0503	17
105.0579	13
115.0546	22
117.0574	24
118.0634	11
120.0805	171
121.0101	9
123.0265	130
132.0453	11
133.0516	9
136.0189	13
148.0217	24
149.029	156
164.0537	31
