Mass spectrum: 2-Methylbenzimidazole; LC-ESI-QTOF; MS2; 140 V
Name: 2-Methylbenzimidazole
Formula: C8H8N2
Exact mass: 132.0687
SMILES: CC1=NC2=CC=CC=C2N1
InChI: InChI=1S/C8H8N2/c1-6-9-7-4-2-3-5-8(7)10-6/h2-5H,1H3,(H,9,10)
Instrument: TripleTOF 6600 SCIEX
Instrument type: LC-ESI-QTOF
Ms type: MS2
Ion mode: POSITIVE
Collision energy: 140
Fragmentation mode: CID
Ionization: ESI
Column name: Zorbax Eclipse Plus C18 2.1 mm x 150 mm, 3.5 um, Agilent
Retention time: 4.68 min
Precursor m/z: 133.076
Precursor type: [M+H]+
m/z	relative intensity
35.9992	478
37.0072	999
38.0021	156
38.0148	338
39.0226	99
49.0073	288
50.0147	107
51.0104	66
52.0189	49
59.999	140
61.0066	437
62.0149	165
63.0231	41
