Mass spectrum: Diflufenican; LC-ESI-QTOF; MS2; 90 V
Name: Diflufenican
Class: Herbicide
Formula: C19H11F5N2O2
Exact mass: 394.0741
SMILES: C1=CC(=CC(=C1)OC2=C(C=CC=N2)C(=O)NC3=C(C=C(C=C3)F)F)C(F)(F)F
InChI: InChI=1S/C19H11F5N2O2/c20-12-6-7-16(15(21)10-12)26-17(27)14-5-2-8-25-18(14)28-13-4-1-3-11(9-13)19(22,23)24/h1-10H,(H,26,27)
Instrument: TripleTOF 6600 SCIEX
Instrument type: LC-ESI-QTOF
Ms type: MS2
Ion mode: POSITIVE
Collision energy: 90
Fragmentation mode: CID
Ionization: ESI
Column name: Zorbax Eclipse Plus C18 2.1 mm x 150 mm, 3.5 um, Agilent
Retention time: 14.853 min
Precursor m/z: 395.0814
Precursor type: [M+H]+
m/z	relative intensity
39.024	94
51.0237	86
57.0142	43
63.023	86
66.0342	68
68.9955	34
74.0145	60
75.0044	77
75.0229	241
78.0339	258
83.0308	60
88.0304	103
94.0282	34
95.0295	284
99.0046	43
99.0229	43
101.0197	68
101.0377	51
107.0284	60
113.0211	60
113.0389	284
114.0331	86
114.046	439
115.0536	60
122.0161	77
123.0236	370
124.0184	129
125.0195	223
125.0386	68
126.0465	34
127.0385	43
128.0328	34
129.035	111
131.029	206
132.0243	94
133.0447	628
134.0416	51
138.0331	155
139.0226	68
140.0493	999
141.0238	68
141.0571	292
142.0406	68
143.0293	568
144.0244	51
144.0382	51
145.026	904
145.0443	51
146.0409	51
148.0206	94
149.0175	43
150.0333	249
151.0372	163
152.0307	34
152.0494	51
157.0303	68
158.0402	335
159.0436	51
162.0293	94
163.0344	370
164.0306	60
164.0424	120
165.0381	77
168.0247	34
168.0442	206
169.0333	43
169.052	430
170.0399	249
171.0471	68
172.0318	68
172.057	60
173.0369	43
175.0341	68
176.0315	129
177.0391	51
178.0393	43
182.0339	378
183.0404	327
184.0399	111
186.0569	43
188.0315	77
189.0379	223
190.0464	404
191.0391	189
198.0343	172
204.048	94
209.0453	43
210.0499	51
218.041	611
238.05	60
246.0347	60
