Mass spectrum: Etrimfos; LC-ESI-QTOF; MS2; 150 V
Name: Etrimfos
Class: Insecticide
Formula: C10H17N2O4PS
Exact mass: 292.0647
SMILES: CCC1=NC(=CC(=N1)OP(=S)(OC)OC)OCC
InChI: InChI=1S/C10H17N2O4PS/c1-5-8-11-9(15-6-2)7-10(12-8)16-17(18,13-3)14-4/h7H,5-6H2,1-4H3
Instrument: TripleTOF 6600 SCIEX
Instrument type: LC-ESI-QTOF
Ms type: MS2
Ion mode: POSITIVE
Collision energy: 150
Fragmentation mode: CID
Ionization: ESI
Column name: Zorbax Eclipse Plus C18 2.1 mm x 150 mm, 3.5 um, Agilent
Retention time: 14.241 min
Precursor m/z: 293.072
Precursor type: [M+H]+
m/z	relative intensity
31.971	16
38.0023	21
40.0175	84
41.0015	13
41.0253	21
42.0331	10
43.971	55
44.979	999
45.9755	19
45.9861	52
46.9681	518
46.9851	26
46.9931	36
56.9778	18
62.9441	130
68.0118	31
68.9965	17
