Mass spectrum: Flumequin; LC-ESI-QTOF; MS2; 120 V
Name: Flumequin
Class: Pharmaceutical; Antimicrobial
Formula: C14H12FNO3
Exact mass: 261.0801
SMILES: CC1CCc2cc(F)cc3C(=O)C(=CN1c23)C(O)=O
InChI: InChI=1S/C14H12FNO3/c1-7-2-3-8-4-9(15)5-10-12(8)16(7)6-11(13(10)17)14(18)19/h4-7H,2-3H2,1H3,(H,18,19)
Instrument: TripleTOF 5600 SCIEX
Instrument type: LC-ESI-QTOF
Ms type: MS2
Ion mode: POSITIVE
Collision energy: 120
Fragmentation mode: CID
Ionization: ESI
Column name: Zorbax Eclipse Plus C18 2.1 mm x 150 mm, 3.5 um, Agilent
Retention time: 9.545 min
Precursor m/z: 262.0874
Precursor type: [M+H]+
m/z	relative intensity
51.0284	19
53.0073	61
57.0205	25
70.0253	25
73.0116	100
74.0185	355
75.0123	25
75.0259	203
76.0203	32
81.0158	38
85.0095	19
87.0242	19
92.0075	25
93.0143	84
94.0215	25
95.0303	29
97.0084	64
98.0161	999
99.0109	168
99.0222	349
100.0193	219
100.0396	16
105.0127	22
107.0278	22
118.022	25
120.0361	16
123.0261	12
125.0405	16
131.0322	16
133.0448	16
