Mass spectrum: Disperse brown 1; LC-ESI-QTOF; MS2; 100 V
Name: Disperse brown 1
Formula: C16H15Cl3N4O4
Exact mass: 432.0159
SMILES: C1=CC(=C(C=C1N(CCO)CCO)Cl)N=NC2=C(C=C(C=C2Cl)[N+](=O)[O-])Cl
InChI: InChI=1S/C16H15Cl3N4O4/c17-12-7-10(22(3-5-24)4-6-25)1-2-15(12)20-21-16-13(18)8-11(23(26)27)9-14(16)19/h1-2,7-9,24-25H,3-6H2
Instrument: TripleTOF 6600 SCIEX
Instrument type: LC-ESI-QTOF
Ms type: MS2
Ion mode: POSITIVE
Collision energy: 100
Fragmentation mode: CID
Ionization: ESI
Column name: Zorbax Eclipse Plus C18 2.1 mm x 150 mm, 3.5 um, Agilent
Retention time: 12.39 min
Precursor m/z: 433.0232
Precursor type: [M+H]+
m/z	relative intensity
45.0333	69
63.0233	89
65.038	49
72.9842	49
74.0147	178
75.0088	59
75.0229	79
76.0186	118
77.0373	276
78.0345	108
83.9758	79
89.0389	79
90.033	286
91.0531	118
92.0505	128
96.9834	89
98.9995	69
102.0331	79
103.0307	49
104.0502	356
105.054	49
106.0654	39
107.9759	187
108.9836	999
110.9996	69
112.0038	59
114.0122	59
116.0474	79
117.0557	217
118.0513	69
118.064	178
119.0598	39
123.9949	178
125.0034	79
126.0118	69
130.0651	79
131.061	79
132.0698	49
139.0074	128
139.0176	59
142.9467	158
143.9526	346
150.0471	89
153.0199	118
184.0101	59
213.0231	59
