Mass spectrum: Dehydroepiandrosterone; LC-ESI-QTOF; MS2; 40 V
Name: Dehydroepiandrosterone
Class: Pharmaceutical
Formula: C19H28O2
Exact mass: 288.2089
SMILES: C[C@]12CC[C@H]3[C@@H](CC=C4C[C@@H](O)CC[C@]34C)[C@@H]1CCC2=O
InChI: InChI=1S/C19H28O2/c1-18-9-7-13(20)11-12(18)3-4-14-15-5-6-17(21)19(15,2)10-8-16(14)18/h3,13-16,20H,4-11H2,1-2H3/t13-,14-,15-,16-,18-,19-/m0/s1
Instrument: TripleTOF 5600 SCIEX
Instrument type: LC-ESI-QTOF
Ms type: MS2
Ion mode: POSITIVE
Collision energy: 40
Fragmentation mode: CID
Ionization: ESI
Column name: Zorbax Eclipse Plus C18 2.1 mm x 150 mm, 3.5 um, Agilent
Retention time: 11.589 min
Precursor m/z: 289.2162
Precursor type: [M+H]+
m/z	relative intensity
67.0569	119
77.0408	99
79.0557	119
81.0719	239
91.0554	459
93.0697	139
97.0661	159
105.0707	499
107.0867	79
117.0706	259
119.0838	179
121.1001	119
128.0613	159
129.0689	319
131.0834	299
133.0998	319
135.1147	119
141.0685	179
142.0766	119
143.0856	279
145.0989	359
147.1161	239
153.0687	159
155.0847	159
156.0919	79
157.1003	519
159.1156	219
167.0838	179
168.0926	139
169.0998	239
171.1162	379
173.132	139
173.1474	99
182.1063	99
183.1147	279
184.128	79
185.1327	199
197.1311	559
198.1397	119
211.1468	259
213.1617	999
225.1678	199
231.172	159
253.1925	439
271.2048	99
