Mass spectrum: Proadifen; LC-ESI-QTOF; MS2; 150 V
Name: Proadifen
Formula: C23H31NO2
Exact mass: 353.2355
SMILES: CCCC(C1=CC=CC=C1)(C2=CC=CC=C2)C(=O)OCCN(CC)CC
InChI: InChI=1S/C23H31NO2/c1-4-17-23(20-13-9-7-10-14-20,21-15-11-8-12-16-21)22(25)26-19-18-24(5-2)6-3/h7-16H,4-6,17-19H2,1-3H3
Instrument: TripleTOF 6600 SCIEX
Instrument type: LC-ESI-QTOF
Ms type: MS2
Ion mode: POSITIVE
Collision energy: 150
Fragmentation mode: CID
Ionization: ESI
Column name: Zorbax Eclipse Plus C18 2.1 mm x 150 mm, 3.5 um, Agilent
Retention time: 9.831 min
Precursor m/z: 354.2428
Precursor type: [M+H]+
m/z	relative intensity
35.9981	29
37.0062	166
38.0014	10
38.0136	125
39.0219	804
41.0373	79
42.0324	20
44.048	46
49.0062	30
50.0139	264
51.0218	720
52.0287	12
59.9976	22
61.0052	89
62.0134	177
63.0216	352
65.0372	800
73.0058	23
74.0135	155
75.0208	68
76.0288	100
77.0371	627
78.0443	68
79.0521	23
85.0053	35
86.0134	79
87.0209	110
88.0293	13
89.037	382
91.0523	253
98.0135	75
99.0217	43
100.0286	20
101.0365	12
102.0446	180
103.0537	21
105.0441	13
110.0136	18
111.0207	16
113.0367	97
114.0444	19
115.0528	670
125.0361	42
126.0459	233
127.0522	57
128.0603	80
137.0367	48
138.0458	39
139.0525	429
149.0366	26
150.0445	296
151.0529	308
152.0598	164
161.0356	41
162.0458	119
163.0529	999
164.0606	468
165.0686	564
176.0618	51
178.076	13
179.0614	13
