Mass spectrum: Methyl-N-(3-amino-2-methylphenyl)carbamate; LC-ESI-QTOF; MS2; 70 V
Name: Methyl-N-(3-amino-2-methylphenyl)carbamate
Formula: C9H12N2O2
Exact mass: 180.0899
SMILES: COC(=O)NC1=CC=CC(=C1C)N
InChI: InChI=1S/C9H12N2O2/c1-6-7(10)4-3-5-8(6)11-9(12)13-2/h3-5H,10H2,1-2H3,(H,11,12)
Instrument: TripleTOF 5600 SCIEX
Instrument type: LC-ESI-QTOF
Ms type: MS2
Ion mode: POSITIVE
Collision energy: 70
Fragmentation mode: CID
Ionization: ESI
Column name: Zorbax Eclipse Plus C18 2.1 mm x 150 mm, 3.5 um, Agilent
Retention time: 4.424 min
Precursor m/z: 181.0972
Precursor type: [M+H]+
m/z	relative intensity
50.0256	83
63.0315	29
65.0448	58
66.0524	53
67.0485	34
77.0441	999
78.0395	102
78.0527	29
79.0475	166
80.0531	73
92.0529	39
93.0604	48
94.0663	58
104.0508	44
105.0481	176
106.0643	190
107.074	24
121.0773	29
