Mass spectrum: 6-Acetylcodeine; LC-ESI-QTOF; MS2; 70 V
Name: 6-Acetylcodeine
Class: Pharmaceutical; Transformation_product
Formula: C20H23NO4
Exact mass: 341.1627
SMILES: CC(=O)OC1C=CC2C3CC4=C5C2(C1OC5=C(C=C4)OC)CCN3C
InChI: InChI=1S/C20H23NO4/c1-11(22)24-16-7-5-13-14-10-12-4-6-15(23-3)18-17(12)20(13,19(16)25-18)8-9-21(14)2/h4-7,13-14,16,19H,8-10H2,1-3H3
Instrument: TripleTOF 5600 SCIEX
Instrument type: LC-ESI-QTOF
Ms type: MS2
Ion mode: POSITIVE
Collision energy: 70
Fragmentation mode: CID
Ionization: ESI
Column name: Zorbax Eclipse Plus C18 2.1 mm x 150 mm, 3.5 um, Agilent
Retention time: 6.207 min
Precursor m/z: 342.17
Precursor type: [M+H]+
m/z	relative intensity
43.0268	89
43.0494	10
44.0569	35
58.0706	38
77.0414	41
91.0552	33
103.0544	26
115.0544	147
116.0619	17
117.0663	14
118.04	12
121.0633	10
127.0537	66
128.0613	177
129.0696	73
131.0492	33
137.0592	21
139.053	38
140.0631	14
141.0694	145
142.0763	16
143.0485	16
144.0562	61
145.0644	11
146.0357	13
146.0682	10
151.0536	90
152.062	586
153.0694	526
154.0769	151
155.0491	40
155.0851	70
156.0561	50
157.0633	38
158.0723	29
159.0431	12
159.0777	11
160.0499	11
161.059	42
163.0543	21
164.0619	98
165.0698	999
166.0763	308
167.0843	71
168.0563	122
169.0636	78
170.0356	12
170.0719	21
171.0431	22
171.0796	83
172.0518	19
172.0866	17
175.0729	15
176.0616	74
177.0688	48
178.0774	195
179.0523	12
179.0843	68
180.0565	115
181.0641	483
182.0722	202
182.0928	12
183.0427	78
183.0785	31
184.051	46
184.081	10
185.059	56
186.067	14
187.0752	12
189.069	127
190.077	68
191.0839	64
192.0555	21
193.0647	94
194.072	105
195.0798	57
196.0518	14
197.0592	83
197.0937	26
198.0653	49
199.0739	54
200.0655	19
201.0704	28
202.0772	37
204.0784	10
205.0641	75
206.071	12
206.0966	12
207.0445	15
207.0782	51
208.0515	57
208.0851	10
209.0595	77
209.0953	12
210.0661	117
211.0753	24
213.0558	10
213.0889	10
218.0707	34
218.0961	10
219.0798	40
219.105	13
220.083	14
220.111	42
221.0582	83
222.0678	14
223.0752	67
225.09	22
234.0897	20
235.074	32
236.0761	12
237.0857	10
248.1072	16
250.0874	10
266.1163	15
