Mass spectrum: Prosulfocarb; LC-ESI-QTOF; MS2; 100 V
Name: Prosulfocarb
Class: Herbicide
Formula: C14H21NOS
Exact mass: 251.1344
SMILES: CCCN(CCC)C(=O)SCC1=CC=CC=C1
InChI: InChI=1S/C14H21NOS/c1-3-10-15(11-4-2)14(16)17-12-13-8-6-5-7-9-13/h5-9H,3-4,10-12H2,1-2H3
Instrument: TripleTOF 6600 SCIEX
Instrument type: LC-ESI-QTOF
Ms type: MS2
Ion mode: POSITIVE
Collision energy: 100
Fragmentation mode: CID
Ionization: ESI
Column name: Zorbax Eclipse Plus C18 2.1 mm x 150 mm, 3.5 um, Agilent
Retention time: 15.467 min
Precursor m/z: 252.1417
Precursor type: [M+H]+
m/z	relative intensity
35.9995	15
37.0074	96
38.0149	85
39.0233	602
41.0386	67
49.007	20
50.015	99
51.0228	131
61.0069	33
62.0151	106
63.0229	200
65.0387	999
89.0378	11
91.0541	253
