Mass spectrum: Deethylatrazine; LC-ESI-QTOF; MS2; 30 V
Name: Deethylatrazine
Class: Transformation_product; Herbicide; Metabolite
Formula: C6H10ClN5
Exact mass: 187.0625
SMILES: CC(C)NC1=NC(=NC(=N1)N)Cl
InChI: InChI=1S/C6H10ClN5/c1-3(2)9-6-11-4(7)10-5(8)12-6/h3H,1-2H3,(H3,8,9,10,11,12)
Instrument: TripleTOF 6600 SCIEX
Instrument type: LC-ESI-QTOF
Ms type: MS2
Ion mode: POSITIVE
Collision energy: 30
Fragmentation mode: CID
Ionization: ESI
Column name: Zorbax Eclipse Plus C18 2.1 mm x 150 mm, 3.5 um, Agilent
Retention time: 6.911 min
Precursor m/z: 188.0698
Precursor type: [M+H]+
m/z	relative intensity
41.0388	17
43.0294	77
43.0541	27
61.979	14
68.0245	158
79.0057	315
104.0011	378
110.0462	181
146.0231	999
188.0692	63
