Mass spectrum: 9-Methylxanthine; LC-ESI-QTOF; MS2; 40 V
Name: 9-Methylxanthine
Class: Metabolite; Pharmaceutical
Formula: C6H6N4O2
Exact mass: 166.0491
SMILES: CN1C=NC2=C1NC(=O)NC2=O
InChI: InChI=1S/C6H6N4O2/c1-10-2-7-3-4(10)8-6(12)9-5(3)11/h2H,1H3,(H2,8,9,11,12)
Instrument: TripleTOF 5600 SCIEX
Instrument type: LC-ESI-QTOF
Ms type: CID
Ion mode: POSITIVE
Collision energy: 40
Ionization: ESI
Column name: Zorbax Eclipse Plus C18 2.1 mm x 150 mm, 3.5 um, Agilent
Retention time: 2.378 min
Precursor m/z: 167.0564
Precursor type: [M+H]+
m/z	relative intensity
42.0348	222
53.0138	111
55.0295	111
60.9856	111
70.028	0
81.0065	222
81.0114	0
97.0416	222
124.0488	999
150.0301	888
