Mass spectrum: 2-Methylbenzimidazole; LC-ESI-QTOF; MS2; 110 V
Name: 2-Methylbenzimidazole
Formula: C8H8N2
Exact mass: 132.0687
SMILES: CC1=NC2=CC=CC=C2N1
InChI: InChI=1S/C8H8N2/c1-6-9-7-4-2-3-5-8(7)10-6/h2-5H,1H3,(H,9,10)
Instrument: TripleTOF 6600 SCIEX
Instrument type: LC-ESI-QTOF
Ms type: MS2
Ion mode: POSITIVE
Collision energy: 110
Fragmentation mode: CID
Ionization: ESI
Column name: Zorbax Eclipse Plus C18 2.1 mm x 150 mm, 3.5 um, Agilent
Retention time: 4.68 min
Precursor m/z: 133.076
Precursor type: [M+H]+
m/z	relative intensity
35.999	263
37.007	999
38.0031	63
38.0149	663
39.0228	442
40.0178	21
42.034	34
49.0069	131
50.015	221
51.0096	42
51.023	38
52.0178	110
59.9991	42
61.0067	233
62.0145	293
63.0221	174
73.0067	21
74.0141	38
75.0096	21
76.0183	21
