Mass spectrum: Pantoprazole sulfide; LC-ESI-QTOF; MS2; 60 V
Name: Pantoprazole sulfide
Class: Pharmaceutical; Metabolite
Formula: C16H15F2N3O3S
Exact mass: 367.0802
SMILES: COC1=C(C(=NC=C1)CSC2=NC3=C(N2)C=CC(=C3)OC(F)F)OC
InChI: InChI=1S/C16H15F2N3O3S/c1-22-13-5-6-19-12(14(13)23-2)8-25-16-20-10-4-3-9(24-15(17)18)7-11(10)21-16/h3-7,15H,8H2,1-2H3,(H,20,21)
Instrument: TripleTOF 5600 SCIEX
Instrument type: LC-ESI-QTOF
Ms type: MS2
Ion mode: POSITIVE
Collision energy: 60
Fragmentation mode: CID
Ionization: ESI
Column name: Zorbax Eclipse Plus C18 2.1 mm x 150 mm, 3.5 um, Agilent
Retention time: 7.575 min
Precursor m/z: 368.0875
Precursor type: [M+H]+
m/z	relative intensity
51.0294	20
65.0433	312
92.0516	999
94.0659	19
107.0365	19
110.0594	24
122.0589	77
123.0145	16
123.0672	10
135.0548	31
136.0386	66
137.0452	33
138.0542	117
150.0543	25
151.0079	75
152.0692	30
154.0318	70
169.0174	15
184.0423	76
185.0517	46
