Mass spectrum: Tebuconazole; LC-ESI-QTOF; MS2; 110 V
Name: Tebuconazole
Class: Fungicide
Formula: C16H22ClN3O
Exact mass: 307.1451
SMILES: CC(C)(C)C(O)(CCc1ccc(Cl)cc1)Cn2cncn2
InChI: InChI=1S/C16H22ClN3O/c1-15(2,3)16(21,10-20-12-18-11-19-20)9-8-13-4-6-14(17)7-5-13/h4-7,11-12,21H,8-10H2,1-3H3
Instrument: TripleTOF 5600 SCIEX
Instrument type: LC-ESI-QTOF
Ms type: MS2
Ion mode: POSITIVE
Collision energy: 110
Fragmentation mode: CID
Ionization: ESI
Column name: Zorbax Eclipse Plus C18 2.1 mm x 150 mm, 3.5 um, Agilent
Retention time: 12.72 min
Precursor m/z: 308.1524
Precursor type: [M+H]+
m/z	relative intensity
43.0397	159
57.0749	18
59.0548	34
64.0349	10
65.0433	31
70.046	999
72.9882	100
75.0262	12
77.0422	65
82.0421	24
89.0421	428
90.0487	109
99.0014	187
102.0469	13
103.0552	12
115.0556	266
116.0629	30
125.016	169
127.0541	13
128.0621	38
129.0693	10
