Mass spectrum: Iprovalicarb; LC-ESI-QTOF; MS2; 100 V
Name: Iprovalicarb
Class: Fungicide
Formula: C18H28N2O3
Exact mass: 320.21
SMILES: CC1=CC=C(C=C1)C(C)NC(=O)C(C(C)C)NC(=O)OC(C)C
InChI: InChI=1S/C18H28N2O3/c1-11(2)16(20-18(22)23-12(3)4)17(21)19-14(6)15-9-7-13(5)8-10-15/h7-12,14,16H,1-6H3,(H,19,21)(H,20,22)
Instrument: TripleTOF 6600 SCIEX
Instrument type: LC-ESI-QTOF
Ms type: MS2
Ion mode: POSITIVE
Collision energy: 100
Fragmentation mode: CID
Ionization: ESI
Column name: Zorbax Eclipse Plus C18 2.1 mm x 150 mm, 3.5 um, Agilent
Retention time: 11.936 min
Precursor m/z: 321.2173
Precursor type: [M+H]+
m/z	relative intensity
38.0155	11
39.0234	89
41.039	38
42.034	11
49.0069	14
50.0155	63
51.0231	228
55.0545	63
56.0493	14
57.0574	28
62.0155	18
63.0232	53
65.0388	570
72.0809	17
75.0233	12
77.0388	921
78.0464	257
79.0545	38
89.039	18
91.0545	999
93.0701	24
102.0465	51
103.0543	318
104.062	164
105.0449	34
115.0542	231
116.0636	15
117.0698	100
119.0855	31
