Mass spectrum: Triphenylphosphine oxide; LC-ESI-QTOF; MS2; 110 V
Name: Triphenylphosphine oxide
Class: Industrial_process
Formula: C18H15OP
Exact mass: 278.0861
SMILES: O=[P](c1ccccc1)(c2ccccc2)c3ccccc3
InChI: InChI=1S/C18H15OP/c19-20(16-10-4-1-5-11-16,17-12-6-2-7-13-17)18-14-8-3-9-15-18/h1-15H
Instrument: TripleTOF 5600 SCIEX
Instrument type: LC-ESI-QTOF
Ms type: MS2
Ion mode: POSITIVE
Collision energy: 110
Fragmentation mode: CID
Ionization: ESI
Column name: Zorbax Eclipse Plus C18 2.1 mm x 150 mm, 3.5 um, Agilent
Retention time: 10.458 min
Precursor m/z: 279.0933
Precursor type: [M+H]+
m/z	relative intensity
51.0308	999
65.0433	20
67.9842	67
68.9933	146
74.0195	41
75.0251	23
76.0326	27
77.0421	435
78.0475	35
79.9838	14
80.9916	31
89.0393	60
91.9825	16
95.0056	23
101.038	14
102.0462	75
103.9821	12
107.0051	121
113.0379	14
115.0538	90
126.0458	104
127.0549	92
128.0626	77
131.0067	23
133.024	18
139.0545	56
144.01	25
150.0473	67
151.0558	134
152.062	312
153.0757	12
155.005	14
156.0134	12
157.0213	54
168.0128	18
169.0208	18
170.0292	39
180.0109	12
181.0211	43
183.0413	10
