Mass spectrum: Fluroxypyr; LC-ESI-QTOF; MS2; 30 V
Name: Fluroxypyr
Class: Herbicide
Formula: C7H5Cl2FN2O3
Exact mass: 253.9661
SMILES: C(C(=O)O)OC1=NC(=C(C(=C1Cl)N)Cl)F
InChI: InChI=1S/C7H5Cl2FN2O3/c8-3-5(11)4(9)7(12-6(3)10)15-1-2(13)14/h1H2,(H2,11,12)(H,13,14)
Instrument: TripleTOF 6600 SCIEX
Instrument type: LC-ESI-QTOF
Ms type: MS2
Ion mode: POSITIVE
Collision energy: 30
Fragmentation mode: CID
Ionization: ESI
Column name: Zorbax Eclipse Plus C18 2.1 mm x 150 mm, 3.5 um, Agilent
Retention time: 8.859 min
Precursor m/z: 254.9734
Precursor type: [M+H]+
m/z	relative intensity
133.9548	18
144.9954	83
146.0031	32
151.9442	19
160.9655	116
178.9565	131
180.9723	999
196.9689	68
200.9255	16
208.9674	385
