Mass spectrum: Fluroxypyr; LC-ESI-QTOF; MS2; 50 V
Name: Fluroxypyr
Class: Herbicide
Formula: C7H5Cl2FN2O3
Exact mass: 253.9661
SMILES: C(C(=O)O)OC1=NC(=C(C(=C1Cl)N)Cl)F
InChI: InChI=1S/C7H5Cl2FN2O3/c8-3-5(11)4(9)7(12-6(3)10)15-1-2(13)14/h1H2,(H2,11,12)(H,13,14)
Instrument: TripleTOF 6600 SCIEX
Instrument type: LC-ESI-QTOF
Ms type: MS2
Ion mode: POSITIVE
Collision energy: 50
Fragmentation mode: CID
Ionization: ESI
Column name: Zorbax Eclipse Plus C18 2.1 mm x 150 mm, 3.5 um, Agilent
Retention time: 8.859 min
Precursor m/z: 254.9734
Precursor type: [M+H]+
m/z	relative intensity
48.9833	45
62.9631	82
66.974	152
72.984	37
73.9784	37
82.0077	28
82.9438	132
84.0247	24
85.979	33
90.9737	631
91.0247	16
93.9841	53
97.978	61
98.9868	66
99.995	45
100.9352	24
105.984	20
106.9446	309
109.0177	37
109.9786	28
110.0265	99
111.035	185
112.9893	61
115.9698	57
116.9775	20
117.9844	454
118.9921	86
120.9517	33
121.9549	49
124.9344	557
124.9897	189
125.9962	181
126.9509	33
129.9827	28
131.9391	57
132.9938	33
133.9549	850
142.9789	136
143.9875	524
144.9948	751
146.0035	784
151.9457	999
152.9531	49
153.9601	16
160.9656	573
163.009	24
165.9573	20
175.9535	20
178.9577	850
180.9721	536
182.9192	37
196.9659	140
200.9239	33
210.9258	20
