Mass spectrum: Clothianidin; LC-ESI-QTOF; MS2; 50 V
Name: Clothianidin
Class: Insecticide
Formula: C6H8ClN5O2S
Exact mass: 249.0087
SMILES: CN=C(NCc1sc(Cl)nc1)N[N+]([O-])=O
InChI: InChI=1S/C6H8ClN5O2S/c1-8-6(11-12(13)14)10-3-4-2-9-5(7)15-4/h2H,3H2,1H3,(H2,8,10,11)
Instrument: TripleTOF 5600 SCIEX
Instrument type: LC-ESI-QTOF
Ms type: MS2
Ion mode: POSITIVE
Collision energy: 50
Fragmentation mode: CID
Ionization: ESI
Column name: Zorbax Eclipse Plus C18 2.1 mm x 150 mm, 3.5 um, Agilent
Retention time: 6.736 min
Precursor m/z: 250.016
Precursor type: [M+H]+
m/z	relative intensity
54.0413	63
57.0503	63
69.0467	39
69.0586	39
70.9989	182
71.0096	31
83.0647	39
83.9923	31
86.0072	237
87.9969	31
96.0543	111
96.0638	63
108.0562	39
110.0699	618
111.0786	372
113.0158	927
118.959	55
119.9657	55
127.024	31
131.9659	999
132.9746	111
142.0416	39
146.9762	47
153.0218	63
169.0554	95
174.9695	31
