Mass spectrum: Tebuconazole; LC-ESI-QTOF; MS2; 50 V
Name: Tebuconazole
Class: Fungicide
Formula: C16H22ClN3O
Exact mass: 307.1451
SMILES: CC(C)(C)C(O)(CCc1ccc(Cl)cc1)Cn2cncn2
InChI: InChI=1S/C16H22ClN3O/c1-15(2,3)16(21,10-20-12-18-11-19-20)9-8-13-4-6-14(17)7-5-13/h4-7,11-12,21H,8-10H2,1-3H3
Instrument: TripleTOF 5600 SCIEX
Instrument type: LC-ESI-QTOF
Ms type: MS2
Ion mode: POSITIVE
Collision energy: 50
Fragmentation mode: CID
Ionization: ESI
Column name: Zorbax Eclipse Plus C18 2.1 mm x 150 mm, 3.5 um, Agilent
Retention time: 12.72 min
Precursor m/z: 308.1524
Precursor type: [M+H]+
m/z	relative intensity
43.0378	50
55.0602	28
57.0758	48
59.0551	79
69.0737	9
70.0456	865
83.0874	18
89.0406	52
90.0472	10
98.9995	26
103.0542	37
115.0547	198
116.0625	255
125.0158	999
128.0616	11
129.0691	45
130.0773	56
139.0299	49
144.0923	13
151.0305	149
165.0458	25
