Mass spectrum: 2-Hydroxy-n-methyl-n-phenylpropanamide; LC-ESI-QTOF; MS2; 60 V
Name: 2-Hydroxy-n-methyl-n-phenylpropanamide
Formula: C10H13NO2
Exact mass: 179.0946
SMILES: CC(C(=O)N(C)C1=CC=CC=C1)O
InChI: InChI=1S/C10H13NO2/c1-8(12)10(13)11(2)9-6-4-3-5-7-9/h3-8,12H,1-2H3
Instrument: TripleTOF 5600 SCIEX
Instrument type: LC-ESI-QTOF
Ms type: MS2
Ion mode: POSITIVE
Collision energy: 60
Fragmentation mode: CID
Ionization: ESI
Column name: Zorbax Eclipse Plus C18 2.1 mm x 150 mm, 3.5 um, Agilent
Retention time: 6.763 min
Precursor m/z: 180.1019
Precursor type: [M+H]+
m/z	relative intensity
39.0226	18
42.0338	14
45.0333	32
50.0151	55
51.0226	297
53.0385	12
56.0491	45
65.0384	99
66.0464	66
77.0383	999
78.0461	54
79.0539	91
89.0387	14
90.0464	10
91.0543	336
92.0486	23
92.0612	10
93.0573	210
102.0442	14
103.0543	62
104.0488	208
105.0695	23
106.0643	185
107.0726	21
115.0531	10
117.0573	90
118.0651	309
119.0729	55
132.0806	39
