Mass spectrum: Dihydroxycarbazepine; LC-ESI-QTOF; MS2; 140 V
Name: Dihydroxycarbazepine
Class: Pharmaceutical; Metabolite
Formula: C15H14N2O3
Exact mass: 270.1004
SMILES: NC(=O)N1c2ccccc2C(O)C(O)c3ccccc13
InChI: InChI=1S/C15H14N2O3/c16-15(20)17-11-7-3-1-5-9(11)13(18)14(19)10-6-2-4-8-12(10)17/h1-8,13-14,18-19H,(H2,16,20)
Instrument: TripleTOF 5600 SCIEX
Instrument type: LC-ESI-QTOF
Ms type: MS2
Ion mode: POSITIVE
Collision energy: 140
Fragmentation mode: CID
Ionization: ESI
Column name: Zorbax Eclipse Plus C18 2.1 mm x 150 mm, 3.5 um, Agilent
Retention time: 6.663 min
Precursor m/z: 271.1077
Precursor type: [M+H]+
m/z	relative intensity
51.029	393
65.0412	45
73.0085	45
74.0178	741
75.025	688
76.0315	249
77.0405	507
77.0721	30
78.047	45
85.0079	52
86.0153	158
87.024	211
88.0313	60
89.0397	257
98.0153	378
99.0225	211
100.0169	30
100.0307	90
101.0375	166
102.0459	227
110.0142	75
111.0213	90
113.0376	234
114.0336	52
115.0526	45
122.0142	60
123.022	52
125.038	227
126.0456	446
127.052	128
128.0538	75
129.0528	52
137.0377	68
138.0444	45
139.0531	128
140.0494	128
149.037	121
150.0451	999
151.0523	718
152.0609	408
153.0572	60
161.0359	60
162.045	83
163.0539	181
164.0473	45
165.0566	37
175.0414	52
176.0463	113
177.0552	242
178.0634	219
179.071	45
188.0475	37
189.056	30
