Mass spectrum: Tadalafil; LC-ESI-QTOF; MS2; 140 V
Name: Tadalafil
Class: Pharmaceutical; Personal_care_product
Formula: C22H19N3O4
Exact mass: 389.1376
SMILES: CN1CC(=O)N2C(C1=O)CC3=C(C2C4=CC5=C(C=C4)OCO5)NC6=CC=CC=C36
InChI: InChI=1S/C22H19N3O4/c1-24-10-19(26)25-16(22(24)27)9-14-13-4-2-3-5-15(13)23-20(14)21(25)12-6-7-17-18(8-12)29-11-28-17/h2-8,16,21,23H,9-11H2,1H3
Instrument: TripleTOF 5600 SCIEX
Instrument type: LC-ESI-QTOF
Ms type: MS2
Ion mode: POSITIVE
Collision energy: 140
Fragmentation mode: CID
Ionization: ESI
Column name: Zorbax Eclipse Plus C18 2.1 mm x 150 mm, 3.5 um, Agilent
Retention time: 9.801 min
Precursor m/z: 390.1448
Precursor type: [M+H]+
m/z	relative intensity
50.0145	63
51.0226	201
63.0237	63
65.0377	63
74.0144	63
75.0229	85
77.0388	382
87.0252	53
89.0387	244
98.0151	42
99.0216	53
101.0405	63
102.0474	42
113.0397	95
114.0469	85
115.0541	510
116.0516	42
125.0384	85
126.046	85
127.0558	74
128.0516	116
130.0638	53
139.0535	106
140.0495	191
141.0606	85
149.0396	201
150.0468	573
151.0542	648
152.0589	255
153.0562	85
162.0385	53
163.0542	329
164.053	95
166.0639	42
174.0436	138
175.0548	414
176.0615	999
177.0572	435
178.0655	95
187.0537	201
188.0495	127
189.0622	63
190.0652	106
191.0684	53
201.0565	499
202.065	680
203.0747	775
204.0826	371
214.0622	95
215.0743	42
