Mass spectrum: Nilotinib; LC-ESI-QTOF; MS2; 130 V
Name: Nilotinib
Class: Pharmaceutical
Formula: C28H22F3N7O
Exact mass: 529.1838
SMILES: Cc1cn(cn1)c2cc(NC(=O)c3ccc(C)c(Nc4nccc(n4)c5cccnc5)c3)cc(c2)C(F)(F)F
InChI: InChI=1S/C28H22F3N7O/c1-17-5-6-19(10-25(17)37-27-33-9-7-24(36-27)20-4-3-8-32-14-20)26(39)35-22-11-21(28(29,30)31)12-23(13-22)38-15-18(2)34-16-38/h3-16H,1-2H3,(H,35,39)(H,33,36,37)
Instrument: TripleTOF 5600 SCIEX
Instrument type: LC-ESI-QTOF
Ms type: MS2
Ion mode: POSITIVE
Collision energy: 130
Fragmentation mode: CID
Ionization: ESI
Column name: Zorbax Eclipse Plus C18 2.1 mm x 150 mm, 3.5 um, Agilent
Retention time: 8.404 min
Precursor m/z: 530.1911
Precursor type: [M+H]+
m/z	relative intensity
77.0409	127
78.0369	85
79.0443	21
89.0411	90
90.0467	21
91.0564	42
101.0422	26
102.0358	63
103.0402	21
103.0516	26
104.0499	154
104.0683	26
105.0452	26
113.0376	26
114.035	42
115.041	53
116.0345	26
116.0467	42
117.0559	31
118.0633	31
126.0278	31
128.0515	42
129.045	159
130.0386	26
130.0539	47
131.0599	106
139.0307	37
140.0271	21
140.0485	47
142.0535	63
143.0596	31
145.0264	26
145.0763	21
151.037	31
151.0579	21
153.0401	53
155.0583	63
156.0548	90
164.0487	31
165.0462	37
166.0461	26
170.0742	21
179.0666	37
182.0709	21
190.0549	42
191.0603	106
192.0655	58
193.0598	90
194.0732	53
195.0772	42
203.0668	26
204.0583	37
205.074	31
206.0683	26
208.087	31
216.053	26
217.0616	90
218.0723	132
219.0769	90
220.0893	69
230.0681	63
231.0811	69
232.0878	122
233.0944	47
234.1044	21
243.0665	69
243.0805	26
244.074	999
245.0821	329
246.0892	53
256.0782	53
257.083	563
258.0906	356
259.098	860
