Mass spectrum: Beclomethasone; LC-ESI-QTOF; MS2; 20 V
Name: Beclomethasone
Class: Pharmaceutical
Formula: C22H29ClO5
Exact mass: 408.1704
SMILES: CC1CC2C3CCC4=CC(=O)C=CC4(C3(C(CC2(C1(C(=O)CO)O)C)O)Cl)C
InChI: InChI=1S/C22H29ClO5/c1-12-8-16-15-5-4-13-9-14(25)6-7-19(13,2)21(15,23)17(26)10-20(16,3)22(12,28)18(27)11-24/h6-7,9,12,15-17,24,26,28H,4-5,8,10-11H2,1-3H3
Instrument: TripleTOF 5600 SCIEX
Instrument type: LC-ESI-QTOF
Ms type: MS2
Ion mode: POSITIVE
Collision energy: 20
Fragmentation mode: CID
Ionization: ESI
Column name: Zorbax Eclipse Plus C18 2.1 mm x 150 mm, 3.5 um, Agilent
Retention time: 9.326 min
Precursor m/z: 409.1776
Precursor type: [M+H]+
m/z	relative intensity
101.0597	13
121.0637	10
135.079	10
147.0815	27
169.087	11
171.0807	12
185.0963	11
215.1081	11
235.113	12
237.1271	25
239.1466	26
249.1268	10
263.1408	30
275.1467	17
277.161	45
278.1666	15
279.1732	94
291.1749	53
295.1722	22
297.1843	19
301.1589	27
307.1707	26
309.1872	26
319.1686	101
337.1818	115
355.1551	16
355.1867	123
373.1611	25
373.2011	76
391.168	999
409.1763	80
