Mass spectrum: 2-(Thiocyanomethylthio)benzothiazole; LC-ESI-QTOF; MS2; 50 V
Name: 2-(Thiocyanomethylthio)benzothiazole
Class: Antimicrobial; Fungicide
Formula: C9H6N2S3
Exact mass: 237.9693
SMILES: C1=CC=C2C(=C1)N=C(S2)SCSC#N
InChI: InChI=1S/C9H6N2S3/c10-5-12-6-13-9-11-7-3-1-2-4-8(7)14-9/h1-4H,6H2
Instrument: TripleTOF 6600 SCIEX
Instrument type: LC-ESI-QTOF
Ms type: MS2
Ion mode: POSITIVE
Collision energy: 50
Fragmentation mode: CID
Ionization: ESI
Column name: Zorbax Eclipse Plus C18 2.1 mm x 150 mm, 3.5 um, Agilent
Retention time: 12.417 min
Precursor m/z: 238.9766
Precursor type: [M+H]+
m/z	relative intensity
44.9796	227
51.0229	22
65.0387	74
68.9792	12
71.9903	32
77.0387	230
78.0461	16
89.0385	54
91.0417	23
96.0027	15
108.0024	17
109.011	562
116.0496	82
121.0102	42
122.0184	11
123.0137	44
134.0056	10
135.0139	25
136.0221	999
139.9745	12
148.0215	12
152.9821	10
166.9859	95
179.9934	26
