Mass spectrum: Diflufenican; LC-ESI-QTOF; MS2; 60 V
Name: Diflufenican
Class: Herbicide
Formula: C19H11F5N2O2
Exact mass: 394.0741
SMILES: C1=CC(=CC(=C1)OC2=C(C=CC=N2)C(=O)NC3=C(C=C(C=C3)F)F)C(F)(F)F
InChI: InChI=1S/C19H11F5N2O2/c20-12-6-7-16(15(21)10-12)26-17(27)14-5-2-8-25-18(14)28-13-4-1-3-11(9-13)19(22,23)24/h1-10H,(H,26,27)
Instrument: TripleTOF 6600 SCIEX
Instrument type: LC-ESI-QTOF
Ms type: MS2
Ion mode: POSITIVE
Collision energy: 60
Fragmentation mode: CID
Ionization: ESI
Column name: Zorbax Eclipse Plus C18 2.1 mm x 150 mm, 3.5 um, Agilent
Retention time: 14.853 min
Precursor m/z: 395.0814
Precursor type: [M+H]+
m/z	relative intensity
39.0236	17
51.0236	12
66.0332	10
78.0344	148
94.0294	27
95.0296	17
113.0195	15
114.0463	20
122.0239	35
125.0208	15
128.0278	12
129.0396	12
133.0444	70
140.0299	22
140.049	88
141.0254	12
141.0569	136
143.029	32
145.0255	174
150.0326	15
151.0345	32
152.0301	12
153.057	17
158.0396	121
160.0534	10
163.0355	113
164.042	52
165.0434	65
166.0461	15
168.0444	60
169.0515	380
170.0149	10
170.0399	123
171.0462	25
172.0353	35
172.0559	50
173.0303	27
175.0365	15
176.0315	10
178.0444	30
182.0336	52
183.0411	635
184.04	27
185.0504	133
186.0335	25
186.0571	15
188.0512	12
189.0388	35
190.0461	572
191.0458	108
193.0371	12
195.0407	27
196.0363	47
197.0462	10
198.0365	85
200.0494	12
202.0436	17
203.0432	12
204.0485	45
205.0575	37
208.0356	15
210.0513	209
213.0455	37
214.0472	35
215.0408	17
218.0407	999
219.0492	45
222.0513	15
232.0446	30
233.0512	98
236.0302	15
238.0467	832
246.0355	829
266.0417	865
307.0653	20
357.0609	25
375.052	20
377.0697	30
