Mass spectrum: Thiabendazole; LC-ESI-QTOF; MS2; 140 V
Name: Thiabendazole
Class: Fungicide; Pharmaceutical
Formula: C10H7N3S
Exact mass: 201.0361
SMILES: [nH]1c2ccccc2nc1c3cscn3
InChI: InChI=1S/C10H7N3S/c1-2-4-8-7(3-1)12-10(13-8)9-5-14-6-11-9/h1-6H,(H,12,13)
Instrument: TripleTOF 5600 SCIEX
Instrument type: LC-ESI-QTOF
Ms type: MS2
Ion mode: POSITIVE
Collision energy: 140
Fragmentation mode: CID
Ionization: ESI
Column name: Zorbax Eclipse Plus C18 2.1 mm x 150 mm, 3.5 um, Agilent
Retention time: 5.203 min
Precursor m/z: 202.0433
Precursor type: [M+H]+
m/z	relative intensity
51.0297	856
52.0234	808
56.9838	570
63.056	190
65.042	237
68.9821	190
73.012	333
74.018	999
75.0129	237
