Mass spectrum: Triadimefon; LC-ESI-QTOF; MS2; 110 V
Name: Triadimefon
Class: Fungicide; Transformation_product
Formula: C14H16ClN3O2
Exact mass: 293.0931
SMILES: CC(C)(C)C(=O)C(N1C=NC=N1)OC2=CC=C(C=C2)Cl
InChI: InChI=1S/C14H16ClN3O2/c1-14(2,3)12(19)13(18-9-16-8-17-18)20-11-6-4-10(15)5-7-11/h4-9,13H,1-3H3
Instrument: TripleTOF 5600 SCIEX
Instrument type: LC-ESI-QTOF
Ms type: MS2
Ion mode: POSITIVE
Collision energy: 110
Fragmentation mode: CID
Ionization: ESI
Column name: Zorbax Eclipse Plus C18 2.1 mm x 150 mm, 3.5 um, Agilent
Retention time: 12.319 min
Precursor m/z: 294.1004
Precursor type: [M+H]+
m/z	relative intensity
35.9997	13
37.0079	55
38.0152	47
39.0235	368
41.039	256
42.0454	11
43.019	16
43.0281	11
46.9691	19
48.9843	36
49.0078	13
50.0155	86
51.0235	119
53.0389	22
55.0546	92
57.0705	329
60.984	16
61.0072	13
62.0141	27
63.0233	89
64.031	11
65.0384	117
66.046	16
69.0706	30
70.0399	94
72.984	555
73.0064	53
74.0153	884
75.0231	999
76.0308	41
77.0383	94
78.0461	25
82.041	16
84.9837	161
89.0382	19
91.0531	41
94.0401	27
98.9995	206
102.0464	27
103.0557	13
110.9994	142
115.0557	22
127.9997	19
128.0634	19
