Mass spectrum: 4-(4-Chloro-2-methylphenoxy)butanoic acid; LC-ESI-QTOF; MS2; 90 V
Name: 4-(4-Chloro-2-methylphenoxy)butanoic acid
Class: Herbicide
Formula: C11H13ClO3
Exact mass: 228.0553
SMILES: CC1=C(C=CC(=C1)Cl)OCCCC(=O)O
InChI: InChI=1S/C11H13ClO3/c1-8-7-9(12)4-5-10(8)15-6-2-3-11(13)14/h4-5,7H,2-3,6H2,1H3,(H,13,14)
Instrument: TripleTOF 6600 SCIEX
Instrument type: LC-ESI-QTOF
Ms type: MS2
Ion mode: POSITIVE
Collision energy: 90
Fragmentation mode: CID
Ionization: ESI
Column name: Zorbax Eclipse Plus C18 2.1 mm x 150 mm, 3.5 um, Agilent
Retention time: 11.775 min
Precursor m/z: 229.0626
Precursor type: [M+H]+
m/z	relative intensity
35.9993	66
37.0066	266
38.001	33
38.0147	333
39.0222	999
41.0384	333
43.0173	666
44.9974	299
45.0335	765
46.9671	33
48.9835	99
51.0227	166
52.0295	33
53.014	33
65.0366	99
72.983	366
74.0134	33
75.0207	33
77.0371	366
78.0499	33
79.0539	66
89.0375	532
90.0446	33
91.0529	166
98.9992	166
115.0537	133
128.0634	99
