Mass spectrum: 5-Aminosalicylic acid; LC-ESI-QTOF; MS2; 60 V
Name: 5-Aminosalicylic acid
Class: Pharmaceutical
Formula: C7H7NO3
Exact mass: 153.0426
SMILES: C1=CC(=C(C=C1N)C(=O)O)O
InChI: InChI=1S/C7H7NO3/c8-4-1-2-6(9)5(3-4)7(10)11/h1-3,9H,8H2,(H,10,11)
Instrument: TripleTOF 6600 SCIEX
Instrument type: LC-ESI-QTOF
Ms type: MS2
Ion mode: POSITIVE
Collision energy: 60
Fragmentation mode: CID
Ionization: ESI
Column name: Zorbax Eclipse Plus C18 2.1 mm x 150 mm, 3.5 um, Agilent
Retention time: 2.181 min
Precursor m/z: 154.0499
Precursor type: [M+H]+
m/z	relative intensity
37.0074	34
38.0023	11
38.0148	33
39.023	134
50.0149	18
51.0228	84
52.0181	30
52.0298	12
53.0015	12
53.0386	999
54.0336	138
55.0177	10
61.0071	14
62.0149	48
63.0227	58
65.0387	11
74.0142	35
75.0226	57
78.0329	14
80.0493	723
92.048	10
108.044	13
