Mass spectrum: Thioridazine; LC-ESI-QTOF; MS2; 120 V
Name: Thioridazine
Class: Pharmaceutical
Formula: C21H26N2S2
Exact mass: 370.1537
SMILES: CN1CCCCC1CCN2C3=CC=CC=C3SC4=C2C=C(C=C4)SC
InChI: InChI=1S/C21H26N2S2/c1-22-13-6-5-7-16(22)12-14-23-18-8-3-4-9-20(18)25-21-11-10-17(24-2)15-19(21)23/h3-4,8-11,15-16H,5-7,12-14H2,1-2H3
Instrument: TripleTOF 5600 SCIEX
Instrument type: LC-ESI-QTOF
Ms type: MS2
Ion mode: POSITIVE
Collision energy: 120
Fragmentation mode: CID
Ionization: ESI
Column name: Zorbax Eclipse Plus C18 2.1 mm x 150 mm, 3.5 um, Agilent
Retention time: 9.472 min
Precursor m/z: 371.161
Precursor type: [M+H]+
m/z	relative intensity
42.0435	348
44.0597	42
55.0593	74
56.0545	21
57.0616	15
58.0708	116
65.0427	14
67.0581	30
68.0533	226
68.9835	14
70.0698	903
77.0402	40
80.0527	11
82.0661	74
83.0745	42
84.0824	50
89.0394	33
94.0668	11
96.0819	47
98.0976	839
101.0388	20
102.0459	18
113.0388	43
114.0471	17
115.0537	120
116.0482	11
125.0385	37
126.0455	94
126.129	10
127.0535	65
128.0493	50
129.0558	11
137.0391	14
138.046	30
139.0541	573
140.052	315
149.0356	13
150.0461	156
151.0539	315
152.0551	225
153.057	166
154.0644	74
164.0494	58
165.0573	36
166.0652	580
167.0728	999
169.0104	13
171.0273	30
172.0279	10
176.0554	23
177.0567	119
178.0649	264
179.0726	43
180.0801	10
182.0198	17
183.0253	30
184.0285	26
185.033	14
186.0354	43
190.0655	11
191.0736	14
196.0212	33
197.029	37
198.0349	24
202.0624	14
203.0746	15
204.0809	24
208.0201	26
209.0301	82
210.0349	107
211.0448	14
222.037	10
