Mass spectrum: N-desmethyl-venlafaxine; LC-ESI-QTOF; MS2; 90 V
Name: N-desmethyl-venlafaxine
Class: Pharmaceutical; Metabolite
Formula: C16H25NO2
Exact mass: 263.1885
SMILES: CNCC(c1ccc(cc1)OC)C2(CCCCC2)O
InChI: InChI=1S/C16H25NO2/c1-17-12-15(16(18)10-4-3-5-11-16)13-6-8-14(19-2)9-7-13/h6-9,15,17-18H,3-5,10-12H2,1-2H3
Instrument: TripleTOF 5600 SCIEX
Instrument type: LC-ESI-QTOF
Ms type: MS2
Ion mode: POSITIVE
Collision energy: 90
Fragmentation mode: CID
Ionization: ESI
Column name: Zorbax Eclipse Plus C18 2.1 mm x 150 mm, 3.5 um, Agilent
Retention time: 6.444 min
Precursor m/z: 264.1958
Precursor type: [M+H]+
m/z	relative intensity
44.0578	956
51.0284	148
52.036	38
53.0443	25
63.0422	16
65.0423	402
76.0329	25
77.0412	821
78.0484	999
79.0551	165
81.0717	63
89.0393	84
90.0488	33
91.0553	681
102.0449	50
103.0542	165
104.0606	46
105.0703	16
106.0433	46
106.0635	25
107.0491	29
115.0536	499
116.0619	46
117.0707	29
121.064	262
127.0519	38
127.0691	16
128.0612	126
129.0702	33
131.0482	93
141.072	29
152.0617	29
