Mass spectrum: Pyrimethanil; LC-ESI-QTOF; MS2; 60 V
Name: Pyrimethanil
Class: Fungicide
Formula: C12H13N3
Exact mass: 199.1109
SMILES: CC1=CC(=NC(=N1)NC2=CC=CC=C2)C
InChI: InChI=1S/C12H13N3/c1-9-8-10(2)14-12(13-9)15-11-6-4-3-5-7-11/h3-8H,1-2H3,(H,13,14,15)
Instrument: TripleTOF 6600 SCIEX
Instrument type: LC-ESI-QTOF
Ms type: MS2
Ion mode: POSITIVE
Collision energy: 60
Fragmentation mode: CID
Ionization: ESI
Column name: Zorbax Eclipse Plus C18 2.1 mm x 150 mm, 3.5 um, Agilent
Retention time: 9.225 min
Precursor m/z: 200.1182
Precursor type: [M+H]+
m/z	relative intensity
37.0073	24
38.015	16
39.0229	127
40.0177	11
41.026	19
42.034	891
50.0147	70
51.0229	430
53.0385	349
54.0335	19
55.054	32
56.0487	9
63.0227	34
65.0383	358
66.0336	68
66.0452	65
67.0318	586
75.0226	16
76.0294	9
77.0385	999
78.0335	26
78.0448	21
80.0488	140
82.0646	89
83.0597	17
88.03	19
89.0376	62
90.0449	13
91.0414	11
91.0531	35
92.0488	168
93.0566	119
95.0596	21
101.037	14
102.0332	27
103.0409	37
104.0489	37
105.0441	22
107.0589	34
113.037	50
114.0457	158
115.0532	125
116.0474	45
117.0566	47
118.0514	32
119.0593	35
127.0528	58
128.0483	58
128.0603	42
129.0435	22
129.0551	21
130.0393	16
130.0637	11
131.0596	32
139.0529	45
140.0488	346
141.056	103
142.052	35
143.0601	62
153.056	13
154.0643	111
155.0597	40
156.0669	49
157.075	14
159.0896	13
166.0643	29
167.0582	45
168.0668	109
179.0603	11
180.0671	32
181.0752	477
182.0828	65
184.0881	13
198.1008	9
200.1174	19
