Mass spectrum: Ethyldiphenylphosphine oxide; LC-ESI-QTOF; MS2; 90 V
Name: Ethyldiphenylphosphine oxide
Class: Industrial_process
Formula: C14H15OP
Exact mass: 230.0861
SMILES: CC[P](=O)(c1ccccc1)c2ccccc2
InChI: InChI=1S/C14H15OP/c1-2-16(15,13-9-5-3-6-10-13)14-11-7-4-8-12-14/h3-12H,2H2,1H3
Instrument: TripleTOF 5600 SCIEX
Instrument type: LC-ESI-QTOF
Ms type: MS2
Ion mode: POSITIVE
Collision energy: 90
Fragmentation mode: CID
Ionization: ESI
Column name: Zorbax Eclipse Plus C18 2.1 mm x 150 mm, 3.5 um, Agilent
Retention time: 8.816 min
Precursor m/z: 231.0933
Precursor type: [M+H]+
m/z	relative intensity
52.0362	29
56.9934	69
65.0427	134
68.9917	21
76.0358	25
77.042	414
78.0494	184
79.0556	19
80.9917	29
83.0068	55
89.0405	43
91.0549	57
102.0474	45
107.0048	114
109.0218	19
115.0545	128
126.0471	101
127.0541	61
128.0613	47
131.0024	23
133.0195	19
139.0552	97
150.0474	63
151.0548	249
152.0626	999
153.0724	31
156.0114	23
157.0201	134
163.0545	25
164.0635	33
165.0702	99
170.0288	85
180.0121	19
181.0208	134
183.0354	112
194.0283	43
199.0319	144
