Mass spectrum: Estrone; LC-ESI-QTOF; MS2; 40 V
Name: Estrone
Class: Pharmaceutical
Formula: C18H22O2
Exact mass: 270.162
SMILES: CC12CCC3C(C1CCC2=O)CCC4=C3C=CC(=C4)O
InChI: InChI=1S/C18H22O2/c1-18-9-8-14-13-5-3-12(19)10-11(13)2-4-15(14)16(18)6-7-17(18)20/h3,5,10,14-16,19H,2,4,6-9H2,1H3
Instrument: TripleTOF 5600 SCIEX
Instrument type: LC-ESI-QTOF
Ms type: MS2
Ion mode: POSITIVE
Collision energy: 40
Fragmentation mode: CID
Ionization: ESI
Column name: Zorbax Eclipse Plus C18 2.1 mm x 150 mm, 3.5 um, Agilent
Retention time: 11.224 min
Precursor m/z: 271.1693
Precursor type: [M+H]+
m/z	relative intensity
43.0178	33
55.0176	15
65.0381	12
67.0541	61
69.0697	11
71.049	42
77.0382	88
79.0538	132
81.0698	158
85.0648	13
91.0536	144
93.07	91
95.085	44
103.0538	63
105.0693	279
107.0488	146
107.0843	53
109.1008	32
111.0804	12
115.0536	144
116.0615	80
117.0691	52
119.0846	15
121.0648	65
121.1004	12
127.0538	104
128.0613	107
129.0692	97
131.0829	214
132.0562	31
133.0641	875
141.0691	273
142.0766	10
143.0846	17
144.0561	301
145.0643	279
147.0799	80
152.0612	30
153.0689	74
154.0768	25
155.0845	51
157.0641	999
158.0725	31
159.0797	761
161.0966	15
165.0692	132
166.0768	12
167.0846	77
169.0686	51
169.0996	19
170.0712	37
171.0803	178
172.0879	39
173.0961	80
177.0677	12
178.0765	51
179.085	191
181.0639	105
181.1008	13
182.0717	182
183.08	291
184.0881	70
185.096	147
193.1001	28
194.0708	14
195.08	52
196.0879	69
197.0959	424
198.1037	201
199.1109	12
201.1279	78
209.0951	67
210.1026	20
211.1118	198
212.1186	38
213.1274	196
223.1087	13
224.1192	12
225.1276	45
238.1354	21
253.1589	240
271.1707	57
