Mass spectrum: Sertraline; LC-ESI-QTOF; MS2; 80 V
Name: Sertraline
Class: Pharmaceutical
Formula: C17H17Cl2N
Exact mass: 305.0738
SMILES: CN[C@H]1CC[C@H](c2c1cccc2)c3ccc(c(c3)Cl)Cl
InChI: InChI=1S/C17H17Cl2N/c1-20-17-9-7-12(13-4-2-3-5-14(13)17)11-6-8-15(18)16(19)10-11/h2-6,8,10,12,17,20H,7,9H2,1H3/t12-,17-/m0/s1
Instrument: TripleTOF 5600 SCIEX
Instrument type: LC-ESI-QTOF
Ms type: MS2
Ion mode: POSITIVE
Collision energy: 80
Fragmentation mode: CID
Ionization: ESI
Column name: Zorbax Eclipse Plus C18 2.1 mm x 150 mm, 3.5 um, Agilent
Retention time: 8.925 min
Precursor m/z: 306.0811
Precursor type: [M+H]+
m/z	relative intensity
65.0416	26
72.9874	180
77.0411	33
82.9466	19
88.0323	45
89.041	688
91.0561	53
96.9849	90
99.0006	248
102.0473	19
115.054	35
123.0006	999
124.0076	297
125.0149	14
126.0464	35
127.0543	210
128.0624	550
129.0696	101
132.9612	219
158.9768	754
162.0231	34
176.062	24
178.0765	13
189.0696	85
190.0782	13
199.0295	12
202.0783	62
203.085	44
204.0933	16
