Mass spectrum: 4-Aminoantipyrine; LC-ESI-QTOF; MS2; 20 V
Name: 4-Aminoantipyrine
Class: Transformation_product; Pharmaceutical; Transformation_product-Metabolite
Formula: C11H13N3O
Exact mass: 203.1059
SMILES: CC1=C(C(=O)N(N1C)C2=CC=CC=C2)N
InChI: InChI=1S/C11H13N3O/c1-8-10(12)11(15)14(13(8)2)9-6-4-3-5-7-9/h3-7H,12H2,1-2H3
Instrument: TripleTOF 5600 SCIEX
Instrument type: LC-ESI-QTOF
Ms type: MS2
Ion mode: POSITIVE
Collision energy: 20
Fragmentation mode: CID
Ionization: ESI
Column name: Zorbax Eclipse Plus C18 2.1 mm x 150 mm, 3.5 um, Agilent
Retention time: 4.783 min
Precursor m/z: 204.1131
Precursor type: [M+H]+
m/z	relative intensity
44.0496	10
56.0501	566
58.0653	21
68.0497	10
83.0608	220
85.0762	135
94.0655	211
104.0496	50
111.0554	91
118.0649	25
128.0496	23
130.066	13
145.0765	56
146.0604	130
158.0602	49
159.0921	406
172.0644	10
173.0714	98
187.0871	333
189.0908	114
204.1137	999
