Mass spectrum: Deisopropylatrazine; LC-ESI-QTOF; MS2; 30 V
Name: Deisopropylatrazine
Class: Transformation_product
Formula: C5H8ClN5
Exact mass: 173.0468
InChI: InChI=1S/C5H8ClN5/c1-2-8-5-10-3(6)9-4(7)11-5/h2H2,1H3,(H3,7,8,9,10,11)
Instrument: TripleTOF 6600 SCIEX
Instrument type: LC-ESI-QTOF
Ms type: CID
Ion mode: POSITIVE
Collision energy: 30
Ionization: ESI
Column name: Zorbax Eclipse Plus C18 2.1 mm x 150 mm, 3.5 um, Agilent
Retention time: 5.858 min
Precursor m/z: 174.0541
Precursor type: [M+H]+
m/z	relative intensity
43.0285	552
61.978	191
68.0236	999
69.0268	148
71.0598	361
79.0052	446
96.0543	573
97.057	127
103.9998	999
132.0301	382
133.0333	127
138.0771	85
146.0215	255
147.0263	127
174.0523	340
175.0558	85
