Mass spectrum: Terbuthylazine; LC-ESI-QTOF; MS2; 70 V
Name: Terbuthylazine
Class: Herbicide
Formula: C9H16ClN5
Exact mass: 229.1094
SMILES: CCNc1nc(Cl)nc(NC(C)(C)C)n1
InChI: InChI=1S/C9H16ClN5/c1-5-11-7-12-6(10)13-8(14-7)15-9(2,3)4/h5H2,1-4H3,(H2,11,12,13,14,15)
Instrument: TripleTOF 5600 SCIEX
Instrument type: LC-ESI-QTOF
Ms type: MS2
Ion mode: POSITIVE
Collision energy: 70
Fragmentation mode: CID
Ionization: ESI
Column name: Zorbax Eclipse Plus C18 2.1 mm x 150 mm, 3.5 um, Agilent
Retention time: 11.917 min
Precursor m/z: 230.1167
Precursor type: [M+H]+
m/z	relative intensity
43.0384	284
57.0748	32
61.9848	548
68.0295	999
68.0551	11
71.0636	48
79.0086	160
96.0572	20
104.0017	227
