Mass spectrum: (S)-N-methyl-pregabalin; LC-ESI-QTOF; MS2; 60 V
Name: (S)-N-methyl-pregabalin
Formula: C9H19NO2
Exact mass: 173.1416
SMILES: CC(C)CC(CC(=O)O)CNC
InChI: InChI=1S/C9H19NO2/c1-7(2)4-8(6-10-3)5-9(11)12/h7-8,10H,4-6H2,1-3H3,(H,11,12)
Instrument: TripleTOF 5600 SCIEX
Instrument type: LC-ESI-QTOF
Ms type: MS2
Ion mode: POSITIVE
Collision energy: 60
Fragmentation mode: CID
Ionization: ESI
Column name: Zorbax Eclipse Plus C18 2.1 mm x 150 mm, 3.5 um, Agilent
Retention time: 4.84 min
Precursor m/z: 174.1489
Precursor type: [M+H]+
m/z	relative intensity
36.0002	11
37.0077	48
38.0158	51
39.0235	382
41.0393	372
42.0345	38
43.018	92
43.0545	121
44.0502	95
44.9981	9
45.0339	79
51.0242	12
53.0393	79
54.0342	12
55.0186	239
55.055	999
56.0503	32
57.0706	22
58.0294	51
59.0495	132
65.0391	35
67.0426	69
67.0549	17
69.0342	16
69.0704	25
70.0658	200
77.0395	45
79.0552	29
80.0495	25
81.0695	11
82.0657	32
83.0867	35
91.0552	38
94.065	61
96.0801	14
