Mass spectrum: Linuron; LC-ESI-QTOF; MS2; 70 V
Name: Linuron
Class: Herbicide
Formula: C9H10Cl2N2O2
Exact mass: 248.0119
InChI: InChI=1S/C9H10Cl2N2O2/c1-13(15-2)9(14)12-6-3-4-7(10)8(11)5-6/h3-5H,1-2H3,(H,12,14)
Instrument: TripleTOF 5600 SCIEX
Instrument type: LC-ESI-QTOF
Ms type: CID
Ion mode: POSITIVE
Collision energy: 70
Ionization: ESI
Column name: Zorbax Eclipse Plus C18 2.1 mm x 150 mm, 3.5 um, Agilent
Retention time: 11.862 min
Precursor m/z: 249.0192
Precursor type: [M+H]+
m/z	relative intensity
72.9862	570
82.9476	190
90.0362	333
98.9986	570
118.0537	190
125.0002	428
132.9599	999
160.9755	285
