Mass spectrum: Napropamide; LC-ESI-QTOF; MS2; 110 V
Name: Napropamide
Class: Herbicide
Formula: C17H21NO2
Exact mass: 271.1572
SMILES: CCN(CC)C(=O)C(C)Oc1cccc2c1cccc2
InChI: InChI=1S/C17H21NO2/c1-4-18(5-2)17(19)13(3)20-16-12-8-10-14-9-6-7-11-15(14)16/h6-13H,4-5H2,1-3H3
Instrument: TripleTOF 6600 SCIEX
Instrument type: LC-ESI-QTOF
Ms type: MS2
Ion mode: POSITIVE
Collision energy: 110
Fragmentation mode: CID
Ionization: ESI
Column name: Zorbax Eclipse Plus C18 2.1 mm x 150 mm, 3.5 um, Agilent
Retention time: 12.596 min
Precursor m/z: 272.1645
Precursor type: [M+H]+
m/z	relative intensity
30.0336	79
38.0029	102
39.0226	158
42.034	124
44.0131	374
44.0498	624
49.0073	56
50.0146	272
51.0226	499
52.0301	79
55.0173	102
56.0498	56
57.0337	124
58.0652	192
61.0068	68
62.0154	136
63.0224	295
65.0384	306
74.0149	340
75.0231	295
76.0302	238
77.0383	556
78.0466	272
86.0145	79
87.0213	68
89.0389	510
91.0535	113
98.0152	102
101.0377	113
102.0459	510
105.0433	68
115.0538	999
125.0388	56
126.0461	374
127.0543	329
128.0616	408
139.0542	90
150.0463	340
151.0539	249
152.0619	227
155.0595	68
