Mass spectrum: Warfarin; LC-ESI-QTOF; MS2; 140 V
Name: Warfarin
Class: Pesticide; Biocide; Rodenticide
Formula: C19H16O4
Exact mass: 308.1049
SMILES: CC(=O)CC(C1=CC=CC=C1)C2=C(C3=CC=CC=C3OC2=O)O
InChI: InChI=1S/C19H16O4/c1-12(20)11-15(13-7-3-2-4-8-13)17-18(21)14-9-5-6-10-16(14)23-19(17)22/h2-10,15,21H,11H2,1H3
Instrument: TripleTOF 6600 SCIEX
Instrument type: LC-ESI-QTOF
Ms type: MS2
Ion mode: POSITIVE
Collision energy: 140
Fragmentation mode: CID
Ionization: ESI
Column name: Zorbax Eclipse Plus C18 2.1 mm x 150 mm, 3.5 um, Agilent
Retention time: 11.631 min
Precursor m/z: 309.1122
Precursor type: [M+H]+
m/z	relative intensity
35.9994	58
37.0072	274
38.0151	251
39.023	999
41.0022	27
43.0177	238
49.0077	40
50.0148	409
51.0227	873
53.002	125
61.006	54
62.0143	76
63.0226	166
65.0378	216
68.9961	40
73.0072	36
74.0146	364
75.0223	166
76.0309	62
77.0381	351
78.0466	27
85.0084	22
86.0142	36
87.0213	36
89.0384	54
98.0142	112
99.0232	22
101.039	22
102.0453	54
113.0358	22
115.0543	45
122.0141	27
125.0367	40
126.046	76
127.0587	22
128.0625	40
137.0359	18
139.0533	45
149.0389	40
150.0447	270
151.0538	90
152.063	31
161.0379	27
162.0438	18
163.0537	94
164.0601	40
165.0695	22
174.044	76
175.0552	27
176.059	54
187.0576	31
