Mass spectrum: Pyrimethanil; LC-ESI-QTOF; MS2; 40 V
Name: Pyrimethanil
Class: Fungicide
Formula: C12H13N3
Exact mass: 199.1109
SMILES: CC1=CC(=NC(=N1)NC2=CC=CC=C2)C
InChI: InChI=1S/C12H13N3/c1-9-8-10(2)14-12(13-9)15-11-6-4-3-5-7-11/h3-8H,1-2H3,(H,13,14,15)
Instrument: TripleTOF 6600 SCIEX
Instrument type: LC-ESI-QTOF
Ms type: MS2
Ion mode: POSITIVE
Collision energy: 40
Fragmentation mode: CID
Ionization: ESI
Column name: Zorbax Eclipse Plus C18 2.1 mm x 150 mm, 3.5 um, Agilent
Retention time: 9.225 min
Precursor m/z: 200.1182
Precursor type: [M+H]+
m/z	relative intensity
42.0341	139
51.0227	17
53.0384	52
65.0383	43
66.0334	32
67.0352	93
77.0385	125
80.0491	132
82.0649	210
83.0597	17
91.0534	10
92.0488	43
93.0564	30
107.0601	300
115.0534	24
116.0484	10
118.0531	12
118.0632	22
119.0596	45
131.0587	16
140.0486	28
141.0561	22
142.0642	39
143.06	76
154.0635	10
156.0787	18
159.0901	24
166.0638	15
167.0714	23
168.0675	190
181.0752	110
182.0832	193
183.0908	229
185.093	11
198.101	13
200.118	999
