Mass spectrum: N-Cyclohexyl-1,3-benzothiazol-2-amine; LC-ESI-QTOF; MS2; 140 V
Name: N-Cyclohexyl-1,3-benzothiazol-2-amine
Formula: C13H16N2S
Exact mass: 232.1034
SMILES: C1CCC(CC1)NC2=NC3=CC=CC=C3S2
InChI: InChI=1S/C13H16N2S/c1-2-6-10(7-3-1)14-13-15-11-8-4-5-9-12(11)16-13/h4-5,8-10H,1-3,6-7H2,(H,14,15)
Instrument: TripleTOF 6600 SCIEX
Instrument type: LC-ESI-QTOF
Ms type: MS2
Ion mode: POSITIVE
Collision energy: 140
Fragmentation mode: CID
Ionization: ESI
Column name: Zorbax Eclipse Plus C18 2.1 mm x 150 mm, 3.5 um, Agilent
Retention time: 9.082 min
Precursor m/z: 233.1107
Precursor type: [M+H]+
m/z	relative intensity
35.9987	55
37.0069	466
38.0038	25
38.0143	408
39.0226	999
40.005	10
41.0379	31
43.0285	25
43.9708	10
44.9785	46
49.0061	30
50.0142	130
51.022	106
52.0172	11
53.0123	15
53.0375	38
57.986	11
59.9894	39
61.0064	47
62.0141	74
63.022	91
64.017	35
65.0371	41
67.9706	67
68.9784	667
69.9857	10
74.0136	31
80.978	15
81.985	25
92.9779	31
94.9939	10
