Mass spectrum: 3-Hydroxycarbamazepine; LC-ESI-QTOF; MS2; 50 V
Name: 3-Hydroxycarbamazepine
Class: Pharmaceutical; Transformation_product-Metabolite
Formula: C15H12N2O2
Exact mass: 252.0899
SMILES: NC(=O)N1c2ccccc2C=Cc3ccc(O)cc13
InChI: InChI=1S/C15H12N2O2/c16-15(19)17-13-4-2-1-3-10(13)5-6-11-7-8-12(18)9-14(11)17/h1-9,18H,(H2,16,19)
Instrument: TripleTOF 5600 SCIEX
Instrument type: LC-ESI-QTOF
Ms type: MS2
Ion mode: POSITIVE
Collision energy: 50
Fragmentation mode: CID
Ionization: ESI
Column name: Zorbax Eclipse Plus C18 2.1 mm x 150 mm, 3.5 um, Agilent
Retention time: 7.917 min
Precursor m/z: 253.0972
Precursor type: [M+H]+
m/z	relative intensity
77.0412	12
89.0397	13
115.0544	48
117.0567	55
127.0535	15
139.0544	27
140.0535	36
141.0698	32
151.0537	24
152.0619	113
153.0698	83
154.0656	25
163.054	11
164.0608	19
165.0702	177
166.0653	120
167.0736	999
168.0808	11
177.0575	16
178.0649	38
179.0734	37
180.0815	475
181.0875	272
182.0965	187
183.0704	31
190.0654	102
191.0729	97
192.0805	52
193.0887	49
194.0641	18
195.0683	152
206.0609	21
207.0682	73
208.0764	232
209.0839	309
210.0918	228
