Mass spectrum: 1,3-Dicyclohexylurea; LC-ESI-QTOF; MS2; 130 V
Name: 1,3-Dicyclohexylurea
Formula: C13H24N2O
Exact mass: 224.1889
SMILES: C1CCC(CC1)NC(=O)NC2CCCCC2
InChI: InChI=1S/C13H24N2O/c16-13(14-11-7-3-1-4-8-11)15-12-9-5-2-6-10-12/h11-12H,1-10H2,(H2,14,15,16)
Instrument: TripleTOF 6600 SCIEX
Instrument type: LC-ESI-QTOF
Ms type: MS2
Ion mode: POSITIVE
Collision energy: 130
Fragmentation mode: CID
Ionization: ESI
Column name: Zorbax Eclipse Plus C18 2.1 mm x 150 mm, 3.5 um, Agilent
Retention time: 10.759 min
Precursor m/z: 225.1962
Precursor type: [M+H]+
m/z	relative intensity
35.999	49
37.007	355
38.0034	28
38.0144	294
39.0227	999
41.0381	58
43.0284	36
44.0127	556
50.0145	17
52.0055	15
53.0131	15
53.0375	23
55.0528	15
