Mass spectrum: Fenpropidin; LC-ESI-QTOF; MS2; 20 V
Name: Fenpropidin
Class: Fungicide
Formula: C19H31N
Exact mass: 273.2456
SMILES: CC(CC1=CC=C(C=C1)C(C)(C)C)CN2CCCCC2
InChI: InChI=1S/C19H31N/c1-16(15-20-12-6-5-7-13-20)14-17-8-10-18(11-9-17)19(2,3)4/h8-11,16H,5-7,12-15H2,1-4H3
Instrument: TripleTOF 6600 SCIEX
Instrument type: LC-ESI-QTOF
Ms type: MS2
Ion mode: POSITIVE
Collision energy: 20
Fragmentation mode: CID
Ionization: ESI
Column name: Zorbax Eclipse Plus C18 2.1 mm x 150 mm, 3.5 um, Agilent
Retention time: 9.471 min
Precursor m/z: 274.2529
Precursor type: [M+H]+
m/z	relative intensity
274.2632	999
