Mass spectrum: Norgestrel; LC-ESI-QTOF; MS2; 20 V
Name: Norgestrel
Class: Pharmaceutical
Formula: C21H28O2
Exact mass: 312.2089
SMILES: CCC12CCC3C(C1CCC2(C#C)O)CCC4=CC(=O)CCC34
InChI: InChI=1S/C21H28O2/c1-3-20-11-9-17-16-8-6-15(22)13-14(16)5-7-18(17)19(20)10-12-21(20,23)4-2/h2,13,16-19,23H,3,5-12H2,1H3
Instrument: TripleTOF 5600 SCIEX
Instrument type: LC-ESI-QTOF
Ms type: MS2
Ion mode: POSITIVE
Collision energy: 20
Fragmentation mode: CID
Ionization: ESI
Column name: Zorbax Eclipse Plus C18 2.1 mm x 150 mm, 3.5 um, Agilent
Retention time: 12.063 min
Precursor m/z: 313.2162
Precursor type: [M+H]+
m/z	relative intensity
109.068	25
123.083	10
131.0875	12
133.1032	17
135.0814	10
145.1029	14
149.0979	13
157.102	12
159.1179	20
171.1175	14
183.1167	13
185.133	27
187.1489	17
197.1331	10
199.1483	15
221.1348	10
225.1637	12
227.1794	20
235.148	13
237.1647	24
245.1897	134
249.1637	10
267.1754	12
277.1961	35
295.2056	106
312.2241	10
313.2147	999
