Mass spectrum: Triadimefon; LC-ESI-QTOF; MS2; 120 V
Name: Triadimefon
Class: Fungicide; Transformation_product
Formula: C14H16ClN3O2
Exact mass: 293.0931
SMILES: CC(C)(C)C(=O)C(N1C=NC=N1)OC2=CC=C(C=C2)Cl
InChI: InChI=1S/C14H16ClN3O2/c1-14(2,3)12(19)13(18-9-16-8-17-18)20-11-6-4-10(15)5-7-11/h4-9,13H,1-3H3
Instrument: TripleTOF 5600 SCIEX
Instrument type: LC-ESI-QTOF
Ms type: MS2
Ion mode: POSITIVE
Collision energy: 120
Fragmentation mode: CID
Ionization: ESI
Column name: Zorbax Eclipse Plus C18 2.1 mm x 150 mm, 3.5 um, Agilent
Retention time: 12.319 min
Precursor m/z: 294.1004
Precursor type: [M+H]+
m/z	relative intensity
36.0006	19
37.0078	75
38.0157	39
39.0236	306
41.0392	198
43.03	19
46.9688	16
48.9847	39
49.0082	22
50.0159	125
51.024	119
53.04	13
55.0555	61
57.0705	256
60.9854	22
61.0082	16
62.0159	30
63.023	83
65.0394	89
69.0719	19
70.0405	119
70.0788	11
72.9846	412
73.0073	69
74.0159	999
75.0236	756
76.0323	33
77.0386	86
82.0417	19
84.9845	131
89.0385	22
91.0546	30
94.043	22
99.001	97
100.0073	16
102.047	13
111.0001	69
115.0542	13
128.0021	11
128.062	19
