Mass spectrum: N-Methyl-perfluorooctane-1-sulphonamide; LC-ESI-QTOF; MS2; 40 V
Name: N-Methyl-perfluorooctane-1-sulphonamide
Formula: C9H4F17NO2S
Exact mass: 512.9691
SMILES: CNS(=O)(=O)C(C(C(C(C(C(C(C(F)(F)F)(F)F)(F)F)(F)F)(F)F)(F)F)(F)F)(F)F
InChI: InChI=1S/C9H4F17NO2S/c1-27-30(28,29)9(25,26)7(20,21)5(16,17)3(12,13)2(10,11)4(14,15)6(18,19)8(22,23)24/h27H,1H3
Instrument: TripleTOF 6600 SCIEX
Instrument type: LC-ESI-QTOF
Ms type: MS2
Ion mode: NEGATIVE
Collision energy: 40
Fragmentation mode: CID
Ionization: ESI
Column name: Zorbax Eclipse Plus C18 2.1 mm x 150 mm, 3.5 um, Agilent
Retention time: 15.621 min
Precursor m/z: 511.9618
Precursor type: [M-H]-
m/z	relative intensity
63.9595	32
64.9676	156
82.9575	54
111.9851	129
118.9899	116
125.9937	16
168.9871	806
187.99	23
218.9834	465
237.9853	21
254.9821	13
268.9799	136
387.9757	92
418.9669	89
511.9564	999
