Mass spectrum: Loratadine; LC-ESI-QTOF; MS2; 140 V
Name: Loratadine
Class: Pharmaceutical
Formula: C22H23ClN2O2
Exact mass: 382.1448
SMILES: CCOC(=O)N1CCC(=C2C3=C(CCC4=C2N=CC=C4)C=C(C=C3)Cl)CC1
InChI: InChI=1S/C22H23ClN2O2/c1-2-27-22(26)25-12-9-15(10-13-25)20-19-8-7-18(23)14-17(19)6-5-16-4-3-11-24-21(16)20/h3-4,7-8,11,14H,2,5-6,9-10,12-13H2,1H3
Instrument: TripleTOF 6600 SCIEX
Instrument type: LC-ESI-QTOF
Ms type: MS2
Ion mode: POSITIVE
Collision energy: 140
Fragmentation mode: CID
Ionization: ESI
Column name: Zorbax Eclipse Plus C18 2.1 mm x 150 mm, 3.5 um, Agilent
Retention time: 9.41 min
Precursor m/z: 383.1521
Precursor type: [M+H]+
m/z	relative intensity
51.0234	10
63.022	18
65.039	15
74.0146	15
75.0226	15
77.0379	31
78.0335	15
89.0377	36
98.0139	13
102.0461	28
113.0385	28
115.0534	70
117.0567	13
125.038	13
126.045	39
127.0531	13
128.0607	20
137.0386	15
139.0531	99
140.0471	39
149.0371	41
150.0447	161
151.0527	266
152.0608	206
153.0582	28
154.0644	15
161.0364	15
162.0456	31
163.0533	326
164.0474	13
164.0612	130
165.069	156
166.0646	33
167.0722	13
174.0457	52
175.0536	125
176.0607	229
177.0563	83
178.0632	49
179.0595	10
179.0732	28
186.0467	33
187.0529	432
188.0609	315
189.069	529
190.0637	255
191.0719	161
192.0792	36
198.0456	20
199.0515	65
200.0613	495
201.0684	448
202.0759	597
203.071	148
204.056	20
204.0799	70
211.0516	26
212.0484	41
212.0602	23
213.0685	305
214.0644	623
215.072	310
216.0801	474
217.0869	49
223.0296	13
224.0593	15
225.0557	73
226.0638	169
227.0718	550
228.0796	886
229.0874	203
230.0942	62
236.0292	13
238.0629	151
239.0721	211
240.0801	999
241.088	983
242.0952	200
243.1046	31
250.0411	33
251.0506	28
252.0786	80
253.0863	39
254.0962	146
256.1139	13
262.0417	23
264.0544	15
274.0405	10
275.0498	15
