Mass spectrum: Tramadol-N-oxide; LC-ESI-QTOF; MS2; 110 V
Name: Tramadol-N-oxide
Class: Pharmaceutical
Formula: C16H25NO3
Exact mass: 279.1834
SMILES: [O-][N+](C)(C)C[C@H]2CCCC[C@]2(O)c1cc(OC)ccc1
InChI: InChI=1S/C16H25NO3/c1-17(2,19)12-14-7-4-5-10-16(14,18)13-8-6-9-15(11-13)20-3/h6,8-9,11,14,18H,4-5,7,10,12H2,1-3H3/t14-,16+/m1/s1
Instrument: TripleTOF 5600 SCIEX
Instrument type: LC-ESI-QTOF
Ms type: MS2
Ion mode: POSITIVE
Collision energy: 110
Fragmentation mode: CID
Ionization: ESI
Column name: Zorbax Eclipse Plus C18 2.1 mm x 150 mm, 3.5 um, Agilent
Retention time: 6.334 min
Precursor m/z: 280.1907
Precursor type: [M+H]+
m/z	relative intensity
42.0425	133
43.0258	32
43.0512	15
44.0603	57
55.0227	13
56.0553	45
58.0717	369
60.0033	11
60.0476	37
64.0359	404
65.0437	381
66.0515	45
67.0581	13
68.0546	10
74.0193	21
75.0269	35
76.0353	38
77.042	999
78.0493	406
79.0563	32
89.0408	156
90.0491	18
91.0561	366
92.0273	415
94.0426	47
94.0659	18
101.0388	16
102.0478	131
103.0537	82
107.0488	15
115.0547	757
116.0629	42
117.0719	10
121.0648	16
126.0461	35
127.0547	119
128.0626	275
129.0735	16
131.0517	20
141.07	20
144.0597	11
152.0611	28
