Mass spectrum: Diatrizoate; LC-ESI-QTOF; MS2; 90 V
Name: Diatrizoate
Class: Pharmaceutical
Formula: C11H9I3N2O4
Exact mass: 613.7697
SMILES: C/C(=N\c1c(c(c(c(c1I)C(=O)O)I)/N=C(/O)\C)I)/O
InChI: InChI=1S/C11H9I3N2O4/c1-3(17)15-9-6(12)5(11(19)20)7(13)10(8(9)14)16-4(2)18/h1-2H3,(H,15,17)(H,16,18)(H,19,20)
Instrument: TripleTOF 5600 SCIEX
Instrument type: LC-ESI-QTOF
Ms type: MS2
Ion mode: POSITIVE
Collision energy: 90
Fragmentation mode: CID
Ionization: ESI
Column name: Zorbax Eclipse Plus C18 2.1 mm x 150 mm, 3.5 um, Agilent
Retention time: 4.549 min
Precursor m/z: 614.7769
Precursor type: [M+H]+
m/z	relative intensity
91.0449	33
92.0502	28
106.0305	38
107.0382	57
118.0535	96
120.0444	96
120.0671	48
145.0383	33
146.0239	43
146.0466	172
147.0295	33
147.0567	33
148.04	979
159.0569	110
161.0701	48
164.0341	24
165.0405	52
174.0206	28
174.0396	81
175.0491	24
187.0502	249
188.0597	67
189.0654	134
191.0607	43
192.0269	33
192.0525	389
203.9298	48
205.061	96
215.0445	62
219.0415	105
231.9232	38
233.0558	999
272.9608	33
300.9472	33
318.9574	72
