Mass spectrum: Nitenpyram; LC-ESI-QTOF; MS2; 90 V
Name: Nitenpyram
Class: Pharmaceutical; Insecticide
Formula: C11H15ClN4O2
Exact mass: 270.0884
SMILES: CCN(Cc1ccc(Cl)nc1)\C(NC)=C\[N+]([O-])=O
InChI: InChI=1S/C11H15ClN4O2/c1-3-15(11(13-2)8-16(17)18)7-9-4-5-10(12)14-6-9/h4-6,8,13H,3,7H2,1-2H3/b11-8+
Instrument: TripleTOF 5600 SCIEX
Instrument type: LC-ESI-QTOF
Ms type: MS2
Ion mode: POSITIVE
Collision energy: 90
Fragmentation mode: CID
Ionization: ESI
Column name: Zorbax Eclipse Plus C18 2.1 mm x 150 mm, 3.5 um, Agilent
Retention time: 5.386 min
Precursor m/z: 271.0956
Precursor type: [M+H]+
m/z	relative intensity
48.9916	18
56.0555	999
57.0498	23
63.0523	23
64.0342	32
65.0439	41
72.9868	658
73.0271	18
75.0259	59
76.02	36
77.0405	41
78.0361	73
89.0388	23
90.0345	243
91.0423	96
91.057	18
92.0514	32
98.9992	331
102.0335	64
104.0484	36
111.9916	23
116.047	36
117.0443	27
117.0555	27
118.0509	23
118.0622	23
126.0102	138
129.0421	23
131.0599	41
139.0036	18
144.0536	18
