Mass spectrum: Omeprazole; LC-ESI-QTOF; MS2; 130 V
Name: Omeprazole
Class: Pharmaceutical
Formula: C17H19N3O3S
Exact mass: 345.1147
SMILES: COc1ccc2nc([nH]c2c1)[S](=O)Cc3ncc(C)c(OC)c3C
InChI: InChI=1S/C17H19N3O3S/c1-10-8-18-15(11(2)16(10)23-4)9-24(21)17-19-13-6-5-12(22-3)7-14(13)20-17/h5-8H,9H2,1-4H3,(H,19,20)
Instrument: TripleTOF 5600 SCIEX
Instrument type: LC-ESI-QTOF
Ms type: MS2
Ion mode: POSITIVE
Collision energy: 130
Fragmentation mode: CID
Ionization: ESI
Column name: Zorbax Eclipse Plus C18 2.1 mm x 150 mm, 3.5 um, Agilent
Retention time: 6.462 min
Precursor m/z: 346.122
Precursor type: [M+H]+
m/z	relative intensity
42.0442	46
52.0375	10
53.0466	79
54.0429	15
65.0463	328
66.0538	74
67.0462	64
67.0594	79
68.983	28
69.9949	12
77.0432	999
78.038	159
79.0585	523
80.0525	159
81.075	30
81.9908	25
82.9867	35
89.043	12
91.0548	225
92.0524	362
93.0606	267
94.0679	82
104.0515	100
105.0563	110
106.0663	755
107.0741	231
108.0824	428
109.0026	61
110.008	28
117.0568	25
118.0669	51
119.0741	25
120.0813	613
121.0886	112
122.0969	195
123.015	17
136.0221	210
136.077	61
150.0361	12
150.0908	25
164.0179	17
165.0249	10
