Mass spectrum: Estrone 3-methyl ether; LC-ESI-QTOF; MS2; 60 V
Name: Estrone 3-methyl ether
Class: Pharmaceutical
Formula: C19H24O2
Exact mass: 284.1776
SMILES: C[C@]12CC[C@@H]3c4ccc(cc4CC[C@H]3[C@@H]1CCC2=O)OC
InChI: InChI=1S/C19H24O2/c1-19-10-9-15-14-6-4-13(21-2)11-12(14)3-5-16(15)17(19)7-8-18(19)20/h4,6,11,15-17H,3,5,7-10H2,1-2H3/t15-,16-,17+,19+/m1/s1
Instrument: TripleTOF 5600 SCIEX
Instrument type: LC-ESI-QTOF
Ms type: MS2
Ion mode: POSITIVE
Collision energy: 60
Fragmentation mode: CID
Ionization: ESI
Column name: Zorbax Eclipse Plus C18 2.1 mm x 150 mm, 3.5 um, Agilent
Retention time: 10.549 min
Precursor m/z: 285.1849
Precursor type: [M+H]+
m/z	relative intensity
55.0605	34
65.0439	45
67.0586	51
77.0417	160
78.0496	63
79.0591	109
81.0729	86
91.0563	999
93.0745	34
95.0865	51
102.0477	51
103.0536	57
104.0634	80
105.0697	57
107.0492	143
115.0543	780
115.1064	40
116.0618	132
117.0706	183
119.086	34
121.0652	172
127.0535	166
128.0619	901
128.1214	22
129.0696	160
130.0438	34
130.0789	91
131.0497	166
132.0561	166
135.0791	28
140.062	22
141.0697	361
142.0781	74
143.0495	103
143.0846	28
144.0589	120
145.0666	109
146.0742	51
147.0805	367
151.053	40
152.0647	137
153.0688	269
154.077	120
155.0875	40
156.0572	114
157.0665	86
158.0728	510
158.1012	28
159.0802	80
161.0957	22
165.0695	310
166.0786	68
167.0859	97
168.0539	22
168.0961	34
169.0637	45
169.0997	28
170.0736	63
171.0798	465
173.0957	149
178.0778	160
179.0871	97
181.0643	109
182.0711	63
183.0811	74
184.0866	40
185.0949	40
194.0727	57
195.082	103
196.0891	86
197.0958	109
198.1033	34
199.1072	40
209.101	28
210.1022	40
211.1123	45
212.1192	34
