Mass spectrum: 4,4`-Methylenebis(2-chloroaniline); LC-ESI-QTOF; MS2; 120 V
Name: 4,4`-Methylenebis(2-chloroaniline)
Formula: C13H12Cl2N2
Exact mass: 266.0378
SMILES: C1=CC(=C(C=C1CC2=CC(=C(C=C2)N)Cl)Cl)N
InChI: InChI=1S/C13H12Cl2N2/c14-10-6-8(1-3-12(10)16)5-9-2-4-13(17)11(15)7-9/h1-4,6-7H,5,16-17H2
Instrument: TripleTOF 6600 SCIEX
Instrument type: LC-ESI-QTOF
Ms type: MS2
Ion mode: POSITIVE
Collision energy: 120
Fragmentation mode: CID
Ionization: ESI
Column name: Zorbax Eclipse Plus C18 2.1 mm x 150 mm, 3.5 um, Agilent
Retention time: 11.747 min
Precursor m/z: 267.045
Precursor type: [M+H]+
m/z	relative intensity
37.0081	26
39.0234	53
49.007	21
50.0157	402
51.0236	999
52.0184	59
52.0311	26
61.0075	59
62.0153	123
63.0233	230
65.0386	69
73.0083	32
74.0156	381
75.0225	418
76.0304	64
77.0386	811
78.0407	107
85.0068	32
86.0147	177
87.0232	139
88.0303	26
89.0382	295
98.0153	311
99.0225	145
100.028	48
101.0377	42
102.0462	69
103.0556	26
104.0502	193
110.0141	85
111.0228	32
113.0372	279
114.0335	26
114.0457	59
115.0526	252
122.0145	48
123.0219	21
124.0324	32
125.0377	48
126.0459	333
127.0546	42
128.0564	32
137.0388	32
138.045	42
139.0542	687
140.0501	134
149.0381	53
150.0472	472
151.0526	214
152.0557	26
152.065	69
164.0502	59
166.0675	59
167.0742	53
175.0396	53
177.0569	37
