Mass spectrum: Oxytetracycline; LC-ESI-QTOF; MS2; 50 V
Name: Oxytetracycline
Class: Pharmaceutical
Formula: C22H24N2O9
Exact mass: 460.1482
SMILES: CC1(C2C(C3C(C(=O)C(=C(C3(C(=O)C2=C(C4=C1C=CC=C4O)O)O)O)C(=O)N)N(C)C)O)O
InChI: InChI=1S/C22H24N2O9/c1-21(32)7-5-4-6-8(25)9(7)15(26)10-12(21)17(28)13-14(24(2)3)16(27)11(20(23)31)19(30)22(13,33)18(10)29/h4-6,12-14,17,25-26,28,30,32-33H,1-3H3,(H2,23,31)/t12-,13-,14+,17+,21-,22+/m1/s1
Instrument: TripleTOF 5600 SCIEX
Instrument type: LC-ESI-QTOF
Ms type: MS2
Ion mode: NEGATIVE
Collision energy: 50
Fragmentation mode: CID
Ionization: ESI
Column name: Zorbax Eclipse Plus C18 2.1 mm x 150 mm, 3.5 um, Agilent
Retention time: 5.586 min
Precursor m/z: 459.1409
Precursor type: [M-H]-
m/z	relative intensity
83.0147	48
87.0097	72
96.9952	96
108.023	84
109.03	48
111.0101	216
123.0081	72
124.0188	84
124.9891	180
125.026	144
126.0583	72
134.0212	72
135.0074	84
135.0463	469
137.0262	60
138.0343	60
139.0149	84
142.0161	156
145.0314	108
150.0226	72
151.0005	60
151.0293	144
154.0383	96
157.0641	60
159.0464	132
161.0242	397
162.0283	96
163.0025	60
163.038	373
164.0139	240
165.0464	108
168.0678	60
169.0629	72
172.0546	228
173.0291	48
173.0637	481
174.0335	204
178.0112	72
181.0408	180
183.0492	72
183.0842	96
185.0625	84
186.0634	60
187.0416	180
188.0497	132
189.058	132
195.0452	60
195.0791	84
196.0536	60
199.0796	168
200.0502	120
201.0564	565
203.0362	84
203.0731	132
209.0642	108
210.0763	108
211.0786	144
215.0394	72
218.0241	84
223.0764	168
224.0489	168
225.0583	240
225.0884	60
226.0601	48
227.0748	228
231.032	72
233.0604	48
235.0374	120
235.0515	84
237.0611	60
238.0627	96
239.0711	240
240.0468	60
243.0708	156
245.0449	216
248.0446	60
249.0585	156
251.0757	108
252.0425	144
253.0522	999
253.0867	60
254.0586	180
255.0684	337
256.0375	96
261.0532	96
263.0737	120
265.0497	60
265.0929	72
266.0562	72
266.0712	72
267.0676	842
271.0632	385
271.1038	60
273.0709	72
274.0437	84
274.0555	60
277.0527	96
279.0726	108
289.0732	288
290.0535	72
291.0648	120
292.035	72
293.0458	132
309.072	108
311.0589	192
312.1244	361
317.0441	72
318.0539	72
318.1063	84
319.0417	72
353.0853	72
354.0665	132
374.125	854
