Mass spectrum: Desmethylranitidine; LC-ESI-QTOF; MS2; 70 V
Name: Desmethylranitidine
Class: Pharmaceutical; Transformation_product
Formula: C12H20N4O3S
Exact mass: 300.1256
SMILES: CNCC1=CC=C(O1)CSCCNC(=C[N+](=O)[O-])NC
InChI: InChI=1S/C12H20N4O3S/c1-13-7-10-3-4-11(19-10)9-20-6-5-15-12(14-2)8-16(17)18/h3-4,8,13-15H,5-7,9H2,1-2H3
Instrument: TripleTOF 5600 SCIEX
Instrument type: LC-ESI-QTOF
Ms type: MS2
Ion mode: POSITIVE
Collision energy: 70
Fragmentation mode: CID
Ionization: ESI
Column name: Zorbax Eclipse Plus C18 2.1 mm x 150 mm, 3.5 um, Agilent
Retention time: 4.769 min
Precursor m/z: 301.1329
Precursor type: [M+H]+
m/z	relative intensity
42.043	53
44.0597	21
53.045	102
54.0392	10
55.0455	37
55.0544	16
56.0544	110
57.0512	24
58.9989	16
60.0076	21
65.0426	24
66.0522	16
67.0582	24
68.0537	80
70.0713	18
73.0163	16
74.0109	18
77.0414	228
78.0391	37
78.0505	18
79.0577	99
80.0157	21
80.0516	102
81.0361	942
82.055	45
83.0497	18
83.0631	77
84.072	26
85.0387	18
88.0226	16
88.0307	10
90.0406	13
91.0563	75
92.0514	21
93.0593	64
94.0425	16
94.0663	80
95.0557	59
96.0561	16
96.0696	40
96.0798	56
97.0113	72
97.0317	13
97.0771	486
98.0844	40
101.0329	10
102.0379	999
103.0531	13
104.0498	142
105.0327	13
105.0595	26
105.0718	10
106.0651	59
107.0494	290
108.0427	13
108.0779	21
109.0102	18
109.0286	13
109.0758	21
110.0712	10
114.04	16
115.0358	26
116.0483	13
117.0532	53
118.066	72
119.0596	40
120.0759	56
121.0764	96
122.0568	21
123.025	29
124.0759	18
125.0052	263
129.0482	61
130.0561	120
131.038	18
131.0641	48
132.0438	185
133.0132	16
133.0516	161
133.0752	40
134.0614	21
135.0266	16
135.0911	75
137.0028	16
139.0349	21
146.0591	18
147.0923	21
148.0763	64
149.0698	24
150.0366	48
151.0211	21
163.097	16
177.1031	16
