Mass spectrum: Dipyridamole; LC-ESI-QTOF; MS2; 130 V
Name: Dipyridamole
Class: Pharmaceutical
Formula: C24H40N8O4
Exact mass: 504.3173
SMILES: OCCN(CCO)c1nc(N2CCCCC2)c3nc(nc(N4CCCCC4)c3n1)N(CCO)CCO
InChI: InChI=1S/C24H40N8O4/c33-15-11-31(12-16-34)23-26-20-19(21(27-23)29-7-3-1-4-8-29)25-24(32(13-17-35)14-18-36)28-22(20)30-9-5-2-6-10-30/h33-36H,1-18H2
Instrument: TripleTOF 5600 SCIEX
Instrument type: LC-ESI-QTOF
Ms type: MS2
Ion mode: POSITIVE
Collision energy: 130
Fragmentation mode: CID
Ionization: ESI
Column name: Zorbax Eclipse Plus C18 2.1 mm x 150 mm, 3.5 um, Agilent
Retention time: 7.666 min
Precursor m/z: 505.3245
Precursor type: [M+H]+
m/z	relative intensity
56.0544	58
67.031	88
67.0569	73
68.0511	117
69.0464	88
70.0672	73
77.0154	58
78.0352	73
79.0302	117
80.0251	73
80.0507	73
81.0454	146
82.0686	73
84.082	190
91.0298	73
92.0263	161
92.0362	58
92.051	88
93.0332	58
93.0457	190
94.0406	279
94.053	58
94.0706	73
95.0599	73
96.0542	102
103.0297	117
104.0261	117
104.0475	73
105.0446	220
106.0395	543
107.0344	88
107.0476	58
108.0554	176
109.0503	117
117.0443	176
118.0395	499
119.0329	543
119.0633	73
120.0519	381
121.0503	367
121.0719	73
122.0562	58
129.0448	88
130.0395	205
131.0328	132
131.0589	146
132.0295	88
132.0523	572
133.0502	896
134.0461	367
134.0584	352
135.0648	426
136.061	102
141.0437	73
142.0388	102
143.035	161
143.0596	58
144.0403	176
144.0555	205
145.0496	587
146.048	617
147.0528	102
147.0652	381
148.0594	440
149.07	176
150.0767	58
156.0563	176
157.0504	323
158.0497	499
158.0714	117
159.0404	102
159.0653	455
160.0619	999
161.0571	558
161.0774	190
162.077	411
163.0757	132
169.049	176
170.0454	146
170.0648	161
171.065	279
172.061	675
173.0678	822
174.0396	58
174.0759	572
175.0717	558
176.0681	161
176.0907	117
177.0883	88
183.0651	249
184.0617	396
185.0557	470
185.0832	132
186.076	499
187.0718	940
188.0645	117
188.091	381
189.0881	367
190.0859	220
191.0924	58
195.0653	132
196.0655	146
197.0728	249
198.0753	323
199.0734	396
200.0802	910
201.0734	117
201.0879	411
202.0848	411
202.1051	132
203.1006	205
204.0982	146
210.0749	235
211.0724	205
211.0877	88
212.0729	132
212.093	161
213.0871	587
214.0847	367
214.1097	58
215.0994	279
216.0965	279
216.1265	73
217.0945	132
217.1151	73
217.128	88
222.0948	88
223.0737	117
224.0914	102
225.0876	308
226.0873	235
227.1023	308
228.1009	381
228.1272	102
229.1026	88
229.1169	88
230.1137	73
231.1028	73
236.0881	73
237.0884	176
238.0814	73
238.1021	146
239.1036	190
240.1014	205
241.0939	88
241.1171	205
242.1152	102
243.1076	73
251.1037	102
252.0963	73
253.1196	88
254.1137	146
255.134	102
256.126	73
258.1021	73
259.1227	58
266.1177	58
267.1075	73
268.1251	58
269.1498	88
278.1171	88
