Mass spectrum: Hydroxytorasemide; LC-ESI-QTOF; MS2; 120 V
Name: Hydroxytorasemide
Class: Pharmaceutical; Transformation_product
Formula: C16H20N4O4S
Exact mass: 364.1205
SMILES: CC(C)NC(=O)NS(=O)(=O)c1cnccc1Nc2cccc(c2)CO
InChI: InChI=1S/C16H20N4O4S/c1-11(2)18-16(22)20-25(23,24)15-9-17-7-6-14(15)19-13-5-3-4-12(8-13)10-21/h3-9,11,21H,10H2,1-2H3,(H,17,19)(H2,18,20,22)
Instrument: TripleTOF 5600 SCIEX
Instrument type: LC-ESI-QTOF
Ms type: MS2
Ion mode: POSITIVE
Collision energy: 120
Fragmentation mode: CID
Ionization: ESI
Column name: Zorbax Eclipse Plus C18 2.1 mm x 150 mm, 3.5 um, Agilent
Retention time: 5.824 min
Precursor m/z: 365.1278
Precursor type: [M+H]+
m/z	relative intensity
51.0307	50
65.0418	74
67.0444	10
74.0185	46
75.0255	130
76.0186	10
76.0347	13
77.0415	282
78.0347	29
79.0453	23
86.0155	11
87.0227	32
88.0319	107
89.04	480
90.0469	91
91.0542	25
99.0224	16
100.0269	11
101.0386	161
102.0448	72
103.0306	10
103.0542	24
104.0461	20
113.0378	202
114.0451	303
115.0536	999
116.0487	108
117.0563	110
118.0531	15
125.0363	42
126.0453	100
127.0542	251
128.0488	291
129.0483	79
130.0629	23
131.0616	12
139.0428	31
140.0489	606
141.0565	187
142.057	91
143.0673	14
152.0479	80
153.0563	125
154.0647	191
155.0614	101
156.0681	18
166.0526	60
167.0601	108
168.0677	273
169.0756	159
179.0589	163
180.0671	74
181.0752	722
182.0839	110
187.0301	14
197.0718	30
