Mass spectrum: 4-Hydroxytrimethoprim; LC-ESI-QTOF; MS2; 120 V
Name: 4-Hydroxytrimethoprim
Class: Pharmaceutical; Transformation_product
Formula: C14H18N4O4
Exact mass: 306.1328
SMILES: COc1cc(cc(c1OC)OC)Cc2c(nc(nc2O)N)N
InChI: InChI=1S/C14H18N4O4/c1-20-9-5-7(6-10(21-2)11(9)22-3)4-8-12(15)17-14(16)18-13(8)19/h5-6H,4H2,1-3H3,(H5,15,16,17,18,19)
Instrument: TripleTOF 5600 SCIEX
Instrument type: LC-ESI-QTOF
Ms type: CID
Ion mode: NEGATIVE
Collision energy: 120
Ionization: ESI
Column name: Zorbax Eclipse Plus C18 2.1 mm x 150 mm, 3.5 um, Agilent
Retention time: 5.43 min
Precursor m/z: 305.1255
Precursor type: [M-H]-
m/z	relative intensity
41.0176	999
41.0307	222
41.0412	111
42.0006	555
42.0087	111
65.0071	111
65.0137	222
65.9933	111
65.999	111
66.0089	444
74.0084	111
88.0175	111
89.0272	111
90.0369	111
103.0295	111
115.0287	333
118.0343	111
119.012	111
119.032	111
