Mass spectrum: Iohexol; LC-ESI-QTOF; MS2; 60 V
Name: Iohexol
Class: Pharmaceutical
Formula: C19H26I3N3O9
Exact mass: 820.8803
SMILES: CC(=O)N(CC(O)CO)c1c(I)c(C(=O)NCC(O)CO)c(I)c(C(=O)NCC(O)CO)c1I
InChI: InChI=1S/C19H26I3N3O9/c1-8(29)25(4-11(32)7-28)17-15(21)12(18(33)23-2-9(30)5-26)14(20)13(16(17)22)19(34)24-3-10(31)6-27/h9-11,26-28,30-32H,2-7H2,1H3,(H,23,33)(H,24,34)
Instrument: TripleTOF 5600 SCIEX
Instrument type: LC-ESI-QTOF
Ms type: MS2
Ion mode: POSITIVE
Collision energy: 60
Fragmentation mode: CID
Ionization: ESI
Column name: Zorbax Eclipse Plus C18 2.1 mm x 150 mm, 3.5 um, Agilent
Retention time: 4.533 min
Precursor m/z: 821.8876
Precursor type: [M+H]+
m/z	relative intensity
175.0258	17
187.0588	21
204.0549	17
247.0722	38
248.0819	24
271.949	17
273.9373	35
285.9335	24
285.9649	31
300.9254	14
301.9315	127
307.0926	21
312.9537	21
313.9646	24
321.1099	120
325.9345	17
326.9576	28
327.9515	14
328.9524	14
339.9469	35
341.9623	21
342.9345	24
344.9732	24
346.9967	14
350.9873	56
356.9763	70
357.9584	190
359.9731	35
362.9851	88
372.9672	31
373.9756	14
374.985	999
375.9652	45
382.8516	14
384.8422	31
386.9859	21
389.0015	31
395.858	17
397.8498	14
398.9822	31
400.9674	21
402.9872	17
403.0205	81
411.8306	63
412.9995	49
413.8156	81
416.997	31
423.8053	14
424.8347	24
425.8176	60
425.8452	56
427.8318	21
427.8586	14
431.0082	127
433.0293	63
435.0078	120
437.0237	24
439.8231	17
441.8595	14
448.0102	17
448.0327	14
448.0507	17
449.0195	264
451.829	398
452.8346	17
458.8879	35
466.0503	38
469.8406	84
482.8778	38
484.8662	88
486.8667	21
498.8605	74
500.8812	660
501.8903	165
510.8677	49
512.8795	60
514.8636	49
524.8775	63
528.8773	621
542.8946	388
557.937	24
560.9018	285
565.7258	17
573.9274	38
575.9236	38
579.7371	38
583.729	21
591.9436	84
602.9107	116
626.7804	642
639.77	63
640.7972	35
652.7994	105
656.7902	232
670.8072	38
803.8808	155
