Mass spectrum: 4-Hydroxytrimethoprim; LC-ESI-QTOF; MS2; 100 V
Name: 4-Hydroxytrimethoprim
Class: Pharmaceutical; Transformation_product
Formula: C14H18N4O4
Exact mass: 306.1328
SMILES: COc1cc(cc(c1OC)OC)Cc2c(nc(nc2O)N)N
InChI: InChI=1S/C14H18N4O4/c1-20-9-5-7(6-10(21-2)11(9)22-3)4-8-12(15)17-14(16)18-13(8)19/h5-6H,4H2,1-3H3,(H5,15,16,17,18,19)
Instrument: TripleTOF 5600 SCIEX
Instrument type: LC-ESI-QTOF
Ms type: MS2
Ion mode: POSITIVE
Collision energy: 100
Fragmentation mode: CID
Ionization: ESI
Column name: Zorbax Eclipse Plus C18 2.1 mm x 150 mm, 3.5 um, Agilent
Retention time: 5.43 min
Precursor m/z: 307.1401
Precursor type: [M+H]+
m/z	relative intensity
43.0365	901
44.0202	78
54.0386	607
55.0229	626
64.0357	117
65.0431	372
66.0498	156
68.0301	156
69.0125	372
69.048	763
75.0262	78
77.041	920
78.0473	78
79.0573	293
80.0162	881
89.0395	999
90.048	195
91.055	352
93.0345	117
94.0424	215
97.0411	724
102.0358	97
105.0335	137
107.0507	137
122.0376	117
139.0634	117
