Mass spectrum: Acetylsulfamethoxazole; LC-ESI-QTOF; MS2; 60 V
Name: Acetylsulfamethoxazole
Class: Metabolite; Pharmaceutical; Transformation_product-Metabolite
Formula: C12H13N3O4S
Exact mass: 295.0627
SMILES: CC1=CC(=NO1)NS(=O)(=O)C2=CC=C(C=C2)NC(=O)C
InChI: InChI=1S/C12H13N3O4S/c1-8-7-12(14-19-8)15-20(17,18)11-5-3-10(4-6-11)13-9(2)16/h3-7H,1-2H3,(H,13,16)(H,14,15)
Instrument: TripleTOF 5600 SCIEX
Instrument type: LC-ESI-QTOF
Ms type: MS2
Ion mode: POSITIVE
Collision energy: 60
Fragmentation mode: CID
Ionization: ESI
Column name: Zorbax Eclipse Plus C18 2.1 mm x 150 mm, 3.5 um, Agilent
Retention time: 7.411 min
Precursor m/z: 296.07
Precursor type: [M+H]+
m/z	relative intensity
43.0271	29
43.0333	24
65.0464	999
66.0511	14
77.0434	110
78.0378	27
79.0568	56
80.0537	216
90.0394	12
91.0451	22
92.0523	296
93.0363	78
93.0601	223
94.0676	80
99.0577	22
106.0661	66
107.0618	44
108.0462	446
118.0538	12
119.0619	39
129.0466	12
131.0642	36
132.0672	19
133.0664	12
134.0594	108
140.02	12
143.0572	27
146.0714	108
147.077	41
159.0779	12
160.0882	39
176.0288	12
