Mass spectrum: Ofloxacin; LC-ESI-QTOF; MS2; 100 V
Name: Ofloxacin
Class: Antimicrobial; Pharmaceutical
Formula: C18H20FN3O4
Exact mass: 361.1438
SMILES: CC1COC2=C3N1C=C(C(=O)C3=CC(=C2N4CCN(CC4)C)F)C(=O)O
InChI: InChI=1S/C18H20FN3O4/c1-10-9-26-17-14-11(16(23)12(18(24)25)8-22(10)14)7-13(19)15(17)21-5-3-20(2)4-6-21/h7-8,10H,3-6,9H2,1-2H3,(H,24,25)
Instrument: TripleTOF 5600 SCIEX
Instrument type: LC-ESI-QTOF
Ms type: MS2
Ion mode: POSITIVE
Collision energy: 100
Fragmentation mode: CID
Ionization: ESI
Column name: Zorbax Eclipse Plus C18 2.1 mm x 150 mm, 3.5 um, Agilent
Retention time: 5.185 min
Precursor m/z: 362.1511
Precursor type: [M+H]+
m/z	relative intensity
42.0449	54
56.0591	43
58.0711	65
70.0725	119
72.0862	43
74.0191	260
75.0117	54
75.0257	575
76.0225	184
77.0429	162
78.041	108
81.0188	108
82.0703	76
83.0311	173
87.0282	65
88.0245	108
89.0394	228
90.0364	141
91.045	65
93.0191	54
94.0211	65
94.0284	54
95.0311	575
96.0292	271
97.0332	86
100.0203	325
101.0411	152
102.0345	521
103.0406	108
103.0539	54
104.0142	54
104.0494	347
107.0295	456
108.028	206
109.0402	65
109.0501	43
110.0411	108
113.04	65
114.0358	184
115.0388	65
115.0567	173
116.0488	228
117.0501	217
118.0293	76
118.0614	54
119.0173	54
120.0251	228
121.0355	206
122.0411	999
123.0491	249
125.0339	54
126.0333	86
126.0475	54
127.0332	97
127.0523	76
128.05	228
129.0438	325
130.0324	141
130.0669	65
132.0249	152
133.0464	423
134.0401	293
135.0276	54
135.0467	217
136.0203	54
137.0529	108
138.0334	152
139.0465	65
140.0482	162
141.0441	86
141.0553	141
142.051	86
142.0648	54
143.064	108
144.0443	86
144.0685	43
145.0433	43
146.0398	162
147.0364	228
147.0479	65
148.0236	119
148.0563	304
149.0504	130
150.035	293
151.043	314
152.037	184
152.0505	65
154.068	76
155.0591	206
156.048	54
157.0412	184
158.0241	108
158.0435	86
159.0474	184
160.0445	43
160.0589	65
161.0556	173
162.029	54
162.0411	76
163.0273	54
163.0575	43
164.0501	65
165.0432	271
166.0358	108
167.067	54
168.0704	65
169.0746	86
170.0567	97
171.0591	43
172.0571	119
174.053	43
175.0269	54
175.0403	86
176.0444	86
178.0339	76
179.0226	65
179.0433	65
180.0489	54
182.0716	108
183.0555	76
185.0669	65
186.0612	43
188.0459	54
189.0479	54
193.0353	65
194.0463	130
197.0733	54
204.0471	97
205.0401	173
218.0405	65
