Mass spectrum: Mitomycin C; LC-ESI-QTOF; MS2; 40 V
Name: Mitomycin C
Class: Pharmaceutical
Formula: C15H18N4O5
Exact mass: 334.1277
SMILES: CO[C@@]12[C@H](COC(N)=O)C3=C(N1C[C@@H]4N[C@H]24)C(=O)C(=C(N)C3=O)C
InChI: InChI=1S/C15H18N4O5/c1-5-9(16)12(21)8-6(4-24-14(17)22)15(23-2)13-7(18-13)3-19(15)10(8)11(5)20/h6-7,13,18H,3-4,16H2,1-2H3,(H2,17,22)/t6-,7+,13+,15-/m1/s1
Instrument: TripleTOF 5600 SCIEX
Instrument type: LC-ESI-QTOF
Ms type: MS2
Ion mode: NEGATIVE
Collision energy: 40
Fragmentation mode: CID
Ionization: ESI
Column name: Zorbax Eclipse Plus C18 2.1 mm x 150 mm, 3.5 um, Agilent
Retention time: 5.588 min
Precursor m/z: 333.1204
Precursor type: [M-H]-
m/z	relative intensity
42.0023	199
60.0106	399
112.986	99
175.0521	399
201.0684	299
203.0461	499
216.0538	99
227.0522	99
227.0677	699
228.0774	999
230.0889	99
242.0939	299
258.0895	399
258.1031	99
272.1053	799
290.1167	499
