Mass spectrum: 1-(2,6-Dichlorophenyl)-2-indolinone; LC-ESI-QTOF; MS2; 150 V
Name: 1-(2,6-Dichlorophenyl)-2-indolinone
Class: Pharmaceutical; Transformation_product; Diclofenac-lactam
Formula: C14H9Cl2NO
Exact mass: 277.0061
SMILES: C1C2=CC=CC=C2N(C1=O)C3=C(C=CC=C3Cl)Cl
InChI: InChI=1S/C14H9Cl2NO/c15-10-5-3-6-11(16)14(10)17-12-7-2-1-4-9(12)8-13(17)18/h1-7H,8H2
Instrument: TripleTOF 5600 SCIEX
Instrument type: LC-ESI-QTOF
Ms type: MS2
Ion mode: POSITIVE
Collision energy: 150
Fragmentation mode: CID
Ionization: ESI
Column name: Zorbax Eclipse Plus C18 2.1 mm x 150 mm, 3.5 um, Agilent
Retention time: 12.191 min
Precursor m/z: 278.0134
Precursor type: [M+H]+
m/z	relative intensity
49.0198	68
50.0251	465
61.0127	110
62.0219	141
63.0291	223
72.9892	20
73.0128	179
74.0212	999
75.0289	416
76.0359	144
77.0439	482
78.0522	44
79.0588	13
83.9767	17
85.0115	51
86.0189	113
87.0279	79
88.0243	20
89.0423	68
97.0097	51
98.0187	530
99.0263	265
100.0345	86
101.0402	41
102.0493	72
109.0098	48
110.0171	75
111.0251	55
113.0412	34
114.0348	13
122.0168	117
123.0233	96
124.0338	34
125.0407	68
126.0478	86
127.0457	27
134.0128	20
149.0402	82
150.0482	416
151.0523	103
152.0556	55
175.0417	51
176.0497	65
177.0588	48
