Mass spectrum: Triclabendazole; LC-ESI-QTOF; MS2; 120 V
Name: Triclabendazole
Class: Pharmaceutical
Formula: C14H9Cl3N2OS
Exact mass: 357.9501
SMILES: CSc1[nH]c2cc(Cl)c(Oc3cccc(Cl)c3Cl)cc2n1
InChI: InChI=1S/C14H9Cl3N2OS/c1-21-14-18-9-5-8(16)12(6-10(9)19-14)20-11-4-2-3-7(15)13(11)17/h2-6H,1H3,(H,18,19)
Instrument: TripleTOF 5600 SCIEX
Instrument type: LC-ESI-QTOF
Ms type: MS2
Ion mode: POSITIVE
Collision energy: 120
Fragmentation mode: CID
Ionization: ESI
Column name: Zorbax Eclipse Plus C18 2.1 mm x 150 mm, 3.5 um, Agilent
Retention time: 13.11 min
Precursor m/z: 358.9574
Precursor type: [M+H]+
m/z	relative intensity
44.9801	189
48.9848	110
50.0161	49
51.0243	104
52.0195	73
61.0085	36
61.9799	140
62.0154	73
63.0238	165
64.0191	471
65.026	49
65.0371	24
68.9805	98
69.9753	42
72.9846	214
74.0161	128
75.0115	196
75.0237	153
76.019	784
77.0263	73
77.0392	98
78.0345	294
78.9405	91
80.9801	24
81.9876	55
83.9921	49
84.9847	85
85.9797	263
87.0243	30
88.0181	49
88.0295	30
90.0341	91
91.0305	202
92.0379	128
92.9803	104
93.9885	110
95.991	30
96.9851	91
97.9926	30
98.0151	110
99.0242	251
99.9959	502
100.0338	30
101.0398	49
102.0379	24
102.0497	36
102.9403	36
103.03	110
104.0369	49
107.9915	147
108.9999	49
109.984	30
111.0005	55
111.995	153
113.0043	24
113.0401	110
114.0346	42
116.0369	24
116.9588	36
117.0461	42
118.0543	49
119.9926	79
120.9992	134
122.0145	55
123.023	128
124.0272	165
125.0393	441
126.0477	999
127.0066	416
127.0413	73
128.9567	140
135.0013	67
136.0079	98
137.0392	49
138.0366	73
139.0075	85
139.0424	104
140.0511	263
143.9687	61
147.0029	55
148.0096	496
150.0364	128
151.0433	551
152.0495	404
153.0577	128
155.9663	30
157.0139	36
159.0026	67
160.0089	435
161.0158	98
163.0328	42
165.0453	42
166.0574	30
170.9809	183
174.0112	116
177.0475	42
178.0531	36
179.0616	140
180.0474	128
183.016	110
184.0314	30
185.0073	67
186.0115	55
187.0145	36
188.0187	42
189.0112	91
190.0077	24
200.0034	24
211.0286	30
214.0085	85
215.0144	49
222.9707	24
242.024	36
