Mass spectrum: Sudan III; LC-ESI-QTOF; MS2; 50 V
Name: Sudan III
Formula: C22H16N4O
Exact mass: 352.1324
SMILES: C1=CC=C(C=C1)N=NC2=CC=C(C=C2)N=NC3=C(C=CC4=CC=CC=C43)O
InChI: InChI=1S/C22H16N4O/c27-21-15-10-16-6-4-5-9-20(16)22(21)26-25-19-13-11-18(12-14-19)24-23-17-7-2-1-3-8-17/h1-15,27H
Instrument: TripleTOF X500R SCIEX
Instrument type: LC-ESI-QTOF
Ms type: MS2
Ion mode: POSITIVE
Collision energy: 50
Fragmentation mode: CID
Ionization: ESI
Column name: Zorbax Eclipse Plus C18 2.1 mm x 150 mm, 3.5 um, Agilent
Retention time: 19.216 min
Precursor m/z: 353.1397
Precursor type: [M+H]+
m/z	relative intensity
51.023	41
59.0316	99
60.0331	49
65.0391	57
73.0473	24
77.039	920
91.0426	227
92.0499	557
93.0562	24
101.0388	115
102.035	20
105.0466	37
115.0542	400
118.065	20
120.0554	53
128.0498	999
129.0501	33
141.0704	173
143.0501	338
151.0545	20
153.0563	37
156.0455	198
166.0668	20
167.0729	123
168.0805	90
169.077	144
170.0722	53
179.0602	41
181.0768	74
182.0838	33
196.0878	842
197.0946	334
198.1013	28
203.0717	20
218.0865	20
219.0931	45
229.0805	16
231.0902	49
232.088	94
247.0891	41
353.141	20
