Mass spectrum: Bixafen; LC-ESI-QTOF; MS2; 50 V
Name: Bixafen
Class: Fungicide
Formula: C18H12Cl2F3N3O
Exact mass: 413.031
SMILES: CN1C=C(C(=N1)C(F)F)C(=O)NC2=C(C=C(C=C2)F)C3=CC(=C(C=C3)Cl)Cl
InChI: InChI=1S/C18H12Cl2F3N3O/c1-26-8-12(16(25-26)17(22)23)18(27)24-15-5-3-10(21)7-11(15)9-2-4-13(19)14(20)6-9/h2-8,17H,1H3,(H,24,27)
Instrument: TripleTOF 6600 SCIEX
Instrument type: LC-ESI-QTOF
Ms type: MS2
Ion mode: POSITIVE
Collision energy: 50
Fragmentation mode: CID
Ionization: ESI
Column name: Zorbax Eclipse Plus C18 2.1 mm x 150 mm, 3.5 um, Agilent
Retention time: 13.359 min
Precursor m/z: 414.0382
Precursor type: [M+H]+
m/z	relative intensity
42.0346	32
109.0389	74
129.0453	15
134.0343	11
159.0365	116
195.0463	14
196.0555	11
204.0129	200
208.0551	29
229.0079	198
230.0171	24
231.0234	165
233.0553	22
234.0554	16
241.02	11
242.0156	25
243.0247	18
246.0704	23
247.071	33
248.0845	18
255.0272	13
256.0314	26
263.9769	175
265.993	999
267.0257	13
268.0312	73
269.0292	30
270.0349	45
274.0738	17
275.067	13
275.0809	24
276.0909	17
277.9929	49
281.0313	13
282.0471	73
283.0452	62
284.0499	38
289.992	28
290.9885	24
291.0533	22
291.9699	52
293.0291	11
294.0361	17
295.0312	30
296.0375	98
297.0221	21
301.9939	34
303.0007	188
303.0821	72
303.9957	22
304.0865	98
305.0043	54
309.0419	19
310.0536	157
311.039	28
311.0609	17
316.0052	12
317.0084	53
318.0063	11
319.0176	11
319.0531	10
324.0295	13
329.9965	33
331.0171	36
332.0267	14
332.9998	25
337.0367	19
338.0482	698
339.0528	22
346.0294	185
354.0208	14
356.015	22
372.0092	10
374.025	306
