Mass spectrum: Fenpropidin; LC-ESI-QTOF; MS2; 50 V
Name: Fenpropidin
Class: Fungicide
Formula: C19H31N
Exact mass: 273.2456
SMILES: CC(CC1=CC=C(C=C1)C(C)(C)C)CN2CCCCC2
InChI: InChI=1S/C19H31N/c1-16(15-20-12-6-5-7-13-20)14-17-8-10-18(11-9-17)19(2,3)4/h8-11,16H,5-7,12-15H2,1-4H3
Instrument: TripleTOF 6600 SCIEX
Instrument type: LC-ESI-QTOF
Ms type: MS2
Ion mode: POSITIVE
Collision energy: 50
Fragmentation mode: CID
Ionization: ESI
Column name: Zorbax Eclipse Plus C18 2.1 mm x 150 mm, 3.5 um, Agilent
Retention time: 9.471 min
Precursor m/z: 274.2529
Precursor type: [M+H]+
m/z	relative intensity
30.0343	11
39.0229	23
41.0389	76
55.0541	27
57.0702	166
69.0698	64
77.0378	19
79.054	25
84.0807	39
86.0964	393
91.054	189
103.0538	20
104.0612	43
105.0699	519
107.0854	86
115.0537	54
116.0614	10
117.0698	689
119.0855	711
131.0846	63
132.0934	999
145.1007	38
147.1169	972
161.1325	25
274.2552	37
