Mass spectrum: Dextrorphan; LC-ESI-QTOF; MS2; 40 V
Name: Dextrorphan
Class: Pharmaceutical; Metabolite
Formula: C17H23NO
Exact mass: 257.178
SMILES: CN1CC[C@@]23CCCC[C@@H]2[C@@H]1CC4=C3C=C(C=C4)O
InChI: InChI=1S/C17H23NO/c1-18-9-8-17-7-3-2-4-14(17)16(18)10-12-5-6-13(19)11-15(12)17/h5-6,11,14,16,19H,2-4,7-10H2,1H3/t14-,16+,17+/m1/s1
Instrument: TripleTOF 5600 SCIEX
Instrument type: LC-ESI-QTOF
Ms type: MS2
Ion mode: POSITIVE
Collision energy: 40
Fragmentation mode: CID
Ionization: ESI
Column name: Zorbax Eclipse Plus C18 2.1 mm x 150 mm, 3.5 um, Agilent
Retention time: 5.969 min
Precursor m/z: 258.1852
Precursor type: [M+H]+
m/z	relative intensity
44.058	38
69.0729	16
77.0417	21
79.0572	20
81.0727	22
91.0561	27
95.0878	11
103.0547	17
105.0706	82
107.0499	103
115.0545	39
117.0701	30
121.0645	41
127.0544	79
128.0631	110
129.0702	119
131.0493	55
131.0871	24
133.0659	634
141.0706	36
143.0851	10
144.0574	42
145.0656	288
147.0804	22
153.0714	10
157.0658	999
158.0736	14
159.0813	220
165.0703	19
166.0779	12
170.073	10
171.0814	27
171.1167	59
181.1013	29
185.096	51
199.1123	703
201.1278	455
227.1438	29
258.1854	811
