Mass spectrum: Meptazinol; LC-ESI-QTOF; MS2; 80 V
Name: Meptazinol
Class: Pharmaceutical
Formula: C15H23NO
Exact mass: 233.178
SMILES: CCC1(CCCCN(C1)C)C2=CC(=CC=C2)O
InChI: InChI=1S/C15H23NO/c1-3-15(9-4-5-10-16(2)12-15)13-7-6-8-14(17)11-13/h6-8,11,17H,3-5,9-10,12H2,1-2H3
Instrument: TripleTOF 5600 SCIEX
Instrument type: LC-ESI-QTOF
Ms type: MS2
Ion mode: POSITIVE
Collision energy: 80
Fragmentation mode: CID
Ionization: ESI
Column name: Zorbax Eclipse Plus C18 2.1 mm x 150 mm, 3.5 um, Agilent
Retention time: 5.641 min
Precursor m/z: 234.1852
Precursor type: [M+H]+
m/z	relative intensity
39.0225	28
41.0385	14
44.0493	52
50.0148	26
51.0228	142
53.0382	15
55.0176	35
55.0533	14
63.0224	12
65.0383	46
67.0534	11
70.0655	13
77.0386	999
78.0459	24
79.0543	112
81.0333	14
89.0381	18
91.0542	74
102.0458	14
103.0541	92
105.0703	20
107.0492	161
115.0537	90
117.0689	13
127.0537	48
128.0608	33
131.0496	64
