Mass spectrum: (Ethoxycarbonylmethyl)triphenylphosphonium; LC-ESI-QTOF; MS2; 130 V
Name: (Ethoxycarbonylmethyl)triphenylphosphonium
Formula: [C22H22O2P]+
Exact mass: 349.1352
SMILES: CCOC(=O)C[P+](C1=CC=CC=C1)(C2=CC=CC=C2)C3=CC=CC=C3
InChI: InChI=1S/C22H22O2P/c1-2-24-22(23)18-25(19-12-6-3-7-13-19,20-14-8-4-9-15-20)21-16-10-5-11-17-21/h3-17H,2,18H2,1H3/q+1
Instrument: TripleTOF 6600 SCIEX
Instrument type: LC-ESI-QTOF
Ms type: MS2
Ion mode: POSITIVE
Collision energy: 130
Fragmentation mode: CID
Ionization: ESI
Column name: Zorbax Eclipse Plus C18 2.1 mm x 150 mm, 3.5 um, Agilent
Retention time: 8 min
Precursor m/z: 349.1352
Precursor type: [M]+
m/z	relative intensity
56.9869	56
63.0208	85
65.0361	51
77.0356	61
79.9777	93
80.9855	155
89.0344	171
102.0427	77
107.001	668
113.0348	59
115.0507	369
126.043	170
131.0011	63
133.0165	74
139.0511	328
150.0435	125
151.0512	394
152.0593	999
156.0092	59
157.0171	505
181.0176	335
183.033	252
226.0749	65
