Mass spectrum: Sildenafil; LC-ESI-QTOF; MS2; 80 V
Name: Sildenafil
Class: Pharmaceutical
Formula: C22H30N6O4S
Exact mass: 474.2049
SMILES: CCCC1=NN(C2=C1NC(=NC2=O)C3=C(C=CC(=C3)S(=O)(=O)N4CCN(CC4)C)OCC)C
InChI: InChI=1S/C22H30N6O4S/c1-5-7-17-19-20(27(4)25-17)22(29)24-21(23-19)16-14-15(8-9-18(16)32-6-2)33(30,31)28-12-10-26(3)11-13-28/h8-9,14H,5-7,10-13H2,1-4H3,(H,23,24,29)
Instrument: TripleTOF 5600 SCIEX
Instrument type: LC-ESI-QTOF
Ms type: MS2
Ion mode: POSITIVE
Collision energy: 80
Fragmentation mode: CID
Ionization: ESI
Column name: Zorbax Eclipse Plus C18 2.1 mm x 150 mm, 3.5 um, Agilent
Retention time: 7.283 min
Precursor m/z: 475.2122
Precursor type: [M+H]+
m/z	relative intensity
42.0462	40
44.0604	12
56.059	82
58.0748	999
69.053	16
70.0716	106
84.0725	22
91.0554	11
92.0501	14
95.0617	22
97.0797	23
99.0954	68
100.1023	25
107.0626	11
117.0503	12
118.0549	18
122.0362	12
129.0455	14
130.0604	14
131.0598	18
136.051	88
145.0412	18
146.0601	12
155.0585	25
156.0568	14
157.0682	20
158.0466	11
158.0762	18
159.0557	18
166.0983	79
168.0565	11
169.0749	12
170.073	23
171.0799	27
174.0667	12
176.0826	11
181.0709	12
182.0682	11
183.0599	33
183.083	11
184.056	20
184.084	25
185.0596	12
185.0889	14
186.0682	25
195.0617	12
196.0889	11
197.083	53
198.0653	25
198.0887	49
199.0747	23
200.0829	16
208.0789	11
209.0562	14
210.066	18
211.0598	91
211.0905	16
212.0704	57
212.1205	11
213.0774	51
214.086	14
214.101	12
223.0738	11
225.0772	231
226.0853	143
227.0945	84
227.1253	18
228.117	11
236.0684	11
238.0969	36
239.0599	90
239.0906	58
240.0659	12
240.1035	31
241.0742	29
241.1053	20
249.0802	16
253.0712	174
253.1146	18
254.0798	200
254.1236	12
255.0928	57
255.126	119
256.1005	40
267.0861	38
267.1254	18
268.0951	14
269.102	20
278.1179	18
283.12	147
284.1284	45
285.1347	12
299.1139	34
312.1589	29
