Mass spectrum: Xipamide; LC-ESI-QTOF; MS2; 60 V
Name: Xipamide
Class: Pharmaceutical
Formula: C15H15ClN2O4S
Exact mass: 354.0441
SMILES: CC1=C(C(=CC=C1)C)NC(=O)C2=CC(=C(C=C2O)Cl)S(=O)(=O)N
InChI: InChI=1S/C15H15ClN2O4S/c1-8-4-3-5-9(2)14(8)18-15(20)10-6-13(23(17,21)22)11(16)7-12(10)19/h3-7,19H,1-2H3,(H,18,20)(H2,17,21,22)
Instrument: TripleTOF 5600 SCIEX
Instrument type: LC-ESI-QTOF
Ms type: CID
Ion mode: NEGATIVE
Collision energy: 60
Ionization: ESI
Column name: Zorbax Eclipse Plus C18 2.1 mm x 150 mm, 3.5 um, Agilent
Retention time: 10.655 min
Precursor m/z: 353.0368
Precursor type: [M-H]-
m/z	relative intensity
34.9689	70
77.9647	999
78.0345	112
94.0287	126
105.0215	154
120.082	140
122.0252	168
125.9871	154
126.9956	689
141.9853	112
169.9917	168
273.0578	337
