Mass spectrum: Rhein; LC-ESI-QTOF; MS2; 80 V
Name: Rhein
Class: Metabolite
Formula: C15H8O6
Exact mass: 284.0321
SMILES: C1=CC2=C(C(=C1)O)C(=O)C3=C(C=C(C=C3C2=O)C(=O)O)O
InChI: InChI=1S/C15H8O6/c16-9-3-1-2-7-11(9)14(19)12-8(13(7)18)4-6(15(20)21)5-10(12)17/h1-5,16-17H,(H,20,21)
Instrument: TripleTOF 5600 SCIEX
Instrument type: LC-ESI-QTOF
Ms type: MS2
Ion mode: NEGATIVE
Collision energy: 80
Fragmentation mode: CID
Ionization: ESI
Column name: Zorbax Eclipse Plus C18 2.1 mm x 150 mm, 3.5 um, Agilent
Retention time: 10.796 min
Precursor m/z: 283.0248
Precursor type: [M-H]-
m/z	relative intensity
41.0025	101
65.0017	407
89.0024	122
89.0387	244
91.018	795
101.0394	224
117.034	285
137.0399	999
141.0379	81
154.0425	937
155.0514	163
165.0344	285
182.0383	876
183.0433	326
