Mass spectrum: Prednisone; LC-ESI-QTOF; MS2; 70 V
Name: Prednisone
Class: Pharmaceutical
Formula: C21H26O5
Exact mass: 358.178
SMILES: C[C@]12CC(=O)[C@H]3[C@@H](CCC4=CC(=O)C=C[C@]34C)[C@@H]1CC[C@]2(O)C(=O)CO
InChI: InChI=1S/C21H26O5/c1-19-7-5-13(23)9-12(19)3-4-14-15-6-8-21(26,17(25)11-22)20(15,2)10-16(24)18(14)19/h5,7,9,14-15,18,22,26H,3-4,6,8,10-11H2,1-2H3/t14-,15-,18+,19-,20-,21-/m0/s1
Instrument: TripleTOF 5600 SCIEX
Instrument type: LC-ESI-QTOF
Ms type: MS2
Ion mode: POSITIVE
Collision energy: 70
Fragmentation mode: CID
Ionization: ESI
Column name: Zorbax Eclipse Plus C18 2.1 mm x 150 mm, 3.5 um, Agilent
Retention time: 8.469 min
Precursor m/z: 359.1853
Precursor type: [M+H]+
m/z	relative intensity
43.025	120
53.0437	17
55.0239	31
55.0584	71
65.0414	66
67.0576	160
69.0368	40
71.0512	22
77.0409	508
78.0534	26
79.056	325
81.0709	173
83.0509	17
89.05	22
91.0556	999
91.0827	22
93.0703	191
95.049	75
95.0863	182
103.0538	102
104.0605	35
105.0346	17
105.0698	307
107.0488	138
107.0845	80
109.0642	53
111.0785	22
115.0529	517
116.061	156
117.0694	298
119.0848	325
119.1101	22
121.0636	410
127.0524	160
128.0609	579
128.0807	22
129.0692	263
130.076	84
131.0487	218
131.0835	124
131.0989	31
132.0565	347
133.0632	35
133.1001	35
135.0809	35
139.0508	26
140.0628	17
141.0686	468
142.0785	98
143.0838	102
144.056	272
145.0641	450
145.0992	22
146.0714	182
147.0796	557
151.056	53
152.0609	267
153.0691	258
153.1079	22
154.0769	66
155.053	26
155.0851	111
156.0914	31
157.0644	214
157.0991	22
158.0713	454
159.0794	236
161.0938	44
164.063	26
165.0691	566
166.0779	133
167.0852	156
168.0562	102
168.0889	44
169.064	298
169.0985	22
170.0718	89
171.0795	593
172.0863	35
173.0955	98
176.062	31
177.069	57
178.0761	423
179.0842	566
180.092	66
181.0639	445
181.1008	40
182.0725	222
183.0792	138
184.0879	57
185.0955	62
189.0686	218
190.0776	151
191.085	258
192.092	89
193.0998	142
194.0711	249
194.1063	35
195.0792	419
196.086	147
197.0961	129
201.0698	35
202.0769	222
203.0843	209
204.0923	80
205.0637	115
205.1005	156
206.0715	80
206.1121	40
207.0791	472
207.1182	53
208.0873	356
209.0959	178
210.1002	44
211.1118	40
213.0673	40
215.0857	231
216.0934	53
217.1021	80
218.0712	138
218.1133	22
219.08	196
219.1131	31
220.0868	111
221.095	352
222.1023	178
223.0766	31
223.1116	98
225.0887	17
226.0795	31
227.0842	53
228.0935	84
229.0997	98
230.1096	17
231.0791	182
231.1131	22
232.0874	147
233.0928	196
234.1025	102
235.1104	71
237.1266	26
239.0844	44
241.0998	17
243.1125	26
244.0875	57
245.095	133
246.1047	53
247.0734	22
247.1127	84
248.1178	35
249.1275	35
257.1025	22
259.1057	49
