Mass spectrum: O-desmethyl-metoprolol; LC-ESI-QTOF; MS2; 50 V
Name: O-desmethyl-metoprolol
Class: Pharmaceutical; Metabolite; Transformation_product
Formula: C14H23NO3
Exact mass: 253.1678
SMILES: CC(C)NCC(O)COc1ccc(CCO)cc1
InChI: InChI=1S/C14H23NO3/c1-11(2)15-9-13(17)10-18-14-5-3-12(4-6-14)7-8-16/h3-6,11,13,15-17H,7-10H2,1-2H3
Instrument: TripleTOF 5600 SCIEX
Instrument type: LC-ESI-QTOF
Ms type: MS2
Ion mode: POSITIVE
Collision energy: 50
Fragmentation mode: CID
Ionization: ESI
Column name: Zorbax Eclipse Plus C18 2.1 mm x 150 mm, 3.5 um, Agilent
Retention time: 5.112 min
Precursor m/z: 254.1751
Precursor type: [M+H]+
m/z	relative intensity
43.0252	30
55.0251	28
56.056	418
58.0705	89
65.0433	30
72.0843	134
74.0633	187
77.0417	999
78.0498	12
79.0565	247
81.0739	10
84.0826	21
91.0556	988
93.0702	126
98.0958	42
100.1117	32
102.046	34
103.0545	639
104.063	12
105.047	16
105.0699	404
107.0487	41
107.0858	12
115.0542	245
116.0613	171
116.1055	34
117.0694	38
119.0855	12
121.0643	311
127.0522	15
128.0622	49
129.0686	89
131.0484	52
131.0838	59
133.064	299
141.0683	67
144.0555	182
147.0796	19
148.075	56
149.0692	138
151.0742	24
159.08	41
