Mass spectrum: Tris(4-methylphenyl) phosphate; LC-ESI-QTOF; MS2; 60 V
Name: Tris(4-methylphenyl) phosphate
Class: Industrial_process
Formula: C21H21O4P
Exact mass: 368.1177
SMILES: CC1=CC=C(C=C1)OP(=O)(OC2=CC=C(C=C2)C)OC3=CC=C(C=C3)C
InChI: InChI=1S/C21H21O4P/c1-16-4-10-19(11-5-16)23-26(22,24-20-12-6-17(2)7-13-20)25-21-14-8-18(3)9-15-21/h4-15H,1-3H3
Instrument: TripleTOF 6600 SCIEX
Instrument type: LC-ESI-QTOF
Ms type: MS2
Ion mode: POSITIVE
Collision energy: 60
Fragmentation mode: CID
Ionization: ESI
Column name: Zorbax Eclipse Plus C18 2.1 mm x 150 mm, 3.5 um, Agilent
Retention time: 15.924 min
Precursor m/z: 369.125
Precursor type: [M+H]+
m/z	relative intensity
39.0221	10
65.0381	211
77.0377	37
79.0533	33
91.054	540
107.0486	55
109.0643	12
115.0533	10
141.0696	23
152.0623	23
153.0098	12
153.07	18
164.0623	12
165.071	999
166.0786	242
178.0785	60
179.0858	36
180.0941	12
181.0654	29
195.0817	97
196.0895	124
200.039	12
215.0626	18
239.0875	27
240.0958	28
241.103	32
243.059	74
255.1189	29
