Mass spectrum: Fluorescein; LC-ESI-QTOF; MS2; 120 V
Name: Fluorescein
Class: Industrial_process; Pharmaceutical
Formula: C20H12O5
Exact mass: 332.0685
SMILES: C1=CC=C2C(=C1)C(=O)OC23C4=C(C=C(C=C4)O)OC5=C3C=CC(=C5)O
InChI: InChI=1S/C20H12O5/c21-11-5-7-15-17(9-11)24-18-10-12(22)6-8-16(18)20(15)14-4-2-1-3-13(14)19(23)25-20/h1-10,21-22H
Instrument: TripleTOF 5600 SCIEX
Instrument type: LC-ESI-QTOF
Ms type: MS2
Ion mode: POSITIVE
Collision energy: 120
Fragmentation mode: CID
Ionization: ESI
Column name: Zorbax Eclipse Plus C18 2.1 mm x 150 mm, 3.5 um, Agilent
Retention time: 9.527 min
Precursor m/z: 333.0757
Precursor type: [M+H]+
m/z	relative intensity
51.022	16
63.0223	10
68.9957	14
74.015	12
75.022	22
76.0296	12
77.0379	50
78.0463	12
87.0227	14
89.0389	32
98.0153	12
99.0227	10
101.0383	16
102.0467	42
113.0363	20
115.0545	56
122.0149	12
124.0275	14
125.0395	18
126.0454	54
127.0537	30
128.0598	14
137.0397	14
139.0522	76
149.0396	46
150.0462	114
151.0551	194
152.0622	136
161.0384	28
162.0474	50
163.0541	194
164.0602	38
165.0695	46
174.0464	96
175.0547	112
176.0613	224
185.0377	36
186.051	50
187.0539	355
188.0616	116
189.0701	188
198.0455	54
199.0548	142
200.0626	999
201.07	357
202.0776	276
209.0427	16
210.0472	18
211.0532	194
212.0628	74
213.0696	266
222.0429	16
223.0536	14
224.0658	22
229.0659	36
258.0673	12
