Mass spectrum: Amoxicillin; LC-ESI-QTOF; MS2; 40 V
Name: Amoxicillin
Class: Pharmaceutical
Formula: C16H19N3O5S
Exact mass: 365.1045
SMILES: CC1(S[C@@H]2[C@@H](C(N2[C@H]1C(O)=O)=O)NC([C@@H](c3ccc(O)cc3)N)=O)C
InChI: InChI=1S/C16H19N3O5S/c1-16(2)11(15(23)24)19-13(22)10(14(19)25-16)18-12(21)9(17)7-3-5-8(20)6-4-7/h3-6,9-11,14,20H,17H2,1-2H3,(H,18,21)(H,23,24)/t9-,10-,11+,14-/m1/s1
Instrument: TripleTOF 5600 SCIEX
Instrument type: LC-ESI-QTOF
Ms type: MS2
Ion mode: POSITIVE
Collision energy: 40
Fragmentation mode: CID
Ionization: ESI
Column name: Zorbax Eclipse Plus C18 2.1 mm x 150 mm, 3.5 um, Agilent
Retention time: 4.706 min
Precursor m/z: 366.1118
Precursor type: [M+H]+
m/z	relative intensity
70.0686	84
86.0079	94
106.0686	36
107.05	63
114.0014	999
114.0365	84
116.0503	31
122.0646	26
133.0506	21
134.0594	452
137.0058	89
137.0703	94
139.0236	26
160.0423	120
162.0559	68
163.022	42
165.0667	126
178.0326	94
180.0476	68
193.0598	21
211.0721	31
234.0206	26
