Mass spectrum: Napropamide; LC-ESI-QTOF; MS2; 50 V
Name: Napropamide
Class: Herbicide
Formula: C17H21NO2
Exact mass: 271.1572
SMILES: CCN(CC)C(=O)C(C)Oc1cccc2c1cccc2
InChI: InChI=1S/C17H21NO2/c1-4-18(5-2)17(19)13(3)20-16-12-8-10-14-9-6-7-11-15(14)16/h6-13H,4-5H2,1-3H3
Instrument: TripleTOF 6600 SCIEX
Instrument type: LC-ESI-QTOF
Ms type: MS2
Ion mode: POSITIVE
Collision energy: 50
Fragmentation mode: CID
Ionization: ESI
Column name: Zorbax Eclipse Plus C18 2.1 mm x 150 mm, 3.5 um, Agilent
Retention time: 12.596 min
Precursor m/z: 272.1645
Precursor type: [M+H]+
m/z	relative intensity
44.0128	30
44.0497	301
46.0654	14
55.0173	39
57.0335	272
58.0653	999
72.0441	148
72.0688	26
72.0805	277
74.096	89
86.0595	54
91.0536	14
100.0751	169
100.1109	119
101.0821	44
114.0906	63
115.0536	88
116.0617	24
127.0536	170
128.0616	602
128.1062	10
129.0689	39
129.1135	14
141.0687	38
143.0482	16
143.0849	164
144.0554	35
145.0652	11
151.0526	38
152.0616	278
153.0692	224
155.0595	76
169.0637	12
170.0716	14
171.0795	115
179.0591	11
181.0751	23
