Mass spectrum: 4-Hydroxydiphenylamine; LC-ESI-QTOF; MS2; 70 V
Name: 4-Hydroxydiphenylamine
Class: Pesticide; Industrial_process
Formula: C12H11NO
Exact mass: 185.0841
SMILES: C1=CC=C(C=C1)NC2=CC=C(C=C2)O
InChI: InChI=1S/C12H11NO/c14-12-8-6-11(7-9-12)13-10-4-2-1-3-5-10/h1-9,13-14H
Instrument: TripleTOF 6600 SCIEX
Instrument type: LC-ESI-QTOF
Ms type: MS2
Ion mode: POSITIVE
Collision energy: 70
Fragmentation mode: CID
Ionization: ESI
Column name: Zorbax Eclipse Plus C18 2.1 mm x 150 mm, 3.5 um, Agilent
Retention time: 10.034 min
Precursor m/z: 186.0914
Precursor type: [M+H]+
m/z	relative intensity
37.0068	19
38.0142	20
39.0224	109
42.033	15
44.0125	14
50.014	13
51.0223	41
52.0174	11
53.0378	217
54.033	41
55.0171	13
63.022	33
64.03	13
65.0379	113
66.0454	77
77.037	12
78.0331	18
80.0488	999
81.0322	56
81.0558	28
82.0401	26
89.0369	14
92.0483	33
93.056	47
108.0435	107
109.0515	87
115.0524	18
139.0528	21
