Mass spectrum: Fexofenadinone; LC-ESI-QTOF; MS2; 120 V
Name: Fexofenadinone
Class: Pharmaceutical
Formula: C32H37NO4
Exact mass: 499.2723
SMILES: O=C(C1=CC=C(C(C)(C(O)=O)C)C=C1)CCCN(CCC2)CC2C(C3=CC=CC=C3)(O)C4=CC=CC=C4
InChI: InChI=1S/C32H37NO4/c1-31(2,30(35)36)25-19-17-24(18-20-25)29(34)16-10-22-33-21-9-15-28(23-33)32(37,26-11-5-3-6-12-26)27-13-7-4-8-14-27/h3-8,11-14,17-20,28,37H,9-10,15-16,21-23H2,1-2H3,(H,35,36)
Instrument: TripleTOF 5600 SCIEX
Instrument type: LC-ESI-QTOF
Ms type: MS2
Ion mode: POSITIVE
Collision energy: 120
Fragmentation mode: CID
Ionization: ESI
Column name: Zorbax Eclipse Plus C18 2.1 mm x 150 mm, 3.5 um, Agilent
Retention time: 8.706 min
Precursor m/z: 500.2795
Precursor type: [M+H]+
m/z	relative intensity
39.0226	13
43.0176	18
65.0382	71
77.0389	202
78.0471	56
79.0542	60
82.0636	10
89.0388	63
90.0463	170
91.0545	860
93.0332	26
96.0811	15
98.0959	10
102.0466	40
103.0544	297
104.0617	36
105.0337	28
105.0702	35
107.0491	65
107.089	10
115.0545	999
116.0626	107
117.0703	905
118.078	968
119.05	16
119.0862	21
120.0557	10
121.0284	90
127.0564	26
128.0623	51
131.0497	232
131.0838	23
132.0933	36
135.0812	16
145.0667	41
146.072	162
147.0428	28
148.0522	25
152.0615	15
163.0719	10
165.0682	16
173.0947	40
176.0526	11
191.0701	73
