Mass spectrum: Torasemide; LC-ESI-QTOF; MS2; 100 V
Name: Torasemide
Class: Pharmaceutical
Formula: C16H20N4O3S
Exact mass: 348.1256
SMILES: CC(C)NC(=O)N[S](=O)(=O)c1cnccc1Nc2cccc(C)c2
InChI: InChI=1S/C16H20N4O3S/c1-11(2)18-16(21)20-24(22,23)15-10-17-8-7-14(15)19-13-6-4-5-12(3)9-13/h4-11H,1-3H3,(H,17,19)(H2,18,20,21)
Instrument: TripleTOF 5600 SCIEX
Instrument type: LC-ESI-QTOF
Ms type: MS2
Ion mode: NEGATIVE
Collision energy: 100
Fragmentation mode: CID
Ionization: ESI
Column name: Zorbax Eclipse Plus C18 2.1 mm x 150 mm, 3.5 um, Agilent
Retention time: 7.633 min
Precursor m/z: 347.1183
Precursor type: [M-H]-
m/z	relative intensity
42.0009	73
47.969	93
48.9769	56
57.9761	63
61.9717	177
63.963	233
65.0143	60
77.9655	999
78.973	133
91.0303	223
93.0458	564
106.0656	73
108.0332	70
165.046	200
166.0541	257
179.0622	384
180.0685	360
181.0776	628
