Mass spectrum: Salbutamol; LC-ESI-QTOF; MS2; 80 V
Name: Salbutamol
Class: Pharmaceutical
Formula: C13H21NO3
Exact mass: 239.1521
SMILES: CC(C)(NCC(c1cc(CO)c(O)cc1)O)C
InChI: InChI=1S/C13H21NO3/c1-13(2,3)14-7-12(17)9-4-5-11(16)10(6-9)8-15/h4-6,12,14-17H,7-8H2,1-3H3
Instrument: TripleTOF 5600 SCIEX
Instrument type: LC-ESI-QTOF
Ms type: MS2
Ion mode: NEGATIVE
Collision energy: 80
Fragmentation mode: CID
Ionization: ESI
Column name: Zorbax Eclipse Plus C18 2.1 mm x 150 mm, 3.5 um, Agilent
Retention time: 4.69 min
Precursor m/z: 238.1449
Precursor type: [M-H]-
m/z	relative intensity
45.002	124
65.0403	124
90.0327	124
92.0326	124
93.0339	374
104.0536	124
105.034	124
117.0355	374
118.0291	249
119.0501	999
119.0625	249
120.0182	124
121.0296	374
131.0414	249
132.043	499
133.0689	124
134.031	124
144.0455	124
160.0369	124
