Mass spectrum: Flecainide; LC-ESI-QTOF; MS2; 50 V
Name: Flecainide
Class: Pharmaceutical
Formula: C17H20F6N2O3
Exact mass: 414.1378
SMILES: FC(F)(F)COc1ccc(OCC(F)(F)F)c(c1)C(=O)NCC2CCCCN2
InChI: InChI=1S/C17H20F6N2O3/c18-16(19,20)9-27-12-4-5-14(28-10-17(21,22)23)13(7-12)15(26)25-8-11-3-1-2-6-24-11/h4-5,7,11,24H,1-3,6,8-10H2,(H,25,26)
Instrument: TripleTOF 5600 SCIEX
Instrument type: LC-ESI-QTOF
Ms type: MS2
Ion mode: POSITIVE
Collision energy: 50
Fragmentation mode: CID
Ionization: ESI
Column name: Zorbax Eclipse Plus C18 2.1 mm x 150 mm, 3.5 um, Agilent
Retention time: 7.983 min
Precursor m/z: 415.1451
Precursor type: [M+H]+
m/z	relative intensity
44.0569	17
79.0566	58
81.0728	138
82.0672	44
84.0827	32
97.0891	14
98.0979	231
107.013	11
135.0079	32
189.0523	14
190.0238	10
209.0228	119
218.0192	159
219.0272	26
225.0341	37
232.0976	315
237.0175	138
246.0373	10
253.0289	96
254.035	14
281.0237	67
287.0509	17
298.1055	47
301.0294	999
314.1008	16
315.1087	63
398.1197	460
