Mass spectrum: 1-Butyl-1-methylpiperidinium; LC-ESI-QTOF; MS2; 40 V
Name: 1-Butyl-1-methylpiperidinium
Formula: [C10H22N]+
Exact mass: 156.1747
SMILES: CCCC[N+]1(CCCCC1)C
InChI: InChI=1S/C10H22N/c1-3-4-8-11(2)9-6-5-7-10-11/h3-10H2,1-2H3/q+1
Instrument: TripleTOF 5600 SCIEX
Instrument type: LC-ESI-QTOF
Ms type: MS2
Ion mode: POSITIVE
Collision energy: 40
Fragmentation mode: CID
Ionization: ESI
Column name: Zorbax Eclipse Plus C18 2.1 mm x 150 mm, 3.5 um, Agilent
Retention time: 4.656 min
Precursor m/z: 156.1747
Precursor type: [M]+
m/z	relative intensity
41.0385	57
44.0495	74
70.0641	161
84.0794	51
98.0945	999
100.1105	598
156.1746	685
