Mass spectrum: Omeprazole 4-desmethylthioether; LC-ESI-QTOF; MS2; 30 V
Name: Omeprazole 4-desmethylthioether
Class: Metabolite; Pharmaceutical
Formula: C16H17N3O2S
Exact mass: 315.1041
SMILES: Cc1cnc(c(c1O)C)CSc2[nH]c3ccc(cc3n2)OC
InChI: InChI=1S/C16H17N3O2S/c1-9-7-17-14(10(2)15(9)20)8-22-16-18-12-5-4-11(21-3)6-13(12)19-16/h4-7H,8H2,1-3H3,(H,17,20)(H,18,19)
Instrument: TripleTOF 5600 SCIEX
Instrument type: LC-ESI-QTOF
Ms type: MS2
Ion mode: POSITIVE
Collision energy: 30
Fragmentation mode: CID
Ionization: ESI
Column name: Zorbax Eclipse Plus C18 2.1 mm x 150 mm, 3.5 um, Agilent
Retention time: 6.17 min
Precursor m/z: 316.1114
Precursor type: [M+H]+
m/z	relative intensity
108.0812	29
134.0481	20
136.076	518
137.0836	242
149.0715	673
168.0483	999
180.0358	11
181.0426	27
268.1084	47
282.1236	53
283.1322	396
284.0862	10
316.1124	371
