Mass spectrum: 2-Piperidin-3-yl-benzothiazole; LC-ESI-QTOF; MS2; 70 V
Name: 2-Piperidin-3-yl-benzothiazole
Formula: C12H14N2S
Exact mass: 218.0878
SMILES: C1CC(CNC1)C2=NC3=CC=CC=C3S2
InChI: InChI=1S/C12H14N2S/c1-2-6-11-10(5-1)14-12(15-11)9-4-3-7-13-8-9/h1-2,5-6,9,13H,3-4,7-8H2
Instrument: TripleTOF 5600 SCIEX
Instrument type: LC-ESI-QTOF
Ms type: MS2
Ion mode: POSITIVE
Collision energy: 70
Fragmentation mode: CID
Ionization: ESI
Column name: Zorbax Eclipse Plus C18 2.1 mm x 150 mm, 3.5 um, Agilent
Retention time: 5.623 min
Precursor m/z: 219.095
Precursor type: [M+H]+
m/z	relative intensity
39.0227	26
44.0496	49
44.9793	221
51.0224	26
55.0538	18
57.9876	39
63.0237	13
65.0388	331
67.9707	18
68.9795	297
70.0655	52
75.0214	15
77.0384	273
78.0463	10
80.0505	13
81.9873	234
89.0382	54
90.0465	31
91.042	10
91.0553	20
92.9785	41
102.0351	26
103.0518	31
104.0491	294
105.0573	15
106.9931	36
108.003	999
109.0107	683
115.053	23
116.0496	96
117.0571	232
121.0109	297
122.0168	28
128.0508	13
129.0656	15
130.0645	86
135.0132	23
136.0217	75
146.008	23
147.0261	31
148.0218	712
149.0294	829
160.0209	59
162.0362	143
172.0286	10
173.0285	156
174.0376	253
175.0445	28
186.0411	33
