Mass spectrum: 5-Aminofluorescein; LC-ESI-QTOF; MS2; 150 V
Name: 5-Aminofluorescein
Class: Pharmaceutical
Formula: C20H13NO5
Exact mass: 347.0794
SMILES: Nc1ccc2c(c1)C(=O)OC23c4ccc(O)cc4Oc5cc(O)ccc35
InChI: InChI=1S/C20H13NO5/c21-10-1-4-14-13(7-10)19(24)26-20(14)15-5-2-11(22)8-17(15)25-18-9-12(23)3-6-16(18)20/h1-9,22-23H,21H2
Instrument: TripleTOF 5600 SCIEX
Instrument type: LC-ESI-QTOF
Ms type: MS2
Ion mode: POSITIVE
Collision energy: 150
Fragmentation mode: CID
Ionization: ESI
Column name: Zorbax Eclipse Plus C18 2.1 mm x 150 mm, 3.5 um, Agilent
Retention time: 8.159 min
Precursor m/z: 348.0866
Precursor type: [M+H]+
m/z	relative intensity
65.0408	48
69.001	48
74.0176	124
75.0252	115
76.0336	57
77.0399	134
77.0491	38
86.0162	96
87.0242	86
89.0406	124
98.0165	182
99.0215	67
100.0326	38
101.0384	48
102.0451	57
110.0137	67
111.0211	67
113.0381	96
115.0523	134
122.0148	115
123.0215	67
125.0359	48
126.0441	172
127.0528	76
137.0374	115
139.0535	153
149.0375	240
150.0458	778
151.052	230
151.0674	48
152.0592	115
161.0371	172
162.0441	182
163.0524	653
164.05	76
164.0589	57
165.0725	57
173.0373	67
174.0453	489
175.0484	172
176.0601	249
185.0394	192
186.0457	172
187.0534	999
188.0586	288
189.0679	249
190.0626	67
198.0453	461
199.0524	470
200.0608	912
201.0644	76
209.0378	96
210.0434	86
211.0523	220
212.0541	76
213.0654	48
214.0635	182
222.0458	38
225.0571	57
226.0618	48
