Mass spectrum: Losartan; LC-ESI-QTOF; MS2; 70 V
Name: Losartan
Class: Pharmaceutical
Formula: C22H23ClN6O
Exact mass: 422.1622
SMILES: CCCCc1nc(c(n1Cc2ccc(cc2)c3ccccc3c4n[nH]nn4)CO)Cl
InChI: InChI=1S/C22H23ClN6O/c1-2-3-8-20-24-21(23)19(14-30)29(20)13-15-9-11-16(12-10-15)17-6-4-5-7-18(17)22-25-27-28-26-22/h4-7,9-12,30H,2-3,8,13-14H2,1H3,(H,25,26,27,28)
Instrument: TripleTOF 5600 SCIEX
Instrument type: LC-ESI-QTOF
Ms type: MS2
Ion mode: POSITIVE
Collision energy: 70
Fragmentation mode: CID
Ionization: ESI
Column name: Zorbax Eclipse Plus C18 2.1 mm x 150 mm, 3.5 um, Agilent
Retention time: 9.819 min
Precursor m/z: 423.1695
Precursor type: [M+H]+
m/z	relative intensity
77.0407	73
79.0555	10
80.0511	37
102.0108	13
108.0793	11
115.0533	23
127.0537	29
128.052	17
129.0206	11
129.044	21
139.0542	28
140.0488	66
142.029	114
150.0467	11
151.0542	251
152.0617	396
153.069	211
154.0655	27
163.0536	124
164.0568	87
165.0689	336
166.0652	59
167.0716	69
168.0691	13
171.0664	40
177.057	75
178.0657	299
179.0723	419
180.0801	616
181.0751	22
189.0557	51
190.0649	479
191.0709	119
192.0697	422
205.0755	999
206.0833	349
207.0911	199
214.0646	68
215.0578	17
216.0792	17
241.0749	25
242.0798	11
