Mass spectrum: 1-Myristoyl-sn-glycero-3-phosphocholine; LC-ESI-QTOF; MS2; 30 V
Name: 1-Myristoyl-sn-glycero-3-phosphocholine
Class: Natural_product
Formula: C22H46NO7P
Exact mass: 467.3012
SMILES: CCCCCCCCCCCCCC(=O)OCC(COP(=O)([O-])OCC[N+](C)(C)C)O
InChI: InChI=1S/C22H46NO7P/c1-5-6-7-8-9-10-11-12-13-14-15-16-22(25)28-19-21(24)20-30-31(26,27)29-18-17-23(2,3)4/h21,24H,5-20H2,1-4H3
Instrument: TripleTOF 6600 SCIEX
Instrument type: LC-ESI-QTOF
Ms type: MS2
Ion mode: POSITIVE
Collision energy: 30
Fragmentation mode: CID
Ionization: ESI
Column name: Zorbax Eclipse Plus C18 2.1 mm x 150 mm, 3.5 um, Agilent
Retention time: 12.658 min
Precursor m/z: 468.3085
Precursor type: [M+H]+
m/z	relative intensity
86.0969	39
104.1078	491
125.0001	14
184.0739	999
258.1108	32
285.2426	52
391.2248	23
450.2966	205
468.3074	593
