Mass spectrum: Metalaxyl; LC-ESI-QTOF; MS2; 40 V
Name: Metalaxyl
Class: Fungicide
Formula: C15H21NO4
Exact mass: 279.1471
SMILES: CC1=C(C(=CC=C1)C)N(C(C)C(=O)OC)C(=O)COC
InChI: InChI=1S/C15H21NO4/c1-10-7-6-8-11(2)14(10)16(13(17)9-19-4)12(3)15(18)20-5/h6-8,12H,9H2,1-5H3
Instrument: TripleTOF 6600 SCIEX
Instrument type: LC-ESI-QTOF
Ms type: MS2
Ion mode: POSITIVE
Collision energy: 40
Fragmentation mode: CID
Ionization: ESI
Column name: Zorbax Eclipse Plus C18 2.1 mm x 150 mm, 3.5 um, Agilent
Retention time: 10.17 min
Precursor m/z: 280.1543
Precursor type: [M+H]+
m/z	relative intensity
45.0337	357
91.054	18
105.0695	59
106.0769	9
117.0573	17
118.0652	22
119.0855	26
120.0809	11
121.0877	20
130.0646	58
131.0726	36
132.0804	171
133.0886	112
134.0965	226
144.08	42
145.0882	235
146.0963	81
147.1046	14
148.1118	215
150.0914	19
160.1121	999
162.1278	175
164.1069	13
192.1384	108
220.1338	24
