Mass spectrum: Nifedipine; LC-ESI-QTOF; MS2; 130 V
Name: Nifedipine
Class: Pharmaceutical
Formula: C17H18N2O6
Exact mass: 346.1165
SMILES: CC1=C(C(C(=C(N1)C)C(=O)OC)C2=CC=CC=C2[N+](=O)[O-])C(=O)OC
InChI: InChI=1S/C17H18N2O6/c1-9-13(16(20)24-3)15(14(10(2)18-9)17(21)25-4)11-7-5-6-8-12(11)19(22)23/h5-8,15,18H,1-4H3
Instrument: TripleTOF 5600 SCIEX
Instrument type: LC-ESI-QTOF
Ms type: MS2
Ion mode: POSITIVE
Collision energy: 130
Fragmentation mode: CID
Ionization: ESI
Column name: Zorbax Eclipse Plus C18 2.1 mm x 150 mm, 3.5 um, Agilent
Retention time: 10.896 min
Precursor m/z: 347.1238
Precursor type: [M+H]+
m/z	relative intensity
42.0464	38
50.0253	54
61.0157	23
62.022	76
63.0308	195
65.0463	92
66.0519	15
67.0246	25
73.0132	23
74.0205	168
75.0286	344
76.0364	124
77.0444	564
78.0394	19
78.0521	58
85.0124	14
86.0196	66
87.0274	127
88.0346	127
89.0434	521
90.0499	78
91.0583	48
92.0529	13
93.0612	11
98.0193	100
99.0265	228
100.0276	84
101.0421	235
102.0491	230
103.0451	14
103.0581	19
104.0514	18
106.0701	10
111.0238	11
112.0306	17
113.0417	416
114.0432	219
115.0569	665
116.0523	100
117.0595	44
123.0236	10
124.0325	11
125.0405	175
126.0487	394
127.0553	463
128.0584	324
129.0536	51
130.0666	22
137.0406	82
138.0464	145
139.0557	999
140.0511	743
141.0603	88
142.0662	17
149.0399	22
150.0479	172
151.0543	244
152.0606	410
153.0569	117
154.0656	111
155.0612	31
163.0584	23
164.0506	295
165.0538	100
166.0661	436
167.0738	269
168.0769	41
176.0489	10
177.0583	38
178.0657	34
179.0596	96
180.079	22
181.0762	13
191.0595	86
192.0677	109
193.0761	17
