Mass spectrum: Caprolactam; LC-ESI-QTOF; MS2; 60 V
Name: Caprolactam
Class: Food_additive; Industrial_process
Formula: C6H11NO
Exact mass: 113.0841
SMILES: C1CCC(=O)NCC1
InChI: InChI=1S/C6H11NO/c8-6-4-2-1-3-5-7-6/h1-5H2,(H,7,8)
Instrument: TripleTOF 6600 SCIEX
Instrument type: LC-ESI-QTOF
Ms type: MS2
Ion mode: POSITIVE
Collision energy: 60
Fragmentation mode: CID
Ionization: ESI
Column name: Zorbax Eclipse Plus C18 2.1 mm x 150 mm, 3.5 um, Agilent
Retention time: 5.197 min
Precursor m/z: 114.0914
Precursor type: [M+H]+
m/z	relative intensity
30.0344	11
36.0008	19
37.0078	68
38.0035	25
38.0157	64
39.024	291
41.0394	65
42.0106	12
42.0343	22
43.0184	17
44.014	999
50.0156	11
51.0246	22
53.0395	12
55.0187	11
55.0552	11
