Mass spectrum: Terbuthylazine; LC-ESI-QTOF; MS2; 60 V
Name: Terbuthylazine
Class: Herbicide
Formula: C9H16ClN5
Exact mass: 229.1094
SMILES: CCNc1nc(Cl)nc(NC(C)(C)C)n1
InChI: InChI=1S/C9H16ClN5/c1-5-11-7-12-6(10)13-8(14-7)15-9(2,3)4/h5H2,1-4H3,(H2,11,12,13,14,15)
Instrument: TripleTOF 5600 SCIEX
Instrument type: LC-ESI-QTOF
Ms type: MS2
Ion mode: POSITIVE
Collision energy: 60
Fragmentation mode: CID
Ionization: ESI
Column name: Zorbax Eclipse Plus C18 2.1 mm x 150 mm, 3.5 um, Agilent
Retention time: 11.917 min
Precursor m/z: 230.1167
Precursor type: [M+H]+
m/z	relative intensity
43.0384	237
57.0749	38
61.9843	373
68.0294	999
68.0619	22
71.0636	93
79.0089	239
96.0565	84
104.0021	538
110.0462	25
132.0328	30
146.0229	27
