Mass spectrum: Methadone; LC-ESI-QTOF; MS2; 150 V
Name: Methadone
Class: Pharmaceutical
Formula: C21H27NO
Exact mass: 309.2093
SMILES: CCC(=O)C(CC(C)N(C)C)(C1=CC=CC=C1)C2=CC=CC=C2
InChI: InChI=1S/C21H27NO/c1-5-20(23)21(16-17(2)22(3)4,18-12-8-6-9-13-18)19-14-10-7-11-15-19/h6-15,17H,5,16H2,1-4H3
Instrument: TripleTOF 6600 SCIEX
Instrument type: LC-ESI-QTOF
Ms type: MS2
Ion mode: POSITIVE
Collision energy: 150
Fragmentation mode: CID
Ionization: ESI
Column name: Zorbax Eclipse Plus C18 2.1 mm x 150 mm, 3.5 um, Agilent
Retention time: 8.79 min
Precursor m/z: 310.2166
Precursor type: [M+H]+
m/z	relative intensity
35.9992	14
37.0068	87
38.0022	18
38.0142	73
39.0225	304
41.0376	25
42.0331	83
44.0485	26
49.0065	64
50.0147	529
51.0226	999
52.0305	19
56.0482	21
59.9983	21
61.0059	68
62.0141	130
63.0223	253
65.0377	237
73.006	24
74.0137	162
75.0217	74
76.0293	65
77.0378	302
78.0447	41
85.0052	27
86.0136	74
87.0217	69
89.0371	201
91.0526	67
98.0132	67
99.0211	26
101.037	12
102.0456	96
110.0139	24
111.0219	15
113.0377	66
115.0529	218
122.0141	16
125.0376	20
126.0458	93
127.0522	42
128.0607	44
137.0363	30
138.0442	21
139.0526	126
149.0379	35
150.0446	191
151.0522	118
152.0607	62
161.037	38
162.0454	78
163.0523	357
164.0593	63
165.0677	40
174.0437	62
175.0534	26
176.0598	74
186.0434	20
187.0523	91
188.0602	23
189.0669	30
198.0454	40
199.0519	57
200.0613	184
201.0669	28
202.0781	11
211.0527	21
213.0678	64
