Mass spectrum: Tetracycline; LC-ESI-QTOF; MS2; 100 V
Name: Tetracycline
Class: Pharmaceutical
Formula: C22H24N2O8
Exact mass: 444.1533
SMILES: CC1(C2CC3C(C(=O)C(=C(C3(C(=O)C2=C(C4=C1C=CC=C4O)O)O)O)C(=O)N)N(C)C)O
InChI: InChI=1S/C22H24N2O8/c1-21(31)8-5-4-6-11(25)12(8)16(26)13-9(21)7-10-15(24(2)3)17(27)14(20(23)30)19(29)22(10,32)18(13)28/h4-6,9-10,15,25-26,29,31-32H,7H2,1-3H3,(H2,23,30)
Instrument: TripleTOF 5600 SCIEX
Instrument type: LC-ESI-QTOF
Ms type: MS2
Ion mode: POSITIVE
Collision energy: 100
Fragmentation mode: CID
Ionization: ESI
Column name: Zorbax Eclipse Plus C18 2.1 mm x 150 mm, 3.5 um, Agilent
Retention time: 5.46 min
Precursor m/z: 445.1605
Precursor type: [M+H]+
m/z	relative intensity
41.0396	38
42.0324	38
55.0195	38
70.0648	38
86.059	38
98.0663	38
114.0497	38
115.0509	192
121.0316	38
127.0591	38
128.0652	115
139.0546	268
140.0616	230
141.0726	76
142.0727	38
145.0615	115
151.054	230
152.0619	922
153.0732	153
154.0834	38
163.052	76
164.0631	115
165.0707	537
166.0793	38
168.0566	999
169.0633	192
175.0604	38
176.0601	384
177.0669	192
178.0742	115
180.0557	537
181.0658	307
189.0678	268
192.0532	192
192.0638	38
193.0643	38
194.0698	38
196.0518	499
197.0629	345
198.0634	192
204.0578	38
205.063	76
208.0472	115
210.0643	38
213.0515	76
217.0586	76
221.0721	38
223.0703	76
224.0504	38
226.0609	614
242.0683	38
