Mass spectrum: 4-Formylaminoantipyrine; LC-ESI-QTOF; MS2; 40 V
Name: 4-Formylaminoantipyrine
Class: Pharmaceutical; Metabolite; Transformation_product
Formula: C12H13N3O2
Exact mass: 231.1008
SMILES: CN1N(C(=O)C(=C1C)NC=O)c2ccccc2
InChI: InChI=1S/C12H13N3O2/c1-9-11(13-8-16)12(17)15(14(9)2)10-6-4-3-5-7-10/h3-8H,1-2H3,(H,13,16)
Instrument: TripleTOF 5600 SCIEX
Instrument type: LC-ESI-QTOF
Ms type: MS2
Ion mode: POSITIVE
Collision energy: 40
Fragmentation mode: CID
Ionization: ESI
Column name: Zorbax Eclipse Plus C18 2.1 mm x 150 mm, 3.5 um, Agilent
Retention time: 5.623 min
Precursor m/z: 232.1081
Precursor type: [M+H]+
m/z	relative intensity
51.028	16
56.0559	999
58.0702	20
68.0533	14
77.0417	989
81.0464	16
83.0627	850
85.076	20
91.0555	11
94.0662	236
104.0504	656
117.0573	16
118.065	37
128.0489	54
130.0635	39
131.0597	20
132.0429	13
132.0808	48
145.0761	39
146.0595	35
158.0572	14
159.0904	76
160.0877	11
171.0534	14
172.0641	13
185.0718	16
189.0915	13
199.0742	11
