Mass spectrum: Tiapride; LC-ESI-QTOF; MS2; 110 V
Name: Tiapride
Class: Pharmaceutical
Formula: C15H24N2O4S
Exact mass: 328.1457
SMILES: CCN(CC)CCNC(=O)C1=C(C=CC(=C1)S(=O)(=O)C)OC
InChI: InChI=1S/C15H24N2O4S/c1-5-17(6-2)10-9-16-15(18)13-11-12(22(4,19)20)7-8-14(13)21-3/h7-8,11H,5-6,9-10H2,1-4H3,(H,16,18)
Instrument: TripleTOF 5600 SCIEX
Instrument type: LC-ESI-QTOF
Ms type: MS2
Ion mode: POSITIVE
Collision energy: 110
Fragmentation mode: CID
Ionization: ESI
Column name: Zorbax Eclipse Plus C18 2.1 mm x 150 mm, 3.5 um, Agilent
Retention time: 4.856 min
Precursor m/z: 329.153
Precursor type: [M+H]+
m/z	relative intensity
44.0599	59
45.0448	27
52.0396	162
53.0125	21
56.0571	10
58.0735	16
64.0366	18
65.0448	118
66.0538	24
68.9871	10
72.0861	18
74.02	56
75.027	105
76.0358	999
77.0431	712
78.051	502
79.0224	156
79.0443	29
79.0569	54
81.037	16
86.1025	13
89.041	40
90.0375	105
90.0515	16
91.0209	380
91.0443	13
91.0574	21
92.0281	32
93.0378	10
94.9999	10
97.0137	13
103.0434	75
104.0305	27
104.0505	272
105.0356	126
105.0566	32
106.0313	37
106.0668	24
107.0116	48
109.0121	13
116.0489	13
117.0584	18
118.0277	24
119.0137	129
132.0453	62
133.0509	35
134.0355	64
134.0588	16
