Mass spectrum: 3-Hydroxycarbamazepine; LC-ESI-QTOF; MS2; 130 V
Name: 3-Hydroxycarbamazepine
Class: Pharmaceutical
Formula: C15H12N2O2
Exact mass: 252.0899
SMILES: NC(=O)N1c2ccccc2C=Cc3ccc(O)cc13
InChI: InChI=1S/C15H12N2O2/c16-15(19)17-13-4-2-1-3-10(13)5-6-11-7-8-12(18)9-14(11)17/h1-9,18H,(H2,16,19)
Instrument: TripleTOF 5600 SCIEX
Instrument type: LC-ESI-QTOF
Ms type: MS2
Ion mode: POSITIVE
Collision energy: 130
Fragmentation mode: CID
Ionization: ESI
Column name: Zorbax Eclipse Plus C18 2.1 mm x 150 mm, 3.5 um, Agilent
Retention time: 7.917 min
Precursor m/z: 253.0972
Precursor type: [M+H]+
m/z	relative intensity
60.003	55
63.0565	41
64.0347	34
65.043	192
73.0104	103
74.0181	895
74.045	48
75.0262	799
76.0206	55
76.0333	289
77.0412	785
78.0501	68
85.0093	213
86.0163	461
87.0253	564
88.0194	75
88.0311	172
88.0531	27
89.0399	999
91.0561	34
97.0071	27
98.0152	420
99.0106	48
99.0231	323
100.0311	82
101.0386	186
102.0327	41
102.0466	261
109.0061	34
110.0156	158
111.0234	96
112.0291	41
113.0383	620
114.0343	82
114.0442	41
115.0545	213
122.0159	68
123.0244	55
124.0295	62
125.0383	172
125.054	34
126.0451	509
127.0527	172
128.0478	41
137.0379	254
138.0459	137
139.054	392
140.0484	192
149.0384	137
150.0462	881
151.0526	633
152.0476	96
152.0603	392
153.058	68
161.0371	165
162.0448	186
163.0527	282
164.0483	137
176.0482	82
177.0559	130
178.0661	186
187.0411	27
188.0483	82
189.0548	68
