Mass spectrum: Butyl-triphenylphosphonium; LC-ESI-QTOF; MS2; 140 V
Name: Butyl-triphenylphosphonium
Class: Industrial_process
Formula: [C22H24P]+
Exact mass: 319.161
SMILES: CCCC[P+](c1ccccc1)(c2ccccc2)c3ccccc3
InChI: InChI=1S/C22H24P/c1-2-3-19-23(20-13-7-4-8-14-20,21-15-9-5-10-16-21)22-17-11-6-12-18-22/h4-18H,2-3,19H2,1H3/q+1
Instrument: TripleTOF 5600 SCIEX
Instrument type: LC-ESI-QTOF
Ms type: MS2
Ion mode: POSITIVE
Collision energy: 140
Fragmentation mode: CID
Ionization: ESI
Column name: Zorbax Eclipse Plus C18 2.1 mm x 150 mm, 3.5 um, Agilent
Retention time: 8.852 min
Precursor m/z: 319.161
Precursor type: [M]+
m/z	relative intensity
56.9946	80
65.0424	114
74.0178	64
76.0327	80
77.0414	75
78.0494	52
78.9752	78
79.9828	225
80.9903	339
87.0242	96
89.0388	372
102.0466	151
103.9818	66
107.0052	999
113.0385	140
115.0549	401
126.0463	388
131.0036	149
133.0206	73
139.0553	316
150.0469	349
151.0544	647
152.0619	900
155.0041	114
156.0124	137
157.0208	475
179.0042	78
180.0118	167
181.0203	544
183.0389	66
224.0634	64
226.0787	71
255.0382	50
