Mass spectrum: [4(Acetyloxy)butyl](triphenyl)phosphonium; LC-ESI-QTOF; MS2; 70 V
Name: [4(Acetyloxy)butyl](triphenyl)phosphonium
Formula: [C24H26O2P]+
Exact mass: 377.1665
SMILES: CC(=O)OCCCC[P+](C1=CC=CC=C1)(C2=CC=CC=C2)C3=CC=CC=C3
InChI: InChI=1S/C24H26O2P/c1-21(25)26-19-11-12-20-27(22-13-5-2-6-14-22,23-15-7-3-8-16-23)24-17-9-4-10-18-24/h2-10,13-18H,11-12,19-20H2,1H3/q+1
Instrument: TripleTOF 6600 SCIEX
Instrument type: LC-ESI-QTOF
Ms type: MS2
Ion mode: POSITIVE
Collision energy: 70
Fragmentation mode: CID
Ionization: ESI
Column name: Zorbax Eclipse Plus C18 2.1 mm x 150 mm, 3.5 um, Agilent
Retention time: 8.85 min
Precursor m/z: 377.1665
Precursor type: [M]+
m/z	relative intensity
107.0033	80
108.0111	94
152.061	53
183.0363	989
185.0515	76
228.093	63
259.0673	103
260.0752	104
261.0837	72
275.0992	999
