Mass spectrum: N-(1,3-Dimethylbutyl)-N`-phenyl-p-phenylenediamine; LC-ESI-QTOF; MS2; 90 V
Name: N-(1,3-Dimethylbutyl)-N`-phenyl-p-phenylenediamine
Class: Industrial_process
Formula: C18H24N2
Exact mass: 268.1939
SMILES: CC(C)CC(C)NC1=CC=C(C=C1)NC2=CC=CC=C2
InChI: InChI=1S/C18H24N2/c1-14(2)13-15(3)19-17-9-11-18(12-10-17)20-16-7-5-4-6-8-16/h4-12,14-15,19-20H,13H2,1-3H3
Instrument: TripleTOF 6600 SCIEX
Instrument type: LC-ESI-QTOF
Ms type: MS2
Ion mode: POSITIVE
Collision energy: 90
Fragmentation mode: CID
Ionization: ESI
Column name: Zorbax Eclipse Plus C18 2.1 mm x 150 mm, 3.5 um, Agilent
Retention time: 9.189 min
Precursor m/z: 269.2012
Precursor type: [M+H]+
m/z	relative intensity
39.0222	31
41.0376	13
50.0143	15
51.0221	49
52.0302	12
53.0379	210
54.0331	18
63.0224	71
64.0298	11
65.0379	72
66.0334	10
66.0455	76
67.0405	12
77.0378	62
78.0333	23
79.0405	16
80.0491	999
81.0561	20
89.0377	24
90.0329	41
91.0409	39
92.0485	32
93.0561	78
103.0535	11
105.0435	17
106.0512	10
107.0596	342
108.0677	12
113.0379	21
114.0455	10
115.053	63
116.0485	12
117.0568	17
118.0513	23
127.0529	29
128.05	21
128.0605	37
129.0678	28
130.0637	24
139.0531	166
140.049	125
141.0578	12
143.0728	10
154.0644	38
155.07	14
156.0791	24
164.0487	12
165.0564	14
166.0644	130
167.0715	98
168.0735	26
181.0753	76
182.0833	32
