Mass spectrum: Triphenylphosphine sulfide; LC-ESI-QTOF; MS2; 110 V
Name: Triphenylphosphine sulfide
Class: Industrial_process
Formula: C18H15PS
Exact mass: 294.0632
SMILES: S=[P](c1ccccc1)(c2ccccc2)c3ccccc3
InChI: InChI=1S/C18H15PS/c20-19(16-10-4-1-5-11-16,17-12-6-2-7-13-17)18-14-8-3-9-15-18/h1-15H
Instrument: TripleTOF 5600 SCIEX
Instrument type: LC-ESI-QTOF
Ms type: MS2
Ion mode: POSITIVE
Collision energy: 110
Fragmentation mode: CID
Ionization: ESI
Column name: Zorbax Eclipse Plus C18 2.1 mm x 150 mm, 3.5 um, Agilent
Retention time: 14.508 min
Precursor m/z: 295.0705
Precursor type: [M+H]+
m/z	relative intensity
51.0282	219
56.9943	61
62.9495	999
62.977	91
65.0454	61
67.9857	25
68.9927	25
75.0248	20
77.0413	91
79.983	86
80.9908	203
87.023	25
89.0402	117
100.0379	20
102.0466	66
107.0045	912
107.0456	20
113.0404	56
115.0537	265
126.0463	112
131.0033	50
133.0201	71
138.0488	25
138.9747	25
139.0538	249
150.0461	91
151.0542	372
152.0619	718
156.0114	50
157.0188	356
180.0126	40
181.019	280
183.0372	137
