Mass spectrum: Norgestrel; LC-ESI-QTOF; MS2; 40 V
Name: Norgestrel
Class: Pharmaceutical
Formula: C21H28O2
Exact mass: 312.2089
SMILES: CCC12CCC3C(C1CCC2(C#C)O)CCC4=CC(=O)CCC34
InChI: InChI=1S/C21H28O2/c1-3-20-11-9-17-16-8-6-15(22)13-14(16)5-7-18(17)19(20)10-12-21(20,23)4-2/h2,13,16-19,23H,3,5-12H2,1H3
Instrument: TripleTOF 5600 SCIEX
Instrument type: LC-ESI-QTOF
Ms type: MS2
Ion mode: POSITIVE
Collision energy: 40
Fragmentation mode: CID
Ionization: ESI
Column name: Zorbax Eclipse Plus C18 2.1 mm x 150 mm, 3.5 um, Agilent
Retention time: 12.063 min
Precursor m/z: 313.2162
Precursor type: [M+H]+
m/z	relative intensity
55.0312	12
65.0462	27
67.0614	182
69.0771	32
77.0443	207
79.0597	457
81.0404	34
81.0753	337
83.0541	347
83.09	19
91.0591	776
93.0743	342
95.0538	37
95.0901	177
97.0686	34
103.0584	74
104.0647	12
105.0734	534
107.0523	267
107.0895	189
109.0682	999
109.1035	87
111.0849	12
115.057	217
116.0653	74
117.0724	419
119.0883	364
121.0674	64
121.104	82
123.083	122
123.1194	97
125.0998	32
127.0594	54
128.0645	244
129.0727	414
130.0799	97
131.0549	12
131.0879	469
132.0615	17
132.0941	9
133.0675	82
133.1033	282
134.0723	19
135.0826	349
135.1191	104
137.1008	37
137.135	27
141.0723	172
142.081	167
143.0871	352
144.0588	17
144.0957	47
145.0674	37
145.1029	352
146.0755	27
147.0818	84
147.1196	84
148.0915	19
149.0977	174
149.1341	42
151.1104	22
152.0647	19
153.0703	72
154.0807	64
155.0873	189
156.0943	62
157.0689	27
157.1023	287
158.1115	19
159.08	87
159.1179	204
160.0912	12
161.0965	187
161.1314	54
162.1041	17
163.1136	104
165.0714	89
166.0796	49
167.0866	102
168.093	52
169.1011	149
170.113	29
171.0836	9
171.1179	219
173.0973	39
173.1326	92
175.1119	77
175.1518	64
177.1299	9
178.0799	42
179.0845	67
180.0947	24
181.1024	97
182.1125	22
183.089	12
183.1172	164
184.1281	12
185.0965	47
185.1326	252
187.1167	64
187.1507	99
188.1176	14
188.1267	19
189.1304	67
191.09	29
192.0926	34
193.1013	84
194.1062	22
195.1182	92
196.1292	19
197.0968	12
197.1309	79
199.1136	17
199.1292	12
199.1486	102
201.1286	52
201.1596	27
203.1399	19
205.1015	39
206.1099	19
207.1167	89
208.1299	27
209.1345	72
210.1408	12
211.1152	24
211.146	29
213.1221	19
213.1612	14
215.1444	14
217.1607	14
219.1156	34
221.1305	77
223.1502	47
225.1262	39
225.1647	74
227.1373	24
227.1793	177
233.1382	19
235.1492	49
237.1626	79
239.1424	19
239.1806	19
241.1616	14
243.1688	14
243.1834	24
245.1914	489
247.1471	12
248.159	29
249.1653	27
251.1734	22
253.1611	24
253.194	27
265.1501	12
266.1645	19
267.176	52
277.1957	74
295.2068	127
312.2335	22
313.2163	534
