Mass spectrum: Flecainide; LC-ESI-QTOF; MS2; 50 V
Name: Flecainide
Class: Pharmaceutical
Formula: C17H20F6N2O3
Exact mass: 414.1378
InChI: InChI=1S/C17H20F6N2O3/c18-16(19,20)9-27-12-4-5-14(28-10-17(21,22)23)13(7-12)15(26)25-8-11-3-1-2-6-24-11/h4-5,7,11,24H,1-3,6,8-10H2,(H,25,26)
Instrument: TripleTOF 5600 SCIEX
Instrument type: LC-ESI-QTOF
Ms type: CID
Ion mode: NEGATIVE
Collision energy: 50
Ionization: ESI
Column name: Zorbax Eclipse Plus C18 2.1 mm x 150 mm, 3.5 um, Agilent
Retention time: 7.983 min
Precursor m/z: 413.1305
Precursor type: [M-H]-
m/z	relative intensity
79.0166	133
107.0263	66
146.027	133
150.0168	66
159.0283	466
159.0435	66
160.0381	66
179.0802	133
192.011	932
192.0458	133
269.0891	532
270.1022	999
270.1289	66
290.1039	133
