Mass spectrum: N,O-didesmethyl-venlafaxine; LC-ESI-QTOF; MS2; 40 V
Name: N,O-didesmethyl-venlafaxine
Class: Pharmaceutical; Metabolite
Formula: C15H23NO2
Exact mass: 249.1729
SMILES: CNCC(c1ccc(cc1)O)C2(CCCCC2)O
InChI: InChI=1S/C15H23NO2/c1-16-11-14(12-5-7-13(17)8-6-12)15(18)9-3-2-4-10-15/h5-8,14,16-18H,2-4,9-11H2,1H3
Instrument: TripleTOF 5600 SCIEX
Instrument type: LC-ESI-QTOF
Ms type: MS2
Ion mode: POSITIVE
Collision energy: 40
Fragmentation mode: CID
Ionization: ESI
Column name: Zorbax Eclipse Plus C18 2.1 mm x 150 mm, 3.5 um, Agilent
Retention time: 5.659 min
Precursor m/z: 250.1802
Precursor type: [M+H]+
m/z	relative intensity
42.0416	12
44.0592	561
67.0577	12
69.0731	34
77.042	97
79.0567	117
81.0716	91
91.0559	45
93.0701	11
103.0537	23
105.0705	199
107.0502	999
115.0537	32
117.0684	19
121.0647	49
127.0538	28
131.0481	29
131.0848	36
133.0654	576
135.0677	48
141.0694	42
144.0571	43
145.0647	149
147.0787	16
149.0821	16
150.0907	22
159.0807	166
