Mass spectrum: Venlafaxine-N-oxide; LC-ESI-QTOF; MS2; 100 V
Name: Venlafaxine-N-oxide
Class: Pharmaceutical; Metabolite; Transformation_product; Transformation_product-Metabolite
Formula: C17H27NO3
Exact mass: 293.1991
SMILES: C[N+](C)(CC(c1ccc(cc1)OC)C2(CCCCC2)O)[O-]
InChI: InChI=1S/C17H27NO3/c1-18(2,20)13-16(17(19)11-5-4-6-12-17)14-7-9-15(21-3)10-8-14/h7-10,16,19H,4-6,11-13H2,1-3H3
Instrument: TripleTOF 5600 SCIEX
Instrument type: LC-ESI-QTOF
Ms type: MS2
Ion mode: POSITIVE
Collision energy: 100
Fragmentation mode: CID
Ionization: ESI
Column name: Zorbax Eclipse Plus C18 2.1 mm x 150 mm, 3.5 um, Agilent
Retention time: 7.246 min
Precursor m/z: 294.2064
Precursor type: [M+H]+
m/z	relative intensity
53.0436	23
55.0597	18
58.0713	12
65.0426	133
66.051	11
76.0325	11
77.042	558
78.0494	999
79.0567	88
81.0715	84
89.0431	12
91.0556	295
103.0538	18
106.0404	47
107.0504	28
115.0542	39
121.0639	375
128.0615	10
