Mass spectrum: Bisoprolol; LC-ESI-QTOF; MS2; 150 V
Name: Bisoprolol
Class: Pharmaceutical
Formula: C18H31NO4
Exact mass: 325.2253
SMILES: CC(C)NCC(COC1=CC=C(C=C1)COCCOC(C)C)O
InChI: InChI=1S/C18H31NO4/c1-14(2)19-11-17(20)13-23-18-7-5-16(6-8-18)12-21-9-10-22-15(3)4/h5-8,14-15,17,19-20H,9-13H2,1-4H3
Instrument: TripleTOF 6600 SCIEX
Instrument type: LC-ESI-QTOF
Ms type: MS2
Ion mode: POSITIVE
Collision energy: 150
Fragmentation mode: CID
Ionization: ESI
Column name: Zorbax Eclipse Plus C18 2.1 mm x 150 mm, 3.5 um, Agilent
Retention time: 7.01 min
Precursor m/z: 326.2326
Precursor type: [M+H]+
m/z	relative intensity
30.0332	160
35.9991	36
37.0065	272
38.0025	60
38.0145	264
39.0227	950
41.0379	252
42.0099	16
42.033	48
43.0169	44
43.0534	24
44.0488	52
45.0328	72
49.0076	16
50.0143	236
51.0221	541
52.0294	24
53.0128	24
53.0379	20
55.0167	24
56.0495	28
58.0662	16
59.9984	80
61.0063	397
62.0147	842
63.0219	999
65.037	104
74.013	32
77.0378	280
89.0371	100
91.0531	16
115.0543	36
