Mass spectrum: 4-Bromoantipyrine; LC-ESI-QTOF; MS2; 90 V
Name: 4-Bromoantipyrine
Class: Industrial_process
Formula: C11H11BrN2O
Exact mass: 266.0055
SMILES: CC1=C(C(=O)N(N1C)C2=CC=CC=C2)Br
InChI: InChI=1S/C11H11BrN2O/c1-8-10(12)11(15)14(13(8)2)9-6-4-3-5-7-9/h3-7H,1-2H3
Instrument: TripleTOF 6600 SCIEX
Instrument type: LC-ESI-QTOF
Ms type: MS2
Ion mode: POSITIVE
Collision energy: 90
Fragmentation mode: CID
Ionization: ESI
Column name: Zorbax Eclipse Plus C18 2.1 mm x 150 mm, 3.5 um, Agilent
Retention time: 7.678 min
Precursor m/z: 267.0128
Precursor type: [M+H]+
m/z	relative intensity
39.0218	106
42.0329	239
50.0138	133
51.0212	399
54.0323	133
56.0482	999
63.022	53
65.037	173
75.0215	53
76.0293	53
77.0363	745
89.0355	119
91.0525	146
102.0426	106
104.9311	119
115.0517	133
117.0546	66
130.0636	66
