Mass spectrum: 2-Phenyl-1H-benzimidazol-4-amine; LC-ESI-QTOF; MS2; 100 V
Name: 2-Phenyl-1H-benzimidazol-4-amine
Class: Pharmaceutical
Formula: C13H11N3
Exact mass: 209.0953
SMILES: C1=CC=C(C=C1)C2=NC3=C(N2)C=CC=C3N
InChI: InChI=1S/C13H11N3/c14-10-7-4-8-11-12(10)16-13(15-11)9-5-2-1-3-6-9/h1-8H,14H2,(H,15,16)
Instrument: TripleTOF 5600 SCIEX
Instrument type: LC-ESI-QTOF
Ms type: MS2
Ion mode: POSITIVE
Collision energy: 100
Fragmentation mode: CID
Ionization: ESI
Column name: Zorbax Eclipse Plus C18 2.1 mm x 150 mm, 3.5 um, Agilent
Retention time: 5.276 min
Precursor m/z: 210.1026
Precursor type: [M+H]+
m/z	relative intensity
52.0265	72
54.0448	89
65.0454	66
74.0196	50
75.0267	61
76.0217	39
77.0433	412
78.0384	234
79.0472	55
80.0544	999
86.0184	27
87.0263	117
88.0217	39
89.0425	217
90.035	27
91.0541	27
104.054	33
105.0467	122
111.0184	27
113.038	111
114.0352	27
128.0564	22
137.0371	22
139.0553	44
140.0521	50
164.0488	61
