Mass spectrum: N,N-Dicyclohexylmethylamine; LC-ESI-QTOF; MS2; 90 V
Name: N,N-Dicyclohexylmethylamine
Formula: C13H25N
Exact mass: 195.1987
SMILES: CN(C1CCCCC1)C2CCCCC2
InChI: InChI=1S/C13H25N/c1-14(12-8-4-2-5-9-12)13-10-6-3-7-11-13/h12-13H,2-11H2,1H3
Instrument: TripleTOF 6600 SCIEX
Instrument type: LC-ESI-QTOF
Ms type: MS2
Ion mode: POSITIVE
Collision energy: 90
Fragmentation mode: CID
Ionization: ESI
Column name: Zorbax Eclipse Plus C18 2.1 mm x 150 mm, 3.5 um, Agilent
Retention time: 6.52 min
Precursor m/z: 196.206
Precursor type: [M+H]+
m/z	relative intensity
32.0497	45
36.0003	23
37.0078	159
38.004	26
38.0154	155
39.0238	999
41.0394	271
52.0076	9
53.0123	14
53.0393	59
55.0552	191
