Mass spectrum: Imidacloprid; LC-ESI-QTOF; MS2; 40 V
Name: Imidacloprid
Class: Insecticide
Formula: C9H10ClN5O2
Exact mass: 255.0523
SMILES: [O-][N+](=O)NC1=NCCN1Cc2ccc(Cl)nc2
InChI: InChI=1S/C9H10ClN5O2/c10-8-2-1-7(5-12-8)6-14-4-3-11-9(14)13-15(16)17/h1-2,5H,3-4,6H2,(H,11,13)
Instrument: TripleTOF 5600 SCIEX
Instrument type: LC-ESI-QTOF
Ms type: MS2
Ion mode: POSITIVE
Collision energy: 40
Fragmentation mode: CID
Ionization: ESI
Column name: Zorbax Eclipse Plus C18 2.1 mm x 150 mm, 3.5 um, Agilent
Retention time: 7.098 min
Precursor m/z: 256.0596
Precursor type: [M+H]+
m/z	relative intensity
84.0555	67
119.0587	67
128.0274	148
133.0751	54
146.0715	108
147.0667	134
158.0697	94
159.0817	80
173.0805	134
174.0897	148
175.0972	999
181.0298	80
209.0577	985
