Mass spectrum: Bisoprolol; LC-ESI-QTOF; MS2; 40 V
Name: Bisoprolol
Class: Pharmaceutical
Formula: C18H31NO4
Exact mass: 325.2253
SMILES: CC(C)NCC(COC1=CC=C(C=C1)COCCOC(C)C)O
InChI: InChI=1S/C18H31NO4/c1-14(2)19-11-17(20)13-23-18-7-5-16(6-8-18)12-21-9-10-22-15(3)4/h5-8,14-15,17,19-20H,9-13H2,1-4H3
Instrument: TripleTOF 6600 SCIEX
Instrument type: LC-ESI-QTOF
Ms type: MS2
Ion mode: POSITIVE
Collision energy: 40
Fragmentation mode: CID
Ionization: ESI
Column name: Zorbax Eclipse Plus C18 2.1 mm x 150 mm, 3.5 um, Agilent
Retention time: 7.01 min
Precursor m/z: 326.2326
Precursor type: [M+H]+
m/z	relative intensity
30.0335	38
41.0386	20
43.0538	30
45.0331	102
56.0492	336
58.0645	31
72.08	253
74.0594	839
75.0426	36
77.0374	28
79.053	35
84.0797	15
89.0374	112
91.053	138
98.0954	209
100.1112	20
105.068	72
107.0481	326
115.0535	13
116.106	999
117.0687	20
119.0479	118
119.084	13
121.0639	64
133.0634	211
137.0578	11
145.0628	89
147.0787	120
162.0894	72
163.0742	34
204.138	29
222.1466	13
326.2313	233
