Mass spectrum: Bis(2,4,4-trimethylpentyl)phosphinic acid; LC-ESI-QTOF; MS2; 90 V
Name: Bis(2,4,4-trimethylpentyl)phosphinic acid
Class: Industrial_process
Formula: C16H35O2P
Exact mass: 290.2375
SMILES: CC(CC(C)(C)C)CP(=O)(CC(C)CC(C)(C)C)O
InChI: InChI=1S/C16H35O2P/c1-13(9-15(3,4)5)11-19(17,18)12-14(2)10-16(6,7)8/h13-14H,9-12H2,1-8H3,(H,17,18)
Instrument: TripleTOF 6600 SCIEX
Instrument type: LC-ESI-QTOF
Ms type: MS2
Ion mode: POSITIVE
Collision energy: 90
Fragmentation mode: CID
Ionization: ESI
Column name: Zorbax Eclipse Plus C18 2.1 mm x 150 mm, 3.5 um, Agilent
Retention time: 14.45 min
Precursor m/z: 291.2448
Precursor type: [M+H]+
m/z	relative intensity
37.007	54
38.0023	26
38.0148	54
39.0225	348
40.005	11
41.0382	474
43.0537	82
43.9807	13
44.9881	43
45.9959	13
46.9675	718
47.0047	11
47.9753	26
48.983	58
53.0131	11
53.0382	13
55.0541	99
56.9883	24
57.0692	171
59.0034	11
60.9829	60
62.9984	152
64.978	549
69.0691	13
71.0025	9
73.019	18
76.0057	28
77.0139	67
78.9935	999
80.0017	77
81.0084	9
83.0032	18
85.0189	30
89.0145	33
94.0171	62
97.0044	16
103.0295	18
107.0245	15
