Mass spectrum: Methylecgonidine; LC-ESI-QTOF; MS2; 30 V
Name: Methylecgonidine
Class: Metabolite
Formula: C10H15NO2
Exact mass: 181.1103
SMILES: CN1C2CCC1C(=CC2)C(=O)OC
InChI: InChI=1S/C10H15NO2/c1-11-7-3-5-8(10(12)13-2)9(11)6-4-7/h5,7,9H,3-4,6H2,1-2H3
Instrument: TripleTOF 6600 SCIEX
Instrument type: LC-ESI-QTOF
Ms type: MS2
Ion mode: POSITIVE
Collision energy: 30
Fragmentation mode: CID
Ionization: ESI
Column name: Zorbax Eclipse Plus C18 2.1 mm x 150 mm, 3.5 um, Agilent
Retention time: 4.43 min
Precursor m/z: 182.1176
Precursor type: [M+H]+
m/z	relative intensity
42.0338	52
44.0497	26
53.0378	12
56.0492	18
57.057	14
59.0126	64
59.0487	38
65.0382	82
67.0538	16
77.0379	42
79.0537	88
81.0696	92
82.0648	108
90.0456	66
91.0541	999
92.0616	12
93.0326	56
93.0689	148
94.0649	70
97.0637	26
105.0691	142
106.064	28
107.0722	207
109.0647	38
118.0411	964
119.0485	128
120.0802	20
121.088	26
122.0586	16
122.0762	10
122.0959	711
123.0796	68
133.0641	82
150.0904	160
151.074	112
164.106	56
182.117	617
