Mass spectrum: Levocetirizine; LC-ESI-QTOF; MS2; 120 V
Name: Levocetirizine
Class: Pharmaceutical
Formula: C21H25ClN2O3
Exact mass: 388.1554
SMILES: C1CN(CCN1CCOCC(=O)O)[C@H](C2=CC=CC=C2)C3=CC=C(C=C3)Cl
InChI: InChI=1S/C21H25ClN2O3/c22-19-8-6-18(7-9-19)21(17-4-2-1-3-5-17)24-12-10-23(11-13-24)14-15-27-16-20(25)26/h1-9,21H,10-16H2,(H,25,26)/t21-/m1/s1
Instrument: TripleTOF 6600 SCIEX
Instrument type: LC-ESI-QTOF
Ms type: MS2
Ion mode: POSITIVE
Collision energy: 120
Fragmentation mode: CID
Ionization: ESI
Column name: Zorbax Eclipse Plus C18 2.1 mm x 150 mm, 3.5 um, Agilent
Retention time: 9.671 min
Precursor m/z: 389.1627
Precursor type: [M+H]+
m/z	relative intensity
63.0234	14
89.0391	18
98.9999	12
113.0397	12
114.0466	12
115.0549	120
139.055	111
163.0553	150
164.0627	258
165.0705	999
199.0323	10
