Mass spectrum: N-Cyclohexyl-1,3-benzothiazol-2-amine; LC-ESI-QTOF; MS2; 100 V
Name: N-Cyclohexyl-1,3-benzothiazol-2-amine
Formula: C13H16N2S
Exact mass: 232.1034
SMILES: C1CCC(CC1)NC2=NC3=CC=CC=C3S2
InChI: InChI=1S/C13H16N2S/c1-2-6-10(7-3-1)14-13-15-11-8-4-5-9-12(11)16-13/h4-5,8-10H,1-3,6-7H2,(H,14,15)
Instrument: TripleTOF 6600 SCIEX
Instrument type: LC-ESI-QTOF
Ms type: MS2
Ion mode: POSITIVE
Collision energy: 100
Fragmentation mode: CID
Ionization: ESI
Column name: Zorbax Eclipse Plus C18 2.1 mm x 150 mm, 3.5 um, Agilent
Retention time: 9.082 min
Precursor m/z: 233.1107
Precursor type: [M+H]+
m/z	relative intensity
35.9988	22
37.0069	181
38.0032	22
38.0143	159
39.0227	999
41.0378	83
43.0288	14
44.9782	30
49.0061	12
50.0142	42
51.022	114
53.0376	159
55.0533	113
59.9892	19
62.014	26
63.022	129
64.0171	60
64.0285	17
65.0379	857
67.9704	18
68.9786	661
77.0373	94
80.0485	230
80.9775	11
81.9857	34
90.0319	24
91.0396	47
92.9778	16
94.9932	13
96.0014	18
97.0085	20
108.001	64
109.0097	82
118.0506	13
