Mass spectrum: Medroxyprogesterone; LC-ESI-QTOF; MS2; 110 V
Name: Medroxyprogesterone
Class: Pharmaceutical
Formula: C22H32O3
Exact mass: 344.2351
SMILES: CC1CC2C(CCC3(C2CCC3(C(=O)C)O)C)C4(C1=CC(=O)CC4)C
InChI: InChI=1S/C22H32O3/c1-13-11-16-17(20(3)8-5-15(24)12-19(13)20)6-9-21(4)18(16)7-10-22(21,25)14(2)23/h12-13,16-18,25H,5-11H2,1-4H3
Instrument: TripleTOF 6600 SCIEX
Instrument type: LC-ESI-QTOF
Ms type: MS2
Ion mode: POSITIVE
Collision energy: 110
Fragmentation mode: CID
Ionization: ESI
Column name: Zorbax Eclipse Plus C18 2.1 mm x 150 mm, 3.5 um, Agilent
Retention time: 12.524 min
Precursor m/z: 345.2424
Precursor type: [M+H]+
m/z	relative intensity
37.0074	34
38.0151	31
39.0231	266
41.0386	238
43.0179	397
45.0327	15
49.0073	15
50.015	84
51.0233	291
53.0387	109
55.0177	137
55.0545	203
57.034	25
63.023	15
65.0387	294
66.0462	31
67.0544	238
69.0335	21
69.0703	31
77.0385	999
78.0454	43
79.0539	322
80.0619	25
81.0341	40
81.0704	31
82.041	34
83.0489	46
89.0381	31
90.0459	18
91.054	601
93.0699	28
94.0412	31
95.0482	25
95.0865	25
97.0647	65
102.0469	40
103.0545	100
104.062	21
105.0445	53
105.0695	103
107.0491	97
108.057	34
115.0539	382
116.0625	43
117.0696	81
119.085	18
123.0813	15
126.0462	15
127.054	90
128.0622	344
129.0699	109
131.0844	15
141.0692	178
142.079	34
143.0844	15
151.0515	21
152.0621	84
153.0703	81
154.0761	18
155.0578	21
155.0853	37
165.0692	153
166.0759	15
178.0772	62
179.0866	21
