Mass spectrum: Metaflumizone; LC-ESI-QTOF; MS2; 90 V
Name: Metaflumizone
Class: Insecticide; Pharmaceutical
Formula: C24H16F6N4O2
Exact mass: 506.1177
SMILES: C1=CC(=CC(=C1)C(F)(F)F)C(=NNC(=O)NC2=CC=C(C=C2)OC(F)(F)F)CC3=CC=C(C=C3)C#N
InChI: InChI=1S/C24H16F6N4O2/c25-23(26,27)18-3-1-2-17(13-18)21(12-15-4-6-16(14-31)7-5-15)33-34-22(35)32-19-8-10-20(11-9-19)36-24(28,29)30/h1-11,13H,12H2,(H2,32,34,35)
Instrument: TripleTOF 6600 SCIEX
Instrument type: LC-ESI-QTOF
Ms type: MS2
Ion mode: POSITIVE
Collision energy: 90
Fragmentation mode: CID
Ionization: ESI
Column name: Zorbax Eclipse Plus C18 2.1 mm x 150 mm, 3.5 um, Agilent
Retention time: 15.496 min
Precursor m/z: 507.125
Precursor type: [M+H]+
m/z	relative intensity
39.0228	10
61.0074	11
62.0149	19
63.0231	68
65.0385	166
66.0465	16
68.9939	37
74.0156	14
75.0222	34
77.0392	10
80.0492	35
81.0579	14
88.0305	13
89.0385	772
90.0334	29
90.0453	31
92.049	308
93.033	20
93.0571	370
95.0292	57
101.0379	10
108.0442	81
109.0461	23
114.0332	59
115.0407	90
116.0494	999
117.0557	11
119.0295	14
123.0342	28
124.018	11
127.038	14
128.0477	14
129.0426	13
139.0342	10
140.0484	13
141.0435	22
142.0517	60
144.0249	25
145.0259	53
147.0343	10
149.0207	16
151.0346	54
159.0415	20
163.0535	20
164.03	72
164.0607	56
165.0707	16
169.0434	11
172.0363	97
173.0378	14
175.0527	28
176.0317	53
176.0614	14
177.0399	32
177.0705	10
178.047	183
181.0551	11
183.0598	31
188.0492	11
189.057	38
190.0652	819
191.0727	179
192.0689	37
193.0444	78
195.0577	14
199.0425	17
200.0495	182
201.0569	48
202.0652	31
203.0722	77
204.0812	42
208.0557	34
212.0418	28
213.0499	34
214.0617	11
215.0608	20
216.0675	83
217.076	192
218.0835	578
219.0473	127
219.093	14
220.0552	308
221.0592	57
222.0473	17
226.0507	31
227.0605	60
228.056	48
232.0511	42
233.0568	111
238.046	17
239.0537	174
240.0605	118
245.0538	28
246.0613	117
247.0664	403
248.0678	10
250.0465	32
252.061	41
253.0559	29
258.0532	54
259.0613	14
260.0681	20
265.0566	65
266.0646	45
267.072	234
270.0515	51
271.0575	13
273.0612	29
286.0708	114
287.0784	72
