Mass spectrum: 4`-Aminoacetanilide; LC-ESI-QTOF; MS2; 20 V
Name: 4`-Aminoacetanilide
Formula: C8H10N2O
Exact mass: 150.0793
SMILES: CC(=O)NC1=CC=C(C=C1)N
InChI: InChI=1S/C8H10N2O/c1-6(11)10-8-4-2-7(9)3-5-8/h2-5H,9H2,1H3,(H,10,11)
Instrument: TripleTOF X500R SCIEX
Instrument type: LC-ESI-QTOF
Ms type: MS2
Ion mode: POSITIVE
Collision energy: 20
Fragmentation mode: CID
Ionization: ESI
Column name: Zorbax Eclipse Plus C18 2.1 mm x 150 mm, 3.5 um, Agilent
Retention time: 2.212 min
Precursor m/z: 151.0866
Precursor type: [M+H]+
m/z	relative intensity
43.0179	22
92.0496	150
93.0581	17
106.0661	11
108.0683	61
109.0758	999
110.06	33
133.0766	82
151.0865	707
