Mass spectrum: Urapidil; LC-ESI-QTOF; MS2; 35 V
Name: Urapidil
Class: Pharmaceutical
Formula: C20H29N5O3
Exact mass: 387.227
SMILES: CN1C(=CC(=O)N(C1=O)C)NCCCN2CCN(CC2)C3=CC=CC=C3OC
InChI: InChI=1S/C20H29N5O3/c1-22-18(15-19(26)23(2)20(22)27)21-9-6-10-24-11-13-25(14-12-24)16-7-4-5-8-17(16)28-3/h4-5,7-8,15,21H,6,9-14H2,1-3H3
Instrument: TripleTOF 5600 SCIEX
Instrument type: LC-ESI-QTOF
Ms type: MS2
Ion mode: POSITIVE
Collision energy: 35
Fragmentation mode: CID
Ionization: ESI
Column name: Zorbax Eclipse Plus C18 2.1 mm x 150 mm, 3.5 um, Agilent
Retention time: 5.76 min
Precursor m/z: 388.2344
Precursor type: [M+H]+
m/z	relative intensity
70.0653	36
141.0648	39
150.0907	37
162.0895	150
168.0742	79
175.0865	50
189.1014	33
190.1109	877
191.1127	37
193.1346	51
196.1084	886
203.1142	50
205.1339	999
219.1502	376
231.1481	33
233.1645	822
247.1636	166
388.2344	210
