Mass spectrum: Phenylbutazone; LC-ESI-QTOF; MS2; 10 V
Name: Phenylbutazone
Class: Pharmaceutical
Formula: C19H20N2O2
Exact mass: 308.1525
SMILES: CCCCC1C(=O)N(N(C1=O)C2=CC=CC=C2)C3=CC=CC=C3
InChI: InChI=1S/C19H20N2O2/c1-2-3-14-17-18(22)20(15-10-6-4-7-11-15)21(19(17)23)16-12-8-5-9-13-16/h4-13,17H,2-3,14H2,1H3
Instrument: TripleTOF 5600 SCIEX
Instrument type: LC-ESI-QTOF
Ms type: MS2
Ion mode: POSITIVE
Collision energy: 10
Fragmentation mode: CID
Ionization: ESI
Column name: Zorbax Eclipse Plus C18 2.1 mm x 150 mm, 3.5 um, Agilent
Retention time: 13.103 min
Precursor m/z: 309.1598
Precursor type: [M+H]+
m/z	relative intensity
120.0467	12
188.1078	22
190.1238	23
211.0868	21
309.1588	999
