Mass spectrum: Inabenfide; LC-ESI-QTOF; MS2; 130 V
Name: Inabenfide
Formula: C19H15ClN2O2
Exact mass: 338.0822
SMILES: C1=CC=C(C=C1)C(C2=C(C=CC(=C2)Cl)NC(=O)C3=CC=NC=C3)O
InChI: InChI=1S/C19H15ClN2O2/c20-15-6-7-17(22-19(24)14-8-10-21-11-9-14)16(12-15)18(23)13-4-2-1-3-5-13/h1-12,18,23H,(H,22,24)
Instrument: TripleTOF 6600 SCIEX
Instrument type: LC-ESI-QTOF
Ms type: MS2
Ion mode: POSITIVE
Collision energy: 130
Fragmentation mode: CID
Ionization: ESI
Column name: Zorbax Eclipse Plus C18 2.1 mm x 150 mm, 3.5 um, Agilent
Retention time: 10.231 min
Precursor m/z: 339.0895
Precursor type: [M+H]+
m/z	relative intensity
39.0223	42
49.0063	204
50.0143	836
51.0221	759
52.0177	204
52.0297	999
53.0374	204
61.0071	34
62.0131	51
63.0218	162
65.0375	68
74.0138	145
75.022	204
76.0306	85
77.0374	222
78.033	153
79.0405	444
80.0482	239
86.0142	59
87.0219	85
88.0305	59
89.0373	187
98.014	128
99.0081	42
99.0215	145
100.017	42
100.0281	42
101.0371	85
102.0455	111
113.0363	145
115.053	239
123.0215	51
125.0381	204
126.0449	298
127.0392	85
127.0515	128
128.0555	93
137.0362	85
138.0448	42
139.0532	555
140.0472	102
140.059	51
149.0374	136
150.0454	811
151.0525	614
152.0489	128
152.0602	153
153.057	85
154.0625	51
161.0366	76
162.0443	102
163.0532	452
164.0605	239
165.0687	170
166.0639	119
167.0734	59
174.0439	85
175.0452	136
176.0478	93
176.0603	76
177.0563	315
178.0637	145
179.0588	136
186.0457	93
187.0535	281
188.052	111
198.0455	42
199.0519	68
200.0604	230
201.0561	76
201.0685	59
202.0724	59
204.055	34
211.0535	153
212.0503	145
213.0674	290
214.0666	119
215.0811	42
225.0563	93
226.0657	111
227.0727	162
228.0786	93
236.0556	34
238.0623	93
239.0708	42
240.0801	153
253.0752	68
