Mass spectrum: Michler`s ketone; LC-ESI-QTOF; MS2; 50 V
Name: Michler`s ketone
Formula: C17H20N2O
Exact mass: 268.1576
SMILES: CN(C)C1=CC=C(C=C1)C(=O)C2=CC=C(C=C2)N(C)C
InChI: InChI=1S/C17H20N2O/c1-18(2)15-9-5-13(6-10-15)17(20)14-7-11-16(12-8-14)19(3)4/h5-12H,1-4H3
Instrument: TripleTOF X500R SCIEX
Instrument type: LC-ESI-QTOF
Ms type: MS2
Ion mode: POSITIVE
Collision energy: 50
Fragmentation mode: CID
Ionization: ESI
Column name: Zorbax Eclipse Plus C18 2.1 mm x 150 mm, 3.5 um, Agilent
Retention time: 12.383 min
Precursor m/z: 269.1649
Precursor type: [M+H]+
m/z	relative intensity
42.0339	125
77.0389	102
79.0542	100
80.0496	13
91.0543	151
92.0572	59
93.07	49
103.0543	64
104.0496	103
105.0572	269
106.0654	50
118.0653	78
119.0734	29
120.0811	266
134.0601	245
148.0755	999
152.0621	16
153.0699	21
165.0695	10
166.0642	10
167.073	27
180.0817	12
181.0883	23
182.0964	13
193.0869	10
194.0968	23
195.0677	32
195.1034	13
208.0751	22
209.084	31
210.0909	160
211.0984	11
221.1081	35
222.1146	44
223.0922	13
224.1074	90
237.1031	76
237.1383	96
238.1099	59
239.1159	10
253.1339	167
