Mass spectrum: 2-Isopropylphenyl diphenyl phosphate; LC-ESI-QTOF; MS2; 60 V
Name: 2-Isopropylphenyl diphenyl phosphate
Class: Industrial_process
Formula: C21H21O4P
Exact mass: 368.1177
SMILES: CC(C)C1=CC=CC=C1OP(=O)(OC2=CC=CC=C2)OC3=CC=CC=C3
InChI: InChI=1S/C21H21O4P/c1-17(2)20-15-9-10-16-21(20)25-26(22,23-18-11-5-3-6-12-18)24-19-13-7-4-8-14-19/h3-17H,1-2H3
Instrument: TripleTOF 6600 SCIEX
Instrument type: LC-ESI-QTOF
Ms type: MS2
Ion mode: POSITIVE
Collision energy: 60
Fragmentation mode: CID
Ionization: ESI
Column name: Zorbax Eclipse Plus C18 2.1 mm x 150 mm, 3.5 um, Agilent
Retention time: 15.788 min
Precursor m/z: 369.125
Precursor type: [M+H]+
m/z	relative intensity
39.0227	11
51.0223	32
65.0379	44
77.0383	598
91.0542	437
95.0485	35
105.0441	16
127.0536	11
138.9947	18
151.054	91
152.0618	999
153.0695	194
165.0681	32
168.057	320
175.0156	23
179.0606	14
187.0308	21
202.0779	21
215.0251	320
226.0776	25
227.0864	49
228.0938	105
229.1026	9
233.0371	28
251.0471	100
327.0792	25
