Mass spectrum: Bis(triphenylphosphonio)amine; LC-ESI-QTOF; MS2; 100 V
Name: Bis(triphenylphosphonio)amine
Formula: [C36H30NP2]+
Exact mass: 538.1848
SMILES: C1=CC=C(C=C1)P(=N[P+](C2=CC=CC=C2)(C3=CC=CC=C3)C4=CC=CC=C4)(C5=CC=CC=C5)C6=CC=CC=C6
InChI: InChI=1S/C36H30NP2/c1-7-19-31(20-8-1)38(32-21-9-2-10-22-32,33-23-11-3-12-24-33)37-39(34-25-13-4-14-26-34,35-27-15-5-16-28-35)36-29-17-6-18-30-36/h1-30H/q+1
Instrument: TripleTOF 6600 SCIEX
Instrument type: LC-ESI-QTOF
Ms type: MS2
Ion mode: POSITIVE
Collision energy: 100
Fragmentation mode: CID
Ionization: ESI
Column name: Zorbax Eclipse Plus C18 2.1 mm x 150 mm, 3.5 um, Agilent
Retention time: 12.265 min
Precursor m/z: 538.1848
Precursor type: [M]+
m/z	relative intensity
107.0023	55
122.0139	206
183.0358	999
184.0432	80
185.0512	117
198.0463	82
230.0282	295
262.0905	74
306.06	813
384.1062	59
460.1386	54
