Mass spectrum: Benalaxyl; LC-ESI-QTOF; MS2; 100 V
Name: Benalaxyl
Class: Fungicide
Formula: C20H23NO3
Exact mass: 325.1678
SMILES: CC1=C(C(=CC=C1)C)N(C(C)C(=O)OC)C(=O)CC2=CC=CC=C2
InChI: InChI=1S/C20H23NO3/c1-14-9-8-10-15(2)19(14)21(16(3)20(23)24-4)18(22)13-17-11-6-5-7-12-17/h5-12,16H,13H2,1-4H3
Instrument: TripleTOF 6600 SCIEX
Instrument type: LC-ESI-QTOF
Ms type: MS2
Ion mode: POSITIVE
Collision energy: 100
Fragmentation mode: CID
Ionization: ESI
Column name: Zorbax Eclipse Plus C18 2.1 mm x 150 mm, 3.5 um, Agilent
Retention time: 13.881 min
Precursor m/z: 326.1751
Precursor type: [M+H]+
m/z	relative intensity
37.0076	24
38.0149	19
39.0227	169
41.0383	40
50.015	16
51.0224	78
61.007	10
62.0155	18
63.0219	58
65.0382	683
77.038	508
78.0449	44
79.0539	197
80.0492	17
89.037	16
91.0536	999
93.0691	15
103.0528	129
105.0446	14
105.0687	51
106.0642	386
115.0528	19
117.055	46
118.0638	69
120.0797	221
121.0881	13
132.0805	42
180.0813	14
