Mass spectrum: 2-Methylbenzimidazole; LC-ESI-QTOF; MS2; 120 V
Name: 2-Methylbenzimidazole
Formula: C8H8N2
Exact mass: 132.0687
SMILES: CC1=NC2=CC=CC=C2N1
InChI: InChI=1S/C8H8N2/c1-6-9-7-4-2-3-5-8(7)10-6/h2-5H,1H3,(H,9,10)
Instrument: TripleTOF 6600 SCIEX
Instrument type: LC-ESI-QTOF
Ms type: MS2
Ion mode: POSITIVE
Collision energy: 120
Fragmentation mode: CID
Ionization: ESI
Column name: Zorbax Eclipse Plus C18 2.1 mm x 150 mm, 3.5 um, Agilent
Retention time: 4.68 min
Precursor m/z: 133.076
Precursor type: [M+H]+
m/z	relative intensity
35.9992	299
37.0071	999
38.0023	86
38.015	517
39.0225	283
42.0338	35
49.0072	162
50.0146	192
51.0099	65
51.0221	25
52.0178	76
59.9988	45
61.007	360
62.0149	289
63.0225	96
73.0059	25
74.0144	35
