Mass spectrum: Clonazepam; LC-ESI-QTOF; MS2; 130 V
Name: Clonazepam
Class: Pharmaceutical
Formula: C15H10ClN3O3
Exact mass: 315.0411
SMILES: C1C(=O)NC2=C(C=C(C=C2)[N+](=O)[O-])C(=N1)C3=CC=CC=C3Cl
InChI: InChI=1S/C15H10ClN3O3/c16-12-4-2-1-3-10(12)15-11-7-9(19(21)22)5-6-13(11)18-14(20)8-17-15/h1-7H,8H2,(H,18,20)
Instrument: TripleTOF 6600 SCIEX
Instrument type: LC-ESI-QTOF
Ms type: MS2
Ion mode: POSITIVE
Collision energy: 130
Fragmentation mode: CID
Ionization: ESI
Column name: Zorbax Eclipse Plus C18 2.1 mm x 150 mm, 3.5 um, Agilent
Retention time: 9.867 min
Precursor m/z: 316.0484
Precursor type: [M+H]+
m/z	relative intensity
37.008	11
39.0225	33
49.0063	12
50.0154	106
51.023	157
52.0193	9
59.9983	9
61.0064	43
62.0147	58
63.0227	105
65.0373	14
72.9835	9
73.0069	37
74.0147	256
75.0111	16
75.0227	233
76.0181	34
76.0305	89
77.0384	207
78.046	25
83.9993	11
85.0073	33
86.0148	78
87.0223	107
88.0166	16
88.0292	21
89.0382	94
97.0069	14
98.0147	242
99.0221	200
100.0169	13
100.0298	45
101.0375	40
102.0462	73
109.0073	25
110.0141	65
111.0218	52
112.0179	21
113.0381	100
114.0338	24
115.0553	43
122.015	62
123.0223	64
124.0307	38
125.0385	138
126.046	207
127.0526	75
128.0594	19
129.0447	11
134.0155	14
135.0189	17
137.038	68
138.0388	38
139.0533	95
140.0512	44
148.0324	13
149.0381	145
150.0464	999
151.0538	493
152.0605	208
153.057	17
161.0385	76
162.0456	89
163.0529	176
164.0507	47
175.0415	97
176.0493	87
177.0582	173
178.0652	27
179.0581	15
186.0335	13
187.0389	11
188.0473	67
202.0551	9
203.0572	11
204.0522	12
