Mass spectrum: N,N-bis(ethoxycarbonyl)-4-methyl-1,3-phenylenediamine; LC-ESI-QTOF; MS2; 40 V
Name: N,N-bis(ethoxycarbonyl)-4-methyl-1,3-phenylenediamine
Class: Pharmaceutical
Formula: C13H18N2O4
Exact mass: 266.1267
SMILES: CCOC(=O)NC1=CC(=C(C=C1)C)NC(=O)OCC
InChI: InChI=1S/C13H18N2O4/c1-4-18-12(16)14-10-7-6-9(3)11(8-10)15-13(17)19-5-2/h6-8H,4-5H2,1-3H3,(H,14,16)(H,15,17)
Instrument: TripleTOF 5600 SCIEX
Instrument type: LC-ESI-QTOF
Ms type: MS2
Ion mode: POSITIVE
Collision energy: 40
Fragmentation mode: CID
Ionization: ESI
Column name: Zorbax Eclipse Plus C18 2.1 mm x 150 mm, 3.5 um, Agilent
Retention time: 10.056 min
Precursor m/z: 267.1339
Precursor type: [M+H]+
m/z	relative intensity
77.0441	216
78.0386	34
79.0589	126
80.0537	11
91.0576	14
92.0527	115
93.0631	13
94.0681	137
104.0517	192
105.0476	15
106.0668	428
107.051	14
107.0744	16
117.0586	13
119.0646	46
120.0458	171
121.0774	427
122.0608	115
132.0455	419
133.0286	10
134.0478	89
134.0965	39
147.0558	999
148.0425	13
149.0715	142
149.1067	18
150.0555	217
159.0924	13
160.0508	27
165.0653	58
175.0503	879
178.0611	27
178.0851	26
185.0715	21
193.0607	496
203.0814	34
206.0931	13
221.0911	158
