Mass spectrum: Bixafen; LC-ESI-QTOF; MS2; 100 V
Name: Bixafen
Class: Fungicide
Formula: C18H12Cl2F3N3O
Exact mass: 413.031
SMILES: CN1C=C(C(=N1)C(F)F)C(=O)NC2=C(C=C(C=C2)F)C3=CC(=C(C=C3)Cl)Cl
InChI: InChI=1S/C18H12Cl2F3N3O/c1-26-8-12(16(25-26)17(22)23)18(27)24-15-5-3-10(21)7-11(15)9-2-4-13(19)14(20)6-9/h2-8,17H,1H3,(H,24,27)
Instrument: TripleTOF 6600 SCIEX
Instrument type: LC-ESI-QTOF
Ms type: MS2
Ion mode: POSITIVE
Collision energy: 100
Fragmentation mode: CID
Ionization: ESI
Column name: Zorbax Eclipse Plus C18 2.1 mm x 150 mm, 3.5 um, Agilent
Retention time: 13.359 min
Precursor m/z: 414.0382
Precursor type: [M+H]+
m/z	relative intensity
42.0335	67
43.0287	18
57.0136	16
68.0132	10
74.0144	12
75.0232	26
83.0285	16
88.0143	10
94.0191	10
98.0137	24
99.0212	40
109.0388	34
122.0125	34
123.0211	107
124.0169	20
131.0338	14
134.0359	10
139.0289	18
141.012	14
143.0275	50
144.0336	24
146.0129	18
146.0412	12
147.0226	52
148.0189	38
149.0371	256
150.0417	42
156.0295	12
157.0432	18
158.0387	18
159.0366	44
161.0343	12
162.0343	10
166.0212	24
167.0282	288
168.0356	557
169.0436	999
170.0382	71
173.0352	14
174.0324	177
175.0395	59
175.0534	16
176.0491	146
177.054	16
177.9964	14
178.058	16
179.0273	28
180.0347	67
181.0426	136
182.0431	63
183.038	18
184.007	34
184.9992	12
185.0342	22
186.0358	38
187.0435	67
188.0484	93
189.0472	14
192.0299	34
193.0322	288
194.0374	634
195.0467	441
196.0096	10
196.0548	400
197.0501	48
198.0434	10
199.0443	65
200.0503	166
201.0567	61
201.996	81
202.0371	12
202.0644	30
203.0024	32
204.0126	526
204.0534	28
205.0433	272
206.0417	449
207.0479	299
208.0556	292
209.0015	38
209.0465	12
209.0597	12
211.0162	40
212.0466	77
213.0463	89
214.0549	65
215.0021	50
215.0609	52
216.0107	20
216.066	14
217.021	30
218.0483	93
219.0478	158
220.0548	219
221.0601	197
222.0059	12
222.0161	14
222.0425	158
222.0756	14
223.0253	16
223.064	10
224.0463	14
225.0548	30
225.0665	16
226.0646	65
227.0643	71
228.0112	28
228.0683	42
229.0069	706
230.0174	56
230.0358	56
231.0248	177
231.0512	48
232.0544	551
233.0511	390
234.0557	213
235.0199	12
235.0603	18
235.0719	14
240.0043	18
240.056	18
241.0206	160
241.0587	16
242.0143	128
243.0236	22
244.0529	61
245.0592	168
246.0664	319
247.0658	166
248.0245	16
249.0241	28
250.0208	12
253.0105	12
254.0142	24
254.0743	10
255.0181	38
256.0269	40
256.0431	10
257.0451	30
258.0558	32
259.0537	67
260.0144	10
260.0627	69
261.0663	16
262.0555	10
266.0103	38
267.0187	63
268.0236	52
269.0286	14
270.0318	20
272.0643	32
274.0223	10
274.0715	40
274.98	24
275.0574	32
275.969	10
279.0087	12
280.0273	52
281.0295	52
295.0256	16
301.9917	24
308.0268	20
309.0159	16
