Mass spectrum: Lamivudine; LC-ESI-QTOF; MS2; 20 V
Name: Lamivudine
Class: Pharmaceutical
Formula: C8H11N3O3S
Exact mass: 229.0521
SMILES: NC1=NC(=O)N(C=C1)[C@@H]2CS[C@H](CO)O2
InChI: InChI=1S/C8H11N3O3S/c9-5-1-2-11(8(13)10-5)6-4-15-7(3-12)14-6/h1-2,6-7,12H,3-4H2,(H2,9,10,13)/t6-,7+/m0/s1
Instrument: TripleTOF 5600 SCIEX
Instrument type: LC-ESI-QTOF
Ms type: MS2
Ion mode: POSITIVE
Collision energy: 20
Fragmentation mode: CID
Ionization: ESI
Column name: Zorbax Eclipse Plus C18 2.1 mm x 150 mm, 3.5 um, Agilent
Retention time: 3.105 min
Precursor m/z: 230.0594
Precursor type: [M+H]+
m/z	relative intensity
95.0242	15
101.004	12
112.0506	999
230.0565	12
