Mass spectrum: Levamisole; LC-ESI-QTOF; MS2; 30 V
Name: Levamisole
Class: Pharmaceutical
Formula: C11H12N2S
Exact mass: 204.0721
SMILES: c1ccc(cc1)[C@H]2CN3CCSC3=N2
InChI: InChI=1S/C11H12N2S/c1-2-4-9(5-3-1)10-8-13-6-7-14-11(13)12-10/h1-5,10H,6-8H2/t10-/m1/s1
Instrument: TripleTOF 5600 SCIEX
Instrument type: LC-ESI-QTOF
Ms type: MS2
Ion mode: POSITIVE
Collision energy: 30
Fragmentation mode: CID
Ionization: ESI
Column name: Zorbax Eclipse Plus C18 2.1 mm x 150 mm, 3.5 um, Agilent
Retention time: 5.021 min
Precursor m/z: 205.0794
Precursor type: [M+H]+
m/z	relative intensity
88.0241	43
91.0569	114
103.0554	17
105.0709	45
115.0546	18
117.0698	95
118.066	69
123.0273	180
128.0623	43
129.0708	94
130.0652	18
131.0735	26
132.0813	14
135.027	21
144.0818	29
145.077	43
146.0974	80
150.038	36
178.0698	945
188.0535	22
205.0806	999
