Mass spectrum: Prallethrin; LC-ESI-QTOF; MS2; 100 V
Name: Prallethrin
Class: Insecticide
Formula: C19H24O3
Exact mass: 300.1725
SMILES: CC1=C(C(=O)CC1OC(=O)C2C(C2(C)C)C=C(C)C)CC#C
InChI: InChI=1S/C19H24O3/c1-7-8-13-12(4)16(10-15(13)20)22-18(21)17-14(9-11(2)3)19(17,5)6/h1,9,14,16-17H,8,10H2,2-6H3
Instrument: TripleTOF 6600 SCIEX
Instrument type: LC-ESI-QTOF
Ms type: MS2
Ion mode: POSITIVE
Collision energy: 100
Fragmentation mode: CID
Ionization: ESI
Column name: Zorbax Eclipse Plus C18 2.1 mm x 150 mm, 3.5 um, Agilent
Retention time: 14.861 min
Precursor m/z: 301.1798
Precursor type: [M+H]+
m/z	relative intensity
37.0076	22
38.0167	17
39.0239	127
41.039	75
43.0179	25
49.0076	37
50.0154	207
51.0236	751
53.039	57
55.0547	20
62.0164	12
63.0238	35
65.0392	92
66.0475	15
67.0554	15
74.0158	20
75.0247	10
76.0322	12
77.039	999
78.0466	35
79.0549	127
81.0694	10
89.0393	75
91.0543	65
93.0697	12
102.0469	15
103.054	50
105.0457	32
115.0551	35
128.0647	12
