Mass spectrum: Dronabinol; LC-ESI-QTOF; MS2; 80 V
Name: Dronabinol
Class: Pharmaceutical
Formula: C21H30O2
Exact mass: 314.2246
SMILES: CCCCCC1=CC(=C2C3C=C(CCC3C(OC2=C1)(C)C)C)O
InChI: InChI=1S/C21H30O2/c1-5-6-7-8-15-12-18(22)20-16-11-14(2)9-10-17(16)21(3,4)23-19(20)13-15/h11-13,16-17,22H,5-10H2,1-4H3
Instrument: TripleTOF 6600 SCIEX
Instrument type: LC-ESI-QTOF
Ms type: MS2
Ion mode: POSITIVE
Collision energy: 80
Fragmentation mode: CID
Ionization: ESI
Column name: Zorbax Eclipse Plus C18 2.1 mm x 150 mm, 3.5 um, Agilent
Retention time: 17.589 min
Precursor m/z: 315.2319
Precursor type: [M+H]+
m/z	relative intensity
37.0073	49
38.0016	14
38.0142	53
39.0224	450
41.0381	684
43.0166	35
43.054	89
50.0165	9
51.0216	103
53.0379	82
55.0168	72
55.0532	75
65.0373	288
66.0455	14
67.0536	260
68.9959	14
69.0324	18
69.0685	42
77.0378	999
78.046	46
79.0529	483
80.0596	16
81.0323	16
81.0688	189
83.0122	30
89.0383	30
90.0449	21
91.0531	705
93.0681	60
94.0415	21
95.0489	100
102.044	11
103.0533	93
104.0588	18
105.0441	18
105.0691	147
107.0475	161
107.085	35
108.0556	53
109.0638	21
115.0534	234
116.0586	23
117.0681	42
119.0504	16
119.0858	16
121.0646	16
123.042	145
127.0518	49
128.0608	143
129.0683	53
131.0469	82
133.0632	18
136.0506	25
137.0604	18
141.0695	79
142.0758	14
144.0555	25
145.0633	23
147.0426	49
152.0561	18
153.0699	28
155.0826	16
157.0667	9
160.0505	56
161.0593	39
165.0693	21
168.0545	21
169.0695	11
173.0576	37
174.0673	32
175.0763	16
181.0642	18
186.0644	18
187.0731	35
