Mass spectrum: 2-Propinyl-triphenylphosphonium; LC-ESI-QTOF; MS2; 80 V
Name: 2-Propinyl-triphenylphosphonium
Formula: [C21H18P]+
Exact mass: 301.1141
SMILES: C#CC[P+](C1=CC=CC=C1)(C2=CC=CC=C2)C3=CC=CC=C3
InChI: InChI=1S/C21H18P/c1-2-18-22(19-12-6-3-7-13-19,20-14-8-4-9-15-20)21-16-10-5-11-17-21/h1,3-17H,18H2/q+1
Instrument: TripleTOF 6600 SCIEX
Instrument type: LC-ESI-QTOF
Ms type: MS2
Ion mode: POSITIVE
Collision energy: 80
Fragmentation mode: CID
Ionization: ESI
Column name: Zorbax Eclipse Plus C18 2.1 mm x 150 mm, 3.5 um, Agilent
Retention time: 7.928 min
Precursor m/z: 301.1141
Precursor type: [M]+
m/z	relative intensity
77.0358	196
91.05	53
103.0504	93
107.0009	508
115.0507	306
121.0166	102
139.0506	94
144.0088	107
145.0167	200
152.0593	507
157.0169	194
164.0587	81
165.0674	602
176.0586	60
178.0743	137
183.0336	999
189.067	196
191.0816	74
207.0333	356
220.0403	104
