Mass spectrum: Abacavir; LC-ESI-QTOF; MS2; 60 V
Name: Abacavir
Class: Pharmaceutical
Formula: C14H18N6O
Exact mass: 286.1542
SMILES: Nc1nc(NC2CC2)c3ncn([C@@H]4C[C@H](CO)C=C4)c3n1
InChI: InChI=1S/C14H18N6O/c15-14-18-12(17-9-2-3-9)11-13(19-14)20(7-16-11)10-4-1-8(5-10)6-21/h1,4,7-10,21H,2-3,5-6H2,(H3,15,17,18,19)/t8-,10+/m1/s1
Instrument: TripleTOF 5600 SCIEX
Instrument type: LC-ESI-QTOF
Ms type: MS2
Ion mode: POSITIVE
Collision energy: 60
Fragmentation mode: CID
Ionization: ESI
Column name: Zorbax Eclipse Plus C18 2.1 mm x 150 mm, 3.5 um, Agilent
Retention time: 5.094 min
Precursor m/z: 287.1615
Precursor type: [M+H]+
m/z	relative intensity
43.0368	12
55.0343	20
56.0547	11
58.0709	76
65.0438	11
67.0588	92
68.0548	10
77.0427	522
78.0363	15
79.0581	451
80.0271	43
82.0425	43
92.0259	60
93.046	18
94.0418	25
95.0618	36
105.0455	40
106.0397	19
107.0367	304
108.044	217
109.0519	309
119.0355	82
120.0555	49
121.0518	24
122.0713	44
123.0537	26
132.0557	44
133.0395	87
134.0473	999
135.054	18
136.0616	27
147.0668	64
148.0613	24
149.0819	97
150.066	632
151.0729	20
163.0733	34
164.093	28
173.0706	16
174.0779	241
175.0729	146
191.1038	76
