Mass spectrum: 2-[(Dimethylamino)methyl]benzonitrile; LC-ESI-QTOF; MS2; 40 V
Name: 2-[(Dimethylamino)methyl]benzonitrile
Formula: C10H12N2
Exact mass: 160.1
SMILES: CN(C)CC1=CC=CC=C1C#N
InChI: InChI=1S/C10H12N2/c1-12(2)8-10-6-4-3-5-9(10)7-11/h3-6H,8H2,1-2H3
Instrument: TripleTOF X500R SCIEX
Instrument type: LC-ESI-QTOF
Ms type: MS2
Ion mode: POSITIVE
Collision energy: 40
Fragmentation mode: CID
Ionization: ESI
Column name: Zorbax Eclipse Plus C18 2.1 mm x 150 mm, 3.5 um, Agilent
Retention time: 4.371 min
Precursor m/z: 161.1073
Precursor type: [M+H]+
m/z	relative intensity
39.0232	13
44.0494	39
63.0229	48
65.0381	18
89.0381	756
90.0343	48
91.0548	23
116.049	999
117.0573	53
118.0649	24
