Mass spectrum: Boscalid; LC-ESI-QTOF; MS2; 70 V
Name: Boscalid
Class: Fungicide
Formula: C18H12Cl2N2O
Exact mass: 342.0327
SMILES: C1=CC=C(C(=C1)C2=CC=C(C=C2)Cl)NC(=O)C3=C(N=CC=C3)Cl
InChI: InChI=1S/C18H12Cl2N2O/c19-13-9-7-12(8-10-13)14-4-1-2-6-16(14)22-18(23)15-5-3-11-21-17(15)20/h1-11H,(H,22,23)
Instrument: TripleTOF 6600 SCIEX
Instrument type: LC-ESI-QTOF
Ms type: MS2
Ion mode: POSITIVE
Collision energy: 70
Fragmentation mode: CID
Ionization: ESI
Column name: Zorbax Eclipse Plus C18 2.1 mm x 150 mm, 3.5 um, Agilent
Retention time: 12.31 min
Precursor m/z: 343.04
Precursor type: [M+H]+
m/z	relative intensity
49.0067	17
50.0145	56
51.0226	156
61.9792	21
75.0099	46
76.0179	504
78.0331	579
84.9832	49
111.9939	767
113.0018	46
113.0366	21
114.0089	14
114.032	24
115.0538	17
139.9896	63
140.0486	78
142.0512	21
150.0462	28
151.0533	49
152.0607	177
163.0523	14
164.0538	21
165.0668	31
166.0578	49
167.0729	35
168.0688	35
174.0457	21
175.0536	24
176.0612	21
177.0572	159
178.0678	31
179.0602	24
188.059	21
189.0523	14
189.0686	131
190.0638	88
191.0729	24
198.0473	17
199.0515	53
200.0607	127
201.0648	120
202.0712	99
203.072	120
204.0796	39
214.0645	170
215.073	149
216.0798	334
217.0853	103
218.0834	74
225.0557	99
226.0641	149
227.0721	366
228.0801	206
229.0771	49
240.0679	28
241.0752	177
242.083	999
243.0912	643
244.075	42
244.0983	81
245.0739	46
251.0576	46
252.0682	124
253.0751	344
254.0826	74
255.0905	24
262.0428	17
263.0381	28
269.0707	60
270.0784	191
271.0862	856
272.0941	92
289.0544	31
305.0514	17
