Mass spectrum: Trifloxystrobin; LC-ESI-QTOF; MS2; 80 V
Name: Trifloxystrobin
Class: Fungicide
Formula: C20H19F3N2O4
Exact mass: 408.1297
SMILES: CC(=NOCC1=CC=CC=C1C(=NOC)C(=O)OC)C2=CC(=CC=C2)C(F)(F)F
InChI: InChI=1S/C20H19F3N2O4/c1-13(14-8-6-9-16(11-14)20(21,22)23)24-29-12-15-7-4-5-10-17(15)18(25-28-3)19(26)27-2/h4-11H,12H2,1-3H3
Instrument: TripleTOF 5600 SCIEX
Instrument type: LC-ESI-QTOF
Ms type: MS2
Ion mode: POSITIVE
Collision energy: 80
Fragmentation mode: CID
Ionization: ESI
Column name: Zorbax Eclipse Plus C18 2.1 mm x 150 mm, 3.5 um, Agilent
Retention time: 15.037 min
Precursor m/z: 409.137
Precursor type: [M+H]+
m/z	relative intensity
65.0445	20
74.0211	18
75.0283	66
77.0441	40
79.059	11
89.0426	267
90.0498	95
91.0579	132
95.0322	324
103.0563	36
104.0613	23
105.0716	16
115.0441	37
116.0509	426
117.0587	138
118.0662	144
119.0112	12
119.05	15
123.0358	15
125.0209	148
130.0663	261
131.0739	242
132.0459	17
132.0818	32
143.0371	11
145.0259	999
146.0622	36
173.0328	52
186.0532	162
