Mass spectrum: Flufenacet; LC-ESI-QTOF; MS2; 140 V
Name: Flufenacet
Class: Herbicide; Fungicide
Formula: C14H13F4N3O2S
Exact mass: 363.0665
SMILES: CC(C)N(C1=CC=C(C=C1)F)C(=O)COC2=NN=C(S2)C(F)(F)F
InChI: InChI=1S/C14H13F4N3O2S/c1-8(2)21(10-5-3-9(15)4-6-10)11(22)7-23-13-20-19-12(24-13)14(16,17)18/h3-6,8H,7H2,1-2H3
Instrument: TripleTOF 6600 SCIEX
Instrument type: LC-ESI-QTOF
Ms type: MS2
Ion mode: POSITIVE
Collision energy: 140
Fragmentation mode: CID
Ionization: ESI
Column name: Zorbax Eclipse Plus C18 2.1 mm x 150 mm, 3.5 um, Agilent
Retention time: 13.345 min
Precursor m/z: 364.0738
Precursor type: [M+H]+
m/z	relative intensity
30.9975	12
37.0069	16
38.0147	12
39.0228	58
41.0388	22
49.0071	53
50.0151	275
51.0231	646
52.018	12
57.0135	385
59.0287	21
61.0071	32
62.0147	50
63.023	99
69.0133	60
70.0212	73
71.029	12
73.0071	56
74.0153	837
75.0231	999
76.0181	36
77.0387	387
78.034	27
81.0131	68
83.029	224
84.0375	12
89.0384	19
95.0294	285
96.0369	140
97.0445	30
104.0488	11
107.0287	98
108.0365	12
109.0446	65
122.0401	31
123.035	61
124.0548	12
