Mass spectrum: Abacavir carboxylic acid; LC-ESI-QTOF; MS2; 100 V
Name: Abacavir carboxylic acid
Class: Pharmaceutical; Metabolite; Transformation_product
Formula: C14H16N6O2
Exact mass: 300.1335
InChI: InChI=1S/C14H16N6O2/c15-14-18-11(17-8-2-3-8)10-12(19-14)20(6-16-10)9-4-1-7(5-9)13(21)22/h1,4,6-9H,2-3,5H2,(H,21,22)(H3,15,17,18,19)
Instrument: TripleTOF 5600 SCIEX
Instrument type: LC-ESI-QTOF
Ms type: CID
Ion mode: NEGATIVE
Collision energy: 100
Ionization: ESI
Column name: Zorbax Eclipse Plus C18 2.1 mm x 150 mm, 3.5 um, Agilent
Retention time: 5.194 min
Precursor m/z: 299.1262
Precursor type: [M-H]-
m/z	relative intensity
41.0171	242
64.005	71
65.0127	71
66.0097	999
90.0066	71
106.0267	342
107.0341	199
131.0206	85
132.0283	171
