Mass spectrum: Napropamide; LC-ESI-QTOF; MS2; 100 V
Name: Napropamide
Class: Herbicide
Formula: C17H21NO2
Exact mass: 271.1572
SMILES: CCN(CC)C(=O)C(C)Oc1cccc2c1cccc2
InChI: InChI=1S/C17H21NO2/c1-4-18(5-2)17(19)13(3)20-16-12-8-10-14-9-6-7-11-15(14)16/h6-13H,4-5H2,1-3H3
Instrument: TripleTOF 6600 SCIEX
Instrument type: LC-ESI-QTOF
Ms type: MS2
Ion mode: POSITIVE
Collision energy: 100
Fragmentation mode: CID
Ionization: ESI
Column name: Zorbax Eclipse Plus C18 2.1 mm x 150 mm, 3.5 um, Agilent
Retention time: 12.596 min
Precursor m/z: 272.1645
Precursor type: [M+H]+
m/z	relative intensity
30.0337	66
38.0027	108
39.0231	91
42.033	91
44.0133	316
44.0494	740
50.0152	166
51.0229	241
54.0334	49
55.0175	141
57.0334	124
58.0645	283
61.0067	49
62.0143	58
63.0224	149
65.0385	224
72.0808	33
74.0149	99
75.023	208
76.03	124
77.0383	582
78.0455	283
87.0221	41
89.0379	291
91.0538	108
98.0134	33
99.0234	41
101.0389	133
102.0463	424
115.0535	999
125.0388	49
126.0467	457
127.0538	441
128.0615	557
129.0453	41
139.0518	41
141.0675	83
150.0456	283
151.0539	366
152.0618	374
155.0588	83
