Mass spectrum: Diflufenican; LC-ESI-QTOF; MS2; 100 V
Name: Diflufenican
Class: Herbicide
Formula: C19H11F5N2O2
Exact mass: 394.0741
SMILES: C1=CC(=CC(=C1)OC2=C(C=CC=N2)C(=O)NC3=C(C=C(C=C3)F)F)C(F)(F)F
InChI: InChI=1S/C19H11F5N2O2/c20-12-6-7-16(15(21)10-12)26-17(27)14-5-2-8-25-18(14)28-13-4-1-3-11(9-13)19(22,23)24/h1-10H,(H,26,27)
Instrument: TripleTOF 6600 SCIEX
Instrument type: LC-ESI-QTOF
Ms type: MS2
Ion mode: POSITIVE
Collision energy: 100
Fragmentation mode: CID
Ionization: ESI
Column name: Zorbax Eclipse Plus C18 2.1 mm x 150 mm, 3.5 um, Agilent
Retention time: 14.853 min
Precursor m/z: 395.0814
Precursor type: [M+H]+
m/z	relative intensity
39.0233	84
50.0163	38
51.0234	99
57.0144	30
62.0161	38
63.0227	115
66.0335	46
68.9951	46
74.015	115
75.0051	99
75.0229	253
78.0346	130
81.014	69
83.0295	84
86.0158	30
87.0222	61
88.0312	184
89.0391	46
93.0156	38
94.0285	53
95.0291	376
99.0045	61
99.0222	99
100.0181	61
101.0201	53
101.039	61
105.0144	38
106.0208	53
107.0292	115
112.0189	38
113.019	69
113.0384	384
114.0319	69
114.0461	391
115.0503	69
117.0133	76
122.0158	130
123.0236	376
124.019	153
125.0197	230
125.0384	38
129.0311	46
129.0441	30
131.0282	192
132.0232	69
133.0444	568
134.0406	46
137.0205	46
138.0318	107
140.0495	999
141.0279	38
141.0569	169
142.0449	30
143.0293	507
144.0226	53
144.0365	61
145.0257	537
148.0226	53
149.0208	46
150.0327	222
151.0345	146
153.0377	38
156.0258	30
157.0342	76
158.0388	253
162.0273	122
163.0348	276
164.0423	192
168.0459	122
169.0327	46
169.0523	199
170.0401	176
171.0458	76
172.0541	53
175.0358	30
176.0302	138
177.0369	92
178.0343	53
182.0335	299
183.0391	199
184.0417	76
189.0386	184
190.0448	161
191.0403	84
198.0303	61
204.05	69
218.0404	222
232.0541	46
