Mass spectrum: Pantothenic acid; LC-ESI-QTOF; MS2; 30 V
Name: Pantothenic acid
Formula: C9H17NO5
Exact mass: 219.1107
SMILES: CC(C)(CO)C(C(=O)NCCC(=O)O)O
InChI: InChI=1S/C9H17NO5/c1-9(2,5-11)7(14)8(15)10-4-3-6(12)13/h7,11,14H,3-5H2,1-2H3,(H,10,15)(H,12,13)
Instrument: TripleTOF 6600 SCIEX
Instrument type: LC-ESI-QTOF
Ms type: MS2
Ion mode: NEGATIVE
Collision energy: 30
Fragmentation mode: CID
Ionization: ESI
Column name: Zorbax Eclipse Plus C18 2.1 mm x 150 mm, 3.5 um, Agilent
Retention time: 4.792 min
Precursor m/z: 218.1034
Precursor type: [M-H]-
m/z	relative intensity
41.9984	64
44.0135	197
71.0132	122
71.0492	603
72.0081	10
88.0395	820
99.0447	265
116.0711	114
129.0564	20
146.0819	999
