Mass spectrum: Malachite green cation; LC-ESI-QTOF; MS2; 70 V
Name: Malachite green cation
Class: Industrial_process; Pigment
Formula: [C23H25N2]+
Exact mass: 329.2012
SMILES: CN(C)C1=CC=C(C=C1)C(=C2C=CC(=[N+](C)C)C=C2)C3=CC=CC=C3
InChI: InChI=1S/C23H25N2/c1-24(2)21-14-10-19(11-15-21)23(18-8-6-5-7-9-18)20-12-16-22(17-13-20)25(3)4/h5-17H,1-4H3/q+1
Instrument: TripleTOF 5600 SCIEX
Instrument type: LC-ESI-QTOF
Ms type: MS2
Ion mode: POSITIVE
Collision energy: 70
Fragmentation mode: CID
Ionization: ESI
Column name: Zorbax Eclipse Plus C18 2.1 mm x 150 mm, 3.5 um, Agilent
Retention time: 9.29 min
Precursor m/z: 329.2012
Precursor type: [M]+
m/z	relative intensity
91.0535	49
118.0642	59
152.0633	108
164.06	178
165.0693	999
166.0768	98
191.077	89
192.0794	514
193.0886	306
194.0931	98
202.0779	79
207.1041	138
208.1122	722
215.0837	227
219.0909	98
221.1062	138
226.0793	138
227.0857	59
228.094	178
229.1011	79
235.1245	257
239.0848	514
240.0926	375
241.1022	949
242.1069	98
254.0969	158
255.1082	59
256.1145	89
267.1109	59
268.1122	395
269.1195	286
270.1263	108
270.1417	59
283.1293	79
284.1414	603
285.1502	108
297.142	445
298.162	49
311.1516	108
313.1686	642
