Mass spectrum: Fluorescein; LC-ESI-QTOF; MS2; 40 V
Name: Fluorescein
Class: Industrial_process; Pharmaceutical
Formula: C20H12O5
Exact mass: 332.0685
SMILES: C1=CC=C2C(=C1)C(=O)OC23C4=C(C=C(C=C4)O)OC5=C3C=CC(=C5)O
InChI: InChI=1S/C20H12O5/c21-11-5-7-15-17(9-11)24-18-10-12(22)6-8-16(18)20(15)14-4-2-1-3-13(14)19(23)25-20/h1-10,21-22H
Instrument: TripleTOF 5600 SCIEX
Instrument type: LC-ESI-QTOF
Ms type: MS2
Ion mode: POSITIVE
Collision energy: 40
Fragmentation mode: CID
Ionization: ESI
Column name: Zorbax Eclipse Plus C18 2.1 mm x 150 mm, 3.5 um, Agilent
Retention time: 9.527 min
Precursor m/z: 333.0757
Precursor type: [M+H]+
m/z	relative intensity
189.0692	11
201.0696	11
202.0779	56
203.0855	36
213.0719	14
215.0867	43
229.0512	20
231.0828	91
233.0967	13
241.0668	11
242.0743	19
243.0782	12
247.0739	14
258.068	22
259.0763	72
260.0882	15
261.0916	24
271.0752	98
286.0646	13
287.0712	280
289.0871	138
305.0811	42
315.0622	44
332.0402	10
333.0771	999
