Mass spectrum: Prednisolone; LC-ESI-QTOF; MS2; 50 V
Name: Prednisolone
Class: Pharmaceutical
Formula: C21H28O5
Exact mass: 360.1937
SMILES: C[C@]12C[C@H](O)[C@H]3[C@@H](CCC4=CC(=O)C=C[C@]34C)[C@@H]1CC[C@]2(O)C(=O)CO
InChI: InChI=1S/C21H28O5/c1-19-7-5-13(23)9-12(19)3-4-14-15-6-8-21(26,17(25)11-22)20(15,2)10-16(24)18(14)19/h5,7,9,14-16,18,22,24,26H,3-4,6,8,10-11H2,1-2H3/t14-,15-,16-,18+,19-,20-,21-/m0/s1
Instrument: TripleTOF 5600 SCIEX
Instrument type: LC-ESI-QTOF
Ms type: MS2
Ion mode: POSITIVE
Collision energy: 50
Fragmentation mode: CID
Ionization: ESI
Column name: Zorbax Eclipse Plus C18 2.1 mm x 150 mm, 3.5 um, Agilent
Retention time: 8.432 min
Precursor m/z: 361.201
Precursor type: [M+H]+
m/z	relative intensity
43.0266	13
55.0589	22
67.0611	47
69.0371	11
77.0408	102
79.0569	77
81.0367	11
81.0728	63
83.0528	13
91.056	291
93.0716	106
95.0517	13
95.0868	52
97.0657	25
103.0564	34
105.07	182
107.0482	22
107.0857	81
109.0656	25
109.1012	34
111.0815	22
115.054	65
116.0613	18
117.0691	91
119.0855	238
121.0649	721
121.0948	25
123.0794	20
127.0546	36
128.062	134
129.0701	79
130.0789	38
131.0478	20
131.0858	72
132.0564	91
133.0643	43
133.1007	40
135.0806	138
139.0761	15
141.0698	56
142.0768	45
143.0858	88
144.0567	34
145.0641	116
145.1019	129
146.0725	20
147.0811	999
152.0647	22
153.071	38
155.0852	109
156.0944	11
157.0635	40
157.1012	36
158.0728	225
159.081	152
159.1166	18
160.0884	15
161.0953	79
163.0752	25
163.1119	20
165.0705	68
166.0788	36
167.0865	36
169.0662	29
169.1015	25
170.0723	34
171.0804	712
171.1192	11
172.0887	36
173.0963	414
177.0686	11
178.0777	40
179.0849	81
180.0934	27
181.0656	43
181.1012	38
182.0723	38
183.0823	52
184.0878	31
185.0959	88
187.1114	22
189.0712	11
190.0781	61
191.0868	45
192.0931	38
193.1008	47
194.0717	34
194.1096	18
195.0816	127
195.1173	25
196.0882	97
196.1255	13
197.0946	118
198.1042	25
199.111	50
202.0766	15
203.088	38
204.0927	40
205.1019	56
206.1122	22
207.0805	36
207.1185	31
208.0877	188
209.0971	211
210.1051	91
211.1126	118
212.1198	29
213.1284	29
215.0849	31
216.0928	25
217.102	27
218.0706	11
218.1083	18
219.0803	25
219.1172	38
220.0892	36
221.0961	93
221.1327	27
222.1038	102
223.1119	211
224.1194	68
225.1256	31
226.1339	31
228.0886	20
229.1018	25
231.0816	29
231.1163	20
232.0863	27
233.0971	43
233.135	27
234.1041	47
235.1115	45
236.1186	45
237.1281	97
238.1387	22
239.1439	54
241.1003	34
243.1183	20
244.0891	20
245.0981	65
246.1038	45
247.114	54
248.1195	65
249.1291	52
249.1657	47
250.1345	29
251.1438	309
255.1176	13
258.1043	11
259.1111	79
259.1339	20
260.1179	18
261.1262	47
262.1377	15
263.1447	20
264.15	15
265.1591	61
266.1661	45
273.126	31
274.1351	25
289.1587	25
294.1675	15
