Mass spectrum: Nitrazepam; LC-ESI-QTOF; MS2; 100 V
Name: Nitrazepam
Class: Pharmaceutical
Formula: C15H11N3O3
Exact mass: 281.08
SMILES: C1C(=O)NC2=C(C=C(C=C2)[N+](=O)[O-])C(=N1)C3=CC=CC=C3
InChI: InChI=1S/C15H11N3O3/c19-14-9-16-15(10-4-2-1-3-5-10)12-8-11(18(20)21)6-7-13(12)17-14/h1-8H,9H2,(H,17,19)
Instrument: TripleTOF 6600 SCIEX
Instrument type: LC-ESI-QTOF
Ms type: MS2
Ion mode: POSITIVE
Collision energy: 100
Fragmentation mode: CID
Ionization: ESI
Column name: Zorbax Eclipse Plus C18 2.1 mm x 150 mm, 3.5 um, Agilent
Retention time: 9.435 min
Precursor m/z: 282.0873
Precursor type: [M+H]+
m/z	relative intensity
39.0224	24
50.0141	55
51.0223	145
52.0293	10
61.0058	17
62.0137	37
63.0222	64
65.0373	44
74.0138	71
75.0217	107
76.0171	34
76.0287	67
77.0377	359
78.0331	23
78.0453	33
86.0139	25
87.0221	31
88.0167	12
88.0285	10
89.0375	109
90.0461	16
91.0531	25
98.0145	30
99.0208	37
100.0285	16
101.0379	43
102.033	28
102.0443	76
103.0397	18
104.0486	43
110.0123	11
111.0214	15
113.0377	100
114.0373	37
115.0528	117
116.0498	12
125.0373	82
126.0449	216
127.0523	248
128.0604	82
129.0429	26
130.0382	21
137.0368	55
138.0434	30
139.0531	193
140.0479	132
149.0372	41
150.0451	409
151.0525	820
152.0608	999
153.0575	51
153.0696	21
154.0669	29
155.0584	25
161.036	23
162.0453	113
163.053	413
164.0515	190
165.0688	77
166.0635	37
167.0697	20
175.0391	15
176.0489	30
177.0568	190
178.0638	201
179.0677	89
180.0797	20
188.0473	98
189.0551	39
190.0637	80
191.0639	30
192.0658	10
205.0755	138
