Mass spectrum: 4-Hydroxytrimethoprim; LC-ESI-QTOF; MS2; 110 V
Name: 4-Hydroxytrimethoprim
Class: Pharmaceutical; Transformation_product
Formula: C14H18N4O4
Exact mass: 306.1328
SMILES: COc1cc(cc(c1OC)OC)Cc2c(nc(nc2O)N)N
InChI: InChI=1S/C14H18N4O4/c1-20-9-5-7(6-10(21-2)11(9)22-3)4-8-12(15)17-14(16)18-13(8)19/h5-6H,4H2,1-3H3,(H5,15,16,17,18,19)
Instrument: TripleTOF 5600 SCIEX
Instrument type: LC-ESI-QTOF
Ms type: MS2
Ion mode: NEGATIVE
Collision energy: 110
Fragmentation mode: CID
Ionization: ESI
Column name: Zorbax Eclipse Plus C18 2.1 mm x 150 mm, 3.5 um, Agilent
Retention time: 5.43 min
Precursor m/z: 305.1255
Precursor type: [M-H]-
m/z	relative intensity
41.0055	83
41.0167	999
41.0306	83
42.0019	249
50.0057	124
64.0091	41
65.0151	83
66.0002	124
66.0112	208
74.0059	83
76.0193	83
78.0366	83
88.0198	83
89.0039	83
91.0262	83
103.0316	124
116.0169	83
118.0298	166
118.0435	124
129.0215	83
143.0258	41
146.0279	83
