Mass spectrum: Oxazepam; LC-ESI-QTOF; MS2; 100 V
Name: Oxazepam
Class: Pharmaceutical
Formula: C15H11ClN2O2
Exact mass: 286.0509
SMILES: C1=CC=C(C=C1)C2=NC(C(=O)NC3=C2C=C(C=C3)Cl)O
InChI: InChI=1S/C15H11ClN2O2/c16-10-6-7-12-11(8-10)13(9-4-2-1-3-5-9)18-15(20)14(19)17-12/h1-8,15,20H,(H,17,19)
Instrument: TripleTOF 6600 SCIEX
Instrument type: LC-ESI-QTOF
Ms type: MS2
Ion mode: POSITIVE
Collision energy: 100
Fragmentation mode: CID
Ionization: ESI
Column name: Zorbax Eclipse Plus C18 2.1 mm x 150 mm, 3.5 um, Agilent
Retention time: 9.314 min
Precursor m/z: 287.0582
Precursor type: [M+H]+
m/z	relative intensity
39.0227	28
48.9838	17
49.0071	47
50.0152	260
51.0232	842
52.0183	20
61.0072	13
61.9788	25
62.0147	28
63.0229	147
64.0179	36
64.0307	53
65.026	12
65.0384	93
66.0463	140
72.9839	150
73.0066	44
74.0151	237
75.0111	12
75.0229	294
76.0186	24
76.0305	23
77.0386	999
78.0338	12
78.0458	12
84.9839	44
89.0386	24
90.0341	80
91.0415	173
92.0492	48
93.057	130
98.014	21
99.0101	378
100.0183	560
101.0381	16
102.0338	18
102.0461	25
104.0488	65
105.0445	18
108.9832	25
110.9994	59
113.0382	22
114.0452	18
115.0537	31
116.0369	25
117.045	30
118.053	72
123.9946	53
125.0023	21
125.0391	54
126.0462	68
127.0179	16
127.0409	12
127.0539	19
128.0482	12
128.0615	13
135.9938	31
138.0459	14
139.0061	13
139.0536	116
140.0494	103
149.0382	33
150.0462	325
151.054	296
152.0128	10
152.0613	117
153.0583	25
163.0543	15
164.0012	27
164.0502	28
165.0575	23
166.0651	122
167.0722	76
168.0672	30
175.0421	16
176.0494	45
177.0572	166
178.0652	46
179.062	29
191.0606	23
192.0686	115
193.076	85
194.0837	23
195.0921	11
204.0599	11
205.0751	16
