Mass spectrum: Terbuthylazine; LC-ESI-QTOF; MS2; 90 V
Name: Terbuthylazine
Class: Herbicide
Formula: C9H16ClN5
Exact mass: 229.1094
SMILES: CCNc1nc(Cl)nc(NC(C)(C)C)n1
InChI: InChI=1S/C9H16ClN5/c1-5-11-7-12-6(10)13-8(14-7)15-9(2,3)4/h5H2,1-4H3,(H2,11,12,13,14,15)
Instrument: TripleTOF 5600 SCIEX
Instrument type: LC-ESI-QTOF
Ms type: MS2
Ion mode: POSITIVE
Collision energy: 90
Fragmentation mode: CID
Ionization: ESI
Column name: Zorbax Eclipse Plus C18 2.1 mm x 150 mm, 3.5 um, Agilent
Retention time: 11.917 min
Precursor m/z: 230.1167
Precursor type: [M+H]+
m/z	relative intensity
43.038	407
57.0752	48
58.0689	14
61.9843	946
68.0286	999
68.062	23
71.0642	14
79.0073	60
86.9755	13
104.0013	32
