Mass spectrum: Chlorpyrifos; LC-ESI-QTOF; MS2; 150 V
Name: Chlorpyrifos
Class: Insecticide
Formula: C9H11Cl3NO3PS
Exact mass: 348.9263
SMILES: CCO[P](=S)(OCC)Oc1nc(Cl)c(Cl)cc1Cl
InChI: InChI=1S/C9H11Cl3NO3PS/c1-3-14-17(18,15-4-2)16-9-7(11)5-6(10)8(12)13-9/h5H,3-4H2,1-2H3
Instrument: TripleTOF 5600 SCIEX
Instrument type: LC-ESI-QTOF
Ms type: MS2
Ion mode: POSITIVE
Collision energy: 150
Fragmentation mode: CID
Ionization: ESI
Column name: Zorbax Eclipse Plus C18 2.1 mm x 150 mm, 3.5 um, Agilent
Retention time: 16.34 min
Precursor m/z: 349.9336
Precursor type: [M+H]+
m/z	relative intensity
46.9958	54
61.9844	78
64.982	522
70.9716	62
70.9867	31
71.9791	507
72.985	46
74.0046	70
75.0122	109
78.9415	569
82.9458	54
83.9776	202
96.9507	351
96.9663	46
106.9438	999
108.9709	772
109.9792	70
117.9379	70
