Mass spectrum: Estrone; LC-ESI-QTOF; MS2; 150 V
Name: Estrone
Class: Pharmaceutical
Formula: C18H22O2
Exact mass: 270.162
SMILES: CC12CCC3C(C1CCC2=O)CCC4=C3C=CC(=C4)O
InChI: InChI=1S/C18H22O2/c1-18-9-8-14-13-5-3-12(19)10-11(13)2-4-15(14)16(18)6-7-17(18)20/h3,5,10,14-16,19H,2,4,6-9H2,1H3
Instrument: TripleTOF 5600 SCIEX
Instrument type: LC-ESI-QTOF
Ms type: MS2
Ion mode: POSITIVE
Collision energy: 150
Fragmentation mode: CID
Ionization: ESI
Column name: Zorbax Eclipse Plus C18 2.1 mm x 150 mm, 3.5 um, Agilent
Retention time: 11.224 min
Precursor m/z: 271.1693
Precursor type: [M+H]+
m/z	relative intensity
35.9998	19
37.0074	71
38.0151	58
39.0232	264
41.039	36
43.0182	113
49.0074	63
50.0153	440
51.023	717
52.0308	28
53.0388	34
55.0177	23
59.9991	38
61.0073	222
62.0153	451
63.0231	825
65.0387	448
66.0456	28
73.0071	47
74.0152	450
75.0231	273
76.031	161
77.0387	999
78.0461	107
79.0539	30
85.0074	34
86.0151	163
87.0228	161
88.0305	44
89.0387	761
91.054	90
94.0419	10
98.0149	122
99.0228	38
100.0299	23
101.0385	39
102.0463	240
103.0543	57
110.015	24
113.0382	101
114.0467	37
115.0544	846
125.0381	35
126.0465	179
127.054	126
128.0612	105
131.0489	11
137.0399	25
138.0465	18
139.0538	98
149.0393	19
150.0461	190
151.0543	109
152.0623	112
161.0379	20
162.0466	38
163.0548	128
164.0615	28
165.072	22
176.0646	20
187.0551	14
