Mass spectrum: N,N-Dibenzylhydroxylamine; LC-ESI-QTOF; MS2; 120 V
Name: N,N-Dibenzylhydroxylamine
Class: Industrial_process
Formula: C14H15NO
Exact mass: 213.1154
SMILES: C1=CC=C(C=C1)CN(CC2=CC=CC=C2)O
InChI: InChI=1S/C14H15NO/c16-15(11-13-7-3-1-4-8-13)12-14-9-5-2-6-10-14/h1-10,16H,11-12H2
Instrument: TripleTOF 6600 SCIEX
Instrument type: LC-ESI-QTOF
Ms type: MS2
Ion mode: POSITIVE
Collision energy: 120
Fragmentation mode: CID
Ionization: ESI
Column name: Zorbax Eclipse Plus C18 2.1 mm x 150 mm, 3.5 um, Agilent
Retention time: 8.957 min
Precursor m/z: 214.1227
Precursor type: [M+H]+
m/z	relative intensity
37.0071	310
38.0147	226
39.0228	999
49.0066	67
50.0146	319
51.0223	125
61.0067	117
62.0146	184
63.0224	151
65.0376	218
