Mass spectrum: Disperse Yellow 9; LC-ESI-QTOF; MS2; 70 V
Name: Disperse Yellow 9
Formula: C12H10N4O4
Exact mass: 274.0702
SMILES: C1=CC(=CC=C1N)NC2=C(C=C(C=C2)[N+](=O)[O-])[N+](=O)[O-]
InChI: InChI=1S/C12H10N4O4/c13-8-1-3-9(4-2-8)14-11-6-5-10(15(17)18)7-12(11)16(19)20/h1-7,14H,13H2
Instrument: TripleTOF X500R SCIEX
Instrument type: LC-ESI-QTOF
Ms type: MS2
Ion mode: POSITIVE
Collision energy: 70
Fragmentation mode: CID
Ionization: ESI
Column name: Zorbax Eclipse Plus C18 2.1 mm x 150 mm, 3.5 um, Agilent
Retention time: 9.832 min
Precursor m/z: 275.0775
Precursor type: [M+H]+
m/z	relative intensity
63.0233	12
65.038	18
77.0401	18
80.0498	15
89.0386	36
93.0576	18
101.0395	45
102.0322	12
102.0476	27
104.0509	15
113.0398	69
114.0337	57
114.0482	21
115.0558	39
116.0492	48
117.0567	15
125.039	15
126.0473	81
127.0546	333
128.0505	252
129.0578	105
130.0661	105
137.04	72
138.0469	189
139.0551	222
140.0503	243
141.0523	63
142.0528	45
143.0601	24
145.0638	12
150.0323	30
151.0401	18
152.0499	48
153.058	108
154.0656	624
155.0679	135
164.0501	495
165.0573	150
166.0552	63
167.0616	60
168.0694	69
169.0784	21
177.0443	21
179.0605	87
180.0683	30
181.0765	999
182.0834	171
193.0634	33
194.0702	78
