Mass spectrum: Food Yellow 3 free acid; LC-ESI-QTOF; MS2; 60 V
Name: Food Yellow 3 free acid
Formula: C16H12N2O7S2
Exact mass: 408.0086
SMILES: C1=CC(=CC=C1N=NC2=C(C=CC3=C2C=CC(=C3)S(=O)(=O)O)O)S(=O)(=O)O
InChI: InChI=1S/C16H12N2O7S2/c19-15-8-1-10-9-13(27(23,24)25)6-7-14(10)16(15)18-17-11-2-4-12(5-3-11)26(20,21)22/h1-9,19H,(H,20,21,22)(H,23,24,25)
Instrument: TripleTOF 6600 SCIEX
Instrument type: LC-ESI-QTOF
Ms type: MS2
Ion mode: POSITIVE
Collision energy: 60
Fragmentation mode: CID
Ionization: ESI
Column name: Zorbax Eclipse Plus C18 2.1 mm x 150 mm, 3.5 um, Agilent
Retention time: 5.59 min
Precursor m/z: 409.0159
Precursor type: [M+H]+
m/z	relative intensity
65.038	14
77.0385	14
80.0492	276
81.0326	26
89.0384	275
92.0493	66
99.0228	14
100.0304	15
101.0374	30
108.0443	999
109.0516	90
115.041	18
116.0493	217
117.0324	21
126.0334	218
127.0415	434
128.0488	102
133.0287	17
144.0434	115
154.0317	181
156.0106	56
173.014	513
208.0065	761
210.0207	25
217.0752	22
218.0819	53
219.0921	25
229.0749	41
230.084	103
231.0913	14
246.0778	38
247.0864	39
299.046	42
310.0401	72
311.0486	126
327.0441	53
391.0038	88
392.017	13
