Mass spectrum: Opipramol; LC-ESI-QTOF; MS2; 70 V
Name: Opipramol
Class: Pharmaceutical
Formula: C23H29N3O
Exact mass: 363.2311
SMILES: OCCN1CCN(CCCN2c3ccccc3C=Cc4ccccc24)CC1
InChI: InChI=1S/C23H29N3O/c27-19-18-25-16-14-24(15-17-25)12-5-13-26-22-8-3-1-6-20(22)10-11-21-7-2-4-9-23(21)26/h1-4,6-11,27H,5,12-19H2
Instrument: TripleTOF 5600 SCIEX
Instrument type: LC-ESI-QTOF
Ms type: MS2
Ion mode: POSITIVE
Collision energy: 70
Fragmentation mode: CID
Ionization: ESI
Column name: Zorbax Eclipse Plus C18 2.1 mm x 150 mm, 3.5 um, Agilent
Retention time: 7.242 min
Precursor m/z: 364.2383
Precursor type: [M+H]+
m/z	relative intensity
42.0427	86
44.059	12
45.0419	65
56.0546	54
56.0638	33
58.0698	44
70.069	793
72.0487	25
72.0852	29
77.0428	18
82.067	77
83.0626	69
84.0778	12
84.086	18
86.0622	25
97.0771	226
98.0852	805
98.1144	14
99.0924	14
100.0767	999
100.1195	10
101.0385	27
111.0916	18
112.099	33
113.1084	27
128.0496	167
128.0944	69
141.1025	16
143.1177	331
151.0541	16
152.0626	25
164.0596	14
165.0716	33
167.0714	39
171.148	48
176.0613	27
177.0705	50
178.0777	826
179.0852	285
180.0777	50
190.0663	25
191.073	113
192.082	67
193.0882	100
203.0716	20
204.0807	646
205.0889	218
206.0961	461
217.0897	14
218.0957	29
