Mass spectrum: Amido Black 10B; LC-ESI-QTOF; MS2; 40 V
Name: Amido Black 10B
Formula: C22H16N6O9S2
Exact mass: 572.042
SMILES: C1=CC=C(C=C1)N=NC2=C(C3=C(C(=C(C=C3C=C2S(=O)(=O)O)S(=O)(=O)O)N=NC4=CC=C(C=C4)[N+](=O)[O-])N)O
InChI: InChI=1S/C22H16N6O9S2/c23-19-18-12(11-17(39(35,36)37)21(22(18)29)27-24-13-4-2-1-3-5-13)10-16(38(32,33)34)20(19)26-25-14-6-8-15(9-7-14)28(30)31/h1-11,29H,23H2,(H,32,33,34)(H,35,36,37)
Instrument: TripleTOF 6600 SCIEX
Instrument type: LC-ESI-QTOF
Ms type: MS2
Ion mode: NEGATIVE
Collision energy: 40
Fragmentation mode: CID
Ionization: ESI
Column name: Zorbax Eclipse Plus C18 2.1 mm x 150 mm, 3.5 um, Agilent
Retention time: 9.552 min
Precursor m/z: 285.0137
Precursor type: [M-2H]2-
m/z	relative intensity
45.9931	22
63.962	11
65.9978	9
79.9569	999
80.9649	427
92.05	30
107.036	5
108.0207	6
109.9965	72
112.0174	9
114.0212	5
114.0331	5
115.0287	8
122.0233	10
123.9942	65
125.0143	6
126.0335	17
127.0301	34
128.0135	15
128.0368	6
129.0205	9
131.0365	7
131.9918	9
132.0212	19
136.0265	20
137.0342	50
138.0192	33
139.0292	208
140.0367	114
141.0154	16
141.0442	7
142.0285	65
143.0244	25
144.0082	11
144.0311	8
145.0133	5
146.0227	12
152.0237	11
153.0317	5
154.0198	47
155.0242	64
156.0318	224
157.0171	15
157.0365	9
158.025	8
159.0304	17
162.0291	7
163.9724	48
166.0153	4
167.0241	250
168.0308	185
169.0027	55
170.0129	16
171.0209	62
172.0266	34
174.0173	6
179.0106	11
180.0188	40
181.0261	47
182.011	52
182.0342	20
183.0191	312
184.0262	77
185.0342	7
187.012	6
194.9983	103
195.9895	14
196.0132	77
197.0217	16
198.0309	9
199.0144	10
200.0212	7
206.9982	26
208.977	5
209.9848	7
217.0522	11
218.0586	21
219.0573	8
219.9927	53
221.9848	25
222.9922	213
230.0567	27
231.0582	25
232.0613	15
233.047	19
234.0534	18
234.9918	85
235.0607	6
235.9881	50
237.0648	5
237.9791	8
238.9868	5
242.0458	16
243.0547	7
244.0583	6
245.0532	7
246.0531	28
246.9805	421
247.048	9
247.9868	58
248.0557	15
249.0615	6
250.0445	6
250.9864	11
251.0492	6
258.0424	22
259.0485	61
259.976	6
260.0562	81
260.9832	52
261.0533	11
262.0534	11
262.9754	7
263.0482	21
263.9834	17
264.0502	10
264.9906	7
271.0618	5
272.0674	8
274.0386	8
275.045	36
276.0518	37
277.0541	18
278.0536	6
279.0487	14
281.0546	15
282.0198	5
285.0411	5
286.047	8
287.0572	9
288.0404	14
288.0604	7
289.0453	9
290.0557	8
291.0495	9
292.0485	21
293.0646	5
294.0094	6
299.0207	5
304.0346	6
306.0493	41
307.0459	6
310.0157	84
311.019	9
326.0121	5
328.0164	8
334.0569	14
339.0309	9
340.0205	42
345.0167	5
356.0085	10
