Mass spectrum: Oxytetracycline; LC-ESI-QTOF; MS2; 150 V
Name: Oxytetracycline
Class: Pharmaceutical
Formula: C22H24N2O9
Exact mass: 460.1482
SMILES: CC1(C2C(C3C(C(=O)C(=C(C3(C(=O)C2=C(C4=C1C=CC=C4O)O)O)O)C(=O)N)N(C)C)O)O
InChI: InChI=1S/C22H24N2O9/c1-21(32)7-5-4-6-8(25)9(7)15(26)10-12(21)17(28)13-14(24(2)3)16(27)11(20(23)31)19(30)22(13,33)18(10)29/h4-6,12-14,17,25-26,28,30,32-33H,1-3H3,(H2,23,31)
Instrument: TripleTOF 5600 SCIEX
Instrument type: LC-ESI-QTOF
Ms type: MS2
Ion mode: NEGATIVE
Collision energy: 150
Fragmentation mode: CID
Ionization: ESI
Column name: Zorbax Eclipse Plus C18 2.1 mm x 150 mm, 3.5 um, Agilent
Retention time: 5.586 min
Precursor m/z: 459.1409
Precursor type: [M-H]-
m/z	relative intensity
40.022	142
41.0071	999
42	428
42.0099	142
45.0017	142
55.0194	428
65.0057	428
65.0388	285
65.9984	713
66.0084	285
69.0026	142
78.0082	142
79.0184	285
81.033	142
84.0082	285
89.0388	142
91.0175	142
92.0263	999
92.0395	142
93.0336	285
95.012	428
108.0204	142
109.0334	142
117.0341	570
120.0216	142
123.0041	285
139.0078	142
141.034	285
143.0506	713
144.0606	142
145.034	142
154.0406	428
158.0258	142
167.0488	285
169.0222	285
171.0457	285
173.022	285
182.0382	142
208.0381	428
