Mass spectrum: Cortisone; LC-ESI-QTOF; MS2; 140 V
Name: Cortisone
Class: Pharmaceutical
Formula: C21H28O5
Exact mass: 360.1937
SMILES: C[C@]12CCC(=O)C=C1CC[C@H]3[C@@H]4CC[C@](O)(C(=O)CO)[C@@]4(C)CC(=O)[C@H]23
InChI: InChI=1S/C21H28O5/c1-19-7-5-13(23)9-12(19)3-4-14-15-6-8-21(26,17(25)11-22)20(15,2)10-16(24)18(14)19/h9,14-15,18,22,26H,3-8,10-11H2,1-2H3/t14-,15-,18+,19-,20-,21-/m0/s1
Instrument: TripleTOF 5600 SCIEX
Instrument type: LC-ESI-QTOF
Ms type: MS2
Ion mode: POSITIVE
Collision energy: 140
Fragmentation mode: CID
Ionization: ESI
Column name: Zorbax Eclipse Plus C18 2.1 mm x 150 mm, 3.5 um, Agilent
Retention time: 8.396 min
Precursor m/z: 361.201
Precursor type: [M+H]+
m/z	relative intensity
43.0284	33
55.0598	44
65.0444	195
67.0586	44
74.022	22
75.026	33
76.0373	39
77.0439	999
77.0724	55
78.0506	117
79.0585	189
81.076	22
89.0437	94
91.058	636
91.0809	33
91.0928	27
97.0648	22
102.0494	94
103.058	133
105.0721	72
107.0516	27
115.0564	803
116.067	44
117.0817	22
126.0502	50
127.0567	212
128.0645	463
129.0733	66
131.0539	50
133.0734	27
139.0583	66
141.0745	94
147.0817	22
150.0505	33
151.06	83
152.0643	273
153.0723	39
163.0592	61
164.0646	61
165.0734	206
176.0648	89
178.0817	50
189.0731	61
202.0788	27
