Mass spectrum: 3,5-bis(hexanoylamino)-2,4,6-triiodobenzoic acid; LC-ESI-QTOF; MS2; 130 V
Name: 3,5-bis(hexanoylamino)-2,4,6-triiodobenzoic acid
Class: Pharmaceutical; Transformation_product
Formula: C19H25I3N2O4
Exact mass: 725.8949
SMILES: CCCCCC(=O)Nc1c(I)c(NC(=O)CCCCC)c(I)c(C(O)=O)c1I
InChI: InChI=1S/C19H25I3N2O4/c1-3-5-7-9-11(25)23-17-14(20)13(19(27)28)15(21)18(16(17)22)24-12(26)10-8-6-4-2/h3-10H2,1-2H3,(H,23,25)(H,24,26)(H,27,28)
Instrument: TripleTOF 5600 SCIEX
Instrument type: LC-ESI-QTOF
Ms type: MS2
Ion mode: POSITIVE
Collision energy: 130
Fragmentation mode: CID
Ionization: ESI
Column name: Zorbax Eclipse Plus C18 2.1 mm x 150 mm, 3.5 um, Agilent
Retention time: 11.575 min
Precursor m/z: 726.9021
Precursor type: [M+H]+
m/z	relative intensity
71.0885	49
78.0347	87
79.0463	212
80.052	149
89.0272	62
90.0344	212
91.0427	162
91.056	49
104.0479	87
105.0438	62
105.0562	49
106.0291	174
106.064	74
107.0383	162
108.044	449
116.0496	62
117.0219	124
117.0448	237
117.0566	49
118.0278	74
118.0525	287
119.0361	62
119.0597	124
120.0438	137
122.0194	62
123.057	62
129.0452	87
130.0279	49
130.065	49
131.0355	87
131.0588	87
132.0445	74
132.0709	74
133.0485	124
134.0229	99
134.058	74
135.0542	99
143.0631	87
144.0431	62
144.0786	49
145.0145	49
145.0396	262
145.0757	112
146.0227	536
146.047	312
147.03	262
147.0545	374
148.0401	224
148.0621	524
158.0474	199
159.0537	262
159.0919	87
160.0378	149
160.0643	124
161.0466	149
161.0711	999
162.0555	62
171.0553	149
172.0259	99
172.0612	124
173.0351	112
173.0693	87
174.041	237
175.0486	112
185.0346	299
185.0717	87
186.0416	387
186.0874	62
187.0499	624
187.0899	49
188.0567	262
188.1072	112
191.0462	187
192.0521	262
193.06	74
199.0509	99
200.0192	74
200.0588	337
201.0262	74
201.0653	274
202.1093	74
203.9267	112
204.1017	274
205.0593	62
213.029	199
213.0655	249
214.0357	137
215.0771	49
219.0378	49
227.046	99
228.0553	74
231.0412	99
231.9212	74
232.0505	74
242.1073	62
243.1133	74
243.9478	224
244.1178	124
245.0502	49
246.0654	74
247.07	62
248.114	162
249.1231	62
256.1206	137
257.1259	74
271.9449	137
288.1083	137
299.9387	62
301.117	99
303.1356	74
