Mass spectrum: Caffeine; LC-ESI-QTOF; MS2; 50 V
Name: Caffeine
Class: Food_additive; Natural_product; Personal_care_product
Formula: C8H10N4O2
Exact mass: 194.0804
SMILES: Cn1cnc2N(C)C(=O)N(C)C(=O)c12
InChI: InChI=1S/C8H10N4O2/c1-10-4-9-6-5(10)7(13)12(3)8(14)11(6)2/h4H,1-3H3
Instrument: TripleTOF 5600 SCIEX
Instrument type: LC-ESI-QTOF
Ms type: MS2
Ion mode: POSITIVE
Collision energy: 50
Fragmentation mode: CID
Ionization: ESI
Column name: Zorbax Eclipse Plus C18 2.1 mm x 150 mm, 3.5 um, Agilent
Retention time: 5.509 min
Precursor m/z: 195.0877
Precursor type: [M+H]+
m/z	relative intensity
42.0448	768
53.0195	34
53.0255	42
56.055	128
67.0339	51
68.0418	179
68.0516	42
69.0488	179
81.0506	153
82.0538	68
83.0637	384
94.0426	34
108.0583	85
109.0393	102
110.0717	333
123.043	999
135.0668	59
138.0654	179
138.079	51
