Mass spectrum: 6-Bromo-2-benzothiazolinone; LC-ESI-QTOF; MS2; 60 V
Name: 6-Bromo-2-benzothiazolinone
Class: Industrial_process; Pharmaceutical
Formula: C7H4BrNOS
Exact mass: 228.9197
SMILES: C1=CC2=C(C=C1Br)SC(=O)N2
InChI: InChI=1S/C7H4BrNOS/c8-4-1-2-5-6(3-4)11-7(10)9-5/h1-3H,(H,9,10)
Instrument: TripleTOF 5600 SCIEX
Instrument type: LC-ESI-QTOF
Ms type: MS2
Ion mode: POSITIVE
Collision energy: 60
Fragmentation mode: CID
Ionization: ESI
Column name: Zorbax Eclipse Plus C18 2.1 mm x 150 mm, 3.5 um, Agilent
Retention time: 10.02 min
Precursor m/z: 229.927
Precursor type: [M+H]+
m/z	relative intensity
64.0381	27
68.9861	78
69.9927	185
79.0465	65
81.9918	41
91.0456	41
94.9983	190
96.0054	999
108.0039	46
122.0066	185
123.0139	367
132.9983	37
151.0082	264
157.9599	130
229.9329	23
