Mass spectrum: Torasemide; LC-ESI-QTOF; MS2; 40 V
Name: Torasemide
Class: Pharmaceutical
Formula: C16H20N4O3S
Exact mass: 348.1256
SMILES: CC(C)NC(=O)N[S](=O)(=O)c1cnccc1Nc2cccc(C)c2
InChI: InChI=1S/C16H20N4O3S/c1-11(2)18-16(21)20-24(22,23)15-10-17-8-7-14(15)19-13-6-4-5-12(3)9-13/h4-11H,1-3H3,(H,17,19)(H2,18,20,21)
Instrument: TripleTOF 5600 SCIEX
Instrument type: LC-ESI-QTOF
Ms type: MS2
Ion mode: POSITIVE
Collision energy: 40
Fragmentation mode: CID
Ionization: ESI
Column name: Zorbax Eclipse Plus C18 2.1 mm x 150 mm, 3.5 um, Agilent
Retention time: 7.633 min
Precursor m/z: 349.1329
Precursor type: [M+H]+
m/z	relative intensity
122.0597	22
125.017	129
137.0166	15
156.08	11
168.0685	247
181.076	21
182.0838	77
183.0913	729
185.0702	12
191.0637	50
198.0789	74
199.086	75
201.048	64
214.0726	14
219.0584	174
229.0426	28
230.0506	146
247.0535	154
264.0796	999
290.0595	136
