Mass spectrum: Medroxyprogesterone; LC-ESI-QTOF; MS2; 120 V
Name: Medroxyprogesterone
Class: Pharmaceutical
Formula: C22H32O3
Exact mass: 344.2351
SMILES: CC1CC2C(CCC3(C2CCC3(C(=O)C)O)C)C4(C1=CC(=O)CC4)C
InChI: InChI=1S/C22H32O3/c1-13-11-16-17(20(3)8-5-15(24)12-19(13)20)6-9-21(4)18(16)7-10-22(21,25)14(2)23/h12-13,16-18,25H,5-11H2,1-4H3
Instrument: TripleTOF 6600 SCIEX
Instrument type: LC-ESI-QTOF
Ms type: MS2
Ion mode: POSITIVE
Collision energy: 120
Fragmentation mode: CID
Ionization: ESI
Column name: Zorbax Eclipse Plus C18 2.1 mm x 150 mm, 3.5 um, Agilent
Retention time: 12.524 min
Precursor m/z: 345.2424
Precursor type: [M+H]+
m/z	relative intensity
37.0071	41
38.0158	45
39.0231	296
41.0387	259
43.018	365
49.0073	28
50.0149	111
51.0229	419
53.038	135
55.0176	102
55.0539	152
57.0337	24
63.0227	32
65.0381	328
66.0469	37
67.0539	131
69.0689	20
77.0384	999
78.0461	74
79.0541	308
80.0616	20
81.0334	28
82.0411	49
83.0494	24
89.0388	53
91.054	452
93.0703	20
94.0411	20
95.0495	24
97.0645	28
102.0447	49
103.0537	90
104.0635	28
105.0446	45
105.0694	65
107.0486	94
108.0568	16
115.054	427
116.061	49
117.0693	57
126.0437	16
127.053	131
128.0613	333
129.0691	69
131.0836	37
141.0697	106
151.0539	32
152.0613	131
153.0686	90
154.0761	20
163.0533	24
164.0607	24
165.0708	123
176.0613	20
178.0771	69
189.0699	45
