Mass spectrum: Norgestrel; LC-ESI-QTOF; MS2; 40 V
Name: Norgestrel
Class: Pharmaceutical
Formula: C21H28O2
Exact mass: 312.2089
SMILES: CCC12CCC3C(C1CCC2(C#C)O)CCC4=CC(=O)CCC34
InChI: InChI=1S/C21H28O2/c1-3-20-11-9-17-16-8-6-15(22)13-14(16)5-7-18(17)19(20)10-12-21(20,23)4-2/h2,13,16-19,23H,3,5-12H2,1H3
Instrument: TripleTOF 5600 SCIEX
Instrument type: LC-ESI-QTOF
Ms type: MS2
Ion mode: POSITIVE
Collision energy: 40
Fragmentation mode: CID
Ionization: ESI
Column name: Zorbax Eclipse Plus C18 2.1 mm x 150 mm, 3.5 um, Agilent
Retention time: 12.063 min
Precursor m/z: 313.2162
Precursor type: [M+H]+
m/z	relative intensity
67.0612	125
69.0764	24
77.0446	132
79.0601	299
81.0388	31
81.076	325
83.0546	368
83.0912	13
91.059	572
93.0746	287
95.0546	31
95.0902	183
97.0688	31
103.0587	51
105.074	477
107.0531	219
107.0891	186
109.0685	999
109.1038	79
111.0814	9
115.0571	119
116.0654	49
117.0727	378
119.0885	327
121.0659	67
121.1044	102
123.0827	142
123.1197	114
125.0997	21
127.0555	28
128.0647	137
129.0726	367
130.0797	74
131.0878	444
133.0672	59
133.1032	305
135.0831	363
135.1182	109
137.0999	28
137.1353	33
141.0719	142
142.0796	114
143.0873	340
144.0599	14
144.0953	47
145.068	26
145.103	362
146.0783	11
147.0817	92
147.118	82
148.0895	11
149.0978	180
149.1333	36
152.0626	21
153.0703	34
154.0803	36
155.0873	165
156.0939	54
157.0679	24
157.1031	309
158.1123	28
159.0815	71
159.1177	216
161.0974	210
161.1347	33
162.1045	9
163.1143	84
163.1501	16
165.0703	54
166.0798	36
167.0863	92
168.0947	44
169.1028	133
170.1103	46
171.0831	13
171.1184	233
173.0976	26
173.1334	74
175.1127	100
175.1489	104
177.1251	14
178.0758	38
179.0882	51
180.0935	34
181.1026	97
182.1105	19
183.0903	13
183.1177	130
184.1251	21
185.0983	38
185.1332	196
187.1154	41
187.1489	100
188.1219	38
189.1282	74
191.0902	21
192.0939	26
193.1013	69
194.1078	29
195.1167	66
196.1241	23
197.0959	18
197.134	67
199.1138	28
199.1477	86
201.128	41
201.1668	24
203.1428	23
203.1739	9
205.1009	31
206.1101	38
207.1177	81
208.1238	26
209.1327	49
210.1416	14
211.1101	24
211.1488	33
213.1293	16
213.1614	13
217.1599	11
219.1177	26
220.1217	19
221.1337	51
222.1441	11
223.1465	23
225.1282	16
225.1638	43
227.1782	137
233.1291	28
234.1358	13
235.1462	31
237.1635	52
238.143	11
239.1453	16
241.1648	18
243.1639	13
245.19	238
247.1485	19
248.152	23
249.157	11
251.1776	13
253.1634	13
265.1596	14
266.1734	19
267.1718	11
295.2058	23
313.2178	24
