Mass spectrum: 2-Isopropylphenyl diphenyl phosphate; LC-ESI-QTOF; MS2; 90 V
Name: 2-Isopropylphenyl diphenyl phosphate
Class: Industrial_process
Formula: C21H21O4P
Exact mass: 368.1177
SMILES: CC(C)C1=CC=CC=C1OP(=O)(OC2=CC=CC=C2)OC3=CC=CC=C3
InChI: InChI=1S/C21H21O4P/c1-17(2)20-15-9-10-16-21(20)25-26(22,23-18-11-5-3-6-12-18)24-19-13-7-4-8-14-19/h3-17H,1-2H3
Instrument: TripleTOF 6600 SCIEX
Instrument type: LC-ESI-QTOF
Ms type: MS2
Ion mode: POSITIVE
Collision energy: 90
Fragmentation mode: CID
Ionization: ESI
Column name: Zorbax Eclipse Plus C18 2.1 mm x 150 mm, 3.5 um, Agilent
Retention time: 15.788 min
Precursor m/z: 369.125
Precursor type: [M+H]+
m/z	relative intensity
39.0225	81
51.0231	343
65.0382	368
77.0383	622
91.0537	589
92.0249	32
102.044	40
115.0543	57
126.045	73
127.0534	65
139.0546	122
149.0372	32
150.0465	114
151.0536	302
152.0618	999
168.0557	229
187.0316	32
202.0797	57
226.0784	163
227.0829	40
