Mass spectrum: Epirubicin; LC-ESI-QTOF; MS2; 120 V
Name: Epirubicin
Class: Pharmaceutical
Formula: C27H29NO11
Exact mass: 543.1741
SMILES: CC1C(C(CC(O1)OC2CC(CC3=C(C4=C(C(=C23)O)C(=O)C5=C(C4=O)C=CC=C5OC)O)(C(=O)CO)O)N)O
InChI: InChI=1S/C27H29NO11/c1-10-22(31)13(28)6-17(38-10)39-15-8-27(36,16(30)9-29)7-12-19(15)26(35)21-20(24(12)33)23(32)11-4-3-5-14(37-2)18(11)25(21)34/h3-5,10,13,15,17,22,29,31,33,35-36H,6-9,28H2,1-2H3
Instrument: TripleTOF 5600 SCIEX
Instrument type: LC-ESI-QTOF
Ms type: MS2
Ion mode: POSITIVE
Collision energy: 120
Fragmentation mode: CID
Ionization: ESI
Column name: Zorbax Eclipse Plus C18 2.1 mm x 150 mm, 3.5 um, Agilent
Retention time: 7.492 min
Precursor m/z: 544.1813
Precursor type: [M+H]+
m/z	relative intensity
69.0366	138
72.0461	138
77.0406	277
86.0614	388
89.0383	138
95.0487	111
102.0457	166
113.0594	138
115.0545	222
116.0268	111
117.0317	111
118.0427	138
121.0296	194
128.0222	138
129.0359	194
130.0419	166
135.0465	111
142.0379	111
145.0369	166
151.0518	138
152.062	194
157.0275	166
165.0698	471
175.0523	222
176.06	999
177.0678	305
178.0796	360
187.0539	360
188.0597	249
189.069	943
194.0717	194
200.0608	222
201.0672	249
202.0777	776
203.0862	138
204.0547	749
205.0652	804
206.0689	111
216.0557	333
217.0651	194
221.0594	222
229.0634	222
230.0686	138
231.0798	194
232.0534	222
233.0579	499
234.0661	166
244.0506	277
245.0632	222
249.0539	444
261.0518	277
273.0518	138
289.0457	499
