Mass spectrum: 1-Oxo-ibuprofen; LC-ESI-QTOF; MS2; 40 V
Name: 1-Oxo-ibuprofen
Class: Pharmaceutical; Transformation_product
Formula: C13H16O3
Exact mass: 220.1099
SMILES: CC(C)C(=O)C1=CC=C(C=C1)C(C)C(=O)O
InChI: InChI=1S/C13H16O3/c1-8(2)12(14)11-6-4-10(5-7-11)9(3)13(15)16/h4-9H,1-3H3,(H,15,16)
Instrument: TripleTOF 5600 SCIEX
Instrument type: LC-ESI-QTOF
Ms type: MS2
Ion mode: POSITIVE
Collision energy: 40
Fragmentation mode: CID
Ionization: ESI
Column name: Zorbax Eclipse Plus C18 2.1 mm x 150 mm, 3.5 um, Agilent
Retention time: 10.239 min
Precursor m/z: 221.1172
Precursor type: [M+H]+
m/z	relative intensity
43.0266	219
55.0597	133
57.0757	140
65.0411	54
67.0578	176
69.0383	21
69.0732	61
71.0535	14
77.0402	252
79.0571	216
81.0722	187
83.0505	39
83.0874	79
91.0557	472
91.0818	28
93.0711	72
95.0863	36
103.0545	72
104.0613	14
105.0695	800
107.0484	28
107.0855	119
109.0643	64
109.1005	234
111.0802	151
115.0534	115
116.0598	32
117.0691	169
119.0848	151
121.0641	162
121.0996	36
122.0709	18
123.0416	21
123.0795	61
123.1164	25
127.0568	18
128.0606	72
129.0699	72
131.0485	18
131.0842	111
132.0938	25
133.1011	999
135.0792	72
135.1134	21
137.058	32
137.0943	108
138.0668	54
141.0696	57
142.0764	93
145.1013	39
147.1157	50
151.1123	18
153.0911	46
157.0994	61
163.1118	28
165.0892	25
173.0968	18
175.1106	238
175.1483	25
188.1137	14
