Mass spectrum: Repaglinide; LC-ESI-QTOF; MS2; 120 V
Name: Repaglinide
Class: Pharmaceutical
Formula: C27H36N2O4
Exact mass: 452.2675
SMILES: CCOc1cc(CC(=O)N[C@@H](CC(C)C)c2ccccc2N3CCCCC3)ccc1C(O)=O
InChI: InChI=1S/C27H36N2O4/c1-4-33-25-17-20(12-13-22(25)27(31)32)18-26(30)28-23(16-19(2)3)21-10-6-7-11-24(21)29-14-8-5-9-15-29/h6-7,10-13,17,19,23H,4-5,8-9,14-16,18H2,1-3H3,(H,28,30)(H,31,32)/t23-/m0/s1
Instrument: TripleTOF 5600 SCIEX
Instrument type: LC-ESI-QTOF
Ms type: MS2
Ion mode: POSITIVE
Collision energy: 120
Fragmentation mode: CID
Ionization: ESI
Column name: Zorbax Eclipse Plus C18 2.1 mm x 150 mm, 3.5 um, Agilent
Retention time: 10.348 min
Precursor m/z: 453.2748
Precursor type: [M+H]+
m/z	relative intensity
44.0581	22
65.0428	91
77.0415	181
79.0563	36
86.0981	20
89.0399	65
90.0479	104
91.0562	486
93.0573	10
103.0546	108
104.0512	22
105.033	39
105.069	26
106.065	99
115.0539	108
116.0494	18
116.0611	12
117.0578	513
118.0648	242
120.0798	20
127.0541	29
128.0509	73
129.0676	22
130.0651	999
131.0726	165
132.0799	75
142.0648	22
143.0724	179
144.0805	531
145.0878	18
146.0959	31
156.0798	36
157.0876	31
158.0958	193
170.0959	28
172.1119	172
186.127	22
