Mass spectrum: Simvastatin; LC-ESI-QTOF; MS2; 70 V
Name: Simvastatin
Class: Pharmaceutical
Formula: C25H38O5
Exact mass: 418.2719
SMILES: CCC(C)(C)C(=O)O[C@H]1C[C@@H](C)C=C2C=C[C@H](C)[C@H](CC[C@@H]3C[C@@H](O)CC(=O)O3)[C@@H]12
InChI: InChI=1S/C25H38O5/c1-6-25(4,5)24(28)30-21-12-15(2)11-17-8-7-16(3)20(23(17)21)10-9-19-13-18(26)14-22(27)29-19/h7-8,11,15-16,18-21,23,26H,6,9-10,12-14H2,1-5H3/t15-,16-,18+,19+,20-,21-,23-/m0/s1
Instrument: TripleTOF 5600 SCIEX
Instrument type: LC-ESI-QTOF
Ms type: MS2
Ion mode: POSITIVE
Collision energy: 70
Fragmentation mode: CID
Ionization: ESI
Column name: Zorbax Eclipse Plus C18 2.1 mm x 150 mm, 3.5 um, Agilent
Retention time: 15.438 min
Precursor m/z: 419.2792
Precursor type: [M+H]+
m/z	relative intensity
77.0409	128
79.0558	311
81.0714	150
83.0496	64
91.055	257
93.0705	96
95.0861	42
97.0647	42
103.054	53
105.0697	386
107.0847	85
115.0526	107
117.0694	214
119.0857	225
127.055	128
128.0611	580
129.069	386
130.076	118
131.0846	504
141.0677	225
142.077	397
143.0849	999
144.0919	118
145.1008	386
153.0678	96
154.0775	139
155.0849	354
156.093	214
157.0998	311
158.1087	193
159.116	322
165.0669	64
167.0864	139
168.091	171
169.1001	408
170.1117	42
171.1155	171
173.132	397
179.0867	75
181.1009	150
182.1104	85
183.1151	150
191.0861	53
193.1002	128
195.1158	85
197.1308	75
199.1471	225
219.1148	64
223.1482	53
225.1695	118
