Mass spectrum: Methyl-tris(4-fluorophenyl)phosphonium; LC-ESI-QTOF; MS2; 110 V
Name: Methyl-tris(4-fluorophenyl)phosphonium
Class: Industrial_process
Formula: [C19H15F3P]+
Exact mass: 331.0858
SMILES: C[P+](c1ccc(F)cc1)(c2ccc(F)cc2)c3ccc(F)cc3
InChI: InChI=1S/C19H15F3P/c1-23(17-8-2-14(20)3-9-17,18-10-4-15(21)5-11-18)19-12-6-16(22)7-13-19/h2-13H,1H3/q+1
Instrument: TripleTOF 5600 SCIEX
Instrument type: LC-ESI-QTOF
Ms type: MS2
Ion mode: POSITIVE
Collision energy: 110
Fragmentation mode: CID
Ionization: ESI
Column name: Zorbax Eclipse Plus C18 2.1 mm x 150 mm, 3.5 um, Agilent
Retention time: 7.52 min
Precursor m/z: 331.0858
Precursor type: [M]+
m/z	relative intensity
68.9738	52
74.0176	129
74.981	154
75.025	69
79.9823	136
83.0298	57
98.0133	106
98.9778	161
107.0027	54
123.022	77
124.0291	77
124.9947	999
126.0009	62
126.046	49
133.0435	121
144.0364	89
149.0369	275
150.0459	996
151.0531	191
157.0444	74
168.0367	352
169.0442	380
170.0526	412
175.0089	164
179.0035	124
181.0193	144
187.0343	57
188.0437	467
192.9995	156
198.0049	84
199.0105	569
201.0251	67
219.0158	397
