Mass spectrum: Napropamide; LC-ESI-QTOF; MS2; 70 V
Name: Napropamide
Class: Herbicide
Formula: C17H21NO2
Exact mass: 271.1572
SMILES: CCN(CC)C(=O)C(C)Oc1cccc2c1cccc2
InChI: InChI=1S/C17H21NO2/c1-4-18(5-2)17(19)13(3)20-16-12-8-10-14-9-6-7-11-15(14)16/h6-13H,4-5H2,1-3H3
Instrument: TripleTOF 6600 SCIEX
Instrument type: LC-ESI-QTOF
Ms type: MS2
Ion mode: POSITIVE
Collision energy: 70
Fragmentation mode: CID
Ionization: ESI
Column name: Zorbax Eclipse Plus C18 2.1 mm x 150 mm, 3.5 um, Agilent
Retention time: 12.596 min
Precursor m/z: 272.1645
Precursor type: [M+H]+
m/z	relative intensity
30.0337	23
38.0023	15
42.0338	18
44.0134	107
44.0225	21
44.0495	552
46.0652	10
51.0225	23
54.0335	18
55.0174	86
56.0493	13
57.0331	247
58.065	704
65.0384	21
72.0437	65
72.0804	149
74.0963	21
75.0232	18
77.0381	131
78.0463	23
86.0593	31
89.0376	36
91.0535	73
100.0758	26
100.112	55
101.037	23
102.0453	86
115.054	396
116.062	47
126.0462	99
127.0533	378
128.0613	999
129.0684	15
141.0689	70
142.0783	10
144.0561	23
150.0451	28
151.0535	147
152.0615	707
153.0688	55
155.0595	107
169.0655	23
179.058	13
