Mass spectrum: Metoprolol; LC-ESI-QTOF; MS2; 50 V
Name: Metoprolol
Class: Pharmaceutical
Formula: C15H25NO3
Exact mass: 267.1834
SMILES: CC(C)NCC(COC1=CC=C(C=C1)CCOC)O
InChI: InChI=1S/C15H25NO3/c1-12(2)16-10-14(17)11-19-15-6-4-13(5-7-15)8-9-18-3/h4-7,12,14,16-17H,8-11H2,1-3H3
Instrument: TripleTOF 6600 SCIEX
Instrument type: LC-ESI-QTOF
Ms type: MS2
Ion mode: POSITIVE
Collision energy: 50
Fragmentation mode: CID
Ionization: ESI
Column name: Zorbax Eclipse Plus C18 2.1 mm x 150 mm, 3.5 um, Agilent
Retention time: 6.14 min
Precursor m/z: 268.1907
Precursor type: [M+H]+
m/z	relative intensity
30.0339	132
39.0225	34
41.0383	107
43.0176	37
43.0539	119
44.0493	23
45.0332	37
51.0225	12
55.018	31
56.0494	536
57.033	15
58.0647	84
65.038	26
72.0803	162
74.0594	385
77.038	681
79.0534	353
84.0805	32
91.0535	641
92.0605	15
93.0687	133
95.0488	10
98.0956	44
100.1111	38
102.0453	37
103.0535	999
104.0616	35
105.0488	31
105.0687	524
107.0476	33
115.0533	212
116.0612	123
116.1057	55
117.0691	49
119.0481	26
119.0841	25
120.056	43
120.0793	12
121.064	477
128.0611	28
129.0686	63
131.0506	66
131.0845	64
133.0643	378
135.0788	60
141.0685	51
144.0562	155
147.081	20
148.0745	91
159.0785	59
163.0853	51
