Mass spectrum: Bis(2-isopropylphenyl) phenyl phosphate; LC-ESI-QTOF; MS2; 90 V
Name: Bis(2-isopropylphenyl) phenyl phosphate
Formula: C24H27O4P
Exact mass: 410.1647
SMILES: CC(C)C1=CC=CC=C1OP(=O)(OC2=CC=CC=C2)OC3=CC=CC=C3C(C)C
InChI: InChI=1S/C24H27O4P/c1-18(2)21-14-8-10-16-23(21)27-29(25,26-20-12-6-5-7-13-20)28-24-17-11-9-15-22(24)19(3)4/h5-19H,1-4H3
Instrument: TripleTOF 6600 SCIEX
Instrument type: LC-ESI-QTOF
Ms type: MS2
Ion mode: POSITIVE
Collision energy: 90
Fragmentation mode: CID
Ionization: ESI
Column name: Zorbax Eclipse Plus C18 2.1 mm x 150 mm, 3.5 um, Agilent
Retention time: 17.429 min
Precursor m/z: 411.172
Precursor type: [M+H]+
m/z	relative intensity
39.0231	44
41.0386	21
50.0149	29
51.023	148
63.0229	14
65.0386	342
77.0388	654
79.0538	11
91.0543	825
95.0488	14
115.0542	34
126.0465	14
127.0533	34
139.0532	34
141.0696	10
150.0464	33
151.054	160
152.0623	999
153.0699	24
165.0695	34
168.0567	245
175.0148	11
178.0764	11
179.0593	13
187.0307	14
202.078	30
215.026	24
226.0781	74
227.0851	26
228.0922	18
