Mass spectrum: Azathioprine; LC-ESI-QTOF; MS2; 70 V
Name: Azathioprine
Class: Pharmaceutical
Formula: C9H7N7O2S
Exact mass: 277.0382
SMILES: Cn1cnc(c1Sc2ncnc3nc[nH]c23)[N+]([O-])=O
InChI: InChI=1S/C9H7N7O2S/c1-15-4-14-7(16(17)18)9(15)19-8-5-6(11-2-10-5)12-3-13-8/h2-4H,1H3,(H,10,11,12,13)
Instrument: TripleTOF 5600 SCIEX
Instrument type: LC-ESI-QTOF
Ms type: MS2
Ion mode: POSITIVE
Collision energy: 70
Fragmentation mode: CID
Ionization: ESI
Column name: Zorbax Eclipse Plus C18 2.1 mm x 150 mm, 3.5 um, Agilent
Retention time: 5.367 min
Precursor m/z: 278.0455
Precursor type: [M+H]+
m/z	relative intensity
57.9827	343
65.0179	218
66.025	312
67.0333	624
69.0122	156
69.0476	218
74.0103	624
86.008	156
92.0262	405
93.0342	530
94.0404	218
106.0399	249
108.0404	156
118.0399	249
119.0357	999
119.0524	156
120.0424	468
120.0576	156
121.0521	218
125.0038	187
135.9945	156
152.0151	156
160.0654	124
164.0185	187
172.0596	124
177.0233	218
204.0319	249
