Mass spectrum: Resorcinol bis(diphenyl phosphate); LC-ESI-QTOF; MS2; 150 V
Name: Resorcinol bis(diphenyl phosphate)
Class: Industrial_process
Formula: C30H24O8P2
Exact mass: 574.0946
SMILES: C1=CC=C(C=C1)OP(=O)(OC2=CC=CC=C2)OC3=CC(=CC=C3)OP(=O)(OC4=CC=CC=C4)OC5=CC=CC=C5
InChI: InChI=1S/C30H24O8P2/c31-39(33-25-14-5-1-6-15-25,34-26-16-7-2-8-17-26)37-29-22-13-23-30(24-29)38-40(32,35-27-18-9-3-10-19-27)36-28-20-11-4-12-21-28/h1-24H
Instrument: TripleTOF 6600 SCIEX
Instrument type: LC-ESI-QTOF
Ms type: MS2
Ion mode: POSITIVE
Collision energy: 150
Fragmentation mode: CID
Ionization: ESI
Column name: Zorbax Eclipse Plus C18 2.1 mm x 150 mm, 3.5 um, Agilent
Retention time: 15.87 min
Precursor m/z: 575.1019
Precursor type: [M+H]+
m/z	relative intensity
39.0231	52
46.9679	45
49.0074	18
50.015	140
51.0226	495
61.0069	30
62.015	26
63.0223	71
65.0385	79
73.0075	26
74.0148	83
75.0226	90
76.0304	49
77.0382	541
78.0461	60
86.015	30
87.0225	41
88.0309	30
89.0383	185
91.0543	56
92.025	37
95.0493	15
98.0151	68
99.0233	83
100.0318	26
101.0381	52
102.0461	223
103.0538	41
105.0433	45
107.0038	37
110.0153	34
113.038	105
114.0462	109
115.0539	700
121.0191	30
122.0143	18
124.0299	34
125.0384	102
126.0463	227
127.0543	219
128.0616	336
129.0448	34
130.0413	34
131.0491	75
133.0206	68
138.046	45
138.9958	18
139.0545	999
140.0617	83
141.07	75
144.0127	34
145.0196	45
146.0253	15
149.014	18
149.0378	90
150.0463	707
151.0546	541
152.0619	684
155.0508	109
156.057	45
157.0202	102
157.0636	18
163.0546	121
164.0616	37
165.07	60
168.0572	272
173.0149	49
174.0471	75
175.0554	49
176.0626	109
177.0097	83
177.0705	30
178.0776	68
179.0608	41
184.052	60
186.022	26
186.0462	18
187.055	147
188.0619	113
189.0698	355
198.046	52
199.0552	94
200.0623	314
201.0713	113
202.0786	253
205.0655	52
207.0358	49
211.0545	56
212.0623	60
213.0706	450
214.0774	64
215.0854	200
218.0738	34
220.0409	22
222.0082	22
222.0473	75
223.055	98
224.063	745
225.0702	245
226.0784	298
227.0872	18
229.0655	22
231.0364	83
231.0815	37
233.0532	18
242.0727	56
247.0332	18
249.0674	15
250.0791	30
261.0699	18
263.0851	26
265.1043	15
273.0781	26
274.0796	90
276.0939	26
287.0869	64
289.1012	60
298.0791	132
299.0862	30
300.0943	87
