Mass spectrum: Naringenin; LC-ESI-QTOF; MS2; 60 V
Name: Naringenin
Class: Pharmaceutical
Formula: C15H12O5
Exact mass: 272.0685
SMILES: Oc1ccc(cc1)C2CC(=O)c3c(O)cc(O)cc3O2
InChI: InChI=1S/C15H12O5/c16-9-3-1-8(2-4-9)13-7-12(19)15-11(18)5-10(17)6-14(15)20-13/h1-6,13,16-18H,7H2
Instrument: TripleTOF 5600 SCIEX
Instrument type: LC-ESI-QTOF
Ms type: MS2
Ion mode: POSITIVE
Collision energy: 60
Fragmentation mode: CID
Ionization: ESI
Column name: Zorbax Eclipse Plus C18 2.1 mm x 150 mm, 3.5 um, Agilent
Retention time: 9.18 min
Precursor m/z: 273.0757
Precursor type: [M+H]+
m/z	relative intensity
65.0432	306
67.0216	70
68.9997	315
69.0375	166
77.0422	113
79.0212	61
91.0557	999
95.0497	52
97.0302	105
107.0484	70
115.0518	35
119.0475	368
147.0427	96
153.0177	797
