Mass spectrum: Difenoconazole; LC-ESI-QTOF; MS2; 110 V
Name: Difenoconazole
Class: Fungicide
Formula: C19H17Cl2N3O3
Exact mass: 405.0647
SMILES: CC1COC(Cn2cncn2)(O1)c3ccc(Oc4ccc(Cl)cc4)cc3Cl
InChI: InChI=1S/C19H17Cl2N3O3/c1-13-9-25-19(27-13,10-24-12-22-11-23-24)17-7-6-16(8-18(17)21)26-15-4-2-14(20)3-5-15/h2-8,11-13H,9-10H2,1H3
Instrument: TripleTOF 6600 SCIEX
Instrument type: LC-ESI-QTOF
Ms type: MS2
Ion mode: POSITIVE
Collision energy: 110
Fragmentation mode: CID
Ionization: ESI
Column name: Zorbax Eclipse Plus C18 2.1 mm x 150 mm, 3.5 um, Agilent
Retention time: 13.755 min
Precursor m/z: 406.072
Precursor type: [M+H]+
m/z	relative intensity
39.0229	12
50.0146	39
51.023	67
60.9833	10
63.0226	18
72.9838	19
73.0065	19
74.015	344
75.0231	999
76.0304	20
77.0384	124
78.0459	34
84.9835	102
89.0378	27
98.9994	18
102.0454	13
110.9991	226
113.0148	10
113.0377	19
114.0471	10
115.0541	13
126.0457	46
127.0537	51
128.061	28
137.0374	10
138.0454	33
139.0056	55
139.0537	246
141.0099	69
149.0142	33
150.0456	56
151.0536	174
152.0616	776
153.0683	90
155.0608	13
162.0214	18
167.0487	13
173.0143	42
179.0588	15
181.0633	32
182.975	21
188.0381	24
202.0184	25
215.0241	16
