Mass spectrum: Sulfapyridine; LC-ESI-QTOF; MS2; 110 V
Name: Sulfapyridine
Class: Antimicrobial; Pharmaceutical
Formula: C11H11N3O2S
Exact mass: 249.0572
SMILES: C1=CC=NC(=C1)NS(=O)(=O)C2=CC=C(C=C2)N
InChI: InChI=1S/C11H11N3O2S/c12-9-4-6-10(7-5-9)17(15,16)14-11-3-1-2-8-13-11/h1-8H,12H2,(H,13,14)
Instrument: TripleTOF 5600 SCIEX
Instrument type: LC-ESI-QTOF
Ms type: MS2
Ion mode: POSITIVE
Collision energy: 110
Fragmentation mode: CID
Ionization: ESI
Column name: Zorbax Eclipse Plus C18 2.1 mm x 150 mm, 3.5 um, Agilent
Retention time: 5.55 min
Precursor m/z: 250.0645
Precursor type: [M+H]+
m/z	relative intensity
41.0416	111
51.0322	333
52.0263	55
53.0458	233
65.0436	999
66.0408	122
67.0473	910
74.0194	55
78.0375	510
80.0524	499
92.0489	66
94.052	55
