Mass spectrum: Citalopram-N-oxide; LC-ESI-QTOF; MS2; 80 V
Name: Citalopram-N-oxide
Class: Metabolite; Pharmaceutical; Transformation_product; Transformation_product-Metabolite
Formula: C20H21FN2O2
Exact mass: 340.1587
SMILES: C[N+](C)(CCCC1(C2=C(CO1)C=C(C=C2)C#N)C3=CC=C(C=C3)F)[O-]
InChI: InChI=1S/C20H21FN2O2/c1-23(2,24)11-3-10-20(17-5-7-18(21)8-6-17)19-9-4-15(13-22)12-16(19)14-25-20/h4-9,12H,3,10-11,14H2,1-2H3
Instrument: TripleTOF 5600 SCIEX
Instrument type: LC-ESI-QTOF
Ms type: MS2
Ion mode: POSITIVE
Collision energy: 80
Fragmentation mode: CID
Ionization: ESI
Column name: Zorbax Eclipse Plus C18 2.1 mm x 150 mm, 3.5 um, Agilent
Retention time: 7.958 min
Precursor m/z: 341.166
Precursor type: [M+H]+
m/z	relative intensity
57.019	33
58.0702	93
59.0343	16
75.0257	32
77.0411	36
83.0319	428
89.0406	280
90.0355	19
95.03	45
101.0392	26
103.0537	16
109.0459	999
113.0385	49
115.054	61
116.0499	214
123.0236	14
125.0388	13
127.0538	44
128.0624	47
129.0703	17
133.0442	57
139.0541	88
140.05	339
145.0453	10
146.054	26
150.047	9
157.0451	11
163.0533	52
164.0497	31
166.0649	39
169.0459	21
170.0533	32
173.0374	11
174.0442	21
175.054	38
176.0646	11
177.0582	11
181.0452	40
182.0509	33
183.06	89
187.0539	36
188.0502	37
189.0657	53
190.0656	162
193.0455	36
194.0524	89
195.052	62
196.0683	18
198.0448	11
199.0538	87
200.0579	171
201.0592	66
202.0752	25
203.0722	11
205.0454	17
206.0528	31
207.0606	167
208.0561	383
213.0695	74
214.0656	141
215.0845	51
217.0444	11
218.0528	105
219.0593	332
220.0674	298
221.0633	300
225.0571	49
226.0648	203
227.0731	325
228.0803	17
231.0594	25
232.0558	193
233.0759	157
234.0715	66
237.0595	14
238.0658	33
239.0725	18
240.0808	205
241.0886	10
243.0542	11
244.0663	78
245.0642	728
246.0713	395
247.0793	50
258.0722	69
259.0797	47
260.086	20
