Mass spectrum: Trazodone; LC-ESI-QTOF; MS2; 80 V
Name: Trazodone
Class: Pharmaceutical
Formula: C19H22ClN5O
Exact mass: 371.1513
SMILES: C1CN(CCN1CCCN2C(=O)N3C=CC=CC3=N2)C4=CC(=CC=C4)Cl
InChI: InChI=1S/C19H22ClN5O/c20-16-5-3-6-17(15-16)23-13-11-22(12-14-23)8-4-10-25-19(26)24-9-2-1-7-18(24)21-25/h1-3,5-7,9,15H,4,8,10-14H2
Instrument: TripleTOF 6600 SCIEX
Instrument type: LC-ESI-QTOF
Ms type: MS2
Ion mode: POSITIVE
Collision energy: 80
Fragmentation mode: CID
Ionization: ESI
Column name: Zorbax Eclipse Plus C18 2.1 mm x 150 mm, 3.5 um, Agilent
Retention time: 7.095 min
Precursor m/z: 372.1586
Precursor type: [M+H]+
m/z	relative intensity
39.0218	15
51.0215	42
65.0249	13
66.0319	27
70.0636	11
78.0323	999
79.0401	54
80.0478	29
92.0352	138
93.0429	72
94.0501	13
105.0427	32
107.0583	21
110.9974	31
116.0471	14
117.055	11
118.0623	39
119.0589	81
120.0306	92
120.0525	33
121.0388	23
121.0738	42
131.0581	23
132.0667	11
133.073	21
135.0416	11
136.0487	13
138.0084	24
148.049	162
154.0395	10
