Mass spectrum: Beclomethasone; LC-ESI-QTOF; MS2; 130 V
Name: Beclomethasone
Class: Pharmaceutical
Formula: C22H29ClO5
Exact mass: 408.1704
SMILES: CC1CC2C3CCC4=CC(=O)C=CC4(C3(C(CC2(C1(C(=O)CO)O)C)O)Cl)C
InChI: InChI=1S/C22H29ClO5/c1-12-8-16-15-5-4-13-9-14(25)6-7-19(13,2)21(15,23)17(26)10-20(16,3)22(12,28)18(27)11-24/h6-7,9,12,15-17,24,26,28H,4-5,8,10-11H2,1-3H3
Instrument: TripleTOF 5600 SCIEX
Instrument type: LC-ESI-QTOF
Ms type: MS2
Ion mode: POSITIVE
Collision energy: 130
Fragmentation mode: CID
Ionization: ESI
Column name: Zorbax Eclipse Plus C18 2.1 mm x 150 mm, 3.5 um, Agilent
Retention time: 9.326 min
Precursor m/z: 409.1776
Precursor type: [M+H]+
m/z	relative intensity
51.0222	204
65.0395	227
77.0377	999
91.0536	703
103.0556	113
115.0535	726
116.0625	90
121.0637	181
127.0548	385
128.0616	544
129.065	90
131.0476	136
139.0541	227
141.0683	181
151.057	181
152.0614	476
163.0538	158
164.0629	113
165.0677	522
177.0712	113
178.0776	227
181.0631	158
189.0709	613
202.0748	385
203.0856	113
213.0713	113
215.0875	181
218.0759	113
226.0788	181
231.077	90
