Mass spectrum: Formononetin; LC-ESI-QTOF; MS2; 120 V
Name: Formononetin
Class: Metabolite; Metabolite; Pharmaceutical
Formula: C16H12O4
Exact mass: 268.0736
SMILES: COc1ccc(cc1)C2=COc3cc(O)ccc3C2=O
InChI: InChI=1S/C16H12O4/c1-19-12-5-2-10(3-6-12)14-9-20-15-8-11(17)4-7-13(15)16(14)18/h2-9,17H,1H3
Instrument: TripleTOF 5600 SCIEX
Instrument type: LC-ESI-QTOF
Ms type: MS2
Ion mode: POSITIVE
Collision energy: 120
Fragmentation mode: CID
Ionization: ESI
Column name: Zorbax Eclipse Plus C18 2.1 mm x 150 mm, 3.5 um, Agilent
Retention time: 10.093 min
Precursor m/z: 269.0808
Precursor type: [M+H]+
m/z	relative intensity
52.0365	23
53.0078	9
60.0052	11
61.0406	15
64.0357	58
65.0439	112
69.0014	60
73.0109	13
74.0189	178
75.0266	141
76.0341	58
77.0416	220
78.0503	23
81.0362	11
86.0181	27
87.0256	47
88.0316	25
89.0416	999
90.0479	23
91.0563	35
98.0172	49
99.0243	45
101.0378	29
102.0473	82
102.0667	11
113.0382	70
114.0476	31
115.0549	562
125.0379	21
126.0464	112
127.0554	23
128.0642	17
138.0476	19
139.055	348
139.0877	13
141.071	13
149.0416	17
150.0468	188
151.0548	102
152.0631	131
