Mass spectrum: 4-Hydroxydiphenylamine; LC-ESI-QTOF; MS2; 100 V
Name: 4-Hydroxydiphenylamine
Class: Pesticide
Formula: C12H11NO
Exact mass: 185.0841
SMILES: C1=CC=C(C=C1)NC2=CC=C(C=C2)O
InChI: InChI=1S/C12H11NO/c14-12-8-6-11(7-9-12)13-10-4-2-1-3-5-10/h1-9,13-14H
Instrument: TripleTOF 6600 SCIEX
Instrument type: LC-ESI-QTOF
Ms type: MS2
Ion mode: POSITIVE
Collision energy: 100
Fragmentation mode: CID
Ionization: ESI
Column name: Zorbax Eclipse Plus C18 2.1 mm x 150 mm, 3.5 um, Agilent
Retention time: 10.034 min
Precursor m/z: 186.0914
Precursor type: [M+H]+
m/z	relative intensity
35.9989	70
37.0067	361
38.0017	55
38.0144	338
39.0222	999
40.0173	55
40.0301	47
41.0258	110
42.0327	102
44.0122	78
49.0062	62
50.0142	353
51.0219	456
52.0174	173
53.0007	31
53.0379	849
54.0327	228
55.017	39
61.0063	62
62.0138	141
63.0221	275
65.0257	55
65.0373	298
66.0335	55
66.0456	117
74.0138	62
78.0332	47
80.0483	802
81.0324	102
89.0369	31
92.0487	39
108.0438	39
