Mass spectrum: 2-Methylquinoline; LC-ESI-QTOF; MS2; 20 V
Name: 2-Methylquinoline
Formula: C10H9N
Exact mass: 143.0735
InChI: InChI=1S/C10H9N/c1-8-6-7-9-4-2-3-5-10(9)11-8/h2-7H,1H3
Instrument: TripleTOF X500R SCIEX
Instrument type: LC-ESI-QTOF
Ms type: CID
Ion mode: POSITIVE
Collision energy: 20
Ionization: ESI
Column name: Zorbax Eclipse Plus C18 2.1 mm x 150 mm, 3.5 um, Agilent
Retention time: 4.69 min
Precursor m/z: 144.0808
Precursor type: [M+H]+
m/z	relative intensity
128.0498	31
143.0733	25
144.0808	999
