Mass spectrum: Diphenylphosphinamide; LC-ESI-QTOF; MS2; 90 V
Name: Diphenylphosphinamide
Formula: C12H12NOP
Exact mass: 217.0657
SMILES: C1=CC=C(C=C1)P(=O)(C2=CC=CC=C2)N
InChI: InChI=1S/C12H12NOP/c13-15(14,11-7-3-1-4-8-11)12-9-5-2-6-10-12/h1-10H,(H2,13,14)
Instrument: TripleTOF 5600 SCIEX
Instrument type: LC-ESI-QTOF
Ms type: MS2
Ion mode: POSITIVE
Collision energy: 90
Fragmentation mode: CID
Ionization: ESI
Column name: Zorbax Eclipse Plus C18 2.1 mm x 150 mm, 3.5 um, Agilent
Retention time: 7.411 min
Precursor m/z: 218.0729
Precursor type: [M+H]+
m/z	relative intensity
45.9848	14
46.9688	34
49.0073	45
50.0154	326
51.0235	999
63.0245	14
63.9953	25
65.0397	11
67.9814	25
68.9888	93
74.0163	28
75.0237	22
76.0325	17
77.0391	417
78.0474	36
80.9916	11
89.0387	25
102.0472	31
107.0046	62
115.0543	31
126.0442	45
127.0536	34
128.0611	31
133.0208	14
139.0536	25
144.0108	14
150.0444	28
151.0559	56
152.0606	113
157.0197	14
170.0285	25
