Mass spectrum: Alachlor; LC-ESI-QTOF; MS2; 50 V
Name: Alachlor
Class: Herbicide
Formula: C14H20ClNO2
Exact mass: 269.1183
SMILES: CCC1=C(C(=CC=C1)CC)N(COC)C(=O)CCl
InChI: InChI=1S/C14H20ClNO2/c1-4-11-7-6-8-12(5-2)14(11)16(10-18-3)13(17)9-15/h6-8H,4-5,9-10H2,1-3H3
Instrument: TripleTOF 6600 SCIEX
Instrument type: LC-ESI-QTOF
Ms type: MS2
Ion mode: POSITIVE
Collision energy: 50
Fragmentation mode: CID
Ionization: ESI
Column name: Zorbax Eclipse Plus C18 2.1 mm x 150 mm, 3.5 um, Agilent
Retention time: 13.233 min
Precursor m/z: 270.1255
Precursor type: [M+H]+
m/z	relative intensity
31.0171	163
41.0373	49
45.0328	413
48.9834	99
59.0486	63
76.9766	36
77.0365	22
90.0099	113
91.0527	118
93.0678	22
103.0528	36
105.0689	104
106.0665	27
115.051	54
116.0598	45
117.0565	286
118.064	149
119.0713	145
120.0798	49
128.0606	36
129.069	40
130.0631	81
130.0754	31
131.0723	68
132.0795	999
133.0868	949
134.0959	49
142.0624	27
143.0714	49
144.0785	113
145.0844	40
146.0948	240
147.0774	18
147.1029	594
148.1097	222
149.093	18
156.0791	49
157.0865	27
158.0973	54
162.1255	227
163.1096	54
169.0867	31
170.0957	63
171.1014	40
