Mass spectrum: Guaifenesin; LC-ESI-QTOF; MS2; 60 V
Name: Guaifenesin
Formula: C10H14O4
Exact mass: 198.0892
SMILES: COC1=CC=CC=C1OCC(CO)O
InChI: InChI=1S/C10H14O4/c1-13-9-4-2-3-5-10(9)14-7-8(12)6-11/h2-5,8,11-12H,6-7H2,1H3
Instrument: TripleTOF X500R SCIEX
Instrument type: LC-ESI-QTOF
Ms type: MS2
Ion mode: POSITIVE
Collision energy: 60
Fragmentation mode: CID
Ionization: ESI
Column name: Zorbax Eclipse Plus C18 2.1 mm x 150 mm, 3.5 um, Agilent
Retention time: 6.298 min
Precursor m/z: 199.0965
Precursor type: [M+H]+
m/z	relative intensity
31.0182	29
37.0082	29
38.0144	29
39.0239	264
41.0379	88
43.0192	29
45.0348	88
51.0231	499
53.0371	29
54.0462	29
55.0174	58
57.0334	29
58.0284	58
60.9877	29
64.0304	176
65.0391	499
66.0469	88
72.986	88
77.0391	793
79.0553	88
81.0339	58
82.0386	29
91.0554	176
92.0259	176
100.0764	58
102.0444	29
103.0555	29
110.0359	205
121.0297	999
122.0371	58
