Mass spectrum: Oxycodone; LC-ESI-QTOF; MS2; 120 V
Name: Oxycodone
Class: Pharmaceutical
Formula: C18H21NO4
Exact mass: 315.1471
SMILES: CN1CCC23C4C(=O)CCC2(C1CC5=C3C(=C(C=C5)OC)O4)O
InChI: InChI=1S/C18H21NO4/c1-19-8-7-17-14-10-3-4-12(22-2)15(14)23-16(17)11(20)5-6-18(17,21)13(19)9-10/h3-4,13,16,21H,5-9H2,1-2H3
Instrument: TripleTOF 6600 SCIEX
Instrument type: LC-ESI-QTOF
Ms type: MS2
Ion mode: POSITIVE
Collision energy: 120
Fragmentation mode: CID
Ionization: ESI
Column name: Zorbax Eclipse Plus C18 2.1 mm x 150 mm, 3.5 um, Agilent
Retention time: 5.206 min
Precursor m/z: 316.1543
Precursor type: [M+H]+
m/z	relative intensity
37.0068	10
38.0141	10
39.0225	63
42.033	30
44.0482	16
50.0143	37
51.0217	136
52.0303	12
61.0068	42
62.0146	61
63.0222	175
65.0374	114
73.0073	12
74.0143	128
75.0216	153
76.0295	94
77.0376	702
78.0455	154
85.0052	15
86.0137	28
87.0221	55
88.0288	72
89.0374	398
90.0443	33
91.0536	86
98.0134	28
99.0206	28
100.0293	23
101.0377	130
102.0447	380
103.0531	121
110.0133	10
113.0371	185
114.0439	88
115.0528	999
116.0483	50
117.0578	50
125.0382	74
126.0452	498
127.0528	724
128.0609	527
129.0432	39
129.0662	20
130.0648	38
131.0478	56
131.0719	14
137.0369	21
138.0448	32
139.0531	733
140.0494	242
141.066	153
142.0643	54
143.0701	24
150.0449	171
151.0531	340
152.0609	629
153.0573	464
154.0635	340
155.0568	108
156.0782	12
162.0439	14
163.0539	119
164.057	101
165.0675	158
166.0642	395
167.0719	398
168.0789	375
169.0842	21
170.0584	12
175.0532	12
176.0593	58
177.0594	34
178.0643	43
179.0702	32
180.0806	76
181.0607	14
181.0875	29
182.062	46
182.0961	11
187.0552	11
190.065	30
191.0726	46
192.0797	11
195.0668	10
196.0715	25
198.0596	10
203.0704	12
204.0809	11
