Mass spectrum: Codeine; LC-ESI-QTOF; MS2; 80 V
Name: Codeine
Formula: C18H21NO3
Exact mass: 299.1521
SMILES: CN1CCC23C4C1CC5=C2C(=C(C=C5)OC)OC3C(C=C4)O
InChI: InChI=1S/C18H21NO3/c1-19-8-7-18-11-4-5-13(20)17(18)22-16-14(21-2)6-3-10(15(16)18)9-12(11)19/h3-6,11-13,17,20H,7-9H2,1-2H3
Instrument: TripleTOF 6600 SCIEX
Instrument type: LC-ESI-QTOF
Ms type: MS2
Ion mode: POSITIVE
Collision energy: 80
Fragmentation mode: CID
Ionization: ESI
Column name: Zorbax Eclipse Plus C18 2.1 mm x 150 mm, 3.5 um, Agilent
Retention time: 5.043 min
Precursor m/z: 300.1594
Precursor type: [M+H]+
m/z	relative intensity
39.022	12
42.0325	11
44.0487	53
51.0219	12
55.0164	10
65.0373	21
77.0373	151
78.0448	22
89.0377	45
90.0449	13
91.0528	62
94.0395	14
101.0374	24
102.0449	67
103.0528	43
113.0382	16
114.0453	50
115.0528	688
116.0606	42
117.0665	13
118.0395	36
126.0444	74
127.0524	361
128.0605	538
129.0688	65
131.0477	42
139.0529	186
140.0606	37
141.0678	248
142.0769	15
143.0479	31
144.0551	46
146.0344	12
150.0453	33
151.0521	205
152.061	999
153.0684	348
154.0766	31
155.0485	210
156.0558	24
157.0628	29
161.0591	11
163.0533	72
164.0601	142
165.0684	540
166.0778	19
167.0798	14
168.0564	73
169.0635	65
170.0341	30
170.0707	11
171.044	22
171.0809	16
176.0605	44
177.0682	25
178.0745	92
179.0608	17
179.0847	19
180.0545	19
181.0642	137
182.0711	11
183.0424	112
184.0511	15
185.0589	23
189.0687	126
190.0731	13
191.0806	14
193.0617	21
197.057	39
198.0659	12
200.0604	14
202.0759	10
205.0628	20
209.0609	16
