Mass spectrum: Terbutaline; LC-ESI-QTOF; MS2; 80 V
Name: Terbutaline
Class: Pharmaceutical
Formula: C12H19NO3
Exact mass: 225.1365
SMILES: CC(C)(C)NCC(C1=CC(=CC(=C1)O)O)O
InChI: InChI=1S/C12H19NO3/c1-12(2,3)13-7-11(16)8-4-9(14)6-10(15)5-8/h4-6,11,13-16H,7H2,1-3H3
Instrument: TripleTOF 5600 SCIEX
Instrument type: LC-ESI-QTOF
Ms type: MS2
Ion mode: POSITIVE
Collision energy: 80
Fragmentation mode: CID
Ionization: ESI
Column name: Zorbax Eclipse Plus C18 2.1 mm x 150 mm, 3.5 um, Agilent
Retention time: 4.546 min
Precursor m/z: 226.1438
Precursor type: [M+H]+
m/z	relative intensity
39.0232	80
41.0389	50
51.0231	181
57.0704	111
68.9972	201
77.0385	999
79.055	80
81.0337	60
82.0416	40
89.0389	50
107.0482	131
110.0372	171
