Mass spectrum: Omeprazole 4-desmethylthioether; LC-ESI-QTOF; MS2; 90 V
Name: Omeprazole 4-desmethylthioether
Class: Metabolite; Pharmaceutical
Formula: C16H17N3O2S
Exact mass: 315.1041
SMILES: Cc1cnc(c(c1O)C)CSc2[nH]c3ccc(cc3n2)OC
InChI: InChI=1S/C16H17N3O2S/c1-9-7-17-14(10(2)15(9)20)8-22-16-18-12-5-4-11(21-3)6-13(12)19-16/h4-7H,8H2,1-3H3,(H,17,20)(H,18,19)
Instrument: TripleTOF 5600 SCIEX
Instrument type: LC-ESI-QTOF
Ms type: MS2
Ion mode: POSITIVE
Collision energy: 90
Fragmentation mode: CID
Ionization: ESI
Column name: Zorbax Eclipse Plus C18 2.1 mm x 150 mm, 3.5 um, Agilent
Retention time: 6.17 min
Precursor m/z: 316.1114
Precursor type: [M+H]+
m/z	relative intensity
52.037	36
53.0443	36
55.0214	43
65.0425	182
66.0506	80
67.0589	116
77.0402	189
78.0377	58
79.0429	218
79.0544	175
80.0521	123
81.0612	58
81.0704	51
91.0546	211
92.051	109
93.0582	510
93.0872	36
94.0667	422
94.0836	29
95.0512	43
96.0825	87
105.0454	58
106.0526	685
107.073	102
108.0439	43
108.0806	999
109.0523	80
109.0869	72
122.0577	58
123.0696	87
124.0747	72
134.0475	379
136.0753	153
137.0163	65
137.0812	29
138.0335	51
140.0535	36
148.0747	58
166.0316	218
