Mass spectrum: Simvastatin; LC-ESI-QTOF; MS2; 50 V
Name: Simvastatin
Class: Pharmaceutical
Formula: C25H38O5
Exact mass: 418.2719
SMILES: CCC(C)(C)C(=O)O[C@H]1C[C@@H](C)C=C2C=C[C@H](C)[C@H](CC[C@@H]3C[C@@H](O)CC(=O)O3)[C@@H]12
InChI: InChI=1S/C25H38O5/c1-6-25(4,5)24(28)30-21-12-15(2)11-17-8-7-16(3)20(23(17)21)10-9-19-13-18(26)14-22(27)29-19/h7-8,11,15-16,18-21,23,26H,6,9-10,12-14H2,1-5H3/t15-,16-,18+,19+,20-,21-,23-/m0/s1
Instrument: TripleTOF 5600 SCIEX
Instrument type: LC-ESI-QTOF
Ms type: MS2
Ion mode: POSITIVE
Collision energy: 50
Fragmentation mode: CID
Ionization: ESI
Column name: Zorbax Eclipse Plus C18 2.1 mm x 150 mm, 3.5 um, Agilent
Retention time: 15.438 min
Precursor m/z: 419.2792
Precursor type: [M+H]+
m/z	relative intensity
67.0594	40
79.0579	122
81.0712	101
83.051	61
85.0648	40
91.0552	50
93.0688	91
97.0638	50
105.069	254
107.0858	101
108.0456	61
117.0691	81
119.0856	152
128.0612	132
129.0703	81
131.0852	387
133.1059	91
141.0696	71
142.0778	163
143.0851	805
144.0974	81
145.1007	448
147.1197	40
155.0855	234
156.0946	91
157.1007	448
158.1068	173
159.1168	448
168.0946	101
169.1001	448
171.1166	397
173.1321	815
181.0997	71
183.1163	356
185.1336	50
193.0997	40
195.1188	61
197.1312	193
199.1482	999
201.1619	112
207.1177	142
211.1482	61
223.1466	142
225.1639	581
234.1407	50
239.1738	50
243.1738	61
249.1626	50
