Mass spectrum: 1,2,3-trimethoxybenzene; LC-ESI-QTOF; MS2; 20 V
Name: 1,2,3-trimethoxybenzene
Class: Food_additive
Formula: C9H12O3
Exact mass: 168.0786
SMILES: COC1=C(C(=CC=C1)OC)OC
InChI: InChI=1S/C9H12O3/c1-10-7-5-4-6-8(11-2)9(7)12-3/h4-6H,1-3H3
Instrument: TripleTOF 5600 SCIEX
Instrument type: LC-ESI-QTOF
Ms type: CID
Ion mode: POSITIVE
Collision energy: 20
Ionization: ESI
Column name: Zorbax Eclipse Plus C18 2.1 mm x 150 mm, 3.5 um, Agilent
Retention time: 9.034 min
Precursor m/z: 169.0859
Precursor type: [M+H]+
m/z	relative intensity
77.0418	14
93.0374	18
94.045	18
95.0514	50
96.0589	28
107.0478	14
108.056	18
109.0647	47
111.045	76
122.0386	36
123.0446	184
124.0535	57
125.0607	65
126.0678	50
138.0686	886
139.0383	235
139.0735	104
154.0623	999
169.0866	789
