Mass spectrum: N-acetyl-sitagliptin; LC-ESI-QTOF; MS2; 130 V
Name: N-acetyl-sitagliptin
Class: Metabolite; Pharmaceutical
Formula: C18H17F6N5O2
Exact mass: 449.1286
SMILES: CC(=O)NC(CC1=CC(=C(C=C1F)F)F)CC(=O)N2CCN3C(=NN=C3C(F)(F)F)C2
InChI: InChI=1S/C18H17F6N5O2/c1-9(30)25-11(4-10-5-13(20)14(21)7-12(10)19)6-16(31)28-2-3-29-15(8-28)26-27-17(29)18(22,23)24/h5,7,11H,2-4,6,8H2,1H3,(H,25,30)
Instrument: TripleTOF 5600 SCIEX
Instrument type: LC-ESI-QTOF
Ms type: MS2
Ion mode: NEGATIVE
Collision energy: 130
Fragmentation mode: CID
Ionization: ESI
Column name: Zorbax Eclipse Plus C18 2.1 mm x 150 mm, 3.5 um, Agilent
Retention time: 8.852 min
Precursor m/z: 448.1214
Precursor type: [M-H]-
m/z	relative intensity
40.0214	90
41.0069	136
41.018	272
42.0008	136
52.0219	454
52.0346	90
58.0324	181
68.9964	999
85.0074	272
105.0165	136
109.0084	136
110.0143	45
111.0057	90
111.0219	90
121.0157	408
125.0204	136
129.0158	45
131.0314	635
132.0271	181
133.0033	317
149.021	817
151.0358	317
152.0292	136
161.0081	136
