Mass spectrum: Desmethylranitidine; LC-ESI-QTOF; MS2; 140 V
Name: Desmethylranitidine
Class: Pharmaceutical; Transformation_product
Formula: C12H20N4O3S
Exact mass: 300.1256
SMILES: CNCC1=CC=C(O1)CSCCNC(=C[N+](=O)[O-])NC
InChI: InChI=1S/C12H20N4O3S/c1-13-7-10-3-4-11(19-10)9-20-6-5-15-12(14-2)8-16(17)18/h3-4,8,13-15H,5-7,9H2,1-2H3
Instrument: TripleTOF 5600 SCIEX
Instrument type: LC-ESI-QTOF
Ms type: MS2
Ion mode: POSITIVE
Collision energy: 140
Fragmentation mode: CID
Ionization: ESI
Column name: Zorbax Eclipse Plus C18 2.1 mm x 150 mm, 3.5 um, Agilent
Retention time: 4.769 min
Precursor m/z: 301.1329
Precursor type: [M+H]+
m/z	relative intensity
45.9899	133
51.0316	865
53.0464	999
54.0408	299
55.0318	199
55.0439	166
56.0555	599
57.0506	233
59.0009	432
65.0426	399
66.0481	133
68.0539	199
68.9816	199
74.0126	133
77.0407	999
78.0357	199
80.052	499
81.0397	366
81.0498	399
82.0562	166
91.0529	133
97.0799	133
