Mass spectrum: Benzotriazole; LC-ESI-QTOF; MS2; 70 V
Name: Benzotriazole
Class: Industrial_process; Industrial_process; Industrial_process; Antimicrobial; Personal_care_product
Formula: C6H5N3
Exact mass: 119.0483
SMILES: C1=CC2=NNN=C2C=C1
InChI: InChI=1S/C6H5N3/c1-2-4-6-5(3-1)7-9-8-6/h1-4H,(H,7,8,9)
Instrument: TripleTOF 6600 SCIEX
Instrument type: LC-ESI-QTOF
Ms type: MS2
Ion mode: POSITIVE
Collision energy: 70
Fragmentation mode: CID
Ionization: ESI
Column name: Zorbax Eclipse Plus C18 2.1 mm x 150 mm, 3.5 um, Agilent
Retention time: 5.876 min
Precursor m/z: 120.0556
Precursor type: [M+H]+
m/z	relative intensity
35.9995	115
37.0074	601
38.0029	34
38.0152	533
39.0231	999
40.0181	55
42.0337	21
43.0292	42
49.0075	46
50.015	234
51.0105	34
51.0229	72
52.018	145
61.007	59
62.0149	136
63.0227	217
64.0177	25
65.0268	25
65.0383	42
74.0146	25
75.0102	34
76.0175	34
