Mass spectrum: Sulfadoxine; LC-ESI-QTOF; MS2; 30 V
Name: Sulfadoxine
Class: Pharmaceutical
Formula: C12H14N4O4S
Exact mass: 310.0736
SMILES: COc1ncnc(N[S](=O)(=O)c2ccc(N)cc2)c1OC
InChI: InChI=1S/C12H14N4O4S/c1-19-10-11(14-7-15-12(10)20-2)16-21(17,18)9-5-3-8(13)4-6-9/h3-7H,13H2,1-2H3,(H,14,15,16)
Instrument: TripleTOF 5600 SCIEX
Instrument type: LC-ESI-QTOF
Ms type: MS2
Ion mode: NEGATIVE
Collision energy: 30
Fragmentation mode: CID
Ionization: ESI
Column name: Zorbax Eclipse Plus C18 2.1 mm x 150 mm, 3.5 um, Agilent
Retention time: 7.083 min
Precursor m/z: 309.0663
Precursor type: [M-H]-
m/z	relative intensity
134.9888	107
138.0309	85
156.0136	308
178.9789	158
197.0025	68
215.0575	750
229.0735	132
230.0826	240
251.0247	488
279.0194	999
294.043	471
309.0658	334
