Mass spectrum: Bifenox acid; LC-ESI-QTOF; MS2; 40 V
Name: Bifenox acid
Class: Pharmaceutical
Formula: C13H7Cl2NO5
Exact mass: 326.9701
SMILES: OC(=O)c1cc(Oc2ccc(Cl)cc2Cl)ccc1[N+]([O-])=O
InChI: InChI=1S/C13H7Cl2NO5/c14-7-1-4-12(10(15)5-7)21-8-2-3-11(16(19)20)9(6-8)13(17)18/h1-6H,(H,17,18)
Instrument: TripleTOF 5600 SCIEX
Instrument type: LC-ESI-QTOF
Ms type: MS2
Ion mode: NEGATIVE
Collision energy: 40
Fragmentation mode: CID
Ionization: ESI
Column name: Zorbax Eclipse Plus C18 2.1 mm x 150 mm, 3.5 um, Agilent
Retention time: 12.78 min
Precursor m/z: 325.9629
Precursor type: [M-H]-
m/z	relative intensity
45.9967	264
79.0202	235
102.9489	58
107.0133	176
124.9812	78
137.012	523
138.018	58
160.9566	999
188.0035	479
251.9758	533
281.9735	239
