Mass spectrum: 2-Aminobenzothiazole; LC-ESI-QTOF; MS2; 50 V
Name: 2-Aminobenzothiazole
Formula: C7H6N2S
Exact mass: 150.0252
SMILES: C1=CC=C2C(=C1)N=C(S2)N
InChI: InChI=1S/C7H6N2S/c8-7-9-5-3-1-2-4-6(5)10-7/h1-4H,(H2,8,9)
Instrument: TripleTOF X500R SCIEX
Instrument type: LC-ESI-QTOF
Ms type: MS2
Ion mode: POSITIVE
Collision energy: 50
Fragmentation mode: CID
Ionization: ESI
Column name: Zorbax Eclipse Plus C18 2.1 mm x 150 mm, 3.5 um, Agilent
Retention time: 4.985 min
Precursor m/z: 151.0325
Precursor type: [M+H]+
m/z	relative intensity
37.0072	21
38.0152	20
39.0227	326
43.0291	17
44.9794	25
51.0231	46
53.0385	84
59.9903	23
63.0229	79
64.0185	27
65.0381	429
66.0459	16
68.9791	284
77.0386	152
80.0489	433
81.9879	10
82.9955	19
90.0338	119
91.0418	123
92.0494	56
92.9796	18
93.0579	16
96.0029	32
97.0111	81
106.9951	25
108.0029	183
109.01	999
118.0526	169
123.0132	17
124.0219	174
132.9982	14
134.0061	19
150.0247	12
151.0328	58
