Mass spectrum: Dimethyl-ditetradecylammonium; LC-ESI-QTOF; MS2; 120 V
Name: Dimethyl-ditetradecylammonium
Class: Pharmaceutical
Formula: C30H64N
Exact mass: 438.5033
InChI: InChI=1S/C30H64N/c1-5-7-9-11-13-15-17-19-21-23-25-27-29-31(3,4)30-28-26-24-22-20-18-16-14-12-10-8-6-2/h5-30H2,1-4H3/q+1
Instrument: TripleTOF 5600 SCIEX
Instrument type: LC-ESI-QTOF
Ms type: CID
Ion mode: POSITIVE
Collision energy: 120
Ionization: ESI
Column name: Zorbax Eclipse Plus C18 2.1 mm x 150 mm, 3.5 um, Agilent
Retention time: 16.898 min
Precursor m/z: 438.5033
Precursor type: [M]+
m/z	relative intensity
42.0425	84
44.0591	60
57.0752	121
58.0709	999
