Mass spectrum: Michler`s ketone; LC-ESI-QTOF; MS2; 80 V
Name: Michler`s ketone
Formula: C17H20N2O
Exact mass: 268.1576
SMILES: CN(C)C1=CC=C(C=C1)C(=O)C2=CC=C(C=C2)N(C)C
InChI: InChI=1S/C17H20N2O/c1-18(2)15-9-5-13(6-10-15)17(20)14-7-11-16(12-8-14)19(3)4/h5-12H,1-4H3
Instrument: TripleTOF X500R SCIEX
Instrument type: LC-ESI-QTOF
Ms type: MS2
Ion mode: POSITIVE
Collision energy: 80
Fragmentation mode: CID
Ionization: ESI
Column name: Zorbax Eclipse Plus C18 2.1 mm x 150 mm, 3.5 um, Agilent
Retention time: 12.383 min
Precursor m/z: 269.1649
Precursor type: [M+H]+
m/z	relative intensity
39.0229	71
42.0339	214
51.0227	245
53.0388	27
65.0386	172
77.0386	999
78.046	143
79.054	217
80.0495	51
81.0586	15
90.034	31
91.0547	366
92.056	53
93.0571	33
93.0697	15
94.0661	15
103.0546	28
104.0495	747
105.0575	356
106.0651	67
115.0566	28
117.057	30
118.0651	161
119.0728	52
120.0817	31
132.0451	11
134.0607	52
139.0544	80
140.0626	37
141.0712	12
148.075	41
151.054	43
152.0624	148
153.0701	43
165.0714	23
166.0657	60
167.0737	53
168.0561	40
168.0803	20
178.0672	20
179.0732	37
180.0577	18
180.0804	62
181.066	11
181.088	22
193.088	20
194.0967	33
195.0684	60
196.0749	12
206.0847	23
208.0767	32
209.0828	13
210.0905	23
221.1088	31
222.0797	21
237.1042	31
