Mass spectrum: Malathion; LC-ESI-QTOF; MS2; 20 V
Name: Malathion
Class: Insecticide
Formula: C10H19O6PS2
Exact mass: 330.0361
SMILES: CCOC(=O)CC(C(=O)OCC)SP(=S)(OC)OC
InChI: InChI=1S/C10H19O6PS2/c1-5-15-9(11)7-8(10(12)16-6-2)19-17(18,13-3)14-4/h8H,5-7H2,1-4H3
Instrument: TripleTOF 5600 SCIEX
Instrument type: LC-ESI-QTOF
Ms type: MS2
Ion mode: POSITIVE
Collision energy: 20
Fragmentation mode: CID
Ionization: ESI
Column name: Zorbax Eclipse Plus C18 2.1 mm x 150 mm, 3.5 um, Agilent
Retention time: 12.939 min
Precursor m/z: 331.0433
Precursor type: [M+H]+
m/z	relative intensity
99.0072	343
99.0434	14
114.983	12
124.9808	71
127.0383	999
143.0163	15
146.9913	17
158.9682	18
189.059	20
210.964	90
257.0052	132
285.0008	128
