Mass spectrum: Amethopterin; LC-ESI-QTOF; MS2; 130 V
Name: Amethopterin
Class: Pharmaceutical
Formula: C20H22N8O5
Exact mass: 454.1713
SMILES: CN(Cc1cnc2nc(N)nc(N)c2n1)c3ccc(cc3)C(=O)NC(CCC(O)=O)C(O)=O
InChI: InChI=1S/C20H22N8O5/c1-28(9-11-8-23-17-15(24-11)16(21)26-20(22)27-17)12-4-2-10(3-5-12)18(31)25-13(19(32)33)6-7-14(29)30/h2-5,8,13H,6-7,9H2,1H3,(H,25,31)(H,29,30)(H,32,33)(H4,21,22,23,26,27)
Instrument: TripleTOF 5600 SCIEX
Instrument type: LC-ESI-QTOF
Ms type: MS2
Ion mode: POSITIVE
Collision energy: 130
Fragmentation mode: CID
Ionization: ESI
Column name: Zorbax Eclipse Plus C18 2.1 mm x 150 mm, 3.5 um, Agilent
Retention time: 5.057 min
Precursor m/z: 455.1786
Precursor type: [M+H]+
m/z	relative intensity
43.0281	129
52.0176	90
53.014	77
53.0259	64
54.0333	142
65.0385	77
66.0226	116
67.0285	90
77.0125	64
77.038	324
78.0212	51
79.029	402
79.0545	116
80.0242	246
80.0365	155
81.0453	90
91.0278	51
94.0399	90
104.0236	77
105.0343	77
106.0402	999
106.0629	64
107.0475	129
108.0534	103
121.0502	116
132.0433	129
133.0505	480
134.0595	90
148.0609	51
158.0442	64
175.0699	142
