Mass spectrum: 4,4`-Methylenebis(2-chloroaniline); LC-ESI-QTOF; MS2; 110 V
Name: 4,4`-Methylenebis(2-chloroaniline)
Formula: C13H12Cl2N2
Exact mass: 266.0378
SMILES: C1=CC(=C(C=C1CC2=CC(=C(C=C2)N)Cl)Cl)N
InChI: InChI=1S/C13H12Cl2N2/c14-10-6-8(1-3-12(10)16)5-9-2-4-13(17)11(15)7-9/h1-4,6-7H,5,16-17H2
Instrument: TripleTOF 6600 SCIEX
Instrument type: LC-ESI-QTOF
Ms type: MS2
Ion mode: POSITIVE
Collision energy: 110
Fragmentation mode: CID
Ionization: ESI
Column name: Zorbax Eclipse Plus C18 2.1 mm x 150 mm, 3.5 um, Agilent
Retention time: 11.747 min
Precursor m/z: 267.045
Precursor type: [M+H]+
m/z	relative intensity
39.0239	42
49.0081	21
50.0156	330
51.0234	883
52.0191	42
52.0314	25
61.0082	38
62.0155	85
63.0235	162
65.0387	81
72.9838	25
73.0093	25
74.0154	287
75.0231	312
76.0196	30
76.0307	102
77.0383	896
78.0332	68
78.0464	124
85.007	21
86.0139	30
87.0239	64
88.0318	51
89.0397	231
90.0341	17
98.0155	205
99.0235	158
100.0311	38
101.0391	47
102.0457	98
104.0492	321
110.0153	47
111.0226	34
113.0384	201
114.0439	64
115.054	381
122.0153	34
123.0233	21
124.0316	25
125.0377	81
126.0465	222
127.0555	94
128.0517	21
129.046	21
137.0405	30
138.0428	25
139.0539	999
140.0499	282
141.064	21
149.0382	68
150.0461	818
151.0535	364
152.0617	201
153.0591	30
161.0388	25
162.0502	34
163.0551	30
164.051	98
166.0661	120
167.0744	94
175.042	25
176.0484	51
177.0612	34
179.0563	25
