Mass spectrum: Aripiprazole; LC-ESI-QTOF; MS2; 50 V
Name: Aripiprazole
Class: Pharmaceutical
Formula: C23H27Cl2N3O2
Exact mass: 447.148
SMILES: Clc1cccc(N2CCN(CCCCOc3ccc4CCC(=O)Nc4c3)CC2)c1Cl
InChI: InChI=1S/C23H27Cl2N3O2/c24-19-4-3-5-21(23(19)25)28-13-11-27(12-14-28)10-1-2-15-30-18-8-6-17-7-9-22(29)26-20(17)16-18/h3-6,8,16H,1-2,7,9-15H2,(H,26,29)
Instrument: TripleTOF 5600 SCIEX
Instrument type: LC-ESI-QTOF
Ms type: MS2
Ion mode: POSITIVE
Collision energy: 50
Fragmentation mode: CID
Ionization: ESI
Column name: Zorbax Eclipse Plus C18 2.1 mm x 150 mm, 3.5 um, Agilent
Retention time: 8.305 min
Precursor m/z: 448.1553
Precursor type: [M+H]+
m/z	relative intensity
56.0546	18
70.0679	35
84.0823	22
98.0976	407
117.0568	15
118.0646	38
120.0807	12
122.0599	11
134.0608	13
146.06	201
148.0751	135
152.0265	36
153.0336	81
164.0706	125
171.9704	27
174.0658	10
176.0712	534
188.0024	162
190.088	10
200.0025	67
216.0342	24
218.117	53
228.0208	75
243.0446	145
285.0921	999
448.16	18
