Mass spectrum: Diazinon; LC-ESI-QTOF; MS2; 20 V
Name: Diazinon
Class: Insecticide
Formula: C12H21N2O3PS
Exact mass: 304.1011
SMILES: CCO[P](=S)(OCC)Oc1cc(C)nc(n1)C(C)C
InChI: InChI=1S/C12H21N2O3PS/c1-6-15-18(19,16-7-2)17-11-8-10(5)13-12(14-11)9(3)4/h8-9H,6-7H2,1-5H3
Instrument: TripleTOF 5600 SCIEX
Instrument type: LC-ESI-QTOF
Ms type: MS2
Ion mode: POSITIVE
Collision energy: 20
Fragmentation mode: CID
Ionization: ESI
Column name: Zorbax Eclipse Plus C18 2.1 mm x 150 mm, 3.5 um, Agilent
Retention time: 14.526 min
Precursor m/z: 305.1083
Precursor type: [M+H]+
m/z	relative intensity
96.9522	34
124.9824	47
153.014	13
153.1029	516
169.0797	718
181.1334	32
249.0461	41
277.0772	80
305.1083	999
