Mass spectrum: Mirtazapine; LC-ESI-QTOF; MS2; 20 V
Name: Mirtazapine
Class: Pharmaceutical
Formula: C17H19N3
Exact mass: 265.1579
SMILES: CN1CCN2C(C1)C3=CC=CC=C3CC4=C2N=CC=C4
InChI: InChI=1S/C17H19N3/c1-19-9-10-20-16(12-19)15-7-3-2-5-13(15)11-14-6-4-8-18-17(14)20/h2-8,16H,9-12H2,1H3
Instrument: TripleTOF 5600 SCIEX
Instrument type: LC-ESI-QTOF
Ms type: MS2
Ion mode: POSITIVE
Collision energy: 20
Fragmentation mode: CID
Ionization: ESI
Column name: Zorbax Eclipse Plus C18 2.1 mm x 150 mm, 3.5 um, Agilent
Retention time: 5.459 min
Precursor m/z: 266.1652
Precursor type: [M+H]+
m/z	relative intensity
72.0866	116
195.0914	303
209.1067	73
223.1237	19
235.1217	20
264.149	18
266.1645	999
