Mass spectrum: Icaridin acid; LC-ESI-QTOF; MS2; 30 V
Name: Icaridin acid
Formula: C12H21NO4
Exact mass: 243.1471
SMILES: CCC(C)OC(=O)N1CCCCC1CC(O)=O
InChI: InChI=1S/C12H21NO4/c1-3-9(2)17-12(16)13-7-5-4-6-10(13)8-11(14)15/h9-10H,3-8H2,1-2H3,(H,14,15)
Instrument: TripleTOF 6600 SCIEX
Instrument type: LC-ESI-QTOF
Ms type: MS2
Ion mode: POSITIVE
Collision energy: 30
Fragmentation mode: CID
Ionization: ESI
Column name: Zorbax Eclipse Plus C18 2.1 mm x 150 mm, 3.5 um, Agilent
Retention time: 9.741 min
Precursor m/z: 244.1543
Precursor type: [M+H]+
m/z	relative intensity
84.0818	999
128.0685	157
144.1001	224
