Mass spectrum: Doxepin; LC-ESI-QTOF; MS2; 20 V
Name: Doxepin
Class: Pharmaceutical
Formula: C19H21NO
Exact mass: 279.1623
SMILES: CN(C)CCC=C1C2=CC=CC=C2COC3=CC=CC=C31
InChI: InChI=1S/C19H21NO/c1-20(2)13-7-11-17-16-9-4-3-8-15(16)14-21-19-12-6-5-10-18(17)19/h3-6,8-12H,7,13-14H2,1-2H3
Instrument: TripleTOF 5600 SCIEX
Instrument type: LC-ESI-QTOF
Ms type: MS2
Ion mode: POSITIVE
Collision energy: 20
Fragmentation mode: CID
Ionization: ESI
Column name: Zorbax Eclipse Plus C18 2.1 mm x 150 mm, 3.5 um, Agilent
Retention time: 7.447 min
Precursor m/z: 280.1696
Precursor type: [M+H]+
m/z	relative intensity
58.074	41
84.0856	33
91.058	23
107.0521	218
115.0564	12
117.0722	41
129.0712	17
141.0711	32
142.0787	15
179.0859	10
194.0736	11
195.0797	21
207.1153	43
209.0954	19
217.1012	30
220.0878	28
235.1106	441
280.1678	999
