Mass spectrum: Bis(2-isopropylphenyl) phenyl phosphate; LC-ESI-QTOF; MS2; 130 V
Name: Bis(2-isopropylphenyl) phenyl phosphate
Formula: C24H27O4P
Exact mass: 410.1647
SMILES: CC(C)C1=CC=CC=C1OP(=O)(OC2=CC=CC=C2)OC3=CC=CC=C3C(C)C
InChI: InChI=1S/C24H27O4P/c1-18(2)21-14-8-10-16-23(21)27-29(25,26-20-12-6-5-7-13-20)28-24-17-11-9-15-22(24)19(3)4/h5-19H,1-4H3
Instrument: TripleTOF 6600 SCIEX
Instrument type: LC-ESI-QTOF
Ms type: MS2
Ion mode: POSITIVE
Collision energy: 130
Fragmentation mode: CID
Ionization: ESI
Column name: Zorbax Eclipse Plus C18 2.1 mm x 150 mm, 3.5 um, Agilent
Retention time: 17.429 min
Precursor m/z: 411.172
Precursor type: [M+H]+
m/z	relative intensity
37.0071	46
38.0151	32
39.0231	345
41.0386	65
49.0068	28
50.0149	125
51.023	640
61.007	15
62.0145	23
63.0227	71
65.0385	999
74.0146	21
75.0224	28
76.03	21
77.0382	522
78.045	25
89.0378	23
91.0539	468
102.0461	34
103.0536	15
113.038	11
114.0455	13
115.0534	75
125.0372	21
126.0459	138
127.0539	25
128.0611	11
139.0536	173
149.0373	9
150.046	162
151.0538	341
152.0621	383
157.0194	15
163.0532	23
164.0611	21
165.0696	30
168.0559	36
176.0612	13
179.0598	13
200.0612	32
201.0699	15
202.0761	13
224.0611	32
225.0697	30
226.0769	100
