Mass spectrum: Formononetin; LC-ESI-QTOF; MS2; 40 V
Name: Formononetin
Class: Metabolite; Metabolite; Pharmaceutical
Formula: C16H12O4
Exact mass: 268.0736
SMILES: COc1ccc(cc1)C2=COc3cc(O)ccc3C2=O
InChI: InChI=1S/C16H12O4/c1-19-12-5-2-10(3-6-12)14-9-20-15-8-11(17)4-7-13(15)16(14)18/h2-9,17H,1H3
Instrument: TripleTOF 5600 SCIEX
Instrument type: LC-ESI-QTOF
Ms type: MS2
Ion mode: POSITIVE
Collision energy: 40
Fragmentation mode: CID
Ionization: ESI
Column name: Zorbax Eclipse Plus C18 2.1 mm x 150 mm, 3.5 um, Agilent
Retention time: 10.093 min
Precursor m/z: 269.0808
Precursor type: [M+H]+
m/z	relative intensity
69.0003	20
77.0411	34
79.0568	17
80.0286	11
81.0369	19
89.0398	56
90.0485	96
91.0556	12
103.0546	26
105.0341	12
105.071	15
107.0492	80
108.0204	60
115.055	40
118.0418	278
127.0546	16
128.0616	58
129.0691	25
133.03	14
133.0653	54
136.0154	121
137.0231	147
141.0698	130
142.0792	17
144.0572	16
151.0542	23
152.0622	142
153.0692	81
155.0473	25
156.0566	96
157.0651	41
158.0713	32
163.0385	28
165.0699	34
168.0542	38
169.064	238
170.0722	136
171.0811	11
179.0491	13
180.057	32
181.0648	266
182.0725	75
184.0518	34
185.0955	13
195.0799	31
196.0513	56
197.0601	868
198.0682	209
200.0468	61
208.0499	14
209.0595	48
210.0681	10
211.0369	13
211.0763	13
213.0913	419
225.0546	424
226.0628	507
237.0544	565
241.0825	14
253.0496	724
254.0573	432
269.0805	999
