Mass spectrum: Loratadine; LC-ESI-QTOF; MS2; 90 V
Name: Loratadine
Class: Pharmaceutical
Formula: C22H23ClN2O2
Exact mass: 382.1448
SMILES: CCOC(=O)N1CCC(=C2C3=C(CCC4=C2N=CC=C4)C=C(C=C3)Cl)CC1
InChI: InChI=1S/C22H23ClN2O2/c1-2-27-22(26)25-12-9-15(10-13-25)20-19-8-7-18(23)14-17(19)6-5-16-4-3-11-24-21(16)20/h3-4,7-8,11,14H,2,5-6,9-10,12-13H2,1H3
Instrument: TripleTOF 6600 SCIEX
Instrument type: LC-ESI-QTOF
Ms type: MS2
Ion mode: POSITIVE
Collision energy: 90
Fragmentation mode: CID
Ionization: ESI
Column name: Zorbax Eclipse Plus C18 2.1 mm x 150 mm, 3.5 um, Agilent
Retention time: 9.41 min
Precursor m/z: 383.1521
Precursor type: [M+H]+
m/z	relative intensity
80.0482	21
117.0552	15
128.0595	10
130.0643	19
151.0535	15
152.0604	36
154.0629	13
164.0598	18
165.0687	57
167.0716	21
176.06	22
178.0637	24
178.0743	15
179.0719	162
188.0598	18
189.0692	121
190.0643	42
191.0717	94
192.0789	88
193.0873	93
199.0293	16
200.0603	10
201.0679	16
202.0767	165
203.0719	90
204.0796	85
205.0892	15
213.0329	30
214.0399	108
214.0647	31
215.073	103
216.0797	677
217.0878	531
218.0955	102
219.103	13
226.0399	24
227.0473	16
227.0714	45
228.0569	31
228.0798	457
229.0874	397
230.0951	999
231.1033	338
232.1102	33
238.0405	69
239.0815	10
240.0791	60
241.0875	576
242.0952	804
243.1035	746
244.1109	532
245.1186	133
246.1241	16
250.0402	100
251.0481	493
252.0562	185
254.0939	73
255.1034	25
256.1108	279
257.1164	42
258.1271	114
262.0397	16
263.0494	24
264.056	231
265.064	112
266.0721	264
275.0469	21
276.055	34
277.0623	58
278.0709	72
279.0791	27
280.0869	67
290.0715	21
292.091	12
