Mass spectrum: Thiabendazole; LC-ESI-QTOF; MS2; 50 V
Name: Thiabendazole
Class: Fungicide; Pharmaceutical
Formula: C10H7N3S
Exact mass: 201.0361
SMILES: [nH]1c2ccccc2nc1c3cscn3
InChI: InChI=1S/C10H7N3S/c1-2-4-8-7(3-1)12-10(13-8)9-5-14-6-11-9/h1-6H,(H,12,13)
Instrument: TripleTOF 5600 SCIEX
Instrument type: LC-ESI-QTOF
Ms type: MS2
Ion mode: POSITIVE
Collision energy: 50
Fragmentation mode: CID
Ionization: ESI
Column name: Zorbax Eclipse Plus C18 2.1 mm x 150 mm, 3.5 um, Agilent
Retention time: 5.203 min
Precursor m/z: 202.0433
Precursor type: [M+H]+
m/z	relative intensity
65.0437	286
77.0414	64
90.0355	18
92.0513	179
102.0348	10
104.0498	162
118.0525	29
131.0612	999
134.0057	43
142.0522	14
143.0602	88
157.0623	13
158.0688	13
170.0709	12
175.0329	450
202.0422	53
