Mass spectrum: Diphenylphosphine oxide; LC-ESI-QTOF; MS2; 100 V
Name: Diphenylphosphine oxide
Class: Industrial_process
Formula: C12H11OP
Exact mass: 202.0548
SMILES: O=P(c1ccccc1)c2ccccc2
InChI: InChI=1S/C12H11OP/c13-14(11-7-3-1-4-8-11)12-9-5-2-6-10-12/h1-10,14H
Instrument: TripleTOF 5600 SCIEX
Instrument type: LC-ESI-QTOF
Ms type: MS2
Ion mode: POSITIVE
Collision energy: 100
Fragmentation mode: CID
Ionization: ESI
Column name: Zorbax Eclipse Plus C18 2.1 mm x 150 mm, 3.5 um, Agilent
Retention time: 8.031 min
Precursor m/z: 203.062
Precursor type: [M+H]+
m/z	relative intensity
51.0312	999
56.9939	75
77.0419	423
79.9862	136
80.9924	105
107.0055	136
