Mass spectrum: Metazachlor ESA; LC-ESI-QTOF; MS2; 40 V
Name: Metazachlor ESA
Class: Transformation_product; Herbicide; Metabolite; Transformation_product-Metabolite
Formula: C14H17N3O4S
Exact mass: 323.094
SMILES: Cc1cccc(c1N(Cn2cccn2)C(=O)CS(=O)(=O)O)C
InChI: InChI=1S/C14H17N3O4S/c1-11-5-3-6-12(2)14(11)17(10-16-8-4-7-15-16)13(18)9-22(19,20)21/h3-8H,9-10H2,1-2H3,(H,19,20,21)
Instrument: TripleTOF 6600 SCIEX
Instrument type: LC-ESI-QTOF
Ms type: MS2
Ion mode: POSITIVE
Collision energy: 40
Fragmentation mode: CID
Ionization: ESI
Column name: Zorbax Eclipse Plus C18 2.1 mm x 150 mm, 3.5 um, Agilent
Retention time: 6.639 min
Precursor m/z: 324.1013
Precursor type: [M+H]+
m/z	relative intensity
59.0123	13
69.0448	361
79.0536	17
105.0702	70
134.0964	999
160.0749	11
