Mass spectrum: Triadimefon; LC-ESI-QTOF; MS2; 150 V
Name: Triadimefon
Class: Fungicide; Transformation_product
Formula: C14H16ClN3O2
Exact mass: 293.0931
SMILES: CC(C)(C)C(=O)C(N1C=NC=N1)OC2=CC=C(C=C2)Cl
InChI: InChI=1S/C14H16ClN3O2/c1-14(2,3)12(19)13(18-9-16-8-17-18)20-11-6-4-10(15)5-7-11/h4-9,13H,1-3H3
Instrument: TripleTOF 5600 SCIEX
Instrument type: LC-ESI-QTOF
Ms type: MS2
Ion mode: POSITIVE
Collision energy: 150
Fragmentation mode: CID
Ionization: ESI
Column name: Zorbax Eclipse Plus C18 2.1 mm x 150 mm, 3.5 um, Agilent
Retention time: 12.319 min
Precursor m/z: 294.1004
Precursor type: [M+H]+
m/z	relative intensity
36.0001	12
37.0079	61
38.0153	41
39.0232	229
41.0391	86
43.0293	19
46.9683	22
48.9848	17
49.0071	24
50.0156	162
51.0236	78
55.0542	17
57.0701	91
60.9837	14
61.0081	22
62.0158	44
63.0233	59
65.0391	27
70.0406	76
72.984	130
73.0079	123
74.0157	999
75.0232	263
76.0302	14
77.0394	19
84.9846	69
98.999	14
110.9984	12
