Mass spectrum: Clenbuterol; LC-ESI-QTOF; MS2; 40 V
Name: Clenbuterol
Class: Pharmaceutical; Transformation_product-Metabolite
Formula: C12H18Cl2N2O
Exact mass: 276.0796
SMILES: CC(C)(C)NCC(c1cc(c(c(c1)Cl)N)Cl)O
InChI: InChI=1S/C12H18Cl2N2O/c1-12(2,3)16-6-10(17)7-4-8(13)11(15)9(14)5-7/h4-5,10,16-17H,6,15H2,1-3H3
Instrument: TripleTOF 5600 SCIEX
Instrument type: LC-ESI-QTOF
Ms type: MS2
Ion mode: POSITIVE
Collision energy: 40
Fragmentation mode: CID
Ionization: ESI
Column name: Zorbax Eclipse Plus C18 2.1 mm x 150 mm, 3.5 um, Agilent
Retention time: 6.115 min
Precursor m/z: 277.0869
Precursor type: [M+H]+
m/z	relative intensity
57.0753	65
104.0504	51
105.0579	24
106.0657	17
131.0611	267
132.0693	999
133.0764	68
140.0273	191
141.0335	16
151.019	106
152.0268	21
153.0225	15
167.0378	446
168.0458	920
173.9865	14
185.9881	44
203.0149	459
221.0245	13
259.0776	23
