Mass spectrum: Acid Red 1; LC-ESI-QTOF; MS2; 120 V
Name: Acid Red 1
Class: Industrial_process; Personal_care_product; Pigment; Food_additive
Formula: C18H15N3O8S2
Exact mass: 465.0301
SMILES: CC(NC1=C2C(C=C(S(=O)(O)=O)/C(C2=O)=N\NC3=CC=CC=C3)=CC(S(=O)(O)=O)=C1)=O
InChI: InChI=1S/C18H15N3O8S2/c1-10(22)19-14-9-13(30(24,25)26)7-11-8-15(31(27,28)29)17(18(23)16(11)14)21-20-12-5-3-2-4-6-12/h2-9,20H,1H3,(H,19,22)(H,24,25,26)(H,27,28,29)/b21-17+
Instrument: TripleTOF 5600 SCIEX
Instrument type: LC-ESI-QTOF
Ms type: MS2
Ion mode: NEGATIVE
Collision energy: 120
Fragmentation mode: CID
Ionization: ESI
Column name: Zorbax Eclipse Plus C18 2.1 mm x 150 mm, 3.5 um, Agilent
Retention time: 7.21 min
Precursor m/z: 464.0228
Precursor type: [M-H]-
m/z	relative intensity
65.9986	214
79.9572	999
79.9769	142
80.9652	214
101.0373	285
113.02	71
114.0197	285
117.031	142
129.0327	428
143.0226	214
145.0412	71
157.0237	214
157.0338	214
157.0577	71
160.0349	71
184.0339	142
185.0377	71
