Mass spectrum: Napropamide; LC-ESI-QTOF; MS2; 40 V
Name: Napropamide
Class: Herbicide
Formula: C17H21NO2
Exact mass: 271.1572
SMILES: CCN(CC)C(=O)C(C)Oc1cccc2c1cccc2
InChI: InChI=1S/C17H21NO2/c1-4-18(5-2)17(19)13(3)20-16-12-8-10-14-9-6-7-11-15(14)16/h6-13H,4-5H2,1-3H3
Instrument: TripleTOF 6600 SCIEX
Instrument type: LC-ESI-QTOF
Ms type: MS2
Ion mode: POSITIVE
Collision energy: 40
Fragmentation mode: CID
Ionization: ESI
Column name: Zorbax Eclipse Plus C18 2.1 mm x 150 mm, 3.5 um, Agilent
Retention time: 12.596 min
Precursor m/z: 272.1645
Precursor type: [M+H]+
m/z	relative intensity
44.0136	27
44.0496	189
55.018	29
57.0335	174
58.0653	999
72.0444	109
72.0659	17
72.0807	347
73.0885	17
74.0963	136
86.0594	64
100.0758	369
100.1119	128
101.0834	128
114.0913	330
115.0541	57
116.0618	11
127.0542	102
128.0617	393
128.1067	62
129.0692	41
129.1143	300
141.0684	29
143.0512	14
143.0853	264
144.0557	37
151.0539	24
152.0613	120
153.0696	248
155.0606	39
169.0652	11
171.0802	766
181.0755	17
199.076	31
