Mass spectrum: 3,3-Diphenylacrylonitrile; LC-ESI-QTOF; MS2; 50 V
Name: 3,3-Diphenylacrylonitrile
Formula: C15H11N
Exact mass: 205.0891
SMILES: C1=CC=C(C=C1)C(=CC#N)C2=CC=CC=C2
InChI: InChI=1S/C15H11N/c16-12-11-15(13-7-3-1-4-8-13)14-9-5-2-6-10-14/h1-11H
Instrument: TripleTOF 6600 SCIEX
Instrument type: LC-ESI-QTOF
Ms type: MS2
Ion mode: POSITIVE
Collision energy: 50
Fragmentation mode: CID
Ionization: ESI
Column name: Zorbax Eclipse Plus C18 2.1 mm x 150 mm, 3.5 um, Agilent
Retention time: 13.746 min
Precursor m/z: 206.0964
Precursor type: [M+H]+
m/z	relative intensity
51.0219	88
74.013	23
75.0213	217
77.0373	999
101.0366	405
102.0333	73
103.0515	20
104.0478	337
105.0434	14
115.0535	10
128.0474	185
129.0433	92
130.0381	13
139.0535	18
151.0526	40
152.0595	121
163.0519	19
164.0599	40
165.0683	104
176.0608	123
177.0684	142
178.0765	388
190.0632	31
203.0692	20
204.0796	82
