Mass spectrum: Lisofylline; LC-ESI-QTOF; MS2; 40 V
Name: Lisofylline
Class: Pharmaceutical; Metabolite
Formula: C13H20N4O3
Exact mass: 280.1535
SMILES: CC(O)CCCCN1C(=O)N(C)c2ncn(C)c2C1=O
InChI: InChI=1S/C13H20N4O3/c1-9(18)6-4-5-7-17-12(19)10-11(14-8-15(10)2)16(3)13(17)20/h8-9,18H,4-7H2,1-3H3
Instrument: TripleTOF 5600 SCIEX
Instrument type: LC-ESI-QTOF
Ms type: MS2
Ion mode: POSITIVE
Collision energy: 40
Fragmentation mode: CID
Ionization: ESI
Column name: Zorbax Eclipse Plus C18 2.1 mm x 150 mm, 3.5 um, Agilent
Retention time: 6.425 min
Precursor m/z: 281.1608
Precursor type: [M+H]+
m/z	relative intensity
42.0417	11
55.0596	38
67.0321	26
69.0476	36
81.046	44
83.0254	14
83.0621	34
95.0617	13
96.0563	25
108.0555	123
110.0712	157
121.0631	25
122.0703	57
124.0493	10
132.0548	32
135.0671	70
136.0505	113
137.0818	118
138.0666	496
149.0833	23
163.0616	299
165.0773	146
181.0727	999
193.072	710
