Mass spectrum: Pindolol; LC-ESI-QTOF; MS2; 80 V
Name: Pindolol
Class: Pharmaceutical
Formula: C14H20N2O2
Exact mass: 248.1525
SMILES: CC(C)NCC(COC1=CC=CC2=C1C=CN2)O
InChI: InChI=1S/C14H20N2O2/c1-10(2)16-8-11(17)9-18-14-5-3-4-13-12(14)6-7-15-13/h3-7,10-11,15-17H,8-9H2,1-2H3
Instrument: TripleTOF 5600 SCIEX
Instrument type: LC-ESI-QTOF
Ms type: MS2
Ion mode: POSITIVE
Collision energy: 80
Fragmentation mode: CID
Ionization: ESI
Column name: Zorbax Eclipse Plus C18 2.1 mm x 150 mm, 3.5 um, Agilent
Retention time: 5.148 min
Precursor m/z: 249.1598
Precursor type: [M+H]+
m/z	relative intensity
44.0613	16
56.0572	242
58.0737	163
65.045	242
67.0474	13
72.0871	65
74.0662	81
75.0263	19
76.037	13
77.0444	710
78.039	163
79.0469	42
79.0591	160
80.0552	26
84.0867	16
89.0433	999
90.0505	219
91.0583	615
92.0539	16
100.1172	16
101.043	22
102.0423	26
102.0514	32
103.0465	22
103.0582	26
104.0529	330
105.0602	58
106.0669	88
107.0521	193
115.0565	370
116.0514	484
117.0598	579
118.0669	55
126.0491	26
127.0556	55
128.0545	45
130.0669	36
132.0464	19
133.054	78
134.0632	36
141.0592	36
142.0661	101
143.0736	65
