Mass spectrum: 4,4`-Thiodianiline; LC-ESI-QTOF; MS2; 60 V
Name: 4,4`-Thiodianiline
Formula: C12H12N2S
Exact mass: 216.0721
SMILES: C1=CC(=CC=C1N)SC2=CC=C(C=C2)N
InChI: InChI=1S/C12H12N2S/c13-9-1-5-11(6-2-9)15-12-7-3-10(14)4-8-12/h1-8H,13-14H2
Instrument: TripleTOF 6600 SCIEX
Instrument type: LC-ESI-QTOF
Ms type: MS2
Ion mode: POSITIVE
Collision energy: 60
Fragmentation mode: CID
Ionization: ESI
Column name: Zorbax Eclipse Plus C18 2.1 mm x 150 mm, 3.5 um, Agilent
Retention time: 6.429 min
Precursor m/z: 217.0794
Precursor type: [M+H]+
m/z	relative intensity
50.0143	30
53.0379	75
63.0226	15
65.0373	11
66.0448	41
67.0399	11
68.977	9
76.0292	80
80.0488	999
81.0543	15
89.0376	39
91.0406	12
92.0466	17
93.0566	109
97.0097	88
103.0532	14
113.0382	18
114.0443	12
115.0516	37
117.0542	14
123.0121	144
124.0197	489
125.0239	11
127.0526	37
128.0604	69
129.067	18
130.0633	31
134.0178	14
138.0444	26
139.0529	569
140.0529	56
141.0532	14
146.0172	11
147.0268	17
150.0445	15
151.051	14
152.0614	79
154.0642	61
155.0656	20
156.0797	31
157.0822	17
158.0188	11
166.0645	75
167.0717	79
168.075	12
171.0243	311
172.0295	50
182.0187	45
183.0251	31
183.0893	25
184.0335	26
184.0964	34
198.0344	66
199.0459	50
