Mass spectrum: N-acetyl-sitagliptin; LC-ESI-QTOF; MS2; 130 V
Name: N-acetyl-sitagliptin
Class: Metabolite; Pharmaceutical
Formula: C18H17F6N5O2
Exact mass: 449.1286
SMILES: CC(=O)NC(CC1=CC(=C(C=C1F)F)F)CC(=O)N2CCN3C(=NN=C3C(F)(F)F)C2
InChI: InChI=1S/C18H17F6N5O2/c1-9(30)25-11(4-10-5-13(20)14(21)7-12(10)19)6-16(31)28-2-3-29-15(8-28)26-27-17(29)18(22,23)24/h5,7,11H,2-4,6,8H2,1H3,(H,25,30)
Instrument: TripleTOF 5600 SCIEX
Instrument type: LC-ESI-QTOF
Ms type: MS2
Ion mode: POSITIVE
Collision energy: 130
Fragmentation mode: CID
Ionization: ESI
Column name: Zorbax Eclipse Plus C18 2.1 mm x 150 mm, 3.5 um, Agilent
Retention time: 8.852 min
Precursor m/z: 450.1359
Precursor type: [M+H]+
m/z	relative intensity
43.0242	12
56.0559	10
57.0175	15
74.0181	12
75.0069	64
75.0245	42
77.0226	18
77.0401	36
81.0149	40
86.0164	14
87.0241	84
91.011	13
95.0124	13
95.0298	48
99.004	12
101.0198	272
107.0286	179
117.0127	19
118.0198	18
119.0091	40
120.0349	15
125.0191	230
126.027	23
127.0351	999
131.0286	48
134.0388	28
137.0184	56
138.0248	10
145.0257	400
149.0186	9
151.035	320
153.0382	60
154.0454	32
169.0253	56
