Mass spectrum: Mesotrione; LC-ESI-QTOF; MS2; 100 V
Name: Mesotrione
Class: Herbicide
Formula: C14H13NO7S
Exact mass: 339.0413
SMILES: CS(=O)(=O)C1=CC(=C(C=C1)C(=O)C2C(=O)CCCC2=O)[N+](=O)[O-]
InChI: InChI=1S/C14H13NO7S/c1-23(21,22)8-5-6-9(10(7-8)15(19)20)14(18)13-11(16)3-2-4-12(13)17/h5-7,13H,2-4H2,1H3
Instrument: TripleTOF 6600 SCIEX
Instrument type: LC-ESI-QTOF
Ms type: MS2
Ion mode: POSITIVE
Collision energy: 100
Fragmentation mode: CID
Ionization: ESI
Column name: Zorbax Eclipse Plus C18 2.1 mm x 150 mm, 3.5 um, Agilent
Retention time: 9.26 min
Precursor m/z: 340.0486
Precursor type: [M+H]+
m/z	relative intensity
39.0231	86
49.0071	86
50.0151	318
51.0226	217
53.0016	405
55.0169	101
62.015	130
63.0224	376
66.0087	72
68.9962	275
73.0061	57
74.0144	448
75.0102	347
75.0216	999
76.0176	810
77.0247	115
89.0382	72
91.0176	86
92.0244	115
102.0455	72
115.0534	101
139.0527	101
