Mass spectrum: Imazamox; LC-ESI-QTOF; MS2; 80 V
Name: Imazamox
Class: Herbicide
Formula: C15H19N3O4
Exact mass: 305.1376
SMILES: CC(C)C1(C(=O)NC(=N1)C2=C(C=C(C=N2)COC)C(=O)O)C
InChI: InChI=1S/C15H19N3O4/c1-8(2)15(3)14(21)17-12(18-15)11-10(13(19)20)5-9(6-16-11)7-22-4/h5-6,8H,7H2,1-4H3,(H,19,20)(H,17,18,21)
Instrument: TripleTOF 6600 SCIEX
Instrument type: LC-ESI-QTOF
Ms type: MS2
Ion mode: POSITIVE
Collision energy: 80
Fragmentation mode: CID
Ionization: ESI
Column name: Zorbax Eclipse Plus C18 2.1 mm x 150 mm, 3.5 um, Agilent
Retention time: 6.853 min
Precursor m/z: 306.1448
Precursor type: [M+H]+
m/z	relative intensity
37.0062	50
38.014	60
39.0218	486
41.0376	697
42.0328	125
43.0404	35
44.0484	25
45.0318	85
51.0217	70
52.0164	55
53.0372	80
56.0481	180
61.0056	90
62.0133	90
63.0212	225
64.0162	35
64.0289	80
65.0255	30
65.0369	692
66.0451	25
67.0398	30
67.0521	40
69.0683	230
70.0632	361
71.0716	245
76.0174	30
77.0121	25
77.0225	20
77.0366	55
78.0321	286
79.0281	25
79.0391	70
80.0477	110
86.0946	75
88.0165	999
89.024	130
89.0362	30
90.0318	291
91.0394	321
92.0475	727
93.0552	35
95.0468	25
103.0275	50
104.034	30
104.0475	65
105.0427	165
105.0541	25
106.0266	65
106.0505	25
106.0615	40
107.034	35
107.0585	105
108.0424	75
115.0269	125
116.035	587
117.0428	331
118.0273	30
118.0502	456
119.0335	25
119.0579	85
120.0425	25
120.0674	30
121.0499	35
122.058	562
123.0657	115
130.0511	20
131.0218	35
131.0577	90
132.0645	30
133.0372	120
135.0533	20
143.0564	30
144.0294	230
144.08	30
145.0371	150
146.0213	25
146.046	65
147.053	45
148.0605	60
159.0524	65
160.0606	160
161.0577	70
162.0399	95
163.0471	40
175.0476	30
191.0809	35
