Mass spectrum: Nitrendipine; LC-ESI-QTOF; MS2; 80 V
Name: Nitrendipine
Class: Pharmaceutical
Formula: C18H20N2O6
Exact mass: 360.1321
SMILES: CCOC(=O)C1=C(NC(=C(C1C2=CC(=CC=C2)[N+](=O)[O-])C(=O)OC)C)C
InChI: InChI=1S/C18H20N2O6/c1-5-26-18(22)15-11(3)19-10(2)14(17(21)25-4)16(15)12-7-6-8-13(9-12)20(23)24/h6-9,16,19H,5H2,1-4H3
Instrument: TripleTOF 5600 SCIEX
Instrument type: LC-ESI-QTOF
Ms type: MS2
Ion mode: POSITIVE
Collision energy: 80
Fragmentation mode: CID
Ionization: ESI
Column name: Zorbax Eclipse Plus C18 2.1 mm x 150 mm, 3.5 um, Agilent
Retention time: 12.373 min
Precursor m/z: 361.1394
Precursor type: [M+H]+
m/z	relative intensity
42.05	23
67.0234	398
75.0276	23
76.0356	23
77.044	73
78.0486	19
79.0608	19
89.0418	30
91.0573	19
101.0423	38
102.0482	73
103.0561	19
104.051	34
105.0598	34
106.0662	85
114.0478	50
115.055	414
116.0598	23
117.066	19
118.0412	27
118.0684	19
122.0592	30
125.0397	23
126.047	73
127.0535	271
128.0609	286
129.0345	23
129.0678	61
130.0409	15
131.0797	15
132.043	27
134.0604	34
138.0491	30
139.054	507
140.054	274
141.0701	325
142.0641	27
143.0744	46
144.0807	54
145.0897	27
150.0552	108
151.054	243
152.0616	727
153.0686	484
154.0681	232
155.0503	34
155.074	89
156.0821	54
157.064	30
158.0624	30
163.0518	61
164.0533	50
164.0669	27
165.0692	193
166.064	282
167.0727	662
168.0489	15
168.0802	387
169.0657	23
169.084	27
170.0955	61
176.0455	27
177.0591	30
178.0637	189
179.0736	127
180.0806	999
181.0873	410
182.0606	50
182.0954	228
183.0664	46
184.0755	27
189.0589	23
190.0639	65
191.076	42
192.0732	54
193.0653	38
193.0934	19
194.0609	65
195.066	69
196.0745	92
197.084	73
198.0912	127
200.0698	27
206.0629	38
207.0686	77
208.0734	379
209.0824	178
210.0558	27
210.09	325
212.0708	27
221.071	23
224.0685	38
225.0756	73
226.0859	166
235.0589	15
236.0723	27
239.0859	15
253.0788	42
254.0768	38
