Mass spectrum: Proadifen; LC-ESI-QTOF; MS2; 120 V
Name: Proadifen
Formula: C23H31NO2
Exact mass: 353.2355
SMILES: CCCC(C1=CC=CC=C1)(C2=CC=CC=C2)C(=O)OCCN(CC)CC
InChI: InChI=1S/C23H31NO2/c1-4-17-23(20-13-9-7-10-14-20,21-15-11-8-12-16-21)22(25)26-19-18-24(5-2)6-3/h7-16H,4-6,17-19H2,1-3H3
Instrument: TripleTOF 6600 SCIEX
Instrument type: LC-ESI-QTOF
Ms type: MS2
Ion mode: POSITIVE
Collision energy: 120
Fragmentation mode: CID
Ionization: ESI
Column name: Zorbax Eclipse Plus C18 2.1 mm x 150 mm, 3.5 um, Agilent
Retention time: 9.831 min
Precursor m/z: 354.2428
Precursor type: [M+H]+
m/z	relative intensity
37.006	36
38.0139	26
39.0219	206
41.0374	34
44.0481	41
50.0136	38
51.0219	180
61.0056	15
62.0137	33
63.0213	79
65.0373	631
74.0129	18
75.0217	11
76.0288	17
77.0373	514
78.0451	27
79.0526	63
89.0369	72
91.0526	562
102.0451	85
103.0525	49
105.0374	13
105.0682	18
113.0364	15
115.0529	371
125.0364	12
126.0444	82
127.0523	32
128.0603	129
139.0528	167
141.0683	22
150.0453	96
151.0527	224
152.0606	454
163.0525	231
164.0607	313
165.0689	999
166.0756	10
176.0593	25
178.0766	24
