Mass spectrum: Diazepam; LC-ESI-QTOF; MS2; 60 V
Name: Diazepam
Class: Pharmaceutical
Formula: C16H13ClN2O
Exact mass: 284.0716
SMILES: CN1C(=O)CN=C(C2=C1C=CC(=C2)Cl)C3=CC=CC=C3
InChI: InChI=1S/C16H13ClN2O/c1-19-14-8-7-12(17)9-13(14)16(18-10-15(19)20)11-5-3-2-4-6-11/h2-9H,10H2,1H3
Instrument: TripleTOF 6600 SCIEX
Instrument type: LC-ESI-QTOF
Ms type: MS2
Ion mode: POSITIVE
Collision energy: 60
Fragmentation mode: CID
Ionization: ESI
Column name: Zorbax Eclipse Plus C18 2.1 mm x 150 mm, 3.5 um, Agilent
Retention time: 11.181 min
Precursor m/z: 285.0789
Precursor type: [M+H]+
m/z	relative intensity
51.0233	11
58.0286	25
63.022	35
65.0379	78
72.983	15
75.0218	25
77.038	168
78.0452	12
79.053	12
89.0379	414
90.0453	202
91.0535	502
98.9986	101
100.0169	35
102.0337	21
104.0484	110
110.9988	75
112.006	20
113.0149	20
114.0094	15
114.0325	21
115.0409	14
116.0487	168
117.0566	283
118.0643	287
119.0717	128
122.999	75
124.0066	23
125.0147	325
126.0218	31
127.041	11
128.0509	11
129.0437	18
130.0397	11
131.0585	13
135.9946	44
137.0016	31
138.0096	135
139.0175	60
139.0532	10
140.0258	52
141.0337	10
142.0514	22
143.0594	295
144.0671	41
145.0746	12
147.0685	16
150.0099	73
151.017	30
151.0536	54
152.027	24
152.0603	88
153.0337	32
153.0693	38
154.0407	230
162.0096	16
163.005	246
163.052	22
164.0002	59
164.0608	64
165.0216	26
165.0691	629
166.0761	63
167.0119	13
167.0747	49
172.0633	15
176.0614	35
177.0216	50
177.0631	66
178.0663	90
179.0377	36
179.0715	205
180.0794	268
181.0862	15
190.0635	87
191.0724	116
192.0802	371
193.0884	999
194.0964	149
199.0303	41
201.0341	12
203.0705	28
204.0799	238
205.0755	196
206.0838	659
207.0919	154
213.0328	48
214.0413	47
216.0593	12
219.0931	35
220.0981	39
221.1081	119
222.1157	72
226.0417	20
227.0486	58
228.056	30
239.0363	78
240.0452	135
241.0526	439
255.0704	21
269.046	12
