Mass spectrum: Prosulfuron; LC-ESI-QTOF; MS2; 120 V
Name: Prosulfuron
Class: Herbicide
Formula: C15H16F3N5O4S
Exact mass: 419.0875
SMILES: CC1=NC(=NC(=N1)OC)NC(=O)NS(=O)(=O)C2=CC=CC=C2CCC(F)(F)F
InChI: InChI=1S/C15H16F3N5O4S/c1-9-19-12(22-14(20-9)27-2)21-13(24)23-28(25,26)11-6-4-3-5-10(11)7-8-15(16,17)18/h3-6H,7-8H2,1-2H3,(H2,19,20,21,22,23,24)
Instrument: TripleTOF 6600 SCIEX
Instrument type: LC-ESI-QTOF
Ms type: MS2
Ion mode: POSITIVE
Collision energy: 120
Fragmentation mode: CID
Ionization: ESI
Column name: Zorbax Eclipse Plus C18 2.1 mm x 150 mm, 3.5 um, Agilent
Retention time: 11.847 min
Precursor m/z: 420.0948
Precursor type: [M+H]+
m/z	relative intensity
30.0316	24
33.0109	11
39.0206	24
41.011	23
42.0315	441
43.0268	590
44.011	19
56.0101	13
56.0467	157
57.0115	147
57.042	356
58.0261	266
59.0269	67
61.0053	17
62.0122	26
63.0197	99
67.0263	9
68.0217	268
69.0054	335
77.0364	30
78.0438	23
81.0099	28
83.0264	999
85.0358	21
89.0357	124
100.0496	19
102.0425	15
107.0262	15
109.0419	536
115.0509	11
127.034	11
133.0421	51
