Mass spectrum: Bis(2-isopropylphenyl) phenyl phosphate; LC-ESI-QTOF; MS2; 80 V
Name: Bis(2-isopropylphenyl) phenyl phosphate
Formula: C24H27O4P
Exact mass: 410.1647
SMILES: CC(C)C1=CC=CC=C1OP(=O)(OC2=CC=CC=C2)OC3=CC=CC=C3C(C)C
InChI: InChI=1S/C24H27O4P/c1-18(2)21-14-8-10-16-23(21)27-29(25,26-20-12-6-5-7-13-20)28-24-17-11-9-15-22(24)19(3)4/h5-19H,1-4H3
Instrument: TripleTOF 6600 SCIEX
Instrument type: LC-ESI-QTOF
Ms type: MS2
Ion mode: POSITIVE
Collision energy: 80
Fragmentation mode: CID
Ionization: ESI
Column name: Zorbax Eclipse Plus C18 2.1 mm x 150 mm, 3.5 um, Agilent
Retention time: 17.429 min
Precursor m/z: 411.172
Precursor type: [M+H]+
m/z	relative intensity
39.0228	18
41.0384	12
50.0148	14
51.0229	71
65.0385	205
77.0387	636
91.0542	837
95.0486	25
105.0444	10
115.0533	22
127.0539	29
138.994	10
139.0536	11
141.069	10
150.0455	13
151.0537	130
152.0623	999
153.0693	62
165.0695	21
168.0568	341
175.0146	29
187.0295	25
202.0776	25
215.0258	92
226.0774	51
227.0837	39
228.0934	50
251.0459	16
