Mass spectrum: 3-Hydroxyacetaminophen; LC-ESI-QTOF; MS2; 10 V
Name: 3-Hydroxyacetaminophen
Class: Pharmaceutical; Transformation_product
Formula: C8H9NO3
Exact mass: 167.0582
InChI: InChI=1S/C8H9NO3/c1-5(10)9-6-2-3-7(11)8(12)4-6/h2-4,11-12H,1H3,(H,9,10)
Instrument: TripleTOF 5600 SCIEX
Instrument type: LC-ESI-QTOF
Ms type: CID
Ion mode: NEGATIVE
Collision energy: 10
Ionization: ESI
Column name: Zorbax Eclipse Plus C18 2.1 mm x 150 mm, 3.5 um, Agilent
Retention time: 4.471 min
Precursor m/z: 166.051
Precursor type: [M-H]-
m/z	relative intensity
123.0321	213
124.0394	878
166.0506	999
166.0656	303
167.0552	120
