Mass spectrum: Butyl-triphenylphosphonium; LC-ESI-QTOF; MS2; 100 V
Name: Butyl-triphenylphosphonium
Class: Industrial_process
Formula: C22H24P
Exact mass: 319.161
InChI: InChI=1S/C22H24P/c1-2-3-19-23(20-13-7-4-8-14-20,21-15-9-5-10-16-21)22-17-11-6-12-18-22/h4-18H,2-3,19H2,1H3/q+1
Instrument: TripleTOF 5600 SCIEX
Instrument type: LC-ESI-QTOF
Ms type: CID
Ion mode: POSITIVE
Collision energy: 100
Ionization: ESI
Column name: Zorbax Eclipse Plus C18 2.1 mm x 150 mm, 3.5 um, Agilent
Retention time: 8.852 min
Precursor m/z: 319.161
Precursor type: [M]+
m/z	relative intensity
107.0045	430
115.0544	226
133.0201	73
139.0535	209
151.0539	121
152.0618	994
157.0198	483
181.0193	150
183.0353	999
257.0511	77
