Mass spectrum: 2-[(4-hydroxy-9,10-dioxoanthracen-1-yl)amino]-5-methylbenzenesulfonic acid; LC-ESI-QTOF; MS2; 80 V
Name: 2-[(4-hydroxy-9,10-dioxoanthracen-1-yl)amino]-5-methylbenzenesulfonic acid
Formula: C21H15NO6S
Exact mass: 409.062
SMILES: CC1=CC(=C(C=C1)NC2=C3C(=C(C=C2)O)C(=O)C4=CC=CC=C4C3=O)S(=O)(=O)O
InChI: InChI=1S/C21H15NO6S/c1-11-6-7-14(17(10-11)29(26,27)28)22-15-8-9-16(23)19-18(15)20(24)12-4-2-3-5-13(12)21(19)25/h2-10,22-23H,1H3,(H,26,27,28)
Instrument: TripleTOF X500R SCIEX
Instrument type: LC-ESI-QTOF
Ms type: MS2
Ion mode: POSITIVE
Collision energy: 80
Fragmentation mode: CID
Ionization: ESI
Column name: Zorbax Eclipse Plus C18 2.1 mm x 150 mm, 3.5 um, Agilent
Retention time: 11.683 min
Precursor m/z: 410.0693
Precursor type: [M+H]+
m/z	relative intensity
152.0607	71
153.069	78
201.0709	178
202.0776	249
203.0741	42
216.0956	35
226.0781	264
227.0734	292
228.0816	999
228.1168	42
229.0906	299
238.0696	28
239.0738	78
240.0822	149
241.0871	114
242.0978	99
244.0717	28
244.1161	49
251.0753	78
252.0812	135
253.09	235
254.0977	121
256.0775	349
257.0842	128
270.0915	57
272.0687	49
282.0916	121
283.0991	28
284.0693	92
285.0825	85
298.086	64
312.0684	156
313.0744	114
326.1125	35
328.0974	28
342.0777	64
