Mass spectrum: Salbutamol; LC-ESI-QTOF; MS2; 110 V
Name: Salbutamol
Class: Pharmaceutical
Formula: C13H21NO3
Exact mass: 239.1521
SMILES: CC(C)(NCC(c1cc(CO)c(O)cc1)O)C
InChI: InChI=1S/C13H21NO3/c1-13(2,3)14-7-12(17)9-4-5-11(16)10(6-9)8-15/h4-6,12,14-17H,7-8H2,1-3H3
Instrument: TripleTOF 5600 SCIEX
Instrument type: LC-ESI-QTOF
Ms type: MS2
Ion mode: POSITIVE
Collision energy: 110
Fragmentation mode: CID
Ionization: ESI
Column name: Zorbax Eclipse Plus C18 2.1 mm x 150 mm, 3.5 um, Agilent
Retention time: 4.69 min
Precursor m/z: 240.1594
Precursor type: [M+H]+
m/z	relative intensity
57.0733	241
58.0693	145
65.0426	700
75.0254	56
77.041	999
78.0486	80
80.0508	88
89.041	177
90.0476	64
91.055	507
93.0626	40
103.0518	56
104.0489	64
117.0576	48
118.0687	56
