Mass spectrum: Thiamine Disulfide; LC-ESI-QTOF; MS2; 50 V
Name: Thiamine Disulfide
Class: Pharmaceutical
Formula: C24H34N8O4S2
Exact mass: 562.2144
SMILES: CC1=NC=C(C(=N1)N)CN(C=O)C(=C(CCO)SSC(=C(C)N(CC2=CN=C(N=C2N)C)C=O)CCO)C
InChI: InChI=1S/C24H34N8O4S2/c1-15(31(13-35)11-19-9-27-17(3)29-23(19)25)21(5-7-33)37-38-22(6-8-34)16(2)32(14-36)12-20-10-28-18(4)30-24(20)26/h9-10,13-14,33-34H,5-8,11-12H2,1-4H3,(H2,25,27,29)(H2,26,28,30)
Instrument: TripleTOF 6600 SCIEX
Instrument type: LC-ESI-QTOF
Ms type: MS2
Ion mode: POSITIVE
Collision energy: 50
Fragmentation mode: CID
Ionization: ESI
Column name: Zorbax Eclipse Plus C18 2.1 mm x 150 mm, 3.5 um, Agilent
Retention time: 4.48 min
Precursor m/z: 563.2217
Precursor type: [M+H]+
m/z	relative intensity
69.0433	11
81.0438	20
82.0516	28
107.0594	22
110.0705	581
122.0701	169
123.0786	999
124.0863	938
137.0814	73
139.0978	43
144.0473	67
149.0813	27
154.0434	12
167.0925	25
204.1128	49
219.0697	17
219.1231	15
221.1396	164
223.1017	34
231.1231	17
233.0866	78
234.0938	14
247.1028	24
249.134	49
251.0966	14
253.1125	184
254.1193	10
263.0968	164
264.1047	48
265.1124	46
281.1063	97
283.1221	37
