Mass spectrum: Crotamiton; LC-ESI-QTOF; MS2; 40 V
Name: Crotamiton
Formula: C13H17NO
Exact mass: 203.131
SMILES: CCN(C1=CC=CC=C1C)C(=O)C=CC
InChI: InChI=1S/C13H17NO/c1-4-8-13(15)14(5-2)12-10-7-6-9-11(12)3/h4,6-10H,5H2,1-3H3
Instrument: TripleTOF 6600 SCIEX
Instrument type: LC-ESI-QTOF
Ms type: MS2
Ion mode: POSITIVE
Collision energy: 40
Fragmentation mode: CID
Ionization: ESI
Column name: Zorbax Eclipse Plus C18 2.1 mm x 150 mm, 3.5 um, Agilent
Retention time: 11.073 min
Precursor m/z: 204.1383
Precursor type: [M+H]+
m/z	relative intensity
37.0074	11
38.0149	11
39.0232	137
41.0389	247
65.0383	33
68.0493	134
69.0337	999
77.0383	29
79.0538	24
91.054	283
93.0569	114
96.0801	25
105.07	10
106.065	425
107.0723	109
108.0803	152
115.0533	11
116.0489	22
117.057	23
118.0645	23
119.0723	17
120.0805	18
121.0882	130
130.0646	18
132.0436	13
132.0797	11
134.0611	208
134.0937	70
136.112	295
143.0728	23
158.0962	56
162.0907	13
204.1387	110
