Mass spectrum: Metolachlor ESA; LC-ESI-QTOF; MS2; 50 V
Name: Metolachlor ESA
Class: Herbicide; Transformation_product-Metabolite
Formula: C15H23NO5S
Exact mass: 329.1297
SMILES: CCC1=CC=CC(=C1N(C(C)COC)C(=O)CS(=O)(=O)O)C
InChI: InChI=1S/C15H23NO5S/c1-5-13-8-6-7-11(2)15(13)16(12(3)9-21-4)14(17)10-22(18,19)20/h6-8,12H,5,9-10H2,1-4H3,(H,18,19,20)
Instrument: TripleTOF 5600 SCIEX
Instrument type: LC-ESI-QTOF
Ms type: MS2
Ion mode: POSITIVE
Collision energy: 50
Fragmentation mode: CID
Ionization: ESI
Column name: Zorbax Eclipse Plus C18 2.1 mm x 150 mm, 3.5 um, Agilent
Retention time: 8.247 min
Precursor m/z: 330.137
Precursor type: [M+H]+
m/z	relative intensity
45.0398	18
73.0682	40
82.0688	11
91.0554	45
105.07	20
107.0808	13
108.0809	24
115.0533	18
117.0561	15
117.069	49
118.0653	42
119.0782	51
120.0801	40
128.0607	13
130.0659	36
131.075	79
132.0811	203
133.0882	67
134.0965	103
136.1118	49
142.0715	15
143.0851	70
144.083	126
145.0881	318
146.0606	20
146.0963	268
148.1119	40
158.0973	126
159.1036	203
160.0774	47
160.1119	999
161.0809	15
162.0914	29
172.1112	18
174.0984	13
174.1281	639
175.1355	18
176.107	22
176.1421	131
188.1074	51
202.1228	985
216.1366	11
234.1479	13
298.1131	40
