Mass spectrum: Diflufenican; LC-ESI-QTOF; MS2; 40 V
Name: Diflufenican
Class: Herbicide
Formula: C19H11F5N2O2
Exact mass: 394.0741
SMILES: C1=CC(=CC(=C1)OC2=C(C=CC=N2)C(=O)NC3=C(C=C(C=C3)F)F)C(F)(F)F
InChI: InChI=1S/C19H11F5N2O2/c20-12-6-7-16(15(21)10-12)26-17(27)14-5-2-8-25-18(14)28-13-4-1-3-11(9-13)19(22,23)24/h1-10H,(H,26,27)
Instrument: TripleTOF 6600 SCIEX
Instrument type: LC-ESI-QTOF
Ms type: MS2
Ion mode: NEGATIVE
Collision energy: 40
Fragmentation mode: CID
Ionization: ESI
Column name: Zorbax Eclipse Plus C18 2.1 mm x 150 mm, 3.5 um, Agilent
Retention time: 14.853 min
Precursor m/z: 393.0668
Precursor type: [M-H]-
m/z	relative intensity
161.0229	170
185.0527	147
192.0288	18
198.038	22
212.0306	94
218.0434	30
229.0417	56
232.0366	45
238.0483	113
252.0439	696
269.0523	15
270.0329	71
272.05	999
288.0506	34
289.0586	83
296.0597	18
309.0654	56
324.0522	30
325.0583	109
328.0627	41
329.069	117
345.0622	56
353.0516	71
373.0604	37
