Mass spectrum: Iobitridol; LC-ESI-QTOF; MS2; 50 V
Name: Iobitridol
Class: Pharmaceutical
Formula: C20H28I3N3O9
Exact mass: 834.896
SMILES: CN(CC(O)CO)C(=O)c1c(I)c(NC(=O)C(CO)CO)c(I)c(c1I)C(=O)N(C)CC(O)CO
InChI: InChI=1S/C20H28I3N3O9/c1-25(3-10(31)7-29)19(34)12-14(21)13(20(35)26(2)4-11(32)8-30)16(23)17(15(12)22)24-18(33)9(5-27)6-28/h9-11,27-32H,3-8H2,1-2H3,(H,24,33)
Instrument: TripleTOF 5600 SCIEX
Instrument type: LC-ESI-QTOF
Ms type: MS2
Ion mode: POSITIVE
Collision energy: 50
Fragmentation mode: CID
Ionization: ESI
Column name: Zorbax Eclipse Plus C18 2.1 mm x 150 mm, 3.5 um, Agilent
Retention time: 4.58 min
Precursor m/z: 835.9032
Precursor type: [M+H]+
m/z	relative intensity
321.1053	21
387.9333	40
400.9996	92
413.8213	13
416.9992	24
431.0056	21
449.024	51
456.9891	13
475.0007	192
497.8333	51
500.8811	21
515.8387	46
528.8829	19
541.7297	10
554.7697	21
554.89	95
557.9176	10
575.9248	100
584.9051	97
602.9128	999
625.7485	57
628.7938	192
671.97	24
689.9866	78
715.8485	21
715.8741	21
733.8708	16
817.8722	21
817.9	35
