Mass spectrum: Tetraphenylphosphonium; LC-ESI-QTOF; MS2; 150 V
Name: Tetraphenylphosphonium
Class: Industrial_process
Formula: [C24H20P]+
Exact mass: 339.1297
SMILES: c1ccc(cc1)[P+](c2ccccc2)(c3ccccc3)c4ccccc4
InChI: InChI=1S/C24H20P/c1-5-13-21(14-6-1)25(22-15-7-2-8-16-22,23-17-9-3-10-18-23)24-19-11-4-12-20-24/h1-20H/q+1
Instrument: TripleTOF 5600 SCIEX
Instrument type: LC-ESI-QTOF
Ms type: MS2
Ion mode: POSITIVE
Collision energy: 150
Fragmentation mode: CID
Ionization: ESI
Column name: Zorbax Eclipse Plus C18 2.1 mm x 150 mm, 3.5 um, Agilent
Retention time: 8.633 min
Precursor m/z: 339.1297
Precursor type: [M]+
m/z	relative intensity
56.994	98
65.0436	93
74.0181	105
76.0329	102
78.9757	93
79.983	281
80.9911	395
87.0237	96
89.0396	380
102.0462	166
103.9809	90
107.0049	999
113.0394	128
115.0544	337
126.0464	406
131.0046	163
133.0194	55
139.0542	253
150.0462	406
151.0547	711
152.0622	674
155.0042	105
156.0118	81
157.021	397
179.0055	71
180.0123	151
181.0206	531
