Mass spectrum: Trichlorfon; LC-ESI-QTOF; MS2; 40 V
Name: Trichlorfon
Class: Insecticide
Formula: C4H8Cl3O4P
Exact mass: 255.9226
SMILES: COP(=O)(C(C(Cl)(Cl)Cl)O)OC
InChI: InChI=1S/C4H8Cl3O4P/c1-10-12(9,11-2)3(8)4(5,6)7/h3,8H,1-2H3
Instrument: TripleTOF 6600 SCIEX
Instrument type: LC-ESI-QTOF
Ms type: MS2
Ion mode: POSITIVE
Collision energy: 40
Fragmentation mode: CID
Ionization: ESI
Column name: Zorbax Eclipse Plus C18 2.1 mm x 150 mm, 3.5 um, Agilent
Retention time: 6.251 min
Precursor m/z: 256.9299
Precursor type: [M+H]+
m/z	relative intensity
46.9675	43
48.9833	11
62.9983	26
78.9934	430
82.9438	151
92.9722	14
93.0088	56
96.959	15
109.0041	999
110.9396	23
112.954	17
127.0145	47
