Mass spectrum: Thioxanthen-9-one; LC-ESI-QTOF; MS2; 100 V
Name: Thioxanthen-9-one
Formula: C13H8OS
Exact mass: 212.0296
SMILES: C1=CC=C2C(=C1)C(=O)C3=CC=CC=C3S2
InChI: InChI=1S/C13H8OS/c14-13-9-5-1-3-7-11(9)15-12-8-4-2-6-10(12)13/h1-8H
Instrument: TripleTOF 6600 SCIEX
Instrument type: LC-ESI-QTOF
Ms type: MS2
Ion mode: POSITIVE
Collision energy: 100
Fragmentation mode: CID
Ionization: ESI
Column name: Zorbax Eclipse Plus C18 2.1 mm x 150 mm, 3.5 um, Agilent
Retention time: 13.479 min
Precursor m/z: 213.0369
Precursor type: [M+H]+
m/z	relative intensity
37.0071	32
38.0149	16
39.0229	76
44.9792	46
49.007	22
50.015	230
51.0227	178
57.9862	14
59.999	20
61.0066	82
62.0148	186
63.0229	363
65.0381	104
67.9711	86
68.9792	571
73.0078	32
74.0148	280
75.0225	140
76.0308	104
77.0388	104
78.0457	16
80.9793	30
81.9868	114
84.0007	12
85.006	88
86.0147	246
87.0228	282
88.0304	158
89.0383	742
90.0454	42
92.9791	128
97.0071	14
98.015	242
99.0226	114
100.0309	22
102.0454	88
108.0025	46
109.0063	20
110.0146	42
111.0227	24
112.0302	10
113.0385	473
114.0461	98
115.0547	176
116.9785	18
122.0152	26
125.038	40
126.0461	192
133.0095	16
134.0184	56
137.0382	250
138.0454	176
139.0539	999
145.0124	10
149.0381	30
150.0459	447
151.0544	286
152.062	108
158.0182	14
182.0151	14
