Mass spectrum: Triethylphosphine oxide; LC-ESI-QTOF; MS2; 140 V
Name: Triethylphosphine oxide
Class: Pharmaceutical
Formula: C6H15OP
Exact mass: 134.0861
InChI: InChI=1S/C6H15OP/c1-4-8(7,5-2)6-3/h4-6H2,1-3H3
Instrument: TripleTOF 5600 SCIEX
Instrument type: LC-ESI-QTOF
Ms type: CID
Ion mode: POSITIVE
Collision energy: 140
Ionization: ESI
Column name: Zorbax Eclipse Plus C18 2.1 mm x 150 mm, 3.5 um, Agilent
Retention time: 5.148 min
Precursor m/z: 135.0933
Precursor type: [M+H]+
m/z	relative intensity
43.9878	999
44.9836	808
44.9957	475
45.0076	190
47.0001	380
47.0262	190
55.9861	428
58.9834	333
