Mass spectrum: Tolfenamic acid; LC-ESI-QTOF; MS2; 140 V
Name: Tolfenamic acid
Class: Pharmaceutical
Formula: C14H12ClNO2
Exact mass: 261.0557
SMILES: Cc1cc(Nc2ccccc2C(O)=O)ccc1Cl
InChI: InChI=1S/C14H12ClNO2/c1-9-8-10(6-7-12(9)15)16-13-5-3-2-4-11(13)14(17)18/h2-8,16H,1H3,(H,17,18)
Instrument: TripleTOF 5600 SCIEX
Instrument type: LC-ESI-QTOF
Ms type: MS2
Ion mode: POSITIVE
Collision energy: 140
Fragmentation mode: CID
Ionization: ESI
Column name: Zorbax Eclipse Plus C18 2.1 mm x 150 mm, 3.5 um, Agilent
Retention time: 14.052 min
Precursor m/z: 262.0629
Precursor type: [M+H]+
m/z	relative intensity
51.029	537
60.0022	41
64.0345	33
65.0416	75
72.9854	58
73.0093	58
74.018	999
75.0262	528
76.0332	151
77.0405	495
78.0488	125
85.0092	134
86.0159	419
87.0231	419
87.0474	33
88.0291	83
89.0386	386
97.0068	50
98.0148	428
99.0094	50
99.0225	201
100.0298	67
101.0388	125
102.0451	125
109.0051	50
110.0141	109
111.0227	50
113.0374	235
114.0317	75
114.0442	33
115.0542	50
122.0147	50
123.019	41
124.0285	41
125.0379	125
126.0451	344
127.0515	41
128.0483	50
137.0363	67
138.0451	83
139.0516	58
140.051	41
149.0369	109
150.0451	679
151.0534	377
152.0585	218
153.0563	58
164.0461	33
176.0479	75
177.0577	83
178.0632	75
