Mass spectrum: 19-Nortestosterone; LC-ESI-QTOF; MS2; 80 V
Name: 19-Nortestosterone
Class: Pharmaceutical
Formula: C18H26O2
Exact mass: 274.1933
SMILES: C[C@]12CC[C@H]3[C@@H](CCC4=CC(=O)CC[C@H]34)[C@@H]1CC[C@@H]2O
InChI: InChI=1S/C18H26O2/c1-18-9-8-14-13-5-3-12(19)10-11(13)2-4-15(14)16(18)6-7-17(18)20/h10,13-17,20H,2-9H2,1H3/t13-,14+,15+,16-,17-,18-/m0/s1
Instrument: TripleTOF 5600 SCIEX
Instrument type: LC-ESI-QTOF
Ms type: MS2
Ion mode: POSITIVE
Collision energy: 80
Fragmentation mode: CID
Ionization: ESI
Column name: Zorbax Eclipse Plus C18 2.1 mm x 150 mm, 3.5 um, Agilent
Retention time: 10.421 min
Precursor m/z: 275.2006
Precursor type: [M+H]+
m/z	relative intensity
43.0306	18
51.0275	79
53.0427	33
65.0416	289
66.052	24
67.0584	121
77.0419	999
78.0478	33
79.0568	587
81.0355	15
81.0724	237
83.0504	170
83.0717	15
89.0381	15
91.0552	758
91.0902	27
93.0712	76
94.0421	36
95.0872	24
102.0452	24
103.0548	91
104.0606	12
105.069	140
107.0497	54
107.0845	18
109.0644	170
115.054	331
116.0617	36
117.0704	57
119.084	15
127.0536	70
127.0682	18
128.0624	292
129.0694	97
130.0774	21
131.0497	15
131.0863	12
141.0698	82
142.0762	24
152.0604	30
153.0704	42
155.0844	21
165.0715	42
167.0846	12
