Mass spectrum: Tenamfetamine; LC-ESI-QTOF; MS2; 110 V
Name: Tenamfetamine
Class: Pharmaceutical
Formula: C10H13NO2
Exact mass: 179.0946
SMILES: CC(CC1=CC2=C(C=C1)OCO2)N
InChI: InChI=1S/C10H13NO2/c1-7(11)4-8-2-3-9-10(5-8)13-6-12-9/h2-3,5,7H,4,6,11H2,1H3
Instrument: TripleTOF 6600 SCIEX
Instrument type: LC-ESI-QTOF
Ms type: MS2
Ion mode: POSITIVE
Collision energy: 110
Fragmentation mode: CID
Ionization: ESI
Column name: Zorbax Eclipse Plus C18 2.1 mm x 150 mm, 3.5 um, Agilent
Retention time: 5.295 min
Precursor m/z: 180.1019
Precursor type: [M+H]+
m/z	relative intensity
35.9988	28
37.0075	280
38.0019	20
38.0147	160
39.0228	284
49.0074	194
50.0148	999
51.0219	792
52.0271	33
59.9981	28
60.9855	20
61.0058	119
62.0152	235
63.0222	210
73.0066	24
74.0145	123
75.0217	16
77.0373	53
89.0381	37
