Mass spectrum: 4-Methyl-5-thiazoleethanol; LC-ESI-QTOF; MS2; 60 V
Name: 4-Methyl-5-thiazoleethanol
Class: Food_additive; Metabolite; Pharmaceutical
Formula: C6H9NOS
Exact mass: 143.0405
SMILES: CC1=C(SC=N1)CCO
InChI: InChI=1S/C6H9NOS/c1-5-6(2-3-8)9-4-7-5/h4,8H,2-3H2,1H3
Instrument: TripleTOF 6600 SCIEX
Instrument type: LC-ESI-QTOF
Ms type: MS2
Ion mode: POSITIVE
Collision energy: 60
Fragmentation mode: CID
Ionization: ESI
Column name: Zorbax Eclipse Plus C18 2.1 mm x 150 mm, 3.5 um, Agilent
Retention time: 4.251 min
Precursor m/z: 144.0478
Precursor type: [M+H]+
m/z	relative intensity
37.0072	36
38.0146	30
39.023	213
41.027	30
41.0391	97
42.0339	310
43.0427	36
44.9792	773
50.0154	42
51.0229	73
52.0316	42
53.0383	231
54.0337	146
55.0421	60
57.986	54
58.9947	140
65.0382	42
68.0496	121
68.9788	42
69.9883	30
70.9951	999
72.0027	48
78.0335	67
80.049	237
84.0027	30
85.0104	481
98.0064	36
112.0212	883
113.029	85
