Mass spectrum: 4-Acetamidoantipyrine; LC-ESI-QTOF; MS2; 100 V
Name: 4-Acetamidoantipyrine
Class: Pharmaceutical; Metabolite; Transformation_product; Transformation_product-Metabolite
Formula: C13H15N3O2
Exact mass: 245.1164
SMILES: CN1N(C(=O)C(=C1C)NC(C)=O)c2ccccc2
InChI: InChI=1S/C13H15N3O2/c1-9-12(14-10(2)17)13(18)16(15(9)3)11-7-5-4-6-8-11/h4-8H,1-3H3,(H,14,17)
Instrument: TripleTOF 5600 SCIEX
Instrument type: LC-ESI-QTOF
Ms type: MS2
Ion mode: POSITIVE
Collision energy: 100
Fragmentation mode: CID
Ionization: ESI
Column name: Zorbax Eclipse Plus C18 2.1 mm x 150 mm, 3.5 um, Agilent
Retention time: 5.586 min
Precursor m/z: 246.1237
Precursor type: [M+H]+
m/z	relative intensity
41.0338	24
41.0429	30
42.0429	205
43.0267	346
53.0191	34
54.0392	41
56.0559	999
58.0712	13
65.0441	65
66.0508	20
69.0492	27
75.0266	20
77.0421	913
81.0475	102
83.0629	686
89.0405	44
90.0469	20
91.0554	20
92.0528	24
93.0606	30
94.0662	27
101.0402	17
102.0444	17
103.0557	17
115.0543	17
116.0505	17
