Mass spectrum: Nifedipine; LC-ESI-QTOF; MS2; 90 V
Name: Nifedipine
Class: Pharmaceutical
Formula: C17H18N2O6
Exact mass: 346.1165
SMILES: CC1=C(C(C(=C(N1)C)C(=O)OC)C2=CC=CC=C2[N+](=O)[O-])C(=O)OC
InChI: InChI=1S/C17H18N2O6/c1-9-13(16(20)24-3)15(14(10(2)18-9)17(21)25-4)11-7-5-6-8-12(11)19(22)23/h5-8,15,18H,1-4H3
Instrument: TripleTOF 5600 SCIEX
Instrument type: LC-ESI-QTOF
Ms type: MS2
Ion mode: POSITIVE
Collision energy: 90
Fragmentation mode: CID
Ionization: ESI
Column name: Zorbax Eclipse Plus C18 2.1 mm x 150 mm, 3.5 um, Agilent
Retention time: 10.896 min
Precursor m/z: 347.1238
Precursor type: [M+H]+
m/z	relative intensity
42.0462	17
63.03	18
74.0204	19
75.0286	52
76.0373	21
77.0446	177
78.0484	20
87.0277	13
88.0342	24
89.0432	159
90.0508	27
91.0571	30
92.0534	10
93.0614	16
99.0262	42
100.0326	11
101.0418	109
102.0498	73
103.0573	25
104.0545	13
113.0413	111
114.0485	117
115.057	641
116.0518	107
117.0608	68
125.0405	113
126.0482	210
127.0557	500
128.0582	464
129.0612	98
130.0669	52
138.0483	37
139.0556	563
140.0519	592
141.0668	193
142.0667	76
143.0735	51
144.045	15
150.0478	52
151.0552	156
152.0568	547
153.0591	251
154.0665	381
155.0634	111
156.0807	15
164.0514	80
165.058	105
166.0659	745
167.0734	999
168.0794	344
169.0769	66
170.0614	15
176.0496	12
177.0552	37
178.0663	69
179.0614	365
180.074	161
181.076	152
182.0602	29
182.0827	25
183.0658	9
183.0905	17
191.0613	107
192.0689	492
193.0763	331
194.0834	97
195.0616	10
195.0919	173
196.0744	29
197.0817	15
198.0916	20
208.0713	17
223.0915	15
