Mass spectrum: Enrofloxacin; LC-ESI-QTOF; MS2; 140 V
Name: Enrofloxacin
Class: Pharmaceutical; Antimicrobial
Formula: C19H22FN3O3
Exact mass: 359.1645
SMILES: CCN1CCN(CC1)c2cc3N(C=C(C(O)=O)C(=O)c3cc2F)C4CC4
InChI: InChI=1S/C19H22FN3O3/c1-2-21-5-7-22(8-6-21)17-10-16-13(9-15(17)20)18(24)14(19(25)26)11-23(16)12-3-4-12/h9-12H,2-8H2,1H3,(H,25,26)
Instrument: TripleTOF 5600 SCIEX
Instrument type: LC-ESI-QTOF
Ms type: MS2
Ion mode: POSITIVE
Collision energy: 140
Fragmentation mode: CID
Ionization: ESI
Column name: Zorbax Eclipse Plus C18 2.1 mm x 150 mm, 3.5 um, Agilent
Retention time: 5.696 min
Precursor m/z: 360.1718
Precursor type: [M+H]+
m/z	relative intensity
42.043	273
53.0076	112
56.0547	112
57.02	209
70.0661	64
74.0186	306
75.0258	596
77.0408	145
78.0431	64
81.0189	241
82.0129	112
83.032	128
85.0105	64
86.0188	128
87.0219	161
88.021	145
89.0406	177
93.0138	177
94.0223	145
95.0305	96
98.0154	161
99.0224	241
99.0353	96
100.0193	241
101.038	161
102.0485	64
105.0143	241
105.0296	80
106.0219	145
107.0289	999
108.0236	96
108.0377	80
112.0189	64
113.0365	161
114.0357	128
120.0366	145
125.037	177
126.0317	96
126.0446	128
127.0556	64
128.0481	112
131.0304	80
132.0246	386
132.0461	128
133.041	225
134.0399	128
140.0486	112
145.0422	80
146.0393	96
148.0538	145
152.0496	80
158.0387	80
172.0553	161
