Mass spectrum: Etrimfos; LC-ESI-QTOF; MS2; 40 V
Name: Etrimfos
Class: Insecticide
Formula: C10H17N2O4PS
Exact mass: 292.0647
SMILES: CCC1=NC(=CC(=N1)OP(=S)(OC)OC)OCC
InChI: InChI=1S/C10H17N2O4PS/c1-5-8-11-9(15-6-2)7-10(12-8)16-17(18,13-3)14-4/h7H,5-6H2,1-4H3
Instrument: TripleTOF 6600 SCIEX
Instrument type: LC-ESI-QTOF
Ms type: MS2
Ion mode: POSITIVE
Collision energy: 40
Fragmentation mode: CID
Ionization: ESI
Column name: Zorbax Eclipse Plus C18 2.1 mm x 150 mm, 3.5 um, Agilent
Retention time: 14.241 min
Precursor m/z: 293.072
Precursor type: [M+H]+
m/z	relative intensity
44.9789	18
46.9936	76
56.0489	54
62.0177	16
68.0123	54
78.9935	202
84.0796	17
94.0037	14
100.0379	15
109.0039	181
110.9653	84
123.0542	53
124.9816	999
127.0143	25
134.965	10
142.9914	135
155.0807	23
164.0458	60
177.9706	13
181.0726	17
233.0139	84
265.0405	189
293.0716	27
