Mass spectrum: Allethrin; LC-ESI-QTOF; MS2; 50 V
Name: Allethrin
Class: Insecticide
Formula: C19H26O3
Exact mass: 302.1882
SMILES: CC(C)=CC1C(C(=O)OC2CC(=O)C(=C2C)CC=C)C1(C)C
InChI: InChI=1S/C19H26O3/c1-7-8-13-12(4)16(10-15(13)20)22-18(21)17-14(9-11(2)3)19(17,5)6/h7,9,14,16-17H,1,8,10H2,2-6H3
Instrument: TripleTOF 5600 SCIEX
Instrument type: LC-ESI-QTOF
Ms type: MS2
Ion mode: POSITIVE
Collision energy: 50
Fragmentation mode: CID
Ionization: ESI
Column name: Zorbax Eclipse Plus C18 2.1 mm x 150 mm, 3.5 um, Agilent
Retention time: 16.132 min
Precursor m/z: 303.1955
Precursor type: [M+H]+
m/z	relative intensity
43.0247	13
55.0231	20
55.0581	15
57.0732	13
65.0422	91
67.0578	106
69.0371	23
69.073	31
77.0419	234
77.0652	10
79.057	515
81.0722	257
91.056	999
92.0627	20
93.0711	236
95.0501	20
95.0857	67
103.0552	23
105.0705	343
107.0492	59
107.086	286
108.094	10
109.0652	91
111.0449	13
115.0545	252
116.0618	15
117.0697	124
119.0852	44
121.065	104
121.1005	117
123.1169	135
129.0694	20
131.0863	28
133.0647	10
133.0999	28
135.0807	265
139.1133	10
141.0671	10
142.0759	10
143.086	26
144.0965	15
145.1021	26
147.0798	10
149.0961	23
151.111	18
156.0916	10
159.0798	18
