Mass spectrum: 4-Hydroxytrimethoprim; LC-ESI-QTOF; MS2; 60 V
Name: 4-Hydroxytrimethoprim
Class: Pharmaceutical; Transformation_product
Formula: C14H18N4O4
Exact mass: 306.1328
SMILES: COc1cc(cc(c1OC)OC)Cc2c(nc(nc2O)N)N
InChI: InChI=1S/C14H18N4O4/c1-20-9-5-7(6-10(21-2)11(9)22-3)4-8-12(15)17-14(16)18-13(8)19/h5-6H,4H2,1-3H3,(H5,15,16,17,18,19)
Instrument: TripleTOF 5600 SCIEX
Instrument type: LC-ESI-QTOF
Ms type: MS2
Ion mode: NEGATIVE
Collision energy: 60
Fragmentation mode: CID
Ionization: ESI
Column name: Zorbax Eclipse Plus C18 2.1 mm x 150 mm, 3.5 um, Agilent
Retention time: 5.43 min
Precursor m/z: 305.1255
Precursor type: [M-H]-
m/z	relative intensity
41.0173	66
144.0496	52
146.0259	52
147.0325	118
160.0412	52
161.0446	154
162.0185	52
172.0308	61
174.0196	83
174.0547	57
175.0274	426
176.0106	110
187.0155	140
189.0388	118
190.0451	79
191.0435	74
201.0303	167
214.0279	101
214.0502	61
216.0417	299
217.0258	470
218.0338	66
226.0239	101
242.0187	233
243.0532	246
259.0476	999
260.0534	88
