Mass spectrum: Amethopterin; LC-ESI-QTOF; MS2; 100 V
Name: Amethopterin
Class: Pharmaceutical
Formula: C20H22N8O5
Exact mass: 454.1713
SMILES: CN(Cc1cnc2nc(N)nc(N)c2n1)c3ccc(cc3)C(=O)NC(CCC(O)=O)C(O)=O
InChI: InChI=1S/C20H22N8O5/c1-28(9-11-8-23-17-15(24-11)16(21)26-20(22)27-17)12-4-2-10(3-5-12)18(31)25-13(19(32)33)6-7-14(29)30/h2-5,8,13H,6-7,9H2,1H3,(H,25,31)(H,29,30)(H,32,33)(H4,21,22,23,26,27)
Instrument: TripleTOF 5600 SCIEX
Instrument type: LC-ESI-QTOF
Ms type: MS2
Ion mode: POSITIVE
Collision energy: 100
Fragmentation mode: CID
Ionization: ESI
Column name: Zorbax Eclipse Plus C18 2.1 mm x 150 mm, 3.5 um, Agilent
Retention time: 5.057 min
Precursor m/z: 455.1786
Precursor type: [M+H]+
m/z	relative intensity
43.0289	101
54.034	40
65.0389	54
66.0211	40
67.0286	40
77.0122	40
77.0387	216
79.0294	168
79.054	236
80.0242	182
80.0364	67
91.0287	27
92.0223	33
94.0389	67
104.0231	27
105.0331	33
106.0403	789
106.0651	182
107.0478	114
108.0412	33
108.0555	67
118.0411	33
121.0509	242
131.0356	80
132.0429	74
133.0509	999
134.059	357
135.0556	33
146.0477	47
148.0616	249
149.0672	40
150.0737	60
158.0461	74
159.0534	134
160.0647	67
175.0716	472
176.0811	67
