Mass spectrum: Metalaxyl; LC-ESI-QTOF; MS2; 90 V
Name: Metalaxyl
Class: Fungicide
Formula: C15H21NO4
Exact mass: 279.1471
SMILES: CC1=C(C(=CC=C1)C)N(C(C)C(=O)OC)C(=O)COC
InChI: InChI=1S/C15H21NO4/c1-10-7-6-8-11(2)14(10)16(13(17)9-19-4)12(3)15(18)20-5/h6-8,12H,9H2,1-5H3
Instrument: TripleTOF 6600 SCIEX
Instrument type: LC-ESI-QTOF
Ms type: MS2
Ion mode: POSITIVE
Collision energy: 90
Fragmentation mode: CID
Ionization: ESI
Column name: Zorbax Eclipse Plus C18 2.1 mm x 150 mm, 3.5 um, Agilent
Retention time: 10.17 min
Precursor m/z: 280.1543
Precursor type: [M+H]+
m/z	relative intensity
39.0228	27
45.0335	409
50.0151	75
51.0228	226
53.0389	15
63.0225	23
65.0382	167
77.0384	927
78.0469	87
79.0541	302
89.0381	163
90.0462	183
91.054	593
93.0566	23
93.0707	23
102.0467	47
103.0543	294
104.0485	43
104.0604	19
105.0451	31
105.0699	206
106.0641	107
115.0534	258
116.0494	27
116.063	27
117.0574	999
118.065	159
119.0721	59
120.0807	75
127.0534	23
128.0488	31
128.0601	23
129.0583	23
130.0648	417
131.0719	43
132.0807	151
134.0606	43
134.0975	79
142.0643	31
143.0719	103
144.08	290
148.0762	27
