Mass spectrum: Hydroxytorasemide; LC-ESI-QTOF; MS2; 140 V
Name: Hydroxytorasemide
Class: Pharmaceutical; Transformation_product; Transformation_product-Metabolite
Formula: C16H20N4O4S
Exact mass: 364.1205
SMILES: CC(C)NC(=O)NS(=O)(=O)c1cnccc1Nc2cccc(c2)CO
InChI: InChI=1S/C16H20N4O4S/c1-11(2)18-16(22)20-25(23,24)15-9-17-7-6-14(15)19-13-5-3-4-12(8-13)10-21/h3-9,11,21H,10H2,1-2H3,(H,17,19)(H2,18,20,22)
Instrument: TripleTOF 5600 SCIEX
Instrument type: LC-ESI-QTOF
Ms type: MS2
Ion mode: NEGATIVE
Collision energy: 140
Fragmentation mode: CID
Ionization: ESI
Column name: Zorbax Eclipse Plus C18 2.1 mm x 150 mm, 3.5 um, Agilent
Retention time: 5.824 min
Precursor m/z: 363.1132
Precursor type: [M-H]-
m/z	relative intensity
42.0009	163
47.9693	327
48.9777	49
50.0061	65
57.9772	81
61.9717	442
63.9637	867
65.0159	147
66.0361	65
77.966	999
78.9731	98
90.034	49
91.0309	212
93.0458	753
107.0488	131
108.034	65
108.0566	98
165.0506	98
167.0629	98
178.0527	131
179.0603	65
180.0615	81
192.0558	49
