Mass spectrum: Acetaminophen; LC-ESI-QTOF; MS2; 30 V
Name: Acetaminophen
Class: Pharmaceutical
Formula: C8H9NO2
Exact mass: 151.0633
SMILES: CC(=O)NC1=CC=C(C=C1)O
InChI: InChI=1S/C8H9NO2/c1-6(10)9-7-2-4-8(11)5-3-7/h2-5,11H,1H3,(H,9,10)
Instrument: TripleTOF 5600 SCIEX
Instrument type: LC-ESI-QTOF
Ms type: MS2
Ion mode: POSITIVE
Collision energy: 30
Fragmentation mode: CID
Ionization: ESI
Column name: Zorbax Eclipse Plus C18 2.1 mm x 150 mm, 3.5 um, Agilent
Retention time: 5.022 min
Precursor m/z: 152.0706
Precursor type: [M+H]+
m/z	relative intensity
43.0262	133
43.0521	11
65.043	338
80.0522	10
82.0671	68
92.0507	211
93.0349	509
109.0524	27
110.0606	999
134.0584	16
152.0707	42
