Mass spectrum: L-Isoleucine; LC-ESI-QTOF; MS2; 60 V
Name: L-Isoleucine
Class: Food_additive; Personal_care_product
Formula: C6H13NO2
Exact mass: 131.0946
SMILES: CCC(C(C(O)=O)N)C
InChI: InChI=1S/C6H13NO2/c1-3-4(2)5(7)6(8)9/h4-5H,3,7H2,1-2H3,(H,8,9)
Instrument: TripleTOF 5600 SCIEX
Instrument type: LC-ESI-QTOF
Ms type: MS2
Ion mode: POSITIVE
Collision energy: 60
Fragmentation mode: CID
Ionization: ESI
Column name: Zorbax Eclipse Plus C18 2.1 mm x 150 mm, 3.5 um, Agilent
Retention time: 2.357 min
Precursor m/z: 132.1019
Precursor type: [M+H]+
m/z	relative intensity
35.9999	34
37.0074	119
38.0155	106
39.0237	705
41.039	442
42.0344	297
43.0185	102
43.0417	25
44.0499	535
44.9989	34
45.0344	195
53.0391	34
55.0196	17
55.0547	72
56.0501	999
57.0216	25
57.0351	17
57.0578	259
58.0653	114
59.0512	21
69.0341	34
69.0719	25
70.0655	85
