Mass spectrum: Dimethenamid; LC-ESI-QTOF; MS2; 150 V
Name: Dimethenamid
Class: Herbicide
Formula: C12H18ClNO2S
Exact mass: 275.0747
SMILES: CC1=CSC(=C1N(C(C)COC)C(=O)CCl)C
InChI: InChI=1S/C12H18ClNO2S/c1-8-7-17-10(3)12(8)14(11(15)5-13)9(2)6-16-4/h7,9H,5-6H2,1-4H3
Instrument: TripleTOF 6600 SCIEX
Instrument type: LC-ESI-QTOF
Ms type: MS2
Ion mode: POSITIVE
Collision energy: 150
Fragmentation mode: CID
Ionization: ESI
Column name: Zorbax Eclipse Plus C18 2.1 mm x 150 mm, 3.5 um, Agilent
Retention time: 11.971 min
Precursor m/z: 276.082
Precursor type: [M+H]+
m/z	relative intensity
36.0003	81
37.0077	366
38.0157	326
39.0235	999
41.039	183
43.9713	81
44.9799	733
46.9686	265
48.9843	693
49.0079	183
50.0159	468
51.0233	672
52.0313	101
53.0396	224
54.0349	81
57.9875	224
58.9955	468
59.9902	101
62.015	142
63.0234	142
65.039	305
68.98	489
70.9951	142
77.0385	183
78.034	142
80.0505	183
94.9951	122
97.0108	101
