Mass spectrum: Quinoxyfen; LC-ESI-QTOF; MS2; 40 V
Name: Quinoxyfen
Class: Fungicide
Formula: C15H8Cl2FNO
Exact mass: 306.9967
SMILES: C1=CC(=CC=C1OC2=C3C(=CC(=CC3=NC=C2)Cl)Cl)F
InChI: InChI=1S/C15H8Cl2FNO/c16-9-7-12(17)15-13(8-9)19-6-5-14(15)20-11-3-1-10(18)2-4-11/h1-8H
Instrument: TripleTOF 6600 SCIEX
Instrument type: LC-ESI-QTOF
Ms type: MS2
Ion mode: POSITIVE
Collision energy: 40
Fragmentation mode: CID
Ionization: ESI
Column name: Zorbax Eclipse Plus C18 2.1 mm x 150 mm, 3.5 um, Agilent
Retention time: 15.195 min
Precursor m/z: 308.004
Precursor type: [M+H]+
m/z	relative intensity
75.0216	23
95.028	48
122.9984	15
123.033	11
150.0092	67
162.0095	173
184.9784	26
196.9784	628
209.0609	24
210.0692	18
213.9813	324
225.0322	16
237.0578	59
244.0313	62
245.0393	91
253.0281	14
254.0363	10
272.027	314
280.0092	30
287.9971	20
308.0042	999
