Mass spectrum: N-Isopropyl-N'-phenyl-p-phenylenediamine; LC-ESI-QTOF; MS2; 50 V
Name: N-Isopropyl-N'-phenyl-p-phenylenediamine
Class: Industrial_process
Formula: C15H18N2
Exact mass: 226.147
SMILES: CC(C)Nc1ccc(cc1)Nc2ccccc2
InChI: InChI=1S/C15H18N2/c1-12(2)16-14-8-10-15(11-9-14)17-13-6-4-3-5-7-13/h3-12,16-17H,1-2H3
Instrument: TripleTOF 6600 SCIEX
Instrument type: LC-ESI-QTOF
Ms type: MS2
Ion mode: POSITIVE
Collision energy: 50
Fragmentation mode: CID
Ionization: ESI
Column name: Zorbax Eclipse Plus C18 2.1 mm x 150 mm, 3.5 um, Agilent
Retention time: 7.24 min
Precursor m/z: 227.1543
Precursor type: [M+H]+
m/z	relative intensity
65.0373	10
66.0453	26
77.0374	12
79.0407	10
80.0485	281
81.056	60
91.0398	16
93.056	88
105.0434	12
106.0513	29
107.0594	999
115.0524	11
117.0563	11
118.0511	103
129.0664	18
130.0639	39
139.0523	22
140.0485	15
143.0706	25
156.0785	77
166.0631	238
167.071	119
168.0762	58
169.0767	54
182.0818	92
183.0901	407
184.0984	672
