Mass spectrum: Progesterone; LC-ESI-QTOF; MS2; 30 V
Name: Progesterone
Class: Pharmaceutical
Formula: C21H30O2
Exact mass: 314.2246
SMILES: CC(=O)[C@H]1CC[C@H]2[C@@H]3CCC4=CC(=O)CC[C@]4(C)[C@H]3CC[C@]12C
InChI: InChI=1S/C21H30O2/c1-13(22)17-6-7-18-16-5-4-14-12-15(23)8-10-20(14,2)19(16)9-11-21(17,18)3/h12,16-19H,4-11H2,1-3H3/t16-,17+,18-,19-,20-,21+/m0/s1
Instrument: TripleTOF 5600 SCIEX
Instrument type: LC-ESI-QTOF
Ms type: MS2
Ion mode: POSITIVE
Collision energy: 30
Fragmentation mode: CID
Ionization: ESI
Column name: Zorbax Eclipse Plus C18 2.1 mm x 150 mm, 3.5 um, Agilent
Retention time: 13.796 min
Precursor m/z: 315.2319
Precursor type: [M+H]+
m/z	relative intensity
79.0571	35
81.0723	36
83.0516	30
85.0677	25
91.0547	13
93.0722	17
95.0868	28
97.0672	893
105.0697	21
107.0862	21
109.0664	999
109.1029	23
119.0851	30
121.1014	32
123.0807	92
131.0861	22
133.1006	31
135.116	21
137.095	19
145.1009	40
147.1168	37
149.1316	12
157.1008	20
159.1164	40
161.1321	26
163.1109	30
171.1171	30
173.1322	45
175.1476	14
177.1268	39
183.1149	12
185.1314	23
187.1473	26
189.1271	25
191.1424	15
197.1324	14
199.1475	18
201.1641	26
213.1629	26
215.1446	10
215.1796	33
223.147	18
227.178	20
229.1575	11
237.1649	12
239.1785	44
241.1575	18
245.1886	15
