Mass spectrum: Cybutryne; LC-ESI-QTOF; MS2; 50 V
Name: Cybutryne
Class: Antimicrobial; Herbicide
Formula: C11H19N5S
Exact mass: 253.1361
SMILES: CSc1nc(NC2CC2)nc(NC(C)(C)C)n1
InChI: InChI=1S/C11H19N5S/c1-11(2,3)16-9-13-8(12-7-5-6-7)14-10(15-9)17-4/h7H,5-6H2,1-4H3,(H2,12,13,14,15,16)
Instrument: TripleTOF 5600 SCIEX
Instrument type: LC-ESI-QTOF
Ms type: MS2
Ion mode: POSITIVE
Collision energy: 50
Fragmentation mode: CID
Ionization: ESI
Column name: Zorbax Eclipse Plus C18 2.1 mm x 150 mm, 3.5 um, Agilent
Retention time: 10.202 min
Precursor m/z: 254.1434
Precursor type: [M+H]+
m/z	relative intensity
43.0406	261
55.0348	39
56.055	578
57.0755	71
58.0714	71
68.0286	864
74.0091	943
81.047	190
83.063	999
85.0515	55
87.0281	63
91.034	594
99.0033	47
108.0556	935
114.0374	47
116.0283	261
125.0822	118
150.0762	71
156.0591	182
158.0526	39
168.0333	31
170.0526	47
182.0534	39
198.0813	174
