Mass spectrum: Oxibendazole; LC-ESI-QTOF; MS2; 70 V
Name: Oxibendazole
Class: Pharmaceutical
Formula: C12H15N3O3
Exact mass: 249.1113
SMILES: CCCOC1=CC2=C(C=C1)N=C(N2)NC(=O)OC
InChI: InChI=1S/C12H15N3O3/c1-3-6-18-8-4-5-9-10(7-8)14-11(13-9)15-12(16)17-2/h4-5,7H,3,6H2,1-2H3,(H2,13,14,15,16)
Instrument: TripleTOF 5600 SCIEX
Instrument type: LC-ESI-QTOF
Ms type: MS2
Ion mode: POSITIVE
Collision energy: 70
Fragmentation mode: CID
Ionization: ESI
Column name: Zorbax Eclipse Plus C18 2.1 mm x 150 mm, 3.5 um, Agilent
Retention time: 6.663 min
Precursor m/z: 250.1186
Precursor type: [M+H]+
m/z	relative intensity
39.0231	16
43.0297	74
50.0158	30
51.0233	90
52.0187	50
52.0306	40
53.0391	359
54.0348	13
63.0235	23
64.0181	20
65.0132	20
65.0267	40
66.021	16
66.0341	218
67.0422	40
68.0135	107
68.0498	16
69.0088	50
76.018	124
77.0259	20
78.0343	363
79.0191	37
79.0296	20
79.0421	252
80.0147	26
80.0499	686
81.0338	679
90.0351	13
92.0374	410
93.0085	185
93.0453	255
94.0301	40
94.0551	37
95.036	33
96.046	50
103.03	211
104.0381	20
105.0462	84
106.0296	679
107.0372	43
108.045	343
119.0482	242
120.057	174
121.0402	968
122.024	74
130.04	504
131.0263	144
131.0472	20
133.0398	164
134.0476	259
147.0433	164
148.0512	999
149.0334	37
149.0577	67
158.0354	87
159.0425	43
175.0383	100
176.046	329
