Mass spectrum: Alachlor; LC-ESI-QTOF; MS2; 80 V
Name: Alachlor
Class: Herbicide
Formula: C14H20ClNO2
Exact mass: 269.1183
SMILES: CCC1=C(C(=CC=C1)CC)N(COC)C(=O)CCl
InChI: InChI=1S/C14H20ClNO2/c1-4-11-7-6-8-12(5-2)14(11)16(10-18-3)13(17)9-15/h6-8H,4-5,9-10H2,1-3H3
Instrument: TripleTOF 6600 SCIEX
Instrument type: LC-ESI-QTOF
Ms type: MS2
Ion mode: POSITIVE
Collision energy: 80
Fragmentation mode: CID
Ionization: ESI
Column name: Zorbax Eclipse Plus C18 2.1 mm x 150 mm, 3.5 um, Agilent
Retention time: 13.233 min
Precursor m/z: 270.1255
Precursor type: [M+H]+
m/z	relative intensity
31.0168	186
39.0214	33
41.0378	42
45.0326	228
48.9825	186
65.0379	84
77.037	287
78.0454	42
79.0528	84
89.0375	110
90.0443	135
91.0526	355
93.0547	50
103.0513	110
104.0492	59
105.0669	169
106.0626	67
115.0522	262
116.0474	59
117.0548	999
118.0626	186
119.0709	59
120.0794	33
127.0538	59
128.0628	101
130.0632	338
131.0719	135
132.0789	567
133.0855	50
143.071	101
144.0787	42
146.0948	118
156.0774	50
