Mass spectrum: Phenylbutazone; LC-ESI-QTOF; MS2; 100 V
Name: Phenylbutazone
Class: Pharmaceutical
Formula: C19H20N2O2
Exact mass: 308.1525
SMILES: CCCCC1C(=O)N(N(C1=O)C2=CC=CC=C2)C3=CC=CC=C3
InChI: InChI=1S/C19H20N2O2/c1-2-3-14-17-18(22)20(15-10-6-4-7-11-15)21(19(17)23)16-12-8-5-9-13-16/h4-13,17H,2-3,14H2,1H3
Instrument: TripleTOF 5600 SCIEX
Instrument type: LC-ESI-QTOF
Ms type: MS2
Ion mode: POSITIVE
Collision energy: 100
Fragmentation mode: CID
Ionization: ESI
Column name: Zorbax Eclipse Plus C18 2.1 mm x 150 mm, 3.5 um, Agilent
Retention time: 13.103 min
Precursor m/z: 309.1598
Precursor type: [M+H]+
m/z	relative intensity
55.0292	29
64.0387	11
66.054	34
75.0316	12
77.0451	999
78.0444	36
79.0607	22
89.044	27
90.05	16
91.058	80
92.0537	117
93.0372	11
93.0611	71
94.069	79
104.0513	58
106.0682	19
115.0564	24
117.0583	29
118.067	45
127.0555	11
128.0554	24
130.0665	20
139.0547	16
140.0512	14
166.0657	12
167.0743	16
181.0753	38
205.0734	10
