Mass spectrum: Opipramol; LC-ESI-QTOF; MS2; 140 V
Name: Opipramol
Class: Pharmaceutical
Formula: C23H29N3O
Exact mass: 363.2311
SMILES: OCCN1CCN(CCCN2c3ccccc3C=Cc4ccccc24)CC1
InChI: InChI=1S/C23H29N3O/c27-19-18-25-16-14-24(15-17-25)12-5-13-26-22-8-3-1-6-20(22)10-11-21-7-2-4-9-23(21)26/h1-4,6-11,27H,5,12-19H2
Instrument: TripleTOF 5600 SCIEX
Instrument type: LC-ESI-QTOF
Ms type: MS2
Ion mode: POSITIVE
Collision energy: 140
Fragmentation mode: CID
Ionization: ESI
Column name: Zorbax Eclipse Plus C18 2.1 mm x 150 mm, 3.5 um, Agilent
Retention time: 7.242 min
Precursor m/z: 364.2383
Precursor type: [M+H]+
m/z	relative intensity
42.0418	245
44.0586	27
45.0401	74
51.0279	97
56.0545	78
56.0682	18
68.0547	46
69.0503	41
70.0681	78
70.0789	23
74.0183	55
75.025	166
77.0399	217
82.0686	37
83.0613	143
89.0394	69
97.0772	69
98.0169	23
98.085	27
99.0222	23
101.0387	69
102.0464	60
113.0394	23
115.0534	74
125.0392	46
126.0475	87
127.0538	83
128.061	69
137.0399	18
139.0538	101
140.0504	32
149.0393	41
150.0463	379
151.0548	666
152.0622	411
162.0466	18
163.0546	180
164.0496	18
164.0621	41
165.0715	50
166.0683	27
174.0482	32
175.0531	134
176.0625	999
177.0685	305
178.0769	222
188.0528	55
189.0564	32
190.0646	124
191.0721	60
201.0581	60
202.0648	189
203.0738	305
204.0792	235
