Mass spectrum: 2,4,6-Trichlorophenoxyacetic acid; LC-ESI-QTOF; MS2; 30 V
Name: 2,4,6-Trichlorophenoxyacetic acid
Formula: C8H5Cl3O3
Exact mass: 253.9304
SMILES: C1=C(C=C(C(=C1Cl)OCC(=O)O)Cl)Cl
InChI: InChI=1S/C8H5Cl3O3/c9-4-1-5(10)8(6(11)2-4)14-3-7(12)13/h1-2H,3H2,(H,12,13)
Instrument: TripleTOF 6600 SCIEX
Instrument type: LC-ESI-QTOF
Ms type: MS2
Ion mode: NEGATIVE
Collision energy: 30
Fragmentation mode: CID
Ionization: ESI
Column name: Zorbax Eclipse Plus C18 2.1 mm x 150 mm, 3.5 um, Agilent
Retention time: 10.749 min
Precursor m/z: 252.9231
Precursor type: [M-H]-
m/z	relative intensity
34.9689	11
194.9184	999
