Mass spectrum: Disperse Yellow 3; LC-ESI-QTOF; MS2; 60 V
Name: Disperse Yellow 3
Formula: C15H15N3O2
Exact mass: 269.1164
SMILES: CC1=CC(=C(C=C1)O)N=NC2=CC=C(C=C2)NC(=O)C
InChI: InChI=1S/C15H15N3O2/c1-10-3-8-15(20)14(9-10)18-17-13-6-4-12(5-7-13)16-11(2)19/h3-9,20H,1-2H3,(H,16,19)
Instrument: TripleTOF 6600 SCIEX
Instrument type: LC-ESI-QTOF
Ms type: MS2
Ion mode: POSITIVE
Collision energy: 60
Fragmentation mode: CID
Ionization: ESI
Column name: Zorbax Eclipse Plus C18 2.1 mm x 150 mm, 3.5 um, Agilent
Retention time: 12.171 min
Precursor m/z: 270.1237
Precursor type: [M+H]+
m/z	relative intensity
43.0172	18
53.038	26
63.0217	21
65.0374	35
67.04	10
77.0376	51
80.0488	784
81.0566	123
90.0333	32
92.049	17
94.0653	35
107.0599	999
108.0674	880
109.0513	10
