Mass spectrum: Bis(1,2,2,6,6-pentamethyl-4-piperidyl) sebacate; LC-ESI-QTOF; MS2; 40 V
Name: Bis(1,2,2,6,6-pentamethyl-4-piperidyl) sebacate
Class: Industrial_process
Formula: C30H56N2O4
Exact mass: 508.424
SMILES: CC1(CC(CC(N1C)(C)C)OC(=O)CCCCCCCCC(=O)OC2CC(N(C(C2)(C)C)C)(C)C)C
InChI: InChI=1S/C30H56N2O4/c1-27(2)19-23(20-28(3,4)31(27)9)35-25(33)17-15-13-11-12-14-16-18-26(34)36-24-21-29(5,6)32(10)30(7,8)22-24/h23-24H,11-22H2,1-10H3
Instrument: TripleTOF 5600 SCIEX
Instrument type: LC-ESI-QTOF
Ms type: MS2
Ion mode: POSITIVE
Collision energy: 40
Fragmentation mode: CID
Ionization: ESI
Column name: Zorbax Eclipse Plus C18 2.1 mm x 150 mm, 3.5 um, Agilent
Retention time: 6.48 min
Precursor m/z: 509.4313
Precursor type: [M+H]+
m/z	relative intensity
72.081	133
81.0699	11
98.0962	29
123.1166	46
154.1607	67
356.2782	104
478.3876	55
509.431	999
