Mass spectrum: Cocaethylene; LC-ESI-QTOF; MS2; 100 V
Name: Cocaethylene
Class: Metabolite
Formula: C18H23NO4
Exact mass: 317.1627
SMILES: CCOC(=O)C1C2CCC(N2C)CC1OC(=O)C3=CC=CC=C3
InChI: InChI=1S/C18H23NO4/c1-3-22-18(21)16-14-10-9-13(19(14)2)11-15(16)23-17(20)12-7-5-4-6-8-12/h4-8,13-16H,3,9-11H2,1-2H3
Instrument: TripleTOF 6600 SCIEX
Instrument type: LC-ESI-QTOF
Ms type: CID
Ion mode: POSITIVE
Collision energy: 100
Ionization: ESI
Column name: Zorbax Eclipse Plus C18 2.1 mm x 150 mm, 3.5 um, Agilent
Retention time: 7.013 min
Precursor m/z: 318.17
Precursor type: [M+H]+
m/z	relative intensity
38.0165	13
39.024	73
41.0397	75
42.0348	67
49.0079	26
50.0162	120
51.0242	538
53.0399	20
55.0185	23
55.0554	31
56.0502	20
65.0395	185
67.0429	217
67.0542	44
68.0504	133
77.0398	999
78.0348	26
79.0426	10
79.055	31
80.0506	54
81.0581	13
81.0696	13
82.0659	334
83.0485	15
83.074	15
91.0548	115
93.0574	20
94.0657	96
105.0449	28
106.0655	18
