Mass spectrum: (2-Carboxyethyl)triphenylphosphonium; LC-ESI-QTOF; MS2; 140 V
Name: (2-Carboxyethyl)triphenylphosphonium
Formula: [C21H20O2P]+
Exact mass: 335.1195
SMILES: C1=CC=C(C=C1)[P+](CCC(=O)O)(C2=CC=CC=C2)C3=CC=CC=C3
InChI: InChI=1S/C21H19O2P/c22-21(23)16-17-24(18-10-4-1-5-11-18,19-12-6-2-7-13-19)20-14-8-3-9-15-20/h1-15H,16-17H2/p+1
Instrument: TripleTOF 5600 SCIEX
Instrument type: LC-ESI-QTOF
Ms type: MS2
Ion mode: POSITIVE
Collision energy: 140
Fragmentation mode: CID
Ionization: ESI
Column name: Zorbax Eclipse Plus C18 2.1 mm x 150 mm, 3.5 um, Agilent
Retention time: 6.754 min
Precursor m/z: 335.1195
Precursor type: [M]+
m/z	relative intensity
56.9883	68
63.0221	129
65.037	88
74.0136	58
76.0297	66
77.0375	64
78.9722	54
79.9794	211
80.9871	306
87.0209	72
89.0368	314
102.0444	137
107.0028	999
113.037	131
115.0526	401
126.045	369
131.0035	161
133.0189	90
139.0531	310
150.046	290
151.0533	714
152.0611	849
155.0032	66
156.0114	135
157.0195	526
179.0033	68
180.0121	115
181.0191	502
183.0345	78
224.06	58
226.0775	92
