Mass spectrum: Diphenylphosphinamide; LC-ESI-QTOF; MS2; 130 V
Name: Diphenylphosphinamide
Formula: C12H12NOP
Exact mass: 217.0657
SMILES: C1=CC=C(C=C1)P(=O)(C2=CC=CC=C2)N
InChI: InChI=1S/C12H12NOP/c13-15(14,11-7-3-1-4-8-11)12-9-5-2-6-10-12/h1-10H,(H2,13,14)
Instrument: TripleTOF 5600 SCIEX
Instrument type: LC-ESI-QTOF
Ms type: MS2
Ion mode: POSITIVE
Collision energy: 130
Fragmentation mode: CID
Ionization: ESI
Column name: Zorbax Eclipse Plus C18 2.1 mm x 150 mm, 3.5 um, Agilent
Retention time: 7.411 min
Precursor m/z: 218.0729
Precursor type: [M+H]+
m/z	relative intensity
39.0232	22
45.9847	89
46.968	161
49.0075	195
50.0155	999
51.0234	859
62.015	27
63.0245	33
63.9956	22
67.9809	44
68.9891	22
73.0068	27
74.0158	111
75.0232	33
77.0389	61
150.0484	22
