Mass spectrum: 2,6-Dimethylquinoline; LC-ESI-QTOF; MS2; 110 V
Name: 2,6-Dimethylquinoline
Formula: C11H11N
Exact mass: 157.0891
SMILES: CC1=CC2=C(C=C1)N=C(C=C2)C
InChI: InChI=1S/C11H11N/c1-8-3-6-11-10(7-8)5-4-9(2)12-11/h3-7H,1-2H3
Instrument: TripleTOF 6600 SCIEX
Instrument type: LC-ESI-QTOF
Ms type: MS2
Ion mode: POSITIVE
Collision energy: 110
Fragmentation mode: CID
Ionization: ESI
Column name: Zorbax Eclipse Plus C18 2.1 mm x 150 mm, 3.5 um, Agilent
Retention time: 5.162 min
Precursor m/z: 158.0964
Precursor type: [M+H]+
m/z	relative intensity
35.9993	118
37.0071	529
38.0033	25
38.0148	329
39.0228	828
42.0338	18
49.0067	177
50.0147	999
51.0226	514
52.0179	40
59.9986	22
61.0069	344
62.0147	728
63.0224	584
64.0174	18
65.0375	51
73.0064	122
74.0144	684
75.0099	22
75.0226	125
76.0168	22
76.0304	22
77.0373	37
85.0065	48
86.014	85
87.0224	44
88.0176	22
88.0303	29
89.0375	70
97.0061	14
98.0135	48
99.0099	18
102.0464	14
113.0372	29
