Mass spectrum: Oxymetazoline; LC-ESI-QTOF; MS2; 120 V
Name: Oxymetazoline
Class: Pharmaceutical
Formula: C16H24N2O
Exact mass: 260.1889
SMILES: Cc1cc(c(c(c1CC2=NCCN2)C)O)C(C)(C)C
InChI: InChI=1S/C16H24N2O/c1-10-8-13(16(3,4)5)15(19)11(2)12(10)9-14-17-6-7-18-14/h8,19H,6-7,9H2,1-5H3,(H,17,18)
Instrument: TripleTOF 5600 SCIEX
Instrument type: LC-ESI-QTOF
Ms type: MS2
Ion mode: POSITIVE
Collision energy: 120
Fragmentation mode: CID
Ionization: ESI
Column name: Zorbax Eclipse Plus C18 2.1 mm x 150 mm, 3.5 um, Agilent
Retention time: 7.429 min
Precursor m/z: 261.1961
Precursor type: [M+H]+
m/z	relative intensity
43.0267	14
54.0401	16
55.0486	14
65.0432	433
74.0185	24
75.0256	44
76.0331	44
77.0419	999
77.0868	11
78.0494	150
79.0556	96
87.0261	11
89.0394	176
90.0481	16
91.0565	680
101.0395	27
102.0469	215
103.0547	158
105.0714	40
115.0548	747
116.0608	37
117.0567	22
117.0698	78
118.0662	13
126.0459	52
127.054	167
128.0479	11
128.0626	280
130.0646	22
131.0508	37
139.0547	20
140.0506	16
141.0699	44
143.0721	11
144.0559	16
145.0636	22
167.0749	11
