Mass spectrum: 4-Methoxycinnamaldehyde; LC-ESI-QTOF; MS2; 80 V
Name: 4-Methoxycinnamaldehyde
Formula: C10H10O2
Exact mass: 162.0681
SMILES: COC1=CC=C(C=C1)C=CC=O
InChI: InChI=1S/C10H10O2/c1-12-10-6-4-9(5-7-10)3-2-8-11/h2-8H,1H3
Instrument: TripleTOF 6600 SCIEX
Instrument type: LC-ESI-QTOF
Ms type: MS2
Ion mode: POSITIVE
Collision energy: 80
Fragmentation mode: CID
Ionization: ESI
Column name: Zorbax Eclipse Plus C18 2.1 mm x 150 mm, 3.5 um, Agilent
Retention time: 9.471 min
Precursor m/z: 163.0754
Precursor type: [M+H]+
m/z	relative intensity
37.0076	164
38.0153	134
39.023	834
50.0152	432
51.0228	715
52.0285	89
61.0072	74
62.015	164
63.0233	432
65.0391	999
66.0441	119
74.0153	89
76.0321	104
77.0387	208
78.0476	59
89.0408	104
91.055	656
92.0572	134
