Mass spectrum: Terfenadine; LC-ESI-QTOF; MS2; 140 V
Name: Terfenadine
Class: Pharmaceutical
Formula: C32H41NO2
Exact mass: 471.3137
SMILES: CC(C)(C)C1=CC=C(C=C1)C(CCCN2CCC(CC2)C(C3=CC=CC=C3)(C4=CC=CC=C4)O)O
InChI: InChI=1S/C32H41NO2/c1-31(2,3)26-18-16-25(17-19-26)30(34)15-10-22-33-23-20-29(21-24-33)32(35,27-11-6-4-7-12-27)28-13-8-5-9-14-28/h4-9,11-14,16-19,29-30,34-35H,10,15,20-24H2,1-3H3
Instrument: TripleTOF 6600 SCIEX
Instrument type: LC-ESI-QTOF
Ms type: MS2
Ion mode: POSITIVE
Collision energy: 140
Fragmentation mode: CID
Ionization: ESI
Column name: Zorbax Eclipse Plus C18 2.1 mm x 150 mm, 3.5 um, Agilent
Retention time: 10.223 min
Precursor m/z: 472.321
Precursor type: [M+H]+
m/z	relative intensity
37.0059	63
39.0213	265
41.0372	227
51.0211	63
57.0683	75
65.0364	316
68.047	50
77.0366	354
79.0518	101
80.0469	75
89.0361	88
91.0516	999
102.044	63
103.0528	75
105.0668	101
115.0516	834
116.0596	75
117.0673	316
126.043	50
127.052	189
128.0595	670
129.0677	113
141.0683	88
152.0595	151
165.0668	151
189.0679	113
201.0667	50
202.0753	316
203.0847	75
215.0831	113
