Mass spectrum: Cyproconazole; LC-ESI-QTOF; MS2; 100 V
Name: Cyproconazole
Class: Fungicide
Formula: C15H18ClN3O
Exact mass: 291.1138
SMILES: CC(C1CC1)C(CN2C=NC=N2)(C3=CC=C(C=C3)Cl)O
InChI: InChI=1S/C15H18ClN3O/c1-11(12-2-3-12)15(20,8-19-10-17-9-18-19)13-4-6-14(16)7-5-13/h4-7,9-12,20H,2-3,8H2,1H3
Instrument: TripleTOF 6600 SCIEX
Instrument type: LC-ESI-QTOF
Ms type: MS2
Ion mode: POSITIVE
Collision energy: 100
Fragmentation mode: CID
Ionization: ESI
Column name: Zorbax Eclipse Plus C18 2.1 mm x 150 mm, 3.5 um, Agilent
Retention time: 11.30515 min
Precursor m/z: 292.1211
Precursor type: [M+H]+
m/z	relative intensity
37.0039	11
38.0116	14
39.0194	83
41.0348	17
42.0175	12
43.0254	300
46.9639	10
48.9792	34
50.0102	18
51.0181	25
61.0014	24
62.0093	83
63.0173	330
64.0248	25
65.0325	43
70.0339	999
72.9771	231
74.0081	86
74.9927	21
75.0158	131
77.0318	22
84.9756	18
89.0305	701
90.0381	189
98.9904	299
110.9892	23
115.044	21
125.0035	138
128.0496	15
