Mass spectrum: 2,4-Dihydroxybenzophenone; LC-ESI-QTOF; MS2; 40 V
Name: 2,4-Dihydroxybenzophenone
Class: Personal_care_product
Formula: C13H10O3
Exact mass: 214.063
InChI: InChI=1S/C13H10O3/c14-10-6-7-11(12(15)8-10)13(16)9-4-2-1-3-5-9/h1-8,14-15H
Instrument: TripleTOF 5600 SCIEX
Instrument type: LC-ESI-QTOF
Ms type: CID
Ion mode: POSITIVE
Collision energy: 40
Ionization: ESI
Column name: Zorbax Eclipse Plus C18 2.1 mm x 150 mm, 3.5 um, Agilent
Retention time: 10.97 min
Precursor m/z: 215.0703
Precursor type: [M+H]+
m/z	relative intensity
51.0278	11
53.0439	30
69.0013	34
77.0423	265
78.044	12
81.0369	366
105.0345	153
109.029	89
137.0244	999
