Mass spectrum: Diazepam; LC-ESI-QTOF; MS2; 150 V
Name: Diazepam
Class: Pharmaceutical
Formula: C16H13ClN2O
Exact mass: 284.0716
SMILES: CN1C(=O)CN=C(C2=C1C=CC(=C2)Cl)C3=CC=CC=C3
InChI: InChI=1S/C16H13ClN2O/c1-19-14-8-7-12(17)9-13(14)16(18-10-15(19)20)11-5-3-2-4-6-11/h2-9H,10H2,1H3
Instrument: TripleTOF 6600 SCIEX
Instrument type: LC-ESI-QTOF
Ms type: MS2
Ion mode: POSITIVE
Collision energy: 150
Fragmentation mode: CID
Ionization: ESI
Column name: Zorbax Eclipse Plus C18 2.1 mm x 150 mm, 3.5 um, Agilent
Retention time: 11.181 min
Precursor m/z: 285.0789
Precursor type: [M+H]+
m/z	relative intensity
35.9989	38
37.0071	168
38.0147	149
39.0227	382
46.9678	28
48.9832	35
49.0064	93
50.0148	470
51.0226	519
52.0176	18
52.0307	14
59.9983	102
60.9831	13
61.0066	372
62.0146	563
63.0223	766
64.017	23
64.0301	27
65.0381	116
71.9991	16
72.9836	140
73.0061	268
74.0145	999
75.0217	457
76.0175	47
76.0299	105
77.0377	180
78.046	19
83.9755	11
83.9985	27
84.9824	22
85.0066	127
86.0141	246
87.0222	213
88.0176	29
88.0287	42
89.0381	534
90.0451	23
91.0528	18
97.007	51
98.0143	412
99.0096	561
100.0171	134
101.038	27
102.0342	14
102.0454	42
109.0057	55
110.0136	114
111.021	91
112.0181	13
113.0375	101
114.032	29
115.0544	79
122.0132	102
123.0078	18
123.0207	60
124.029	33
125.0381	68
126.0453	101
127.042	26
134.0156	17
136.0235	11
137.0381	60
138.0418	24
139.0528	69
140.0489	22
149.0379	85
150.0459	392
151.0519	128
152.0595	37
161.0372	108
162.0451	152
163.0533	290
164.0484	14
164.0594	18
165.0685	14
174.0455	24
175.0407	58
176.0493	46
177.0583	79
178.0632	11
188.0481	27
189.0589	12
190.0659	13
204.0585	12
