Mass spectrum: Prednisolone; LC-ESI-QTOF; MS2; 30 V
Name: Prednisolone
Class: Pharmaceutical
Formula: C21H28O5
Exact mass: 360.1937
SMILES: C[C@]12C[C@H](O)[C@H]3[C@@H](CCC4=CC(=O)C=C[C@]34C)[C@@H]1CC[C@]2(O)C(=O)CO
InChI: InChI=1S/C21H28O5/c1-19-7-5-13(23)9-12(19)3-4-14-15-6-8-21(26,17(25)11-22)20(15,2)10-16(24)18(14)19/h5,7,9,14-16,18,22,24,26H,3-4,6,8,10-11H2,1-2H3/t14-,15-,16-,18+,19-,20-,21-/m0/s1
Instrument: TripleTOF 5600 SCIEX
Instrument type: LC-ESI-QTOF
Ms type: MS2
Ion mode: POSITIVE
Collision energy: 30
Fragmentation mode: CID
Ionization: ESI
Column name: Zorbax Eclipse Plus C18 2.1 mm x 150 mm, 3.5 um, Agilent
Retention time: 8.432 min
Precursor m/z: 361.201
Precursor type: [M+H]+
m/z	relative intensity
79.0562	11
81.0726	27
91.0552	25
93.0712	58
95.0871	28
97.0639	20
101.0595	17
105.0696	36
107.0855	62
109.0637	15
109.1017	35
111.0792	23
117.0697	14
119.085	57
121.0648	275
121.0995	23
123.0794	17
125.058	11
129.0709	12
131.0843	43
132.0567	11
133.0644	44
133.1014	49
135.08	165
135.1132	12
137.0573	11
137.0945	25
139.0745	22
143.0848	23
145.0656	28
145.0997	47
147.0806	999
147.1139	15
149.0963	36
151.0739	35
155.0857	20
157.0631	11
157.1003	28
158.0715	19
159.0802	106
159.1155	22
161.0955	108
163.0759	65
163.1117	22
165.0912	73
169.1002	19
171.0808	536
171.1155	14
173.096	556
175.1109	33
177.0901	17
179.1064	12
181.1012	17
183.0802	11
185.096	89
187.0756	11
187.1126	63
191.1086	25
193.1014	15
195.0799	20
195.1188	17
196.0885	11
197.0964	116
199.111	113
201.1279	25
205.1021	23
207.1161	12
208.088	31
209.0952	81
209.129	22
210.1034	22
211.1121	108
212.1165	12
213.0894	22
213.1279	62
215.1054	17
217.1217	12
219.1143	22
221.0945	89
221.135	15
222.1059	15
223.1118	383
224.1189	25
225.1276	140
226.1372	28
227.1046	15
227.1417	39
231.1176	11
233.0957	19
234.1039	27
235.1114	58
236.1185	14
237.0932	20
237.1275	211
239.1427	266
241.159	57
245.1004	15
245.1303	14
247.1139	70
247.147	11
248.1196	27
249.1283	146
249.1601	33
250.1347	15
251.1064	15
251.1416	149
255.1335	14
259.1146	33
260.1206	58
261.1266	74
262.1327	12
263.1427	172
264.1485	36
265.1232	25
265.1579	251
266.1657	344
267.1375	9
267.1746	165
271.1487	17
273.1327	11
274.1357	122
276.1507	22
277.1596	175
279.1381	41
279.1745	234
281.1569	25
283.1699	27
285.1854	71
289.1583	355
292.1485	12
294.1603	19
295.1698	95
297.1472	15
297.1851	22
307.1698	304
313.1792	15
325.1797	165
343.1908	395
