Mass spectrum: N-desmethyl-venlafaxine; LC-ESI-QTOF; MS2; 110 V
Name: N-desmethyl-venlafaxine
Class: Pharmaceutical; Metabolite; Transformation_product-Metabolite
Formula: C16H25NO2
Exact mass: 263.1885
SMILES: CNCC(c1ccc(cc1)OC)C2(CCCCC2)O
InChI: InChI=1S/C16H25NO2/c1-17-12-15(16(18)10-4-3-5-11-16)13-6-8-14(19-2)9-7-13/h6-9,15,17-18H,3-5,10-12H2,1-2H3
Instrument: TripleTOF 5600 SCIEX
Instrument type: LC-ESI-QTOF
Ms type: MS2
Ion mode: POSITIVE
Collision energy: 110
Fragmentation mode: CID
Ionization: ESI
Column name: Zorbax Eclipse Plus C18 2.1 mm x 150 mm, 3.5 um, Agilent
Retention time: 6.444 min
Precursor m/z: 264.1958
Precursor type: [M+H]+
m/z	relative intensity
44.0589	861
51.028	290
52.0361	142
55.0585	25
63.0497	30
65.0424	412
75.0254	20
76.0337	35
76.0449	30
77.0408	861
78.0484	999
79.0566	96
89.0396	163
91.0556	387
102.048	76
103.0554	117
106.0422	20
107.0478	40
115.0537	397
121.0634	56
127.0526	45
128.0599	86
131.0466	30
