Mass spectrum: N-desmethylterbinafine; LC-ESI-QTOF; MS2; 20 V
Name: N-desmethylterbinafine
Class: Pharmaceutical; Metabolite
Formula: C20H23N
Exact mass: 277.183
SMILES: CC(C)(C)C#C/C=C/CNCc1cccc2ccccc12
InChI: InChI=1S/C20H23N/c1-20(2,3)14-7-4-8-15-21-16-18-12-9-11-17-10-5-6-13-19(17)18/h4-6,8-13,21H,15-16H2,1-3H3/b8-4+
Instrument: TripleTOF 5600 SCIEX
Instrument type: LC-ESI-QTOF
Ms type: MS2
Ion mode: POSITIVE
Collision energy: 20
Fragmentation mode: CID
Ionization: ESI
Column name: Zorbax Eclipse Plus C18 2.1 mm x 150 mm, 3.5 um, Agilent
Retention time: 9.089 min
Precursor m/z: 278.1903
Precursor type: [M+H]+
m/z	relative intensity
79.0567	11
91.057	13
93.0722	101
105.07	22
115.0551	10
141.071	999
205.1019	39
249.1633	12
261.165	15
278.1917	120
