Mass spectrum: Levocetirizine; LC-ESI-QTOF; MS2; 130 V
Name: Levocetirizine
Class: Pharmaceutical
Formula: C21H25ClN2O3
Exact mass: 388.1554
SMILES: C1CN(CCN1CCOCC(=O)O)[C@H](C2=CC=CC=C2)C3=CC=C(C=C3)Cl
InChI: InChI=1S/C21H25ClN2O3/c22-19-8-6-18(7-9-19)21(17-4-2-1-3-5-17)24-12-10-23(11-13-24)14-15-27-16-20(25)26/h1-9,21H,10-16H2,(H,25,26)/t21-/m1/s1
Instrument: TripleTOF 6600 SCIEX
Instrument type: LC-ESI-QTOF
Ms type: MS2
Ion mode: POSITIVE
Collision energy: 130
Fragmentation mode: CID
Ionization: ESI
Column name: Zorbax Eclipse Plus C18 2.1 mm x 150 mm, 3.5 um, Agilent
Retention time: 9.671 min
Precursor m/z: 389.1627
Precursor type: [M+H]+
m/z	relative intensity
63.0235	31
65.0392	17
72.9835	31
87.0231	14
89.0388	49
91.0547	14
99.0009	17
113.0391	31
114.0465	17
115.0545	279
137.0372	17
139.0551	272
162.0459	31
163.0552	386
164.0629	456
165.0703	999
