Mass spectrum: Metformin; LC-ESI-QTOF; MS2; 90 V
Name: Metformin
Class: Pharmaceutical
Formula: C4H11N5
Exact mass: 129.1014
SMILES: CN(C)C(=N)N=C(N)N
InChI: InChI=1S/C4H11N5/c1-9(2)4(7)8-3(5)6/h1-2H3,(H5,5,6,7,8)
Instrument: TripleTOF 6600 SCIEX
Instrument type: LC-ESI-QTOF
Ms type: MS2
Ion mode: POSITIVE
Collision energy: 90
Fragmentation mode: CID
Ionization: ESI
Column name: Zorbax Eclipse Plus C18 2.1 mm x 150 mm, 3.5 um, Agilent
Retention time: 1.521 min
Precursor m/z: 130.1087
Precursor type: [M+H]+
m/z	relative intensity
30.0332	21
41.0127	65
42.0204	65
42.0332	14
43.0287	999
44.0361	23
55.0283	263
56.0367	12
57.0439	27
68.0233	93
