Mass spectrum: Parathion-methyl; LC-ESI-QTOF; MS2; 80 V
Name: Parathion-methyl
Class: Insecticide
Formula: C8H10NO5PS
Exact mass: 263.0017
SMILES: COP(=S)(OC)OC1=CC=C(C=C1)[N+](=O)[O-]
InChI: InChI=1S/C8H10NO5PS/c1-12-15(16,13-2)14-8-5-3-7(4-6-8)9(10)11/h3-6H,1-2H3
Instrument: TripleTOF 6600 SCIEX
Instrument type: LC-ESI-QTOF
Ms type: MS2
Ion mode: POSITIVE
Collision energy: 80
Fragmentation mode: CID
Ionization: ESI
Column name: Zorbax Eclipse Plus C18 2.1 mm x 150 mm, 3.5 um, Agilent
Retention time: 12.495 min
Precursor m/z: 264.009
Precursor type: [M+H]+
m/z	relative intensity
44.9787	511
46.9673	261
46.9941	392
50.0137	273
61.0068	59
62.0154	107
62.9435	214
62.9982	95
63.0218	511
64.0296	59
65.0367	107
68.9771	225
69.9858	107
73.0065	71
74.0133	630
75.0214	999
76.0296	118
77.037	83
78.9936	225
81.9854	118
94.9939	95
108	356
125.9655	47
154.9683	95
