Mass spectrum: Tramadol-N-oxide; LC-ESI-QTOF; MS2; 30 V
Name: Tramadol-N-oxide
Class: Pharmaceutical
Formula: C16H25NO3
Exact mass: 279.1834
SMILES: [O-][N+](C)(C)C[C@H]2CCCC[C@]2(O)c1cc(OC)ccc1
InChI: InChI=1S/C16H25NO3/c1-17(2,19)12-14-7-4-5-10-16(14,18)13-8-6-9-15(11-13)20-3/h6,8-9,11,14,18H,4-5,7,10,12H2,1-3H3/t14-,16+/m1/s1
Instrument: TripleTOF 5600 SCIEX
Instrument type: LC-ESI-QTOF
Ms type: MS2
Ion mode: POSITIVE
Collision energy: 30
Fragmentation mode: CID
Ionization: ESI
Column name: Zorbax Eclipse Plus C18 2.1 mm x 150 mm, 3.5 um, Agilent
Retention time: 6.334 min
Precursor m/z: 280.1907
Precursor type: [M+H]+
m/z	relative intensity
58.0716	347
67.0588	9
74.0624	21
77.0414	37
79.056	11
81.0727	12
82.0675	16
84.0831	13
91.055	17
93.0709	21
95.0741	14
107.0489	112
108.0804	16
109.0647	21
110.0963	224
121.0646	173
135.0437	999
137.0578	15
144.057	14
145.0632	17
147.0799	49
158.0711	17
159.0803	179
160.0892	17
173.0955	49
191.1058	30
201.1267	294
262.1799	578
280.1903	135
