Mass spectrum: Amitriptyline; LC-ESI-QTOF; MS2; 40 V
Name: Amitriptyline
Class: Pharmaceutical
Formula: C20H23N
Exact mass: 277.183
SMILES: CN(C)CCC=C1C2=CC=CC=C2CCC3=CC=CC=C31
InChI: InChI=1S/C20H23N/c1-21(2)15-7-12-20-18-10-5-3-8-16(18)13-14-17-9-4-6-11-19(17)20/h3-6,8-12H,7,13-15H2,1-2H3
Instrument: TripleTOF 6600 SCIEX
Instrument type: LC-ESI-QTOF
Ms type: MS2
Ion mode: POSITIVE
Collision energy: 40
Fragmentation mode: CID
Ionization: ESI
Column name: Zorbax Eclipse Plus C18 2.1 mm x 150 mm, 3.5 um, Agilent
Retention time: 8.708 min
Precursor m/z: 278.1903
Precursor type: [M+H]+
m/z	relative intensity
58.065	58
65.0387	28
70.065	21
77.0388	47
79.0541	56
84.081	157
85.0884	11
91.0546	999
103.0541	67
105.0702	707
115.0543	205
117.0703	725
127.054	33
128.0619	54
129.0699	194
141.0699	77
153.0699	55
154.0777	24
155.0857	234
165.0704	41
178.0781	340
179.0858	217
189.0698	60
190.0781	119
191.0861	875
192.0938	93
193.1011	75
202.0782	104
203.0863	517
204.0937	250
205.1016	341
207.1171	16
215.0869	32
216.0937	28
217.1017	199
218.1098	473
231.1178	29
233.133	376
278.1911	162
