Mass spectrum: N-ethyl-4-menthane-3-carboxamide; LC-ESI-QTOF; MS2; 100 V
Name: N-ethyl-4-menthane-3-carboxamide
Class: Food_additive; Personal_care_product
Formula: C13H25NO
Exact mass: 211.1936
SMILES: CCNC(=O)C1CC(CCC1C(C)C)C
InChI: InChI=1S/C13H25NO/c1-5-14-13(15)12-8-10(4)6-7-11(12)9(2)3/h9-12H,5-8H2,1-4H3,(H,14,15)
Instrument: TripleTOF 6600 SCIEX
Instrument type: LC-ESI-QTOF
Ms type: MS2
Ion mode: POSITIVE
Collision energy: 100
Fragmentation mode: CID
Ionization: ESI
Column name: Zorbax Eclipse Plus C18 2.1 mm x 150 mm, 3.5 um, Agilent
Retention time: 11.775 min
Precursor m/z: 212.2009
Precursor type: [M+H]+
m/z	relative intensity
35.9989	41
37.0069	145
38.0023	67
38.0145	134
39.0226	620
40.0056	12
41.0384	194
42.034	44
43.0175	46
43.0532	12
44.0128	999
44.049	23
46.0283	20
49.0082	10
50.0147	33
51.0227	96
52.0047	20
53.0131	28
53.0383	119
54.0336	46
55.0172	108
55.0538	59
65.0382	41
67.0414	20
67.0532	20
77.0382	62
79.0535	23
80.048	12
91.0545	15
