Mass spectrum: Anagrelide; LC-ESI-QTOF; MS2; 60 V
Name: Anagrelide
Class: Pharmaceutical
Formula: C10H7Cl2N3O
Exact mass: 254.9966
SMILES: c1cc(c(c2c1NC3=NC(=O)CN3C2)Cl)Cl
InChI: InChI=1S/C10H7Cl2N3O/c11-6-1-2-7-5(9(6)12)3-15-4-8(16)14-10(15)13-7/h1-2H,3-4H2,(H,13,14,16)
Instrument: TripleTOF 5600 SCIEX
Instrument type: LC-ESI-QTOF
Ms type: MS2
Ion mode: POSITIVE
Collision energy: 60
Fragmentation mode: CID
Ionization: ESI
Column name: Zorbax Eclipse Plus C18 2.1 mm x 150 mm, 3.5 um, Agilent
Retention time: 7.666 min
Precursor m/z: 256.0039
Precursor type: [M+H]+
m/z	relative intensity
61.983	29
74.0176	29
75.025	35
89.0417	11
99.011	32
100.0184	471
102.0336	114
108.9834	190
111.0013	49
111.9935	11
122.9994	17
127.0282	49
128.0349	26
129.0443	158
130.0395	23
135.9945	688
136.0649	14
137.0023	556
137.0378	14
138.0105	70
144.9604	539
151.0177	152
156.9593	20
158.9635	14
163.0053	111
164.0024	339
171.9714	899
172.9648	120
196.9655	14
198.9825	999
