Mass spectrum: Dronabinol; LC-ESI-QTOF; MS2; 40 V
Name: Dronabinol
Class: Pharmaceutical
Formula: C21H30O2
Exact mass: 314.2246
SMILES: CCCCCC1=CC(=C2C3C=C(CCC3C(OC2=C1)(C)C)C)O
InChI: InChI=1S/C21H30O2/c1-5-6-7-8-15-12-18(22)20-16-11-14(2)9-10-17(16)21(3,4)23-19(20)13-15/h11-13,16-17,22H,5-10H2,1-4H3
Instrument: TripleTOF 6600 SCIEX
Instrument type: LC-ESI-QTOF
Ms type: MS2
Ion mode: POSITIVE
Collision energy: 40
Fragmentation mode: CID
Ionization: ESI
Column name: Zorbax Eclipse Plus C18 2.1 mm x 150 mm, 3.5 um, Agilent
Retention time: 17.589 min
Precursor m/z: 315.2319
Precursor type: [M+H]+
m/z	relative intensity
39.0222	30
41.0381	109
43.0536	97
55.0533	31
65.0383	21
67.053	116
69.0686	145
71.0844	19
77.0375	121
79.0528	139
81.069	333
83.0479	17
91.0533	156
93.0686	304
95.0484	48
95.0847	34
105.0685	84
107.0478	61
107.084	168
109.0629	61
109.1003	107
111.0426	40
117.0669	11
119.085	32
121.0637	79
121.1017	25
123.0428	768
123.1163	17
129.0698	11
131.085	21
133.0639	18
133.0986	16
135.0415	26
135.0779	19
135.115	130
136.0491	18
137.0593	117
143.0822	12
145.0647	13
145.0994	10
147.0411	16
147.0779	21
149.0588	19
149.0943	17
151.0738	35
157.1001	12
159.0787	25
160.0494	16
161.0582	48
161.0931	16
163.0741	31
165.0888	61
171.078	19
174.0669	31
175.0733	38
177.0908	30
177.1252	56
181.1216	35
185.0945	12
187.0737	18
188.0807	19
189.0889	24
193.1207	999
202.0988	12
205.1201	12
207.1366	74
217.1196	94
219.1355	19
221.1524	37
227.1395	10
231.1376	199
233.1526	83
235.1681	58
241.1598	25
245.1525	25
247.1691	60
259.1679	246
273.1831	12
315.2303	109
