Mass spectrum: Oseltamivir; LC-ESI-QTOF; MS2; 130 V
Name: Oseltamivir
Class: Pharmaceutical
Formula: C16H28N2O4
Exact mass: 312.2049
SMILES: CCC(CC)O[C@@H]1C=C(C[C@@H]([C@H]1/N=C(\C)/O)N)C(=O)OCC
InChI: InChI=1S/C16H28N2O4/c1-5-12(6-2)22-14-9-11(16(20)21-7-3)8-13(17)15(14)18-10(4)19/h9,12-15H,5-8,17H2,1-4H3,(H,18,19)/t13-,14+,15+/m0/s1
Instrument: TripleTOF 5600 SCIEX
Instrument type: LC-ESI-QTOF
Ms type: MS2
Ion mode: POSITIVE
Collision energy: 130
Fragmentation mode: CID
Ionization: ESI
Column name: Zorbax Eclipse Plus C18 2.1 mm x 150 mm, 3.5 um, Agilent
Retention time: 6.973 min
Precursor m/z: 313.2122
Precursor type: [M+H]+
m/z	relative intensity
41.0372	11
42.0417	14
43.0252	86
43.0391	11
53.0436	68
54.0396	29
65.0431	999
66.0498	149
67.0451	310
68.0525	20
75.0262	20
77.0411	426
78.0358	50
80.0517	429
81.0587	14
82.0669	41
91.0427	20
92.0503	235
93.0354	11
93.0585	161
94.0661	26
102.034	14
120.0419	17
