Mass spectrum: Diclofenac; LC-ESI-QTOF; MS2; 110 V
Name: Diclofenac
Class: Pharmaceutical
Formula: C14H11Cl2NO2
Exact mass: 295.0167
SMILES: OC(Cc1c(Nc2c(Cl)cccc2Cl)cccc1)=O
InChI: InChI=1S/C14H11Cl2NO2/c15-10-5-3-6-11(16)14(10)17-12-7-2-1-4-9(12)8-13(18)19/h1-7,17H,8H2,(H,18,19)
Instrument: TripleTOF 5600 SCIEX
Instrument type: LC-ESI-QTOF
Ms type: MS2
Ion mode: POSITIVE
Collision energy: 110
Fragmentation mode: CID
Ionization: ESI
Column name: Zorbax Eclipse Plus C18 2.1 mm x 150 mm, 3.5 um, Agilent
Retention time: 12.622 min
Precursor m/z: 296.024
Precursor type: [M+H]+
m/z	relative intensity
51.0289	29
74.0182	41
75.0251	70
76.0355	23
77.0411	130
98.0147	29
99.0231	76
100.0295	35
101.0398	59
102.0457	29
124.0302	41
125.0388	153
126.0455	159
127.0533	124
128.0544	41
139.0548	35
140.0514	29
149.039	112
150.0464	999
150.0874	29
151.0534	945
152.0567	348
153.0557	100
166.0648	23
176.0476	159
177.0568	638
178.064	461
179.0731	171
214.0398	29
