Mass spectrum: Fludioxonil; LC-ESI-QTOF; MS2; 60 V
Name: Fludioxonil
Class: Fungicide
Formula: C12H6F2N2O2
Exact mass: 248.0397
SMILES: c1cc(c2c(c1)OC(O2)(F)F)c3c[nH]cc3C#N
InChI: InChI=1S/C12H6F2N2O2/c13-12(14)17-10-3-1-2-8(11(10)18-12)9-6-16-5-7(9)4-15/h1-3,5-6,16H
Instrument: TripleTOF 6600 SCIEX
Instrument type: LC-ESI-QTOF
Ms type: MS2
Ion mode: NEGATIVE
Collision energy: 60
Fragmentation mode: CID
Ionization: ESI
Column name: Zorbax Eclipse Plus C18 2.1 mm x 150 mm, 3.5 um, Agilent
Retention time: 11.757 min
Precursor m/z: 247.0324
Precursor type: [M-H]-
m/z	relative intensity
49.0076	65
50.0033	847
64.0057	78
65.0134	164
65.9978	32
70.9929	92
73.0072	65
74.0031	72
88.018	46
89.0132	111
89.0388	151
98.0029	52
114.0342	46
115.0294	151
124.0179	78
126.0343	446
127.029	124
139.0303	59
140.0371	124
141.0449	262
151.0292	203
152.0374	999
153.0465	46
169.0392	348
180.0324	479
