Mass spectrum: 4,4-Chlorophenoxyphenol; LC-ESI-QTOF; MS2; 40 V
Name: 4,4-Chlorophenoxyphenol
Class: Herbicide
Formula: C12H9ClO2
Exact mass: 220.0291
SMILES: c1cc(ccc1O)Oc2ccc(cc2)Cl
InChI: InChI=1S/C12H9ClO2/c13-9-1-5-11(6-2-9)15-12-7-3-10(14)4-8-12/h1-8,14H
Instrument: TripleTOF 5600 SCIEX
Instrument type: LC-ESI-QTOF
Ms type: MS2
Ion mode: POSITIVE
Collision energy: 40
Fragmentation mode: CID
Ionization: ESI
Column name: Zorbax Eclipse Plus C18 2.1 mm x 150 mm, 3.5 um, Agilent
Retention time: 12.354 min
Precursor m/z: 221.0364
Precursor type: [M+H]+
m/z	relative intensity
55.0594	171
57.0753	171
67.0586	285
69.0769	171
72.9866	142
77.0415	428
79.057	399
81.0368	228
81.0734	371
91.0563	999
93.0706	228
94.0426	371
98.9991	199
105.0704	342
107.0512	171
107.084	313
109.0297	199
109.0643	142
110.0338	171
111.0812	570
115.0543	256
119.0842	313
121.0657	313
123.0798	114
127.0536	142
128.0031	171
128.0622	313
129.0685	342
131.0481	199
135.0777	171
137.0573	142
138.0665	171
139.0545	970
157.0637	513
158.0718	114
168.0588	770
185.0593	171
186.0677	970
221.0337	256
