Mass spectrum: Indigo; LC-ESI-QTOF; MS2; 10 V
Name: Indigo
Formula: C16H10N2O2
Exact mass: 262.0742
SMILES: C1=CC=C2C(=C1)C(=C(N2)C3=NC4=CC=CC=C4C3=O)O
InChI: InChI=1S/C16H10N2O2/c19-15-9-5-1-3-7-11(9)17-13(15)14-16(20)10-6-2-4-8-12(10)18-14/h1-8,17,19H
Instrument: TripleTOF X500R SCIEX
Instrument type: LC-ESI-QTOF
Ms type: MS2
Ion mode: POSITIVE
Collision energy: 10
Fragmentation mode: CID
Ionization: ESI
Column name: Zorbax Eclipse Plus C18 2.1 mm x 150 mm, 3.5 um, Agilent
Retention time: 11.892 min
Precursor m/z: 263.0815
Precursor type: [M+H]+
m/z	relative intensity
263.0813	999
