Mass spectrum: Benzohydroxamic acid; LC-ESI-QTOF; MS2; 30 V
Name: Benzohydroxamic acid
Class: Pharmaceutical
Formula: C7H7NO2
Exact mass: 137.0477
SMILES: C1=CC=C(C=C1)C(=O)NO
InChI: InChI=1S/C7H7NO2/c9-7(8-10)6-4-2-1-3-5-6/h1-5,10H,(H,8,9)
Instrument: TripleTOF 5600 SCIEX
Instrument type: LC-ESI-QTOF
Ms type: MS2
Ion mode: POSITIVE
Collision energy: 30
Fragmentation mode: CID
Ionization: ESI
Column name: Zorbax Eclipse Plus C18 2.1 mm x 150 mm, 3.5 um, Agilent
Retention time: 4.893 min
Precursor m/z: 138.055
Precursor type: [M+H]+
m/z	relative intensity
51.0234	141
65.0382	141
77.0385	999
79.0564	29
92.0493	89
105.0327	74
