Mass spectrum: Fenhexamid; LC-ESI-QTOF; MS2; 10 V
Name: Fenhexamid
Class: Fungicide
Formula: C14H17Cl2NO2
Exact mass: 301.0636
SMILES: CC1(CCCCC1)C(=O)Nc2ccc(c(c2Cl)Cl)O
InChI: InChI=1S/C14H17Cl2NO2/c1-14(7-3-2-4-8-14)13(19)17-9-5-6-10(18)12(16)11(9)15/h5-6,18H,2-4,7-8H2,1H3,(H,17,19)
Instrument: TripleTOF 6600 SCIEX
Instrument type: LC-ESI-QTOF
Ms type: MS2
Ion mode: NEGATIVE
Collision energy: 10
Fragmentation mode: CID
Ionization: ESI
Column name: Zorbax Eclipse Plus C18 2.1 mm x 150 mm, 3.5 um, Agilent
Retention time: 12.5 min
Precursor m/z: 300.0563
Precursor type: [M-H]-
m/z	relative intensity
300.0555	999
