Mass spectrum: Cyclopropyltriphenylphosphonium; LC-ESI-QTOF; MS2; 50 V
Name: Cyclopropyltriphenylphosphonium
Formula: [C21H20P]+
Exact mass: 303.1297
SMILES: C1CC1[P+](C2=CC=CC=C2)(C3=CC=CC=C3)C4=CC=CC=C4
InChI: InChI=1S/C21H20P/c1-4-10-18(11-5-1)22(21-16-17-21,19-12-6-2-7-13-19)20-14-8-3-9-15-20/h1-15,21H,16-17H2/q+1
Instrument: TripleTOF 6600 SCIEX
Instrument type: LC-ESI-QTOF
Ms type: MS2
Ion mode: POSITIVE
Collision energy: 50
Fragmentation mode: CID
Ionization: ESI
Column name: Zorbax Eclipse Plus C18 2.1 mm x 150 mm, 3.5 um, Agilent
Retention time: 7.786 min
Precursor m/z: 303.1297
Precursor type: [M]+
m/z	relative intensity
107.0067	119
108.0145	354
115.0562	94
133.022	58
183.0374	999
261.0818	296
262.0894	98
303.1277	585
