Mass spectrum: Acyclovir; LC-ESI-QTOF; MS2; 30 V
Name: Acyclovir
Class: Pharmaceutical
Formula: C8H11N5O3
Exact mass: 225.0862
SMILES: c1nc2c(n1COCCO)[nH]c(=N)nc2O
InChI: InChI=1S/C8H11N5O3/c9-8-11-6-5(7(15)12-8)10-3-13(6)4-16-2-1-14/h3,14H,1-2,4H2,(H3,9,11,12,15)
Instrument: TripleTOF 5600 SCIEX
Instrument type: LC-ESI-QTOF
Ms type: MS2
Ion mode: POSITIVE
Collision energy: 30
Fragmentation mode: CID
Ionization: ESI
Column name: Zorbax Eclipse Plus C18 2.1 mm x 150 mm, 3.5 um, Agilent
Retention time: 3.123 min
Precursor m/z: 226.0935
Precursor type: [M+H]+
m/z	relative intensity
45.0406	18
110.0353	52
122.0358	18
135.031	313
152.0575	999
164.0594	11
