Mass spectrum: Codeine; LC-ESI-QTOF; MS2; 30 V
Name: Codeine
Formula: C18H21NO3
Exact mass: 299.1521
SMILES: CN1CCC23C4C1CC5=C2C(=C(C=C5)OC)OC3C(C=C4)O
InChI: InChI=1S/C18H21NO3/c1-19-8-7-18-11-4-5-13(20)17(18)22-16-14(21-2)6-3-10(15(16)18)9-12(11)19/h3-6,11-13,17,20H,7-9H2,1-2H3
Instrument: TripleTOF 6600 SCIEX
Instrument type: LC-ESI-QTOF
Ms type: MS2
Ion mode: POSITIVE
Collision energy: 30
Fragmentation mode: CID
Ionization: ESI
Column name: Zorbax Eclipse Plus C18 2.1 mm x 150 mm, 3.5 um, Agilent
Retention time: 5.043 min
Precursor m/z: 300.1594
Precursor type: [M+H]+
m/z	relative intensity
183.0791	23
187.0736	12
193.0639	12
199.0749	25
215.1058	76
225.0899	38
241.0862	17
243.1011	56
282.1487	36
300.1598	999
