Mass spectrum: Olmesartan-d6; LC-ESI-QTOF; MS2; 140 V
Name: Olmesartan-d6
Class: Surrogate_standard
Formula: C24H20N6O3 2H6
Exact mass: 452.2443
SMILES: [2H]C([2H])([2H])C(C1=C(N(C(=N1)CCC)CC2=CC=C(C=C2)C3=CC=CC=C3C4=NNN=N4)C(=O)O)(C([2H])([2H])[2H])O
InChI: InChI=1S/C24H26N6O3/c1-4-7-19-25-21(24(2,3)33)20(23(31)32)30(19)14-15-10-12-16(13-11-15)17-8-5-6-9-18(17)22-26-28-29-27-22/h5-6,8-13,33H,4,7,14H2,1-3H3,(H,31,32)(H,26,27,28,29)/i2D3,3D3
Instrument: TripleTOF 5600 SCIEX
Instrument type: LC-ESI-QTOF
Ms type: CID
Ion mode: POSITIVE
Collision energy: 140
Ionization: ESI
Column name: Zorbax Eclipse Plus C18 2.1 mm x 150 mm, 3.5 um, Agilent
Retention time: 7.306 min
Precursor m/z: 453.2527
Precursor type: [M+H]+
m/z	relative intensity
63.0267	21
75.0276	20
77.0425	87
78.0362	12
85.0093	12
86.0201	21
87.0253	43
88.0304	23
89.0402	70
98.0152	38
99.0246	30
100.0293	16
101.0404	47
102.0482	50
110.0161	12
111.0255	20
113.0396	123
114.0336	29
114.0468	50
115.0548	123
116.0524	13
123.0227	13
125.04	90
126.0476	167
127.055	153
128.0622	98
137.0396	109
138.0463	92
139.0547	189
140.0521	258
141.0564	16
149.0387	50
150.0472	518
151.0549	999
152.0624	983
153.0658	126
154.0652	13
155.0607	12
161.0394	60
162.0473	172
163.0541	700
164.053	500
165.069	178
166.0676	29
174.0522	12
175.0523	49
176.063	501
177.0606	317
178.0679	294
179.0688	67
180.0796	13
187.0415	12
188.0499	201
189.0588	124
189.0806	10
190.0653	574
191.0691	64
192.0684	24
203.0635	18
204.0621	27
205.0755	132
206.0793	16
