Mass spectrum: Amido Black 10B; LC-ESI-QTOF; MS2; 30 V
Name: Amido Black 10B
Formula: C22H16N6O9S2
Exact mass: 572.042
SMILES: C1=CC=C(C=C1)N=NC2=C(C3=C(C(=C(C=C3C=C2S(=O)(=O)O)S(=O)(=O)O)N=NC4=CC=C(C=C4)[N+](=O)[O-])N)O
InChI: InChI=1S/C22H16N6O9S2/c23-19-18-12(11-17(39(35,36)37)21(22(18)29)27-24-13-4-2-1-3-5-13)10-16(38(32,33)34)20(19)26-25-14-6-8-15(9-7-14)28(30)31/h1-11,29H,23H2,(H,32,33,34)(H,35,36,37)
Instrument: TripleTOF 6600 SCIEX
Instrument type: LC-ESI-QTOF
Ms type: MS2
Ion mode: NEGATIVE
Collision energy: 30
Fragmentation mode: CID
Ionization: ESI
Column name: Zorbax Eclipse Plus C18 2.1 mm x 150 mm, 3.5 um, Agilent
Retention time: 9.552 min
Precursor m/z: 285.0137
Precursor type: [M-2H]2-
m/z	relative intensity
45.9929	14
63.9614	8
79.9569	598
80.9647	311
92.0497	37
109.9969	93
122.0231	13
123.9942	143
125.4942	10
127.0288	9
130.4919	11
131.488	16
131.9916	40
136.027	23
137.0345	44
138.0188	36
138.4888	17
139.0291	46
140.0372	32
142.0282	23
143.0253	5
150.4662	6
154.0261	23
155.0235	32
156.0094	7
156.0317	65
157.4743	13
159.0302	5
163.0041	4
163.4573	6
163.9729	999
164.472	10
167.0236	124
168.0311	51
169.0033	15
170.0074	136
170.471	11
170.5056	5
170.9738	17
171.0199	20
171.4777	4
172.0251	6
177.976	91
178.0043	26
180.0182	17
181.0265	14
182.0112	24
182.0337	7
183.0192	115
184.0264	58
184.9786	4
186.0024	7
187.0254	4
187.4865	4
194.4828	4
194.9965	20
196.0142	45
197.0213	4
198.0302	9
199.0126	15
200.0216	6
201.4833	7
205.9906	5
206.9988	20
210.4833	12
211.0248	21
215.9903	12
217.9825	14
218.0586	4
219.993	67
221.9866	8
222.9927	240
230.0603	12
231.0657	12
231.9842	16
232.0615	5
233.0466	4
233.9846	18
234.9917	99
235.9877	44
237.9773	10
238.9872	38
242.0473	5
245.9731	5
246.0535	6
246.9803	643
247.9877	105
248.0542	8
248.9931	5
249.065	13
249.9866	8
250.9867	76
258.0403	10
259.0493	17
259.0715	16
259.9752	58
260.0569	47
260.9828	42
261.0525	5
262.0587	12
262.9748	43
263.0446	25
263.9828	68
264.0511	5
264.989	16
265.0603	6
271.0599	5
272.0687	13
275.043	22
275.0656	7
276.0532	32
277.063	39
278.054	12
279.0414	13
281.0557	20
285.0385	5
286.0471	19
287.0536	15
288.0413	38
289.0461	27
290.0563	30
291.0498	12
292.0475	14
293.0617	19
299.0228	6
301.9412	6
304.0355	8
305.0403	12
305.0619	5
306.0501	257
307.0453	22
309.0533	17
310.0165	83
311.02	11
312.0225	7
316.0448	4
317.0514	10
318.0613	44
321.0606	25
322.0543	9
324.0191	14
325.0205	4
326.0111	4
327.0222	13
328.0145	15
328.9505	5
329.0229	4
332.0408	25
334.0559	198
337.0571	6
339.0276	22
340.0196	181
341.0067	16
342.0139	4
345.0157	33
352.022	5
353.991	4
355.0157	5
356.0088	41
357.015	37
358.0117	4
368.0201	44
370.0121	32
371.0017	7
372.0091	7
373.0212	44
383.006	29
385.0206	44
386.015	36
387.0007	6
397.0087	12
398.0149	47
399.0098	5
401.0164	136
414.012	26
417.0106	9
418.9847	19
431.9777	13
464.9768	7
