Mass spectrum: Trazodone; LC-ESI-QTOF; MS2; 20 V
Name: Trazodone
Class: Pharmaceutical
Formula: C19H22ClN5O
Exact mass: 371.1513
SMILES: C1CN(CCN1CCCN2C(=O)N3C=CC=CC3=N2)C4=CC(=CC=C4)Cl
InChI: InChI=1S/C19H22ClN5O/c20-16-5-3-6-17(15-16)23-13-11-22(12-14-23)8-4-10-25-19(26)24-9-2-1-7-18(24)21-25/h1-3,5-7,9,15H,4,8,10-14H2
Instrument: TripleTOF 6600 SCIEX
Instrument type: LC-ESI-QTOF
Ms type: MS2
Ion mode: POSITIVE
Collision energy: 20
Fragmentation mode: CID
Ionization: ESI
Column name: Zorbax Eclipse Plus C18 2.1 mm x 150 mm, 3.5 um, Agilent
Retention time: 7.095 min
Precursor m/z: 372.1586
Precursor type: [M+H]+
m/z	relative intensity
176.0803	45
372.1672	999
