Mass spectrum: 3-Desmethyl-trimethoprim; LC-ESI-QTOF; MS2; 30 V
Name: 3-Desmethyl-trimethoprim
Class: Pharmaceutical; Transformation_product
Formula: C13H16N4O3
Exact mass: 276.1222
SMILES: OC1=CC(CC2=CN=C(N=C2N)N)=CC(OC)=C1OC
InChI: InChI=1S/C13H16N4O3/c1-19-10-5-7(4-9(18)11(10)20-2)3-8-6-16-13(15)17-12(8)14/h4-6,18H,3H2,1-2H3,(H4,14,15,16,17)
Instrument: TripleTOF 5600 SCIEX
Instrument type: LC-ESI-QTOF
Ms type: MS2
Ion mode: POSITIVE
Collision energy: 30
Fragmentation mode: CID
Ionization: ESI
Column name: Zorbax Eclipse Plus C18 2.1 mm x 150 mm, 3.5 um, Agilent
Retention time: 5.021 min
Precursor m/z: 277.1295
Precursor type: [M+H]+
m/z	relative intensity
81.0485	13
123.0674	182
167.0701	39
173.0824	10
187.0978	45
188.1057	52
215.0917	26
216.1004	195
219.0879	61
227.093	24
229.0747	12
231.0876	25
232.0952	77
233.103	207
243.088	56
244.0945	171
245.1032	52
247.0827	104
261.0982	999
262.106	755
277.1294	765
