Mass spectrum: (Benzyloxycarbonylmethyl)triphenylphosphonium; LC-ESI-QTOF; MS2; 120 V
Name: (Benzyloxycarbonylmethyl)triphenylphosphonium
Formula: [C27H24O2P]+
Exact mass: 411.1508
SMILES: C1=CC=C(C=C1)COC(=O)C[P+](C2=CC=CC=C2)(C3=CC=CC=C3)C4=CC=CC=C4
InChI: InChI=1S/C27H24O2P/c28-27(29-21-23-13-5-1-6-14-23)22-30(24-15-7-2-8-16-24,25-17-9-3-10-18-25)26-19-11-4-12-20-26/h1-20H,21-22H2/q+1
Instrument: TripleTOF 6600 SCIEX
Instrument type: LC-ESI-QTOF
Ms type: MS2
Ion mode: POSITIVE
Collision energy: 120
Fragmentation mode: CID
Ionization: ESI
Column name: Zorbax Eclipse Plus C18 2.1 mm x 150 mm, 3.5 um, Agilent
Retention time: 9.196 min
Precursor m/z: 411.1508
Precursor type: [M]+
m/z	relative intensity
39.0221	53
65.0365	303
91.0509	279
115.0507	103
139.0512	104
152.0598	521
157.0175	253
181.0181	114
183.0339	999
215.0832	57
226.0753	171
228.0915	77
233.0486	54
257.0493	439
259.065	153
