Mass spectrum: N,N-didesmethyl-venlafaxine; LC-ESI-QTOF; MS2; 40 V
Name: N,N-didesmethyl-venlafaxine
Class: Pharmaceutical; Transformation_product; Transformation_product-Metabolite
Formula: C15H23NO2
Exact mass: 249.1729
SMILES: COC1=CC=C(C=C1)C(CN)C2(CCCCC2)O
InChI: InChI=1S/C15H23NO2/c1-18-13-7-5-12(6-8-13)14(11-16)15(17)9-3-2-4-10-15/h5-8,14,17H,2-4,9-11,16H2,1H3
Instrument: TripleTOF 5600 SCIEX
Instrument type: LC-ESI-QTOF
Ms type: MS2
Ion mode: POSITIVE
Collision energy: 40
Fragmentation mode: CID
Ionization: ESI
Column name: Zorbax Eclipse Plus C18 2.1 mm x 150 mm, 3.5 um, Agilent
Retention time: 6.316 min
Precursor m/z: 250.1802
Precursor type: [M+H]+
m/z	relative intensity
67.058	19
77.0418	76
78.0494	38
79.0565	65
81.0704	46
91.055	349
91.092	26
93.0724	23
105.0714	23
107.0473	30
107.0832	19
115.0532	73
116.0606	19
117.068	46
119.0864	15
121.0643	999
128.0617	34
131.0474	34
132.0565	69
135.0786	57
141.0703	26
144.0574	34
145.0614	19
147.0801	403
158.0727	53
159.079	142
173.0951	161
183.1173	19
203.1396	15
215.1411	195
