Mass spectrum: Propaquizafop; LC-ESI-QTOF; MS2; 30 V
Name: Propaquizafop
Class: Herbicide
Formula: C22H22ClN3O5
Exact mass: 443.1248
SMILES: CC(Oc1ccc(Oc2cnc3cc(Cl)ccc3n2)cc1)C(=O)OCCON=C(C)C
InChI: InChI=1S/C22H22ClN3O5/c1-14(2)26-29-11-10-28-22(27)15(3)30-17-5-7-18(8-6-17)31-21-13-24-20-12-16(23)4-9-19(20)25-21/h4-9,12-13,15H,10-11H2,1-3H3
Instrument: TripleTOF 6600 SCIEX
Instrument type: LC-ESI-QTOF
Ms type: MS2
Ion mode: POSITIVE
Collision energy: 30
Fragmentation mode: CID
Ionization: ESI
Column name: Zorbax Eclipse Plus C18 2.1 mm x 150 mm, 3.5 um, Agilent
Retention time: 15.307 min
Precursor m/z: 444.1321
Precursor type: [M+H]+
m/z	relative intensity
56.0495	163
70.0649	146
91.0537	29
99.0433	26
100.0757	898
118.0852	23
119.0494	12
144.1015	15
191.0701	26
192.0783	28
236.0939	15
243.0322	23
243.0677	27
255.0356	13
271.0276	44
271.0627	109
281.0475	22
283.0625	19
285.0412	13
299.0592	999
327.0535	387
371.0799	297
444.1348	10
