Mass spectrum: Dimethyldioctylammonium; LC-ESI-QTOF; MS2; 10 V
Name: Dimethyldioctylammonium
Class: Antimicrobial
Formula: [C18H40N]+
Exact mass: 270.3155
SMILES: CCCCCCCC[N+](C)(C)CCCCCCCC
InChI: InChI=1S/C18H40N/c1-5-7-9-11-13-15-17-19(3,4)18-16-14-12-10-8-6-2/h5-18H2,1-4H3/q+1
Instrument: TripleTOF 6600 SCIEX
Instrument type: LC-ESI-QTOF
Ms type: MS2
Ion mode: POSITIVE
Collision energy: 10
Fragmentation mode: CID
Ionization: ESI
Column name: Zorbax Eclipse Plus C18 2.1 mm x 150 mm, 3.5 um, Agilent
Retention time: 11.669 min
Precursor m/z: 270.3155
Precursor type: [M]+
m/z	relative intensity
270.3166	999
