Mass spectrum: Tryptamine; LC-ESI-QTOF; MS2; 70 V
Name: Tryptamine
Class: Metabolite
Formula: C10H12N2
Exact mass: 160.1
SMILES: C1=CC=C2C(=C1)C(=CN2)CCN
InChI: InChI=1S/C10H12N2/c11-6-5-8-7-12-10-4-2-1-3-9(8)10/h1-4,7,12H,5-6,11H2
Instrument: TripleTOF 5600 SCIEX
Instrument type: LC-ESI-QTOF
Ms type: MS2
Ion mode: POSITIVE
Collision energy: 70
Fragmentation mode: CID
Ionization: ESI
Column name: Zorbax Eclipse Plus C18 2.1 mm x 150 mm, 3.5 um, Agilent
Retention time: 4.966 min
Precursor m/z: 161.1073
Precursor type: [M+H]+
m/z	relative intensity
39.0231	63
50.0155	57
51.0229	149
61.0076	28
62.0151	80
63.0229	223
64.0311	57
65.0391	264
74.0148	57
75.0229	91
76.0334	40
77.0386	235
89.0388	999
90.0467	241
91.0546	235
101.0395	28
102.0446	51
114.0467	57
115.0546	740
116.0519	45
117.0586	132
126.047	40
128.0516	40
140.0486	40
141.0578	40
142.0643	40
