Mass spectrum: 3-Hydroxyacetaminophen; LC-ESI-QTOF; MS2; 110 V
Name: 3-Hydroxyacetaminophen
Class: Pharmaceutical; Transformation_product
Formula: C8H9NO3
Exact mass: 167.0582
SMILES: CC(=O)Nc1ccc(O)c(O)c1
InChI: InChI=1S/C8H9NO3/c1-5(10)9-6-2-3-7(11)8(12)4-6/h2-4,11-12H,1H3,(H,9,10)
Instrument: TripleTOF 5600 SCIEX
Instrument type: LC-ESI-QTOF
Ms type: MS2
Ion mode: POSITIVE
Collision energy: 110
Fragmentation mode: CID
Ionization: ESI
Column name: Zorbax Eclipse Plus C18 2.1 mm x 150 mm, 3.5 um, Agilent
Retention time: 4.471 min
Precursor m/z: 168.0655
Precursor type: [M+H]+
m/z	relative intensity
40.0261	32
42.0432	36
43.0278	999
43.0541	29
44.02	49
52.0259	188
53.0077	26
53.0446	283
54.0388	136
55.0228	84
60.0034	40
61.0453	16
62.0509	10
65.0294	16
78.0351	18
80.0516	67
