Mass spectrum: O-Desmethyl amisulpride; LC-ESI-QTOF; MS2; 120 V
Name: O-Desmethyl amisulpride
Class: Pharmaceutical; Transformation_product
Formula: C16H25N3O4S
Exact mass: 355.1566
SMILES: CCN1CCCC1CNC(=O)c2cc(c(cc2O)N)S(=O)(=O)CC
InChI: InChI=1S/C16H25N3O4S/c1-3-19-7-5-6-11(19)10-18-16(21)12-8-15(24(22,23)4-2)13(17)9-14(12)20/h8-9,11,20H,3-7,10,17H2,1-2H3,(H,18,21)
Instrument: TripleTOF 5600 SCIEX
Instrument type: LC-ESI-QTOF
Ms type: MS2
Ion mode: NEGATIVE
Collision energy: 120
Fragmentation mode: CID
Ionization: ESI
Column name: Zorbax Eclipse Plus C18 2.1 mm x 150 mm, 3.5 um, Agilent
Retention time: 5.619 min
Precursor m/z: 354.1493
Precursor type: [M-H]-
m/z	relative intensity
40.0295	46
41.0066	999
41.0246	61
42.0026	245
50.0063	630
63.9638	276
65.0036	245
65.999	952
90.0349	691
91.0208	184
92.0149	814
