Mass spectrum: Azathioprine; LC-ESI-QTOF; MS2; 110 V
Name: Azathioprine
Class: Pharmaceutical
Formula: C9H7N7O2S
Exact mass: 277.0382
SMILES: Cn1cnc(c1Sc2ncnc3nc[nH]c23)[N+]([O-])=O
InChI: InChI=1S/C9H7N7O2S/c1-15-4-14-7(16(17)18)9(15)19-8-5-6(11-2-10-5)12-3-13-8/h2-4H,1H3,(H,10,11,12,13)
Instrument: TripleTOF 5600 SCIEX
Instrument type: LC-ESI-QTOF
Ms type: MS2
Ion mode: NEGATIVE
Collision energy: 110
Fragmentation mode: CID
Ionization: ESI
Column name: Zorbax Eclipse Plus C18 2.1 mm x 150 mm, 3.5 um, Agilent
Retention time: 5.367 min
Precursor m/z: 276.0309
Precursor type: [M-H]-
m/z	relative intensity
42.0022	107
45.9973	597
56.9824	53
57.9772	365
64.0096	107
65.0165	53
66.0117	53
67.0322	107
69.9766	169
81.9759	62
85.9715	169
90.0109	999
111.0023	294
117.021	169
