Mass spectrum: Nicosulfuron; LC-ESI-QTOF; MS2; 60 V
Name: Nicosulfuron
Class: Herbicide
Formula: C15H18N6O6S
Exact mass: 410.1009
SMILES: CN(C)C(=O)C1=C(N=CC=C1)S(=O)(=O)NC(=O)NC2=NC(=CC(=N2)OC)OC
InChI: InChI=1S/C15H18N6O6S/c1-21(2)13(22)9-6-5-7-16-12(9)28(24,25)20-15(23)19-14-17-10(26-3)8-11(18-14)27-4/h5-8H,1-4H3,(H2,17,18,19,20,23)
Instrument: TripleTOF 6600 SCIEX
Instrument type: LC-ESI-QTOF
Ms type: MS2
Ion mode: POSITIVE
Collision energy: 60
Fragmentation mode: CID
Ionization: ESI
Column name: Zorbax Eclipse Plus C18 2.1 mm x 150 mm, 3.5 um, Agilent
Retention time: 8.499 min
Precursor m/z: 411.1081
Precursor type: [M+H]+
m/z	relative intensity
51.0203	21
57.0429	11
68.0101	12
68.994	28
71.0574	47
78.0311	704
81.0415	18
82.0254	38
83.0213	785
91.0251	16
92.0467	34
93.0054	54
100.036	100
106.0262	990
109.0369	27
119.021	20
124.0469	24
138.0262	11
139.0477	999
140.0436	12
141.0518	14
156.074	103
160.0472	15
166.0209	10
167.0307	13
182.0539	749
213.0305	17
