Mass spectrum: Dinoterb; LC-ESI-QTOF; MS2; 30 V
Name: Dinoterb
Class: Herbicide
Formula: C10H12N2O5
Exact mass: 240.0746
SMILES: CC(C)(C)C1=C(C(=CC(=C1)[N+](=O)[O-])[N+](=O)[O-])O
InChI: InChI=1S/C10H12N2O5/c1-10(2,3)7-4-6(11(14)15)5-8(9(7)13)12(16)17/h4-5,13H,1-3H3
Instrument: TripleTOF 6600 SCIEX
Instrument type: LC-ESI-QTOF
Ms type: MS2
Ion mode: NEGATIVE
Collision energy: 30
Fragmentation mode: CID
Ionization: ESI
Column name: Zorbax Eclipse Plus C18 2.1 mm x 150 mm, 3.5 um, Agilent
Retention time: 13.854 min
Precursor m/z: 239.0673
Precursor type: [M-H]-
m/z	relative intensity
107.0834	11
123.0295	20
149.045	15
150.0534	23
151.0244	16
151.0736	54
164.0691	18
176.0323	30
177.04	55
178.048	29
179.0684	65
193.0708	30
194.0426	48
207.0383	705
208.0584	25
209.0657	62
224.0406	41
239.0641	999
