Mass spectrum: L-Thyronine; LC-ESI-QTOF; MS2; 110 V
Name: L-Thyronine
Class: Pharmaceutical
Formula: C15H15NO4
Exact mass: 273.1001
SMILES: N[C@@H](Cc1ccc(Oc2ccc(O)cc2)cc1)C(O)=O
InChI: InChI=1S/C15H15NO4/c16-14(15(18)19)9-10-1-5-12(6-2-10)20-13-7-3-11(17)4-8-13/h1-8,14,17H,9,16H2,(H,18,19)/t14-/m0/s1
Instrument: TripleTOF 5600 SCIEX
Instrument type: LC-ESI-QTOF
Ms type: MS2
Ion mode: POSITIVE
Collision energy: 110
Fragmentation mode: CID
Ionization: ESI
Column name: Zorbax Eclipse Plus C18 2.1 mm x 150 mm, 3.5 um, Agilent
Retention time: 5.619 min
Precursor m/z: 274.1074
Precursor type: [M+H]+
m/z	relative intensity
37.008	52
39.0229	156
50.0159	72
51.0227	218
53.0386	145
63.0229	114
65.0385	676
66.0464	104
74.0147	62
75.0229	62
77.0384	426
78.0421	72
81.0334	197
89.0385	166
90.0488	41
91.0546	999
103.0542	41
104.0497	83
115.0537	145
117.0585	239
118.065	218
128.0628	62
139.0531	114
151.0509	52
152.0661	52
163.062	52
