Mass spectrum: Nitrendipine; LC-ESI-QTOF; MS2; 70 V
Name: Nitrendipine
Class: Pharmaceutical
Formula: C18H20N2O6
Exact mass: 360.1321
SMILES: CCOC(=O)C1=C(NC(=C(C1C2=CC(=CC=C2)[N+](=O)[O-])C(=O)OC)C)C
InChI: InChI=1S/C18H20N2O6/c1-5-26-18(22)15-11(3)19-10(2)14(17(21)25-4)16(15)12-7-6-8-13(9-12)20(23)24/h6-9,16,19H,5H2,1-4H3
Instrument: TripleTOF 5600 SCIEX
Instrument type: LC-ESI-QTOF
Ms type: MS2
Ion mode: POSITIVE
Collision energy: 70
Fragmentation mode: CID
Ionization: ESI
Column name: Zorbax Eclipse Plus C18 2.1 mm x 150 mm, 3.5 um, Agilent
Retention time: 12.373 min
Precursor m/z: 361.1394
Precursor type: [M+H]+
m/z	relative intensity
67.0235	391
67.0589	13
76.0374	13
77.0427	43
89.0435	23
91.0558	20
101.0434	37
102.0459	54
104.0284	23
104.0471	20
105.0543	23
106.0671	47
114.0451	16
115.0537	209
116.052	16
116.0683	13
118.0421	30
122.0613	20
126.0476	50
127.0533	148
128.0627	161
129.0336	30
129.0699	74
130.0399	16
130.0653	23
131.0741	16
132.044	16
133.0476	16
134.0599	67
138.0467	20
139.0543	323
140.0567	219
141.0695	293
142.0632	33
143.0741	57
144.0781	27
145.0883	27
150.0521	87
151.0561	108
152.0608	401
153.07	388
154.04	40
154.0634	124
155.0512	37
155.0719	84
156.0758	13
156.0851	30
157.0626	13
163.0531	30
164.055	33
164.0679	20
165.0675	168
166.0647	263
167.0409	16
167.072	482
168.0574	33
168.0788	391
169.065	43
169.0868	54
170.0582	13
170.0961	70
171.0669	33
171.1044	20
172.0705	16
177.057	20
178.0641	138
179.0475	13
179.0728	138
180.0801	999
181.0876	425
182.0627	70
182.0947	361
183.0674	84
183.1018	27
184.0754	50
188.0645	16
190.0655	37
191.0714	20
192.0695	23
193.0498	16
193.0699	23
193.0841	30
194.0591	118
195.068	101
196.0742	202
197.0817	87
198.0903	229
200.0676	57
206.0563	43
207.0654	118
208.0749	745
209.0835	337
210.0897	624
211.0586	33
211.0941	50
212.0689	70
214.0823	16
221.0694	43
222.0562	27
224.0732	37
225.0768	94
226.0855	590
228.0585	13
235.063	37
236.0683	155
237.0704	54
238.0802	23
239.0934	27
240.0638	37
240.1009	30
241.0751	13
252.0725	20
253.0717	168
254.0802	161
255.0862	30
255.0999	16
267.09	47
268.0958	33
269.1085	16
