Mass spectrum: Diazinon; LC-ESI-QTOF; MS2; 150 V
Name: Diazinon
Class: Insecticide
Formula: C12H21N2O3PS
Exact mass: 304.1011
SMILES: CCO[P](=S)(OCC)Oc1cc(C)nc(n1)C(C)C
InChI: InChI=1S/C12H21N2O3PS/c1-6-15-18(19,16-7-2)17-11-8-10(5)13-12(14-11)9(3)4/h8-9H,6-7H2,1-5H3
Instrument: TripleTOF 5600 SCIEX
Instrument type: LC-ESI-QTOF
Ms type: MS2
Ion mode: POSITIVE
Collision energy: 150
Fragmentation mode: CID
Ionization: ESI
Column name: Zorbax Eclipse Plus C18 2.1 mm x 150 mm, 3.5 um, Agilent
Retention time: 14.526 min
Precursor m/z: 305.1083
Precursor type: [M+H]+
m/z	relative intensity
37.019	23
42.0429	263
44.0226	15
46.9774	999
47.0124	19
54.0402	59
56.9848	29
57.9927	91
59.0002	63
59.9951	75
62.9495	31
62.9681	531
64.9839	963
65.0199	13
65.0428	23
67.0456	27
68.0184	9
71.0046	11
78.9433	897
80.0542	11
80.9757	155
82.9976	45
83.9918	15
96.9517	329
