Mass spectrum: N-Isopropyl-N'-phenyl-p-phenylenediamine; LC-ESI-QTOF; MS2; 150 V
Name: N-Isopropyl-N'-phenyl-p-phenylenediamine
Class: Industrial_process
Formula: C15H18N2
Exact mass: 226.147
SMILES: CC(C)Nc1ccc(cc1)Nc2ccccc2
InChI: InChI=1S/C15H18N2/c1-12(2)16-14-8-10-15(11-9-14)17-13-6-4-3-5-7-13/h3-12,16-17H,1-2H3
Instrument: TripleTOF 6600 SCIEX
Instrument type: LC-ESI-QTOF
Ms type: MS2
Ion mode: POSITIVE
Collision energy: 150
Fragmentation mode: CID
Ionization: ESI
Column name: Zorbax Eclipse Plus C18 2.1 mm x 150 mm, 3.5 um, Agilent
Retention time: 7.24 min
Precursor m/z: 227.1543
Precursor type: [M+H]+
m/z	relative intensity
35.9986	84
37.0071	505
38.0028	48
38.0143	385
39.0224	999
41.0264	36
42.0336	66
49.0066	156
50.0144	848
51.0223	680
52.0174	186
52.0286	42
53.0379	216
54.0331	78
59.9987	36
61.0069	306
62.0141	505
63.022	481
64.0165	48
65.0377	30
73.0053	30
74.0136	349
75.0092	30
75.0215	120
76.0248	48
77.0374	84
78.034	36
80.0488	60
85.0057	66
86.0135	192
87.023	78
89.0398	42
98.0127	54
102.0388	30
110.0135	30
126.0438	24
