Mass spectrum: Proadifen; LC-ESI-QTOF; MS2; 110 V
Name: Proadifen
Formula: C23H31NO2
Exact mass: 353.2355
SMILES: CCCC(C1=CC=CC=C1)(C2=CC=CC=C2)C(=O)OCCN(CC)CC
InChI: InChI=1S/C23H31NO2/c1-4-17-23(20-13-9-7-10-14-20,21-15-11-8-12-16-21)22(25)26-19-18-24(5-2)6-3/h7-16H,4-6,17-19H2,1-3H3
Instrument: TripleTOF 6600 SCIEX
Instrument type: LC-ESI-QTOF
Ms type: MS2
Ion mode: POSITIVE
Collision energy: 110
Fragmentation mode: CID
Ionization: ESI
Column name: Zorbax Eclipse Plus C18 2.1 mm x 150 mm, 3.5 um, Agilent
Retention time: 9.831 min
Precursor m/z: 354.2428
Precursor type: [M+H]+
m/z	relative intensity
37.0061	13
38.0138	11
39.0217	98
41.0373	22
44.0481	41
50.0136	16
51.0218	91
62.014	14
63.0214	42
65.0372	485
77.0373	436
78.0449	11
79.0526	73
89.0367	30
91.0528	682
102.0449	36
103.0528	69
105.037	15
105.0681	36
115.0529	232
126.0453	40
127.0515	17
128.0608	107
139.0523	79
141.0687	34
150.0455	41
151.0527	140
152.0608	522
163.0526	88
164.061	185
165.069	999
166.0765	21
176.0615	11
178.0767	20
