Mass spectrum: Metobromuron; LC-ESI-QTOF; MS2; 60 V
Name: Metobromuron
Class: Herbicide
Formula: C9H11BrN2O2
Exact mass: 258.0004
SMILES: CN(C(=O)NC1=CC=C(C=C1)Br)OC
InChI: InChI=1S/C9H11BrN2O2/c1-12(14-2)9(13)11-8-5-3-7(10)4-6-8/h3-6H,1-2H3,(H,11,13)
Instrument: TripleTOF 6600 SCIEX
Instrument type: LC-ESI-QTOF
Ms type: MS2
Ion mode: POSITIVE
Collision energy: 60
Fragmentation mode: CID
Ionization: ESI
Column name: Zorbax Eclipse Plus C18 2.1 mm x 150 mm, 3.5 um, Agilent
Retention time: 10.623 min
Precursor m/z: 259.0077
Precursor type: [M+H]+
m/z	relative intensity
39.0208	31
52.015	15
61.0043	27
62.0126	27
63.02	210
64.0279	139
65.0244	23
65.0356	338
66.0309	15
77.0353	19
78.0304	23
90.0304	27
91.0385	999
92.0465	310
92.9308	23
105.0426	35
116.9295	139
119.0571	521
129.0399	27
142.9453	429
147.0512	51
148.0589	27
169.955	95
170.9638	202
