Mass spectrum: Doxorubicin; LC-ESI-QTOF; MS2; 130 V
Name: Doxorubicin
Class: Pharmaceutical
Formula: C27H29NO11
Exact mass: 543.1741
SMILES: C[C@H]1[C@H]([C@H](C[C@@H](O1)O[C@H]2C[C@@](Cc3c2c(c4c(c3O)C(=O)c5cccc(c5C4=O)OC)O)(C(=O)CO)O)N)O
InChI: InChI=1S/C27H29NO11/c1-10-22(31)13(28)6-17(38-10)39-15-8-27(36,16(30)9-29)7-12-19(15)26(35)21-20(24(12)33)23(32)11-4-3-5-14(37-2)18(11)25(21)34/h3-5,10,13,15,17,22,29,31,33,35-36H,6-9,28H2,1-2H3/t10-,13-,15-,17-,22+,27-/m0/s1
Instrument: TripleTOF 5600 SCIEX
Instrument type: LC-ESI-QTOF
Ms type: MS2
Ion mode: POSITIVE
Collision energy: 130
Fragmentation mode: CID
Ionization: ESI
Column name: Zorbax Eclipse Plus C18 2.1 mm x 150 mm, 3.5 um, Agilent
Retention time: 7.064 min
Precursor m/z: 544.1813
Precursor type: [M+H]+
m/z	relative intensity
44.0591	249
72.0485	178
77.0424	214
86.0626	249
89.0419	214
115.0535	178
150.0473	214
152.0649	214
165.0689	428
176.0615	999
177.0692	142
178.0787	285
187.0532	249
188.0641	178
189.0697	499
200.0623	321
201.0706	356
202.0773	677
204.0573	356
205.0633	463
221.0566	285
233.0624	249
249.0512	356
261.057	178
289.0504	142
