Mass spectrum: Fenarimol; LC-ESI-QTOF; MS2; 100 V
Name: Fenarimol
Class: Fungicide
Formula: C17H12Cl2N2O
Exact mass: 330.0327
SMILES: C1=CC=C(C(=C1)C(C2=CC=C(C=C2)Cl)(C3=CN=CN=C3)O)Cl
InChI: InChI=1S/C17H12Cl2N2O/c18-14-7-5-12(6-8-14)17(22,13-9-20-11-21-10-13)15-3-1-2-4-16(15)19/h1-11,22H
Instrument: TripleTOF 6600 SCIEX
Instrument type: LC-ESI-QTOF
Ms type: MS2
Ion mode: POSITIVE
Collision energy: 100
Fragmentation mode: CID
Ionization: ESI
Column name: Zorbax Eclipse Plus C18 2.1 mm x 150 mm, 3.5 um, Agilent
Retention time: 11.9 min
Precursor m/z: 331.04
Precursor type: [M+H]+
m/z	relative intensity
50.0146	33
51.0231	40
52.0182	27
54.0337	229
73.0072	13
74.0149	242
75.0231	999
76.0292	23
77.0382	33
81.0442	91
84.9835	67
101.0382	13
102.0466	43
103.0543	16
110.9996	546
113.0386	33
115.0538	43
126.0455	20
128.0505	16
129.0569	13
139.0054	185
139.0544	50
140.0466	20
150.0469	80
151.0541	148
152.062	97
161.0369	20
162.0459	50
163.0544	330
164.0611	23
165.071	20
174.0463	16
175.0545	43
176.0622	192
177.0696	40
178.0764	27
185.0389	16
186.0469	67
187.0551	880
188.0622	330
189.0701	310
190.0627	30
201.0589	33
202.0659	16
203.0739	67
204.0816	43
205.0666	16
212.0489	30
213.06	13
214.0652	108
215.0757	23
216.0802	50
241.0755	16
242.0834	16
