Mass spectrum: Tris(4-methylphenyl) phosphate; LC-ESI-QTOF; MS2; 140 V
Name: Tris(4-methylphenyl) phosphate
Class: Industrial_process
Formula: C21H21O4P
Exact mass: 368.1177
SMILES: CC1=CC=C(C=C1)OP(=O)(OC2=CC=C(C=C2)C)OC3=CC=C(C=C3)C
InChI: InChI=1S/C21H21O4P/c1-16-4-10-19(11-5-16)23-26(22,24-20-12-6-17(2)7-13-20)25-21-14-8-18(3)9-15-21/h4-15H,1-3H3
Instrument: TripleTOF 6600 SCIEX
Instrument type: LC-ESI-QTOF
Ms type: MS2
Ion mode: POSITIVE
Collision energy: 140
Fragmentation mode: CID
Ionization: ESI
Column name: Zorbax Eclipse Plus C18 2.1 mm x 150 mm, 3.5 um, Agilent
Retention time: 15.924 min
Precursor m/z: 369.125
Precursor type: [M+H]+
m/z	relative intensity
35.9986	27
37.0064	126
38.0144	119
39.0223	664
41.0377	42
49.0061	19
50.0141	87
51.0219	165
59.9978	22
61.0062	82
62.0139	162
63.022	262
65.0376	467
74.0142	46
75.0216	27
76.0293	21
77.0376	155
78.0455	24
79.0535	12
85.0064	21
86.0139	48
87.0216	67
88.0293	13
89.0373	210
91.053	54
98.0142	30
99.0234	13
100.029	13
102.0459	42
107.0493	18
110.0139	16
111.0228	15
113.0375	102
114.0453	15
115.0536	414
125.0375	15
126.0454	63
127.0531	31
128.0619	37
137.0378	48
138.0456	52
139.054	408
149.0375	13
150.0458	85
151.0538	114
152.0618	147
161.0387	42
162.0467	132
163.0548	999
164.0624	405
165.0703	322
170.0261	10
175.0528	10
176.0626	76
177.0697	22
178.0787	22
179.0613	12
187.0544	22
189.0693	12
194.0709	21
200.0632	15
211.0545	22
213.071	21
224.0626	27
226.0791	27
235.0543	22
236.0643	33
237.0713	102
238.0775	12
239.0881	16
250.08	33
252.0924	12
