Mass spectrum: 2,6-Dimethylquinoline; LC-ESI-QTOF; MS2; 40 V
Name: 2,6-Dimethylquinoline
Formula: C11H11N
Exact mass: 157.0891
SMILES: CC1=CC2=C(C=C1)N=C(C=C2)C
InChI: InChI=1S/C11H11N/c1-8-3-6-11-10(7-8)5-4-9(2)12-11/h3-7H,1-2H3
Instrument: TripleTOF 6600 SCIEX
Instrument type: LC-ESI-QTOF
Ms type: MS2
Ion mode: POSITIVE
Collision energy: 40
Fragmentation mode: CID
Ionization: ESI
Column name: Zorbax Eclipse Plus C18 2.1 mm x 150 mm, 3.5 um, Agilent
Retention time: 5.162 min
Precursor m/z: 158.0964
Precursor type: [M+H]+
m/z	relative intensity
39.0227	15
65.038	63
89.0379	34
91.0539	338
102.0453	20
115.0539	637
116.0597	71
117.056	11
128.0491	30
129.0691	12
130.0649	13
140.0484	21
141.0573	20
142.0644	193
143.0724	218
156.0804	158
157.0883	273
158.0964	999
