Mass spectrum: Fenpropimorph; LC-ESI-QTOF; MS2; 40 V
Name: Fenpropimorph
Class: Pharmaceutical; Fungicide
Formula: C20H33NO
Exact mass: 303.2562
SMILES: CC(CN1C[C@H](C)O[C@H](C)C1)Cc2ccc(cc2)C(C)(C)C
InChI: InChI=1S/C20H33NO/c1-15(12-21-13-16(2)22-17(3)14-21)11-18-7-9-19(10-8-18)20(4,5)6/h7-10,15-17H,11-14H2,1-6H3/t15?,16-,17+
Instrument: TripleTOF 5600 SCIEX
Instrument type: LC-ESI-QTOF
Ms type: MS2
Ion mode: POSITIVE
Collision energy: 40
Fragmentation mode: CID
Ionization: ESI
Column name: Zorbax Eclipse Plus C18 2.1 mm x 150 mm, 3.5 um, Agilent
Retention time: 9.527 min
Precursor m/z: 304.2635
Precursor type: [M+H]+
m/z	relative intensity
57.0764	117
70.0682	30
72.0836	25
79.0559	11
81.0715	14
88.0767	20
91.0554	83
98.0974	518
102.091	32
105.0702	292
107.0851	37
112.111	16
115.0532	13
116.107	278
117.0693	117
119.0854	365
130.1224	454
131.0843	19
132.0931	335
145.1001	18
147.1167	999
161.1318	58
189.1629	39
248.2001	15
304.2627	898
