Mass spectrum: Oxytetracycline; LC-ESI-QTOF; MS2; 50 V
Name: Oxytetracycline
Class: Pharmaceutical
Formula: C22H24N2O9
Exact mass: 460.1482
SMILES: C[C@@]1([C@H]2[C@@H]([C@H]3[C@@H](C(=O)C(=C([C@]3(C(=O)C2=C(C4=C1C=CC=C4O)O)O)O)C(=O)N)N(C)C)O)O
InChI: InChI=1S/C22H24N2O9/c1-21(32)7-5-4-6-8(25)9(7)15(26)10-12(21)17(28)13-14(24(2)3)16(27)11(20(23)31)19(30)22(13,33)18(10)29/h4-6,12-14,17,25-26,28,30,32-33H,1-3H3,(H2,23,31)/t12-,13-,14+,17+,21-,22+/m1/s1
Instrument: TripleTOF 5600 SCIEX
Instrument type: LC-ESI-QTOF
Ms type: MS2
Ion mode: POSITIVE
Collision energy: 50
Fragmentation mode: CID
Ionization: ESI
Column name: Zorbax Eclipse Plus C18 2.1 mm x 150 mm, 3.5 um, Agilent
Retention time: 5.586 min
Precursor m/z: 461.1555
Precursor type: [M+H]+
m/z	relative intensity
58.0707	16
70.0673	10
83.0154	21
86.0623	43
98.0601	214
109.0281	10
123.0076	16
125.0216	13
126.0545	65
127.0545	27
128.0693	19
137.023	24
139.0314	13
145.0656	35
151.002	10
152.0689	29
153.0176	24
154.0499	214
155.0501	29
156.0642	10
173.0592	35
174.0676	27
175.074	19
178.9983	21
180.0657	46
184.0531	16
185.0613	21
187.0767	32
195.0797	21
196.0599	10
197.0574	16
198.076	57
201.0548	999
208.0616	95
211.0757	86
212.0509	32
213.0557	225
214.0591	10
217.0117	10
223.0754	38
224.0441	13
225.0549	13
226.0713	76
227.071	19
229.0504	10
235.0758	29
237.055	13
238.0621	10
239.0341	32
239.0704	162
240.0419	40
241.048	32
242.0554	35
247.0792	10
249.0588	10
251.0719	46
252.0393	35
253.0505	35
253.0882	16
254.0562	38
255.0667	40
257.0459	32
257.0806	38
258.0534	67
259.0598	27
261.0583	16
263.0709	86
265.0481	32
265.0899	10
266.0552	27
267.0671	133
268.0364	323
269.08	40
270.0511	40
273.0752	78
277.0479	16
278.0636	13
279.0662	206
281.0446	19
281.0807	19
283.0607	941
285.0759	100
289.0505	32
291.0657	89
292.0466	13
293.0454	19
293.0753	16
294.0542	35
295.0624	43
297.0771	32
297.1025	65
307.0606	160
309.0411	16
309.0773	29
312.1258	70
317.0433	51
319.0633	51
320.0259	24
321.0415	13
322.0468	141
323.0607	19
334.1069	16
335.0543	168
337.0726	382
350.0083	16
350.0432	754
353.064	32
362.104	21
363.0534	89
365.0671	483
376.0824	35
380.1152	27
381.0585	81
390.0974	16
393.0825	10
408.1083	43
426.1187	114
