Mass spectrum: Ofloxacin; LC-ESI-QTOF; MS2; 120 V
Name: Ofloxacin
Class: Antimicrobial; Pharmaceutical
Formula: C18H20FN3O4
Exact mass: 361.1438
SMILES: CC1COC2=C3N1C=C(C(=O)C3=CC(=C2N4CCN(CC4)C)F)C(=O)O
InChI: InChI=1S/C18H20FN3O4/c1-10-9-26-17-14-11(16(23)12(18(24)25)8-22(10)14)7-13(19)15(17)21-5-3-20(2)4-6-21/h7-8,10H,3-6,9H2,1-2H3,(H,24,25)
Instrument: TripleTOF 5600 SCIEX
Instrument type: LC-ESI-QTOF
Ms type: MS2
Ion mode: POSITIVE
Collision energy: 120
Fragmentation mode: CID
Ionization: ESI
Column name: Zorbax Eclipse Plus C18 2.1 mm x 150 mm, 3.5 um, Agilent
Retention time: 5.185 min
Precursor m/z: 362.1511
Precursor type: [M+H]+
m/z	relative intensity
42.0458	196
51.0316	112
57.0198	70
58.0739	126
70.0269	98
74.0208	422
75.0135	98
75.0279	999
76.0237	309
77.0433	253
78.0406	211
81.0188	281
82.0202	154
82.0666	70
83.0328	295
87.0249	126
88.0268	112
89.0419	351
90.0373	182
91.0555	70
93.0163	196
94.0217	211
95.0317	675
96.0275	309
97.0062	70
97.0349	154
98.0161	84
99.0138	239
100.0192	619
101.0398	253
102.0351	562
103.0462	112
104.0151	70
104.0506	281
105.0142	98
106.0219	84
107.0297	576
108.0284	182
109.0357	126
110.042	112
113.0391	154
114.0348	196
115.0375	98
115.0561	98
116.0497	98
117.0447	56
117.057	70
118.0295	70
119.0261	126
120.0251	154
120.0378	126
121.0305	112
122.0406	731
123.0353	70
123.0471	84
126.0365	98
127.0343	70
127.0534	84
128.0499	267
129.0433	211
130.0314	98
131.0239	70
132.0249	154
133.0443	267
134.042	84
135.0464	225
137.0483	98
141.0437	84
142.055	84
145.0418	56
146.0391	168
147.034	56
148.0512	98
150.0356	112
151.0429	140
152.0387	126
155.0574	98
156.0396	112
157.0466	56
158.041	84
159.0441	98
160.0519	70
164.0476	84
165.0499	98
