Mass spectrum: N,N-didesmethyl-venlafaxine; LC-ESI-QTOF; MS2; 60 V
Name: N,N-didesmethyl-venlafaxine
Class: Pharmaceutical; Transformation_product; Transformation_product-Metabolite
Formula: C15H23NO2
Exact mass: 249.1729
SMILES: COC1=CC=C(C=C1)C(CN)C2(CCCCC2)O
InChI: InChI=1S/C15H23NO2/c1-18-13-7-5-12(6-8-13)14(11-16)15(17)9-3-2-4-10-15/h5-8,14,17H,2-4,9-11,16H2,1H3
Instrument: TripleTOF 5600 SCIEX
Instrument type: LC-ESI-QTOF
Ms type: MS2
Ion mode: POSITIVE
Collision energy: 60
Fragmentation mode: CID
Ionization: ESI
Column name: Zorbax Eclipse Plus C18 2.1 mm x 150 mm, 3.5 um, Agilent
Retention time: 6.316 min
Precursor m/z: 250.1802
Precursor type: [M+H]+
m/z	relative intensity
65.042	131
67.057	21
77.0405	420
78.047	289
79.0551	141
81.0708	49
89.0397	27
90.0488	27
91.054	807
91.0909	32
102.0471	32
103.054	65
104.0613	70
105.0683	43
106.0404	43
107.049	65
115.0533	382
116.0611	92
117.069	76
121.0634	999
127.0528	32
128.0615	76
129.0696	60
131.0471	120
132.0551	76
135.0785	27
141.0674	54
144.0545	43
153.0681	21
158.0713	70
159.0804	27
