Mass spectrum: Methylecgonidine; LC-ESI-QTOF; MS2; 40 V
Name: Methylecgonidine
Class: Metabolite
Formula: C10H15NO2
Exact mass: 181.1103
SMILES: CN1C2CCC1C(=CC2)C(=O)OC
InChI: InChI=1S/C10H15NO2/c1-11-7-3-5-8(10(12)13-2)9(11)6-4-7/h5,7,9H,3-4,6H2,1-2H3
Instrument: TripleTOF 6600 SCIEX
Instrument type: LC-ESI-QTOF
Ms type: MS2
Ion mode: POSITIVE
Collision energy: 40
Fragmentation mode: CID
Ionization: ESI
Column name: Zorbax Eclipse Plus C18 2.1 mm x 150 mm, 3.5 um, Agilent
Retention time: 4.43 min
Precursor m/z: 182.1176
Precursor type: [M+H]+
m/z	relative intensity
39.0231	39
41.0384	30
42.034	57
44.0491	37
51.0224	18
53.0384	27
55.0543	11
56.049	25
57.0566	30
59.0128	57
59.0484	23
65.0383	266
67.0538	32
68.0497	18
77.0384	139
79.0537	99
80.0488	23
81.0567	25
81.069	62
82.0639	55
89.0376	25
90.046	250
91.0541	999
92.0535	18
93.0326	23
93.0697	48
94.0644	60
97.0642	20
103.0523	11
105.0694	60
106.0641	92
107.0724	208
108.0795	13
109.0635	18
118.0405	380
119.0477	39
120.0799	27
121.0888	13
122.0596	11
122.0955	148
123.08	30
133.0649	9
150.0912	13
182.1168	13
