Mass spectrum: 6PPD-quinone; LC-ESI-QTOF; MS2; 40 V
Name: 6PPD-quinone
Class: Industrial_process
Formula: C18H22N2O2
Exact mass: 298.1681
SMILES: CC(C)CC(C)NC1=CC(=O)C(=CC1=O)NC2=CC=CC=C2
InChI: InChI=1S/C18H22N2O2/c1-12(2)9-13(3)19-15-10-18(22)16(11-17(15)21)20-14-7-5-4-6-8-14/h4-8,10-13,19-20H,9H2,1-3H3
Instrument: TripleTOF 6600 SCIEX
Instrument type: LC-ESI-QTOF
Ms type: MS2
Ion mode: POSITIVE
Collision energy: 40
Fragmentation mode: CID
Ionization: ESI
Column name: Zorbax Eclipse Plus C18 2.1 mm x 150 mm, 3.5 um, Agilent
Retention time: 13.951 min
Precursor m/z: 299.1754
Precursor type: [M+H]+
m/z	relative intensity
43.0543	28
57.0702	11
77.0383	11
84.0435	25
93.0569	13
94.0648	21
104.0494	28
115.0535	15
118.0652	23
120.0807	11
142.064	28
144.0797	30
145.0763	11
146.0596	44
154.0654	13
159.0905	19
170.0597	73
172.0745	36
182.0596	13
187.0864	781
200.0704	71
201.0776	27
214.0855	19
215.0811	106
216.088	50
227.0799	23
241.0969	999
256.1194	55
257.1277	11
299.1748	27
