Mass spectrum: Dihydroxycarbazepine; LC-ESI-QTOF; MS2; 70 V
Name: Dihydroxycarbazepine
Class: Pharmaceutical; Metabolite
Formula: C15H14N2O3
Exact mass: 270.1004
SMILES: NC(=O)N1c2ccccc2C(O)C(O)c3ccccc13
InChI: InChI=1S/C15H14N2O3/c16-15(20)17-11-7-3-1-5-9(11)13(18)14(19)10-6-2-4-8-12(10)17/h1-8,13-14,18-19H,(H2,16,20)
Instrument: TripleTOF 5600 SCIEX
Instrument type: LC-ESI-QTOF
Ms type: MS2
Ion mode: POSITIVE
Collision energy: 70
Fragmentation mode: CID
Ionization: ESI
Column name: Zorbax Eclipse Plus C18 2.1 mm x 150 mm, 3.5 um, Agilent
Retention time: 6.663 min
Precursor m/z: 271.1077
Precursor type: [M+H]+
m/z	relative intensity
77.0402	18
101.0378	11
127.0534	39
128.0489	41
139.0536	28
140.0503	14
151.0532	85
152.0612	270
153.0694	50
154.0642	16
164.0599	10
165.0694	35
166.0644	53
167.0721	181
177.0544	25
178.0647	155
179.0722	276
180.0804	999
191.0717	17
192.0793	22
