Mass spectrum: Acetochlor; LC-ESI-QTOF; MS2; 120 V
Name: Acetochlor
Class: Herbicide
Formula: C14H20ClNO2
Exact mass: 269.1183
SMILES: CCC1=CC=CC(=C1N(COCC)C(=O)CCl)C
InChI: InChI=1S/C14H20ClNO2/c1-4-12-8-6-7-11(3)14(12)16(10-18-5-2)13(17)9-15/h6-8H,4-5,9-10H2,1-3H3
Instrument: TripleTOF 6600 SCIEX
Instrument type: LC-ESI-QTOF
Ms type: MS2
Ion mode: POSITIVE
Collision energy: 120
Fragmentation mode: CID
Ionization: ESI
Column name: Zorbax Eclipse Plus C18 2.1 mm x 150 mm, 3.5 um, Agilent
Retention time: 13.251 min
Precursor m/z: 270.1255
Precursor type: [M+H]+
m/z	relative intensity
31.017	299
39.022	499
48.9829	399
50.0156	249
51.0221	499
62.0125	249
63.022	249
65.0378	349
77.0368	999
89.0352	899
90.0458	399
91.0514	249
103.0521	249
115.0521	349
117.0563	249
130.0647	449
