Mass spectrum: Nadolol; LC-ESI-QTOF; MS2; 50 V
Name: Nadolol
Class: Pharmaceutical
Formula: C17H27NO4
Exact mass: 309.194
SMILES: CC(C)(C)NCC(COC1=CC=CC2=C1CC(C(C2)O)O)O
InChI: InChI=1S/C17H27NO4/c1-17(2,3)18-9-12(19)10-22-16-6-4-5-11-7-14(20)15(21)8-13(11)16/h4-6,12,14-15,18-21H,7-10H2,1-3H3
Instrument: TripleTOF 5600 SCIEX
Instrument type: LC-ESI-QTOF
Ms type: MS2
Ion mode: POSITIVE
Collision energy: 50
Fragmentation mode: CID
Ionization: ESI
Column name: Zorbax Eclipse Plus C18 2.1 mm x 150 mm, 3.5 um, Agilent
Retention time: 5.13 min
Precursor m/z: 310.2013
Precursor type: [M+H]+
m/z	relative intensity
56.0552	650
57.0744	267
58.0692	15
72.0485	26
74.0638	604
74.0846	30
74.097	22
77.0417	22
79.0577	34
91.057	390
103.056	34
105.0705	80
107.0499	99
115.0554	371
116.0628	22
117.0705	371
119.0875	65
127.0552	218
128.0627	512
128.0918	22
129.0697	267
130.078	45
131.0496	168
131.0854	84
132.0574	91
132.0778	22
133.0646	206
141.0697	72
143.052	26
143.0854	352
144.056	149
145.0647	999
145.1004	61
147.0803	482
152.0636	34
153.0692	302
154.0786	84
155.0664	22
155.0857	401
157.0644	298
158.0728	45
159.0433	26
159.0801	516
160.0514	34
161.0607	34
161.0929	22
163.076	30
165.0703	164
168.057	61
169.0654	22
170.0739	42
171.0799	627
171.1017	15
172.0892	38
173.0597	19
173.0949	118
174.0879	57
175.0771	38
181.0651	19
183.0803	677
201.0906	287
236.1282	42
