Mass spectrum: Estradiol; LC-ESI-QTOF; MS2; 130 V
Name: Estradiol
Class: Pharmaceutical
Formula: C18H24O2
Exact mass: 272.1776
SMILES: CC12CCC3C(C1CCC2O)CCC4=C3C=CC(=C4)O
InChI: InChI=1S/C18H24O2/c1-18-9-8-14-13-5-3-12(19)10-11(13)2-4-15(14)16(18)6-7-17(18)20/h3,5,10,14-17,19-20H,2,4,6-9H2,1H3
Instrument: TripleTOF 5600 SCIEX
Instrument type: LC-ESI-QTOF
Ms type: MS2
Ion mode: POSITIVE
Collision energy: 130
Fragmentation mode: CID
Ionization: ESI
Column name: Zorbax Eclipse Plus C18 2.1 mm x 150 mm, 3.5 um, Agilent
Retention time: 10.403 min
Precursor m/z: 273.1849
Precursor type: [M+H]+
m/z	relative intensity
37.007	38
38.0147	13
39.0228	135
41.0383	55
43.018	31
49.0075	31
50.0148	205
51.0231	811
53.0385	52
55.018	66
55.0541	24
61.0078	13
62.0148	38
63.0234	66
65.0381	118
67.0536	34
74.0147	20
75.0229	31
77.0386	999
78.0469	41
79.0537	59
81.0327	20
81.0695	13
89.0394	59
91.0542	83
102.0449	24
103.0525	24
107.0489	38
115.0536	118
127.052	24
128.0599	17
