Mass spectrum: Aripiprazole; LC-ESI-QTOF; MS2; 10 V
Name: Aripiprazole
Class: Pharmaceutical
Formula: C23H27Cl2N3O2
Exact mass: 447.148
SMILES: Clc1cccc(N2CCN(CCCCOc3ccc4CCC(=O)Nc4c3)CC2)c1Cl
InChI: InChI=1S/C23H27Cl2N3O2/c24-19-4-3-5-21(23(19)25)28-13-11-27(12-14-28)10-1-2-15-30-18-8-6-17-7-9-22(29)26-20(17)16-18/h3-6,8,16H,1-2,7,9-15H2,(H,26,29)
Instrument: TripleTOF 5600 SCIEX
Instrument type: LC-ESI-QTOF
Ms type: CID
Ion mode: POSITIVE
Collision energy: 10
Ionization: ESI
Column name: Zorbax Eclipse Plus C18 2.1 mm x 150 mm, 3.5 um, Agilent
Retention time: 8.305 min
Precursor m/z: 448.1553
Precursor type: [M+H]+
m/z	relative intensity
448.1544	999
