Mass spectrum: 1-(2,6-Dichlorophenyl)-2-indolinone; LC-ESI-QTOF; MS2; 60 V
Name: 1-(2,6-Dichlorophenyl)-2-indolinone
Class: Pharmaceutical; Transformation_product; Diclofenac-lactam
Formula: C14H9Cl2NO
Exact mass: 277.0061
SMILES: C1C2=CC=CC=C2N(C1=O)C3=C(C=CC=C3Cl)Cl
InChI: InChI=1S/C14H9Cl2NO/c15-10-5-3-6-11(16)14(10)17-12-7-2-1-4-9(12)8-13(17)18/h1-7H,8H2
Instrument: TripleTOF 5600 SCIEX
Instrument type: LC-ESI-QTOF
Ms type: MS2
Ion mode: POSITIVE
Collision energy: 60
Fragmentation mode: CID
Ionization: ESI
Column name: Zorbax Eclipse Plus C18 2.1 mm x 150 mm, 3.5 um, Agilent
Retention time: 12.191 min
Precursor m/z: 278.0134
Precursor type: [M+H]+
m/z	relative intensity
74.0214	14
77.0445	268
79.0594	138
89.0439	11
90.0513	11
100.0207	46
104.0535	23
105.0367	34
108.9866	101
127.0566	12
128.0533	11
132.0486	10
135.997	63
144.9622	135
150.0478	25
151.0554	261
152.0632	126
153.0642	42
164.0012	45
166.0669	20
171.9729	64
172.9683	36
177.0582	133
178.0661	308
179.0738	391
180.082	455
207.068	99
208.0762	115
213.0326	20
214.0421	999
