Mass spectrum: 2-Benzylimidazole; LC-ESI-QTOF; MS2; 130 V
Name: 2-Benzylimidazole
Class: Pharmaceutical
Formula: C10H12N2
Exact mass: 160.1
SMILES: C1CN=C(N1)CC2=CC=CC=C2
InChI: InChI=1S/C10H12N2/c1-2-4-9(5-3-1)8-10-11-6-7-12-10/h1-5H,6-8H2,(H,11,12)
Instrument: TripleTOF 5600 SCIEX
Instrument type: LC-ESI-QTOF
Ms type: MS2
Ion mode: POSITIVE
Collision energy: 130
Fragmentation mode: CID
Ionization: ESI
Column name: Zorbax Eclipse Plus C18 2.1 mm x 150 mm, 3.5 um, Agilent
Retention time: 4.619 min
Precursor m/z: 161.1073
Precursor type: [M+H]+
m/z	relative intensity
35.9998	171
37.0076	742
38.0151	371
39.023	770
49.0071	342
50.0158	999
51.0229	256
59.9991	199
61.0069	742
62.0149	884
63.0226	371
74.0145	171
