Mass spectrum: Thymidine; LC-ESI-QTOF; MS2; 40 V
Name: Thymidine
Class: Metabolite
Formula: C10H14N2O5
Exact mass: 242.0903
SMILES: OCC1OC(N2C=C(C)C(NC2=O)=O)CC1O
InChI: InChI=1S/C10H14N2O5/c1-5-3-12(10(16)11-9(5)15)8-2-6(14)7(4-13)17-8/h3,6-8,13-14H,2,4H2,1H3,(H,11,15,16)
Instrument: TripleTOF 5600 SCIEX
Instrument type: LC-ESI-QTOF
Ms type: MS2
Ion mode: POSITIVE
Collision energy: 40
Fragmentation mode: CID
Ionization: ESI
Column name: Zorbax Eclipse Plus C18 2.1 mm x 150 mm, 3.5 um, Agilent
Retention time: 4.533 min
Precursor m/z: 243.0976
Precursor type: [M+H]+
m/z	relative intensity
43.0542	15
45.0336	24
54.0339	12
56.0496	11
69.0332	53
71.0494	21
73.0282	63
81.0332	31
82.0287	29
84.0443	63
99.0439	85
109.0394	80
110.0237	255
117.0546	99
127.0503	999
