Mass spectrum: Iminostilbene; LC-ESI-QTOF; MS2; 70 V
Name: Iminostilbene
Class: Pharmaceutical
Formula: C14H11N
Exact mass: 193.0891
SMILES: C1=CC=C2C(=C1)C=CC3=CC=CC=C3N2
InChI: InChI=1S/C14H11N/c1-3-7-13-11(5-1)9-10-12-6-2-4-8-14(12)15-13/h1-10,15H
Instrument: TripleTOF 6600 SCIEX
Instrument type: LC-ESI-QTOF
Ms type: MS2
Ion mode: POSITIVE
Collision energy: 70
Fragmentation mode: CID
Ionization: ESI
Column name: Zorbax Eclipse Plus C18 2.1 mm x 150 mm, 3.5 um, Agilent
Retention time: 13.175 min
Precursor m/z: 194.0964
Precursor type: [M+H]+
m/z	relative intensity
39.0195	63
50.0105	38
51.0184	97
62.0094	22
63.0172	132
64.0244	21
65.0327	69
74.0081	28
75.0158	59
76.0238	36
77.0315	138
78.039	25
87.0147	20
88.0222	10
89.0306	452
90.0378	87
91.0457	32
98.0059	14
99.0135	28
100.0213	16
101.029	53
102.0366	86
113.0281	66
114.0233	11
114.0352	19
115.0438	196
116.0386	33
117.0467	26
125.0269	73
126.0347	163
127.0305	27
127.0415	50
128.038	127
129.0333	20
129.0443	14
137.026	18
138.0332	25
139.0416	400
140.0372	264
149.0249	28
150.0328	339
151.0403	522
152.0454	306
153.0432	80
163.0396	298
164.0462	377
165.0549	591
166.05	266
167.0573	118
176.0398	68
177.0414	261
178.0493	240
179.0444	19
179.055	29
189.0401	44
190.0482	590
191.056	999
192.0635	205
193.0707	25
