Mass spectrum: Bupropion; LC-ESI-QTOF; MS2; 110 V
Name: Bupropion
Class: Pharmaceutical
Formula: C13H18ClNO
Exact mass: 239.1077
SMILES: CC(C(=O)C1=CC(=CC=C1)Cl)NC(C)(C)C
InChI: InChI=1S/C13H18ClNO/c1-9(15-13(2,3)4)12(16)10-6-5-7-11(14)8-10/h5-9,15H,1-4H3
Instrument: TripleTOF 5600 SCIEX
Instrument type: LC-ESI-QTOF
Ms type: MS2
Ion mode: POSITIVE
Collision energy: 110
Fragmentation mode: CID
Ionization: ESI
Column name: Zorbax Eclipse Plus C18 2.1 mm x 150 mm, 3.5 um, Agilent
Retention time: 6.717 min
Precursor m/z: 240.115
Precursor type: [M+H]+
m/z	relative intensity
42.0422	15
57.0746	100
58.0708	48
73.0077	15
74.0178	219
74.0367	33
74.0553	21
75.0257	226
76.0329	27
76.0449	18
77.0411	999
78.0491	42
84.9894	30
89.0395	171
101.0372	15
102.0453	54
103.0534	192
104.0489	12
110.9973	18
128.0472	42
130.0643	210
