Mass spectrum: Benzotriazole; LC-ESI-QTOF; MS2; 30 V
Name: Benzotriazole
Class: Industrial_process; Industrial_process; Industrial_process; Antimicrobial; Personal_care_product
Formula: C6H5N3
Exact mass: 119.0483
SMILES: C1=CC2=NNN=C2C=C1
InChI: InChI=1S/C6H5N3/c1-2-4-6-5(3-1)7-9-8-6/h1-4H,(H,7,8,9)
Instrument: TripleTOF 6600 SCIEX
Instrument type: LC-ESI-QTOF
Ms type: MS2
Ion mode: POSITIVE
Collision energy: 30
Fragmentation mode: CID
Ionization: ESI
Column name: Zorbax Eclipse Plus C18 2.1 mm x 150 mm, 3.5 um, Agilent
Retention time: 5.876 min
Precursor m/z: 120.0556
Precursor type: [M+H]+
m/z	relative intensity
37.0077	22
38.0154	19
39.0231	217
51.0228	11
65.0387	999
66.0336	31
92.0492	178
120.0553	386
