Mass spectrum: O-Desmethyl amisulpride; LC-ESI-QTOF; MS2; 110 V
Name: O-Desmethyl amisulpride
Class: Pharmaceutical; Transformation_product; Transformation_product-Metabolite
Formula: C16H25N3O4S
Exact mass: 355.1566
SMILES: CCN1CCCC1CNC(=O)c2cc(c(cc2O)N)S(=O)(=O)CC
InChI: InChI=1S/C16H25N3O4S/c1-3-19-7-5-6-11(19)10-18-16(21)12-8-15(24(22,23)4-2)13(17)9-14(12)20/h8-9,11,20H,3-7,10,17H2,1-2H3,(H,18,21)
Instrument: TripleTOF 5600 SCIEX
Instrument type: LC-ESI-QTOF
Ms type: MS2
Ion mode: POSITIVE
Collision energy: 110
Fragmentation mode: CID
Ionization: ESI
Column name: Zorbax Eclipse Plus C18 2.1 mm x 150 mm, 3.5 um, Agilent
Retention time: 5.619 min
Precursor m/z: 356.1639
Precursor type: [M+H]+
m/z	relative intensity
42.0414	158
44.0209	61
51.0295	86
52.0218	35
52.0367	409
53.0066	43
53.0306	17
53.0459	35
54.0386	68
55.026	17
55.0593	201
56.0549	528
56.9848	50
57.0757	17
57.9902	17
58.0702	197
59.0003	75
59.0184	14
62.0423	14
64.0342	114
64.0551	21
65.0292	93
65.0417	43
66.0144	46
66.0362	25
67.0093	32
67.0205	71
67.0445	43
67.0583	61
68.0172	603
68.0403	17
68.0534	53
68.9837	125
68.9995	32
69.0602	25
69.071	17
69.9886	28
70.0693	161
70.9995	93
71.9934	21
76.0197	46
77.0035	21
77.0299	53
78.0363	190
79.0189	25
79.0442	204
80.014	17
80.0292	35
80.0524	129
82.0675	208
83.9929	21
84.0832	999
84.9763	237
86.9917	64
88.0199	61
89.028	603
91.0189	28
93.0213	35
94.0299	661
97.0908	25
98.0059	17
98.0975	79
98.99	46
99.0064	28
99.9866	291
105.0209	64
106.0294	25
107.0373	614
107.9901	168
108.0215	212
108.0464	25
110.0969	43
110.9905	17
112.1121	452
126.0007	53
133.0151	17
134.0241	25
135.0074	35
135.0304	107
153.9968	14
181.9916	17
