Mass spectrum: Dexamethasone; LC-ESI-QTOF; MS2; 80 V
Name: Dexamethasone
Class: Pharmaceutical
Formula: C22H29FO5
Exact mass: 392.1999
SMILES: C[C@@H]1C[C@H]2[C@@H]3CCC4=CC(=O)C=C[C@@]4([C@]3([C@H](C[C@@]2([C@]1(C(=O)CO)O)C)O)F)C
InChI: InChI=1S/C22H29FO5/c1-12-8-16-15-5-4-13-9-14(25)6-7-19(13,2)21(15,23)17(26)10-20(16,3)22(12,28)18(27)11-24/h6-7,9,12,15-17,24,26,28H,4-5,8,10-11H2,1-3H3/t12-,15+,16+,17+,19+,20+,21+,22+/m1/s1
Instrument: TripleTOF 5600 SCIEX
Instrument type: LC-ESI-QTOF
Ms type: MS2
Ion mode: POSITIVE
Collision energy: 80
Fragmentation mode: CID
Ionization: ESI
Column name: Zorbax Eclipse Plus C18 2.1 mm x 150 mm, 3.5 um, Agilent
Retention time: 9.089 min
Precursor m/z: 393.2072
Precursor type: [M+H]+
m/z	relative intensity
43.0305	64
51.0322	12
55.0264	17
65.0458	57
67.0606	92
69.0416	24
77.0438	550
78.0513	22
79.0591	201
81.076	47
83.0545	19
89.0394	9
91.0584	999
93.0737	144
94.0444	12
95.0541	19
95.0895	52
97.0693	9
102.0495	22
103.0574	161
104.0666	37
105.0375	12
105.0727	366
107.0515	104
107.0869	72
108.0589	17
109.0496	12
109.1042	19
115.0566	563
116.0635	122
117.0716	196
119.054	12
119.0871	316
121.0673	548
125.0405	12
125.0653	19
127.0564	144
128.0639	724
129.0713	271
130.0791	74
131.0508	154
131.0879	99
132.0597	224
133.0646	34
133.1051	14
135.0817	74
139.0562	24
140.0639	24
141.0707	313
142.0792	114
143.087	112
144.059	122
145.0663	189
145.1063	12
146.0744	67
147.0818	231
151.0555	37
152.0634	176
153.0711	219
154.0793	67
155.0505	42
155.0866	114
156.0591	14
156.0968	24
157.0661	99
157.1035	19
158.0733	159
159.0792	79
160.0837	12
161.097	27
164.0665	19
165.0706	498
166.076	109
167.0852	102
168.0576	62
168.0934	24
169.0637	107
169.1015	17
170.0721	39
171.0805	161
172.0906	19
173.0977	42
176.0612	49
177.0694	67
177.0888	14
178.0779	463
179.0859	443
180.0944	69
181.0656	269
181.1016	47
182.0713	87
183.0782	87
184.0893	24
185.0938	42
189.0701	383
190.0768	199
191.0861	271
192.0924	139
193.1006	137
194.0724	122
194.11	39
195.0804	231
195.1142	17
196.0902	52
197.0954	59
198.1044	14
201.0713	39
202.0782	306
203.0857	256
204.0909	77
205.0642	104
205.1	129
206.0729	62
206.111	22
207.0796	241
207.116	32
208.0873	114
209.0829	17
209.0949	87
210.1047	22
211.0733	9
211.1124	22
215.0839	276
216.0903	114
217.0997	67
218.0706	77
218.1082	22
219.0797	154
219.1095	22
220.086	44
220.1308	17
221.0962	174
222.101	97
223.1109	44
224.0721	14
226.0777	57
227.0841	59
228.0924	117
229.0995	144
230.1095	39
231.0805	146
231.1139	22
231.1265	9
232.0882	104
232.1288	12
233.0957	129
234.0989	17
234.1099	19
235.1107	74
237.0877	12
239.0884	27
241.09	9
241.1056	12
242.0668	19
242.108	27
243.0824	9
243.1162	42
244.0898	37
245.098	97
245.1323	17
246.1023	59
247.1101	82
248.0769	17
248.12	39
249.1283	12
252.0919	22
253.1016	17
255.0839	19
256.0863	19
257.0958	17
258.1006	29
259.1121	32
261.1214	27
263.1451	9
269.103	9
271.1109	17
272.1101	19
