Mass spectrum: 4-Desmethyl-trimethoprim; LC-ESI-QTOF; MS2; 80 V
Name: 4-Desmethyl-trimethoprim
Class: Pharmaceutical
Formula: C13H16N4O3
Exact mass: 276.1222
SMILES: COC1=CC(=CC(=C1O)OC)CC2=CN=C(N=C2N)N
InChI: InChI=1S/C13H16N4O3/c1-19-9-4-7(5-10(20-2)11(9)18)3-8-6-16-13(15)17-12(8)14/h4-6,18H,3H2,1-2H3,(H4,14,15,16,17)
Instrument: TripleTOF 5600 SCIEX
Instrument type: LC-ESI-QTOF
Ms type: MS2
Ion mode: POSITIVE
Collision energy: 80
Fragmentation mode: CID
Ionization: ESI
Column name: Zorbax Eclipse Plus C18 2.1 mm x 150 mm, 3.5 um, Agilent
Retention time: 4.783 min
Precursor m/z: 277.1295
Precursor type: [M+H]+
m/z	relative intensity
41.0345	49
43.0366	111
52.0245	67
52.0362	24
54.04	388
65.0442	154
66.0494	37
68.0257	24
68.0425	117
69.0484	37
74.0185	30
75.0262	67
76.0319	37
77.0274	30
77.0408	555
77.0769	24
78.0476	55
79.0312	86
79.0498	74
80.0524	43
81.0478	999
81.0741	49
82.0582	43
83.05	92
89.0393	191
90.036	49
91.0415	24
91.0557	80
92.0514	92
92.0699	24
93.0463	37
93.0682	24
94.0523	141
94.0638	86
95.0548	24
96.0572	74
101.0386	86
102.0329	86
102.0453	67
103.0533	67
104.0488	265
104.0626	37
105.0454	86
105.0662	43
106.0447	160
106.063	55
107.0482	24
109.0495	43
109.0602	30
110.0585	55
114.0355	92
115.0433	37
116.0486	129
117.0434	55
117.0569	49
118.0406	30
118.064	92
119.0601	172
120.0561	141
121.0287	74
121.0631	43
123.0474	74
123.0665	209
123.0912	30
124.0737	67
127.0425	24
128.0504	178
129.0453	234
130.0402	92
130.0656	43
131.0587	166
132.0418	24
132.0519	92
133.0581	49
133.0768	43
135.0662	55
141.048	61
142.0388	37
142.051	43
143.0606	61
144.058	141
145.0766	55
146.0698	129
147.0653	536
148.0481	37
148.0743	302
149.0207	61
149.0813	49
151.039	24
153.0441	43
155.0597	37
156.0399	24
156.0542	55
159.0605	61
160.0724	30
161.0828	111
170.0715	80
171.0646	49
172.0394	30
173.0795	74
174.0644	30
183.0651	49
185.0803	92
187.0988	49
201.0861	37
229.0727	43
