Mass spectrum: Pirimicarb; LC-ESI-QTOF; MS2; 100 V
Name: Pirimicarb
Class: Insecticide; Fungicide
Formula: C11H18N4O2
Exact mass: 238.143
SMILES: CC1=C(N=C(N=C1OC(=O)N(C)C)N(C)C)C
InChI: InChI=1S/C11H18N4O2/c1-7-8(2)12-10(14(3)4)13-9(7)17-11(16)15(5)6/h1-6H3
Instrument: TripleTOF 6600 SCIEX
Instrument type: LC-ESI-QTOF
Ms type: MS2
Ion mode: POSITIVE
Collision energy: 100
Fragmentation mode: CID
Ionization: ESI
Column name: Zorbax Eclipse Plus C18 2.1 mm x 150 mm, 3.5 um, Agilent
Retention time: 6.157 min
Precursor m/z: 239.1503
Precursor type: [M+H]+
m/z	relative intensity
42.0341	630
44.0496	262
53.0381	157
54.0338	131
55.0289	262
56.0129	972
66.0333	131
68.0491	210
69.0086	105
69.0444	867
70.052	131
72.0444	999
