Mass spectrum: Sulisobenzone; LC-ESI-QTOF; MS2; 70 V
Name: Sulisobenzone
Class: Personal_care_product
Formula: C14H12O6S
Exact mass: 308.0355
SMILES: COc1c(S(O)(=O)=O)cc(C(c2ccccc2)=O)c(O)c1
InChI: InChI=1S/C14H12O6S/c1-20-12-8-11(15)10(7-13(12)21(17,18)19)14(16)9-5-3-2-4-6-9/h2-8,15H,1H3,(H,17,18,19)
Instrument: TripleTOF 5600 SCIEX
Instrument type: LC-ESI-QTOF
Ms type: MS2
Ion mode: NEGATIVE
Collision energy: 70
Fragmentation mode: CID
Ionization: ESI
Column name: Zorbax Eclipse Plus C18 2.1 mm x 150 mm, 3.5 um, Agilent
Retention time: 7.476 min
Precursor m/z: 307.0282
Precursor type: [M-H]-
m/z	relative intensity
79.9554	999
80.963	137
94.0043	58
101.0375	52
145.0272	76
155.0479	62
167.0475	179
183.0426	335
211.0381	665
