Mass spectrum: Chloridazon; LC-ESI-QTOF; MS2; 130 V
Name: Chloridazon
Class: Herbicide
Formula: C10H8ClN3O
Exact mass: 221.0356
SMILES: C1=CC=C(C=C1)N2C(=O)C(=C(C=N2)N)Cl
InChI: InChI=1S/C10H8ClN3O/c11-9-8(12)6-13-14(10(9)15)7-4-2-1-3-5-7/h1-6H,12H2
Instrument: TripleTOF 6600 SCIEX
Instrument type: LC-ESI-QTOF
Ms type: MS2
Ion mode: POSITIVE
Collision energy: 130
Fragmentation mode: CID
Ionization: ESI
Column name: Zorbax Eclipse Plus C18 2.1 mm x 150 mm, 3.5 um, Agilent
Retention time: 6.924 min
Precursor m/z: 222.0429
Precursor type: [M+H]+
m/z	relative intensity
35.9993	17
37.0072	82
38.0032	24
38.0153	62
39.0113	20
39.0231	110
40.0187	13
41.0269	13
46.968	38
49.0074	259
50.0155	999
51.0114	24
51.0232	542
52.0184	148
53.0125	17
53.0259	17
61.007	44
62.0148	44
63.0231	41
65.0381	13
66.0214	38
73.0076	17
74.0154	69
