Mass spectrum: 6alpha-Methylprednisolone; LC-ESI-QTOF; MS2; 60 V
Name: 6alpha-Methylprednisolone
Class: Pharmaceutical
Formula: C22H30O5
Exact mass: 374.2093
SMILES: C[C@H]1C[C@H]2[C@@H]3CC[C@](O)(C(=O)CO)[C@@]3(C)C[C@H](O)[C@@H]2[C@@]4(C)C=CC(=O)C=C14
InChI: InChI=1S/C22H30O5/c1-12-8-14-15-5-7-22(27,18(26)11-23)21(15,3)10-17(25)19(14)20(2)6-4-13(24)9-16(12)20/h4,6,9,12,14-15,17,19,23,25,27H,5,7-8,10-11H2,1-3H3/t12-,14-,15-,17-,19+,20-,21-,22-/m0/s1
Instrument: TripleTOF 5600 SCIEX
Instrument type: LC-ESI-QTOF
Ms type: MS2
Ion mode: POSITIVE
Collision energy: 60
Fragmentation mode: CID
Ionization: ESI
Column name: Zorbax Eclipse Plus C18 2.1 mm x 150 mm, 3.5 um, Agilent
Retention time: 9.016 min
Precursor m/z: 375.2166
Precursor type: [M+H]+
m/z	relative intensity
55.0598	63
67.058	63
77.0418	227
77.055	101
79.0561	227
81.0717	88
91.0552	973
93.0698	265
95.086	139
103.056	113
105.0694	821
107.0485	63
107.0858	252
109.0999	63
115.0544	467
116.0602	75
117.071	328
119.0841	139
119.0917	75
121.0647	885
127.054	88
128.0618	278
129.0702	265
130.0811	63
131.0461	88
131.0847	354
132.0579	88
133.0625	63
133.1011	265
135.0794	872
141.0689	404
142.0779	392
143.084	202
144.0575	126
144.0949	63
145.0637	379
145.0993	113
146.0727	379
147.0799	214
152.06	75
153.0691	113
154.0758	88
155.0852	214
156.0936	75
157.0644	189
157.1006	227
158.0719	442
159.0798	493
159.1142	50
160.0868	101
161.0942	910
165.069	252
165.0909	50
166.0792	139
166.0901	50
167.0834	101
167.0942	50
169.0626	113
169.1063	63
170.0707	101
171.0809	341
172.0872	303
173.0944	139
178.0768	379
179.0843	240
180.0923	101
181.0634	303
181.1022	139
182.068	50
183.0806	189
183.1137	113
184.0904	101
185.0948	771
187.11	227
189.0693	113
190.0799	88
191.0855	139
192.0919	126
193.1021	303
194.0707	113
194.1093	75
195.0798	543
195.1112	88
196.0874	518
197.0944	126
198.099	88
199.1106	113
202.0766	126
203.0839	139
204.0956	113
205.0991	240
206.1075	63
207.0783	75
207.1151	75
208.0886	316
208.1266	101
209.0942	999
210.1019	252
211.1114	392
215.0822	88
216.0933	101
217.099	126
219.0802	164
219.1181	126
220.0888	101
220.1232	101
221.0942	278
221.134	75
222.1045	366
223.1108	417
224.1195	164
225.1281	75
229.1014	63
230.1137	50
231.0801	75
231.1117	75
232.0916	63
233.0953	202
233.1313	75
234.1022	113
235.1131	202
236.1199	214
237.125	151
245.0934	113
246.1047	75
247.1131	113
248.1201	50
249.1253	126
249.1556	50
250.1345	113
251.1426	101
258.1011	63
259.1098	101
265.1605	392
273.1286	50
279.1777	126
