Mass spectrum: Benzotriazole; LC-ESI-QTOF; MS2; 130 V
Name: Benzotriazole
Class: Industrial_process; Industrial_process; Industrial_process; Antimicrobial; Personal_care_product
Formula: C6H5N3
Exact mass: 119.0483
SMILES: C1=CC2=NNN=C2C=C1
InChI: InChI=1S/C6H5N3/c1-2-4-6-5(3-1)7-9-8-6/h1-4H,(H,7,8,9)
Instrument: TripleTOF 6600 SCIEX
Instrument type: LC-ESI-QTOF
Ms type: MS2
Ion mode: POSITIVE
Collision energy: 130
Fragmentation mode: CID
Ionization: ESI
Column name: Zorbax Eclipse Plus C18 2.1 mm x 150 mm, 3.5 um, Agilent
Retention time: 5.876 min
Precursor m/z: 120.0556
Precursor type: [M+H]+
m/z	relative intensity
35.9995	575
37.0075	999
38.003	237
38.0148	203
49.0076	220
50.0153	101
51.01	135
59.9989	169
61.0073	423
62.0152	135
