Mass spectrum: Edetol; LC-ESI-QTOF; MS2; 60 V
Name: Edetol
Formula: C14H32N2O4
Exact mass: 292.2362
SMILES: CC(CN(CCN(CC(C)O)CC(C)O)CC(C)O)O
InChI: InChI=1S/C14H32N2O4/c1-11(17)7-15(8-12(2)18)5-6-16(9-13(3)19)10-14(4)20/h11-14,17-20H,5-10H2,1-4H3
Instrument: TripleTOF 6600 SCIEX
Instrument type: LC-ESI-QTOF
Ms type: MS2
Ion mode: POSITIVE
Collision energy: 60
Fragmentation mode: CID
Ionization: ESI
Column name: Zorbax Eclipse Plus C18 2.1 mm x 150 mm, 3.5 um, Agilent
Retention time: 2.645 min
Precursor m/z: 293.2435
Precursor type: [M+H]+
m/z	relative intensity
31.0172	97
39.0224	267
41.038	736
42.0334	200
43.0164	20
43.0529	25
44.0488	41
45.0339	56
55.0532	66
56.0486	365
58.0648	87
59.0485	530
67.0532	102
68.0482	41
69.0575	25
70.0651	195
72.08	66
79.0525	46
81.0573	25
81.0713	20
82.0643	108
84.0796	999
94.0646	46
96.0804	46
97.0852	25
98.059	66
98.0939	118
100.0753	77
102.0904	133
112.1091	46
142.1218	77
160.1306	66
