Mass spectrum: 1-Benzothiazol-2-yl-ethylamine; LC-ESI-QTOF; MS2; 90 V
Name: 1-Benzothiazol-2-yl-ethylamine
Formula: C9H10N2S
Exact mass: 178.0565
SMILES: CC(C1=NC2=CC=CC=C2S1)N
InChI: InChI=1S/C9H10N2S/c1-6(10)9-11-7-4-2-3-5-8(7)12-9/h2-6H,10H2,1H3
Instrument: TripleTOF 6600 SCIEX
Instrument type: LC-ESI-QTOF
Ms type: MS2
Ion mode: POSITIVE
Collision energy: 90
Fragmentation mode: CID
Ionization: ESI
Column name: Zorbax Eclipse Plus C18 2.1 mm x 150 mm, 3.5 um, Agilent
Retention time: 5.162 min
Precursor m/z: 179.0638
Precursor type: [M+H]+
m/z	relative intensity
35.9987	29
37.0068	195
38.0145	166
39.0226	999
42.0329	45
44.0487	153
44.9784	65
50.0143	68
51.0216	94
57.9859	13
62.0142	29
63.0218	52
65.0377	264
67.9705	35
68.9786	777
74.0142	26
77.0377	16
80.9787	16
81.9868	55
92.9781	35
108.0016	39
