Mass spectrum: Metalaxyl; LC-ESI-QTOF; MS2; 110 V
Name: Metalaxyl
Class: Fungicide
Formula: C15H21NO4
Exact mass: 279.1471
SMILES: CC1=C(C(=CC=C1)C)N(C(C)C(=O)OC)C(=O)COC
InChI: InChI=1S/C15H21NO4/c1-10-7-6-8-11(2)14(10)16(13(17)9-19-4)12(3)15(18)20-5/h6-8,12H,9H2,1-5H3
Instrument: TripleTOF 6600 SCIEX
Instrument type: LC-ESI-QTOF
Ms type: MS2
Ion mode: POSITIVE
Collision energy: 110
Fragmentation mode: CID
Ionization: ESI
Column name: Zorbax Eclipse Plus C18 2.1 mm x 150 mm, 3.5 um, Agilent
Retention time: 10.17 min
Precursor m/z: 280.1543
Precursor type: [M+H]+
m/z	relative intensity
37.0073	27
38.0154	22
39.0229	83
45.0334	155
49.0064	33
50.0148	172
51.0228	527
52.0296	22
62.0152	49
63.0227	111
65.0385	283
74.0161	27
75.0233	33
77.0384	999
78.0453	66
79.0546	105
80.0497	38
89.0383	449
90.0463	283
91.0541	416
102.0462	88
103.0549	216
104.0481	55
105.0443	27
105.069	49
106.0653	66
115.0537	155
116.0492	55
117.0572	416
118.0645	38
120.0833	22
128.0499	33
130.0645	183
142.0672	72
143.0714	72
144.0811	61
