Mass spectrum: Sulfasalazine; LC-ESI-QTOF; MS2; 50 V
Name: Sulfasalazine
Class: Pharmaceutical
Formula: C18H14N4O5S
Exact mass: 398.0685
SMILES: C1=CC=NC(=C1)NS(=O)(=O)C2=CC=C(C=C2)NN=C3C=CC(=O)C(=C3)C(=O)O
InChI: InChI=1S/C18H14N4O5S/c23-16-9-6-13(11-15(16)18(24)25)21-20-12-4-7-14(8-5-12)28(26,27)22-17-3-1-2-10-19-17/h1-11,20H,(H,19,22)(H,24,25)
Instrument: TripleTOF 5600 SCIEX
Instrument type: LC-ESI-QTOF
Ms type: MS2
Ion mode: NEGATIVE
Collision energy: 50
Fragmentation mode: CID
Ionization: ESI
Column name: Zorbax Eclipse Plus C18 2.1 mm x 150 mm, 3.5 um, Agilent
Retention time: 9.217 min
Precursor m/z: 397.0612
Precursor type: [M-H]-
m/z	relative intensity
92.027	470
168.0703	100
196.0658	931
197.0733	999
212.061	195
240.0548	131
