Mass spectrum: 3-Methyl-4-(methylthio)phenol; LC-ESI-QTOF; MS2; 60 V
Name: 3-Methyl-4-(methylthio)phenol
Class: Industrial_process
Formula: C8H10OS
Exact mass: 154.0452
SMILES: CC1=C(C=CC(=C1)O)SC
InChI: InChI=1S/C8H10OS/c1-6-5-7(9)3-4-8(6)10-2/h3-5,9H,1-2H3
Instrument: TripleTOF 6600 SCIEX
Instrument type: LC-ESI-QTOF
Ms type: MS2
Ion mode: POSITIVE
Collision energy: 60
Fragmentation mode: CID
Ionization: ESI
Column name: Zorbax Eclipse Plus C18 2.1 mm x 150 mm, 3.5 um, Agilent
Retention time: 9.802 min
Precursor m/z: 155.0525
Precursor type: [M+H]+
m/z	relative intensity
39.0233	111
44.9801	88
50.0155	155
51.0232	643
53.0398	133
55.0177	77
63.024	77
65.0394	55
77.0392	999
78.0461	55
79.055	188
89.0391	77
97.0109	99
105.0469	55
107.0493	222
