Mass spectrum: 2,2,6,6-Tetramethyl-4-piperidone; LC-ESI-QTOF; MS2; 140 V
Name: 2,2,6,6-Tetramethyl-4-piperidone
Class: Natural_product; Industrial_process
Formula: C9H17NO
Exact mass: 155.131
SMILES: CC1(CC(=O)CC(N1)(C)C)C
InChI: InChI=1S/C9H17NO/c1-8(2)5-7(11)6-9(3,4)10-8/h10H,5-6H2,1-4H3
Instrument: TripleTOF 6600 SCIEX
Instrument type: LC-ESI-QTOF
Ms type: MS2
Ion mode: POSITIVE
Collision energy: 140
Fragmentation mode: CID
Ionization: ESI
Column name: Zorbax Eclipse Plus C18 2.1 mm x 150 mm, 3.5 um, Agilent
Retention time: 2.824 min
Precursor m/z: 156.1383
Precursor type: [M+H]+
m/z	relative intensity
35.9992	55
37.0072	237
38.0024	39
38.0147	174
39.0226	190
40.018	79
41.0259	237
42.0337	999
