Mass spectrum: Didesmethyl-citalopram; LC-ESI-QTOF; MS2; 90 V
Name: Didesmethyl-citalopram
Class: Pharmaceutical; Metabolite
Formula: C18H17FN2O
Exact mass: 296.1325
SMILES: c1cc(ccc1C2(c3ccc(cc3CO2)C#N)CCCN)F
InChI: InChI=1S/C18H17FN2O/c19-16-5-3-15(4-6-16)18(8-1-9-20)17-7-2-13(11-21)10-14(17)12-22-18/h2-7,10H,1,8-9,12,20H2
Instrument: TripleTOF 5600 SCIEX
Instrument type: LC-ESI-QTOF
Ms type: MS2
Ion mode: POSITIVE
Collision energy: 90
Fragmentation mode: CID
Ionization: ESI
Column name: Zorbax Eclipse Plus C18 2.1 mm x 150 mm, 3.5 um, Agilent
Retention time: 7.575 min
Precursor m/z: 297.1398
Precursor type: [M+H]+
m/z	relative intensity
51.0303	10
57.0196	188
59.0347	66
65.0419	24
74.0187	30
75.0258	91
77.0415	61
81.016	12
83.0318	999
86.0176	11
87.0241	28
88.0214	14
89.0405	374
90.0352	31
95.0299	29
98.0147	19
99.0226	31
101.0393	38
102.0466	10
107.0297	26
109.0451	881
113.039	135
114.0365	61
115.0544	89
116.0491	89
120.0358	23
123.0239	11
125.0378	27
126.0474	34
127.0544	52
128.0614	30
129.0465	10
131.0287	10
133.0442	105
137.04	19
138.0446	13
139.0541	67
140.0493	248
144.0354	22
145.0448	14
146.053	34
149.0396	35
150.0464	62
151.0548	12
152.0621	20
153.0553	11
157.0473	33
158.0398	20
161.04	22
162.0461	24
163.0545	63
164.0509	29
167.0275	11
168.0373	88
169.0472	51
170.0527	67
173.0395	35
174.0455	93
175.0521	74
176.0484	10
176.0621	25
177.0596	30
180.0366	20
181.0454	150
182.0485	53
183.0599	41
185.0412	11
186.0446	28
187.0536	141
188.0508	101
189.067	50
190.0645	38
192.0367	38
193.0436	54
194.0525	164
195.048	52
196.0678	11
197.0405	21
198.0462	136
199.053	260
200.0612	255
201.0616	109
202.078	25
203.0714	12
205.0446	131
206.0475	88
207.0601	194
208.0558	175
211.0543	37
212.0505	92
213.0694	192
214.0655	94
216.0381	17
217.0454	89
218.0528	570
219.0579	210
220.0678	178
221.0619	71
223.0439	14
224.0523	74
225.0577	288
226.066	97
227.0734	66
229.0449	10
230.0464	34
231.0595	134
232.0555	185
233.0766	77
234.0723	13
238.0665	131
239.0747	18
240.0815	60
242.0525	29
243.0496	98
244.057	197
245.0642	718
246.0756	17
256.0578	25
258.0724	85
