Mass spectrum: Iprovalicarb; LC-ESI-QTOF; MS2; 130 V
Name: Iprovalicarb
Class: Fungicide
Formula: C18H28N2O3
Exact mass: 320.21
SMILES: CC1=CC=C(C=C1)C(C)NC(=O)C(C(C)C)NC(=O)OC(C)C
InChI: InChI=1S/C18H28N2O3/c1-11(2)16(20-18(22)23-12(3)4)17(21)19-14(6)15-9-7-13(5)8-10-15/h7-12,14,16H,1-6H3,(H,19,21)(H,20,22)
Instrument: TripleTOF 6600 SCIEX
Instrument type: LC-ESI-QTOF
Ms type: MS2
Ion mode: POSITIVE
Collision energy: 130
Fragmentation mode: CID
Ionization: ESI
Column name: Zorbax Eclipse Plus C18 2.1 mm x 150 mm, 3.5 um, Agilent
Retention time: 11.936 min
Precursor m/z: 321.2173
Precursor type: [M+H]+
m/z	relative intensity
35.9996	18
37.0078	73
38.0151	58
39.0234	356
41.0389	58
42.0348	33
49.0076	66
50.0154	330
51.0232	841
52.0307	58
53.0391	22
55.0547	18
56.0493	25
57.0574	29
61.0071	44
62.0156	88
63.0229	183
65.0386	749
74.0155	44
75.0238	44
76.0303	40
77.0389	999
78.0466	312
79.0558	14
89.0381	69
91.0542	422
102.0464	66
103.054	220
104.0616	22
105.0439	33
115.0542	161
117.0708	22
