Mass spectrum: 4-Phenoxyphenol; LC-ESI-QTOF; MS2; 60 V
Name: 4-Phenoxyphenol
Class: Transformation_product
Formula: C12H10O2
Exact mass: 186.0681
SMILES: Oc1ccc(Oc2ccccc2)cc1
InChI: InChI=1S/C12H10O2/c13-10-6-8-12(9-7-10)14-11-4-2-1-3-5-11/h1-9,13H
Instrument: TripleTOF 5600 SCIEX
Instrument type: LC-ESI-QTOF
Ms type: CID
Ion mode: POSITIVE
Collision energy: 60
Ionization: ESI
Column name: Zorbax Eclipse Plus C18 2.1 mm x 150 mm, 3.5 um, Agilent
Retention time: 11.066 min
Precursor m/z: 187.0754
Precursor type: [M+H]+
m/z	relative intensity
65.0433	438
66.0507	262
77.0398	157
81.0354	578
89.0414	192
94.043	403
114.0484	87
115.0537	999
139.0544	262
