Mass spectrum: Benzyltrimethylammonium; LC-ESI-QTOF; MS2; 100 V
Name: Benzyltrimethylammonium
Class: Industrial_process
Formula: [C10H16N]+
Exact mass: 150.1277
SMILES: C[N+](C)(C)Cc1ccccc1
InChI: InChI=1S/C10H16N/c1-11(2,3)9-10-7-5-4-6-8-10/h4-8H,9H2,1-3H3/q+1
Instrument: TripleTOF 5600 SCIEX
Instrument type: LC-ESI-QTOF
Ms type: MS2
Ion mode: POSITIVE
Collision energy: 100
Fragmentation mode: CID
Ionization: ESI
Column name: Zorbax Eclipse Plus C18 2.1 mm x 150 mm, 3.5 um, Agilent
Retention time: 4.459 min
Precursor m/z: 150.1277
Precursor type: [M]+
m/z	relative intensity
51.0283	999
65.0409	899
