Mass spectrum: Norgestrel; LC-ESI-QTOF; MS2; 90 V
Name: Norgestrel
Class: Pharmaceutical
Formula: C21H28O2
Exact mass: 312.2089
SMILES: CCC12CCC3C(C1CCC2(C#C)O)CCC4=CC(=O)CCC34
InChI: InChI=1S/C21H28O2/c1-3-20-11-9-17-16-8-6-15(22)13-14(16)5-7-18(17)19(20)10-12-21(20,23)4-2/h2,13,16-19,23H,3,5-12H2,1H3
Instrument: TripleTOF 5600 SCIEX
Instrument type: LC-ESI-QTOF
Ms type: MS2
Ion mode: POSITIVE
Collision energy: 90
Fragmentation mode: CID
Ionization: ESI
Column name: Zorbax Eclipse Plus C18 2.1 mm x 150 mm, 3.5 um, Agilent
Retention time: 12.063 min
Precursor m/z: 313.2162
Precursor type: [M+H]+
m/z	relative intensity
43.0321	13
53.0119	11
55.0274	29
65.0459	247
66.0542	20
67.0614	108
76.0347	11
77.0447	999
78.0538	54
79.0601	490
81.041	22
81.0754	159
83.0548	146
89.0434	49
91.0592	976
93.0735	54
94.0477	33
95.055	15
95.0911	11
102.0516	62
103.0575	132
104.0628	24
105.0731	155
107.0521	69
107.087	11
109.0683	112
115.0574	731
116.0658	81
117.0727	90
119.0894	24
126.0486	22
127.0567	195
128.0649	666
129.0731	186
130.0808	29
131.0514	22
131.0907	22
139.0589	27
141.0723	276
142.0794	31
143.0889	13
145.0634	13
151.0534	22
152.0635	135
153.0708	119
154.0789	31
155.0865	36
163.0567	11
164.0611	20
165.0712	153
166.0837	11
167.0891	24
176.062	20
177.0738	20
178.0795	78
179.0857	24
189.0706	40
190.0785	13
191.0873	29
202.0791	20
203.0873	11
