Mass spectrum: Miconazole; LC-ESI-QTOF; MS2; 120 V
Name: Miconazole
Class: Fungicide; Pharmaceutical
Formula: C18H14Cl4N2O
Exact mass: 413.986
SMILES: Clc1ccc(COC(Cn2ccnc2)c3ccc(Cl)cc3Cl)c(Cl)c1
InChI: InChI=1S/C18H14Cl4N2O/c19-13-2-1-12(16(21)7-13)10-25-18(9-24-6-5-23-11-24)15-4-3-14(20)8-17(15)22/h1-8,11,18H,9-10H2
Instrument: TripleTOF 5600 SCIEX
Instrument type: LC-ESI-QTOF
Ms type: MS2
Ion mode: POSITIVE
Collision energy: 120
Fragmentation mode: CID
Ionization: ESI
Column name: Zorbax Eclipse Plus C18 2.1 mm x 150 mm, 3.5 um, Agilent
Retention time: 10.658 min
Precursor m/z: 414.9933
Precursor type: [M+H]+
m/z	relative intensity
69.0481	23
72.9868	312
81.0467	38
82.9458	33
87.0255	17
88.0319	75
89.0403	999
96.9843	129
99.0001	278
102.0473	12
106.943	11
122.9992	571
124.0068	197
132.9592	147
158.9752	252
