Mass spectrum: N,O-didesmethyl-venlafaxine; LC-ESI-QTOF; MS2; 100 V
Name: N,O-didesmethyl-venlafaxine
Class: Pharmaceutical; Metabolite
Formula: C15H23NO2
Exact mass: 249.1729
SMILES: CNCC(c1ccc(cc1)O)C2(CCCCC2)O
InChI: InChI=1S/C15H23NO2/c1-16-11-14(12-5-7-13(17)8-6-12)15(18)9-3-2-4-10-15/h5-8,14,16-18H,2-4,9-11H2,1H3
Instrument: TripleTOF 5600 SCIEX
Instrument type: LC-ESI-QTOF
Ms type: MS2
Ion mode: POSITIVE
Collision energy: 100
Fragmentation mode: CID
Ionization: ESI
Column name: Zorbax Eclipse Plus C18 2.1 mm x 150 mm, 3.5 um, Agilent
Retention time: 5.659 min
Precursor m/z: 250.1802
Precursor type: [M+H]+
m/z	relative intensity
42.0424	33
44.0581	533
53.0433	26
55.0237	35
55.0604	21
65.0413	102
66.0497	16
75.0247	11
77.0414	999
77.0771	16
78.0498	17
79.056	131
81.0347	20
81.0713	31
89.0388	57
91.0545	111
94.0415	16
103.0535	35
107.0487	189
115.0535	150
119.0489	15
127.0538	14
128.0608	16
131.0477	10
