Mass spectrum: Resveratrol; LC-ESI-QTOF; MS2; 40 V
Name: Resveratrol
Class: Pharmaceutical
Formula: C14H12O3
Exact mass: 228.0786
SMILES: c1cc(ccc1/C=C/c2cc(cc(c2)O)O)O
InChI: InChI=1S/C14H12O3/c15-12-5-3-10(4-6-12)1-2-11-7-13(16)9-14(17)8-11/h1-9,15-17H/b2-1+
Instrument: TripleTOF 5600 SCIEX
Instrument type: LC-ESI-QTOF
Ms type: MS2
Ion mode: NEGATIVE
Collision energy: 40
Fragmentation mode: CID
Ionization: ESI
Column name: Zorbax Eclipse Plus C18 2.1 mm x 150 mm, 3.5 um, Agilent
Retention time: 7.575 min
Precursor m/z: 227.0714
Precursor type: [M-H]-
m/z	relative intensity
41.0079	111
41.0122	111
70.9991	333
93.0357	111
114.9892	666
115.0578	333
117.0351	222
119.0498	111
143.0505	999
158.9775	111
185.0541	222
185.0621	333
227.0679	555
