Mass spectrum: Climbazole; LC-ESI-QTOF; MS2; 110 V
Name: Climbazole
Class: Pharmaceutical; Personal_care_product
Formula: C15H17ClN2O2
Exact mass: 292.0979
SMILES: CC(C)(C)C(=O)C(Oc1ccc(Cl)cc1)n2ccnc2
InChI: InChI=1S/C15H17ClN2O2/c1-15(2,3)13(19)14(18-9-8-17-10-18)20-12-6-4-11(16)5-7-12/h4-10,14H,1-3H3
Instrument: TripleTOF 5600 SCIEX
Instrument type: LC-ESI-QTOF
Ms type: MS2
Ion mode: POSITIVE
Collision energy: 110
Fragmentation mode: CID
Ionization: ESI
Column name: Zorbax Eclipse Plus C18 2.1 mm x 150 mm, 3.5 um, Agilent
Retention time: 8.761 min
Precursor m/z: 293.1051
Precursor type: [M+H]+
m/z	relative intensity
42.0494	12
48.9881	25
54.0488	16
55.0594	68
57.0748	240
60.9898	22
65.0426	74
68.0411	51
69.0475	184
69.0717	19
72.9863	408
73.0081	48
73.0221	29
73.0378	16
74.0181	999
75.0254	937
76.0344	35
77.0399	84
78.0494	16
81.0474	61
82.0541	12
84.9844	158
89.0403	22
91.0545	38
94.0402	19
98.9991	214
102.0468	16
110.9987	155
111.0226	19
115.0514	12
