Mass spectrum: (1,2-Diphenylpropyl)-trimethyl-ammonium; LC-ESI-QTOF; MS2; 140 V
Name: (1,2-Diphenylpropyl)-trimethyl-ammonium
Formula: [C18H24N]+
Exact mass: 254.1903
SMILES: CC(c1ccccc1)C(c2ccccc2)[N+](C)(C)C
InChI: InChI=1S/C18H24N/c1-15(16-11-7-5-8-12-16)18(19(2,3)4)17-13-9-6-10-14-17/h5-15,18H,1-4H3/q+1
Instrument: TripleTOF 5600 SCIEX
Instrument type: LC-ESI-QTOF
Ms type: MS2
Ion mode: POSITIVE
Collision energy: 140
Fragmentation mode: CID
Ionization: ESI
Column name: Zorbax Eclipse Plus C18 2.1 mm x 150 mm, 3.5 um, Agilent
Retention time: 7.228 min
Precursor m/z: 254.1903
Precursor type: [M]+
m/z	relative intensity
58.0709	97
65.0427	999
73.0088	55
74.0176	263
75.0258	97
76.0324	138
77.0406	235
86.0161	69
87.0238	83
89.0404	305
91.0549	249
115.0546	277
118.0659	55
150.0494	180
151.0589	69
163.0532	83
176.0607	97
