Mass spectrum: 4-(Dimethylamino)azobenzene; LC-ESI-QTOF; MS2; 70 V
Name: 4-(Dimethylamino)azobenzene
Formula: C14H15N3
Exact mass: 225.1266
SMILES: CN(C)C1=CC=C(C=C1)N=NC2=CC=CC=C2
InChI: InChI=1S/C14H15N3/c1-17(2)14-10-8-13(9-11-14)16-15-12-6-4-3-5-7-12/h3-11H,1-2H3
Instrument: TripleTOF 6600 SCIEX
Instrument type: LC-ESI-QTOF
Ms type: MS2
Ion mode: POSITIVE
Collision energy: 70
Fragmentation mode: CID
Ionization: ESI
Column name: Zorbax Eclipse Plus C18 2.1 mm x 150 mm, 3.5 um, Agilent
Retention time: 15.513 min
Precursor m/z: 226.1339
Precursor type: [M+H]+
m/z	relative intensity
39.0224	47
42.0331	25
50.0144	87
51.0223	578
63.0213	14
65.0376	249
66.0328	29
67.0404	24
68.0485	35
77.0378	999
78.0335	92
79.053	74
80.0483	24
90.0322	24
91.0438	91
92.0482	148
93.0475	82
103.0522	26
104.0479	113
105.0553	104
106.0636	51
116.0467	10
117.0504	13
118.0531	130
119.0592	46
120.0796	196
131.0587	12
132.0662	15
133.0746	65
152.0599	10
