Mass spectrum: Ketoconazole; LC-ESI-QTOF; MS2; 50 V
Name: Ketoconazole
Class: Fungicide; Pharmaceutical
Formula: C26H28Cl2N4O4
Exact mass: 530.1488
SMILES: CC(=O)N1CCN(CC1)C2=CC=C(C=C2)OCC3COC(O3)(CN4C=CN=C4)C5=C(C=C(C=C5)Cl)Cl
InChI: InChI=1S/C26H28Cl2N4O4/c1-19(33)31-10-12-32(13-11-31)21-3-5-22(6-4-21)34-15-23-16-35-26(36-23,17-30-9-8-29-18-30)24-7-2-20(27)14-25(24)28/h2-9,14,18,23H,10-13,15-17H2,1H3
Instrument: TripleTOF 5600 SCIEX
Instrument type: LC-ESI-QTOF
Ms type: MS2
Ion mode: POSITIVE
Collision energy: 50
Fragmentation mode: CID
Ionization: ESI
Column name: Zorbax Eclipse Plus C18 2.1 mm x 150 mm, 3.5 um, Agilent
Retention time: 7.94 min
Precursor m/z: 531.156
Precursor type: [M+H]+
m/z	relative intensity
69.0517	13
71.0657	10
81.0492	57
82.0568	211
86.0648	11
112.0766	84
122.0604	14
134.0619	12
135.0685	105
136.076	28
144.082	19
146.0598	10
146.0966	23
148.0766	72
158.9755	30
162.0931	10
163.1229	10
167.0254	11
167.0811	60
169.9673	20
172.075	18
172.9554	25
174.0918	99
177.1024	133
178.1088	38
184.9919	31
185.9626	82
189.1386	17
192.102	19
200.1056	16
203.0351	21
205.1339	10
209.0369	26
216.1008	46
217.1334	125
218.1137	12
219.1121	167
220.1206	88
234.1113	24
235.143	53
238.0046	74
244.0046	194
247.0636	19
255.0079	220
259.144	14
267.007	96
268.0171	14
281.022	28
282.0305	26
311.0305	31
378.0635	37
420.0744	43
421.1025	42
446.0999	52
487.1247	12
489.1436	619
531.1563	999
