Mass spectrum: Drometrizole; LC-ESI-QTOF; MS2; 60 V
Name: Drometrizole
Class: Industrial_process
Formula: C13H11N3O
Exact mass: 225.0902
SMILES: CC1=CC(=C(C=C1)O)N2N=C3C=CC=CC3=N2
InChI: InChI=1S/C13H11N3O/c1-9-6-7-13(17)12(8-9)16-14-10-4-2-3-5-11(10)15-16/h2-8,17H,1H3
Instrument: TripleTOF 5600 SCIEX
Instrument type: LC-ESI-QTOF
Ms type: MS2
Ion mode: POSITIVE
Collision energy: 60
Fragmentation mode: CID
Ionization: ESI
Column name: Zorbax Eclipse Plus C18 2.1 mm x 150 mm, 3.5 um, Agilent
Retention time: 15.201 min
Precursor m/z: 226.0975
Precursor type: [M+H]+
m/z	relative intensity
65.0462	191
77.044	999
78.0427	43
79.0547	183
80.0527	11
92.0542	45
94.068	10
102.0459	11
103.0551	11
105.0459	153
106.0552	29
107.0491	30
115.0558	29
120.0562	75
126.0482	14
127.055	131
128.0594	97
129.0581	16
140.0525	10
141.0736	13
151.0541	17
152.0627	49
153.0582	18
154.0654	202
155.0685	11
164.0498	18
167.0714	42
168.0784	17
180.0766	39
181.0757	137
182.0667	24
196.08	13
