Mass spectrum: Clonidine; LC-ESI-QTOF; MS2; 110 V
Name: Clonidine
Class: Pharmaceutical
Formula: C9H9Cl2N3
Exact mass: 229.0174
SMILES: C1CN=C(N1)NC2=C(C=CC=C2Cl)Cl
InChI: InChI=1S/C9H9Cl2N3/c10-6-2-1-3-7(11)8(6)14-9-12-4-5-13-9/h1-3H,4-5H2,(H2,12,13,14)
Instrument: TripleTOF 6600 SCIEX
Instrument type: LC-ESI-QTOF
Ms type: MS2
Ion mode: POSITIVE
Collision energy: 110
Fragmentation mode: CID
Ionization: ESI
Column name: Zorbax Eclipse Plus C18 2.1 mm x 150 mm, 3.5 um, Agilent
Retention time: 5.408 min
Precursor m/z: 230.0246
Precursor type: [M+H]+
m/z	relative intensity
37.0069	75
38.0142	64
41.0261	64
42.0206	75
42.0341	118
43.0291	85
44.0488	42
46.9671	161
48.9829	171
49.0078	53
50.0146	193
51.0223	150
61.0063	236
62.0143	257
63.0223	333
64.0177	193
72.9828	483
73.0061	204
74.0139	999
75.0104	64
75.0229	300
76.0177	42
77.0379	96
82.9437	85
88.0174	53
89.0366	64
90.0323	53
97.9776	96
99.0091	85
106.944	53
