Mass spectrum: Clopidogrel; LC-ESI-QTOF; MS2; 90 V
Name: Clopidogrel
Class: Pharmaceutical
Formula: C16H16ClNO2S
Exact mass: 321.059
SMILES: COC(=O)C(c1ccccc1Cl)N2CCc3c(ccs3)C2
InChI: InChI=1S/C16H16ClNO2S/c1-20-16(19)15(12-4-2-3-5-13(12)17)18-8-6-14-11(10-18)7-9-21-14/h2-5,7,9,15H,6,8,10H2,1H3
Instrument: TripleTOF 5600 SCIEX
Instrument type: LC-ESI-QTOF
Ms type: MS2
Ion mode: POSITIVE
Collision energy: 90
Fragmentation mode: CID
Ionization: ESI
Column name: Zorbax Eclipse Plus C18 2.1 mm x 150 mm, 3.5 um, Agilent
Retention time: 12.465 min
Precursor m/z: 322.0663
Precursor type: [M+H]+
m/z	relative intensity
45.0417	58
51.0299	181
65.0432	262
72.987	25
74.0181	35
75.0259	86
76.0335	12
77.0424	899
89.0408	360
90.048	128
91.0567	722
92.0637	23
99.0004	194
105.0344	293
111.0006	494
112.0078	158
117.0572	35
125.0163	999
125.0511	11
133.0289	145
138.9956	941
140.0022	31
155.0264	223
