Mass spectrum: Tributyl(1,3-dioxolan-2-ylmethyl)phosphonium; LC-ESI-QTOF; MS2; 70 V
Name: Tributyl(1,3-dioxolan-2-ylmethyl)phosphonium
Class: Industrial_process
Formula: [C16H34O2P]+
Exact mass: 289.2291
SMILES: CCCC[P+](CCCC)(CCCC)CC1OCCO1
InChI: InChI=1S/C16H34O2P/c1-4-7-12-19(13-8-5-2,14-9-6-3)15-16-17-10-11-18-16/h16H,4-15H2,1-3H3/q+1
Instrument: TripleTOF 5600 SCIEX
Instrument type: LC-ESI-QTOF
Ms type: MS2
Ion mode: POSITIVE
Collision energy: 70
Fragmentation mode: CID
Ionization: ESI
Column name: Zorbax Eclipse Plus C18 2.1 mm x 150 mm, 3.5 um, Agilent
Retention time: 8.761 min
Precursor m/z: 289.2291
Precursor type: [M]+
m/z	relative intensity
56.9946	130
59.0098	132
61.0259	405
62.033	184
73.031	123
75.0394	368
76.0471	999
89.0522	74
90.0609	337
103.0677	63
105.0828	50
131.0991	137
145.1146	87
161.1459	84
173.1455	53
217.2086	77
