Mass spectrum: Florasulam; LC-ESI-QTOF; MS2; 140 V
Name: Florasulam
Class: Herbicide
Formula: C12H8F3N5O3S
Exact mass: 359.03
SMILES: COC1=NC=C(C2=NC(=NN21)S(=O)(=O)NC3=C(C=CC=C3F)F)F
InChI: InChI=1S/C12H8F3N5O3S/c1-23-12-16-5-8(15)10-17-11(18-20(10)12)24(21,22)19-9-6(13)3-2-4-7(9)14/h2-5,19H,1H3
Instrument: TripleTOF 6600 SCIEX
Instrument type: LC-ESI-QTOF
Ms type: MS2
Ion mode: POSITIVE
Collision energy: 140
Fragmentation mode: CID
Ionization: ESI
Column name: Zorbax Eclipse Plus C18 2.1 mm x 150 mm, 3.5 um, Agilent
Retention time: 9.723 min
Precursor m/z: 360.0373
Precursor type: [M+H]+
m/z	relative intensity
30.996	45
33.0115	10
37.0046	14
38.013	21
46.0064	14
50.013	24
51.0017	49
51.0212	35
52.0157	65
53.0107	17
56.0036	42
57.0108	99
58.0061	26
59.9969	54
61.0048	270
62.0125	318
63.0078	24
63.0202	431
64.0159	15
65.0232	14
70.0063	90
75.0012	157
76.0151	44
77.0113	22
81.0107	999
82.0062	21
82.0181	150
83.0261	12
84.0094	14
87.0075	17
88.0153	99
89.0238	40
99.0052	19
101.0161	130
102.023	14
108.02	33
109.0291	42
129.0371	14
