Mass spectrum: Sulpiride; LC-ESI-QTOF; MS2; 60 V
Name: Sulpiride
Class: Pharmaceutical
Formula: C15H23N3O4S
Exact mass: 341.1409
SMILES: CCN1CCCC1CNC(=O)c2cc(ccc2OC)[S](N)(=O)=O
InChI: InChI=1S/C15H23N3O4S/c1-3-18-8-4-5-11(18)10-17-15(19)13-9-12(23(16,20)21)6-7-14(13)22-2/h6-7,9,11H,3-5,8,10H2,1-2H3,(H,17,19)(H2,16,20,21)
Instrument: TripleTOF 5600 SCIEX
Instrument type: LC-ESI-QTOF
Ms type: MS2
Ion mode: POSITIVE
Collision energy: 60
Fragmentation mode: CID
Ionization: ESI
Column name: Zorbax Eclipse Plus C18 2.1 mm x 150 mm, 3.5 um, Agilent
Retention time: 4.958 min
Precursor m/z: 342.1482
Precursor type: [M+H]+
m/z	relative intensity
55.0608	23
56.0549	53
58.0708	104
65.0423	12
67.0573	17
70.0684	17
75.0246	70
77.0402	24
78.0495	17
79.0434	14
82.0668	25
84.0826	397
92.0504	12
95.0497	15
98.0966	213
105.034	13
106.0396	11
107.0111	14
107.0375	46
108.0445	74
109.0286	48
110.0956	28
112.1117	613
133.0272	68
134.0358	139
138.9846	87
154.978	32
156.0106	33
170.9968	37
184.0163	94
198.9931	51
214.0157	999
