Mass spectrum: (4-Chlorobenzyl)-triphenylphosphonium; LC-ESI-QTOF; MS2; 110 V
Name: (4-Chlorobenzyl)-triphenylphosphonium
Class: Industrial_process
Formula: [C25H21ClP]+
Exact mass: 387.1064
SMILES: Clc1ccc(C[P+](c2ccccc2)(c3ccccc3)c4ccccc4)cc1
InChI: InChI=1S/C25H21ClP/c26-22-18-16-21(17-19-22)20-27(23-10-4-1-5-11-23,24-12-6-2-7-13-24)25-14-8-3-9-15-25/h1-19H,20H2/q+1
Instrument: TripleTOF 5600 SCIEX
Instrument type: LC-ESI-QTOF
Ms type: MS2
Ion mode: POSITIVE
Collision energy: 110
Fragmentation mode: CID
Ionization: ESI
Column name: Zorbax Eclipse Plus C18 2.1 mm x 150 mm, 3.5 um, Agilent
Retention time: 9.6 min
Precursor m/z: 387.1064
Precursor type: [M]+
m/z	relative intensity
72.9862	139
89.039	839
90.0468	283
98.9996	441
107.0041	560
115.0535	195
125.015	607
133.0197	62
139.0535	157
151.0541	58
152.062	819
157.0197	393
181.0193	96
183.0356	999
