Mass spectrum: N,N-Dibenzylhydroxylamine; LC-ESI-QTOF; MS2; 100 V
Name: N,N-Dibenzylhydroxylamine
Class: Industrial_process
Formula: C14H15NO
Exact mass: 213.1154
SMILES: C1=CC=C(C=C1)CN(CC2=CC=CC=C2)O
InChI: InChI=1S/C14H15NO/c16-15(11-13-7-3-1-4-8-13)12-14-9-5-2-6-10-14/h1-10,16H,11-12H2
Instrument: TripleTOF 6600 SCIEX
Instrument type: LC-ESI-QTOF
Ms type: MS2
Ion mode: POSITIVE
Collision energy: 100
Fragmentation mode: CID
Ionization: ESI
Column name: Zorbax Eclipse Plus C18 2.1 mm x 150 mm, 3.5 um, Agilent
Retention time: 8.957 min
Precursor m/z: 214.1227
Precursor type: [M+H]+
m/z	relative intensity
37.0066	175
38.0148	168
39.0227	999
41.0382	70
49.0067	49
50.0142	175
51.0225	175
61.0068	56
62.0141	126
63.0224	211
65.038	647
91.0528	105
