Mass spectrum: Timolol; LC-ESI-QTOF; MS2; 50 V
Name: Timolol
Class: Pharmaceutical
Formula: C13H24N4O3S
Exact mass: 316.1569
SMILES: CC(C)(C)NCC(COC1=NSN=C1N2CCOCC2)O
InChI: InChI=1S/C13H24N4O3S/c1-13(2,3)14-8-10(18)9-20-12-11(15-21-16-12)17-4-6-19-7-5-17/h10,14,18H,4-9H2,1-3H3
Instrument: TripleTOF 5600 SCIEX
Instrument type: LC-ESI-QTOF
Ms type: MS2
Ion mode: POSITIVE
Collision energy: 50
Fragmentation mode: CID
Ionization: ESI
Column name: Zorbax Eclipse Plus C18 2.1 mm x 150 mm, 3.5 um, Agilent
Retention time: 5.513 min
Precursor m/z: 317.1642
Precursor type: [M+H]+
m/z	relative intensity
56.0582	221
59.9988	15
69.0506	50
70.0625	11
74.01	120
74.0655	905
86.0628	91
99.0024	93
101.0179	25
102.9981	15
104.017	15
113.0719	668
118.0345	27
126.9961	79
127.9928	38
130.004	15
132.0135	11
144.0233	999
145.0443	177
159.0227	66
167.0656	11
170.0375	75
172.0528	61
188.0488	930
200.0481	34
244.0746	218
