Mass spectrum: Estradiol; LC-ESI-QTOF; MS2; 10 V
Name: Estradiol
Class: Pharmaceutical
Formula: C18H24O2
Exact mass: 272.1776
SMILES: CC12CCC3C(C1CCC2O)CCC4=C3C=CC(=C4)O
InChI: InChI=1S/C18H24O2/c1-18-9-8-14-13-5-3-12(19)10-11(13)2-4-15(14)16(18)6-7-17(18)20/h3,5,10,14-17,19-20H,2,4,6-9H2,1H3
Instrument: TripleTOF 5600 SCIEX
Instrument type: LC-ESI-QTOF
Ms type: MS2
Ion mode: POSITIVE
Collision energy: 10
Fragmentation mode: CID
Ionization: ESI
Column name: Zorbax Eclipse Plus C18 2.1 mm x 150 mm, 3.5 um, Agilent
Retention time: 10.403 min
Precursor m/z: 273.1849
Precursor type: [M+H]+
m/z	relative intensity
107.0484	20
135.1167	44
159.0802	38
173.0963	13
255.1748	134
273.1848	999
