Mass spectrum: 5-Chlorobenzotriazole; LC-ESI-QTOF; MS2; 40 V
Name: 5-Chlorobenzotriazole
Class: Industrial_process
Formula: C6H4ClN3
Exact mass: 153.0094
SMILES: Clc1ccc2n[nH]nc2c1
InChI: InChI=1S/C6H4ClN3/c7-4-1-2-5-6(3-4)9-10-8-5/h1-3H,(H,8,9,10)
Instrument: TripleTOF 5600 SCIEX
Instrument type: LC-ESI-QTOF
Ms type: MS2
Ion mode: POSITIVE
Collision energy: 40
Fragmentation mode: CID
Ionization: ESI
Column name: Zorbax Eclipse Plus C18 2.1 mm x 150 mm, 3.5 um, Agilent
Retention time: 7.635 min
Precursor m/z: 154.0167
Precursor type: [M+H]+
m/z	relative intensity
41.035	11
61.9836	37
65.0302	35
66.0369	12
72.9875	606
75.0113	24
76.0201	44
90.0353	528
91.043	486
97.9911	13
99.0002	999
99.9951	11
119.0474	143
125.0022	56
126.01	157
154.0162	215
