Mass spectrum: Pantoprazole sulfide; LC-ESI-QTOF; MS2; 70 V
Name: Pantoprazole sulfide
Class: Pharmaceutical; Metabolite
Formula: C16H15F2N3O3S
Exact mass: 367.0802
SMILES: COC1=C(C(=NC=C1)CSC2=NC3=C(N2)C=CC(=C3)OC(F)F)OC
InChI: InChI=1S/C16H15F2N3O3S/c1-22-13-5-6-19-12(14(13)23-2)8-25-16-20-10-4-3-9(24-15(17)18)7-11(10)21-16/h3-7,15H,8H2,1-2H3,(H,20,21)
Instrument: TripleTOF 5600 SCIEX
Instrument type: LC-ESI-QTOF
Ms type: MS2
Ion mode: POSITIVE
Collision energy: 70
Fragmentation mode: CID
Ionization: ESI
Column name: Zorbax Eclipse Plus C18 2.1 mm x 150 mm, 3.5 um, Agilent
Retention time: 7.575 min
Precursor m/z: 368.0875
Precursor type: [M+H]+
m/z	relative intensity
42.0423	19
51.029	60
65.0441	668
69.037	19
78.036	18
79.0451	21
80.0515	16
92.0518	999
92.0833	12
93.0577	9
94.0298	14
94.067	16
96.0045	14
107.0365	28
107.0673	12
108.0442	21
110.0604	52
117.0454	18
118.0532	20
122.0089	13
122.0604	66
123.0133	28
135.0325	14
135.0553	73
136.0393	121
137.0473	24
138.0549	104
150.0543	30
151.0083	111
152.0155	10
152.0716	25
154.0316	73
168.0108	14
169.0189	10
184.0418	50
185.053	32
223.0555	22
