Mass spectrum: Acridone; LC-ESI-QTOF; MS2; 40 V
Name: Acridone
Class: Metabolite; Pharmaceutical; Transformation_product; Transformation_product-Metabolite
Formula: C13H9NO
Exact mass: 195.0684
SMILES: O=C1c2ccccc2Nc3ccccc13
InChI: InChI=1S/C13H9NO/c15-13-9-5-1-3-7-11(9)14-12-8-4-2-6-10(12)13/h1-8H,(H,14,15)
Instrument: TripleTOF 5600 SCIEX
Instrument type: LC-ESI-QTOF
Ms type: MS2
Ion mode: POSITIVE
Collision energy: 40
Fragmentation mode: CID
Ionization: ESI
Column name: Zorbax Eclipse Plus C18 2.1 mm x 150 mm, 3.5 um, Agilent
Retention time: 8.5 min
Precursor m/z: 196.0757
Precursor type: [M+H]+
m/z	relative intensity
115.055	19
128.0495	14
139.0549	30
140.0555	25
141.0705	19
151.0544	34
166.0658	107
167.0738	999
168.0814	72
177.0581	14
178.0655	57
195.069	255
196.0769	942
