Mass spectrum: Diphenhydramine; LC-ESI-QTOF; MS2; 70 V
Name: Diphenhydramine
Class: Pharmaceutical
Formula: C17H21NO
Exact mass: 255.1623
SMILES: CN(C)CCOC(c1ccccc1)c2ccccc2
InChI: InChI=1S/C17H21NO/c1-18(2)13-14-19-17(15-9-5-3-6-10-15)16-11-7-4-8-12-16/h3-12,17H,13-14H2,1-2H3
Instrument: TripleTOF 5600 SCIEX
Instrument type: LC-ESI-QTOF
Ms type: MS2
Ion mode: POSITIVE
Collision energy: 70
Fragmentation mode: CID
Ionization: ESI
Column name: Zorbax Eclipse Plus C18 2.1 mm x 150 mm, 3.5 um, Agilent
Retention time: 7.721 min
Precursor m/z: 256.1696
Precursor type: [M+H]+
m/z	relative intensity
65.0436	10
89.04	10
102.0469	15
115.0549	138
126.0471	22
127.0547	15
128.0624	138
139.0546	40
141.0702	69
150.0462	25
151.0547	129
152.062	769
163.0553	35
164.0626	113
165.07	999
166.0784	91
167.085	20
