Mass spectrum: Clindamycin; LC-ESI-QTOF; MS2; 110 V
Name: Clindamycin
Class: Antimicrobial; Pharmaceutical
Formula: C18H33ClN2O5S
Exact mass: 424.1799
SMILES: CCCC1CC(N(C1)C)C(=O)NC(C2C(C(C(C(O2)SC)O)O)O)C(C)Cl
InChI: InChI=1S/C18H33ClN2O5S/c1-5-6-10-7-11(21(3)8-10)17(25)20-12(9(2)19)16-14(23)13(22)15(24)18(26-16)27-4/h9-16,18,22-24H,5-8H2,1-4H3,(H,20,25)
Instrument: TripleTOF 5600 SCIEX
Instrument type: LC-ESI-QTOF
Ms type: MS2
Ion mode: POSITIVE
Collision energy: 110
Fragmentation mode: CID
Ionization: ESI
Column name: Zorbax Eclipse Plus C18 2.1 mm x 150 mm, 3.5 um, Agilent
Retention time: 6.261 min
Precursor m/z: 425.1871
Precursor type: [M+H]+
m/z	relative intensity
42.047	190
44.0624	45
58.0733	48
65.0453	14
67.047	35
67.0603	73
68.0554	227
69.0754	127
70.0711	332
77.0412	12
80.0536	22
81.0605	14
82.0691	691
83.0765	280
84.0845	89
93.0709	12
94.0701	16
95.0876	35
96.0833	108
97.0897	31
98.0966	16
124.1125	64
126.1286	999
