Mass spectrum: Coumaphos; LC-ESI-QTOF; MS2; 40 V
Name: Coumaphos
Class: Insecticide
Formula: C14H16ClO5PS
Exact mass: 362.0145
SMILES: CCOP(=S)(OCC)OC1=CC2=C(C=C1)C(=C(C(=O)O2)Cl)C
InChI: InChI=1S/C14H16ClO5PS/c1-4-17-21(22,18-5-2)20-10-6-7-11-9(3)13(15)14(16)19-12(11)8-10/h6-8H,4-5H2,1-3H3
Instrument: TripleTOF 6600 SCIEX
Instrument type: LC-ESI-QTOF
Ms type: MS2
Ion mode: POSITIVE
Collision energy: 40
Fragmentation mode: CID
Ionization: ESI
Column name: Zorbax Eclipse Plus C18 2.1 mm x 150 mm, 3.5 um, Agilent
Retention time: 14.049 min
Precursor m/z: 363.0218
Precursor type: [M+H]+
m/z	relative intensity
96.9496	22
115.0533	12
131.0482	12
147.0255	18
150.0219	12
163.0203	12
191.0152	10
194.0121	24
211.0154	201
224.9764	23
225.9846	76
226.9933	999
270.9375	14
272.971	33
288.9491	220
306.9599	47
