Mass spectrum: Crotamiton; LC-ESI-QTOF; MS2; 140 V
Name: Crotamiton
Formula: C13H17NO
Exact mass: 203.131
SMILES: CCN(C1=CC=CC=C1C)C(=O)C=CC
InChI: InChI=1S/C13H17NO/c1-4-8-13(15)14(5-2)12-10-7-6-9-11(12)3/h4,6-10H,5H2,1-3H3
Instrument: TripleTOF 6600 SCIEX
Instrument type: LC-ESI-QTOF
Ms type: MS2
Ion mode: POSITIVE
Collision energy: 140
Fragmentation mode: CID
Ionization: ESI
Column name: Zorbax Eclipse Plus C18 2.1 mm x 150 mm, 3.5 um, Agilent
Retention time: 11.073 min
Precursor m/z: 204.1383
Precursor type: [M+H]+
m/z	relative intensity
35.9994	97
37.0076	576
38.0049	11
38.0152	511
39.0233	999
41.0384	12
49.0071	45
50.015	248
51.0228	182
59.999	11
61.0069	92
62.0146	124
63.0222	97
65.0385	18
73.0065	13
74.0146	98
75.0227	15
77.0381	15
89.0371	15
