Mass spectrum: Indoxacarb; LC-ESI-QTOF; MS2; 100 V
Name: Indoxacarb
Class: Insecticide
Formula: C22H17ClF3N3O7
Exact mass: 527.0707
SMILES: COC(=O)[C@]12Cc3cc(ccc3C1=NN(CO2)C(=O)N(c4ccc(cc4)OC(F)(F)F)C(=O)OC)Cl
InChI: InChI=1S/C22H17ClF3N3O7/c1-33-18(30)21-10-12-9-13(23)3-8-16(12)17(21)27-28(11-35-21)19(31)29(20(32)34-2)14-4-6-15(7-5-14)36-22(24,25)26/h3-9H,10-11H2,1-2H3/t21-/m0/s1
Instrument: TripleTOF 5600 SCIEX
Instrument type: LC-ESI-QTOF
Ms type: MS2
Ion mode: POSITIVE
Collision energy: 100
Fragmentation mode: CID
Ionization: ESI
Column name: Zorbax Eclipse Plus C18 2.1 mm x 150 mm, 3.5 um, Agilent
Retention time: 15.019 min
Precursor m/z: 528.078
Precursor type: [M+H]+
m/z	relative intensity
51.0289	15
56.0196	127
59.0182	37
68.9992	89
74.019	13
75.0264	31
77.0426	131
78.0377	126
83.0315	11
88.0324	12
89.0405	35
90.0347	33
95.0305	21
98.0159	11
99.0237	74
100.0193	34
101.0396	38
102.047	39
104.05	58
106.0301	422
109.0373	14
113.0386	63
114.0367	155
115.0544	227
116.0617	59
123.0005	263
124.0071	61
126.0364	202
127.0434	336
128.0616	144
129.0546	13
132.0447	21
134.0247	999
134.9994	55
136.0074	102
137.0147	23
140.049	26
141.0542	38
142.0651	55
146.9998	41
147.0284	28
148.0069	79
149.0153	232
150.0115	552
151.0187	10
152.0024	125
153.0482	11
154.0403	66
155.06	44
157.0282	35
161.0029	68
162.0115	333
163.0095	45
164.0023	47
164.026	35
165.0328	10
167.0256	45
175.0232	102
176.0221	68
177.0335	18
179.0251	18
189.0217	26
190.047	27
203.0196	615
204.008	21
