Mass spectrum: Tris(4-methylphenyl) phosphate; LC-ESI-QTOF; MS2; 70 V
Name: Tris(4-methylphenyl) phosphate
Class: Industrial_process
Formula: C21H21O4P
Exact mass: 368.1177
SMILES: CC1=CC=C(C=C1)OP(=O)(OC2=CC=C(C=C2)C)OC3=CC=C(C=C3)C
InChI: InChI=1S/C21H21O4P/c1-16-4-10-19(11-5-16)23-26(22,24-20-12-6-17(2)7-13-20)25-21-14-8-18(3)9-15-21/h4-15H,1-3H3
Instrument: TripleTOF 6600 SCIEX
Instrument type: LC-ESI-QTOF
Ms type: MS2
Ion mode: POSITIVE
Collision energy: 70
Fragmentation mode: CID
Ionization: ESI
Column name: Zorbax Eclipse Plus C18 2.1 mm x 150 mm, 3.5 um, Agilent
Retention time: 15.924 min
Precursor m/z: 369.125
Precursor type: [M+H]+
m/z	relative intensity
39.0221	20
65.0381	272
77.0378	50
79.0534	25
91.0539	346
107.0484	28
115.0537	18
141.0693	18
152.0619	29
153.0698	14
164.0621	30
165.0711	999
166.0783	74
178.0785	58
179.0864	16
181.0654	37
195.0814	118
196.0891	36
200.0408	14
226.0805	10
239.0873	46
240.0962	20
241.1029	12
243.0583	13
255.1204	12
