Mass spectrum: Dinoseb; LC-ESI-QTOF; MS2; 80 V
Name: Dinoseb
Class: Herbicide
Formula: C10H12N2O5
Exact mass: 240.0746
SMILES: CCC(C)c1cc(cc(c1O)[N+](=O)[O-])[N+](=O)[O-]
InChI: InChI=1S/C10H12N2O5/c1-3-6(2)8-4-7(11(14)15)5-9(10(8)13)12(16)17/h4-6,13H,3H2,1-2H3
Instrument: TripleTOF 6600 SCIEX
Instrument type: LC-ESI-QTOF
Ms type: MS2
Ion mode: NEGATIVE
Collision energy: 80
Fragmentation mode: CID
Ionization: ESI
Column name: Zorbax Eclipse Plus C18 2.1 mm x 150 mm, 3.5 um, Agilent
Retention time: 13.78182 min
Precursor m/z: 239.0673
Precursor type: [M-H]-
m/z	relative intensity
41.0022	10
45.9924	379
68.9961	11
87.0216	10
88.0295	48
104.0247	162
121.0285	12
134.0233	999
148.0393	18
