Mass spectrum: 4-(2,4-Dichlorophenoxy)butanoic acid; LC-ESI-QTOF; MS2; 50 V
Name: 4-(2,4-Dichlorophenoxy)butanoic acid
Class: Herbicide
Formula: C10H10Cl2O3
Exact mass: 248.0007
SMILES: C1=CC(=C(C=C1Cl)Cl)OCCCC(=O)O
InChI: InChI=1S/C10H10Cl2O3/c11-7-3-4-9(8(12)6-7)15-5-1-2-10(13)14/h3-4,6H,1-2,5H2,(H,13,14)
Instrument: TripleTOF 6600 SCIEX
Instrument type: LC-ESI-QTOF
Ms type: MS2
Ion mode: POSITIVE
Collision energy: 50
Fragmentation mode: CID
Ionization: ESI
Column name: Zorbax Eclipse Plus C18 2.1 mm x 150 mm, 3.5 um, Agilent
Retention time: 11.685 min
Precursor m/z: 249.008
Precursor type: [M+H]+
m/z	relative intensity
37.0074	46
38.016	62
39.023	515
41.0389	842
43.0179	608
44.9966	62
45.0334	999
69.0329	343
74.013	78
75.0224	93
77.0394	31
79.051	15
82.9441	78
84.9824	15
87.0432	218
89.0354	31
90.0418	15
91.0514	15
99.0021	62
103.0536	46
105.0668	46
106.9466	15
108.9835	249
109.9888	15
110.9988	202
112.0063	124
115.0549	15
118.0433	31
119.048	31
120.95	15
125.0181	93
127.9999	46
132.9602	359
133.0654	31
139.0024	46
144.9588	187
145.9621	31
146.9786	31
149.0145	15
153.0061	31
153.0189	15
154.0177	93
172.9659	93
174.9672	62
