Mass spectrum: Proquinazid; LC-ESI-QTOF; MS2; 150 V
Name: Proquinazid
Class: Fungicide
Formula: C14H17IN2O2
Exact mass: 372.0335
SMILES: CCCN1C(=O)C2=C(C=CC(=C2)I)N=C1OCCC
InChI: InChI=1S/C14H17IN2O2/c1-3-7-17-13(18)11-9-10(15)5-6-12(11)16-14(17)19-8-4-2/h5-6,9H,3-4,7-8H2,1-2H3
Instrument: TripleTOF 6600 SCIEX
Instrument type: LC-ESI-QTOF
Ms type: MS2
Ion mode: POSITIVE
Collision energy: 150
Fragmentation mode: CID
Ionization: ESI
Column name: Zorbax Eclipse Plus C18 2.1 mm x 150 mm, 3.5 um, Agilent
Retention time: 17.121 min
Precursor m/z: 373.0408
Precursor type: [M+H]+
m/z	relative intensity
36.0029	18
37.011	88
38.0188	117
39.0268	123
41.0422	40
50.0187	19
52.0215	41
60.0029	133
61.0111	638
62.0189	999
63.0229	277
64.0222	20
64.034	35
65.0293	38
66.0137	25
74.0186	23
75.0133	43
76.0207	10
86.0052	23
87.0133	60
88.0215	362
89.0291	138
90.0371	17
91.0441	10
92.0282	15
116.0397	10
117.0228	27
140.9204	38
164.9206	38
215.9306	29
