Mass spectrum: Spirodiclofen-enol; LC-ESI-QTOF; MS2; 30 V
Name: Spirodiclofen-enol
Formula: C15H14Cl2O3
Exact mass: 312.032
SMILES: C1CCC2(CC1)C(=C(C(=O)O2)C3=C(C=C(C=C3)Cl)Cl)O
InChI: InChI=1S/C15H14Cl2O3/c16-9-4-5-10(11(17)8-9)12-13(18)15(20-14(12)19)6-2-1-3-7-15/h4-5,8,18H,1-3,6-7H2
Instrument: TripleTOF 6600 SCIEX
Instrument type: LC-ESI-QTOF
Ms type: MS2
Ion mode: POSITIVE
Collision energy: 30
Fragmentation mode: CID
Ionization: ESI
Column name: Zorbax Eclipse Plus C18 2.1 mm x 150 mm, 3.5 um, Agilent
Retention time: 12.261 min
Precursor m/z: 313.0393
Precursor type: [M+H]+
m/z	relative intensity
67.054	14
79.0536	12
81.0693	39
156.9599	46
158.9754	160
170.9744	11
172.9899	11
174.9693	27
179.0845	24
184.9546	264
186.9697	34
196.9907	26
202.9643	41
208.9903	10
212.9498	999
214.0528	58
214.9651	169
223.0054	24
230.9604	532
239.0016	148
239.035	21
242.0489	17
249.0211	95
267.0326	255
277.0166	70
295.0279	817
313.0384	127
