Mass spectrum: L-Thyronine; LC-ESI-QTOF; MS2; 40 V
Name: L-Thyronine
Class: Pharmaceutical
Formula: C15H15NO4
Exact mass: 273.1001
SMILES: N[C@@H](Cc1ccc(Oc2ccc(O)cc2)cc1)C(O)=O
InChI: InChI=1S/C15H15NO4/c16-14(15(18)19)9-10-1-5-12(6-2-10)20-13-7-3-11(17)4-8-13/h1-8,14,17H,9,16H2,(H,18,19)/t14-/m0/s1
Instrument: TripleTOF 5600 SCIEX
Instrument type: LC-ESI-QTOF
Ms type: MS2
Ion mode: POSITIVE
Collision energy: 40
Fragmentation mode: CID
Ionization: ESI
Column name: Zorbax Eclipse Plus C18 2.1 mm x 150 mm, 3.5 um, Agilent
Retention time: 5.619 min
Precursor m/z: 274.1074
Precursor type: [M+H]+
m/z	relative intensity
65.0387	92
66.0467	23
77.0379	20
81.0337	208
91.0543	112
92.0618	25
93.0334	64
94.0414	493
102.0456	10
103.0551	33
104.0505	66
106.0674	17
107.0493	17
109.0287	439
110.0368	15
115.0543	77
117.0564	17
117.0698	12
118.0652	559
119.0731	970
120.0584	10
120.0805	48
128.0636	25
141.0698	223
144.057	17
147.0459	17
152.0634	15
153.0686	17
153.0753	10
155.0854	38
159.0822	25
164.0625	15
165.0702	141
168.0549	25
169.0657	243
171.0734	10
181.0649	20
183.0815	48
187.0755	123
194.0726	23
197.058	56
199.081	17
210.0699	17
211.0758	251
215.0716	999
228.1025	323
239.0725	12
257.0833	71
