Mass spectrum: Etofibrate; LC-ESI-QTOF; MS2; 40 V
Name: Etofibrate
Class: Pharmaceutical
Formula: C18H18ClNO5
Exact mass: 363.0874
SMILES: CC(C)(C(=O)OCCOC(=O)C1=CN=CC=C1)OC2=CC=C(C=C2)Cl
InChI: InChI=1S/C18H18ClNO5/c1-18(2,25-15-7-5-14(19)6-8-15)17(22)24-11-10-23-16(21)13-4-3-9-20-12-13/h3-9,12H,10-11H2,1-2H3
Instrument: TripleTOF 6600 SCIEX
Instrument type: LC-ESI-QTOF
Ms type: MS2
Ion mode: POSITIVE
Collision energy: 40
Fragmentation mode: CID
Ionization: ESI
Column name: Zorbax Eclipse Plus C18 2.1 mm x 150 mm, 3.5 um, Agilent
Retention time: 12.631 min
Precursor m/z: 364.0946
Precursor type: [M+H]+
m/z	relative intensity
41.0384	21
55.0174	13
69.0329	88
73.0277	52
78.0332	68
80.0489	23
99.0436	407
106.0285	279
113.0591	338
114.0671	999
124.0388	912
129.0094	39
141.0091	44
150.0544	449
168.0648	34
169.0406	198
236.0914	29
237.0987	23
241.0623	35
364.0941	30
