Mass spectrum: 1,2-Benzisothiazol-3(2H)-one; LC-ESI-QTOF; MS2; 50 V
Name: 1,2-Benzisothiazol-3(2H)-one
Class: Antimicrobial
Formula: C7H5NOS
Exact mass: 151.0092
SMILES: C1=CC=C2C(=C1)C(=O)NS2
InChI: InChI=1S/C7H5NOS/c9-7-5-3-1-2-4-6(5)10-8-7/h1-4H,(H,8,9)
Instrument: TripleTOF 6600 SCIEX
Instrument type: LC-ESI-QTOF
Ms type: MS2
Ion mode: POSITIVE
Collision energy: 50
Fragmentation mode: CID
Ionization: ESI
Column name: Zorbax Eclipse Plus C18 2.1 mm x 150 mm, 3.5 um, Agilent
Retention time: 6.233 min
Precursor m/z: 152.0165
Precursor type: [M+H]+
m/z	relative intensity
37.0066	33
38.0146	25
39.0225	185
44.9791	28
50.0145	48
51.0224	260
53.0377	113
62.0144	36
63.0223	535
64.0175	182
65.0382	285
68.9785	149
76.0303	20
77.0379	999
80.0486	203
80.9794	10
81.986	51
82.9937	12
90.033	553
92.9785	64
97.01	20
105.0326	92
105.0439	15
106.9944	131
108.0016	105
109.0096	141
132.996	82
134.0048	175
152.0151	18
