Mass spectrum: Hexazinone; LC-ESI-QTOF; MS2; 60 V
Name: Hexazinone
Class: Herbicide
Formula: C12H20N4O2
Exact mass: 252.1586
SMILES: CN1C(=NC(=O)N(C1=O)C2CCCCC2)N(C)C
InChI: InChI=1S/C12H20N4O2/c1-14(2)10-13-11(17)16(12(18)15(10)3)9-7-5-4-6-8-9/h9H,4-8H2,1-3H3
Instrument: TripleTOF 6600 SCIEX
Instrument type: LC-ESI-QTOF
Ms type: MS2
Ion mode: POSITIVE
Collision energy: 60
Fragmentation mode: CID
Ionization: ESI
Column name: Zorbax Eclipse Plus C18 2.1 mm x 150 mm, 3.5 um, Agilent
Retention time: 8.427 min
Precursor m/z: 253.1659
Precursor type: [M+H]+
m/z	relative intensity
39.0226	15
41.038	12
42.0335	40
44.0491	43
46.0648	11
55.029	33
55.0538	49
56.0365	39
58.0282	21
58.0645	66
69.0082	32
69.0438	116
69.9918	33
70.052	63
71.0601	999
72.0438	26
83.0233	108
85.0757	491
96.0548	12
101.0339	16
114.0648	11
