Mass spectrum: Caprolactam; LC-ESI-QTOF; MS2; 90 V
Name: Caprolactam
Class: Food_additive; Industrial_process
Formula: C6H11NO
Exact mass: 113.0841
SMILES: C1CCC(=O)NCC1
InChI: InChI=1S/C6H11NO/c8-6-4-2-1-3-5-7-6/h1-5H2,(H,7,8)
Instrument: TripleTOF 6600 SCIEX
Instrument type: LC-ESI-QTOF
Ms type: MS2
Ion mode: POSITIVE
Collision energy: 90
Fragmentation mode: CID
Ionization: ESI
Column name: Zorbax Eclipse Plus C18 2.1 mm x 150 mm, 3.5 um, Agilent
Retention time: 5.197 min
Precursor m/z: 114.0914
Precursor type: [M+H]+
m/z	relative intensity
36.0006	74
37.0077	278
38.0031	88
38.0155	250
39.0238	278
41.0266	37
42.0104	46
42.0346	32
43.0066	23
43.0189	23
44.0138	999
50.0162	32
53.0146	32
