Mass spectrum: 4-Acetamidophenyl D-glucopyranosiduronic acid; LC-ESI-QTOF; MS2; 30 V
Name: 4-Acetamidophenyl D-glucopyranosiduronic acid
Class: Metabolite; Pharmaceutical
Formula: C14H17NO8
Exact mass: 327.0954
SMILES: O=C(Nc2ccc(OC1O[C@H](C(=O)O)[C@@H](O)[C@H](O)[C@H]1O)cc2)C
InChI: InChI=1S/C14H17NO8/c1-6(16)15-7-2-4-8(5-3-7)22-14-11(19)9(17)10(18)12(23-14)13(20)21/h2-5,9-12,14,17-19H,1H3,(H,15,16)(H,20,21)/t9-,10-,11+,12-,14?/m0/s1
Instrument: TripleTOF 5600 SCIEX
Instrument type: LC-ESI-QTOF
Ms type: MS2
Ion mode: NEGATIVE
Collision energy: 30
Fragmentation mode: CID
Ionization: ESI
Column name: Zorbax Eclipse Plus C18 2.1 mm x 150 mm, 3.5 um, Agilent
Retention time: 4.58 min
Precursor m/z: 326.0881
Precursor type: [M-H]-
m/z	relative intensity
59.0159	76
71.0153	61
85.0303	280
87.0098	59
95.0151	103
99.0101	155
107.039	56
113.0252	393
117.0198	88
150.0566	999
