Mass spectrum: Clodinafop-Propargyl; LC-ESI-QTOF; MS2; 120 V
Name: Clodinafop-Propargyl
Class: Herbicide
Formula: C17H13ClFNO4
Exact mass: 349.0517
SMILES: CC(C(=O)OCC#C)OC1=CC=C(C=C1)OC2=C(C=C(C=N2)Cl)F
InChI: InChI=1S/C17H13ClFNO4/c1-3-8-22-17(21)11(2)23-13-4-6-14(7-5-13)24-16-15(19)9-12(18)10-20-16/h1,4-7,9-11H,8H2,2H3
Instrument: TripleTOF 6600 SCIEX
Instrument type: LC-ESI-QTOF
Ms type: MS2
Ion mode: POSITIVE
Collision energy: 120
Fragmentation mode: CID
Ionization: ESI
Column name: Zorbax Eclipse Plus C18 2.1 mm x 150 mm, 3.5 um, Agilent
Retention time: 13.951 min
Precursor m/z: 350.059
Precursor type: [M+H]+
m/z	relative intensity
37.0065	172
38.014	137
39.0217	482
50.0138	654
51.0215	757
57.0124	206
61.005	172
62.0134	378
63.0212	999
65.0369	620
68.004	172
69.0111	241
74.0132	688
75.0084	895
75.0204	999
76.0166	310
77.0374	482
86.0134	241
90.9722	172
91.0525	241
101.0369	310
105.0114	172
106.0196	241
107.0272	137
109.9771	723
113.0379	172
120.0352	172
131.0268	585
133.0433	172
158.0372	241
