Mass spectrum: Triadimefon; LC-ESI-QTOF; MS2; 40 V
Name: Triadimefon
Class: Fungicide; Transformation_product
Formula: C14H16ClN3O2
Exact mass: 293.0931
SMILES: CC(C)(C)C(=O)C(N1C=NC=N1)OC2=CC=C(C=C2)Cl
InChI: InChI=1S/C14H16ClN3O2/c1-14(2,3)12(19)13(18-9-16-8-17-18)20-11-6-4-10(15)5-7-11/h4-9,13H,1-3H3
Instrument: TripleTOF 5600 SCIEX
Instrument type: LC-ESI-QTOF
Ms type: MS2
Ion mode: POSITIVE
Collision energy: 40
Fragmentation mode: CID
Ionization: ESI
Column name: Zorbax Eclipse Plus C18 2.1 mm x 150 mm, 3.5 um, Agilent
Retention time: 12.319 min
Precursor m/z: 294.1004
Precursor type: [M+H]+
m/z	relative intensity
39.023	59
41.039	194
55.0544	44
57.0703	362
67.0545	20
69.0703	999
70.078	146
75.0226	17
77.0389	45
91.0554	22
93.0335	34
94.0423	20
98.9996	160
103.0312	11
110.0354	10
110.9996	150
113.0153	97
119.0502	11
120.0576	13
126.9949	408
127.03	19
129.0104	273
139.0059	21
141.0104	482
147.08	11
155.0263	185
161.0972	20
190.0998	16
197.0726	66
