Mass spectrum: Cetirizine; LC-ESI-QTOF; MS2; 150 V
Name: Cetirizine
Class: Pharmaceutical
Formula: C21H25ClN2O3
Exact mass: 388.1554
SMILES: C1CN(CCN1CCOCC(=O)O)C(C2=CC=CC=C2)C3=CC=C(C=C3)Cl
InChI: InChI=1S/C21H25ClN2O3/c22-19-8-6-18(7-9-19)21(17-4-2-1-3-5-17)24-12-10-23(11-13-24)14-15-27-16-20(25)26/h1-9,21H,10-16H2,(H,25,26)
Instrument: TripleTOF 5600 SCIEX
Instrument type: LC-ESI-QTOF
Ms type: MS2
Ion mode: POSITIVE
Collision energy: 150
Fragmentation mode: CID
Ionization: ESI
Column name: Zorbax Eclipse Plus C18 2.1 mm x 150 mm, 3.5 um, Agilent
Retention time: 8.94 min
Precursor m/z: 389.1626
Precursor type: [M+H]+
m/z	relative intensity
65.0424	17
72.9873	22
87.0243	34
89.0402	116
91.0551	15
99.0026	16
113.0383	55
114.0458	23
115.0544	437
126.0458	33
138.0474	24
139.0545	449
162.0468	52
163.0546	765
164.0621	866
165.07	999
