Mass spectrum: Octrizole; LC-ESI-QTOF; MS2; 120 V
Name: Octrizole
Class: Industrial_process
Formula: C20H25N3O
Exact mass: 323.1998
SMILES: CC(C)(C)CC(C)(C)C1=CC(=C(C=C1)O)N2N=C3C=CC=CC3=N2
InChI: InChI=1S/C20H25N3O/c1-19(2,3)13-20(4,5)14-10-11-18(24)17(12-14)23-21-15-8-6-7-9-16(15)22-23/h6-12,24H,13H2,1-5H3
Instrument: TripleTOF 5600 SCIEX
Instrument type: LC-ESI-QTOF
Ms type: MS2
Ion mode: POSITIVE
Collision energy: 120
Fragmentation mode: CID
Ionization: ESI
Column name: Zorbax Eclipse Plus C18 2.1 mm x 150 mm, 3.5 um, Agilent
Retention time: 19.562 min
Precursor m/z: 324.207
Precursor type: [M+H]+
m/z	relative intensity
65.0457	999
77.043	790
79.0576	124
89.0427	124
91.0583	208
92.0545	187
102.0512	104
103.0536	83
105.0702	104
115.0567	145
127.0554	187
128.0586	187
139.0551	166
140.0497	124
151.0527	124
152.0604	270
163.0552	104
166.0604	124
