Mass spectrum: Cortisone; LC-ESI-QTOF; MS2; 90 V
Name: Cortisone
Class: Pharmaceutical
Formula: C21H28O5
Exact mass: 360.1937
SMILES: C[C@]12CCC(=O)C=C1CC[C@H]3[C@@H]4CC[C@](O)(C(=O)CO)[C@@]4(C)CC(=O)[C@H]23
InChI: InChI=1S/C21H28O5/c1-19-7-5-13(23)9-12(19)3-4-14-15-6-8-21(26,17(25)11-22)20(15,2)10-16(24)18(14)19/h9,14-15,18,22,26H,3-8,10-11H2,1-2H3/t14-,15-,18+,19-,20-,21-/m0/s1
Instrument: TripleTOF 5600 SCIEX
Instrument type: LC-ESI-QTOF
Ms type: MS2
Ion mode: POSITIVE
Collision energy: 90
Fragmentation mode: CID
Ionization: ESI
Column name: Zorbax Eclipse Plus C18 2.1 mm x 150 mm, 3.5 um, Agilent
Retention time: 8.396 min
Precursor m/z: 361.201
Precursor type: [M+H]+
m/z	relative intensity
43.0273	27
55.0246	31
55.0604	50
65.0438	133
67.06	82
69.0754	19
77.0434	857
78.051	47
79.0576	395
81.074	94
83.053	74
91.0582	999
93.0727	137
95.0871	23
97.0675	82
102.0491	27
103.0554	199
104.0634	58
105.0725	474
107.0514	94
107.0881	35
109.0662	19
115.0561	517
116.0634	101
116.0878	15
117.0711	191
119.0883	62
121.0668	144
126.0492	23
127.0564	160
128.0642	552
129.0717	313
130.0792	82
131.0522	43
131.0878	47
132.0588	27
133.0672	125
141.0717	285
142.08	78
143.0889	58
144.0577	27
144.0648	15
144.096	15
145.0663	47
145.1036	31
146.0795	23
147.0837	211
148.09	133
151.0589	43
152.0651	180
153.0725	231
154.0799	58
155.0632	27
155.0868	78
157.0691	19
157.1051	15
159.0822	47
163.1158	19
164.0687	23
165.0721	321
166.0804	70
167.0885	78
168.096	23
169.0652	15
169.1028	31
174.1079	35
177.071	23
178.0806	129
179.0889	97
180.0964	19
181.1038	19
189.0723	50
190.078	31
191.0888	70
192.0964	23
193.1057	23
202.0805	50
209.0978	15
226.1432	23
