Mass spectrum: Trospium; LC-ESI-QTOF; MS2; 90 V
Name: Trospium
Class: Pharmaceutical
Formula: [C25H30NO3]+
Exact mass: 392.222
SMILES: C1CC[N+]2(C1)C3CCC2CC(C3)OC(=O)C(C4=CC=CC=C4)(C5=CC=CC=C5)O
InChI: InChI=1S/C25H30NO3/c27-24(25(28,19-9-3-1-4-10-19)20-11-5-2-6-12-20)29-23-17-21-13-14-22(18-23)26(21)15-7-8-16-26/h1-6,9-12,21-23,28H,7-8,13-18H2/q+1
Instrument: TripleTOF 6600 SCIEX
Instrument type: LC-ESI-QTOF
Ms type: MS2
Ion mode: POSITIVE
Collision energy: 90
Fragmentation mode: CID
Ionization: ESI
Column name: Zorbax Eclipse Plus C18 2.1 mm x 150 mm, 3.5 um, Agilent
Retention time: 7.411 min
Precursor m/z: 392.222
Precursor type: [M]+
m/z	relative intensity
41.0376	60
51.0218	76
54.0325	86
55.0521	91
56.0478	121
65.0363	111
67.0517	319
68.047	121
69.0548	456
70.0624	633
72.0781	289
77.0355	999
79.0513	60
80.0457	101
82.0612	76
91.0498	704
93.0661	299
94.0605	126
95.0817	86
96.0762	527
97.0841	750
98.0917	228
105.0293	86
108.0758	126
110.0918	111
120.0763	131
122.0917	238
136.1073	91
138.1233	446
164.1388	141
182.1492	664
