Mass spectrum: Azacyclonol; LC-ESI-QTOF; MS2; 120 V
Name: Azacyclonol
Class: Pharmaceutical
Formula: C18H21NO
Exact mass: 267.1623
SMILES: OC(C1CCNCC1)(C2=CC=CC=C2)C3=CC=CC=C3
InChI: InChI=1S/C18H21NO/c20-18(15-7-3-1-4-8-15,16-9-5-2-6-10-16)17-11-13-19-14-12-17/h1-10,17,19-20H,11-14H2
Instrument: TripleTOF 5600 SCIEX
Instrument type: LC-ESI-QTOF
Ms type: MS2
Ion mode: POSITIVE
Collision energy: 120
Fragmentation mode: CID
Ionization: ESI
Column name: Zorbax Eclipse Plus C18 2.1 mm x 150 mm, 3.5 um, Agilent
Retention time: 6.644 min
Precursor m/z: 268.1696
Precursor type: [M+H]+
m/z	relative intensity
37.0069	45
38.0156	61
39.023	312
41.0386	38
42.0335	83
44.0497	53
50.0155	137
51.0229	518
56.0491	76
61.0079	61
62.0152	122
63.0226	297
65.0385	999
67.0424	53
68.0508	45
74.0155	114
75.0224	144
76.0312	198
77.0386	777
78.0461	198
82.0649	45
84.0807	83
87.0239	61
89.0383	259
91.0541	648
98.0142	45
101.0382	76
102.0462	465
103.0543	45
113.04	38
115.054	503
126.0476	198
127.0545	221
128.0611	366
139.0559	114
150.0468	137
151.0567	137
152.062	114
163.0567	198
164.0618	122
165.0688	99
176.0628	83
187.0548	61
188.0684	30
189.0576	38
189.0721	61
200.0598	106
202.0749	53
