Mass spectrum: Abacavir carboxylic acid; LC-ESI-QTOF; MS2; 60 V
Name: Abacavir carboxylic acid
Class: Pharmaceutical; Metabolite; Transformation_product
Formula: C14H16N6O2
Exact mass: 300.1335
SMILES: C1CC1NC2=NC(=NC3=C2N=CN3C4CC(C=C4)C(=O)O)N
InChI: InChI=1S/C14H16N6O2/c15-14-18-11(17-8-2-3-8)10-12(19-14)20(6-16-10)9-4-1-7(5-9)13(21)22/h1,4,6-9H,2-3,5H2,(H,21,22)(H3,15,17,18,19)
Instrument: TripleTOF 5600 SCIEX
Instrument type: LC-ESI-QTOF
Ms type: MS2
Ion mode: POSITIVE
Collision energy: 60
Fragmentation mode: CID
Ionization: ESI
Column name: Zorbax Eclipse Plus C18 2.1 mm x 150 mm, 3.5 um, Agilent
Retention time: 5.194 min
Precursor m/z: 301.1408
Precursor type: [M+H]+
m/z	relative intensity
55.0333	21
55.059	28
56.0537	11
58.0701	79
65.0427	179
67.0326	11
67.0579	256
68.0521	15
78.0362	16
80.0271	44
82.0417	47
83.0511	77
92.0258	51
93.0346	67
94.0402	23
95.0611	44
105.0447	32
106.0401	14
107.0353	293
108.043	243
109.0508	322
111.0423	10
119.0351	78
120.0549	56
121.0511	26
122.071	48
123.0539	16
130.039	12
132.0552	39
133.0384	61
133.0636	11
134.0465	999
135.0526	21
136.061	33
147.0666	53
148.0612	27
149.0807	100
150.0649	636
151.0719	25
157.0515	10
162.0765	19
163.0715	34
164.0934	29
172.0639	11
173.0695	21
174.0773	261
175.072	107
191.1034	89
