Mass spectrum: Imazamox; LC-ESI-QTOF; MS2; 40 V
Name: Imazamox
Class: Herbicide
Formula: C15H19N3O4
Exact mass: 305.1376
SMILES: CC(C)C1(C(=O)NC(=N1)C2=C(C=C(C=N2)COC)C(=O)O)C
InChI: InChI=1S/C15H19N3O4/c1-8(2)15(3)14(21)17-12(18-15)11-10(13(19)20)5-9(6-16-11)7-22-4/h5-6,8H,7H2,1-4H3,(H,19,20)(H,17,18,21)
Instrument: TripleTOF 6600 SCIEX
Instrument type: LC-ESI-QTOF
Ms type: MS2
Ion mode: POSITIVE
Collision energy: 40
Fragmentation mode: CID
Ionization: ESI
Column name: Zorbax Eclipse Plus C18 2.1 mm x 150 mm, 3.5 um, Agilent
Retention time: 6.853 min
Precursor m/z: 306.1448
Precursor type: [M+H]+
m/z	relative intensity
39.0217	45
41.0376	172
58.0634	13
69.0683	570
70.0633	12
71.0707	26
86.0946	653
92.0471	32
97.0624	16
107.0586	22
115.027	18
117.0423	25
118.0499	31
119.0583	32
120.0421	18
122.0576	89
123.0652	17
145.0371	115
147.0531	46
148.0606	102
149.0683	114
150.052	22
159.0522	12
160.0596	40
161.0672	136
162.0388	43
162.0627	15
163.0482	789
175.0481	254
176.0552	18
177.0628	47
187.0712	38
188.0805	28
189.0882	15
191.0794	400
192.0742	326
193.0591	999
212.0899	12
215.0659	40
216.0727	24
217.0821	26
217.1314	75
218.0901	530
219.111	45
220.1007	24
235.0916	49
243.1099	126
245.0771	29
246.0855	756
260.1372	88
261.1218	467
263.0872	16
264.0959	186
278.1469	51
288.1324	10
306.1427	193
