Mass spectrum: Iotalamic acid; LC-ESI-QTOF; MS2; 40 V
Name: Iotalamic acid
Class: Pharmaceutical
Formula: C11H9I3N2O4
Exact mass: 613.7697
SMILES: CNC(c1c(I)c(C(O)=O)c(I)c(NC(C)=O)c1I)=O
InChI: InChI=1S/C11H9I3N2O4/c1-3(17)16-9-7(13)4(10(18)15-2)6(12)5(8(9)14)11(19)20/h1-2H3,(H,15,18)(H,16,17)(H,19,20)
Instrument: TripleTOF 5600 SCIEX
Instrument type: LC-ESI-QTOF
Ms type: MS2
Ion mode: POSITIVE
Collision energy: 40
Fragmentation mode: CID
Ionization: ESI
Column name: Zorbax Eclipse Plus C18 2.1 mm x 150 mm, 3.5 um, Agilent
Retention time: 4.565 min
Precursor m/z: 614.7769
Precursor type: [M+H]+
m/z	relative intensity
177.0425	155
257.9417	17
272.9262	12
273.9388	17
284.9331	14
289.9309	43
300.9483	90
301.932	243
302.9375	31
303.9488	14
314.9701	31
318.9551	56
329.932	21
360.9689	999
388.8408	43
409.8318	9
411.8305	36
415.8275	17
428.8369	384
429.8474	48
430.8577	14
445.8613	148
455.8242	484
456.8328	29
468.8537	365
486.8653	175
487.8624	12
583.7374	38
