Mass spectrum: Triamterene; LC-ESI-QTOF; MS2; 100 V
Name: Triamterene
Class: Pharmaceutical
Formula: C12H11N7
Exact mass: 253.1076
SMILES: C1=CC=C(C=C1)C2=NC3=C(N=C2N)N=C(N=C3N)N
InChI: InChI=1S/C12H11N7/c13-9-7(6-4-2-1-3-5-6)16-8-10(14)18-12(15)19-11(8)17-9/h1-5H,(H6,13,14,15,17,18,19)
Instrument: TripleTOF 5600 SCIEX
Instrument type: LC-ESI-QTOF
Ms type: MS2
Ion mode: POSITIVE
Collision energy: 100
Fragmentation mode: CID
Ionization: ESI
Column name: Zorbax Eclipse Plus C18 2.1 mm x 150 mm, 3.5 um, Agilent
Retention time: 5.203 min
Precursor m/z: 254.1149
Precursor type: [M+H]+
m/z	relative intensity
38.0163	15
43.0407	52
43.0505	18
53.023	116
55.0389	27
65.0211	172
65.0437	21
66.0293	15
67.0356	15
68.0319	43
74.0196	15
75.0176	18
75.0289	30
76.0352	147
77.0445	999
79.0605	39
80.0287	30
87.0259	39
88.0212	144
89.0429	925
90.0141	46
90.0333	15
90.0499	49
91.0528	21
92.0293	55
98.0157	15
100.0203	18
102.0369	33
103.0437	92
104.052	331
114.0352	227
115.0449	98
116.0499	79
117.0588	18
139.0294	18
141.0469	76
142.0553	39
