Mass spectrum: Trihexyltetradecylphosphonium; LC-ESI-QTOF; MS2; 120 V
Name: Trihexyltetradecylphosphonium
Formula: [C32H68P]+
Exact mass: 483.5053
SMILES: CCCCCCCCCCCCCC[P+](CCCCCC)(CCCCCC)CCCCCC
InChI: InChI=1S/C32H68P/c1-5-9-13-17-18-19-20-21-22-23-24-28-32-33(29-25-14-10-6-2,30-26-15-11-7-3)31-27-16-12-8-4/h5-32H2,1-4H3/q+1
Instrument: TripleTOF 5600 SCIEX
Instrument type: LC-ESI-QTOF
Ms type: MS2
Ion mode: POSITIVE
Collision energy: 120
Fragmentation mode: CID
Ionization: ESI
Column name: Zorbax Eclipse Plus C18 2.1 mm x 150 mm, 3.5 um, Agilent
Retention time: 17.125 min
Precursor m/z: 483.5053
Precursor type: [M]+
m/z	relative intensity
39.0233	76
41.039	150
43.055	134
43.9815	71
44.9892	102
45.9972	205
47.0053	81
48.0129	110
55.0542	150
56.989	187
59.0047	260
61.0204	582
62.0283	685
73.0198	163
74.0273	81
75.0354	582
76.0434	999
88.0417	121
89.0498	313
90.0583	231
101.0503	152
102.0586	79
103.0661	229
115.066	192
117.0815	181
129.0834	113
131.0977	158
143.0973	142
145.1138	121
157.1136	60
159.1294	181
171.1305	65
173.1447	129
185.1472	65
187.1617	97
199.1615	50
201.1784	105
229.2072	73
