Mass spectrum: Torasemide; LC-ESI-QTOF; MS2; 70 V
Name: Torasemide
Class: Pharmaceutical
Formula: C16H20N4O3S
Exact mass: 348.1256
SMILES: CC(C)NC(=O)N[S](=O)(=O)c1cnccc1Nc2cccc(C)c2
InChI: InChI=1S/C16H20N4O3S/c1-11(2)18-16(21)20-24(22,23)15-10-17-8-7-14(15)19-13-6-4-5-12(3)9-13/h4-11H,1-3H3,(H,17,19)(H2,18,20,21)
Instrument: TripleTOF 5600 SCIEX
Instrument type: LC-ESI-QTOF
Ms type: MS2
Ion mode: POSITIVE
Collision energy: 70
Fragmentation mode: CID
Ionization: ESI
Column name: Zorbax Eclipse Plus C18 2.1 mm x 150 mm, 3.5 um, Agilent
Retention time: 7.633 min
Precursor m/z: 349.1329
Precursor type: [M+H]+
m/z	relative intensity
67.0455	12
81.047	14
98.0067	12
114.0466	49
115.053	11
116.049	10
117.0573	49
125.0168	26
127.0538	26
128.0606	78
129.0696	37
137.0167	20
140.0497	82
141.0577	125
142.0526	21
154.0646	38
155.0642	21
156.0737	28
166.0534	10
167.0601	55
168.0685	999
169.0765	30
175.0329	13
181.0762	353
182.0838	230
183.0916	349
197.0705	15
198.0788	19
199.0866	17
201.0481	29
229.0426	11
