Mass spectrum: Sertraline; LC-ESI-QTOF; MS2; 130 V
Name: Sertraline
Class: Pharmaceutical
Formula: C17H17Cl2N
Exact mass: 305.0738
SMILES: CN[C@H]1CC[C@H](c2c1cccc2)c3ccc(c(c3)Cl)Cl
InChI: InChI=1S/C17H17Cl2N/c1-20-17-9-7-12(13-4-2-3-5-14(13)17)11-6-8-15(18)16(19)10-11/h2-6,8,10,12,17,20H,7,9H2,1H3/t12-,17-/m0/s1
Instrument: TripleTOF 5600 SCIEX
Instrument type: LC-ESI-QTOF
Ms type: MS2
Ion mode: POSITIVE
Collision energy: 130
Fragmentation mode: CID
Ionization: ESI
Column name: Zorbax Eclipse Plus C18 2.1 mm x 150 mm, 3.5 um, Agilent
Retention time: 8.925 min
Precursor m/z: 306.0811
Precursor type: [M+H]+
m/z	relative intensity
48.9897	33
51.029	75
60.0052	19
63.0546	19
65.0425	38
72.9875	726
74.0171	79
75.0253	74
76.0332	50
77.0412	229
78.0494	87
82.9471	124
85.0122	19
86.0176	50
87.0244	77
88.0331	107
89.0407	999
91.0553	23
96.9851	198
98.0159	27
98.9995	79
101.0401	37
102.047	190
106.9448	40
113.0389	15
115.0547	72
122.9997	114
124.0075	9
125.0394	9
126.0464	75
127.0539	159
128.0616	317
132.9621	46
149.0401	13
150.0465	87
151.0537	33
152.0622	23
161.0366	9
162.047	23
163.0532	77
164.0618	9
174.0485	25
175.0554	15
176.0622	46
186.0439	17
187.0537	124
188.0617	35
189.0694	37
200.0621	97
201.0711	50
202.0769	72
