Mass spectrum: threo-Dihydrobupropion; LC-ESI-QTOF; MS2; 100 V
Name: threo-Dihydrobupropion
Class: Pharmaceutical; Metabolite
Formula: C13H20ClNO
Exact mass: 241.1233
SMILES: CC(C(c1cccc(c1)Cl)O)NC(C)(C)C
InChI: InChI=1S/C13H20ClNO/c1-9(15-13(2,3)4)12(16)10-6-5-7-11(14)8-10/h5-9,12,15-16H,1-4H3
Instrument: TripleTOF 5600 SCIEX
Instrument type: LC-ESI-QTOF
Ms type: MS2
Ion mode: POSITIVE
Collision energy: 100
Fragmentation mode: CID
Ionization: ESI
Column name: Zorbax Eclipse Plus C18 2.1 mm x 150 mm, 3.5 um, Agilent
Retention time: 6.626 min
Precursor m/z: 242.1306
Precursor type: [M+H]+
m/z	relative intensity
42.0418	23
51.0273	14
57.0753	104
58.0697	29
65.0421	182
72.9875	47
74.0187	32
75.0261	83
77.0418	53
87.025	14
89.0401	550
89.0827	11
90.0478	104
91.0566	98
98.9995	47
110.9997	38
113.0388	17
114.0467	26
115.0545	999
115.1013	14
115.1154	11
116.0644	23
117.0581	134
125.0155	32
