Mass spectrum: N,N-bis(ethoxycarbonyl)-4-methyl-1,3-phenylenediamine; LC-ESI-QTOF; MS2; 120 V
Name: N,N-bis(ethoxycarbonyl)-4-methyl-1,3-phenylenediamine
Class: Pharmaceutical
Formula: C13H18N2O4
Exact mass: 266.1267
SMILES: CCOC(=O)NC1=CC(=C(C=C1)C)NC(=O)OCC
InChI: InChI=1S/C13H18N2O4/c1-4-18-12(16)14-10-7-6-9(3)11(8-10)15-13(17)19-5-2/h6-8H,4-5H2,1-3H3,(H,14,16)(H,15,17)
Instrument: TripleTOF 5600 SCIEX
Instrument type: LC-ESI-QTOF
Ms type: MS2
Ion mode: POSITIVE
Collision energy: 120
Fragmentation mode: CID
Ionization: ESI
Column name: Zorbax Eclipse Plus C18 2.1 mm x 150 mm, 3.5 um, Agilent
Retention time: 10.056 min
Precursor m/z: 267.1339
Precursor type: [M+H]+
m/z	relative intensity
42.0481	23
54.0442	32
64.0359	23
65.0454	174
66.054	44
67.0504	38
67.061	14
74.022	53
75.0289	59
76.0227	26
76.0367	14
77.0439	999
78.0391	183
79.0469	62
79.0582	35
80.0543	144
81.0597	17
89.0398	53
90.0466	11
91.0528	47
92.0518	32
93.061	47
94.0662	26
102.038	23
104.0531	41
105.0475	115
106.0662	44
107.0607	17
119.0617	11
