Mass spectrum: Haloxyfop-methyl; LC-ESI-QTOF; MS2; 40 V
Name: Haloxyfop-methyl
Class: Herbicide
Formula: C16H13ClF3NO4
Exact mass: 375.0485
SMILES: COC(=O)C(C)Oc1ccc(Oc2ncc(cc2Cl)C(F)(F)F)cc1
InChI: InChI=1S/C16H13ClF3NO4/c1-9(15(22)23-2)24-11-3-5-12(6-4-11)25-14-13(17)7-10(8-21-14)16(18,19)20/h3-9H,1-2H3
Instrument: TripleTOF 5600 SCIEX
Instrument type: LC-ESI-QTOF
Ms type: CID
Ion mode: POSITIVE
Collision energy: 40
Ionization: ESI
Column name: Zorbax Eclipse Plus C18 2.1 mm x 150 mm, 3.5 um, Agilent
Retention time: 14.891 min
Precursor m/z: 376.0558
Precursor type: [M+H]+
m/z	relative intensity
65.0473	18
91.0558	510
119.0477	59
121.0271	33
179.9797	26
189.037	18
197.9913	26
208.0347	18
209.0421	48
216.0247	26
226.0478	22
232.0104	26
235.0579	22
237.0408	41
247.0438	22
248.0171	22
252.0042	26
252.0614	29
260.0455	41
261.0116	14
270.041	29
272.0084	547
288.0023	141
288.0387	305
289.0092	52
290.0193	33
316.0333	999
316.0814	14
376.0587	44
