Mass spectrum: Oxytetracycline; LC-ESI-QTOF; MS2; 80 V
Name: Oxytetracycline
Class: Pharmaceutical
Formula: C22H24N2O9
Exact mass: 460.1482
SMILES: CC1(C2C(C3C(C(=O)C(=C(C3(C(=O)C2=C(C4=C1C=CC=C4O)O)O)O)C(=O)N)N(C)C)O)O
InChI: InChI=1S/C22H24N2O9/c1-21(32)7-5-4-6-8(25)9(7)15(26)10-12(21)17(28)13-14(24(2)3)16(27)11(20(23)31)19(30)22(13,33)18(10)29/h4-6,12-14,17,25-26,28,30,32-33H,1-3H3,(H2,23,31)
Instrument: TripleTOF 5600 SCIEX
Instrument type: LC-ESI-QTOF
Ms type: MS2
Ion mode: NEGATIVE
Collision energy: 80
Fragmentation mode: CID
Ionization: ESI
Column name: Zorbax Eclipse Plus C18 2.1 mm x 150 mm, 3.5 um, Agilent
Retention time: 5.586 min
Precursor m/z: 459.1409
Precursor type: [M-H]-
m/z	relative intensity
41.0056	75
42.0012	75
66.0005	56
68.9991	94
79.0196	94
83.0127	94
84.0086	131
91.0203	56
92.0262	188
93.0336	150
95.0126	75
96.9944	94
97.0277	94
108.0197	113
109.028	113
111.0093	75
117.0351	150
123.0086	131
126.0562	94
131.0435	94
133.0218	75
134.0279	75
135.0446	904
137.0219	56
139.0101	56
139.0189	75
143.0488	113
144.0587	207
145.0256	56
149.0159	56
149.9968	56
150.0198	113
151.0049	56
157.0666	56
158.0371	245
159.044	207
161.0237	320
162.0189	113
163.0322	75
164.014	56
165.0784	56
169.0652	150
171.0434	339
172.0517	753
173.0255	113
173.0597	885
174.0316	263
177.0292	131
178.0112	75
180.0613	75
181.0673	113
183.0428	56
183.0821	75
185.0614	150
187.0406	395
188.0483	75
195.0429	94
196.0535	245
197.064	263
199.0442	75
199.071	56
201.0568	245
203.0411	94
207.0417	94
208.0467	75
209.0611	263
210.031	75
210.065	94
211.0421	150
211.0809	56
219.0426	56
221.0585	113
222.0648	75
223.0766	131
224.0457	282
225.0563	395
225.0918	56
233.0625	75
235.0374	245
235.0803	75
237.0547	169
238.0695	75
239.0332	113
245.0573	94
248.0426	75
249.0611	94
251.0358	131
252.0408	150
253.0518	999
255.0348	245
264.0866	75
265.0522	94
291.0765	131
