Mass spectrum: Neotame; LC-ESI-QTOF; MS2; 50 V
Name: Neotame
Formula: C20H30N2O5
Exact mass: 378.2155
SMILES: CC(C)(C)CCNC(CC(=O)O)C(=O)NC(CC1=CC=CC=C1)C(=O)OC
InChI: InChI=1S/C20H30N2O5/c1-20(2,3)10-11-21-15(13-17(23)24)18(25)22-16(19(26)27-4)12-14-8-6-5-7-9-14/h5-9,15-16,21H,10-13H2,1-4H3,(H,22,25)(H,23,24)
Instrument: TripleTOF X500R SCIEX
Instrument type: LC-ESI-QTOF
Ms type: MS2
Ion mode: POSITIVE
Collision energy: 50
Fragmentation mode: CID
Ionization: ESI
Column name: Zorbax Eclipse Plus C18 2.1 mm x 150 mm, 3.5 um, Agilent
Retention time: 8.15 min
Precursor m/z: 379.2228
Precursor type: [M+H]+
m/z	relative intensity
41.0379	33
43.0178	13
43.0544	155
57.0696	168
70.0282	39
85.1011	328
88.0391	111
91.0546	177
103.0557	39
112.112	215
120.0811	579
121.0646	53
128.1417	28
130.0662	15
130.1216	22
154.1224	73
172.1329	999
175.0842	11
180.101	17
204.1757	15
231.1857	73
259.1816	177
