Mass spectrum: Mefenpyr-diethyl; LC-ESI-QTOF; MS2; 100 V
Name: Mefenpyr-diethyl
Class: Herbicide
Formula: C16H18Cl2N2O4
Exact mass: 372.0644
SMILES: CCOC(=O)C1=NN(C(C1)(C)C(=O)OCC)C2=C(C=C(C=C2)Cl)Cl
InChI: InChI=1S/C16H18Cl2N2O4/c1-4-23-14(21)12-9-16(3,15(22)24-5-2)20(19-12)13-7-6-10(17)8-11(13)18/h6-8H,4-5,9H2,1-3H3
Instrument: TripleTOF 5600 SCIEX
Instrument type: LC-ESI-QTOF
Ms type: MS2
Ion mode: POSITIVE
Collision energy: 100
Fragmentation mode: CID
Ionization: ESI
Column name: Zorbax Eclipse Plus C18 2.1 mm x 150 mm, 3.5 um, Agilent
Retention time: 14.581 min
Precursor m/z: 373.0716
Precursor type: [M+H]+
m/z	relative intensity
72.9899	233
73.012	26
74.0211	433
75.0289	64
77.044	13
82.9494	251
84.9879	16
88.0224	14
89.0431	20
90.0389	52
96.9866	57
97.9934	21
99.0016	54
100.0224	20
101.0416	26
102.0409	20
106.9461	77
108.9857	928
109.9944	37
111.0005	10
114.0358	34
123	12
123.9971	36
125.004	134
126.035	41
127.0436	37
128.0502	67
129.0562	14
130.0649	13
132.9617	999
136.0082	20
144.9614	409
147.9952	18
151.0197	25
153.0457	56
154.0481	23
155.0606	44
156.9622	24
158.9749	13
159.9715	19
160.9798	30
162.01	26
163.0174	27
164.0261	59
172.967	85
185.9867	61
189.0217	117
