Mass spectrum: Entacapone; LC-ESI-QTOF; MS2; 70 V
Name: Entacapone
Class: Pharmaceutical
Formula: C14H15N3O5
Exact mass: 305.1012
SMILES: CCN(CC)C(=O)C(=CC1=CC(=C(C(=C1)O)O)[N+](=O)[O-])C#N
InChI: InChI=1S/C14H15N3O5/c1-3-16(4-2)14(20)10(8-15)5-9-6-11(17(21)22)13(19)12(18)7-9/h5-7,18-19H,3-4H2,1-2H3
Instrument: TripleTOF 5600 SCIEX
Instrument type: LC-ESI-QTOF
Ms type: MS2
Ion mode: POSITIVE
Collision energy: 70
Fragmentation mode: CID
Ionization: ESI
Column name: Zorbax Eclipse Plus C18 2.1 mm x 150 mm, 3.5 um, Agilent
Retention time: 9.381 min
Precursor m/z: 306.1084
Precursor type: [M+H]+
m/z	relative intensity
43.0426	87
44.0256	114
52.0284	47
63.039	33
68.0206	60
72.0513	101
74.0191	141
75.0147	297
76.0256	999
77.0098	27
77.0359	222
78.0398	67
78.0545	40
80.0174	134
87.0142	398
88.0211	492
89.028	94
90.0382	114
91.0469	47
100.0205	33
100.0778	40
101.0277	729
102.0117	54
102.0354	148
103.0332	236
103.0437	161
104.0164	175
104.0456	121
105.0167	27
105.0451	80
106.0421	27
113.0258	80
114.0225	377
114.0378	40
115.0317	108
116.0379	141
117.0463	87
118.0651	33
119.061	40
121.0403	40
122.0336	47
129.0203	87
129.0445	33
130.036	188
131.0352	161
131.0617	33
132.0228	128
132.0497	27
133.0392	40
134.038	27
141.0222	27
141.0387	33
142.0155	209
144.0582	60
158.0236	54
159.0303	161
171.0212	33
172.0508	27
