Mass spectrum: 2-(Thiocyanomethylthio)benzothiazole; LC-ESI-QTOF; MS2; 80 V
Name: 2-(Thiocyanomethylthio)benzothiazole
Class: Antimicrobial; Fungicide
Formula: C9H6N2S3
Exact mass: 237.9693
SMILES: C1=CC=C2C(=C1)N=C(S2)SCSC#N
InChI: InChI=1S/C9H6N2S3/c10-5-12-6-13-9-11-7-3-1-2-4-8(7)14-9/h1-4H,6H2
Instrument: TripleTOF 6600 SCIEX
Instrument type: LC-ESI-QTOF
Ms type: MS2
Ion mode: POSITIVE
Collision energy: 80
Fragmentation mode: CID
Ionization: ESI
Column name: Zorbax Eclipse Plus C18 2.1 mm x 150 mm, 3.5 um, Agilent
Retention time: 12.417 min
Precursor m/z: 238.9766
Precursor type: [M+H]+
m/z	relative intensity
37.0072	20
38.0148	23
39.0231	155
43.9715	52
44.9796	623
45.9742	21
45.9873	12
49.0068	29
50.0152	145
51.0233	547
52.019	12
52.0312	15
57.9865	17
61.0064	10
62.0155	32
63.023	184
63.9435	37
64.0184	31
64.0309	32
65.0389	999
67.9705	24
68.9794	411
69.987	66
70.9945	18
71.9897	55
74.0151	20
75.0225	31
76.0176	10
76.0308	40
77.0387	530
78.0337	15
78.0463	41
81.987	82
82.9953	15
84.0031	12
89.0387	119
90.034	46
91.0411	26
92.9792	44
94.9953	83
96.0025	138
101.9464	17
102.0332	18
103.0416	18
104.0489	10
105.044	13
106.995	18
108.0025	183
109.0108	657
116.048	10
121.0104	108
122.0062	34
123.0138	51
130.0391	10
134.0056	12
135.0144	38
136.0211	91
