Mass spectrum: 6-Methylthioguanine; LC-ESI-QTOF; MS2; 30 V
Name: 6-Methylthioguanine
Class: Metabolite; Pharmaceutical
Formula: C6H7N5S
Exact mass: 181.0422
SMILES: CSc1nc(N)nc2nc[nH]c12
InChI: InChI=1S/C6H7N5S/c1-12-5-3-4(9-2-8-3)10-6(7)11-5/h2H,1H3,(H3,7,8,9,10,11)
Instrument: TripleTOF 5600 SCIEX
Instrument type: LC-ESI-QTOF
Ms type: MS2
Ion mode: POSITIVE
Collision energy: 30
Fragmentation mode: CID
Ionization: ESI
Column name: Zorbax Eclipse Plus C18 2.1 mm x 150 mm, 3.5 um, Agilent
Retention time: 4.912 min
Precursor m/z: 182.0495
Precursor type: [M+H]+
m/z	relative intensity
80.0271	22
92.0265	12
107.0361	126
109.0508	27
121.0505	11
125.0042	19
134.0472	999
149.0705	10
149.9995	16
165.0236	51
167.0266	125
182.0505	301
