Mass spectrum: Tolfenamic acid; LC-ESI-QTOF; MS2; 50 V
Name: Tolfenamic acid
Class: Pharmaceutical
Formula: C14H12ClNO2
Exact mass: 261.0557
SMILES: Cc1cc(Nc2ccccc2C(O)=O)ccc1Cl
InChI: InChI=1S/C14H12ClNO2/c1-9-8-10(6-7-12(9)15)16-13-5-3-2-4-11(13)14(17)18/h2-8,16H,1H3,(H,17,18)
Instrument: TripleTOF 5600 SCIEX
Instrument type: LC-ESI-QTOF
Ms type: MS2
Ion mode: POSITIVE
Collision energy: 50
Fragmentation mode: CID
Ionization: ESI
Column name: Zorbax Eclipse Plus C18 2.1 mm x 150 mm, 3.5 um, Agilent
Retention time: 14.052 min
Precursor m/z: 262.0629
Precursor type: [M+H]+
m/z	relative intensity
140.0489	14
151.0537	12
152.0607	58
153.0682	18
154.0648	11
165.0573	22
166.0644	199
178.0639	39
179.0712	142
180.0806	999
181.0869	67
183.066	28
194.0583	66
201.0331	229
207.0669	41
208.0748	582
209.0829	513
214.0414	19
229.0279	318
242.0343	14
243.042	17
244.0513	67
