Mass spectrum: Oseltamivir carboxylic acid; LC-ESI-QTOF; MS2; 40 V
Name: Oseltamivir carboxylic acid
Class: Pharmaceutical; Metabolite; Transformation_product
Formula: C14H24N2O4
Exact mass: 284.1736
SMILES: CCC(CC)O[C@@H]1C=C(C[C@H](N)[C@H]1NC(C)=O)C(O)=O
InChI: InChI=1S/C14H24N2O4/c1-4-10(5-2)20-12-7-9(14(18)19)6-11(15)13(12)16-8(3)17/h7,10-13H,4-6,15H2,1-3H3,(H,16,17)(H,18,19)/t11-,12+,13+/m0/s1
Instrument: TripleTOF 5600 SCIEX
Instrument type: LC-ESI-QTOF
Ms type: MS2
Ion mode: POSITIVE
Collision energy: 40
Fragmentation mode: CID
Ionization: ESI
Column name: Zorbax Eclipse Plus C18 2.1 mm x 150 mm, 3.5 um, Agilent
Retention time: 5.65 min
Precursor m/z: 285.1809
Precursor type: [M+H]+
m/z	relative intensity
60.0502	28
65.0432	119
67.0582	98
68.0542	15
77.0416	196
80.0529	34
82.0673	34
83.0509	18
92.0516	182
93.0352	155
93.0587	59
94.0669	769
95.0494	23
108.0442	12
109.0504	12
109.0763	62
110.0589	86
111.0444	32
119.0606	39
120.0449	711
121.0283	18
133.076	12
134.06	21
136.0771	25
137.0711	223
138.0553	999
139.0389	28
155.0809	17
156.0654	36
161.0717	20
162.0552	75
179.0816	25
180.0659	124
197.0922	32
198.0763	122
215.1024	14
