Mass spectrum: Flunixin; LC-ESI-QTOF; MS2; 100 V
Name: Flunixin
Class: Pharmaceutical
Formula: C14H11F3N2O2
Exact mass: 296.0773
SMILES: CC1=C(C=CC=C1NC2=C(C=CC=N2)C(=O)O)C(F)(F)F
InChI: InChI=1S/C14H11F3N2O2/c1-8-10(14(15,16)17)5-2-6-11(8)19-12-9(13(20)21)4-3-7-18-12/h2-7H,1H3,(H,18,19)(H,20,21)
Instrument: TripleTOF 5600 SCIEX
Instrument type: LC-ESI-QTOF
Ms type: MS2
Ion mode: POSITIVE
Collision energy: 100
Fragmentation mode: CID
Ionization: ESI
Column name: Zorbax Eclipse Plus C18 2.1 mm x 150 mm, 3.5 um, Agilent
Retention time: 11.023 min
Precursor m/z: 297.0845
Precursor type: [M+H]+
m/z	relative intensity
51.0346	93
52.0298	10
57.0229	206
59.0379	56
64.039	12
65.0471	24
66.0401	14
69.0042	12
73.0143	11
74.0214	94
75.0106	16
75.0292	141
76.0281	45
77.0442	169
78.0396	153
79.0539	26
81.0173	54
83.0345	999
86.0193	38
87.0277	98
88.0195	26
88.0335	64
89.0428	270
90.0444	51
92.0093	11
92.0407	22
93.0172	136
93.0475	13
94.0258	18
95.0325	57
97.0119	16
98.0184	589
99.026	658
100.0204	46
101.0261	15
101.0407	73
102.037	45
103.0328	13
103.0478	10
104.0515	13
105.0154	23
106.0227	48
106.0697	32
107.0314	136
108.038	54
109.0468	621
110.0175	15
111.0245	40
112.0182	58
113.0401	374
114.0359	170
115.0447	55
116.0524	14
117.0148	20
118.0224	12
119.0304	86
120.0266	24
122.0171	17
123.0097	16
123.0239	48
124.019	48
125.0211	50
125.0408	63
126.0469	138
127.0551	434
128.0518	151
129.0481	41
130.0645	13
131.0302	149
132.0383	171
133.0432	61
134.0424	20
135.0473	22
136.0425	13
137.0398	111
138.0343	160
139.0427	183
140.0503	650
141.0167	22
141.0461	12
141.0575	15
142.0194	23
142.055	20
143.0135	24
143.0305	52
144.0269	43
145.0277	82
146.015	12
146.0405	15
147.0177	35
147.0375	18
148.0184	64
149.0212	22
150.0336	52
151.0378	62
152.0506	133
153.0585	164
154.0667	179
155.0321	54
155.0613	61
156.0315	70
157.0452	145
158.0405	338
159.0479	42
160.0423	24
161.0205	38
162.0294	121
163.0372	101
164.0498	178
165.0445	102
166.0523	164
167.0355	15
167.0597	64
168.0256	91
169.0311	44
170.0219	55
170.0393	37
171.0443	19
172.0273	12
175.0364	49
176.0289	59
177.0487	11
178.0503	13
179.0615	334
180.0274	11
180.068	116
181.025	29
181.0784	134
182.0397	218
183.0375	56
183.0534	16
184.0534	42
185.0494	34
186.031	49
186.0611	57
188.0315	65
189.0379	107
190.0471	68
191.047	28
193.0342	16
195.039	23
196.0408	15
197.0522	42
200.0328	14
202.0464	32
207.0325	23
208.0387	49
209.0517	74
210.0572	56
213.0394	12
214.035	12
215.0419	54
217.0572	73
228.0472	20
235.05	40
236.0599	10
