Mass spectrum: Pantoprazole sulfide; LC-ESI-QTOF; MS2; 80 V
Name: Pantoprazole sulfide
Class: Pharmaceutical; Metabolite
Formula: C16H15F2N3O3S
Exact mass: 367.0802
SMILES: COC1=C(C(=NC=C1)CSC2=NC3=C(N2)C=CC(=C3)OC(F)F)OC
InChI: InChI=1S/C16H15F2N3O3S/c1-22-13-5-6-19-12(14(13)23-2)8-25-16-20-10-4-3-9(24-15(17)18)7-11(10)21-16/h3-7,15H,8H2,1-2H3,(H,20,21)
Instrument: TripleTOF 5600 SCIEX
Instrument type: LC-ESI-QTOF
Ms type: MS2
Ion mode: POSITIVE
Collision energy: 80
Fragmentation mode: CID
Ionization: ESI
Column name: Zorbax Eclipse Plus C18 2.1 mm x 150 mm, 3.5 um, Agilent
Retention time: 7.575 min
Precursor m/z: 368.0875
Precursor type: [M+H]+
m/z	relative intensity
42.0444	59
51.0306	162
65.0435	999
67.0464	13
69.0369	24
78.0365	21
79.0435	55
80.0524	28
92.051	956
94.0296	17
94.0659	26
96.0026	32
96.0458	15
106.0631	9
107.0362	36
107.0716	11
108.0454	34
109.0556	17
110.007	26
110.0597	65
111.0116	11
117.0436	26
118.0512	26
122.0062	15
122.0595	57
123.0121	55
123.0349	11
135.0359	11
135.0544	101
136.0386	187
137.0464	17
138.0542	82
140.0163	21
150.0552	28
151.0071	115
152.0707	17
154.0318	63
168.0098	15
185.0538	17
223.0539	15
