Mass spectrum: Bisphenol-A bis(diphenyl phosphate); LC-ESI-QTOF; MS2; 110 V
Name: Bisphenol-A bis(diphenyl phosphate)
Class: Industrial_process
Formula: C39H34O8P2
Exact mass: 692.1729
SMILES: CC(C)(C1=CC=C(C=C1)OP(=O)(OC2=CC=CC=C2)OC3=CC=CC=C3)C4=CC=C(C=C4)OP(=O)(OC5=CC=CC=C5)OC6=CC=CC=C6
InChI: InChI=1S/C39H34O8P2/c1-39(2,31-23-27-37(28-24-31)46-48(40,42-33-15-7-3-8-16-33)43-34-17-9-4-10-18-34)32-25-29-38(30-26-32)47-49(41,44-35-19-11-5-12-20-35)45-36-21-13-6-14-22-36/h3-30H,1-2H3
Instrument: TripleTOF 6600 SCIEX
Instrument type: LC-ESI-QTOF
Ms type: MS2
Ion mode: POSITIVE
Collision energy: 110
Fragmentation mode: CID
Ionization: ESI
Column name: Zorbax Eclipse Plus C18 2.1 mm x 150 mm, 3.5 um, Agilent
Retention time: 17.714 min
Precursor m/z: 693.1802
Precursor type: [M+H]+
m/z	relative intensity
51.0221	27
65.0374	38
77.0381	415
79.054	19
89.0375	31
91.0536	334
95.0476	27
103.053	23
105.0689	54
107.0478	42
115.0537	940
116.061	101
117.0686	42
128.0605	31
133.0636	46
138.993	34
139.0527	15
140.0023	19
141.0676	27
151.0534	69
152.0612	653
153.0696	163
154.0766	19
155.0842	73
164.0611	19
165.0686	198
168.0565	598
170.0706	19
175.0148	38
176.0622	66
177.0684	97
178.0772	999
179.026	69
180.0326	58
181.0632	27
183.0785	50
183.1158	23
187.0298	66
189.0676	19
190.0766	27
191.0845	66
193.0638	15
202.0747	23
207.0796	34
208.0869	34
215.0256	602
226.0754	19
227.0866	19
228.0927	97
229.1012	19
233.0363	42
239.0855	77
241.1006	15
245.0353	38
251.0451	108
252.0922	77
253.1018	58
254.11	23
255.0557	58
273.0724	19
291.0787	34
327.0803	23
