Mass spectrum: 4-Oxo-4-[3-(trifluoromethyl)-5,6-dihydro-[1,2,4]triazolo[4,3-a]pyrazin-7(8H9-yl]-1-(2,4,5-trifluorophenyl)butan-2-one; LC-ESI-QTOF; MS2; 100 V
Name: 4-Oxo-4-[3-(trifluoromethyl)-5,6-dihydro-[1,2,4]triazolo[4,3-a]pyrazin-7(8H9-yl]-1-(2,4,5-trifluorophenyl)butan-2-one
Formula: C16H12F6N4O2
Exact mass: 406.0864
SMILES: FC1=C(F)C=C(CC(CC(N2CCN3C(C2)=NN=C3C(F)(F)F)=O)=O)C(F)=C1
InChI: InChI=1S/C16H12F6N4O2/c17-10-6-12(19)11(18)4-8(10)3-9(27)5-14(28)25-1-2-26-13(7-25)23-24-15(26)16(20,21)22/h4,6H,1-3,5,7H2
Instrument: TripleTOF 5600 SCIEX
Instrument type: LC-ESI-QTOF
Ms type: CID
Ion mode: POSITIVE
Collision energy: 100
Ionization: ESI
Column name: Zorbax Eclipse Plus C18 2.1 mm x 150 mm, 3.5 um, Agilent
Retention time: 9.691 min
Precursor m/z: 407.0937
Precursor type: [M+H]+
m/z	relative intensity
55.0286	37
56.0497	45
57.0138	13
68.9953	45
74.0154	29
75.0045	79
75.0232	66
81.0139	34
91.0103	37
95.0093	15
95.029	154
96.0064	15
99.0042	23
99.0226	31
101.0191	23
118.0199	77
119.0097	98
119.0271	18
125.0196	551
131.0105	21
138.0261	21
145.0265	999
150.0287	21
159.0031	13
169.0301	21
