Mass spectrum: Didesmethyl-citalopram; LC-ESI-QTOF; MS2; 140 V
Name: Didesmethyl-citalopram
Class: Pharmaceutical; Metabolite; Transformation_product-Metabolite
Formula: C18H17FN2O
Exact mass: 296.1325
SMILES: c1cc(ccc1C2(c3ccc(cc3CO2)C#N)CCCN)F
InChI: InChI=1S/C18H17FN2O/c19-16-5-3-15(4-6-16)18(8-1-9-20)17-7-2-13(11-21)10-14(17)12-22-18/h2-7,10H,1,8-9,12,20H2
Instrument: TripleTOF 5600 SCIEX
Instrument type: LC-ESI-QTOF
Ms type: MS2
Ion mode: POSITIVE
Collision energy: 140
Fragmentation mode: CID
Ionization: ESI
Column name: Zorbax Eclipse Plus C18 2.1 mm x 150 mm, 3.5 um, Agilent
Retention time: 7.575 min
Precursor m/z: 297.1398
Precursor type: [M+H]+
m/z	relative intensity
51.0301	155
57.0197	999
59.0339	76
60.0034	36
61.0324	18
65.0422	36
68.0127	32
69.0206	21
70.0234	21
73.01	79
74.0186	821
75.0265	539
76.0338	68
77.0425	112
81.0153	155
83.032	930
83.0702	18
84.0032	32
85.0099	173
86.0172	296
87.0249	351
88.0187	115
88.0346	32
89.0405	282
90.0371	32
92.0069	25
94.0225	104
95.0285	47
96.0385	32
97.0093	65
98.0162	666
99.0228	311
100.0317	61
102.0453	39
105.0135	54
106.0197	32
107.0288	141
109.0049	97
109.0451	123
110.0152	180
111.0098	39
111.023	173
112.0175	25
113.0385	148
114.0333	65
115.0545	57
116.0055	21
117.0132	18
118.0197	50
119.9964	21
120.0379	72
121.0066	68
122.0158	452
123.0222	253
124.0289	61
125.0364	43
126.0465	90
127.0486	54
129.0131	28
129.023	14
130.0105	28
131.0298	79
132.0013	32
133.0084	36
133.0438	68
134.015	126
135.0058	25
135.0221	65
136.0165	18
137.0383	68
138.0359	21
139.0567	18
140.0503	39
141.0104	32
142.023	50
143.0299	14
144.036	97
145.0084	25
146.0146	231
147.0198	199
148.0317	50
149.0391	104
150.0469	159
151.0489	47
153.0106	25
155.0306	57
157.0036	21
157.0445	47
158.0148	50
159.013	25
159.0238	25
161.0399	217
162.0462	94
163.0551	101
164.0505	25
165.0144	21
166.0229	25
167.0289	83
168.0376	260
169.043	54
170.0161	97
170.0545	47
171.0223	83
172.0282	54
173.0383	54
174.0473	162
175.046	61
179.0302	191
180.0363	90
181.0441	173
182.0384	25
185.0396	231
186.0437	206
186.0648	18
187.0526	246
188.0468	39
188.0575	21
190.0185	21
191.0321	68
192.0368	188
193.039	72
194.047	18
196.0304	57
197.0393	195
198.0476	361
199.0499	173
200.0649	57
203.0291	101
204.0374	126
205.0457	224
206.0421	83
209.0411	79
210.0435	104
211.052	177
212.0501	79
213.0626	21
214.024	18
215.0296	76
215.0507	39
216.0377	311
217.0434	112
218.0535	173
219.0447	21
222.0304	39
223.0432	148
224.0544	47
225.0629	54
227.0355	21
228.0312	28
229.043	112
230.0439	68
231.0596	39
236.053	97
240.0414	18
241.0393	32
242.0371	21
243.0456	83
254.0425	32
