Mass spectrum: Nafcillin; LC-ESI-QTOF; MS2; 150 V
Name: Nafcillin
Class: Pharmaceutical
Formula: C21H22N2O5S
Exact mass: 414.1249
SMILES: CCOC1=C(C2=CC=CC=C2C=C1)C(=O)NC3C4N(C3=O)C(C(S4)(C)C)C(=O)O
InChI: InChI=1S/C21H22N2O5S/c1-4-28-13-10-9-11-7-5-6-8-12(11)14(13)17(24)22-15-18(25)23-16(20(26)27)21(2,3)29-19(15)23/h5-10,15-16,19H,4H2,1-3H3,(H,22,24)(H,26,27)
Instrument: TripleTOF 6600 SCIEX
Instrument type: LC-ESI-QTOF
Ms type: MS2
Ion mode: POSITIVE
Collision energy: 150
Fragmentation mode: CID
Ionization: ESI
Column name: Zorbax Eclipse Plus C18 2.1 mm x 150 mm, 3.5 um, Agilent
Retention time: 10.616 min
Precursor m/z: 415.1322
Precursor type: [M+H]+
m/z	relative intensity
37.0074	31
39.0229	141
51.0227	57
61.0075	115
62.0149	199
63.0227	619
65.0382	369
74.0144	108
75.0224	112
77.0378	136
86.0143	67
87.0223	91
88.0298	79
89.038	999
101.038	24
102.0462	26
113.0379	120
114.0458	160
115.0533	878
125.0369	26
126.045	103
127.0528	91
128.0614	24
139.0527	64
140.0479	45
141.0595	9
150.0445	40
151.0531	43
152.0606	45
153.0519	9
154.0644	14
155.0594	16
164.0476	14
166.0607	14
