Mass spectrum: 2-Methylquinoline; LC-ESI-QTOF; MS2; 80 V
Name: 2-Methylquinoline
Formula: C10H9N
Exact mass: 143.0735
SMILES: CC1=NC2=CC=CC=C2C=C1
InChI: InChI=1S/C10H9N/c1-8-6-7-9-4-2-3-5-10(9)11-8/h2-7H,1H3
Instrument: TripleTOF X500R SCIEX
Instrument type: LC-ESI-QTOF
Ms type: MS2
Ion mode: POSITIVE
Collision energy: 80
Fragmentation mode: CID
Ionization: ESI
Column name: Zorbax Eclipse Plus C18 2.1 mm x 150 mm, 3.5 um, Agilent
Retention time: 4.69 min
Precursor m/z: 144.0808
Precursor type: [M+H]+
m/z	relative intensity
39.0234	63
49.0078	42
50.0153	573
51.0232	999
52.0318	31
62.0161	70
63.0233	105
65.0392	42
74.0157	175
75.0227	186
76.0307	42
77.0387	119
89.0402	73
101.0396	24
102.0486	21
115.0558	38
