Mass spectrum: Acesulfame; LC-ESI-QTOF; MS2; 80 V
Name: Acesulfame
Class: Food_additive; Personal_care_product
Formula: C4H5NO4S
Exact mass: 162.9939
SMILES: CC1=CC(=O)NS(=O)(=O)O1
InChI: InChI=1S/C4H5NO4S/c1-3-2-4(6)5-10(7,8)9-3/h2H,1H3,(H,5,6)
Instrument: TripleTOF 5600 SCIEX
Instrument type: LC-ESI-QTOF
Ms type: MS2
Ion mode: NEGATIVE
Collision energy: 80
Fragmentation mode: CID
Ionization: ESI
Column name: Zorbax Eclipse Plus C18 2.1 mm x 150 mm, 3.5 um, Agilent
Retention time: 4.125 min
Precursor m/z: 161.9867
Precursor type: [M-H]-
m/z	relative intensity
42.0005	61
47.9692	476
61.9766	61
63.9632	783
77.965	999
