Mass spectrum: Praziquantel; LC-ESI-QTOF; MS2; 60 V
Name: Praziquantel
Class: Pharmaceutical
Formula: C19H24N2O2
Exact mass: 312.1838
SMILES: O=C1CN(CC2N1CCc3ccccc23)C(=O)C4CCCCC4
InChI: InChI=1S/C19H24N2O2/c22-18-13-20(19(23)15-7-2-1-3-8-15)12-17-16-9-5-4-6-14(16)10-11-21(17)18/h4-6,9,15,17H,1-3,7-8,10-13H2
Instrument: TripleTOF 5600 SCIEX
Instrument type: LC-ESI-QTOF
Ms type: MS2
Ion mode: POSITIVE
Collision energy: 60
Fragmentation mode: CID
Ionization: ESI
Column name: Zorbax Eclipse Plus C18 2.1 mm x 150 mm, 3.5 um, Agilent
Retention time: 10.768 min
Precursor m/z: 313.1911
Precursor type: [M+H]+
m/z	relative intensity
55.0603	841
72.0475	41
72.0598	12
83.0874	568
91.0552	38
103.0553	25
105.07	115
115.0537	134
116.064	19
117.0697	224
127.0546	32
128.062	167
129.0701	375
130.065	202
131.0725	96
132.0805	999
144.0809	115
144.0996	16
145.0873	144
146.0959	298
158.0951	28
174.091	346
