Mass spectrum: Chrysin; LC-ESI-QTOF; MS2; 130 V
Name: Chrysin
Class: Pharmaceutical
Formula: C15H10O4
Exact mass: 254.0579
SMILES: Oc1cc(O)c2C(=O)C=C(Oc2c1)c3ccccc3
InChI: InChI=1S/C15H10O4/c16-10-6-11(17)15-12(18)8-13(19-14(15)7-10)9-4-2-1-3-5-9/h1-8,16-17H
Instrument: TripleTOF 5600 SCIEX
Instrument type: LC-ESI-QTOF
Ms type: CID
Ion mode: NEGATIVE
Collision energy: 130
Ionization: ESI
Column name: Zorbax Eclipse Plus C18 2.1 mm x 150 mm, 3.5 um, Agilent
Retention time: 11.048 min
Precursor m/z: 253.0506
Precursor type: [M-H]-
m/z	relative intensity
37.0128	106
41.0066	905
65.0049	999
