Mass spectrum: Florasulam; LC-ESI-QTOF; MS2; 90 V
Name: Florasulam
Class: Herbicide
Formula: C12H8F3N5O3S
Exact mass: 359.03
SMILES: COC1=NC=C(C2=NC(=NN21)S(=O)(=O)NC3=C(C=CC=C3F)F)F
InChI: InChI=1S/C12H8F3N5O3S/c1-23-12-16-5-8(15)10-17-11(18-20(10)12)24(21,22)19-9-6(13)3-2-4-7(9)14/h2-5,19H,1H3
Instrument: TripleTOF 6600 SCIEX
Instrument type: LC-ESI-QTOF
Ms type: MS2
Ion mode: POSITIVE
Collision energy: 90
Fragmentation mode: CID
Ionization: ESI
Column name: Zorbax Eclipse Plus C18 2.1 mm x 150 mm, 3.5 um, Agilent
Retention time: 9.723 min
Precursor m/z: 360.0373
Precursor type: [M+H]+
m/z	relative intensity
51.0012	14
51.0197	10
52.0156	39
57.0107	28
59.9968	21
61.0048	94
62.0122	356
63.02	346
65.0235	11
70.0052	28
74.0018	13
75.0016	50
76.0149	28
77.0125	19
78.0301	10
81.0103	517
82.0183	855
83.0132	10
83.0264	14
84.0087	18
85.0299	10
88.0147	67
89.0231	344
96.021	11
97.0157	23
100.0142	13
101.0165	268
102.0248	232
108.0206	102
109.0293	845
111.0188	13
128.0296	28
129.0356	999
