Mass spectrum: Thieno[3,2-b]pyridin-7-ol; LC-ESI-QTOF; MS2; 70 V
Name: Thieno[3,2-b]pyridin-7-ol
Formula: C7H5NOS
Exact mass: 151.0092
SMILES: C1=CNC2=C(C1=O)SC=C2
InChI: InChI=1S/C7H5NOS/c9-6-1-3-8-5-2-4-10-7(5)6/h1-4H,(H,8,9)
Instrument: TripleTOF 6600 SCIEX
Instrument type: LC-ESI-QTOF
Ms type: MS2
Ion mode: POSITIVE
Collision energy: 70
Fragmentation mode: CID
Ionization: ESI
Column name: Zorbax Eclipse Plus C18 2.1 mm x 150 mm, 3.5 um, Agilent
Retention time: 4.72 min
Precursor m/z: 152.0165
Precursor type: [M+H]+
m/z	relative intensity
35.9993	42
37.0076	263
38.0036	17
38.0154	203
39.0232	999
40.0186	59
41.0269	25
42.0336	14
43.9715	21
44.0133	47
44.9794	609
49.0078	12
50.0151	81
51.0226	87
52.018	32
52.0313	19
53.0024	237
53.0386	305
54.0336	34
55.0178	38
56.9792	83
57.9872	74
59.9981	10
61.0063	53
62.0153	132
63.0231	220
64.0178	40
64.0299	10
65.0385	10
66.0336	10
67.0407	83
67.9711	44
68.0129	51
68.9789	305
69.9876	66
70.9955	64
75.01	130
76.0179	258
78.0342	10
79.0406	17
80.049	134
80.9784	44
81.9868	25
82.9942	72
83.9897	17
84.0015	14
90.0326	17
91.0411	12
92.9786	12
94.0274	29
94.9958	74
96.0026	19
97.01	89
110.005	10
