Mass spectrum: 2-Phenylbenzimidazole; LC-ESI-QTOF; MS2; 60 V
Name: 2-Phenylbenzimidazole
Class: Industrial_process
Formula: C13H10N2
Exact mass: 194.0844
SMILES: [nH]1c2ccccc2nc1c3ccccc3
InChI: InChI=1S/C13H10N2/c1-2-6-10(7-3-1)13-14-11-8-4-5-9-12(11)15-13/h1-9H,(H,14,15)
Instrument: TripleTOF 5600 SCIEX
Instrument type: LC-ESI-QTOF
Ms type: MS2
Ion mode: NEGATIVE
Collision energy: 60
Fragmentation mode: CID
Ionization: ESI
Column name: Zorbax Eclipse Plus C18 2.1 mm x 150 mm, 3.5 um, Agilent
Retention time: 5.903 min
Precursor m/z: 193.0771
Precursor type: [M-H]-
m/z	relative intensity
88.0194	135
89.0279	82
90.034	117
115.0306	999
117.0457	534
141.0478	246
165.0491	70
167.0619	76
191.0623	458
192.0704	146
193.0771	669
194.0816	52
