Mass spectrum: Tributylphosphine oxide; LC-ESI-QTOF; MS2; 90 V
Name: Tributylphosphine oxide
Class: Industrial_process
Formula: C12H27OP
Exact mass: 218.18
SMILES: CCCC[P](=O)(CCCC)CCCC
InChI: InChI=1S/C12H27OP/c1-4-7-10-14(13,11-8-5-2)12-9-6-3/h4-12H2,1-3H3
Instrument: TripleTOF 5600 SCIEX
Instrument type: LC-ESI-QTOF
Ms type: MS2
Ion mode: POSITIVE
Collision energy: 90
Fragmentation mode: CID
Ionization: ESI
Column name: Zorbax Eclipse Plus C18 2.1 mm x 150 mm, 3.5 um, Agilent
Retention time: 11.114 min
Precursor m/z: 219.1872
Precursor type: [M+H]+
m/z	relative intensity
43.9886	20
44.9966	134
47.0081	19
56.9944	54
59.0091	17
63.0051	999
65.042	14
75.0027	15
77.0175	199
77.0399	45
78.025	85
78.0468	10
91.055	33
92.0395	10
115.0534	43
128.0613	16
