Mass spectrum: Chloroquine; LC-ESI-QTOF; MS2; 130 V
Name: Chloroquine
Class: Pharmaceutical
Formula: C18H26ClN3
Exact mass: 319.1815
SMILES: CCN(CC)CCCC(C)NC1=C2C=CC(=CC2=NC=C1)Cl
InChI: InChI=1S/C18H26ClN3/c1-4-22(5-2)12-6-7-14(3)21-17-10-11-20-18-13-15(19)8-9-16(17)18/h8-11,13-14H,4-7,12H2,1-3H3,(H,20,21)
Instrument: TripleTOF 6600 SCIEX
Instrument type: LC-ESI-QTOF
Ms type: MS2
Ion mode: POSITIVE
Collision energy: 130
Fragmentation mode: CID
Ionization: ESI
Column name: Zorbax Eclipse Plus C18 2.1 mm x 150 mm, 3.5 um, Agilent
Retention time: 4.84 min
Precursor m/z: 320.1888
Precursor type: [M+H]+
m/z	relative intensity
37.007	47
38.0152	40
39.0228	290
41.0384	80
42.0334	33
50.0145	94
51.023	148
52.0177	33
61.0072	47
62.0143	108
63.0226	404
72.9835	27
73.0065	60
74.0148	573
75.0226	931
76.0301	101
77.0382	330
78.0457	33
84.9838	47
88.0306	27
89.0383	999
90.0334	54
90.0467	175
98.0146	269
99.0109	54
99.0233	134
100.0175	94
100.0301	60
101.0376	310
102.0312	40
102.0458	128
110.9986	67
113.0379	33
114.032	33
114.0474	47
115.0536	40
116.049	216
117.0446	87
117.0556	94
122.998	33
126.0318	40
127.0409	94
128.0486	297
129.0437	94
129.0571	67
136.0068	74
140.0488	121
141.0554	27
142.0516	27
143.0594	74
151.0162	33
155.0593	40
163.0171	33
167.0597	54
168.0673	27
