Mass spectrum: Isopyrazam; LC-ESI-QTOF; MS2; 60 V
Name: Isopyrazam
Class: Fungicide
Formula: C20H23F2N3O
Exact mass: 359.1809
SMILES: CC(C)C1C2CCC1C3=C2C=CC=C3NC(=O)C4=CN(N=C4C(F)F)C
InChI: InChI=1S/C20H23F2N3O/c1-10(2)16-12-7-8-13(16)17-11(12)5-4-6-15(17)23-20(26)14-9-25(3)24-18(14)19(21)22/h4-6,9-10,12-13,16,19H,7-8H2,1-3H3,(H,23,26)
Instrument: TripleTOF 6600 SCIEX
Instrument type: LC-ESI-QTOF
Ms type: MS2
Ion mode: POSITIVE
Collision energy: 60
Fragmentation mode: CID
Ionization: ESI
Column name: Zorbax Eclipse Plus C18 2.1 mm x 150 mm, 3.5 um, Agilent
Retention time: 14.619 min
Precursor m/z: 360.1882
Precursor type: [M+H]+
m/z	relative intensity
39.0228	42
41.039	110
42.0343	31
43.0541	16
55.0542	63
65.0378	18
67.0547	137
69.0699	102
77.0387	52
79.0542	25
81.0695	28
82.0279	18
83.0291	12
89.0384	13
91.0539	45
93.0696	17
95.0597	63
95.0843	70
101.0381	10
103.054	27
104.0488	18
105.0327	19
108.0566	11
109.0394	72
109.1015	25
111.0324	14
113.0513	28
114.0447	15
115.0544	277
116.049	24
117.0583	17
123.0546	22
127.0535	89
128.0601	260
129.0692	64
130.0639	43
131.0419	14
132.0451	114
133.0446	31
134.0357	44
136.0504	33
139.0294	94
139.0529	11
140.0488	71
141.0459	46
141.0688	51
142.0654	79
142.0768	25
143.0597	22
143.0724	10
143.083	12
144.0806	17
145.0447	11
147.0576	12
148.0551	62
151.054	26
152.0532	66
153.058	47
154.064	135
155.0595	149
155.0859	15
156.0449	65
156.0781	49
157.0418	16
157.0766	20
158.0387	42
159.0359	674
160.0535	31
161.0654	10
162.0674	12
164.0504	15
165.0683	50
166.0644	73
167.0721	163
168.0759	159
169.0758	305
170.0581	39
170.0946	47
171.0587	15
171.0906	11
172.0562	48
173.0503	13
174.0635	25
175.0652	18
176.0488	14
177.0624	28
178.0661	69
179.0621	132
180.0569	57
180.0773	74
181.0743	151
182.0608	34
182.0889	74
183.0557	31
183.0908	57
184.0543	13
184.0841	31
184.1113	19
185.0501	18
185.069	31
186.0633	33
187.0695	19
189.0768	38
190.0636	44
191.0685	61
192.0778	98
193.0773	106
194.0725	60
194.0932	37
195.0569	17
195.088	129
196.0871	239
197.0707	173
197.0933	66
198.0743	37
198.1015	9
199.0706	65
200.0566	12
200.0783	25
201.0807	69
202.0626	25
203.0646	26
204.056	15
204.0825	44
205.077	83
206.0736	155
207.084	173
208.0669	36
208.0882	105
209.0599	138
209.0994	38
210.0688	28
210.101	73
211.0536	40
211.0859	68
212.0817	187
213.089	43
215.0625	10
215.0841	14
216.0837	35
217.0767	95
218.0838	31
219.0894	86
220.0875	137
221.0962	234
222.0738	75
222.1042	132
223.0789	186
223.1123	12
224.0818	296
224.1116	14
225.067	15
225.0894	70
226.0771	180
227.0625	178
228.056	28
229.0658	31
230.0721	25
231.0817	36
232.0854	50
233.0708	13
233.1035	49
234.0683	44
234.1032	136
235.0784	102
235.1153	39
236.0825	356
236.1178	13
237.0894	103
238.0974	362
241.0785	17
242.0689	27
243.0826	24
244.0876	318
245.0934	32
246.1004	22
247.0853	36
247.1137	22
248.0831	85
248.1172	100
249.09	729
250.0976	999
251.1107	40
252.1122	161
256.085	20
258.1032	66
259.0845	11
259.1105	27
260.0876	20
260.1194	31
261.0967	47
262.0963	367
263.1019	119
264.1125	123
270.1026	12
272.1194	11
274.0992	15
275.1085	28
276.1122	412
277.1229	161
278.1293	282
290.1324	58
292.1447	78
304.1434	44
320.1776	31
