Mass spectrum: Kresoxim-methyl; LC-ESI-QTOF; MS2; 90 V
Name: Kresoxim-methyl
Class: Fungicide
Formula: C18H19NO4
Exact mass: 313.1314
SMILES: CC1=CC=CC=C1OCC2=CC=CC=C2C(=NOC)C(=O)OC
InChI: InChI=1S/C18H19NO4/c1-13-8-4-7-11-16(13)23-12-14-9-5-6-10-15(14)17(19-22-3)18(20)21-2/h4-11H,12H2,1-3H3
Instrument: TripleTOF 6600 SCIEX
Instrument type: LC-ESI-QTOF
Ms type: MS2
Ion mode: POSITIVE
Collision energy: 90
Fragmentation mode: CID
Ionization: ESI
Column name: Zorbax Eclipse Plus C18 2.1 mm x 150 mm, 3.5 um, Agilent
Retention time: 13.809 min
Precursor m/z: 314.1387
Precursor type: [M+H]+
m/z	relative intensity
37.0066	15
39.0228	61
51.0225	78
61.0065	12
62.0148	33
63.0218	172
64.0162	15
64.0293	15
65.0376	149
74.0134	15
75.0213	25
76.0305	12
77.0381	282
78.0454	20
88.03	20
89.0375	597
90.0318	20
90.0453	88
91.0524	175
99.0233	15
101.04	20
102.0325	15
102.045	45
103.0525	63
104.0473	15
113.0381	25
114.0462	12
115.0524	142
116.0492	160
117.0568	48
118.065	30
125.0377	53
126.046	68
127.053	127
128.0617	88
129.0457	10
130.0375	10
130.0639	66
138.0431	12
139.0529	180
140.0474	99
141.0706	17
149.037	27
150.0449	264
151.0529	810
152.0613	999
153.0672	86
154.0629	33
155.0592	25
162.0433	12
163.0542	147
164.061	200
165.0691	592
166.0654	66
167.0695	71
174.0496	20
175.0532	71
176.0621	381
177.0587	381
178.0755	516
179.066	96
180.0572	15
180.0796	76
181.0654	33
188.0465	43
189.065	96
190.0642	152
191.0723	137
192.0808	86
193.0867	53
194.0724	12
194.0982	25
201.0567	45
202.0644	48
203.0708	30
204.0521	10
204.0798	38
206.0596	81
220.0728	15
