Mass spectrum: Isopropyltriphenylphosphonium; LC-ESI-QTOF; MS2; 150 V
Name: Isopropyltriphenylphosphonium
Formula: [C21H22P]+
Exact mass: 305.1454
SMILES: CC(C)[P+](C1=CC=CC=C1)(C2=CC=CC=C2)C3=CC=CC=C3
InChI: InChI=1S/C21H22P/c1-18(2)22(19-12-6-3-7-13-19,20-14-8-4-9-15-20)21-16-10-5-11-17-21/h3-18H,1-2H3/q+1
Instrument: TripleTOF 5600 SCIEX
Instrument type: LC-ESI-QTOF
Ms type: MS2
Ion mode: POSITIVE
Collision energy: 150
Fragmentation mode: CID
Ionization: ESI
Column name: Zorbax Eclipse Plus C18 2.1 mm x 150 mm, 3.5 um, Agilent
Retention time: 7.721 min
Precursor m/z: 305.1454
Precursor type: [M]+
m/z	relative intensity
39.0232	152
50.0152	109
51.0231	119
56.9888	176
62.015	117
63.0225	366
65.0379	133
74.0145	176
76.0303	133
77.0376	117
78.0454	61
78.9725	85
79.9798	396
80.9877	569
86.0135	119
87.0209	181
89.0367	329
98.0138	133
102.0449	154
103.9795	150
104.9871	91
107.0031	999
113.0376	126
115.0535	159
125.0366	67
126.0451	305
131.0046	133
139.0533	113
150.0451	479
151.054	418
152.0612	211
155.0036	154
156.0117	102
157.0202	139
179.0044	154
180.0111	183
181.02	305
