Mass spectrum: 2-isopropyl-5,6-dimethyl-1H-benzimidazole; LC-ESI-QTOF; MS2; 40 V
Name: 2-isopropyl-5,6-dimethyl-1H-benzimidazole
Formula: C12H16N2
Exact mass: 188.1313
SMILES: CC1=CC2=C(C=C1C)N=C(N2)C(C)C
InChI: InChI=1S/C12H16N2/c1-7(2)12-13-10-5-8(3)9(4)6-11(10)14-12/h5-7H,1-4H3,(H,13,14)
Instrument: TripleTOF 6600 SCIEX
Instrument type: LC-ESI-QTOF
Ms type: MS2
Ion mode: POSITIVE
Collision energy: 40
Fragmentation mode: CID
Ionization: ESI
Column name: Zorbax Eclipse Plus C18 2.1 mm x 150 mm, 3.5 um, Agilent
Retention time: 6.482 min
Precursor m/z: 189.1386
Precursor type: [M+H]+
m/z	relative intensity
93.0685	10
120.0798	40
131.0592	19
132.067	27
145.0746	11
147.0907	107
158.0825	18
159.0903	15
173.1061	999
174.1136	102
189.137	30
