Mass spectrum: Propyphenazone; LC-ESI-QTOF; MS2; 80 V
Name: Propyphenazone
Class: Pharmaceutical
Formula: C14H18N2O
Exact mass: 230.1419
SMILES: CC1=C(C(=O)N(N1C)C2=CC=CC=C2)C(C)C
InChI: InChI=1S/C14H18N2O/c1-10(2)13-11(3)15(4)16(14(13)17)12-8-6-5-7-9-12/h5-10H,1-4H3
Instrument: TripleTOF 5600 SCIEX
Instrument type: LC-ESI-QTOF
Ms type: MS2
Ion mode: POSITIVE
Collision energy: 80
Fragmentation mode: CID
Ionization: ESI
Column name: Zorbax Eclipse Plus C18 2.1 mm x 150 mm, 3.5 um, Agilent
Retention time: 9.545 min
Precursor m/z: 231.1492
Precursor type: [M+H]+
m/z	relative intensity
37.0072	14
38.0146	14
39.023	90
41.0254	19
41.0382	45
42.0337	61
44.0498	11
49.0063	14
50.0153	88
51.0228	425
53.0385	73
54.0333	21
55.0542	40
56.0494	872
58.065	11
63.0224	19
65.0382	206
66.0458	28
67.0176	11
67.0415	195
68.0489	23
70.0656	14
74.0138	11
75.0227	14
77.0384	999
78.0328	26
78.0465	21
79.0532	66
80.0493	242
81.0569	78
82.065	204
89.0375	104
90.0466	38
91.0541	92
92.0497	54
93.0568	45
94.065	173
95.0722	11
96.0816	49
101.0394	11
102.048	30
103.0546	49
104.0487	45
115.0537	147
116.0507	26
116.0607	11
117.0567	90
118.0641	23
127.0549	23
128.0503	45
128.0646	19
129.057	21
130.0659	128
131.0588	11
140.0484	30
141.0423	9
142.0638	11
143.0733	26
145.0758	14
156.0774	9
157.0753	19
185.0669	16
