Mass spectrum: 1-Hydroxybenzotriazol; LC-ESI-QTOF; MS2; 40 V
Name: 1-Hydroxybenzotriazol
Class: Pharmaceutical; Industrial_process; Transformation_product
Formula: C6H5N3O
Exact mass: 135.0433
SMILES: c1ccc2c(c1)nnn2O
InChI: InChI=1S/C6H5N3O/c10-9-6-4-2-1-3-5(6)7-8-9/h1-4,10H
Instrument: TripleTOF 5600 SCIEX
Instrument type: LC-ESI-QTOF
Ms type: MS2
Ion mode: POSITIVE
Collision energy: 40
Fragmentation mode: CID
Ionization: ESI
Column name: Zorbax Eclipse Plus C18 2.1 mm x 150 mm, 3.5 um, Agilent
Retention time: 5.24 min
Precursor m/z: 136.0505
Precursor type: [M+H]+
m/z	relative intensity
41.0342	34
51.0268	34
52.0236	188
53.0448	49
61.0123	36
62.02	134
63.0277	770
64.0355	530
65.0307	206
76.0209	44
77.0421	122
78.0489	76
80.051	17
90.036	24
91.0441	999
119.0481	171
136.0511	230
