Mass spectrum: 17alpha-Hydroxyprogesterone; LC-ESI-QTOF; MS2; 140 V
Name: 17alpha-Hydroxyprogesterone
Class: Pharmaceutical
Formula: C21H30O3
Exact mass: 330.2195
SMILES: CC(=O)[C@@]1(O)CC[C@H]2[C@@H]3CCC4=CC(=O)CC[C@]4(C)[C@H]3CC[C@]12C
InChI: InChI=1S/C21H30O3/c1-13(22)21(24)11-8-18-16-5-4-14-12-15(23)6-9-19(14,2)17(16)7-10-20(18,21)3/h12,16-18,24H,4-11H2,1-3H3/t16-,17+,18+,19+,20+,21+/m1/s1
Instrument: TripleTOF 5600 SCIEX
Instrument type: LC-ESI-QTOF
Ms type: MS2
Ion mode: POSITIVE
Collision energy: 140
Fragmentation mode: CID
Ionization: ESI
Column name: Zorbax Eclipse Plus C18 2.1 mm x 150 mm, 3.5 um, Agilent
Retention time: 11.808 min
Precursor m/z: 331.2268
Precursor type: [M+H]+
m/z	relative intensity
43.0264	323
43.0443	53
51.0282	323
53.0433	96
55.0228	77
55.0587	48
57.0386	24
65.0421	371
66.0512	38
67.057	62
77.041	999
77.0735	28
78.0487	67
79.0564	294
81.071	33
82.0441	24
89.0404	96
91.0555	386
94.0412	28
97.0656	67
102.0461	72
103.0544	72
107.0495	53
109.0646	33
115.0536	424
117.0682	24
126.0463	33
127.0548	120
128.0621	231
129.0724	19
141.0688	53
151.0524	48
152.0615	111
153.0708	24
163.0525	28
164.0599	33
165.0694	77
178.0809	24
