Mass spectrum: Olmesartan; LC-ESI-QTOF; MS2; 150 V
Name: Olmesartan
Class: Pharmaceutical
Formula: C24H26N6O3
Exact mass: 446.2066
SMILES: CCCc1nc(c(n1Cc2ccc(cc2)c3ccccc3c4n[nH]nn4)C(O)=O)C(C)(C)O
InChI: InChI=1S/C24H26N6O3/c1-4-7-19-25-21(24(2,3)33)20(23(31)32)30(19)14-15-10-12-16(13-11-15)17-8-5-6-9-18(17)22-26-28-29-27-22/h5-6,8-13,33H,4,7,14H2,1-3H3,(H,31,32)(H,26,27,28,29)
Instrument: TripleTOF 5600 SCIEX
Instrument type: LC-ESI-QTOF
Ms type: MS2
Ion mode: POSITIVE
Collision energy: 150
Fragmentation mode: CID
Ionization: ESI
Column name: Zorbax Eclipse Plus C18 2.1 mm x 150 mm, 3.5 um, Agilent
Retention time: 7.356 min
Precursor m/z: 447.2139
Precursor type: [M+H]+
m/z	relative intensity
53.0437	20
65.0411	18
74.0177	32
75.0257	69
77.0418	208
78.0488	21
80.0515	18
87.0251	60
88.0204	16
88.0325	28
89.0403	113
98.016	29
99.0228	48
101.0388	50
102.047	74
113.039	140
114.0347	43
114.0465	37
115.0543	137
125.0383	96
126.0468	223
127.0541	145
128.0628	80
137.039	135
138.0446	80
139.0546	190
140.0495	201
149.0382	59
150.0471	597
151.0549	999
152.0622	825
153.0591	33
161.0379	55
162.0465	154
163.0549	633
164.0515	418
165.07	123
166.0654	21
175.0531	51
176.0625	435
177.0583	254
178.0661	141
179.0668	24
188.0493	218
189.0579	118
190.0657	304
191.0597	14
203.0602	11
204.0655	11
205.0759	68
