Mass spectrum: Parathion; LC-ESI-QTOF; MS2; 30 V
Name: Parathion
Class: Insecticide
Formula: C10H14NO5PS
Exact mass: 291.033
SMILES: CCOP(=S)(OCC)Oc1ccc(cc1)[N+](=O)[O-]
InChI: InChI=1S/C10H14NO5PS/c1-3-14-17(18,15-4-2)16-10-7-5-9(6-8-10)11(12)13/h5-8H,3-4H2,1-2H3
Instrument: TripleTOF 5600 SCIEX
Instrument type: LC-ESI-QTOF
Ms type: MS2
Ion mode: POSITIVE
Collision energy: 30
Fragmentation mode: CID
Ionization: ESI
Column name: Zorbax Eclipse Plus C18 2.1 mm x 150 mm, 3.5 um, Agilent
Retention time: 14.107 min
Precursor m/z: 292.0403
Precursor type: [M+H]+
m/z	relative intensity
93.0607	18
94.0422	129
96.9513	107
109.0255	15
110.0183	119
123.0312	153
125.0055	12
139.0102	15
140.0335	236
156.0096	202
171.9737	36
187.9732	15
189.984	218
201.9874	30
217.9667	212
218.9713	64
235.9777	999
