Mass spectrum: Diflufenican; LC-ESI-QTOF; MS2; 70 V
Name: Diflufenican
Class: Herbicide
Formula: C19H11F5N2O2
Exact mass: 394.0741
SMILES: C1=CC(=CC(=C1)OC2=C(C=CC=N2)C(=O)NC3=C(C=C(C=C3)F)F)C(F)(F)F
InChI: InChI=1S/C19H11F5N2O2/c20-12-6-7-16(15(21)10-12)26-17(27)14-5-2-8-25-18(14)28-13-4-1-3-11(9-13)19(22,23)24/h1-10H,(H,26,27)
Instrument: TripleTOF 6600 SCIEX
Instrument type: LC-ESI-QTOF
Ms type: MS2
Ion mode: NEGATIVE
Collision energy: 70
Fragmentation mode: CID
Ionization: ESI
Column name: Zorbax Eclipse Plus C18 2.1 mm x 150 mm, 3.5 um, Agilent
Retention time: 14.853 min
Precursor m/z: 393.0668
Precursor type: [M-H]-
m/z	relative intensity
94.0279	38
121.0076	84
136.0224	38
150.0343	30
161.0221	115
165.0455	92
172.0199	53
185.0509	130
192.026	407
210.0149	30
212.0312	999
230.0219	99
232.0376	215
251.0344	99
252.044	299
270.0348	146
