Mass spectrum: Flusilazole; LC-ESI-QTOF; MS2; 40 V
Name: Flusilazole
Class: Fungicide
Formula: C16H15F2N3Si
Exact mass: 315.1003
SMILES: C[Si](CN1C=NC=N1)(C2=CC=C(C=C2)F)C3=CC=C(C=C3)F
InChI: InChI=1S/C16H15F2N3Si/c1-22(12-21-11-19-10-20-21,15-6-2-13(17)3-7-15)16-8-4-14(18)5-9-16/h2-11H,12H2,1H3
Instrument: TripleTOF 6600 SCIEX
Instrument type: LC-ESI-QTOF
Ms type: MS2
Ion mode: POSITIVE
Collision energy: 40
Fragmentation mode: CID
Ionization: ESI
Column name: Zorbax Eclipse Plus C18 2.1 mm x 150 mm, 3.5 um, Agilent
Retention time: 12.729 min
Precursor m/z: 316.1076
Precursor type: [M+H]+
m/z	relative intensity
46.9742	10
77.0379	37
80.9959	63
91.0533	38
103.053	19
105.0688	44
109.044	35
115.0528	20
123.0049	19
125.0208	108
141.0688	22
143.0112	25
149.0206	32
151.0373	145
152.061	61
153.069	14
157.0273	195
164.0613	35
165.0695	999
166.0775	67
169.0463	18
170.0521	11
171.0428	45
178.0767	27
179.0843	24
181.0274	11
183.0596	75
184.0669	10
185.0755	134
199.0368	41
217.028	26
219.0436	355
227.0684	48
231.0436	18
232.0515	15
247.0749	46
