Mass spectrum: 2-Ethylidene-1,5-dimethyl-3,3-diphenylpyrrolidine; LC-ESI-QTOF; MS2; 35 V
Name: 2-Ethylidene-1,5-dimethyl-3,3-diphenylpyrrolidine
Class: Metabolite; Pharmaceutical
Formula: C20H23N
Exact mass: 277.183
SMILES: CC=C1C(CC(N1C)C)(C2=CC=CC=C2)C3=CC=CC=C3
InChI: InChI=1S/C20H23N/c1-4-19-20(15-16(2)21(19)3,17-11-7-5-8-12-17)18-13-9-6-10-14-18/h4-14,16H,15H2,1-3H3
Instrument: TripleTOF 5600 SCIEX
Instrument type: LC-ESI-QTOF
Ms type: MS2
Ion mode: POSITIVE
Collision energy: 35
Fragmentation mode: CID
Ionization: ESI
Column name: Zorbax Eclipse Plus C18 2.1 mm x 150 mm, 3.5 um, Agilent
Retention time: 8.33 min
Precursor m/z: 278.1904
Precursor type: [M+H]+
m/z	relative intensity
56.0539	1
57.0677	0
58.0677	4
70.0648	1
77.0383	0
91.0614	3
96.0845	0
98.0973	2
103.0489	0
105.0714	3
115.0554	0
117.0699	1
118.0634	2
120.0793	0
124.1122	0
128.0672	0
129.072	1
130.0722	0
131.0849	0
132.0885	0
142.0801	0
143.0845	2
144.0834	1
145.1039	0
152.07	0
154.0723	0
155.0854	0
156.0877	5
157.0933	8
158.1021	17
159.0999	2
165.0755	1
167.0886	1
170.1018	5
171.1121	7
172.1156	22
173.1221	3
177.0772	0
178.083	3
180.088	0
185.1267	1
186.1345	110
187.14	13
191.0903	1
200.1494	24
201.1547	41
206.1003	3
207.1097	14
208.116	5
219.1135	29
220.1151	10
221.1191	3
222.1309	0
234.1367	999
235.1376	132
236.1521	3
248.1533	30
249.1599	385
250.1626	63
263.174	2
278.1904	400
