Mass spectrum: Acebutolol; LC-ESI-QTOF; MS2; 40 V
Name: Acebutolol
Class: Pharmaceutical
Formula: C18H28N2O4
Exact mass: 336.2049
SMILES: CCCC(=O)Nc1ccc(OCC(O)CNC(C)C)c(c1)C(C)=O
InChI: InChI=1S/C18H28N2O4/c1-5-6-18(23)20-14-7-8-17(16(9-14)13(4)21)24-11-15(22)10-19-12(2)3/h7-9,12,15,19,22H,5-6,10-11H2,1-4H3,(H,20,23)
Instrument: TripleTOF 5600 SCIEX
Instrument type: LC-ESI-QTOF
Ms type: MS2
Ion mode: POSITIVE
Collision energy: 40
Fragmentation mode: CID
Ionization: ESI
Column name: Zorbax Eclipse Plus C18 2.1 mm x 150 mm, 3.5 um, Agilent
Retention time: 5.965 min
Precursor m/z: 337.2122
Precursor type: [M+H]+
m/z	relative intensity
56.0564	346
58.0704	26
71.0529	15
72.0852	355
74.0641	376
98.0979	248
110.0603	36
114.0912	11
116.108	999
120.0806	42
134.0954	18
136.0743	9
148.0759	166
150.0916	16
152.0701	13
160.0758	36
162.0908	15
164.0717	12
172.076	10
180.1022	99
190.0844	20
206.1175	10
218.1171	234
220.1339	14
222.1123	72
230.1182	32
248.1264	18
260.1276	81
319.2003	24
337.211	42
