Mass spectrum: Iobitridol; LC-ESI-QTOF; MS2; 70 V
Name: Iobitridol
Class: Pharmaceutical
Formula: C20H28I3N3O9
Exact mass: 834.896
SMILES: CN(CC(O)CO)C(=O)c1c(I)c(NC(=O)C(CO)CO)c(I)c(c1I)C(=O)N(C)CC(O)CO
InChI: InChI=1S/C20H28I3N3O9/c1-25(3-10(31)7-29)19(34)12-14(21)13(20(35)26(2)4-11(32)8-30)16(23)17(15(12)22)24-18(33)9(5-27)6-28/h9-11,27-32H,3-8H2,1-2H3,(H,24,33)
Instrument: TripleTOF 5600 SCIEX
Instrument type: LC-ESI-QTOF
Ms type: MS2
Ion mode: POSITIVE
Collision energy: 70
Fragmentation mode: CID
Ionization: ESI
Column name: Zorbax Eclipse Plus C18 2.1 mm x 150 mm, 3.5 um, Agilent
Retention time: 4.58 min
Precursor m/z: 835.9032
Precursor type: [M+H]+
m/z	relative intensity
170.0215	62
273.0852	87
285.9401	49
296.9281	99
313.9323	62
317.962	124
321.1126	99
325.9349	99
326.9422	99
339.9098	112
343.9415	149
344.9452	87
369.9155	87
387.9336	312
395.8442	49
400.9975	611
413.8116	224
425.8292	49
426.9767	174
431.0123	249
439.7934	399
449.0226	99
451.8268	62
456.996	137
467.8273	74
470.8522	274
475.0	112
481.8471	87
497.7202	87
497.8315	686
499.8492	62
515.8361	49
541.7206	74
554.8924	999
584.8932	87
584.9231	149
602.9159	599
628.7763	87
628.8008	187
641.9268	62
641.9721	62
