Mass spectrum: Tebuconazole; LC-ESI-QTOF; MS2; 40 V
Name: Tebuconazole
Class: Fungicide
Formula: C16H22ClN3O
Exact mass: 307.1451
SMILES: CC(C)(C)C(O)(CCc1ccc(Cl)cc1)Cn2cncn2
InChI: InChI=1S/C16H22ClN3O/c1-15(2,3)16(21,10-20-12-18-11-19-20)9-8-13-4-6-14(17)7-5-13/h4-7,11-12,21H,8-10H2,1-3H3
Instrument: TripleTOF 5600 SCIEX
Instrument type: LC-ESI-QTOF
Ms type: MS2
Ion mode: POSITIVE
Collision energy: 40
Fragmentation mode: CID
Ionization: ESI
Column name: Zorbax Eclipse Plus C18 2.1 mm x 150 mm, 3.5 um, Agilent
Retention time: 12.72 min
Precursor m/z: 308.1524
Precursor type: [M+H]+
m/z	relative intensity
43.0391	32
57.0764	58
59.0553	69
69.0733	12
70.0458	999
83.0881	35
89.0404	33
98.9999	16
103.0544	25
115.0549	126
116.0625	141
125.016	622
129.0698	29
130.0777	42
139.031	71
144.0926	10
151.0311	263
165.0461	70
179.0609	17
