Mass spectrum: Naftifine; LC-ESI-QTOF; MS2; 140 V
Name: Naftifine
Class: Pharmaceutical; Fungicide
Formula: C21H21N
Exact mass: 287.1674
SMILES: CN(C/C=C/c1ccccc1)Cc2cccc3c2cccc3
InChI: InChI=1S/C21H21N/c1-22(16-8-11-18-9-3-2-4-10-18)17-20-14-7-13-19-12-5-6-15-21(19)20/h2-15H,16-17H2,1H3/b11-8+
Instrument: TripleTOF 5600 SCIEX
Instrument type: LC-ESI-QTOF
Ms type: MS2
Ion mode: POSITIVE
Collision energy: 140
Fragmentation mode: CID
Ionization: ESI
Column name: Zorbax Eclipse Plus C18 2.1 mm x 150 mm, 3.5 um, Agilent
Retention time: 8.505 min
Precursor m/z: 288.1747
Precursor type: [M+H]+
m/z	relative intensity
60.0054	21
63.0549	10
65.0433	835
73.015	12
74.0179	136
75.0267	72
76.0334	39
77.041	39
78.0481	14
85.0106	21
86.0164	81
87.0245	89
88.032	30
89.0403	788
91.0555	426
91.0943	10
98.0147	18
102.0458	32
113.0378	69
114.046	39
115.0543	999
139.0535	107
