Mass spectrum: 3-Alizarinsulfonic acid; LC-ESI-QTOF; MS2; 70 V
Name: 3-Alizarinsulfonic acid
Formula: C14H8O7S
Exact mass: 319.9991
SMILES: C1=CC=C2C(=C1)C(=O)C3=CC(=C(C(=C3C2=O)O)O)S(=O)(=O)O
InChI: InChI=1S/C14H8O7S/c15-11-6-3-1-2-4-7(6)12(16)10-8(11)5-9(22(19,20)21)13(17)14(10)18/h1-5,17-18H,(H,19,20,21)
Instrument: TripleTOF 6600 SCIEX
Instrument type: LC-ESI-QTOF
Ms type: MS2
Ion mode: NEGATIVE
Collision energy: 70
Fragmentation mode: CID
Ionization: ESI
Column name: Zorbax Eclipse Plus C18 2.1 mm x 150 mm, 3.5 um, Agilent
Retention time: 8.229 min
Precursor m/z: 318.9918
Precursor type: [M-H]-
m/z	relative intensity
79.9564	60
80.9638	20
101.0388	85
125.0391	121
127.0554	73
137.039	12
143.055	12
145.031	15
153.034	30
154.0435	22
155.0486	85
167.0495	156
182.0382	37
183.0463	37
193.0292	15
195.0465	12
198.0281	12
210.0318	999
211.0391	206
226.0283	12
238.0253	20
239.0344	60
