Mass spectrum: Spirodiclofen-enol; LC-ESI-QTOF; MS2; 90 V
Name: Spirodiclofen-enol
Formula: C15H14Cl2O3
Exact mass: 312.032
SMILES: C1CCC2(CC1)C(=C(C(=O)O2)C3=C(C=C(C=C3)Cl)Cl)O
InChI: InChI=1S/C15H14Cl2O3/c16-9-4-5-10(11(17)8-9)12-13(18)15(20-14(12)19)6-2-1-3-7-15/h4-5,8,18H,1-3,6-7H2
Instrument: TripleTOF 6600 SCIEX
Instrument type: LC-ESI-QTOF
Ms type: MS2
Ion mode: POSITIVE
Collision energy: 90
Fragmentation mode: CID
Ionization: ESI
Column name: Zorbax Eclipse Plus C18 2.1 mm x 150 mm, 3.5 um, Agilent
Retention time: 12.261 min
Precursor m/z: 313.0393
Precursor type: [M+H]+
m/z	relative intensity
39.0232	29
41.0392	29
51.0231	17
61.0065	11
62.0152	25
63.0233	34
65.0377	11
67.054	13
72.9837	298
74.0147	109
75.0226	209
77.0385	104
79.0541	21
82.9443	67
84.9828	11
86.0148	36
87.0229	177
88.0304	13
89.0381	197
96.9835	211
98.0143	11
98.9984	50
99.0223	25
101.0373	20
102.046	16
106.9444	266
108.983	62
110.9993	107
112.0065	15
113.0372	70
114.0465	36
115.0541	176
120.9827	14
121.9916	213
122.9985	119
124.0062	35
126.0444	34
127.0545	59
128.0615	33
130.9443	30
131.0472	10
132.9601	16
136.0058	54
139.0041	26
139.0532	70
141.0688	23
144.9595	16
148.0058	23
149.0149	43
150.0449	17
151.0535	73
152.061	162
153.0703	19
155.0581	10
156.9598	999
158.9757	50
162.0223	28
163.0538	36
164.0604	30
165.0688	141
172.9669	11
176.0605	73
177.0704	52
178.0771	291
182.975	13
199.0294	16
