Mass spectrum: Diaveridine; LC-ESI-QTOF; MS2; 100 V
Name: Diaveridine
Class: Pharmaceutical
Formula: C13H16N4O2
Exact mass: 260.1273
SMILES: COC1=C(C=C(C=C1)CC2=CN=C(N=C2N)N)OC
InChI: InChI=1S/C13H16N4O2/c1-18-10-4-3-8(6-11(10)19-2)5-9-7-16-13(15)17-12(9)14/h3-4,6-7H,5H2,1-2H3,(H4,14,15,16,17)
Instrument: TripleTOF 5600 SCIEX
Instrument type: LC-ESI-QTOF
Ms type: MS2
Ion mode: POSITIVE
Collision energy: 100
Fragmentation mode: CID
Ionization: ESI
Column name: Zorbax Eclipse Plus C18 2.1 mm x 150 mm, 3.5 um, Agilent
Retention time: 4.966 min
Precursor m/z: 261.1346
Precursor type: [M+H]+
m/z	relative intensity
41.0398	80
43.0423	183
52.0278	161
53.0223	22
53.0308	18
53.0447	29
54.0438	367
55.0462	18
55.0572	14
64.0343	44
65.0463	135
67.0349	22
67.0455	14
68.0302	18
68.0422	84
69.0531	22
74.0204	29
75.0287	183
76.0349	33
77.0256	14
77.0441	999
78.0372	22
78.0485	77
79.0332	128
79.0594	88
80.0435	25
80.0548	18
81.0493	315
83.0529	44
86.0181	18
87.0274	36
88.0286	25
89.0428	411
90.0449	84
91.0579	176
92.049	29
93.0655	22
94.0441	14
96.0624	58
99.0255	18
100.0207	18
101.0409	176
102.0453	154
103.0313	29
103.0556	154
104.053	106
105.0393	117
106.0434	29
106.0633	25
107.053	128
109.0552	40
113.0417	80
114.0362	88
115.0478	55
116.0511	187
117.0578	106
118.0346	18
118.0624	69
119.0626	14
123.068	47
124.0764	18
126.0362	29
127.0435	55
128.0515	121
129.0476	66
130.0427	29
130.065	55
131.0476	29
131.0574	36
132.0517	18
133.031	44
140.051	69
141.0476	29
142.0535	55
143.0637	29
144.0555	29
146.0608	25
147.0701	14
153.045	33
155.0637	25
170.0708	22
171.0616	22
185.0842	29
