Mass spectrum: Reserpine; LC-ESI-QTOF; MS2; 60 V
Name: Reserpine
Class: Natural_product; Pharmaceutical
Formula: C33H40N2O9
Exact mass: 608.2734
SMILES: COC1C(CC2CN3CCC4=C(C3CC2C1C(=O)OC)NC5=C4C=CC(=C5)OC)OC(=O)C6=CC(=C(C(=C6)OC)OC)OC
InChI: InChI=1S/C33H40N2O9/c1-38-19-7-8-20-21-9-10-35-16-18-13-27(44-32(36)17-11-25(39-2)30(41-4)26(12-17)40-3)31(42-5)28(33(37)43-6)22(18)15-24(35)29(21)34-23(20)14-19/h7-8,11-12,14,18,22,24,27-28,31,34H,9-10,13,15-16H2,1-6H3
Instrument: TripleTOF 5600 SCIEX
Instrument type: LC-ESI-QTOF
Ms type: MS2
Ion mode: POSITIVE
Collision energy: 60
Fragmentation mode: CID
Ionization: ESI
Column name: Zorbax Eclipse Plus C18 2.1 mm x 150 mm, 3.5 um, Agilent
Retention time: 8.6 min
Precursor m/z: 609.2807
Precursor type: [M+H]+
m/z	relative intensity
109.0677	14
111.0467	11
115.0564	10
117.0686	11
120.0832	13
124.0547	15
130.0665	20
131.0749	42
132.0825	20
139.0773	40
142.0673	10
143.074	42
144.082	25
147.0795	21
148.0766	30
152.0473	51
159.0696	101
160.0762	61
161.0845	21
162.0915	16
167.0705	79
172.076	15
173.0842	15
174.0916	812
176.1071	12
185.0834	11
186.0911	29
188.1075	44
190.0849	14
192.1014	84
195.0653	999
198.0912	14
199.0968	20
200.1066	50
201.1036	13
204.1023	40
210.0895	15
212.1063	16
214.111	25
215.1182	21
224.1081	12
224.1259	34
226.1241	12
227.1183	19
236.1262	126
237.111	17
238.12	29
248.106	16
249.11	11
250.1208	21
251.119	30
253.1319	18
261.1135	13
262.1187	26
264.1313	15
265.1331	29
266.1359	14
274.1192	19
276.1375	48
277.1388	16
288.1383	26
289.132	18
290.1162	20
304.1318	34
305.1621	20
316.1338	11
322.1415	18
333.1559	25
336.1585	61
348.1571	20
350.1622	22
365.1854	160
368.1464	10
368.1805	11
382.183	14
397.2111	127
402.1592	10
434.175	9
448.1955	79
