Mass spectrum: 2-Phenylbenzimidazole; LC-ESI-QTOF; MS2; 90 V
Name: 2-Phenylbenzimidazole
Class: Industrial_process
Formula: C13H10N2
Exact mass: 194.0844
InChI: InChI=1S/C13H10N2/c1-2-6-10(7-3-1)13-14-11-8-4-5-9-12(11)15-13/h1-9H,(H,14,15)
Instrument: TripleTOF 5600 SCIEX
Instrument type: LC-ESI-QTOF
Ms type: CID
Ion mode: NEGATIVE
Collision energy: 90
Ionization: ESI
Column name: Zorbax Eclipse Plus C18 2.1 mm x 150 mm, 3.5 um, Agilent
Retention time: 5.903 min
Precursor m/z: 193.0771
Precursor type: [M-H]-
m/z	relative intensity
40.0084	90
40.0207	272
41.0159	272
41.0294	90
48.0036	181
50.0053	908
63.0107	272
65.0177	181
73.0082	181
74.0027	90
87.0114	90
88.0199	908
88.0291	90
90.0355	363
115.0306	999
117.0449	454
141.0458	181
165.0472	181
189.0475	90
