Mass spectrum: Iomeprol; LC-ESI-QTOF; MS2; 140 V
Name: Iomeprol
Class: Pharmaceutical
Formula: C17H22I3N3O8
Exact mass: 776.8541
SMILES: CN(C(=O)CO)c1c(I)c(C(=O)NCC(O)CO)c(I)c(C(=O)NCC(O)CO)c1I
InChI: InChI=1S/C17H22I3N3O8/c1-23(9(29)6-26)15-13(19)10(16(30)21-2-7(27)4-24)12(18)11(14(15)20)17(31)22-3-8(28)5-25/h7-8,24-28H,2-6H2,1H3,(H,21,30)(H,22,31)
Instrument: TripleTOF 5600 SCIEX
Instrument type: LC-ESI-QTOF
Ms type: MS2
Ion mode: POSITIVE
Collision energy: 140
Fragmentation mode: CID
Ionization: ESI
Column name: Zorbax Eclipse Plus C18 2.1 mm x 150 mm, 3.5 um, Agilent
Retention time: 4.596 min
Precursor m/z: 777.8614
Precursor type: [M+H]+
m/z	relative intensity
77.0396	53
90.0365	95
91.0424	138
92.0503	85
93.0587	42
102.0361	53
103.0426	74
104.0504	116
106.0305	53
116.0507	53
117.0567	42
118.0288	233
119.0364	191
120.0435	74
130.0273	53
131.0359	308
132.0443	201
136.0394	74
146.0222	276
147.0307	53
148.0375	106
149.048	85
160.0387	191
161.0473	733
162.0538	116
176.0331	42
177.042	212
177.9162	85
188.9202	191
191.9348	63
204.9174	63
217.9485	138
245.9416	127
257.9421	425
273.9374	116
287.9514	999
