Mass spectrum: Triadimefon; LC-ESI-QTOF; MS2; 40 V
Name: Triadimefon
Class: Fungicide; Transformation_product
Formula: C14H16ClN3O2
Exact mass: 293.0931
SMILES: CC(C)(C)C(=O)C(N1C=NC=N1)OC2=CC=C(C=C2)Cl
InChI: InChI=1S/C14H16ClN3O2/c1-14(2,3)12(19)13(18-9-16-8-17-18)20-11-6-4-10(15)5-7-11/h4-9,13H,1-3H3
Instrument: TripleTOF 5600 SCIEX
Instrument type: LC-ESI-QTOF
Ms type: MS2
Ion mode: POSITIVE
Collision energy: 40
Fragmentation mode: CID
Ionization: ESI
Column name: Zorbax Eclipse Plus C18 2.1 mm x 150 mm, 3.5 um, Agilent
Retention time: 12.319 min
Precursor m/z: 294.1004
Precursor type: [M+H]+
m/z	relative intensity
39.0231	73
41.0388	205
55.0545	64
57.0701	403
65.0379	12
67.0541	20
69.0702	999
70.0775	136
72.9841	19
75.0232	28
77.0386	74
91.0541	35
93.0337	29
94.0412	26
98.9993	258
103.0313	12
110.0354	14
110.9993	222
113.0146	105
120.0547	13
126.9941	355
127.0308	14
129.0101	316
139.0061	28
141.0099	464
155.0254	215
161.0949	17
175.0756	14
190.0968	13
197.0736	456
225.0687	71
294.1012	34
