Mass spectrum: Clonazepam; LC-ESI-QTOF; MS2; 120 V
Name: Clonazepam
Class: Pharmaceutical
Formula: C15H10ClN3O3
Exact mass: 315.0411
SMILES: C1C(=O)NC2=C(C=C(C=C2)[N+](=O)[O-])C(=N1)C3=CC=CC=C3Cl
InChI: InChI=1S/C15H10ClN3O3/c16-12-4-2-1-3-10(12)15-11-7-9(19(21)22)5-6-13(11)18-14(20)8-17-15/h1-7H,8H2,(H,18,20)
Instrument: TripleTOF 6600 SCIEX
Instrument type: LC-ESI-QTOF
Ms type: MS2
Ion mode: POSITIVE
Collision energy: 120
Fragmentation mode: CID
Ionization: ESI
Column name: Zorbax Eclipse Plus C18 2.1 mm x 150 mm, 3.5 um, Agilent
Retention time: 9.867 min
Precursor m/z: 316.0484
Precursor type: [M+H]+
m/z	relative intensity
39.022	15
50.0149	61
51.0225	109
52.0309	10
61.0071	19
62.0143	51
63.0225	81
65.0379	16
72.9841	10
73.0063	19
74.0145	178
75.0224	206
76.0178	27
76.0297	73
77.0379	222
78.0453	35
85.0075	21
86.0144	43
87.0219	68
88.0167	10
88.0298	25
89.0383	99
98.0141	138
99.0223	164
100.0192	14
100.0293	26
101.0393	45
102.0317	14
102.0459	76
104.0497	12
110.0139	31
111.023	35
113.0376	91
114.0317	12
114.0431	17
115.0535	40
122.0132	41
123.0224	52
124.0286	39
125.0377	130
126.0458	215
127.0524	87
128.0588	27
129.0456	13
137.0376	68
138.0392	46
139.053	130
140.0489	64
149.0379	135
150.0461	999
151.0534	651
152.0602	283
153.0552	32
161.0385	75
162.0452	90
163.0529	219
164.048	101
165.0684	16
166.066	13
175.0415	83
176.0463	124
177.0561	263
178.0642	85
179.0625	24
187.0423	19
188.0486	117
190.0667	16
203.0586	18
204.0595	18
205.0728	14
