Mass spectrum: Hydrochlorothiazide; LC-ESI-QTOF; MS2; 120 V
Name: Hydrochlorothiazide
Class: Pharmaceutical
Formula: C7H8ClN3O4S2
Exact mass: 296.9645
SMILES: N[S](=O)(=O)c1cc2c(NCN[S]2(=O)=O)cc1Cl
InChI: InChI=1S/C7H8ClN3O4S2/c8-4-1-5-7(2-6(4)16(9,12)13)17(14,15)11-3-10-5/h1-2,10-11H,3H2,(H2,9,12,13)
Instrument: TripleTOF 5600 SCIEX
Instrument type: LC-ESI-QTOF
Ms type: MS2
Ion mode: NEGATIVE
Collision energy: 120
Fragmentation mode: CID
Ionization: ESI
Column name: Zorbax Eclipse Plus C18 2.1 mm x 150 mm, 3.5 um, Agilent
Retention time: 5.446 min
Precursor m/z: 295.9572
Precursor type: [M-H]-
m/z	relative intensity
47.9697	259
61.9708	639
63.9636	899
77.9659	999
79.9817	59
