Mass spectrum: 2-Piperidin-3-yl-benzothiazole; LC-ESI-QTOF; MS2; 150 V
Name: 2-Piperidin-3-yl-benzothiazole
Formula: C12H14N2S
Exact mass: 218.0878
SMILES: C1CC(CNC1)C2=NC3=CC=CC=C3S2
InChI: InChI=1S/C12H14N2S/c1-2-6-11-10(5-1)14-12(15-11)9-4-3-7-13-8-9/h1-2,5-6,9,13H,3-4,7-8H2
Instrument: TripleTOF 5600 SCIEX
Instrument type: LC-ESI-QTOF
Ms type: MS2
Ion mode: POSITIVE
Collision energy: 150
Fragmentation mode: CID
Ionization: ESI
Column name: Zorbax Eclipse Plus C18 2.1 mm x 150 mm, 3.5 um, Agilent
Retention time: 5.623 min
Precursor m/z: 219.095
Precursor type: [M+H]+
m/z	relative intensity
35.9994	23
37.0072	88
38.0154	46
39.0229	130
42.0331	15
43.9714	30
44.0498	23
44.9791	142
49.0073	42
50.015	142
51.0225	96
57.9881	26
61.0071	84
62.0151	134
63.0231	92
65.0391	26
67.9715	207
68.9793	999
73.0081	26
74.0155	122
75.0091	23
75.0229	19
76.0188	23
77.0382	19
80.9791	57
81.9868	69
89.0354	19
91.9713	30
92.9792	111
