Mass spectrum: Betamethasone; LC-ESI-QTOF; MS2; 30 V
Name: Betamethasone
Class: Pharmaceutical
Formula: C22H29FO5
Exact mass: 392.1999
SMILES: C[C@H]1C[C@H]2[C@@H]3CCC4=CC(=O)C=C[C@@]4([C@]3([C@H](C[C@@]2([C@]1(C(=O)CO)O)C)O)F)C
InChI: InChI=1S/C22H29FO5/c1-12-8-16-15-5-4-13-9-14(25)6-7-19(13,2)21(15,23)17(26)10-20(16,3)22(12,28)18(27)11-24/h6-7,9,12,15-17,24,26,28H,4-5,8,10-11H2,1-3H3/t12-,15-,16-,17-,19-,20-,21-,22-/m0/s1
Instrument: TripleTOF 5600 SCIEX
Instrument type: LC-ESI-QTOF
Ms type: MS2
Ion mode: POSITIVE
Collision energy: 30
Fragmentation mode: CID
Ionization: ESI
Column name: Zorbax Eclipse Plus C18 2.1 mm x 150 mm, 3.5 um, Agilent
Retention time: 9.016 min
Precursor m/z: 393.2072
Precursor type: [M+H]+
m/z	relative intensity
79.0583	10
81.0747	12
91.0547	12
93.0726	33
95.054	16
95.087	61
97.067	17
105.0713	31
107.087	87
109.0657	15
109.1023	54
111.0804	15
115.0765	20
119.087	78
121.0658	121
121.1015	59
123.0812	73
125.0608	39
125.0977	26
131.085	46
133.0667	46
133.1029	38
135.0812	197
137.0618	20
137.0974	68
139.0766	11
143.0866	31
145.0659	37
145.1009	44
147.0812	528
149.0961	108
151.0751	44
151.1146	12
153.0917	117
155.0863	13
157.1009	24
158.0741	11
159.0819	169
161.0963	125
163.076	20
165.0935	29
167.0879	13
167.1076	41
169.0667	26
169.0932	19
171.0814	341
171.1145	25
173.0968	216
175.0767	25
175.1107	24
177.0917	68
179.0881	13
183.0818	24
185.0663	13
185.0961	201
187.0761	105
187.1119	73
189.09	38
191.1042	15
193.1	23
195.075	10
195.1045	46
196.0893	12
197.0964	139
197.1297	11
199.079	15
199.1117	96
201.0938	15
201.1271	17
203.1105	24
205.1002	17
207.1162	17
208.0899	17
209.0964	94
209.1293	19
210.1049	23
211.1119	246
212.1201	31
213.095	26
213.1283	131
215.1073	183
219.1161	33
221.096	87
221.1319	19
222.1052	50
223.1106	203
224.1216	19
225.0861	15
225.1278	123
227.107	18
227.1427	46
229.1218	16
231.1154	16
233.0958	15
234.1027	18
235.1117	151
235.1505	12
236.1193	23
237.1282	409
237.1664	19
238.1333	10
239.1049	36
239.1433	266
241.121	36
241.1637	11
243.1167	10
245.1333	19
246.106	11
247.1067	24
247.1488	22
248.1212	46
249.1275	133
249.1657	17
250.1357	16
251.1117	15
251.1453	90
252.1448	25
253.1276	53
253.1585	139
255.1372	48
257.133	24
258.1444	10
259.1125	30
259.149	20
260.123	25
261.1253	109
261.1585	36
262.1359	71
263.1126	20
263.1437	282
264.148	30
265.1264	22
265.1587	69
267.1365	111
267.1758	26
271.1415	15
272.1183	22
273.1237	18
273.1621	36
274.1359	25
275.1423	139
276.1479	87
277.1279	18
277.1575	366
278.1303	10
278.1656	230
279.1343	17
279.1748	999
281.1535	25
281.1908	27
283.153	22
285.1483	15
286.1347	61
289.1218	10
289.1589	158
290.1313	17
291.1746	397
293.1555	62
295.1339	34
295.1687	201
296.1796	26
297.1841	81
301.1601	190
304.1469	27
306.1639	38
307.1699	192
309.185	156
311.1649	202
319.1703	337
325.1811	71
327.1978	23
337.1816	323
345.1856	15
355.1911	523
373.1974	29
