Mass spectrum: Clindamycin; LC-ESI-QTOF; MS2; 70 V
Name: Clindamycin
Class: Antimicrobial; Pharmaceutical
Formula: C18H33ClN2O5S
Exact mass: 424.1799
SMILES: CCCC1CC(N(C1)C)C(=O)NC(C2C(C(C(C(O2)SC)O)O)O)C(C)Cl
InChI: InChI=1S/C18H33ClN2O5S/c1-5-6-10-7-11(21(3)8-10)17(25)20-12(9(2)19)16-14(23)13(22)15(24)18(26-16)27-4/h9-16,18,22-24H,5-8H2,1-4H3,(H,20,25)
Instrument: TripleTOF 5600 SCIEX
Instrument type: LC-ESI-QTOF
Ms type: CID
Ion mode: POSITIVE
Collision energy: 70
Ionization: ESI
Column name: Zorbax Eclipse Plus C18 2.1 mm x 150 mm, 3.5 um, Agilent
Retention time: 6.261 min
Precursor m/z: 425.1871
Precursor type: [M+H]+
m/z	relative intensity
42.0486	15
69.0755	28
70.071	41
82.0692	49
83.0767	53
84.0844	21
95.0882	15
124.113	26
126.128	999
