Mass spectrum: Dimethenamid-ESA; LC-ESI-QTOF; MS2; 140 V
Name: Dimethenamid-ESA
Class: Transformation_product; Herbicide; Metabolite
Formula: C12H19NO5S2
Exact mass: 321.0705
SMILES: CC1=CSC(=C1N(C(C)COC)C(=O)CS(=O)(=O)O)C
InChI: InChI=1S/C12H19NO5S2/c1-8-6-19-10(3)12(8)13(9(2)5-18-4)11(14)7-20(15,16)17/h6,9H,5,7H2,1-4H3,(H,15,16,17)
Instrument: TripleTOF 6600 SCIEX
Instrument type: LC-ESI-QTOF
Ms type: MS2
Ion mode: NEGATIVE
Collision energy: 140
Fragmentation mode: CID
Ionization: ESI
Column name: Zorbax Eclipse Plus C18 2.1 mm x 150 mm, 3.5 um, Agilent
Retention time: 7.036 min
Precursor m/z: 320.0632
Precursor type: [M-H]-
m/z	relative intensity
41.0025	35
47.9663	66
63.9605	181
76.9672	12
79.9554	999
93.9721	17
