Mass spectrum: Acetochlor; LC-ESI-QTOF; MS2; 90 V
Name: Acetochlor
Class: Herbicide
Formula: C14H20ClNO2
Exact mass: 269.1183
SMILES: CCC1=CC=CC(=C1N(COCC)C(=O)CCl)C
InChI: InChI=1S/C14H20ClNO2/c1-4-12-8-6-7-11(3)14(12)16(10-18-5-2)13(17)9-15/h6-8H,4-5,9-10H2,1-3H3
Instrument: TripleTOF 6600 SCIEX
Instrument type: LC-ESI-QTOF
Ms type: MS2
Ion mode: POSITIVE
Collision energy: 90
Fragmentation mode: CID
Ionization: ESI
Column name: Zorbax Eclipse Plus C18 2.1 mm x 150 mm, 3.5 um, Agilent
Retention time: 13.251 min
Precursor m/z: 270.1255
Precursor type: [M+H]+
m/z	relative intensity
31.0173	230
39.0217	102
45.0322	256
48.9834	204
51.0259	64
65.037	140
77.0373	384
78.0456	64
79.0535	153
89.0377	268
90.0465	217
91.0525	435
103.0522	179
105.0681	166
106.0635	76
115.0528	461
116.0497	76
117.0551	999
118.0642	115
128.0625	89
130.0629	307
131.0696	64
132.0791	243
