Mass spectrum: Epirubicin; LC-ESI-QTOF; MS2; 80 V
Name: Epirubicin
Class: Pharmaceutical
Formula: C27H29NO11
Exact mass: 543.1741
SMILES: CC1C(C(CC(O1)OC2CC(CC3=C(C4=C(C(=C23)O)C(=O)C5=C(C4=O)C=CC=C5OC)O)(C(=O)CO)O)N)O
InChI: InChI=1S/C27H29NO11/c1-10-22(31)13(28)6-17(38-10)39-15-8-27(36,16(30)9-29)7-12-19(15)26(35)21-20(24(12)33)23(32)11-4-3-5-14(37-2)18(11)25(21)34/h3-5,10,13,15,17,22,29,31,33,35-36H,6-9,28H2,1-2H3
Instrument: TripleTOF 5600 SCIEX
Instrument type: LC-ESI-QTOF
Ms type: MS2
Ion mode: NEGATIVE
Collision energy: 80
Fragmentation mode: CID
Ionization: ESI
Column name: Zorbax Eclipse Plus C18 2.1 mm x 150 mm, 3.5 um, Agilent
Retention time: 7.492 min
Precursor m/z: 542.1668
Precursor type: [M-H]-
m/z	relative intensity
208.0538	53
232.0495	53
233.0619	65
235.0415	53
237.0578	88
248.0504	141
249.0547	76
260.0531	53
261.0589	59
263.0365	100
264.0454	135
265.0516	242
266.0617	212
275.039	94
276.0436	289
277.0522	195
279.0288	94
289.0508	65
291.0304	112
292.0411	431
293.0466	999
294.0554	224
304.0429	218
305.0457	425
306.0555	100
307.0267	59
308.0358	88
317.0516	53
320.0363	307
321.0417	620
333.0466	195
334.052	94
336.0305	100
361.035	53
