Mass spectrum: Dienogest Impurity G; LC-ESI-QTOF; MS2; 80 V
Name: Dienogest Impurity G
Class: Pharmaceutical
Formula: C20H23NO2
Exact mass: 309.1729
SMILES: CC12CC=C3C(C1CCC2(CC#N)O)CCC4=C3C=CC(=C4)O
InChI: InChI=1S/C20H23NO2/c1-19-8-6-16-15-5-3-14(22)12-13(15)2-4-17(16)18(19)7-9-20(19,23)10-11-21/h3,5-6,12,17-18,22-23H,2,4,7-10H2,1H3
Instrument: TripleTOF 6600 SCIEX
Instrument type: LC-ESI-QTOF
Ms type: MS2
Ion mode: POSITIVE
Collision energy: 80
Fragmentation mode: CID
Ionization: ESI
Column name: Zorbax Eclipse Plus C18 2.1 mm x 150 mm, 3.5 um, Agilent
Retention time: 9.956 min
Precursor m/z: 310.1802
Precursor type: [M+H]+
m/z	relative intensity
39.0228	28
41.0381	36
50.0145	28
51.0219	81
53.038	45
55.018	40
55.053	32
63.0216	24
65.0377	139
66.0454	24
67.0534	57
77.0376	650
78.0452	28
79.0532	331
81.0692	45
89.0372	65
91.0532	454
94.0399	40
95.0486	28
102.0452	24
103.0529	286
105.0459	24
105.0685	331
107.0477	163
114.0453	16
115.0529	999
116.0606	266
117.0691	20
123.0798	20
126.0457	40
127.053	196
128.0607	479
129.0679	106
130.0651	57
131.0478	221
131.0832	28
132.0548	40
133.0633	85
139.0516	32
141.0688	135
144.0565	417
145.0643	24
151.053	45
152.0605	114
153.0695	73
155.0577	49
157.0637	147
158.0684	36
159.0799	24
164.0607	32
165.0683	180
166.0761	45
169.0752	20
176.0595	40
177.0692	32
178.0758	90
179.0851	40
181.0619	69
182.0672	16
189.0684	32
190.0775	24
191.0838	40
194.0708	32
195.0816	28
202.0767	61
207.0779	45
208.0892	20
215.0837	24
233.0868	24
