Mass spectrum: Norlidocaine; LC-ESI-QTOF; MS2; 80 V
Name: Norlidocaine
Class: Pharmaceutical; Metabolite
Formula: C12H18N2O
Exact mass: 206.1419
SMILES: CCNCC(=O)Nc1c(cccc1C)C
InChI: InChI=1S/C12H18N2O/c1-4-13-8-11(15)14-12-9(2)6-5-7-10(12)3/h5-7,13H,4,8H2,1-3H3,(H,14,15)
Instrument: TripleTOF 5600 SCIEX
Instrument type: LC-ESI-QTOF
Ms type: CID
Ion mode: POSITIVE
Collision energy: 80
Ionization: ESI
Column name: Zorbax Eclipse Plus C18 2.1 mm x 150 mm, 3.5 um, Agilent
Retention time: 5.349 min
Precursor m/z: 207.1492
Precursor type: [M+H]+
m/z	relative intensity
51.0275	64
58.0709	999
65.0431	42
77.0414	420
78.0525	16
79.0562	155
89.0411	71
90.0484	29
91.055	119
103.0552	29
105.0689	25
106.0656	439
107.0494	22
107.0741	38
117.0575	19
118.0675	16
