Mass spectrum: N-[4-(1H-benzimidazol-2-yl)phenyl]-N,N-dimethylamine; LC-ESI-QTOF; MS2; 80 V
Name: N-[4-(1H-benzimidazol-2-yl)phenyl]-N,N-dimethylamine
Class: Pharmaceutical
Formula: C15H15N3
Exact mass: 237.1266
SMILES: CN(C)C1=CC=C(C=C1)C2=NC3=CC=CC=C3N2
InChI: InChI=1S/C15H15N3/c1-18(2)12-9-7-11(8-10-12)15-16-13-5-3-4-6-14(13)17-15/h3-10H,1-2H3,(H,16,17)
Instrument: TripleTOF 5600 SCIEX
Instrument type: LC-ESI-QTOF
Ms type: MS2
Ion mode: POSITIVE
Collision energy: 80
Fragmentation mode: CID
Ionization: ESI
Column name: Zorbax Eclipse Plus C18 2.1 mm x 150 mm, 3.5 um, Agilent
Retention time: 6.517 min
Precursor m/z: 238.1339
Precursor type: [M+H]+
m/z	relative intensity
66.0529	10
77.0437	59
89.042	84
90.0492	82
91.0451	94
92.0526	179
102.036	31
104.051	41
115.0564	13
116.05	10
118.0551	17
127.0554	14
128.0496	10
129.0457	23
130.0518	14
139.055	102
140.0508	74
143.0609	41
145.0762	15
154.0651	33
164.0496	30
165.0564	27
166.0651	260
167.0725	135
168.0715	55
179.0603	11
181.0783	10
191.0591	29
192.0677	342
193.076	999
194.0838	401
195.0912	17
205.0732	11
206.0749	17
220.0873	18
222.1009	53
