Mass spectrum: Ethyl tosylcarbamate; LC-ESI-QTOF; MS2; 40 V
Name: Ethyl tosylcarbamate
Class: Pharmaceutical
Formula: C10H13NO4S
Exact mass: 243.0565
SMILES: CCOC(=O)N[S](=O)(=O)c1ccc(C)cc1
InChI: InChI=1S/C10H13NO4S/c1-3-15-10(12)11-16(13,14)9-6-4-8(2)5-7-9/h4-7H,3H2,1-2H3,(H,11,12)
Instrument: TripleTOF 5600 SCIEX
Instrument type: LC-ESI-QTOF
Ms type: MS2
Ion mode: NEGATIVE
Collision energy: 40
Fragmentation mode: CID
Ionization: ESI
Column name: Zorbax Eclipse Plus C18 2.1 mm x 150 mm, 3.5 um, Agilent
Retention time: 9.545 min
Precursor m/z: 242.0493
Precursor type: [M-H]-
m/z	relative intensity
41.9982	293
43.0168	58
78.9728	117
86.9729	58
105.9614	235
106.0662	176
130.9654	117
170.0292	763
196.0102	999
242.0465	352
242.0579	176
