Mass spectrum: Lumichrome; LC-ESI-QTOF; MS2; 50 V
Name: Lumichrome
Class: Pharmaceutical
Formula: C12H10N4O2
Exact mass: 242.0804
SMILES: CC1=CC2=C(C=C1C)N=C3C(=N2)C(=O)NC(=O)N3
InChI: InChI=1S/C12H10N4O2/c1-5-3-7-8(4-6(5)2)14-10-9(13-7)11(17)16-12(18)15-10/h3-4H,1-2H3,(H2,14,15,16,17,18)
Instrument: TripleTOF 6600 SCIEX
Instrument type: LC-ESI-QTOF
Ms type: MS2
Ion mode: POSITIVE
Collision energy: 50
Fragmentation mode: CID
Ionization: ESI
Column name: Zorbax Eclipse Plus C18 2.1 mm x 150 mm, 3.5 um, Agilent
Retention time: 7.067 min
Precursor m/z: 243.0877
Precursor type: [M+H]+
m/z	relative intensity
51.0235	33
65.0387	20
75.0231	11
77.0392	503
78.0471	13
89.0387	45
91.0547	298
101.0386	23
102.0335	15
102.0471	38
103.0549	999
104.0498	164
105.0457	28
116.0497	459
117.0586	85
118.0656	407
119.0626	11
126.0344	13
128.0497	113
129.0445	37
129.0575	13
130.0421	29
130.0654	366
131.0736	11
142.0533	55
143.061	100
145.0766	521
153.0456	76
156.0563	93
157.0644	213
170.0719	507
172.0876	244
182.071	11
197.0833	21
198.0665	293
200.0832	32
