Mass spectrum: N-desmethyl-venlafaxine; LC-ESI-QTOF; MS2; 50 V
Name: N-desmethyl-venlafaxine
Class: Pharmaceutical; Metabolite; Transformation_product-Metabolite
Formula: C16H25NO2
Exact mass: 263.1885
SMILES: CNCC(c1ccc(cc1)OC)C2(CCCCC2)O
InChI: InChI=1S/C16H25NO2/c1-17-12-15(16(18)10-4-3-5-11-16)13-6-8-14(19-2)9-7-13/h6-9,15,17-18H,3-5,10-12H2,1-2H3
Instrument: TripleTOF 5600 SCIEX
Instrument type: LC-ESI-QTOF
Ms type: MS2
Ion mode: POSITIVE
Collision energy: 50
Fragmentation mode: CID
Ionization: ESI
Column name: Zorbax Eclipse Plus C18 2.1 mm x 150 mm, 3.5 um, Agilent
Retention time: 6.444 min
Precursor m/z: 264.1958
Precursor type: [M+H]+
m/z	relative intensity
44.0589	571
65.0424	31
67.0571	12
69.0726	12
77.0395	144
78.0481	72
79.0552	113
81.0712	63
91.0546	557
93.0706	22
103.0532	18
104.0608	12
105.0688	29
106.0408	10
107.0484	75
115.0527	124
116.0608	22
117.0687	62
119.0482	18
119.0851	22
121.0642	999
127.0542	17
128.0622	41
129.0678	36
130.076	17
131.0494	43
132.0555	103
134.0584	20
135.0798	37
141.0688	41
143.048	12
144.056	58
145.0647	24
146.0742	17
147.0792	181
148.0748	48
149.0826	31
153.068	10
157.0655	13
158.0719	103
159.0795	81
161.1001	13
171.0801	17
173.0964	46
