Mass spectrum: Basic Red 1; LC-ESI-QTOF; MS2; 60 V
Name: Basic Red 1
Formula: C28H30N2O3
Exact mass: 442.2256
SMILES: CCNC1=CC2=C(C=C1C)C(=C3C=C(C(=NCC)C=C3O2)C)C4=CC=CC=C4C(=O)OCC
InChI: InChI=1S/C28H30N2O3/c1-6-29-23-15-25-21(13-17(23)4)27(19-11-9-10-12-20(19)28(31)32-8-3)22-14-18(5)24(30-7-2)16-26(22)33-25/h9-16,29H,6-8H2,1-5H3
Instrument: TripleTOF X500R SCIEX
Instrument type: LC-ESI-QTOF
Ms type: MS2
Ion mode: POSITIVE
Collision energy: 60
Fragmentation mode: CID
Ionization: ESI
Column name: Zorbax Eclipse Plus C18 2.1 mm x 150 mm, 3.5 um, Agilent
Retention time: 11.107 min
Precursor m/z: 443.2329
Precursor type: [M+H]+
m/z	relative intensity
279.1507	26
283.1033	15
284.1093	28
285.1166	23
286.123	10
296.1083	17
297.1152	54
298.1174	66
299.1168	14
300.1398	25
311.1192	41
312.1272	224
313.1347	241
314.1566	28
317.1179	11
325.14	32
326.1508	119
327.1502	161
339.1491	26
340.1587	25
341.12	13
341.1654	878
342.1164	12
342.1731	59
344.1286	36
355.182	17
357.1246	352
358.1356	28
359.1513	39
370.1459	11
371.1451	179
371.2109	20
372.1605	83
385.1559	71
386.1111	13
386.1627	740
387.1713	94
399.1717	146
400.1796	80
415.1456	17
415.2014	999
415.2744	10
443.2353	18
