Mass spectrum: 4-Methyl-5-thiazoleethanol; LC-ESI-QTOF; MS2; 80 V
Name: 4-Methyl-5-thiazoleethanol
Class: Food_additive; Metabolite; Pharmaceutical
Formula: C6H9NOS
Exact mass: 143.0405
SMILES: CC1=C(SC=N1)CCO
InChI: InChI=1S/C6H9NOS/c1-5-6(2-3-8)9-4-7-5/h4,8H,2-3H2,1H3
Instrument: TripleTOF 6600 SCIEX
Instrument type: LC-ESI-QTOF
Ms type: MS2
Ion mode: POSITIVE
Collision energy: 80
Fragmentation mode: CID
Ionization: ESI
Column name: Zorbax Eclipse Plus C18 2.1 mm x 150 mm, 3.5 um, Agilent
Retention time: 4.251 min
Precursor m/z: 144.0478
Precursor type: [M+H]+
m/z	relative intensity
37.0079	71
38.0149	79
39.0228	285
41.0265	39
41.0386	95
42.0338	309
43.9714	55
44.9791	999
50.0149	111
51.0226	111
53.0388	103
54.0329	79
57.9864	63
58.9944	158
68.0516	31
68.9797	55
70.9946	340
78.0338	31
80.049	39
85.0107	111
112.0204	63
