Mass spectrum: 1,4-Dimethoxybenzene; LC-ESI-QTOF; MS2; 40 V
Name: 1,4-Dimethoxybenzene
Class: Food_additive
Formula: C8H10O2
Exact mass: 138.0681
SMILES: COc1ccc(OC)cc1
InChI: InChI=1S/C8H10O2/c1-9-7-3-5-8(10-2)6-4-7/h3-6H,1-2H3
Instrument: TripleTOF 5600 SCIEX
Instrument type: LC-ESI-QTOF
Ms type: MS2
Ion mode: POSITIVE
Collision energy: 40
Fragmentation mode: CID
Ionization: ESI
Column name: Zorbax Eclipse Plus C18 2.1 mm x 150 mm, 3.5 um, Agilent
Retention time: 10.084 min
Precursor m/z: 139.0754
Precursor type: [M+H]+
m/z	relative intensity
53.0442	802
64.0346	105
65.0439	529
66.0492	166
67.0573	60
77.0406	575
78.0493	560
79.0571	90
81.0363	999
92.0276	287
93.0344	151
94.0434	151
95.0501	105
96.0579	333
108.0571	151
109.028	605
124.0523	151
