Mass spectrum: Enilconazole; LC-ESI-QTOF; MS2; 60 V
Name: Enilconazole
Class: Pharmaceutical; Fungicide
Formula: C14H14Cl2N2O
Exact mass: 296.0483
SMILES: Clc1ccc(C(Cn2ccnc2)OCC=C)c(Cl)c1
InChI: InChI=1S/C14H14Cl2N2O/c1-2-7-19-14(9-18-6-5-17-10-18)12-4-3-11(15)8-13(12)16/h2-6,8,10,14H,1,7,9H2
Instrument: TripleTOF 5600 SCIEX
Instrument type: LC-ESI-QTOF
Ms type: MS2
Ion mode: POSITIVE
Collision energy: 60
Fragmentation mode: CID
Ionization: ESI
Column name: Zorbax Eclipse Plus C18 2.1 mm x 150 mm, 3.5 um, Agilent
Retention time: 8.159 min
Precursor m/z: 297.0556
Precursor type: [M+H]+
m/z	relative intensity
67.0446	30
69.0477	308
72.9853	17
80.0527	26
81.0462	138
82.0548	26
82.0698	17
89.04	60
98.9997	60
101.0382	43
102.0463	73
103.0544	56
115.0543	91
122.9988	277
124.0073	73
128.0629	30
129.07	47
132.9608	47
138.0232	65
141.0687	221
149.0141	21
150.0211	21
158.9753	999
172.9894	52
