Mass spectrum: Diaveridine; LC-ESI-QTOF; MS2; 110 V
Name: Diaveridine
Class: Pharmaceutical
Formula: C13H16N4O2
Exact mass: 260.1273
SMILES: COC1=C(C=C(C=C1)CC2=CN=C(N=C2N)N)OC
InChI: InChI=1S/C13H16N4O2/c1-18-10-4-3-8(6-11(10)19-2)5-9-7-16-13(15)17-12(9)14/h3-4,6-7H,5H2,1-2H3,(H4,14,15,16,17)
Instrument: TripleTOF 5600 SCIEX
Instrument type: LC-ESI-QTOF
Ms type: MS2
Ion mode: POSITIVE
Collision energy: 110
Fragmentation mode: CID
Ionization: ESI
Column name: Zorbax Eclipse Plus C18 2.1 mm x 150 mm, 3.5 um, Agilent
Retention time: 4.966 min
Precursor m/z: 261.1346
Precursor type: [M+H]+
m/z	relative intensity
41.0358	51
43.0419	258
52.0279	246
53.0219	35
53.0316	23
54.044	378
55.037	19
64.0345	19
65.046	135
66.0305	19
67.0492	27
68.0418	79
69.0494	39
74.0209	75
75.0277	222
76.0339	79
77.0163	19
77.0444	999
78.0439	91
79.0335	111
79.0569	71
80.0523	27
81.0493	214
82.0482	19
83.0503	23
87.0275	39
88.0266	67
89.0424	437
90.041	107
91.0554	139
92.0489	23
93.0507	15
96.0612	51
99.0258	19
101.0427	131
102.0454	139
103.0398	27
103.0573	87
104.0518	83
105.0388	107
106.0454	23
107.0502	67
109.0528	39
113.0268	15
113.0405	31
114.0373	95
115.0457	59
116.0513	131
117.0597	83
118.0359	15
118.052	31
119.0541	15
120.0498	23
123.067	31
127.041	35
128.0498	51
129.0485	55
130.0456	31
130.0688	35
131.0636	31
140.0459	19
141.0436	19
142.0518	55
143.0626	15
147.0678	19
168.0573	19
