Mass spectrum: 5-Aminosalicylic acid; LC-ESI-QTOF; MS2; 70 V
Name: 5-Aminosalicylic acid
Class: Pharmaceutical
Formula: C7H7NO3
Exact mass: 153.0426
SMILES: C1=CC(=C(C=C1N)C(=O)O)O
InChI: InChI=1S/C7H7NO3/c8-4-1-2-6(9)5(3-4)7(10)11/h1-3,9H,8H2,(H,10,11)
Instrument: TripleTOF 6600 SCIEX
Instrument type: LC-ESI-QTOF
Ms type: MS2
Ion mode: POSITIVE
Collision energy: 70
Fragmentation mode: CID
Ionization: ESI
Column name: Zorbax Eclipse Plus C18 2.1 mm x 150 mm, 3.5 um, Agilent
Retention time: 2.181 min
Precursor m/z: 154.0499
Precursor type: [M+H]+
m/z	relative intensity
30.0339	14
35.999	33
37.0071	158
38.0027	37
38.015	116
39.0228	382
40.0055	11
44.0128	11
49.0073	11
50.0147	71
51.0226	173
52.018	61
52.0305	23
53.0023	52
53.0383	999
54.0335	237
55.0177	26
61.0065	83
62.0145	251
63.0226	140
74.0144	125
75.0224	64
78.0337	14
80.0489	410
