Mass spectrum: 3-Desmethyl-trimethoprim; LC-ESI-QTOF; MS2; 40 V
Name: 3-Desmethyl-trimethoprim
Class: Pharmaceutical; Transformation_product; Transformation_product-Metabolite
Formula: C13H16N4O3
Exact mass: 276.1222
SMILES: OC1=CC(CC2=CN=C(N=C2N)N)=CC(OC)=C1OC
InChI: InChI=1S/C13H16N4O3/c1-19-10-5-7(4-9(18)11(10)20-2)3-8-6-16-13(15)17-12(8)14/h4-6,18H,3H2,1-2H3,(H4,14,15,16,17)
Instrument: TripleTOF 5600 SCIEX
Instrument type: LC-ESI-QTOF
Ms type: MS2
Ion mode: POSITIVE
Collision energy: 40
Fragmentation mode: CID
Ionization: ESI
Column name: Zorbax Eclipse Plus C18 2.1 mm x 150 mm, 3.5 um, Agilent
Retention time: 5.021 min
Precursor m/z: 277.1295
Precursor type: [M+H]+
m/z	relative intensity
81.0495	81
106.0432	11
110.0601	43
111.0675	15
123.0673	385
124.0746	28
128.0518	13
131.06	11
145.0766	11
146.072	21
147.0677	21
148.0753	58
149.0798	25
151.0391	17
156.0481	12
161.0826	25
163.0977	11
167.071	21
170.0704	16
171.0774	10
173.0831	44
174.0631	19
175.0624	10
175.0972	17
187.0976	155
188.1052	57
189.0748	19
191.0926	17
201.0781	12
203.0914	23
215.0923	56
216.1	139
217.1081	15
219.0875	202
227.0896	15
229.0732	16
231.0875	83
232.0952	76
233.1038	170
243.0873	49
244.0935	96
245.1027	53
247.0815	68
259.0831	55
261.0978	999
262.105	807
277.1273	268
