Mass spectrum: Codeine; LC-ESI-QTOF; MS2; 110 V
Name: Codeine
Formula: C18H21NO3
Exact mass: 299.1521
SMILES: CN1CCC23C4C1CC5=C2C(=C(C=C5)OC)OC3C(C=C4)O
InChI: InChI=1S/C18H21NO3/c1-19-8-7-18-11-4-5-13(20)17(18)22-16-14(21-2)6-3-10(15(16)18)9-12(11)19/h3-6,11-13,17,20H,7-9H2,1-2H3
Instrument: TripleTOF 6600 SCIEX
Instrument type: LC-ESI-QTOF
Ms type: MS2
Ion mode: POSITIVE
Collision energy: 110
Fragmentation mode: CID
Ionization: ESI
Column name: Zorbax Eclipse Plus C18 2.1 mm x 150 mm, 3.5 um, Agilent
Retention time: 5.043 min
Precursor m/z: 300.1594
Precursor type: [M+H]+
m/z	relative intensity
39.0216	31
42.0323	17
44.0481	46
50.014	28
51.0224	118
61.0052	24
62.0143	52
63.0219	99
65.0372	85
74.0131	84
75.0214	100
76.0293	74
77.0372	421
78.0453	90
86.0136	28
87.0211	36
88.0292	39
89.0374	295
90.0459	15
91.0527	69
98.0134	29
99.0216	21
100.03	12
101.0366	106
102.0451	261
103.0521	33
113.0368	107
114.0449	80
115.0529	999
116.0605	12
118.0405	10
125.0361	40
126.0448	334
127.0527	396
128.0606	332
129.0429	21
131.0467	15
138.0454	18
139.0531	427
140.0622	19
141.0681	65
149.0362	15
150.0449	308
151.0525	475
152.0607	898
153.0681	63
154.0672	11
155.0517	78
162.0485	43
163.0525	277
164.0602	127
165.069	195
168.0549	12
175.0522	11
176.0617	78
177.0695	16
178.0761	18
179.059	18
181.0643	13
187.0513	42
188.0621	23
189.0673	82
200.0624	11
