Mass spectrum: Meperidine; LC-ESI-QTOF; MS2; 40 V
Name: Meperidine
Class: Pharmaceutical
Formula: C15H21NO2
Exact mass: 247.1572
SMILES: CCOC(=O)C1(CCN(CC1)C)C2=CC=CC=C2
InChI: InChI=1S/C15H21NO2/c1-3-18-14(17)15(9-11-16(2)12-10-15)13-7-5-4-6-8-13/h4-8H,3,9-12H2,1-2H3
Instrument: TripleTOF 6600 SCIEX
Instrument type: LC-ESI-QTOF
Ms type: MS2
Ion mode: POSITIVE
Collision energy: 40
Fragmentation mode: CID
Ionization: ESI
Column name: Zorbax Eclipse Plus C18 2.1 mm x 150 mm, 3.5 um, Agilent
Retention time: 6.573 min
Precursor m/z: 248.1645
Precursor type: [M+H]+
m/z	relative intensity
42.0335	58
44.0492	181
70.0646	535
77.0375	22
82.0643	22
83.0722	12
91.0534	244
96.0796	42
97.0878	23
98.0955	49
99.0431	31
103.0535	210
105.0692	42
115.0532	61
116.0609	43
117.0688	78
128.0613	30
129.0693	58
130.0768	18
131.0848	239
143.084	17
145.1	20
158.0955	11
159.1034	11
172.1116	22
174.1271	724
176.1424	96
184.1107	31
202.1225	33
220.1333	999
248.1645	299
