Mass spectrum: Diaveridine; LC-ESI-QTOF; MS2; 40 V
Name: Diaveridine
Class: Pharmaceutical
Formula: C13H16N4O2
Exact mass: 260.1273
SMILES: COC1=C(C=C(C=C1)CC2=CN=C(N=C2N)N)OC
InChI: InChI=1S/C13H16N4O2/c1-18-10-4-3-8(6-11(10)19-2)5-9-7-16-13(15)17-12(9)14/h3-4,6-7H,5H2,1-2H3,(H4,14,15,16,17)
Instrument: TripleTOF 5600 SCIEX
Instrument type: LC-ESI-QTOF
Ms type: MS2
Ion mode: POSITIVE
Collision energy: 40
Fragmentation mode: CID
Ionization: ESI
Column name: Zorbax Eclipse Plus C18 2.1 mm x 150 mm, 3.5 um, Agilent
Retention time: 4.966 min
Precursor m/z: 261.1346
Precursor type: [M+H]+
m/z	relative intensity
81.05	134
106.0433	12
107.0511	37
110.0616	49
111.0686	17
123.0682	418
135.0446	27
151.0753	22
158.0612	20
171.0666	12
172.0866	12
173.0773	19
187.0973	55
188.1035	30
200.0846	30
200.1068	16
203.0909	45
215.091	42
216.0995	85
217.1075	213
228.0762	15
229.108	23
243.0854	74
245.1017	999
246.1121	39
261.132	53
