Mass spectrum: Clonidine; LC-ESI-QTOF; MS2; 70 V
Name: Clonidine
Class: Pharmaceutical
Formula: C9H9Cl2N3
Exact mass: 229.0174
SMILES: C1CN=C(N1)NC2=C(C=CC=C2Cl)Cl
InChI: InChI=1S/C9H9Cl2N3/c10-6-2-1-3-7(11)8(6)14-9-12-4-5-13-9/h1-3H,4-5H2,(H2,12,13,14)
Instrument: TripleTOF 6600 SCIEX
Instrument type: LC-ESI-QTOF
Ms type: MS2
Ion mode: POSITIVE
Collision energy: 70
Fragmentation mode: CID
Ionization: ESI
Column name: Zorbax Eclipse Plus C18 2.1 mm x 150 mm, 3.5 um, Agilent
Retention time: 5.408 min
Precursor m/z: 230.0246
Precursor type: [M+H]+
m/z	relative intensity
41.0251	82
42.02	51
42.0329	195
43.0285	61
44.0491	628
48.9834	154
51.0233	51
62.0142	61
63.0227	154
64.0183	82
72.9832	628
73.0048	41
74.0144	731
75.0219	205
76.0177	51
77.0376	72
82.9434	133
84.9829	72
88.0176	113
89.0373	72
90.0329	288
91.0412	92
96.9832	195
97.9785	82
98.9991	247
100.0175	278
102.033	113
104.0487	92
105.0433	102
106.9445	72
108.9828	999
109.9906	51
110.9988	102
116.0473	51
117.0535	61
118.0505	82
123.9931	813
125.0017	411
130.0379	102
131.0597	278
132.96	813
133.0639	51
135.9939	92
138.0087	82
144.9593	82
152.0118	102
158.0698	113
159.9702	185
160.9777	113
172.9663	61
