Mass spectrum: Olmesartan; LC-ESI-QTOF; MS2; 120 V
Name: Olmesartan
Class: Pharmaceutical
Formula: C24H26N6O3
Exact mass: 446.2066
SMILES: CCCc1nc(c(n1Cc2ccc(cc2)c3ccccc3c4n[nH]nn4)C(O)=O)C(C)(C)O
InChI: InChI=1S/C24H26N6O3/c1-4-7-19-25-21(24(2,3)33)20(23(31)32)30(19)14-15-10-12-16(13-11-15)17-8-5-6-9-18(17)22-26-28-29-27-22/h5-6,8-13,33H,4,7,14H2,1-3H3,(H,31,32)(H,26,27,28,29)
Instrument: TripleTOF 5600 SCIEX
Instrument type: LC-ESI-QTOF
Ms type: MS2
Ion mode: POSITIVE
Collision energy: 120
Fragmentation mode: CID
Ionization: ESI
Column name: Zorbax Eclipse Plus C18 2.1 mm x 150 mm, 3.5 um, Agilent
Retention time: 7.356 min
Precursor m/z: 447.2139
Precursor type: [M+H]+
m/z	relative intensity
51.0286	21
65.0429	10
75.0253	15
77.0416	114
80.0511	29
87.0246	10
89.0404	37
101.0393	21
102.0338	10
102.0453	18
113.0386	64
114.0458	14
115.0543	83
125.0388	35
126.046	63
127.0541	147
128.061	77
137.0385	40
138.0461	65
139.0544	105
140.0498	178
141.0576	14
149.0399	12
150.0465	181
151.0547	693
152.0623	999
153.0672	89
154.0648	15
161.0383	10
162.0467	65
163.0549	490
164.0529	380
165.0697	206
166.0656	31
167.072	12
175.0524	13
176.0621	356
177.0643	268
178.0683	392
179.0725	84
180.0808	36
188.0497	112
189.0575	125
190.0657	801
191.0614	75
192.0686	41
203.0599	12
204.0657	10
205.0765	269
