Mass spectrum: 3,5-Dichloroaniline; LC-ESI-QTOF; MS2; 80 V
Name: 3,5-Dichloroaniline
Formula: C6H5Cl2N
Exact mass: 160.9799
SMILES: C1=C(C=C(C=C1Cl)Cl)N
InChI: InChI=1S/C6H5Cl2N/c7-4-1-5(8)3-6(9)2-4/h1-3H,9H2
Instrument: TripleTOF X500R SCIEX
Instrument type: LC-ESI-QTOF
Ms type: MS2
Ion mode: POSITIVE
Collision energy: 80
Fragmentation mode: CID
Ionization: ESI
Column name: Zorbax Eclipse Plus C18 2.1 mm x 150 mm, 3.5 um, Agilent
Retention time: 11.205 min
Precursor m/z: 161.9872
Precursor type: [M+H]+
m/z	relative intensity
37.0074	47
38.0152	58
39.0229	170
50.0152	58
52.0182	13
60.9839	16
62.0154	18
63.0227	45
65.0384	74
72.984	29
73.0073	170
74.0149	999
75.023	152
83.9768	48
84.9832	13
107.9767	22
108.9845	12
