Mass spectrum: Disperse brown 1; LC-ESI-QTOF; MS2; 70 V
Name: Disperse brown 1
Formula: C16H15Cl3N4O4
Exact mass: 432.0159
SMILES: C1=CC(=C(C=C1N(CCO)CCO)Cl)N=NC2=C(C=C(C=C2Cl)[N+](=O)[O-])Cl
InChI: InChI=1S/C16H15Cl3N4O4/c17-12-7-10(22(3-5-24)4-6-25)1-2-15(12)20-21-16-13(18)8-11(23(26)27)9-14(16)19/h1-2,7-9,24-25H,3-6H2
Instrument: TripleTOF 6600 SCIEX
Instrument type: LC-ESI-QTOF
Ms type: MS2
Ion mode: POSITIVE
Collision energy: 70
Fragmentation mode: CID
Ionization: ESI
Column name: Zorbax Eclipse Plus C18 2.1 mm x 150 mm, 3.5 um, Agilent
Retention time: 12.39 min
Precursor m/z: 433.0232
Precursor type: [M+H]+
m/z	relative intensity
45.0334	62
77.038	37
78.0343	43
90.0333	62
91.0546	43
92.0497	31
96.9833	87
98.9837	31
99.0003	62
103.0303	37
104.0495	125
105.0459	56
105.0586	37
106.0645	43
106.9443	69
108.9842	175
109.9779	69
110.9996	43
111.9936	56
114.0123	75
116.0504	81
117.0417	43
117.056	163
118.0518	94
118.0633	232
119.0623	56
123.9933	263
126.0101	163
127.016	43
128.0488	31
130.0653	43
131.0599	138
132.0671	37
133.0776	37
138.0095	87
139.006	150
139.0157	270
140.0271	194
141.0323	37
142.9451	106
143.0605	37
143.9517	898
144.0663	25
145.0763	163
149.0687	31
152.0179	163
153.0206	999
153.0341	226
158.0377	87
159.9508	69
163.0862	56
166.0396	100
167.0399	31
168.0327	25
171.9572	106
175.0879	37
179.0397	50
185.0462	43
189.9477	144
197.048	119
217.9536	37
248.005	50
296.9761	75
310.9778	728
312.9926	37
325.0002	31
342.9641	37
342.9807	37
356.9729	113
