Mass spectrum: Flavanone; LC-ESI-QTOF; MS2; 40 V
Name: Flavanone
Class: Personal_care_product
Formula: C15H12O2
Exact mass: 224.0837
SMILES: C1C(OC2=CC=CC=C2C1=O)C3=CC=CC=C3
InChI: InChI=1S/C15H12O2/c16-13-10-15(11-6-2-1-3-7-11)17-14-9-5-4-8-12(13)14/h1-9,15H,10H2
Instrument: TripleTOF 5600 SCIEX
Instrument type: LC-ESI-QTOF
Ms type: MS2
Ion mode: POSITIVE
Collision energy: 40
Fragmentation mode: CID
Ionization: ESI
Column name: Zorbax Eclipse Plus C18 2.1 mm x 150 mm, 3.5 um, Agilent
Retention time: 12.61 min
Precursor m/z: 225.091
Precursor type: [M+H]+
m/z	relative intensity
39.0226	18
51.0233	15
65.0385	316
77.0388	199
79.0534	39
91.0545	44
93.0335	241
101.0384	16
102.0461	12
103.0543	434
105.0336	13
107.0485	10
119.0483	12
121.0284	999
129.0341	13
131.0487	185
147.0425	67
152.0627	33
153.071	24
165.069	24
176.0626	15
177.0725	38
178.078	301
179.0851	173
181.0659	70
182.0702	13
207.08	44
210.0677	144
225.0901	58
