Mass spectrum: 2-Hydroxy-n-methyl-n-phenylpropanamide; LC-ESI-QTOF; MS2; 40 V
Name: 2-Hydroxy-n-methyl-n-phenylpropanamide
Formula: C10H13NO2
Exact mass: 179.0946
SMILES: CC(C(=O)N(C)C1=CC=CC=C1)O
InChI: InChI=1S/C10H13NO2/c1-8(12)10(13)11(2)9-6-4-3-5-7-9/h3-8,12H,1-2H3
Instrument: TripleTOF 5600 SCIEX
Instrument type: LC-ESI-QTOF
Ms type: MS2
Ion mode: POSITIVE
Collision energy: 40
Fragmentation mode: CID
Ionization: ESI
Column name: Zorbax Eclipse Plus C18 2.1 mm x 150 mm, 3.5 um, Agilent
Retention time: 6.763 min
Precursor m/z: 180.1019
Precursor type: [M+H]+
m/z	relative intensity
42.0336	29
45.0333	58
50.0148	19
51.023	111
55.0175	32
56.0495	166
65.0385	48
66.0465	29
77.0383	816
78.0459	45
79.0543	228
91.0543	300
92.0525	29
92.0633	13
93.0569	528
94.0647	39
102.0484	16
103.0536	235
104.0493	408
105.0695	669
106.0644	512
107.0723	97
108.0801	241
115.0562	45
117.0559	88
118.0652	597
119.0728	773
120.0831	22
132.0817	143
133.09	45
134.0629	16
134.0958	999
147.0668	35
162.0902	182
