Mass spectrum: Sitagliptin; LC-ESI-QTOF; MS2; 100 V
Name: Sitagliptin
Class: Pharmaceutical
Formula: C16H15F6N5O
Exact mass: 407.1181
SMILES: c1c(c(cc(c1F)F)F)C[C@H](CC(=O)N2CCn3c(nnc3C(F)(F)F)C2)N
InChI: InChI=1S/C16H15F6N5O/c17-10-6-12(19)11(18)4-8(10)3-9(23)5-14(28)26-1-2-27-13(7-26)24-25-15(27)16(20,21)22/h4,6,9H,1-3,5,7,23H2/t9-/m1/s1
Instrument: TripleTOF 5600 SCIEX
Instrument type: LC-ESI-QTOF
Ms type: MS2
Ion mode: POSITIVE
Collision energy: 100
Fragmentation mode: CID
Ionization: ESI
Column name: Zorbax Eclipse Plus C18 2.1 mm x 150 mm, 3.5 um, Agilent
Retention time: 6.571 min
Precursor m/z: 408.1254
Precursor type: [M+H]+
m/z	relative intensity
56.0547	26
75.0065	16
77.0223	11
77.0408	17
81.0164	17
87.0248	44
91.0125	16
101.0203	135
107.0297	138
117.013	12
118.0205	47
125.0204	37
126.0278	20
127.0362	999
134.0405	39
137.0199	65
138.0277	10
145.0259	100
150.0258	10
151.0353	63
153.0387	62
154.0462	57
157.0253	13
165.0256	12
169.026	12
174.0516	14
