Mass spectrum: Trifloxystrobin; LC-ESI-QTOF; MS2; 70 V
Name: Trifloxystrobin
Class: Fungicide
Formula: C20H19F3N2O4
Exact mass: 408.1297
SMILES: CC(=NOCC1=CC=CC=C1C(=NOC)C(=O)OC)C2=CC(=CC=C2)C(F)(F)F
InChI: InChI=1S/C20H19F3N2O4/c1-13(14-8-6-9-16(11-14)20(21,22)23)24-29-12-15-7-4-5-10-17(15)18(25-28-3)19(26)27-2/h4-11H,12H2,1-3H3
Instrument: TripleTOF 5600 SCIEX
Instrument type: LC-ESI-QTOF
Ms type: MS2
Ion mode: POSITIVE
Collision energy: 70
Fragmentation mode: CID
Ionization: ESI
Column name: Zorbax Eclipse Plus C18 2.1 mm x 150 mm, 3.5 um, Agilent
Retention time: 15.037 min
Precursor m/z: 409.137
Precursor type: [M+H]+
m/z	relative intensity
65.0455	11
74.0207	12
75.0281	32
77.0444	29
79.0592	11
89.0428	198
90.05	69
91.0578	120
95.0322	162
103.0569	28
104.0625	20
105.0719	24
115.0445	31
116.0509	435
117.0587	146
118.0662	146
119.0495	19
125.0211	85
130.0665	234
131.0739	338
132.0815	66
143.0377	17
145.0262	999
146.0617	52
173.0328	89
186.0529	444
