Mass spectrum: Mandipropamid; LC-ESI-QTOF; MS2; 100 V
Name: Mandipropamid
Class: Fungicide
Formula: C23H22ClNO4
Exact mass: 411.1237
SMILES: COC1=C(C=CC(=C1)CCNC(=O)C(C2=CC=C(C=C2)Cl)OCC#C)OCC#C
InChI: InChI=1S/C23H22ClNO4/c1-4-14-28-20-11-6-17(16-21(20)27-3)12-13-25-23(26)22(29-15-5-2)18-7-9-19(24)10-8-18/h1-2,6-11,16,22H,12-15H2,3H3,(H,25,26)
Instrument: TripleTOF 6600 SCIEX
Instrument type: LC-ESI-QTOF
Ms type: MS2
Ion mode: POSITIVE
Collision energy: 100
Fragmentation mode: CID
Ionization: ESI
Column name: Zorbax Eclipse Plus C18 2.1 mm x 150 mm, 3.5 um, Agilent
Retention time: 12.239 min
Precursor m/z: 412.131
Precursor type: [M+H]+
m/z	relative intensity
39.0228	48
51.0228	44
61.0063	26
62.0142	39
63.0226	180
65.0385	149
66.0463	22
67.053	17
72.9828	88
74.9986	30
75.0219	30
77.0382	462
78.0455	79
79.054	88
80.0482	17
89.0382	805
90.046	290
91.0539	620
93.0566	48
93.0691	26
94.0409	39
94.0641	44
95.0479	30
98.9991	400
102.0452	92
103.0536	246
104.0487	61
105.0357	35
106.0653	44
107.0487	132
110.9996	26
115.0533	330
116.0618	30
117.0565	259
118.0644	136
119.0489	57
121.0632	57
122.0594	30
125.0147	999
126.0445	26
127.0543	74
128.0614	202
129.0686	17
130.0641	52
131.0482	52
133.0284	52
133.0504	52
134.059	44
135.0433	35
139.053	17
140.0552	17
141.0703	17
145.0626	22
146.06	52
147.0433	61
149.0158	17
151.0524	57
152.0259	35
152.0609	127
153.0695	66
163.0524	35
164.0604	70
165.0691	343
166.0764	22
167.0826	22
176.0615	96
177.0705	57
178.0767	202
179.0854	30
181.0632	74
182.0718	26
189.0696	158
190.0765	26
191.0851	35
194.0701	39
199.0317	35
200.0598	30
201.0688	22
202.0769	123
203.0851	26
204.0803	52
205.0605	17
213.0699	22
215.0847	57
