Mass spectrum: Celiprolol; LC-ESI-QTOF; MS2; 110 V
Name: Celiprolol
Class: Pharmaceutical
Formula: C20H33N3O4
Exact mass: 379.2471
SMILES: CCN(CC)C(=O)NC1=CC(=C(C=C1)OCC(CNC(C)(C)C)O)C(=O)C
InChI: InChI=1S/C20H33N3O4/c1-7-23(8-2)19(26)22-15-9-10-18(17(11-15)14(3)24)27-13-16(25)12-21-20(4,5)6/h9-11,16,21,25H,7-8,12-13H2,1-6H3,(H,22,26)
Instrument: TripleTOF 5600 SCIEX
Instrument type: LC-ESI-QTOF
Ms type: MS2
Ion mode: POSITIVE
Collision energy: 110
Fragmentation mode: CID
Ionization: ESI
Column name: Zorbax Eclipse Plus C18 2.1 mm x 150 mm, 3.5 um, Agilent
Retention time: 6.532 min
Precursor m/z: 380.2544
Precursor type: [M+H]+
m/z	relative intensity
43.0267	134
44.0213	459
44.0594	77
56.0562	999
57.0391	19
57.0756	308
58.0708	16
65.0429	167
72.0476	208
74.0639	362
74.0997	183
75.0263	16
77.0419	713
77.075	22
78.0367	99
79.0462	12
79.0575	16
80.0153	67
80.0552	19
89.04	57
90.0369	38
91.0563	61
92.0517	144
100.0764	28
101.0396	16
102.0345	25
102.0479	19
103.0553	122
104.051	138
105.0342	64
106.0303	51
106.065	25
108.0451	28
115.0539	118
116.051	32
117.0624	25
120.0447	57
127.0574	16
128.0497	28
130.0668	51
132.0456	102
133.0531	25
148.0392	48
162.0207	19
186.0546	16
