Mass spectrum: Norfloxacin; LC-ESI-QTOF; MS2; 40 V
Name: Norfloxacin
Class: Antimicrobial; Pharmaceutical
Formula: C16H18FN3O3
Exact mass: 319.1332
SMILES: CCN1C=C(C(=O)C2=CC(=C(C=C21)N3CCNCC3)F)C(=O)O
InChI: InChI=1S/C16H18FN3O3/c1-2-19-9-11(16(22)23)15(21)10-7-12(17)14(8-13(10)19)20-5-3-18-4-6-20/h7-9,18H,2-6H2,1H3,(H,22,23)
Instrument: TripleTOF 5600 SCIEX
Instrument type: LC-ESI-QTOF
Ms type: MS2
Ion mode: POSITIVE
Collision energy: 40
Fragmentation mode: CID
Ionization: ESI
Column name: Zorbax Eclipse Plus C18 2.1 mm x 150 mm, 3.5 um, Agilent
Retention time: 5.167 min
Precursor m/z: 320.1405
Precursor type: [M+H]+
m/z	relative intensity
176.0765	20
185.0752	16
187.0683	11
189.0821	23
191.0624	23
198.0696	9
198.0978	12
203.0603	51
204.0707	24
204.1055	63
205.0759	93
211.1124	15
219.092	56
225.0844	11
226.0937	28
226.1285	20
227.1011	18
228.112	11
231.0561	210
233.1074	189
246.139	12
253.077	11
254.0893	98
254.1264	25
256.1456	22
259.0901	15
274.095	37
274.1249	9
276.1499	34
282.1229	285
302.1296	999
