Mass spectrum: Terbinafine; LC-ESI-QTOF; MS2; 110 V
Name: Terbinafine
Class: Pharmaceutical; Fungicide
Formula: C21H25N
Exact mass: 291.1987
SMILES: CN(C\C=C\C#CC(C)(C)C)Cc1cccc2ccccc12
InChI: InChI=1S/C21H25N/c1-21(2,3)15-8-5-9-16-22(4)17-19-13-10-12-18-11-6-7-14-20(18)19/h5-7,9-14H,16-17H2,1-4H3/b9-5+
Instrument: TripleTOF 5600 SCIEX
Instrument type: LC-ESI-QTOF
Ms type: MS2
Ion mode: POSITIVE
Collision energy: 110
Fragmentation mode: CID
Ionization: ESI
Column name: Zorbax Eclipse Plus C18 2.1 mm x 150 mm, 3.5 um, Agilent
Retention time: 9.655 min
Precursor m/z: 292.206
Precursor type: [M+H]+
m/z	relative intensity
65.0433	150
74.0179	10
75.0254	11
76.0331	11
77.0414	124
79.0567	12
87.0241	12
89.0408	285
91.0561	150
102.0463	24
113.0384	13
114.0462	15
115.0545	999
139.0539	82
141.0695	48
