Mass spectrum: Metaflumizone; LC-ESI-QTOF; MS2; 130 V
Name: Metaflumizone
Class: Insecticide; Pharmaceutical
Formula: C24H16F6N4O2
Exact mass: 506.1177
SMILES: C1=CC(=CC(=C1)C(F)(F)F)C(=NNC(=O)NC2=CC=C(C=C2)OC(F)(F)F)CC3=CC=C(C=C3)C#N
InChI: InChI=1S/C24H16F6N4O2/c25-23(26,27)18-3-1-2-17(13-18)21(12-15-4-6-16(14-31)7-5-15)33-34-22(35)32-19-8-10-20(11-9-19)36-24(28,29)30/h1-11,13H,12H2,(H2,32,34,35)
Instrument: TripleTOF 6600 SCIEX
Instrument type: LC-ESI-QTOF
Ms type: MS2
Ion mode: POSITIVE
Collision energy: 130
Fragmentation mode: CID
Ionization: ESI
Column name: Zorbax Eclipse Plus C18 2.1 mm x 150 mm, 3.5 um, Agilent
Retention time: 15.496 min
Precursor m/z: 507.125
Precursor type: [M+H]+
m/z	relative intensity
37.0073	12
38.0154	12
39.0232	54
51.0232	14
53.0383	14
60.0001	12
61.0075	46
62.0149	102
63.0227	370
64.0179	40
64.0297	14
65.0382	165
66.0346	14
66.0457	58
68.9943	86
73.0071	12
74.0145	78
75.0226	175
76.02	12
77.0385	26
80.0491	94
81.0569	14
83.0283	10
87.0232	28
88.0177	28
88.0303	68
89.0384	999
90.0334	82
90.0458	14
92.0255	18
92.0492	46
93.057	187
95.029	66
98.0149	18
99.0237	42
102.0325	10
102.0453	10
108.0438	40
109.0441	14
113.0399	18
114.0327	155
115.0412	94
116.049	147
123.0121	16
123.0228	22
123.0343	16
124.0183	36
125.0193	22
127.0403	16
129.0438	10
133.044	14
137.0387	24
138.0427	10
139.0539	20
140.0495	70
142.0518	22
145.0262	84
147.0222	28
148.0243	10
149.0386	34
150.0462	22
151.0358	24
151.0535	22
152.0476	10
152.0614	12
153.0524	14
161.0377	16
162.045	38
163.0541	318
164.049	100
164.0608	56
165.0549	10
165.0694	20
167.0289	26
168.0361	30
169.0434	30
172.0326	30
173.0388	56
174.0347	26
174.0457	30
175.0397	12
175.0528	38
176.0483	14
176.0608	50
177.0562	30
181.0432	22
182.0522	26
183.0597	42
186.0263	18
187.0353	24
188.0493	167
189.0572	163
190.0648	839
191.0733	42
192.0382	80
192.0667	16
192.0834	10
193.0432	88
194.0494	28
195.0481	20
198.0314	18
199.0411	96
200.05	102
201.0568	68
202.0631	38
203.0733	40
206.0394	18
207.0483	16
208.0564	44
212.0421	70
213.0393	30
214.0581	14
215.0602	50
216.0671	68
217.0756	34
218.0393	46
218.0849	18
219.0468	165
220.0554	44
221.0476	12
221.0637	20
222.046	12
225.0472	28
226.0496	34
227.0608	12
228.0553	20
230.0347	16
232.0494	32
233.0552	26
237.0375	16
238.0461	18
239.0536	92
244.0391	14
245.0507	34
246.0594	70
247.0658	26
250.0451	28
253.0566	18
257.044	12
264.0458	12
265.0585	20
270.0561	10
