Mass spectrum: Doxepin; LC-ESI-QTOF; MS2; 120 V
Name: Doxepin
Class: Pharmaceutical
Formula: C19H21NO
Exact mass: 279.1623
SMILES: CN(C)CCC=C1C2=CC=CC=C2COC3=CC=CC=C31
InChI: InChI=1S/C19H21NO/c1-20(2)13-7-11-17-16-9-4-3-8-15(16)14-21-19-12-6-5-10-18(17)19/h3-6,8-12H,7,13-14H2,1-2H3
Instrument: TripleTOF 5600 SCIEX
Instrument type: LC-ESI-QTOF
Ms type: MS2
Ion mode: POSITIVE
Collision energy: 120
Fragmentation mode: CID
Ionization: ESI
Column name: Zorbax Eclipse Plus C18 2.1 mm x 150 mm, 3.5 um, Agilent
Retention time: 7.447 min
Precursor m/z: 280.1696
Precursor type: [M+H]+
m/z	relative intensity
42.0466	43
44.0615	19
58.0731	65
65.0462	268
68.0567	19
74.0209	90
75.0287	61
76.0363	85
77.0444	552
78.0524	66
79.0605	17
85.0119	13
86.02	44
87.0272	85
88.0352	16
89.043	352
91.058	151
98.0185	68
99.0259	33
100.0346	17
101.0427	30
102.0489	184
110.0177	17
111.0256	21
113.0409	93
114.0485	24
115.0567	706
122.018	29
123.0251	15
124.0324	12
125.0397	47
126.0484	188
127.0558	93
128.0634	126
137.0397	41
138.0476	27
139.0552	409
149.04	86
150.0476	497
151.0549	397
152.0623	229
161.0389	41
162.0466	143
163.0546	999
164.0628	319
165.0704	279
173.0387	17
174.0465	154
175.0543	83
176.0624	291
177.0711	18
178.0759	12
185.0376	13
186.0463	48
187.0544	468
188.0615	210
189.0697	582
198.0483	92
199.0537	143
200.0622	324
201.0692	55
202.0773	43
211.0537	74
212.0641	35
213.0688	148
