Mass spectrum: threo-Dihydrobupropion; LC-ESI-QTOF; MS2; 50 V
Name: threo-Dihydrobupropion
Class: Pharmaceutical; Metabolite
Formula: C13H20ClNO
Exact mass: 241.1233
SMILES: CC(C(c1cccc(c1)Cl)O)NC(C)(C)C
InChI: InChI=1S/C13H20ClNO/c1-9(15-13(2,3)4)12(16)10-6-5-7-11(14)8-10/h5-9,12,15-16H,1-4H3
Instrument: TripleTOF 5600 SCIEX
Instrument type: LC-ESI-QTOF
Ms type: MS2
Ion mode: POSITIVE
Collision energy: 50
Fragmentation mode: CID
Ionization: ESI
Column name: Zorbax Eclipse Plus C18 2.1 mm x 150 mm, 3.5 um, Agilent
Retention time: 6.626 min
Precursor m/z: 242.1306
Precursor type: [M+H]+
m/z	relative intensity
42.0417	12
56.0539	30
57.0748	67
89.0384	22
91.0543	54
115.0545	940
116.0623	999
117.0568	102
118.0649	69
125.014	52
132.08	90
133.0877	94
138.0103	16
149.0136	30
151.0291	90
152.0244	31
153.0334	90
168.0558	120
