Mass spectrum: Azacyclonol; LC-ESI-QTOF; MS2; 30 V
Name: Azacyclonol
Class: Pharmaceutical
Formula: C18H21NO
Exact mass: 267.1623
SMILES: OC(C1CCNCC1)(C2=CC=CC=C2)C3=CC=CC=C3
InChI: InChI=1S/C18H21NO/c20-18(15-7-3-1-4-8-15,16-9-5-2-6-10-16)17-11-13-19-14-12-17/h1-10,17,19-20H,11-14H2
Instrument: TripleTOF 5600 SCIEX
Instrument type: LC-ESI-QTOF
Ms type: MS2
Ion mode: POSITIVE
Collision energy: 30
Fragmentation mode: CID
Ionization: ESI
Column name: Zorbax Eclipse Plus C18 2.1 mm x 150 mm, 3.5 um, Agilent
Retention time: 6.644 min
Precursor m/z: 268.1696
Precursor type: [M+H]+
m/z	relative intensity
44.0492	30
56.0493	72
70.0649	51
80.0491	13
82.0651	126
91.0543	587
103.055	29
105.0696	171
115.054	34
117.0676	72
127.055	17
128.0618	128
129.0695	102
130.0645	46
131.0842	15
132.0809	440
141.0703	14
143.086	661
144.0791	14
145.0888	40
146.0969	30
155.086	13
165.068	20
166.0796	28
167.086	272
172.1125	24
178.0796	12
179.084	20
181.1013	274
191.0892	17
193.1006	10
204.0919	24
205.1007	39
207.1179	51
219.1183	41
250.1597	999
