Mass spectrum: Cyazofamid; LC-ESI-QTOF; MS2; 60 V
Name: Cyazofamid
Class: Fungicide
Formula: C13H13ClN4O2S
Exact mass: 324.0448
SMILES: CC1=CC=C(C=C1)C2=C(N=C(N2S(=O)(=O)N(C)C)C#N)Cl
InChI: InChI=1S/C13H13ClN4O2S/c1-9-4-6-10(7-5-9)12-13(14)16-11(8-15)18(12)21(19,20)17(2)3/h4-7H,1-3H3
Instrument: TripleTOF 6600 SCIEX
Instrument type: LC-ESI-QTOF
Ms type: MS2
Ion mode: POSITIVE
Collision energy: 60
Fragmentation mode: CID
Ionization: ESI
Column name: Zorbax Eclipse Plus C18 2.1 mm x 150 mm, 3.5 um, Agilent
Retention time: 13.577 min
Precursor m/z: 325.0521
Precursor type: [M+H]+
m/z	relative intensity
42.0333	312
44.0492	999
102.045	104
103.0527	353
108.0102	437
117.0565	104
118.0629	104
128.0477	187
129.0566	291
130.0628	145
155.059	333
164.0244	145
181.0616	145
182.0698	145
189.019	166
190.0289	208
216.0309	312
245.057	166
