Mass spectrum: 1-Cyclohexyl-3-(2-methylphenyl)urea; LC-ESI-QTOF; MS2; 140 V
Name: 1-Cyclohexyl-3-(2-methylphenyl)urea
Formula: C14H20N2O
Exact mass: 232.1576
SMILES: O=C(NC1CCCCC1)Nc2ccccc2C
InChI: InChI=1S/C14H20N2O/c1-11-7-5-6-10-13(11)16-14(17)15-12-8-3-2-4-9-12/h5-7,10,12H,2-4,8-9H2,1H3,(H2,15,16,17)
Instrument: TripleTOF 6600 SCIEX
Instrument type: LC-ESI-QTOF
Ms type: MS2
Ion mode: POSITIVE
Collision energy: 140
Fragmentation mode: CID
Ionization: ESI
Column name: Zorbax Eclipse Plus C18 2.1 mm x 150 mm, 3.5 um, Agilent
Retention time: 11.026 min
Precursor m/z: 233.1649
Precursor type: [M+H]+
m/z	relative intensity
35.9989	49
37.0069	360
38.0036	22
38.0144	298
39.0227	999
40.0306	10
41.0256	10
41.0379	22
42.0333	16
44.0123	22
49.0063	45
50.0144	245
51.022	199
52.0177	47
53.0372	10
54.0325	24
61.0061	39
62.0137	65
63.0218	61
65.0373	187
66.0326	20
66.045	47
67.0401	10
74.0137	14
77.0374	22
78.0316	16
92.0478	22
93.0553	12
