Mass spectrum: Fluazifop-P-butyl; LC-ESI-QTOF; MS2; 100 V
Name: Fluazifop-P-butyl
Class: Herbicide
Formula: C19H20F3NO4
Exact mass: 383.1344
SMILES: CCCCOC(=O)C(C)OC1=CC=C(C=C1)OC2=NC=C(C=C2)C(F)(F)F
InChI: InChI=1S/C19H20F3NO4/c1-3-4-11-25-18(24)13(2)26-15-6-8-16(9-7-15)27-17-10-5-14(12-23-17)19(20,21)22/h5-10,12-13H,3-4,11H2,1-2H3
Instrument: TripleTOF 6600 SCIEX
Instrument type: LC-ESI-QTOF
Ms type: MS2
Ion mode: POSITIVE
Collision energy: 100
Fragmentation mode: CID
Ionization: ESI
Column name: Zorbax Eclipse Plus C18 2.1 mm x 150 mm, 3.5 um, Agilent
Retention time: 15.933 min
Precursor m/z: 384.1417
Precursor type: [M+H]+
m/z	relative intensity
35.9998	21
37.0073	118
38.0026	19
38.0154	111
39.0231	720
41.0387	228
43.0176	15
45.0331	14
50.0147	76
51.0037	25
51.0228	146
53.0381	23
55.0172	25
57.013	23
59.9993	9
61.0066	40
62.0141	73
63.0229	300
64.017	9
64.0301	70
65.0385	937
66.0456	29
68.9937	159
70.021	59
73.0058	22
74.0144	164
75.0041	724
75.0209	233
76.0178	122
76.0298	28
77.0382	545
78.0333	218
79.0174	15
79.0535	22
80.0052	14
81.0127	12
81.0327	76
82.0401	12
83.0284	38
86.0145	19
87.0213	69
88.0166	19
88.0296	97
89.0377	88
90.0321	15
90.046	26
91.0537	442
92.0247	43
92.9932	12
93.0325	57
94.0402	47
95.0102	9
95.0279	11
96.0236	61
97.0315	59
98.0156	15
99.0036	276
99.0214	26
100.011	240
101.0195	49
101.0371	43
102.0468	107
103.0535	274
104.0127	14
104.0488	35
105.033	19
105.057	16
106.0259	11
107.0165	70
107.0267	39
107.0486	14
108.0243	22
109.0286	15
110.0353	39
113.0193	29
113.0377	257
114.0455	374
115.0455	125
116.0293	22
116.0479	33
117.0129	33
117.0577	40
119.0105	123
119.0334	40
120.0166	101
120.0426	45
121.0422	16
122.0149	28
123.0229	123
124.0177	69
125.0204	15
125.0363	16
126.0145	999
127.0227	390
128.0297	12
128.0479	129
129.0568	109
130.04	15
130.0637	121
131.0281	26
131.0482	484
132.0357	78
133.0256	23
133.044	235
134.0381	59
135.045	22
137.0198	66
138.0288	23
139.0491	105
140.0486	681
141.023	18
141.0564	701
142.0407	39
142.0654	18
143.0281	164
144.0241	54
145.0262	21
146.0201	805
147.0284	232
148.0369	38
148.056	39
149.0391	43
150.0333	76
151.034	374
152.0329	40
153.0469	22
154.0648	22
156.0426	49
156.0824	15
157.0256	28
157.052	60
158.0387	208
159.0475	91
160.0386	40
160.0555	18
161.0177	16
162.0261	61
163.0336	105
164.0326	173
165.0371	30
166.0436	19
166.0613	77
167.0364	12
167.0714	22
168.0433	194
169.0273	25
169.0506	64
170.0386	80
171.0439	38
172.034	70
172.0541	15
176.0314	15
176.0465	14
177.0388	43
177.0562	18
178.0434	95
179.0284	14
179.0544	14
180.0359	50
181.0263	23
182.0334	83
183.0409	12
184.0373	122
185.0444	142
186.0349	19
187.0393	19
188.0284	23
188.0455	76
189.0386	138
190.0444	242
191.0361	15
191.0483	12
196.0339	23
197.0433	30
198.0511	219
199.0335	25
200.0322	12
206.0398	52
208.0351	107
209.0467	225
210.0508	54
211.0576	12
214.0431	16
215.0543	15
218.0399	85
224.0629	11
225.0389	22
226.0461	57
227.0563	16
234.0344	69
235.0597	16
236.0321	122
238.0468	112
240.0546	9
254.0405	123
