Mass spectrum: Mitomycin A; LC-ESI-QTOF; MS2; 40 V
Name: Mitomycin A
Class: Pharmaceutical
Formula: C16H19N3O6
Exact mass: 349.1274
SMILES: COC1=C(C)C(=O)C2=C([C@H](COC(N)=O)[C@]3(OC)[C@@H]4N[C@@H]4CN23)C1=O
InChI: InChI=1S/C16H19N3O6/c1-6-11(20)10-9(12(21)13(6)23-2)7(5-25-15(17)22)16(24-3)14-8(18-14)4-19(10)16/h7-8,14,18H,4-5H2,1-3H3,(H2,17,22)/t7-,8+,14+,16-/m0/s1
Instrument: TripleTOF 5600 SCIEX
Instrument type: LC-ESI-QTOF
Ms type: MS2
Ion mode: POSITIVE
Collision energy: 40
Fragmentation mode: CID
Ionization: ESI
Column name: Zorbax Eclipse Plus C18 2.1 mm x 150 mm, 3.5 um, Agilent
Retention time: 7.046 min
Precursor m/z: 350.1347
Precursor type: [M+H]+
m/z	relative intensity
110.0618	10
130.0628	10
131.0703	13
132.071	17
144.0795	19
156.0699	53
157.0751	85
158.058	10
158.0827	35
159.0558	52
160.0731	11
168.0691	20
169.0762	25
170.0823	31
171.0691	12
171.0904	38
172.0732	10
174.0902	12
175.0625	26
176.0668	13
181.0755	12
182.0828	16
183.0897	26
184.063	22
184.076	19
185.0696	38
186.0577	20
186.0778	52
187.062	25
188.0693	22
188.0905	11
189.0774	30
190.0856	22
197.0694	17
198.0771	35
199.0597	17
199.0854	563
199.1168	11
200.0706	33
200.094	33
201.0779	24
201.0996	35
202.0819	34
203.0577	27
204.0649	17
211.0851	82
212.0641	21
212.0931	35
213.0638	93
214.0725	450
215.0567	19
215.0798	24
216.0888	81
217.0705	15
218.0829	26
225.0635	15
226.0716	19
227.0813	762
228.0889	999
229.0626	15
229.0966	481
230.0462	12
230.0783	25
231.0772	16
232.0963	12
239.0807	35
240.0902	17
241.0618	16
242.0687	213
243.0756	40
244.0822	107
245.0953	10
246.0742	13
255.0759	912
256.0795	22
257.0904	152
259.0706	27
259.1051	34
260.0945	13
