Mass spectrum: N,O-didesmethyl-venlafaxine; LC-ESI-QTOF; MS2; 120 V
Name: N,O-didesmethyl-venlafaxine
Class: Pharmaceutical; Metabolite
Formula: C15H23NO2
Exact mass: 249.1729
SMILES: CNCC(c1ccc(cc1)O)C2(CCCCC2)O
InChI: InChI=1S/C15H23NO2/c1-16-11-14(12-5-7-13(17)8-6-12)15(18)9-3-2-4-10-15/h5-8,14,16-18H,2-4,9-11H2,1H3
Instrument: TripleTOF 5600 SCIEX
Instrument type: LC-ESI-QTOF
Ms type: MS2
Ion mode: POSITIVE
Collision energy: 120
Fragmentation mode: CID
Ionization: ESI
Column name: Zorbax Eclipse Plus C18 2.1 mm x 150 mm, 3.5 um, Agilent
Retention time: 5.659 min
Precursor m/z: 250.1802
Precursor type: [M+H]+
m/z	relative intensity
42.0415	34
42.0494	13
44.0586	868
53.0446	67
55.0225	39
65.0418	187
66.0498	34
67.0582	10
74.0175	30
75.0252	37
76.0323	13
77.0415	999
77.0699	13
77.0797	17
78.0475	37
79.0562	100
81.0344	17
81.0702	28
89.0401	115
90.0447	10
91.0555	117
94.0427	15
102.045	17
103.053	13
107.0489	78
115.0533	148
119.0476	13
127.0551	19
128.0614	17
