Mass spectrum: Parathion; LC-ESI-QTOF; MS2; 60 V
Name: Parathion
Class: Insecticide
Formula: C10H14NO5PS
Exact mass: 291.033
SMILES: CCOP(=S)(OCC)Oc1ccc(cc1)[N+](=O)[O-]
InChI: InChI=1S/C10H14NO5PS/c1-3-14-17(18,15-4-2)16-10-7-5-9(6-8-10)11(12)13/h5-8H,3-4H2,1-2H3
Instrument: TripleTOF 5600 SCIEX
Instrument type: LC-ESI-QTOF
Ms type: MS2
Ion mode: POSITIVE
Collision energy: 60
Fragmentation mode: CID
Ionization: ESI
Column name: Zorbax Eclipse Plus C18 2.1 mm x 150 mm, 3.5 um, Agilent
Retention time: 14.107 min
Precursor m/z: 292.0403
Precursor type: [M+H]+
m/z	relative intensity
64.9819	48
65.0426	135
66.0499	223
75.026	184
77.0395	48
78.9421	87
81.0361	48
92.0259	48
93.0329	126
94.042	999
96.9509	436
96.9704	48
97.0117	67
100.0064	77
109.0102	145
109.0268	58
110.0189	436
121.0384	48
122.9929	67
123.0304	358
125.0057	106
138.9925	48
154.9702	116
155.9944	77
170.9647	48
171.9752	145
