Mass spectrum: Rifaximin; LC-ESI-QTOF; MS2; 130 V
Name: Rifaximin
Class: Pharmaceutical
Formula: C43H51N3O11
Exact mass: 785.3524
SMILES: CC1C=CC=C(C(=O)NC2=C(C3=C(C4=C(C(=C3O)C)OC(C4=O)(OC=CC(C(C(C(C(C(C1O)C)O)C)OC(=O)C)C)OC)C)C5=C2N6C=CC(=CC6=N5)C)O)C
InChI: InChI=1S/C43H51N3O11/c1-19-14-16-46-28(18-19)44-32-29-30-37(50)25(7)40-31(29)41(52)43(9,57-40)55-17-15-27(54-10)22(4)39(56-26(8)47)24(6)36(49)23(5)35(48)20(2)12-11-13-21(3)42(53)45-33(34(32)46)38(30)51/h11-18,20,22-24,27,35-36,39,48-51H,1-10H3,(H,45,53)
Instrument: TripleTOF 6600 SCIEX
Instrument type: LC-ESI-QTOF
Ms type: MS2
Ion mode: POSITIVE
Collision energy: 130
Fragmentation mode: CID
Ionization: ESI
Column name: Zorbax Eclipse Plus C18 2.1 mm x 150 mm, 3.5 um, Agilent
Retention time: 11.765 min
Precursor m/z: 808.3416
Precursor type: [M+Na]+
m/z	relative intensity
43.0179	176
67.0544	293
69.0694	176
79.0551	205
81.0692	176
91.0535	293
93.0687	264
95.0859	440
105.0692	264
107.0854	176
123.0805	146
219.0931	381
220.1004	205
235.0869	146
244.1028	117
245.1072	323
247.088	117
248.0954	705
249.1035	763
263.1165	381
264.0901	235
273.1039	411
276.0884	499
277.0982	910
289.0996	205
290.0961	176
291.1126	999
300.0897	117
301.0977	587
302.0916	146
304.0819	176
305.0926	205
317.0942	352
319.1096	675
329.0915	528
332.0787	411
345.0895	205
346.0962	323
347.1046	793
354.0862	205
360.0963	146
362.1165	352
369.0917	146
369.1233	146
382.0807	646
383.0905	235
450.1444	205
