Mass spectrum: Chloridazon; LC-ESI-QTOF; MS2; 20 V
Name: Chloridazon
Class: Herbicide
Formula: C10H8ClN3O
Exact mass: 221.0356
SMILES: C1=CC=C(C=C1)N2C(=O)C(=C(C=N2)N)Cl
InChI: InChI=1S/C10H8ClN3O/c11-9-8(12)6-13-14(10(9)15)7-4-2-1-3-5-7/h1-6H,12H2
Instrument: TripleTOF 6600 SCIEX
Instrument type: LC-ESI-QTOF
Ms type: MS2
Ion mode: POSITIVE
Collision energy: 20
Fragmentation mode: CID
Ionization: ESI
Column name: Zorbax Eclipse Plus C18 2.1 mm x 150 mm, 3.5 um, Agilent
Retention time: 6.924 min
Precursor m/z: 222.0429
Precursor type: [M+H]+
m/z	relative intensity
104.0498	17
222.0442	999
