Mass spectrum: O-tolidine; LC-ESI-QTOF; MS2; 100 V
Name: O-tolidine
Formula: C14H16N2
Exact mass: 212.1313
SMILES: CC1=C(C=CC(=C1)C2=CC(=C(C=C2)N)C)N
InChI: InChI=1S/C14H16N2/c1-9-7-11(3-5-13(9)15)12-4-6-14(16)10(2)8-12/h3-8H,15-16H2,1-2H3
Instrument: TripleTOF 6600 SCIEX
Instrument type: LC-ESI-QTOF
Ms type: MS2
Ion mode: POSITIVE
Collision energy: 100
Fragmentation mode: CID
Ionization: ESI
Column name: Zorbax Eclipse Plus C18 2.1 mm x 150 mm, 3.5 um, Agilent
Retention time: 5.073 min
Precursor m/z: 213.1386
Precursor type: [M+H]+
m/z	relative intensity
50.0168	93
51.0231	140
63.0245	124
74.0165	265
75.0229	156
76.0306	109
77.0394	468
78.0496	62
86.0149	124
87.0244	93
89.0393	171
98.0155	78
102.0472	218
110.0169	78
113.0405	93
115.0549	93
125.0405	93
126.0462	327
127.0564	109
128.0647	62
139.0562	156
140.0563	78
150.0479	749
151.0532	905
152.0611	999
153.0629	78
161.0388	109
163.054	265
176.0671	93
177.0635	93
179.0578	62
