Mass spectrum: 2-Aminobenzothiazole; LC-ESI-QTOF; MS2; 70 V
Name: 2-Aminobenzothiazole
Formula: C7H6N2S
Exact mass: 150.0252
SMILES: C1=CC=C2C(=C1)N=C(S2)N
InChI: InChI=1S/C7H6N2S/c8-7-9-5-3-1-2-4-6(5)10-7/h1-4H,(H2,8,9)
Instrument: TripleTOF X500R SCIEX
Instrument type: LC-ESI-QTOF
Ms type: MS2
Ion mode: POSITIVE
Collision energy: 70
Fragmentation mode: CID
Ionization: ESI
Column name: Zorbax Eclipse Plus C18 2.1 mm x 150 mm, 3.5 um, Agilent
Retention time: 4.985 min
Precursor m/z: 151.0325
Precursor type: [M+H]+
m/z	relative intensity
35.9994	18
37.0073	260
38.015	219
39.0226	999
41.026	10
43.0289	74
44.9794	123
47.9907	11
49.0076	10
50.0153	109
51.0229	328
52.0184	14
53.0385	177
57.9877	22
59.9901	120
61.0066	11
62.015	69
63.0227	272
64.0184	217
65.0382	644
66.0463	13
67.9712	25
68.979	874
69.9875	18
70.9953	10
74.0149	21
77.0386	118
80.0493	138
80.9797	23
81.9873	83
82.9959	16
90.0335	45
91.0416	36
91.9717	11
92.9797	98
94.995	33
96.0029	24
97.0112	16
106.9959	12
108.0024	124
109.0105	89
