Mass spectrum: Denatonium; LC-ESI-QTOF; MS2; 60 V
Name: Denatonium
Class: Food_additive; Pharmaceutical
Formula: [C21H29N2O]+
Exact mass: 325.2274
SMILES: CC[N+](CC)(CC1=CC=CC=C1)CC(=O)NC2=C(C=CC=C2C)C
InChI: InChI=1S/C21H28N2O/c1-5-23(6-2,15-19-13-8-7-9-14-19)16-20(24)22-21-17(3)11-10-12-18(21)4/h7-14H,5-6,15-16H2,1-4H3/p+1
Instrument: TripleTOF 5600 SCIEX
Instrument type: LC-ESI-QTOF
Ms type: MS2
Ion mode: POSITIVE
Collision energy: 60
Fragmentation mode: CID
Ionization: ESI
Column name: Zorbax Eclipse Plus C18 2.1 mm x 150 mm, 3.5 um, Agilent
Retention time: 7.575 min
Precursor m/z: 325.2274
Precursor type: [M]+
m/z	relative intensity
65.038	94
84.0791	112
86.0946	310
91.052	999
