Mass spectrum: Reactive Orange; LC-ESI-QTOF; MS2; 80 V
Name: Reactive Orange
Formula: C20H19N3O11S3
Exact mass: 573.0182
SMILES: CC(=O)NC1=CC2=C(C(=C(C=C2C=C1)S(=O)(=O)O)N=NC3=CC=C(C=C3)S(=O)(=O)CCOS(=O)(=O)O)O
InChI: InChI=1S/C20H19N3O11S3/c1-12(24)21-15-3-2-13-10-18(36(28,29)30)19(20(25)17(13)11-15)23-22-14-4-6-16(7-5-14)35(26,27)9-8-34-37(31,32)33/h2-7,10-11,25H,8-9H2,1H3,(H,21,24)(H,28,29,30)(H,31,32,33)
Instrument: TripleTOF 6600 SCIEX
Instrument type: LC-ESI-QTOF
Ms type: MS2
Ion mode: POSITIVE
Collision energy: 80
Fragmentation mode: CID
Ionization: ESI
Column name: Zorbax Eclipse Plus C18 2.1 mm x 150 mm, 3.5 um, Agilent
Retention time: 5.751 min
Precursor m/z: 574.0255
Precursor type: [M+H]+
m/z	relative intensity
46.995	17
53.0378	13
65.0374	10
68.0126	13
74.989	29
80.0484	87
81.0327	348
92.0483	65
93.0564	26
104.0478	45
108.0437	999
115.0403	15
116.0499	21
129.0441	47
130.0521	149
131.0595	105
132.0432	24
142.0514	249
143.0591	57
156.0103	10
158.0468	27
159.0536	19
170.0467	911
171.0545	135
172.0379	27
190.0553	10
204.0805	25
205.074	72
206.0815	44
220.085	40
231.0804	21
232.0855	98
233.0927	480
234.079	48
243.0779	11
244.0875	19
245.0941	22
248.0816	32
249.0874	25
260.0799	92
261.0875	275
262.076	28
303.0999	28
325.0514	15
