Mass spectrum: Sulfadimethoxine; LC-ESI-QTOF; MS2; 80 V
Name: Sulfadimethoxine
Class: Pharmaceutical
Formula: C12H14N4O4S
Exact mass: 310.0736
SMILES: COC1=NC(=NC(=C1)NS(=O)(=O)C2=CC=C(C=C2)N)OC
InChI: InChI=1S/C12H14N4O4S/c1-19-11-7-10(14-12(15-11)20-2)16-21(17,18)9-5-3-8(13)4-6-9/h3-7H,13H2,1-2H3,(H,14,15,16)
Instrument: TripleTOF 5600 SCIEX
Instrument type: LC-ESI-QTOF
Ms type: MS2
Ion mode: POSITIVE
Collision energy: 80
Fragmentation mode: CID
Ionization: ESI
Column name: Zorbax Eclipse Plus C18 2.1 mm x 150 mm, 3.5 um, Agilent
Retention time: 8.09 min
Precursor m/z: 311.0809
Precursor type: [M+H]+
m/z	relative intensity
37.0076	11
38.0153	13
39.0232	96
42.0338	13
53.039	57
54.0342	15
56.0498	15
57.045	32
58.0288	24
65.0392	999
66.034	47
67.0298	159
68.0134	58
68.0383	15
69.0092	28
69.0451	16
72.0446	27
80.0498	525
81.044	46
82.0289	159
84.0317	21
90.0344	18
91.0421	32
92.0496	382
93.0577	37
95.0253	12
98.0348	11
98.0469	18
99.0557	23
108.0447	368
109.0396	23
110.0349	49
111.0191	51
111.0557	11
112.0514	11
113.0369	14
113.0572	48
117.0451	21
118.052	51
124.0492	19
125.0606	10
126.0661	22
141.0526	33
144.056	40
145.0637	18
154.0613	42
156.0758	16
172.0513	14
