Mass spectrum: Amitriptyline; LC-ESI-QTOF; MS2; 20 V
Name: Amitriptyline
Class: Pharmaceutical
Formula: C20H23N
Exact mass: 277.183
SMILES: CN(C)CCC=C1C2=CC=CC=C2CCC3=CC=CC=C31
InChI: InChI=1S/C20H23N/c1-21(2)15-7-12-20-18-10-5-3-8-16(18)13-14-17-9-4-6-11-19(17)20/h3-6,8-12H,7,13-15H2,1-2H3
Instrument: TripleTOF 6600 SCIEX
Instrument type: LC-ESI-QTOF
Ms type: MS2
Ion mode: POSITIVE
Collision energy: 20
Fragmentation mode: CID
Ionization: ESI
Column name: Zorbax Eclipse Plus C18 2.1 mm x 150 mm, 3.5 um, Agilent
Retention time: 8.708 min
Precursor m/z: 278.1903
Precursor type: [M+H]+
m/z	relative intensity
91.0546	32
105.0702	31
117.0703	36
155.0857	11
191.0862	23
233.1338	229
278.1929	999
