Mass spectrum: Bis(2-isopropylphenyl) phenyl phosphate; LC-ESI-QTOF; MS2; 140 V
Name: Bis(2-isopropylphenyl) phenyl phosphate
Formula: C24H27O4P
Exact mass: 410.1647
SMILES: CC(C)C1=CC=CC=C1OP(=O)(OC2=CC=CC=C2)OC3=CC=CC=C3C(C)C
InChI: InChI=1S/C24H27O4P/c1-18(2)21-14-8-10-16-23(21)27-29(25,26-20-12-6-5-7-13-20)28-24-17-11-9-15-22(24)19(3)4/h5-19H,1-4H3
Instrument: TripleTOF 6600 SCIEX
Instrument type: LC-ESI-QTOF
Ms type: MS2
Ion mode: POSITIVE
Collision energy: 140
Fragmentation mode: CID
Ionization: ESI
Column name: Zorbax Eclipse Plus C18 2.1 mm x 150 mm, 3.5 um, Agilent
Retention time: 17.429 min
Precursor m/z: 411.172
Precursor type: [M+H]+
m/z	relative intensity
37.0069	68
38.0154	49
39.0231	525
41.0385	73
49.0068	24
50.0149	208
51.0229	796
61.0064	21
62.0146	62
63.0227	128
65.0383	999
74.0138	32
75.022	32
76.0302	24
77.0382	429
78.0458	54
89.0379	38
91.0536	317
92.0242	13
98.0137	27
99.0223	13
101.0386	13
102.0458	49
113.0367	16
114.0463	10
115.0536	73
125.0377	43
126.0455	136
127.0539	21
139.0535	145
149.0382	10
150.0451	221
151.0539	268
152.0616	221
163.0529	30
164.0605	16
165.0699	24
168.0564	10
176.0624	16
178.0775	16
179.0601	10
187.0528	10
200.0604	27
201.0698	10
224.0611	46
225.0688	32
226.0772	49
