Mass spectrum: Metolachlor; LC-ESI-QTOF; MS2; 140 V
Name: Metolachlor
Class: Herbicide
Formula: C15H22ClNO2
Exact mass: 283.1339
SMILES: CCc1cccc(C)c1N(C(C)COC)C(=O)CCl
InChI: InChI=1S/C15H22ClNO2/c1-5-13-8-6-7-11(2)15(13)17(14(18)9-16)12(3)10-19-4/h6-8,12H,5,9-10H2,1-4H3
Instrument: TripleTOF 5600 SCIEX
Instrument type: LC-ESI-QTOF
Ms type: MS2
Ion mode: POSITIVE
Collision energy: 140
Fragmentation mode: CID
Ionization: ESI
Column name: Zorbax Eclipse Plus C18 2.1 mm x 150 mm, 3.5 um, Agilent
Retention time: 13.304 min
Precursor m/z: 284.1412
Precursor type: [M+H]+
m/z	relative intensity
43.0265	32
45.0417	141
48.9904	197
52.0353	23
64.0352	23
65.0427	511
66.0495	42
67.0455	13
74.0171	85
75.0259	59
76.0323	36
77.0414	999
78.0358	39
78.0485	102
79.0567	36
80.0511	13
87.0275	26
88.0306	19
89.0396	431
90.0478	98
91.0551	352
92.0495	19
93.0587	62
101.0394	32
102.0469	89
103.054	145
103.0714	16
104.0484	23
106.0656	46
113.0375	19
114.0463	23
115.0539	227
116.0487	19
117.0565	98
118.066	16
127.0547	19
128.0509	52
129.0566	32
130.0652	214
141.0581	26
142.0648	46
143.0717	29
144.0803	26
