Mass spectrum: 5-Aminosalicylic acid; LC-ESI-QTOF; MS2; 90 V
Name: 5-Aminosalicylic acid
Class: Pharmaceutical
Formula: C7H7NO3
Exact mass: 153.0426
SMILES: C1=CC(=C(C=C1N)C(=O)O)O
InChI: InChI=1S/C7H7NO3/c8-4-1-2-6(9)5(3-4)7(10)11/h1-3,9H,8H2,(H,10,11)
Instrument: TripleTOF 6600 SCIEX
Instrument type: LC-ESI-QTOF
Ms type: MS2
Ion mode: POSITIVE
Collision energy: 90
Fragmentation mode: CID
Ionization: ESI
Column name: Zorbax Eclipse Plus C18 2.1 mm x 150 mm, 3.5 um, Agilent
Retention time: 2.181 min
Precursor m/z: 154.0499
Precursor type: [M+H]+
m/z	relative intensity
35.9994	155
37.0071	719
38.0028	117
38.0149	490
39.0228	757
40.018	43
41.0023	31
41.0259	37
44.0125	37
49.0071	62
50.0146	341
51.0092	31
51.0226	235
52.0042	31
52.018	155
52.0307	24
53.0019	359
53.0121	43
53.0382	366
54.0334	204
59.9992	86
61.0068	763
62.0147	999
63.0228	254
73.0063	124
74.0143	328
75.0221	43
80.0491	55
