Mass spectrum: Diazepam; LC-ESI-QTOF; MS2; 120 V
Name: Diazepam
Class: Pharmaceutical
Formula: C16H13ClN2O
Exact mass: 284.0716
SMILES: CN1C(=O)CN=C(C2=C1C=CC(=C2)Cl)C3=CC=CC=C3
InChI: InChI=1S/C16H13ClN2O/c1-19-14-8-7-12(17)9-13(14)16(18-10-15(19)20)11-5-3-2-4-6-11/h2-9H,10H2,1H3
Instrument: TripleTOF 6600 SCIEX
Instrument type: LC-ESI-QTOF
Ms type: MS2
Ion mode: POSITIVE
Collision energy: 120
Fragmentation mode: CID
Ionization: ESI
Column name: Zorbax Eclipse Plus C18 2.1 mm x 150 mm, 3.5 um, Agilent
Retention time: 11.181 min
Precursor m/z: 285.0789
Precursor type: [M+H]+
m/z	relative intensity
35.9991	11
37.0069	82
38.0144	60
39.0226	255
46.9677	14
48.9832	31
49.0071	19
50.0145	178
51.0226	362
59.9977	33
61.0063	173
61.9783	10
62.0143	299
63.0221	653
64.0176	15
64.03	38
65.038	193
72.9837	191
73.0062	108
74.0143	453
75.0222	393
76.0171	42
76.0296	82
77.0381	304
78.0339	16
78.045	26
84.9831	36
85.0065	28
86.0135	78
87.0219	98
88.0168	30
88.0296	44
89.0378	999
90.0459	89
91.053	119
96.9835	15
98.0139	121
99.0099	401
100.0174	380
101.0377	51
102.0327	42
102.0451	63
104.0479	19
108.9823	14
109.0064	10
110.0138	31
110.9993	44
111.0212	25
112.0143	10
113.0379	104
114.0323	53
115.0532	248
116.0477	50
117.0564	60
118.067	10
122.0126	31
123.0006	12
123.0226	38
124.0285	29
125.0375	124
126.0445	174
127.0484	79
128.0531	46
129.0488	15
137.0374	82
138.0448	43
139.0528	221
140.0496	57
149.0381	139
150.0454	623
151.0533	526
152.0597	244
153.0573	53
161.0376	63
162.046	123
163.0535	634
164.0596	243
165.0691	155
174.0452	27
175.0419	76
176.0515	123
177.0566	302
178.0646	176
179.068	39
188.0479	58
189.0565	31
190.0635	66
191.0747	22
201.0589	15
202.0597	16
203.0597	37
204.0643	28
205.0742	32
