Mass spectrum: Lomefloxacin; LC-ESI-QTOF; MS2; 70 V
Name: Lomefloxacin
Class: Pharmaceutical; Antimicrobial
Formula: C17H19F2N3O3
Exact mass: 351.1394
SMILES: CCn1cc(c(=O)c2c1c(c(c(c2)F)N3CCNC(C3)C)F)C(=O)O
InChI: InChI=1S/C17H19F2N3O3/c1-3-21-8-11(17(24)25)16(23)10-6-12(18)15(13(19)14(10)21)22-5-4-20-9(2)7-22/h6,8-9,20H,3-5,7H2,1-2H3,(H,24,25)
Instrument: TripleTOF 5600 SCIEX
Instrument type: LC-ESI-QTOF
Ms type: MS2
Ion mode: POSITIVE
Collision energy: 70
Fragmentation mode: CID
Ionization: ESI
Column name: Zorbax Eclipse Plus C18 2.1 mm x 150 mm, 3.5 um, Agilent
Retention time: 5.44 min
Precursor m/z: 352.1467
Precursor type: [M+H]+
m/z	relative intensity
107.0284	173
125.0182	130
126.0313	195
127.0432	108
133.0307	108
134.0396	238
138.0273	130
139.0216	217
140.0322	173
146.0369	195
147.0475	434
148.0534	173
152.0296	304
153.0373	304
154.0426	108
160.044	152
161.0503	173
162.0314	152
162.0679	108
165.0395	217
166.0311	456
166.0441	846
167.0388	195
169.0287	217
169.0712	130
172.0522	195
173.049	542
174.0361	86
174.0565	651
175.0396	108
175.065	130
176.0486	304
178.0312	282
179.0394	347
180.024	173
180.0597	86
181.0333	369
181.0552	130
181.0727	173
182.0404	108
185.0538	86
186.0608	152
187.0634	304
188.0678	217
192.0476	108
193.0245	173
193.0577	390
194.0428	195
194.0651	933
195.0478	999
196.0452	217
202.0532	477
203.0593	477
205.0177	260
205.0576	217
206.0251	108
207.0776	86
208.0438	152
208.0801	217
209.0515	217
215.0624	369
217.0771	108
219.0371	152
221.0504	217
223.0738	86
229.0715	108
233.018	130
235.0333	152
235.069	152
237.0843	412
244.05	108
249.0458	499
