Mass spectrum: L-Thyronine; LC-ESI-QTOF; MS2; 100 V
Name: L-Thyronine
Class: Pharmaceutical
Formula: C15H15NO4
Exact mass: 273.1001
SMILES: N[C@@H](Cc1ccc(Oc2ccc(O)cc2)cc1)C(O)=O
InChI: InChI=1S/C15H15NO4/c16-14(15(18)19)9-10-1-5-12(6-2-10)20-13-7-3-11(17)4-8-13/h1-8,14,17H,9,16H2,(H,18,19)/t14-/m0/s1
Instrument: TripleTOF 5600 SCIEX
Instrument type: LC-ESI-QTOF
Ms type: MS2
Ion mode: POSITIVE
Collision energy: 100
Fragmentation mode: CID
Ionization: ESI
Column name: Zorbax Eclipse Plus C18 2.1 mm x 150 mm, 3.5 um, Agilent
Retention time: 5.619 min
Precursor m/z: 274.1074
Precursor type: [M+H]+
m/z	relative intensity
39.0232	149
51.0237	140
53.0383	102
63.0216	37
65.0382	429
66.0467	102
76.0315	65
77.0383	401
81.0332	280
89.0388	130
91.0543	999
94.042	74
102.0459	93
104.0485	130
115.0533	168
117.0573	270
118.0642	354
126.0477	37
128.063	65
139.0519	56
152.0603	84
163.0573	56
164.0609	56
