Mass spectrum: Estrone 3-methyl ether; LC-ESI-QTOF; MS2; 30 V
Name: Estrone 3-methyl ether
Class: Pharmaceutical
Formula: C19H24O2
Exact mass: 284.1776
SMILES: C[C@]12CC[C@@H]3c4ccc(cc4CC[C@H]3[C@@H]1CCC2=O)OC
InChI: InChI=1S/C19H24O2/c1-19-10-9-15-14-6-4-13(21-2)11-12(14)3-5-16(15)17(19)7-8-18(19)20/h4,6,11,15-17H,3,5,7-10H2,1-2H3/t15-,16-,17+,19+/m1/s1
Instrument: TripleTOF 5600 SCIEX
Instrument type: LC-ESI-QTOF
Ms type: MS2
Ion mode: POSITIVE
Collision energy: 30
Fragmentation mode: CID
Ionization: ESI
Column name: Zorbax Eclipse Plus C18 2.1 mm x 150 mm, 3.5 um, Agilent
Retention time: 10.549 min
Precursor m/z: 285.1849
Precursor type: [M+H]+
m/z	relative intensity
67.0586	14
79.0567	22
81.0731	56
91.0556	45
93.0702	27
95.0869	58
105.0697	12
107.0844	48
109.0996	14
115.0539	10
117.0686	29
121.0644	79
121.0772	12
128.0605	12
132.0561	16
135.0794	41
144.0564	12
145.0638	18
145.0998	14
146.0713	12
147.0802	999
147.1239	12
158.0716	60
158.0886	18
159.0807	117
159.1183	10
161.0948	35
165.0706	22
167.0825	10
170.0735	16
171.0801	712
171.1413	14
173.0961	555
179.0845	41
184.0892	16
185.0951	127
186.104	10
187.1121	43
189.093	14
193.0992	16
196.0867	25
197.0956	152
198.1053	29
199.111	131
209.0966	14
210.1041	33
211.11	307
212.1175	64
213.1276	22
215.1415	41
223.1091	12
224.1191	10
225.125	108
226.1381	18
227.1419	140
239.1402	33
241.1573	478
252.1492	33
267.1736	478
285.1858	54
