Mass spectrum: Oxytetracycline; LC-ESI-QTOF; MS2; 110 V
Name: Oxytetracycline
Class: Pharmaceutical
Formula: C22H24N2O9
Exact mass: 460.1482
SMILES: CC1(C2C(C3C(C(=O)C(=C(C3(C(=O)C2=C(C4=C1C=CC=C4O)O)O)O)C(=O)N)N(C)C)O)O
InChI: InChI=1S/C22H24N2O9/c1-21(32)7-5-4-6-8(25)9(7)15(26)10-12(21)17(28)13-14(24(2)3)16(27)11(20(23)31)19(30)22(13,33)18(10)29/h4-6,12-14,17,25-26,28,30,32-33H,1-3H3,(H2,23,31)
Instrument: TripleTOF 5600 SCIEX
Instrument type: LC-ESI-QTOF
Ms type: MS2
Ion mode: NEGATIVE
Collision energy: 110
Fragmentation mode: CID
Ionization: ESI
Column name: Zorbax Eclipse Plus C18 2.1 mm x 150 mm, 3.5 um, Agilent
Retention time: 5.586 min
Precursor m/z: 459.1409
Precursor type: [M-H]-
m/z	relative intensity
41.0068	210
51.0271	52
65.0409	105
65.9997	210
68.9991	262
79.0198	262
81.0399	52
83.0145	105
84.0092	105
89.0388	52
91.0187	210
92.0262	999
93.0348	368
93.042	210
95.0096	105
96.0079	105
107.0459	105
108.0225	157
109.0288	262
117.0363	315
120.0107	105
120.0218	52
123.0036	52
123.0113	105
130.0452	210
131.0504	105
133.0202	157
134.0251	210
135.0443	683
137.0496	105
138.0479	52
139.0181	262
141.0345	157
143.049	473
144.0579	210
145.0301	262
145.0637	52
149.0079	52
150.019	105
153.0345	52
157.0654	52
158.0389	525
159.0428	315
162.0161	52
162.0241	105
163.0555	105
167.0481	157
168.0577	105
169.0638	157
171.0451	999
172.0512	368
173.0265	315
173.0594	630
174.0334	210
175.0388	105
180.0588	210
182.0414	157
183.0517	262
185.0569	105
186.0293	52
187.0389	315
191.0464	105
195.0436	210
196.0474	105
196.0595	52
197.0552	105
199.0416	105
207.0365	52
209.0623	368
211.0326	52
211.0475	210
221.0667	52
223.0391	157
224.0511	262
225.0588	315
227.0295	105
235.0391	315
237.0637	52
239.0318	52
253.0497	157
255.0322	210
273.0575	52
287.0428	105
