Mass spectrum: Metobromuron; LC-ESI-QTOF; MS2; 40 V
Name: Metobromuron
Class: Herbicide
Formula: C9H11BrN2O2
Exact mass: 258.0004
SMILES: CN(C(=O)NC1=CC=C(C=C1)Br)OC
InChI: InChI=1S/C9H11BrN2O2/c1-12(14-2)9(13)11-8-5-3-7(10)4-6-8/h3-6H,1-2H3,(H,11,13)
Instrument: TripleTOF 6600 SCIEX
Instrument type: LC-ESI-QTOF
Ms type: MS2
Ion mode: POSITIVE
Collision energy: 40
Fragmentation mode: CID
Ionization: ESI
Column name: Zorbax Eclipse Plus C18 2.1 mm x 150 mm, 3.5 um, Agilent
Retention time: 10.623 min
Precursor m/z: 259.0077
Precursor type: [M+H]+
m/z	relative intensity
60.0416	21
62.0573	19
63.02	27
64.0275	32
65.0355	66
90.031	34
91.0387	999
92.0462	144
93.0535	21
116.9287	23
119.0572	449
129.0408	17
131.0575	21
142.9451	307
147.0512	146
148.0595	245
154.9435	10
169.9565	867
170.9642	620
183.9709	19
226.9776	81
