Mass spectrum: Naproxen; LC-ESI-QTOF; MS2; 30 V
Name: Naproxen
Class: Pharmaceutical
Formula: C14H14O3
Exact mass: 230.0943
SMILES: COc1ccc2cc(ccc2c1)C(C)C(O)=O
InChI: InChI=1S/C14H14O3/c1-9(14(15)16)10-3-4-12-8-13(17-2)6-5-11(12)7-10/h3-9H,1-2H3,(H,15,16)
Instrument: TripleTOF 5600 SCIEX
Instrument type: LC-ESI-QTOF
Ms type: MS2
Ion mode: POSITIVE
Collision energy: 30
Fragmentation mode: CID
Ionization: ESI
Column name: Zorbax Eclipse Plus C18 2.1 mm x 150 mm, 3.5 um, Agilent
Retention time: 10.907 min
Precursor m/z: 231.1016
Precursor type: [M+H]+
m/z	relative intensity
115.0533	18
129.0704	15
141.0007	14
141.0702	17
142.0768	21
152.0614	23
153.0695	135
154.0776	126
155.0847	91
156.057	12
157.0647	16
158.0726	70
169.0641	29
170.0723	435
184.0886	10
185.096	999
