Mass spectrum: Mitomycin A; LC-ESI-QTOF; MS2; 130 V
Name: Mitomycin A
Class: Pharmaceutical
Formula: C16H19N3O6
Exact mass: 349.1274
SMILES: COC1=C(C)C(=O)C2=C([C@H](COC(N)=O)[C@]3(OC)[C@@H]4N[C@@H]4CN23)C1=O
InChI: InChI=1S/C16H19N3O6/c1-6-11(20)10-9(12(21)13(6)23-2)7(5-25-15(17)22)16(24-3)14-8(18-14)4-19(10)16/h7-8,14,18H,4-5H2,1-3H3,(H2,17,22)/t7-,8+,14+,16-/m0/s1
Instrument: TripleTOF 5600 SCIEX
Instrument type: LC-ESI-QTOF
Ms type: MS2
Ion mode: POSITIVE
Collision energy: 130
Fragmentation mode: CID
Ionization: ESI
Column name: Zorbax Eclipse Plus C18 2.1 mm x 150 mm, 3.5 um, Agilent
Retention time: 7.046 min
Precursor m/z: 350.1347
Precursor type: [M+H]+
m/z	relative intensity
51.0279	276
65.0427	244
67.0453	53
74.0179	116
75.0265	212
76.0205	42
76.0336	138
77.0413	999
77.0755	53
78.0365	318
79.0442	74
80.0517	53
87.0271	63
88.0343	127
89.0401	743
89.0676	42
90.0467	127
91.0544	212
92.0502	63
93.0611	53
101.0382	191
102.0327	95
102.0456	127
103.0552	138
104.051	350
105.0482	85
113.0376	127
114.0342	63
114.0462	138
115.0393	63
115.0543	425
116.0495	148
117.0567	223
118.0644	74
126.0462	74
127.0529	53
128.0492	265
129.0542	138
130.0638	170
131.0611	159
140.0502	148
141.0579	191
142.0589	191
153.0524	42
154.0622	85
155.0602	446
156.0684	116
157.0772	53
168.0667	138
169.0748	116
