Mass spectrum: 2-Hydroxyestrone; LC-ESI-QTOF; MS2; 30 V
Name: 2-Hydroxyestrone
Class: Pharmaceutical; Metabolite
Formula: C18H22O3
Exact mass: 286.1569
SMILES: C[C@]12CC[C@H]3[C@@H](CCc4cc(O)c(O)cc34)[C@@H]1CCC2=O
InChI: InChI=1S/C18H22O3/c1-18-7-6-11-12(14(18)4-5-17(18)21)3-2-10-8-15(19)16(20)9-13(10)11/h8-9,11-12,14,19-20H,2-7H2,1H3/t11-,12+,14-,18-/m0/s1
Instrument: TripleTOF 5600 SCIEX
Instrument type: LC-ESI-QTOF
Ms type: MS2
Ion mode: POSITIVE
Collision energy: 30
Fragmentation mode: CID
Ionization: ESI
Column name: Zorbax Eclipse Plus C18 2.1 mm x 150 mm, 3.5 um, Agilent
Retention time: 9.978 min
Precursor m/z: 287.1642
Precursor type: [M+H]+
m/z	relative intensity
81.0724	75
93.0702	37
103.0526	30
107.0845	60
113.0579	37
123.0424	158
129.0697	68
131.0479	90
149.059	749
157.0628	60
161.0591	121
166.0829	37
167.0836	45
173.0582	507
175.0755	999
183.0802	37
183.1146	30
187.0711	52
189.0914	45
195.0787	83
199.0738	158
201.0929	45
209.0918	37
211.113	105
213.0909	476
214.0981	83
217.1218	113
227.1071	151
228.1165	30
229.1208	158
251.1422	52
269.1523	673
287.1669	52
