Mass spectrum: Thieno[3,2-b]pyridin-7-ol; LC-ESI-QTOF; MS2; 100 V
Name: Thieno[3,2-b]pyridin-7-ol
Formula: C7H5NOS
Exact mass: 151.0092
SMILES: C1=CNC2=C(C1=O)SC=C2
InChI: InChI=1S/C7H5NOS/c9-6-1-3-8-5-2-4-10-7(5)6/h1-4H,(H,8,9)
Instrument: TripleTOF 6600 SCIEX
Instrument type: LC-ESI-QTOF
Ms type: MS2
Ion mode: POSITIVE
Collision energy: 100
Fragmentation mode: CID
Ionization: ESI
Column name: Zorbax Eclipse Plus C18 2.1 mm x 150 mm, 3.5 um, Agilent
Retention time: 4.72 min
Precursor m/z: 152.0165
Precursor type: [M+H]+
m/z	relative intensity
31.9716	36
35.9994	145
37.0079	841
38.0054	76
38.0156	578
39.0234	719
40.0184	125
41.0258	40
43.9715	97
44.9797	999
45.9739	32
49.0069	105
50.0155	230
51.0105	16
51.0234	72
52.0185	84
53.0026	214
53.0393	36
56.9792	149
57.986	68
59.9985	28
61.0074	234
62.015	246
63.0226	133
67.9717	72
68.0133	16
68.9794	408
70.9973	16
75.0098	125
76.0173	48
80.9786	48
81.9859	20
