Mass spectrum: O-desmethyl-naproxen; LC-ESI-QTOF; MS2; 40 V
Name: O-desmethyl-naproxen
Class: Metabolite; Pharmaceutical; Transformation_product
Formula: C13H12O3
Exact mass: 216.0786
SMILES: CC(C1=CC2=C(C=C1)C=C(C=C2)O)C(=O)O
InChI: InChI=1S/C13H12O3/c1-8(13(15)16)9-2-3-11-7-12(14)5-4-10(11)6-9/h2-8,14H,1H3,(H,15,16)
Instrument: TripleTOF 5600 SCIEX
Instrument type: LC-ESI-QTOF
Ms type: MS2
Ion mode: POSITIVE
Collision energy: 40
Fragmentation mode: CID
Ionization: ESI
Column name: Zorbax Eclipse Plus C18 2.1 mm x 150 mm, 3.5 um, Agilent
Retention time: 8.5 min
Precursor m/z: 217.0859
Precursor type: [M+H]+
m/z	relative intensity
115.0529	205
116.0614	36
127.055	323
128.0612	999
129.0715	73
141.0715	66
143.0469	36
143.0871	308
144.0558	257
151.0528	80
152.0618	734
153.0679	705
154.0768	44
155.0563	36
169.0631	36
170.0683	73
171.0798	594
181.075	58
181.0895	29
