Mass spectrum: Cortisone; LC-ESI-QTOF; MS2; 60 V
Name: Cortisone
Class: Pharmaceutical
Formula: C21H28O5
Exact mass: 360.1937
SMILES: C[C@]12CCC(=O)C=C1CC[C@H]3[C@@H]4CC[C@](O)(C(=O)CO)[C@@]4(C)CC(=O)[C@H]23
InChI: InChI=1S/C21H28O5/c1-19-7-5-13(23)9-12(19)3-4-14-15-6-8-21(26,17(25)11-22)20(15,2)10-16(24)18(14)19/h9,14-15,18,22,26H,3-8,10-11H2,1-2H3/t14-,15-,18+,19-,20-,21-/m0/s1
Instrument: TripleTOF 5600 SCIEX
Instrument type: LC-ESI-QTOF
Ms type: MS2
Ion mode: POSITIVE
Collision energy: 60
Fragmentation mode: CID
Ionization: ESI
Column name: Zorbax Eclipse Plus C18 2.1 mm x 150 mm, 3.5 um, Agilent
Retention time: 8.396 min
Precursor m/z: 361.201
Precursor type: [M+H]+
m/z	relative intensity
43.0293	44
55.0245	44
55.0604	34
65.0427	24
67.0608	104
69.0766	34
71.0579	19
77.0438	452
78.054	29
79.0587	477
81.038	29
81.0745	183
83.0535	248
89.0432	19
91.0582	869
93.0738	611
95.05	24
95.0889	99
97.0681	333
103.0562	109
105.073	999
107.0523	124
107.0699	29
107.088	392
109.0697	59
115.0567	233
116.0644	64
116.0964	24
117.0734	372
117.0973	24
119.0524	24
119.0879	442
120.0649	24
121.0676	760
121.1036	114
123.0828	104
127.0564	69
128.0652	238
129.0728	298
130.0797	188
131.0516	19
131.0876	268
132.0597	34
133.0674	134
133.1044	114
135.0845	89
135.1198	49
141.0738	213
142.0805	173
143.0886	313
144.061	39
144.096	44
145.0683	84
145.104	362
145.131	19
146.0755	54
147.0832	223
147.1195	34
148.0911	477
149.0995	49
152.0639	24
153.0722	99
154.0809	39
155.0891	223
156.0962	59
157.0661	24
157.1036	134
158.075	59
159.0831	104
159.1205	84
161.0991	99
162.1109	24
163.1155	626
165.0722	149
166.0826	59
167.0897	188
168.0958	69
169.1036	213
170.111	59
171.0825	29
171.1202	104
173.1033	64
173.1379	24
174.1054	104
175.112	44
178.0843	64
179.0888	104
180.0994	84
181.1048	168
182.1121	54
183.0824	54
183.1201	134
184.0923	24
184.127	19
185.0992	64
185.1351	69
187.1166	24
189.1309	24
190.0806	29
191.0898	69
192.0976	49
193.1061	69
194.1122	44
195.0832	44
195.1199	109
196.0975	19
196.1287	29
196.1677	19
197.1021	24
197.1363	64
198.1087	19
199.1171	49
199.1538	29
201.1323	24
203.0897	49
204.0977	44
205.1038	54
206.1137	74
207.085	34
207.12	79
208.0908	24
208.1276	24
209.0998	59
209.1378	79
210.107	49
211.117	49
211.1518	29
212.1212	19
213.1296	24
215.1449	34
217.1062	44
219.12	24
223.1187	34
223.1575	24
224.1275	34
225.1303	109
226.1394	79
227.1486	79
237.1314	24
239.1517	24
240.1579	29
241.1639	99
242.1326	29
243.141	283
253.1618	19
255.1781	44
258.1672	144
269.1604	94
