Mass spectrum: Mandipropamid; LC-ESI-QTOF; MS2; 30 V
Name: Mandipropamid
Class: Fungicide
Formula: C23H22ClNO4
Exact mass: 411.1237
SMILES: COC1=C(C=CC(=C1)CCNC(=O)C(C2=CC=C(C=C2)Cl)OCC#C)OCC#C
InChI: InChI=1S/C23H22ClNO4/c1-4-14-28-20-11-6-17(16-21(20)27-3)12-13-25-23(26)22(29-15-5-2)18-7-9-19(24)10-8-18/h1-2,6-11,16,22H,12-15H2,3H3,(H,25,26)
Instrument: TripleTOF 6600 SCIEX
Instrument type: LC-ESI-QTOF
Ms type: MS2
Ion mode: POSITIVE
Collision energy: 30
Fragmentation mode: CID
Ionization: ESI
Column name: Zorbax Eclipse Plus C18 2.1 mm x 150 mm, 3.5 um, Agilent
Retention time: 12.239 min
Precursor m/z: 412.131
Precursor type: [M+H]+
m/z	relative intensity
125.0147	326
129.0694	11
140.0258	20
150.0657	11
152.0249	11
161.0951	17
164.0699	45
165.0772	22
172.0752	10
177.0774	19
187.0754	10
188.1059	15
189.09	67
203.0929	52
204.1012	239
216.1004	72
232.0895	12
243.0561	15
260.0587	19
264.1082	12
267.0571	11
271.0524	39
271.0835	22
272.0585	39
279.0563	19
280.0646	15
281.067	11
283.0899	47
288.0771	16
289.0857	84
299.0799	72
311.0827	99
328.1094	999
356.104	29
