Mass spectrum: 10,11-Dihydro-10,11-epoxycarbamazepine; LC-ESI-QTOF; MS2; 110 V
Name: 10,11-Dihydro-10,11-epoxycarbamazepine
Class: Metabolite
Formula: C15H12N2O2
Exact mass: 252.0899
SMILES: C1=CC=C2C(=C1)C3C(O3)C4=CC=CC=C4N2C(=O)N
InChI: InChI=1S/C15H12N2O2/c16-15(18)17-11-7-3-1-5-9(11)13-14(19-13)10-6-2-4-8-12(10)17/h1-8,13-14H,(H2,16,18)
Instrument: TripleTOF 5600 SCIEX
Instrument type: LC-ESI-QTOF
Ms type: MS2
Ion mode: POSITIVE
Collision energy: 110
Fragmentation mode: CID
Ionization: ESI
Column name: Zorbax Eclipse Plus C18 2.1 mm x 150 mm, 3.5 um, Agilent
Retention time: 7.593 min
Precursor m/z: 253.0972
Precursor type: [M+H]+
m/z	relative intensity
39.0229	14
44.013	14
49.0071	10
50.0151	66
51.0227	177
61.0068	21
62.015	52
63.0225	127
65.0387	34
73.0083	15
74.0148	172
75.023	339
76.0189	15
76.03	82
77.0384	438
78.0329	21
78.0461	46
85.0075	12
86.0149	42
87.0228	77
88.0184	15
88.0299	32
89.0383	192
90.0447	28
91.055	12
98.0153	82
99.0227	93
100.0308	43
101.0386	234
102.0459	189
103.0408	14
110.0155	15
111.0228	18
113.0383	177
114.034	26
114.0456	29
115.0548	98
116.0484	20
117.0575	10
123.0209	17
124.0308	15
125.0383	124
126.0461	392
127.0535	182
128.0499	178
129.0519	40
137.0389	56
138.0442	37
139.0538	270
140.0485	211
141.0576	15
149.0384	66
150.0465	672
151.054	999
152.0616	904
153.0566	163
154.0612	24
161.0361	14
162.0484	35
163.0537	144
164.05	87
165.0616	24
166.0641	46
167.0705	12
175.0409	23
176.0485	62
177.0566	325
178.0646	680
179.0731	216
180.08	98
188.0492	26
189.0569	17
190.0647	56
191.074	21
