Mass spectrum: Sertaconazole; LC-ESI-QTOF; MS2; 150 V
Name: Sertaconazole
Class: Fungicide; Pharmaceutical; Antimicrobial
Formula: C20H15Cl3N2OS
Exact mass: 435.9971
SMILES: C1=CC2=C(C(=C1)Cl)SC=C2COC(CN3C=CN=C3)C4=C(C=C(C=C4)Cl)Cl
InChI: InChI=1S/C20H15Cl3N2OS/c21-14-4-5-16(18(23)8-14)19(9-25-7-6-24-12-25)26-10-13-11-27-20-15(13)2-1-3-17(20)22/h1-8,11-12,19H,9-10H2
Instrument: TripleTOF 5600 SCIEX
Instrument type: LC-ESI-QTOF
Ms type: MS2
Ion mode: POSITIVE
Collision energy: 150
Fragmentation mode: CID
Ionization: ESI
Column name: Zorbax Eclipse Plus C18 2.1 mm x 150 mm, 3.5 um, Agilent
Retention time: 10.403 min
Precursor m/z: 437.0043
Precursor type: [M+H]+
m/z	relative intensity
51.0285	26
67.9764	19
68.9829	271
69.048	30
73.0108	21
74.0184	154
75.0256	433
75.0557	12
76.0336	171
77.0406	23
78.9422	42
81.0468	85
87.0238	30
88.031	42
89.0392	35
92.9809	102
94.9972	21
98.0168	19
98.9997	12
99.0228	21
101.0389	249
102.0471	999
110.9989	60
113.039	51
114.0461	131
118.9948	42
120.0027	61
123.0002	14
129.0453	26
136.0078	14
137.0167	10
145.0108	566
146.0178	70
149.0156	100
154.9717	38
180.9893	15
189.0726	15
200.0594	14
232.0349	15
