Mass spectrum: O-desmethyl-metoprolol; LC-ESI-QTOF; MS2; 40 V
Name: O-desmethyl-metoprolol
Class: Pharmaceutical; Metabolite; Transformation_product; Transformation_product-Metabolite
Formula: C14H23NO3
Exact mass: 253.1678
SMILES: CC(C)NCC(O)COc1ccc(CCO)cc1
InChI: InChI=1S/C14H23NO3/c1-11(2)15-9-13(17)10-18-14-5-3-12(4-6-14)7-8-16/h3-6,11,13,15-17H,7-10H2,1-2H3
Instrument: TripleTOF 5600 SCIEX
Instrument type: LC-ESI-QTOF
Ms type: MS2
Ion mode: POSITIVE
Collision energy: 40
Fragmentation mode: CID
Ionization: ESI
Column name: Zorbax Eclipse Plus C18 2.1 mm x 150 mm, 3.5 um, Agilent
Retention time: 5.112 min
Precursor m/z: 254.1751
Precursor type: [M+H]+
m/z	relative intensity
43.0286	13
44.0613	11
55.024	31
56.0559	717
58.0708	122
65.042	35
72.0843	559
74.0633	550
77.0412	723
79.0558	230
81.0751	13
84.0827	51
91.0553	879
93.0701	126
95.0855	19
98.0968	421
100.1122	59
102.0461	28
103.0539	541
105.0489	13
105.0699	517
107.0474	39
115.0534	237
116.0608	144
116.1069	488
117.0694	77
119.0508	15
119.0833	37
120.0602	11
121.064	568
127.0543	13
128.062	39
129.0698	130
131.0492	62
131.0845	288
133.0644	945
135.0791	44
141.0695	146
144.0569	248
147.0793	55
148.075	215
149.0709	250
151.0754	348
158.0741	11
158.0979	17
159.0801	639
165.0912	68
169.0764	19
176.1062	84
177.0909	790
212.1288	253
218.1496	15
218.1606	11
236.1635	53
254.1754	999
