Mass spectrum: Trazodone; LC-ESI-QTOF; MS2; 130 V
Name: Trazodone
Class: Pharmaceutical
Formula: C19H22ClN5O
Exact mass: 371.1513
SMILES: C1CN(CCN1CCCN2C(=O)N3C=CC=CC3=N2)C4=CC(=CC=C4)Cl
InChI: InChI=1S/C19H22ClN5O/c20-16-5-3-6-17(15-16)23-13-11-22(12-14-23)8-4-10-25-19(26)24-9-2-1-7-18(24)21-25/h1-3,5-7,9,15H,4,8,10-14H2
Instrument: TripleTOF 6600 SCIEX
Instrument type: LC-ESI-QTOF
Ms type: MS2
Ion mode: POSITIVE
Collision energy: 130
Fragmentation mode: CID
Ionization: ESI
Column name: Zorbax Eclipse Plus C18 2.1 mm x 150 mm, 3.5 um, Agilent
Retention time: 7.095 min
Precursor m/z: 372.1586
Precursor type: [M+H]+
m/z	relative intensity
37.0061	43
38.0136	86
39.0218	146
41.0246	42
41.0372	10
42.0329	26
49.0058	16
50.0136	157
51.0218	577
52.0173	51
52.0289	33
64.0164	58
65.0246	152
66.0198	29
66.0321	60
67.0402	33
74.0132	80
75.0213	160
77.0368	57
78.0322	999
79.0396	95
80.0468	23
84.9816	16
89.037	36
90.0437	13
91.052	69
92.035	158
93.043	34
104.0472	11
110.9975	120
117.0551	26
118.0625	44
119.0576	66
120.0305	21
130.0632	21
131.0577	21
138.0085	14
139.0039	23
