Mass spectrum: Clothianidin; LC-ESI-QTOF; MS2; 80 V
Name: Clothianidin
Class: Insecticide
Formula: C6H8ClN5O2S
Exact mass: 249.0087
SMILES: CN=C(NCc1sc(Cl)nc1)N[N+]([O-])=O
InChI: InChI=1S/C6H8ClN5O2S/c1-8-6(11-12(13)14)10-3-4-2-9-5(7)15-4/h2H,3H2,1H3,(H2,8,10,11)
Instrument: TripleTOF 5600 SCIEX
Instrument type: LC-ESI-QTOF
Ms type: MS2
Ion mode: POSITIVE
Collision energy: 80
Fragmentation mode: CID
Ionization: ESI
Column name: Zorbax Eclipse Plus C18 2.1 mm x 150 mm, 3.5 um, Agilent
Retention time: 6.736 min
Precursor m/z: 250.016
Precursor type: [M+H]+
m/z	relative intensity
54.0378	587
57.0492	411
59.002	293
69.0469	352
70.9975	646
78.9418	470
83.9912	352
86.0066	763
96.0562	999
98.006	352
110.069	705
113.0147	587
