Mass spectrum: Basic yellow 28; LC-ESI-QTOF; MS2; 70 V
Name: Basic yellow 28
Class: Pigment
Formula: [C20H24N3O]+
Exact mass: 322.1914
SMILES: CC1(C2=CC=CC=C2[N+](=C1C=NN(C)C3=CC=C(C=C3)OC)C)C
InChI: InChI=1S/C20H24N3O/c1-20(2)17-8-6-7-9-18(17)22(3)19(20)14-21-23(4)15-10-12-16(24-5)13-11-15/h6-14H,1-5H3/q+1
Instrument: TripleTOF 6600 SCIEX
Instrument type: LC-ESI-QTOF
Ms type: MS2
Ion mode: POSITIVE
Collision energy: 70
Fragmentation mode: CID
Ionization: ESI
Column name: Zorbax Eclipse Plus C18 2.1 mm x 150 mm, 3.5 um, Agilent
Retention time: 9.082 min
Precursor m/z: 322.1914
Precursor type: [M]+
m/z	relative intensity
65.0387	74
66.0466	212
67.0419	168
77.0385	209
78.0458	171
91.0531	51
92.0245	69
92.0475	64
93.0559	284
94.0404	60
108.056	242
115.0535	58
120.0438	76
121.0515	206
128.0492	70
130.0646	148
136.0752	94
143.0724	105
144.0808	999
145.0885	415
156.0679	51
158.0963	191
169.0759	69
