Mass spectrum: Abacavir carboxylic acid; LC-ESI-QTOF; MS2; 130 V
Name: Abacavir carboxylic acid
Class: Pharmaceutical; Metabolite; Transformation_product
Formula: C14H16N6O2
Exact mass: 300.1335
SMILES: C1CC1NC2=NC(=NC3=C2N=CN3C4CC(C=C4)C(=O)O)N
InChI: InChI=1S/C14H16N6O2/c15-14-18-11(17-8-2-3-8)10-12(19-14)20(6-16-10)9-4-1-7(5-9)13(21)22/h1,4,6-9H,2-3,5H2,(H,21,22)(H3,15,17,18,19)
Instrument: TripleTOF 5600 SCIEX
Instrument type: LC-ESI-QTOF
Ms type: MS2
Ion mode: POSITIVE
Collision energy: 130
Fragmentation mode: CID
Ionization: ESI
Column name: Zorbax Eclipse Plus C18 2.1 mm x 150 mm, 3.5 um, Agilent
Retention time: 5.194 min
Precursor m/z: 301.1408
Precursor type: [M+H]+
m/z	relative intensity
42.0422	122
43.0579	87
45.0046	105
51.0277	192
53.0199	630
53.0327	70
53.0406	105
54.0261	385
55.0341	508
56.0537	87
65.0163	438
65.0422	999
66.0243	315
66.0368	87
66.0521	105
67.0322	245
67.0581	455
68.0277	508
68.055	105
76.0187	105
79.0336	105
80.0273	192
81.0402	175
83.0521	70
92.0247	175
93.0348	87
94.0409	70
106.0389	87
108.0423	105
