Mass spectrum: 3,5-Diiodothyronine; LC-ESI-QTOF; MS2; 100 V
Name: 3,5-Diiodothyronine
Class: Pharmaceutical
Formula: C15H13I2NO4
Exact mass: 524.8934
SMILES: NC(Cc1cc(I)c(Oc2ccc(O)cc2)c(I)c1)C(O)=O
InChI: InChI=1S/C15H13I2NO4/c16-11-5-8(7-13(18)15(20)21)6-12(17)14(11)22-10-3-1-9(19)2-4-10/h1-6,13,19H,7,18H2,(H,20,21)
Instrument: TripleTOF 5600 SCIEX
Instrument type: LC-ESI-QTOF
Ms type: MS2
Ion mode: POSITIVE
Collision energy: 100
Fragmentation mode: CID
Ionization: ESI
Column name: Zorbax Eclipse Plus C18 2.1 mm x 150 mm, 3.5 um, Agilent
Retention time: 7.539 min
Precursor m/z: 525.9007
Precursor type: [M+H]+
m/z	relative intensity
51.0282	17
65.0428	174
76.0319	27
77.0417	174
77.0594	12
78.0377	14
78.0494	71
79.0454	46
81.0358	113
87.0236	9
89.0401	167
90.0145	9
90.0476	169
91.0183	22
91.0557	51
92.0264	19
93.0347	49
94.0427	68
102.0469	98
103.055	44
104.0498	319
105.0338	36
105.0578	137
106.0413	49
107.0487	29
109.028	66
110.0377	14
114.0475	12
115.0551	337
116.0498	27
116.061	34
117.0353	9
117.0577	221
118.0048	9
118.0435	17
118.066	29
119.0138	14
126.0464	27
127.054	297
128.0627	999
128.0964	12
129.0326	9
129.0701	51
130.0393	9
131.049	71
132.045	14
133.0264	9
138.0438	12
139.054	250
140.0606	19
141.0702	553
142.0781	95
143.051	12
143.078	19
144.056	14
150.0484	17
151.0543	179
152.0626	932
153.07	282
154.065	31
154.0763	14
155.049	164
155.0786	9
156.0567	88
156.0738	12
157.0652	88
163.0532	39
163.0658	9
164.0608	44
165.0706	137
167.0726	36
168.0579	130
168.0801	78
169.0653	206
170.0731	135
171.0806	22
178.0651	19
179.0495	31
180.0572	19
180.0816	59
181.0651	460
182.0729	29
183.0436	34
183.0662	14
184.052	492
192.0575	14
193.0518	14
194.0775	14
195.0402	17
195.0581	17
196.0498	19
196.0763	147
197.06	900
198.0685	71
199.0775	22
202.9363	17
203.9419	12
206.0592	22
207.067	24
208.0518	29
208.0739	19
209.058	36
210.0683	41
211.0389	31
216.9134	12
216.9517	34
217.9242	39
219.9393	39
223.0657	39
224.0703	142
225.0791	36
232.9455	51
242.9604	27
244.9071	71
259.9307	12
259.957	71
324.9726	24
338.9443	17
