Mass spectrum: 5`-Deoxy-5`-(methylthio)adenosine; LC-ESI-QTOF; MS2; 20 V
Name: 5`-Deoxy-5`-(methylthio)adenosine
Class: Metabolite
Formula: C11H15N5O3S
Exact mass: 297.0896
SMILES: NC1=NC=NC2=C1N=CN2C3C(O)C(O)C(CSC)O3
InChI: InChI=1S/C11H15N5O3S/c1-20-2-5-7(17)8(18)11(19-5)16-4-15-6-9(12)13-3-14-10(6)16/h3-5,7-8,11,17-18H,2H2,1H3,(H2,12,13,14)
Instrument: TripleTOF 5600 SCIEX
Instrument type: LC-ESI-QTOF
Ms type: MS2
Ion mode: POSITIVE
Collision energy: 20
Fragmentation mode: CID
Ionization: ESI
Column name: Zorbax Eclipse Plus C18 2.1 mm x 150 mm, 3.5 um, Agilent
Retention time: 4.785 min
Precursor m/z: 298.0969
Precursor type: [M+H]+
m/z	relative intensity
61.0108	53
75.0265	16
97.0287	61
103.0211	20
119.0356	14
136.062	664
137.0003	83
137.1015	18
145.0317	239
163.0425	271
238.0742	11
298.0964	999
