Mass spectrum: Prednisolone; LC-ESI-QTOF; MS2; 10 V
Name: Prednisolone
Class: Pharmaceutical
Formula: C21H28O5
Exact mass: 360.1937
SMILES: C[C@]12C[C@H](O)[C@H]3[C@@H](CCC4=CC(=O)C=C[C@]34C)[C@@H]1CC[C@]2(O)C(=O)CO
InChI: InChI=1S/C21H28O5/c1-19-7-5-13(23)9-12(19)3-4-14-15-6-8-21(26,17(25)11-22)20(15,2)10-16(24)18(14)19/h5,7,9,14-16,18,22,24,26H,3-4,6,8,10-11H2,1-2H3/t14-,15-,16-,18+,19-,20-,21-/m0/s1
Instrument: TripleTOF 5600 SCIEX
Instrument type: LC-ESI-QTOF
Ms type: MS2
Ion mode: POSITIVE
Collision energy: 10
Fragmentation mode: CID
Ionization: ESI
Column name: Zorbax Eclipse Plus C18 2.1 mm x 150 mm, 3.5 um, Agilent
Retention time: 8.432 min
Precursor m/z: 361.201
Precursor type: [M+H]+
m/z	relative intensity
147.0796	33
263.1436	10
265.157	30
267.1727	10
279.1722	40
283.1676	10
289.1565	43
295.1676	12
297.1831	20
307.1683	164
325.1787	337
343.1896	999
