Mass spectrum: Tepraloxydim; LC-ESI-QTOF; MS2; 40 V
Name: Tepraloxydim
Class: Herbicide
Formula: C17H24ClNO4
Exact mass: 341.1394
SMILES: CCC(=NOCC=CCl)C1=C(CC(CC1=O)C2CCOCC2)O
InChI: InChI=1S/C17H24ClNO4/c1-2-14(19-23-7-3-6-18)17-15(20)10-13(11-16(17)21)12-4-8-22-9-5-12/h3,6,12-13,20H,2,4-5,7-11H2,1H3
Instrument: TripleTOF 6600 SCIEX
Instrument type: LC-ESI-QTOF
Ms type: MS2
Ion mode: NEGATIVE
Collision energy: 40
Fragmentation mode: CID
Ionization: ESI
Column name: Zorbax Eclipse Plus C18 2.1 mm x 150 mm, 3.5 um, Agilent
Retention time: 12.248 min
Precursor m/z: 340.1321
Precursor type: [M-H]-
m/z	relative intensity
34.9676	44
65.9959	28
108.0428	12
109.027	27
134.0224	213
150.0893	18
153.0893	18
162.0534	19
163.0601	21
165.0767	53
176.1048	26
195.0992	60
206.1145	35
220.095	906
221.115	58
233.1015	27
248.1258	999
250.1405	37
