Mass spectrum: Phenacetin; LC-ESI-QTOF; MS2; 110 V
Name: Phenacetin
Class: Pharmaceutical
Formula: C10H13NO2
Exact mass: 179.0946
SMILES: CCOC1=CC=C(C=C1)NC(=O)C
InChI: InChI=1S/C10H13NO2/c1-3-13-10-6-4-9(5-7-10)11-8(2)12/h4-7H,3H2,1-2H3,(H,11,12)
Instrument: TripleTOF 5600 SCIEX
Instrument type: LC-ESI-QTOF
Ms type: MS2
Ion mode: POSITIVE
Collision energy: 110
Fragmentation mode: CID
Ionization: ESI
Column name: Zorbax Eclipse Plus C18 2.1 mm x 150 mm, 3.5 um, Agilent
Retention time: 7.622 min
Precursor m/z: 180.1019
Precursor type: [M+H]+
m/z	relative intensity
35.9995	127
37.0072	488
38.003	35
38.0151	446
39.0231	999
41.0265	42
42.0343	70
43.0178	906
44.0135	70
51.023	240
52.0185	77
53.0026	49
53.0387	226
54.033	85
65.0387	184
66.0453	56
74.0155	63
80.0494	290
