Mass spectrum: Ampicillin; LC-ESI-QTOF; MS2; 30 V
Name: Ampicillin
Class: Pharmaceutical
Formula: C16H19N3O4S
Exact mass: 349.1096
SMILES: CC1(C)S[C@@H]2[C@H](NC(=O)[C@H](N)c3ccccc3)C(=O)N2[C@H]1C(O)=O
InChI: InChI=1S/C16H19N3O4S/c1-16(2)11(15(22)23)19-13(21)10(14(19)24-16)18-12(20)9(17)8-6-4-3-5-7-8/h3-7,9-11,14H,17H2,1-2H3,(H,18,20)(H,22,23)/t9-,10-,11+,14-/m1/s1
Instrument: TripleTOF 5600 SCIEX
Instrument type: LC-ESI-QTOF
Ms type: MS2
Ion mode: POSITIVE
Collision energy: 30
Fragmentation mode: CID
Ionization: ESI
Column name: Zorbax Eclipse Plus C18 2.1 mm x 150 mm, 3.5 um, Agilent
Retention time: 5.367 min
Precursor m/z: 350.1169
Precursor type: [M+H]+
m/z	relative intensity
70.0678	52
79.0564	33
91.0545	16
96.0448	14
106.0657	999
114.0001	143
114.0371	48
118.0645	71
121.0096	17
137.0707	15
146.0597	45
147.0246	18
160.0422	298
162.0376	14
164.0522	142
165.065	68
174.0542	281
187.0522	16
190.0303	16
192.0472	311
193.06	32
211.0692	46
215.048	16
218.0258	41
259.0857	36
289.0995	12
305.0944	20
