Mass spectrum: Triethylphosphine oxide; LC-ESI-QTOF; MS2; 30 V
Name: Triethylphosphine oxide
Class: Pharmaceutical
Formula: C6H15OP
Exact mass: 134.0861
SMILES: CC[P](=O)(CC)CC
InChI: InChI=1S/C6H15OP/c1-4-8(7,5-2)6-3/h4-6H2,1-3H3
Instrument: TripleTOF 5600 SCIEX
Instrument type: LC-ESI-QTOF
Ms type: MS2
Ion mode: POSITIVE
Collision energy: 30
Fragmentation mode: CID
Ionization: ESI
Column name: Zorbax Eclipse Plus C18 2.1 mm x 150 mm, 3.5 um, Agilent
Retention time: 5.148 min
Precursor m/z: 135.0933
Precursor type: [M+H]+
m/z	relative intensity
49.9991	25
56.9948	19
59.0094	24
61.0253	71
63.0043	61
75.0397	10
77.0184	157
78.0268	386
79.0334	31
89.0527	32
92.0411	465
105.0473	10
106.0551	88
107.0628	150
135.0945	999
