Mass spectrum: [4(Acetyloxy)butyl](triphenyl)phosphonium; LC-ESI-QTOF; MS2; 120 V
Name: [4(Acetyloxy)butyl](triphenyl)phosphonium
Formula: [C24H26O2P]+
Exact mass: 377.1665
SMILES: CC(=O)OCCCC[P+](C1=CC=CC=C1)(C2=CC=CC=C2)C3=CC=CC=C3
InChI: InChI=1S/C24H26O2P/c1-21(25)26-19-11-12-20-27(22-13-5-2-6-14-22,23-15-7-3-8-16-23)24-17-9-4-10-18-24/h2-10,13-18H,11-12,19-20H2,1H3/q+1
Instrument: TripleTOF 6600 SCIEX
Instrument type: LC-ESI-QTOF
Ms type: MS2
Ion mode: POSITIVE
Collision energy: 120
Fragmentation mode: CID
Ionization: ESI
Column name: Zorbax Eclipse Plus C18 2.1 mm x 150 mm, 3.5 um, Agilent
Retention time: 8.85 min
Precursor m/z: 377.1665
Precursor type: [M]+
m/z	relative intensity
107.0032	403
115.053	245
133.0198	90
139.0532	204
151.0539	121
152.0617	952
157.0199	484
181.02	183
183.036	999
226.0772	94
228.0957	56
257.0516	242
259.0672	90
