Mass spectrum: Imazamox; LC-ESI-QTOF; MS2; 50 V
Name: Imazamox
Class: Herbicide
Formula: C15H19N3O4
Exact mass: 305.1376
SMILES: CC(C)C1(C(=O)NC(=N1)C2=C(C=C(C=N2)COC)C(=O)O)C
InChI: InChI=1S/C15H19N3O4/c1-8(2)15(3)14(21)17-12(18-15)11-10(13(19)20)5-9(6-16-11)7-22-4/h5-6,8H,7H2,1-4H3,(H,19,20)(H,17,18,21)
Instrument: TripleTOF 6600 SCIEX
Instrument type: LC-ESI-QTOF
Ms type: MS2
Ion mode: POSITIVE
Collision energy: 50
Fragmentation mode: CID
Ionization: ESI
Column name: Zorbax Eclipse Plus C18 2.1 mm x 150 mm, 3.5 um, Agilent
Retention time: 6.853 min
Precursor m/z: 306.1448
Precursor type: [M+H]+
m/z	relative intensity
39.0218	64
41.0376	272
56.0482	14
58.0633	13
65.0365	12
67.0522	11
69.0683	621
70.0634	29
71.071	58
86.0948	584
88.0157	16
90.0308	14
92.0473	100
97.0621	11
104.0461	11
107.0579	44
115.0271	37
117.0423	62
118.0503	74
119.058	62
120.0421	54
122.0581	214
123.0656	41
131.0578	11
133.038	16
133.0735	22
134.0435	9
135.0524	20
144.0296	24
145.0376	279
146.0216	23
146.0446	16
147.053	79
148.0605	181
149.0686	97
150.0521	43
159.0528	33
159.0762	16
160.0606	86
161.0676	263
162.0398	98
162.0627	23
163.0484	999
171.0892	14
173.0665	11
175.0483	366
176.0551	28
177.0632	66
184.0963	12
186.0639	12
187.0713	72
188.082	30
189.0952	20
191.0794	435
192.0747	160
193.0588	358
212.091	18
215.0676	71
216.0748	41
218.0903	281
219.1107	19
220.099	11
235.0925	14
243.1106	27
246.0849	143
261.1209	16
