Mass spectrum: (Tert-Butoxycarbonylmethyl)triphenylphosphonium; LC-ESI-QTOF; MS2; 80 V
Name: (Tert-Butoxycarbonylmethyl)triphenylphosphonium
Formula: C24H26O2P
Exact mass: 377.1665
InChI: InChI=1S/C24H26O2P/c1-24(2,3)26-23(25)19-27(20-13-7-4-8-14-20,21-15-9-5-10-16-21)22-17-11-6-12-18-22/h4-18H,19H2,1-3H3/q+1
Instrument: TripleTOF 5600 SCIEX
Instrument type: LC-ESI-QTOF
Ms type: CID
Ion mode: POSITIVE
Collision energy: 80
Ionization: ESI
Column name: Zorbax Eclipse Plus C18 2.1 mm x 150 mm, 3.5 um, Agilent
Retention time: 8.834 min
Precursor m/z: 377.1665
Precursor type: [M]+
m/z	relative intensity
107.0031	193
108.011	116
152.062	74
183.0358	999
