Mass spectrum: Tributyl(1,3-dioxolan-2-ylmethyl)phosphonium; LC-ESI-QTOF; MS2; 80 V
Name: Tributyl(1,3-dioxolan-2-ylmethyl)phosphonium
Class: Industrial_process
Formula: [C16H34O2P]+
Exact mass: 289.2291
SMILES: CCCC[P+](CCCC)(CCCC)CC1OCCO1
InChI: InChI=1S/C16H34O2P/c1-4-7-12-19(13-8-5-2,14-9-6-3)15-16-17-10-11-18-16/h16H,4-15H2,1-3H3/q+1
Instrument: TripleTOF 5600 SCIEX
Instrument type: LC-ESI-QTOF
Ms type: MS2
Ion mode: POSITIVE
Collision energy: 80
Fragmentation mode: CID
Ionization: ESI
Column name: Zorbax Eclipse Plus C18 2.1 mm x 150 mm, 3.5 um, Agilent
Retention time: 8.761 min
Precursor m/z: 289.2291
Precursor type: [M]+
m/z	relative intensity
56.9949	251
59.01	261
61.0259	661
62.0326	218
73.0306	140
75.0392	533
76.0472	999
89.0522	71
90.0602	189
103.0669	57
131.0985	76
