Mass spectrum: Lamotrigine; LC-ESI-QTOF; MS2; 120 V
Name: Lamotrigine
Class: Pharmaceutical
Formula: C9H7Cl2N5
Exact mass: 255.0079
SMILES: Nc1nnc(c(N)n1)c2cccc(Cl)c2Cl
InChI: InChI=1S/C9H7Cl2N5/c10-5-3-1-2-4(6(5)11)7-8(12)14-9(13)16-15-7/h1-3H,(H4,12,13,14,16)
Instrument: TripleTOF 5600 SCIEX
Instrument type: LC-ESI-QTOF
Ms type: MS2
Ion mode: POSITIVE
Collision energy: 120
Fragmentation mode: CID
Ionization: ESI
Column name: Zorbax Eclipse Plus C18 2.1 mm x 150 mm, 3.5 um, Agilent
Retention time: 6.024 min
Precursor m/z: 256.0151
Precursor type: [M+H]+
m/z	relative intensity
42.0305	43
43.0382	696
58.0455	21
61.9825	17
68.0283	38
71.9813	21
72.9883	129
73.0112	237
74.019	999
74.0582	21
75.0133	21
75.0266	147
76.0211	30
82.9498	21
83.9775	34
84.9866	21
85.0108	17
86.018	60
87.026	56
88.0202	25
89.0415	60
90.0368	21
95.9766	21
96.9846	60
98.0159	34
99.0122	315
100.0191	116
106.9461	43
108.9837	38
123.0084	64
