Mass spectrum: 1-(3,4-Dichlorophenyl)urea; LC-ESI-QTOF; MS2; 80 V
Name: 1-(3,4-Dichlorophenyl)urea
Class: Herbicide; Transformation_product
Formula: C7H6Cl2N2O
Exact mass: 203.9857
SMILES: C1=CC(=C(C=C1NC(=O)N)Cl)Cl
InChI: InChI=1S/C7H6Cl2N2O/c8-5-2-1-4(3-6(5)9)11-7(10)12/h1-3H,(H3,10,11,12)
Instrument: TripleTOF 5600 SCIEX
Instrument type: LC-ESI-QTOF
Ms type: MS2
Ion mode: POSITIVE
Collision energy: 80
Fragmentation mode: CID
Ionization: ESI
Column name: Zorbax Eclipse Plus C18 2.1 mm x 150 mm, 3.5 um, Agilent
Retention time: 8.797 min
Precursor m/z: 204.993
Precursor type: [M+H]+
m/z	relative intensity
44.0232	48
52.0273	32
63.0297	169
64.0384	88
65.0456	999
72.9887	136
73.0113	64
74.0209	386
75.0277	72
82.9488	56
91.0475	80
92.0516	306
99.0029	88
100.0101	193
108.9859	64
126.013	32
127.0199	346
132.9607	40
