Mass spectrum: Clozapine; LC-ESI-QTOF; MS2; 150 V
Name: Clozapine
Class: Pharmaceutical
Formula: C18H19ClN4
Exact mass: 326.1298
SMILES: CN1CCN(CC1)C2=NC3=C(C=CC(=C3)Cl)NC4=CC=CC=C42
InChI: InChI=1S/C18H19ClN4/c1-22-8-10-23(11-9-22)18-14-4-2-3-5-15(14)20-16-7-6-13(19)12-17(16)21-18/h2-7,12,20H,8-11H2,1H3
Instrument: TripleTOF 6600 SCIEX
Instrument type: LC-ESI-QTOF
Ms type: MS2
Ion mode: POSITIVE
Collision energy: 150
Fragmentation mode: CID
Ionization: ESI
Column name: Zorbax Eclipse Plus C18 2.1 mm x 150 mm, 3.5 um, Agilent
Retention time: 6.951 min
Precursor m/z: 327.1371
Precursor type: [M+H]+
m/z	relative intensity
37.0075	122
38.015	81
39.023	232
42.0333	130
43.0419	20
46.9678	20
48.9841	32
50.015	93
51.0233	171
52.0171	20
59.9995	93
61.007	513
62.0149	603
63.023	897
64.0183	199
65.0377	85
72.9838	146
73.0074	73
74.015	403
75.0103	28
75.0226	224
76.0176	65
76.0297	32
77.0378	69
83.999	97
85.0066	452
86.0018	24
86.0144	884
87.0224	994
88.0188	656
89.038	346
90.0326	61
97.0079	36
98.0153	285
99.0101	126
99.0221	101
100.0182	97
100.029	24
102.0448	32
109.0062	118
110.0013	24
110.0141	326
111.0214	558
112.0173	456
113.0378	424
114.0334	407
115.0407	40
115.0549	36
116.0531	20
122.0159	53
123.0128	114
124.0178	57
125.0375	32
126.0483	36
135.0097	28
136.0264	93
137.0377	999
138.0336	615
139.0379	20
139.0517	73
140.0473	150
149.0354	24
150.046	81
151.0513	40
152.0456	32
162.0338	150
163.0425	154
164.0494	676
165.0428	114
175.0414	24
176.0523	28
177.0602	44
188.0477	20
189.0421	65
190.0543	28
216.0622	16
