Mass spectrum: (5-Methoxy-5-oxopentyl)triphenylphosphonium; LC-ESI-QTOF; MS2; 80 V
Name: (5-Methoxy-5-oxopentyl)triphenylphosphonium
Class: Industrial_process
Formula: [C24H26O2P]+
Exact mass: 377.1665
SMILES: COC(=O)CCCC[P+](C1=CC=CC=C1)(C2=CC=CC=C2)C3=CC=CC=C3
InChI: InChI=1S/C24H26O2P/c1-26-24(25)19-11-12-20-27(21-13-5-2-6-14-21,22-15-7-3-8-16-22)23-17-9-4-10-18-23/h2-10,13-18H,11-12,19-20H2,1H3/q+1
Instrument: TripleTOF 6600 SCIEX
Instrument type: LC-ESI-QTOF
Ms type: MS2
Ion mode: POSITIVE
Collision energy: 80
Fragmentation mode: CID
Ionization: ESI
Column name: Zorbax Eclipse Plus C18 2.1 mm x 150 mm, 3.5 um, Agilent
Retention time: 8.303 min
Precursor m/z: 377.1665
Precursor type: [M]+
m/z	relative intensity
107.0069	139
108.0143	50
152.0642	99
183.0375	999
259.0662	55
