Mass spectrum: Fluroxypyr; LC-ESI-QTOF; MS2; 110 V
Name: Fluroxypyr
Class: Herbicide
Formula: C7H5Cl2FN2O3
Exact mass: 253.9661
SMILES: C(C(=O)O)OC1=NC(=C(C(=C1Cl)N)Cl)F
InChI: InChI=1S/C7H5Cl2FN2O3/c8-3-5(11)4(9)7(12-6(3)10)15-1-2(13)14/h1H2,(H2,11,12)(H,13,14)
Instrument: TripleTOF 6600 SCIEX
Instrument type: LC-ESI-QTOF
Ms type: MS2
Ion mode: POSITIVE
Collision energy: 110
Fragmentation mode: CID
Ionization: ESI
Column name: Zorbax Eclipse Plus C18 2.1 mm x 150 mm, 3.5 um, Agilent
Retention time: 8.859 min
Precursor m/z: 254.9734
Precursor type: [M+H]+
m/z	relative intensity
30.9977	106
46.0089	53
46.9682	146
48.9836	106
51.0096	159
52.0182	66
53.0137	66
54.997	79
56.0046	173
57.0129	66
60.9844	119
61.9778	106
62.9637	53
63.0098	66
64.0169	133
65.9659	66
66.9742	492
68.9994	53
70.0082	506
70.9668	239
71.9753	333
72.9832	93
73.9778	79
76.0047	53
77.0137	412
81.0017	79
82.0086	186
82.9439	119
83.0165	93
85.9788	492
89.9655	999
90.9741	705
91.9703	79
96.9696	133
98.9851	119
100.9345	119
101.968	79
105.9369	106
105.9857	93
106.9446	279
115.9688	79
124.9355	599
