Mass spectrum: Dexamethasone; LC-ESI-QTOF; MS2; 150 V
Name: Dexamethasone
Class: Pharmaceutical
Formula: C22H29FO5
Exact mass: 392.1999
SMILES: C[C@@H]1C[C@H]2[C@@H]3CCC4=CC(=O)C=C[C@@]4([C@]3([C@H](C[C@@]2([C@]1(C(=O)CO)O)C)O)F)C
InChI: InChI=1S/C22H29FO5/c1-12-8-16-15-5-4-13-9-14(25)6-7-19(13,2)21(15,23)17(26)10-20(16,3)22(12,28)18(27)11-24/h6-7,9,12,15-17,24,26,28H,4-5,8,10-11H2,1-3H3/t12-,15+,16+,17+,19+,20+,21+,22+/m1/s1
Instrument: TripleTOF 5600 SCIEX
Instrument type: LC-ESI-QTOF
Ms type: MS2
Ion mode: POSITIVE
Collision energy: 150
Fragmentation mode: CID
Ionization: ESI
Column name: Zorbax Eclipse Plus C18 2.1 mm x 150 mm, 3.5 um, Agilent
Retention time: 9.089 min
Precursor m/z: 393.2072
Precursor type: [M+H]+
m/z	relative intensity
43.0304	42
51.0322	268
55.0267	14
65.0448	292
67.0609	31
74.0216	42
75.0267	70
76.0353	45
77.0439	999
78.051	123
79.0592	70
83.0342	21
89.0429	169
91.0581	525
94.0481	14
101.043	28
102.0498	197
103.0571	158
105.0723	17
107.0511	35
109.0486	17
113.0402	21
115.0565	843
116.0634	35
117.0722	24
121.0663	45
125.0406	31
126.0475	137
127.0569	218
128.0636	398
129.0734	35
131.0506	84
133.0468	35
138.0512	14
139.0553	169
141.0731	84
146.0582	14
149.045	24
150.0464	120
151.0543	247
152.0635	568
153.0733	35
157.0681	14
162.0451	14
162.0533	21
163.0544	218
164.0629	151
165.07	416
174.0447	24
175.0573	31
176.0636	271
177.0701	88
178.078	180
181.066	21
187.0527	155
188.0635	127
189.0698	430
190.0789	24
191.085	24
199.0594	14
200.0628	148
201.0711	95
202.0775	292
203.0845	31
205.0636	24
211.0585	24
213.0693	134
215.0818	74
218.0682	21
224.0634	52
225.0713	35
226.0776	123
237.0715	24
239.0846	35
