Mass spectrum: Fipronil; LC-ESI-QTOF; MS2; 150 V
Name: Fipronil
Class: Insecticide; Biocide
Formula: C12H4Cl2F6N4OS
Exact mass: 435.9387
SMILES: C1=C(C=C(C(=C1Cl)N2C(=C(C(=N2)C#N)S(=O)C(F)(F)F)N)Cl)C(F)(F)F
InChI: InChI=1S/C12H4Cl2F6N4OS/c13-5-1-4(11(15,16)17)2-6(14)8(5)24-10(22)9(7(3-21)23-24)26(25)12(18,19)20/h1-2H,22H2
Instrument: TripleTOF 6600 SCIEX
Instrument type: LC-ESI-QTOF
Ms type: MS2
Ion mode: NEGATIVE
Collision energy: 150
Fragmentation mode: CID
Ionization: ESI
Column name: Zorbax Eclipse Plus C18 2.1 mm x 150 mm, 3.5 um, Agilent
Retention time: 13.577 min
Precursor m/z: 434.9314
Precursor type: [M-H]-
m/z	relative intensity
34.97	999
50.0035	438
57.9759	316
74.0034	268
81.9749	121
86.0032	292
98.0031	146
112.0038	243
113.0148	146
136.0017	121
