Mass spectrum: Dimethenamid-OA; LC-ESI-QTOF; MS2; 30 V
Name: Dimethenamid-OA
Class: Transformation_product; Herbicide; Transformation_product-Metabolite
Formula: C12H17NO4S
Exact mass: 271.0878
SMILES: Cc1csc(c1N(C(C)COC)C(=O)C(=O)O)C
InChI: InChI=1S/C12H17NO4S/c1-7-6-18-9(3)10(7)13(8(2)5-17-4)11(14)12(15)16/h6,8H,5H2,1-4H3,(H,15,16)
Instrument: TripleTOF 6600 SCIEX
Instrument type: LC-ESI-QTOF
Ms type: MS2
Ion mode: NEGATIVE
Collision energy: 30
Fragmentation mode: CID
Ionization: ESI
Column name: Zorbax Eclipse Plus C18 2.1 mm x 150 mm, 3.5 um, Agilent
Retention time: 8.208 min
Precursor m/z: 270.0805
Precursor type: [M-H]-
m/z	relative intensity
97.0109	91
98.0058	130
122.0054	58
124.0217	215
125.03	58
148.0224	65
150.0381	182
151.0457	65
152.054	208
164.0537	111
166.069	999
167.0401	104
198.0951	430
