Mass spectrum: Pyroxsulam; LC-ESI-QTOF; MS2; 30 V
Name: Pyroxsulam
Class: Herbicide
Formula: C14H13F3N6O5S
Exact mass: 434.062
SMILES: COC1=CC(=NC2=NC(=NN12)NS(=O)(=O)C3=C(C=CN=C3OC)C(F)(F)F)OC
InChI: InChI=1S/C14H13F3N6O5S/c1-26-8-6-9(27-2)23-13(19-8)20-12(21-23)22-29(24,25)10-7(14(15,16)17)4-5-18-11(10)28-3/h4-6H,1-3H3,(H,21,22)
Instrument: TripleTOF 6600 SCIEX
Instrument type: LC-ESI-QTOF
Ms type: MS2
Ion mode: NEGATIVE
Collision energy: 30
Fragmentation mode: CID
Ionization: ESI
Column name: Zorbax Eclipse Plus C18 2.1 mm x 150 mm, 3.5 um, Agilent
Retention time: 9.651 min
Precursor m/z: 433.0547
Precursor type: [M-H]-
m/z	relative intensity
68.9951	20
128.032	70
136.0206	44
146.0217	62
150.0327	10
156.0278	136
162.0422	11
164.0328	24
165.0421	81
176.0317	501
179.0566	783
180.0516	12
193.059	15
216.0376	73
230.0432	16
239.9969	23
267.0479	68
283.0441	118
285.0703	176
292.0343	46
293.0389	15
297.0525	15
307.0542	637
311.0485	37
322.0496	14
323.0496	591
324.0537	25
329.0815	481
338.0705	352
339.0409	77
339.0741	271
349.0384	19
354.0667	259
369.0901	208
387.0104	18
433.051	999
