Mass spectrum: Remdesivir; LC-ESI-QTOF; MS2; 140 V
Name: Remdesivir
Class: Pharmaceutical
Formula: C27H35N6O8P
Exact mass: 602.2254
SMILES: CCC(CC)COC(=O)C(C)NP(=O)(OCC1C(C(C(O1)(C#N)C2=CC=C3N2N=CN=C3N)O)O)OC4=CC=CC=C4
InChI: InChI=1S/C27H35N6O8P/c1-4-18(5-2)13-38-26(36)17(3)32-42(37,41-19-9-7-6-8-10-19)39-14-21-23(34)24(35)27(15-28,40-21)22-12-11-20-25(29)30-16-31-33(20)22/h6-12,16-18,21,23-24,34-35H,4-5,13-14H2,1-3H3,(H,32,37)(H2,29,30,31)
Instrument: TripleTOF 6600 SCIEX
Instrument type: LC-ESI-QTOF
Ms type: MS2
Ion mode: POSITIVE
Collision energy: 140
Fragmentation mode: CID
Ionization: ESI
Column name: Zorbax Eclipse Plus C18 2.1 mm x 150 mm, 3.5 um, Agilent
Retention time: 9.974 min
Precursor m/z: 603.2327
Precursor type: [M+H]+
m/z	relative intensity
37.0075	11
39.0228	64
41.0385	29
42.0332	31
43.0294	25
43.0412	11
43.0542	29
44.0492	386
50.0145	25
51.0226	154
60.983	9
64.0182	52
65.0381	62
66.0329	15
67.0171	21
76.0176	93
77.0252	19
77.0381	999
78.033	232
78.9937	60
79.028	15
79.9887	117
83.0047	11
87.994	19
91.0279	27
91.0529	52
92.0245	17
92.049	17
93.0439	31
95.0481	156
103.0282	101
103.0531	66
104.0358	23
104.049	13
105.0438	280
106.0044	37
107.046	11
109.0197	48
117.0553	13
118.0395	17
118.064	17
119.0232	78
119.0585	19
120.0538	19
120.0794	11
121.0634	11
124.0145	15
130.0386	70
135.0652	11
137.0141	83
138.9936	23
147.0655	142
161.0442	23
165.009	97
