Mass spectrum: Prednisone; LC-ESI-QTOF; MS2; 10 V
Name: Prednisone
Class: Pharmaceutical
Formula: C21H26O5
Exact mass: 358.178
SMILES: C[C@]12CC(=O)[C@H]3[C@@H](CCC4=CC(=O)C=C[C@]34C)[C@@H]1CC[C@]2(O)C(=O)CO
InChI: InChI=1S/C21H26O5/c1-19-7-5-13(23)9-12(19)3-4-14-15-6-8-21(26,17(25)11-22)20(15,2)10-16(24)18(14)19/h5,7,9,14-15,18,22,26H,3-4,6,8,10-11H2,1-2H3/t14-,15-,18+,19-,20-,21-/m0/s1
Instrument: TripleTOF 5600 SCIEX
Instrument type: LC-ESI-QTOF
Ms type: MS2
Ion mode: POSITIVE
Collision energy: 10
Fragmentation mode: CID
Ionization: ESI
Column name: Zorbax Eclipse Plus C18 2.1 mm x 150 mm, 3.5 um, Agilent
Retention time: 8.469 min
Precursor m/z: 359.1853
Precursor type: [M+H]+
m/z	relative intensity
147.0789	54
159.0805	10
171.0781	18
173.0959	12
181.0855	14
183.1023	18
197.0974	18
213.1263	24
237.1281	62
239.1065	25
253.1238	29
255.137	14
261.1284	29
263.1432	40
265.1598	57
267.1378	96
267.1718	15
277.1577	36
281.1547	26
283.1687	51
287.1433	23
293.1536	32
295.1312	11
295.1686	162
305.1533	137
311.164	33
313.1798	310
323.165	291
341.1756	999
