Mass spectrum: Isopyrazam; LC-ESI-QTOF; MS2; 40 V
Name: Isopyrazam
Class: Fungicide
Formula: C20H23F2N3O
Exact mass: 359.1809
SMILES: CC(C)C1C2CCC1C3=C2C=CC=C3NC(=O)C4=CN(N=C4C(F)F)C
InChI: InChI=1S/C20H23F2N3O/c1-10(2)16-12-7-8-13(16)17-11(12)5-4-6-15(17)23-20(26)14-9-25(3)24-18(14)19(21)22/h4-6,9-10,12-13,16,19H,7-8H2,1-3H3,(H,23,26)
Instrument: TripleTOF 6600 SCIEX
Instrument type: LC-ESI-QTOF
Ms type: MS2
Ion mode: POSITIVE
Collision energy: 40
Fragmentation mode: CID
Ionization: ESI
Column name: Zorbax Eclipse Plus C18 2.1 mm x 150 mm, 3.5 um, Agilent
Retention time: 14.619 min
Precursor m/z: 360.1882
Precursor type: [M+H]+
m/z	relative intensity
41.0388	15
55.0542	14
67.0542	38
69.07	53
81.0691	10
95.0596	23
95.0847	59
109.0392	11
109.1009	48
115.0534	18
128.0587	20
129.0684	11
132.0439	39
142.0681	12
148.0545	10
154.0645	17
155.0605	16
156.0464	12
159.0358	156
166.0656	10
167.0711	13
168.0769	19
169.0762	53
170.0942	15
179.0604	10
181.0724	18
182.0886	11
183.0903	14
189.0815	11
193.0776	13
195.0896	20
196.0856	85
197.0706	85
199.0707	11
201.0811	24
205.0762	12
206.0743	18
207.0852	14
208.0897	14
209.0592	20
210.1002	22
211.0856	25
212.0805	71
213.0875	13
216.0887	10
217.0759	37
219.0874	12
220.0874	18
221.0954	27
222.1017	38
223.0766	42
224.081	215
225.089	26
226.0875	139
227.0598	35
229.0654	12
232.0871	33
234.1027	20
235.0792	23
236.0819	70
236.1175	12
237.0904	34
238.0965	327
240.1069	11
244.088	999
246.1012	29
247.0848	10
248.0833	10
248.1149	14
249.0884	181
250.0978	539
251.1077	33
252.1131	141
258.1033	309
260.1152	12
262.0974	56
263.1108	56
264.113	209
270.1019	60
272.1173	48
276.1122	94
277.1203	147
278.1279	462
284.1196	25
290.1286	20
292.1445	226
298.1331	79
303.1468	12
304.1441	19
305.1531	21
320.1754	617
340.1795	97
360.1866	50
