Mass spectrum: Venlafaxine-N-oxide; LC-ESI-QTOF; MS2; 150 V
Name: Venlafaxine-N-oxide
Class: Pharmaceutical; Metabolite; Transformation_product; Transformation_product-Metabolite
Formula: C17H27NO3
Exact mass: 293.1991
SMILES: C[N+](C)(CC(c1ccc(cc1)OC)C2(CCCCC2)O)[O-]
InChI: InChI=1S/C17H27NO3/c1-18(2,20)13-16(17(19)11-5-4-6-12-17)14-7-9-15(21-3)10-8-14/h7-10,16,19H,4-6,11-13H2,1-3H3
Instrument: TripleTOF 5600 SCIEX
Instrument type: LC-ESI-QTOF
Ms type: MS2
Ion mode: POSITIVE
Collision energy: 150
Fragmentation mode: CID
Ionization: ESI
Column name: Zorbax Eclipse Plus C18 2.1 mm x 150 mm, 3.5 um, Agilent
Retention time: 7.246 min
Precursor m/z: 294.2064
Precursor type: [M+H]+
m/z	relative intensity
42.0429	22
42.0505	22
44.0602	27
58.0723	45
60.0494	36
65.0425	258
66.0508	22
75.0267	27
76.0335	90
77.0421	722
78.0495	999
79.0573	68
81.0728	36
89.0412	72
91.0555	118
103.0552	22
107.0532	22
115.0561	63
128.0633	27
