Mass spectrum: Isopyrazam; LC-ESI-QTOF; MS2; 50 V
Name: Isopyrazam
Class: Fungicide
Formula: C20H23F2N3O
Exact mass: 359.1809
SMILES: CC(C)C1C2CCC1C3=C2C=CC=C3NC(=O)C4=CN(N=C4C(F)F)C
InChI: InChI=1S/C20H23F2N3O/c1-10(2)16-12-7-8-13(16)17-11(12)5-4-6-15(17)23-20(26)14-9-25(3)24-18(14)19(21)22/h4-6,9-10,12-13,16,19H,7-8H2,1-3H3,(H,23,26)
Instrument: TripleTOF 6600 SCIEX
Instrument type: LC-ESI-QTOF
Ms type: MS2
Ion mode: POSITIVE
Collision energy: 50
Fragmentation mode: CID
Ionization: ESI
Column name: Zorbax Eclipse Plus C18 2.1 mm x 150 mm, 3.5 um, Agilent
Retention time: 14.619 min
Precursor m/z: 360.1882
Precursor type: [M+H]+
m/z	relative intensity
39.0234	24
41.0389	45
43.0539	10
55.0543	35
67.0543	87
69.0698	77
77.0384	16
79.0544	14
81.0701	19
91.0539	21
95.0604	56
95.0861	73
105.0335	12
109.0399	41
109.1013	28
113.0507	15
115.0534	72
123.0561	10
127.0538	25
128.0611	76
129.0686	27
130.0648	23
132.0442	67
133.044	12
134.0356	12
136.0511	21
138.0646	11
139.0305	25
140.0502	25
141.0455	25
141.0698	20
142.066	31
143.0615	11
143.0826	11
148.0549	37
152.0529	15
153.0605	21
154.0653	54
155.0602	69
156.0445	28
156.0784	17
158.0393	15
159.0366	372
160.057	11
165.0696	12
166.0659	32
167.072	56
168.077	55
169.075	176
170.0598	22
170.097	31
172.0562	15
175.069	18
176.0506	10
178.0654	27
179.0643	43
180.0815	47
181.0746	52
182.0601	18
182.0873	30
183.0538	20
183.0908	38
184.0832	22
184.1125	13
185.0655	19
186.066	17
187.0676	11
189.0808	26
190.0676	14
191.0688	20
192.0747	28
193.0766	35
194.0738	19
194.0938	21
195.0902	75
196.0866	205
197.0719	153
197.0958	39
198.0761	15
199.0679	37
200.0789	12
201.0821	55
203.0654	16
204.0567	12
204.0777	13
205.0771	40
206.0738	59
207.0855	67
208.0647	15
208.0927	48
209.0615	93
209.1028	25
210.0681	10
210.103	54
211.0533	10
211.0863	59
212.0819	154
213.0868	37
215.0859	10
216.0925	23
217.075	77
218.0868	11
219.0911	34
220.0858	63
221.0976	104
222.0749	23
222.1036	109
223.0784	121
224.0819	394
225.0911	66
226.0804	206
227.0619	101
228.0585	14
229.0666	24
230.0698	15
231.0864	22
232.0886	37
233.1025	20
234.068	11
234.1026	57
235.079	59
235.1159	24
236.0829	176
236.1166	20
237.0905	86
238.0978	468
241.0794	16
242.0719	13
243.0792	24
244.0886	616
245.0966	12
246.1009	27
247.0875	26
248.0831	31
248.1175	49
249.0903	481
250.0987	999
251.1109	54
252.1134	213
256.0891	13
257.0971	10
258.1045	104
260.1178	26
261.1019	24
262.098	197
263.1065	110
264.1142	235
270.1027	28
272.1201	22
275.1099	17
276.1146	267
277.1219	212
278.1285	549
288.1241	12
290.1313	44
292.1447	230
298.1336	15
304.1447	41
305.1514	18
320.1762	127
