Mass spectrum: Mebendazole; LC-ESI-QTOF; MS2; 150 V
Name: Mebendazole
Class: Pharmaceutical
Formula: C16H13N3O3
Exact mass: 295.0957
SMILES: COC(=O)Nc1[nH]c2cc(ccc2n1)C(=O)c3ccccc3
InChI: InChI=1S/C16H13N3O3/c1-22-16(21)19-15-17-12-8-7-11(9-13(12)18-15)14(20)10-5-3-2-4-6-10/h2-9H,1H3,(H2,17,18,19,21)
Instrument: TripleTOF 5600 SCIEX
Instrument type: LC-ESI-QTOF
Ms type: MS2
Ion mode: POSITIVE
Collision energy: 150
Fragmentation mode: CID
Ionization: ESI
Column name: Zorbax Eclipse Plus C18 2.1 mm x 150 mm, 3.5 um, Agilent
Retention time: 8.672 min
Precursor m/z: 296.103
Precursor type: [M+H]+
m/z	relative intensity
49.0277	42
52.0241	265
65.0443	85
69.0125	223
74.017	116
75.0137	350
76.0216	999
77.0294	170
77.0417	573
78.0366	191
87.0263	53
88.0195	63
89.0415	95
98.0163	53
105.0451	85
139.0548	95
