Mass spectrum: Sulfathiazole; LC-ESI-QTOF; MS2; 90 V
Name: Sulfathiazole
Class: Antimicrobial; Pharmaceutical
Formula: C9H9N3O2S2
Exact mass: 255.0136
SMILES: C1=CC(=CC=C1N)S(=O)(=O)NC2=NC=CS2
InChI: InChI=1S/C9H9N3O2S2/c10-7-1-3-8(4-2-7)16(13,14)12-9-11-5-6-15-9/h1-6H,10H2,(H,11,12)
Instrument: TripleTOF 5600 SCIEX
Instrument type: LC-ESI-QTOF
Ms type: MS2
Ion mode: POSITIVE
Collision energy: 90
Fragmentation mode: CID
Ionization: ESI
Column name: Zorbax Eclipse Plus C18 2.1 mm x 150 mm, 3.5 um, Agilent
Retention time: 5.367 min
Precursor m/z: 256.0209
Precursor type: [M+H]+
m/z	relative intensity
56.986	18
57.9957	90
59.0039	77
65.0459	999
66.0396	45
66.0489	10
73.0035	29
74.0119	13
80.0543	392
92.0535	120
93.0613	13
100.0128	45
101.0198	61
108.0481	72
