Mass spectrum: Coumaphos; LC-ESI-QTOF; MS2; 140 V
Name: Coumaphos
Class: Insecticide
Formula: C14H16ClO5PS
Exact mass: 362.0145
SMILES: CCOP(=S)(OCC)OC1=CC2=C(C=C1)C(=C(C(=O)O2)Cl)C
InChI: InChI=1S/C14H16ClO5PS/c1-4-17-21(22,18-5-2)20-10-6-7-11-9(3)13(15)14(16)19-12(11)8-10/h6-8H,4-5H2,1-3H3
Instrument: TripleTOF 6600 SCIEX
Instrument type: LC-ESI-QTOF
Ms type: MS2
Ion mode: POSITIVE
Collision energy: 140
Fragmentation mode: CID
Ionization: ESI
Column name: Zorbax Eclipse Plus C18 2.1 mm x 150 mm, 3.5 um, Agilent
Retention time: 14.049 min
Precursor m/z: 363.0218
Precursor type: [M+H]+
m/z	relative intensity
37.0064	59
38.0149	51
39.0224	288
41.0378	44
44.9783	96
46.9674	784
49.0069	125
50.0145	555
51.0223	999
52.0302	44
53.0021	37
53.0376	29
59.9991	29
61.0071	81
62.0141	236
62.9624	103
63.0222	503
64.0299	66
64.9778	488
65.038	806
66.0451	37
68.9786	244
68.9965	81
70.9947	44
72.9836	81
73.0067	37
74.0145	436
75.0222	481
76.0298	333
77.0379	991
78.0453	96
78.9392	458
80.9723	74
81.986	37
86.0143	59
87.0229	81
88.0299	66
89.0376	636
90.0451	111
91.0535	769
92.9793	51
94.9938	37
96.9496	229
98.9981	44
101.0374	81
102.0454	510
103.0533	177
105.0424	37
108.0018	66
110.9982	44
113.0374	96
115.0534	155
119.0475	103
121.0104	81
125.0149	37
129.0446	66
130.039	44
131.049	133
133.0106	29
134.0184	140
145.0109	66
147.0431	133
163.0205	44
