Mass spectrum: Albendazole; LC-ESI-QTOF; MS2; 140 V
Name: Albendazole
Class: Pharmaceutical
Formula: C12H15N3O2S
Exact mass: 265.0885
SMILES: CCCSc1ccc2nc(NC(=O)OC)[nH]c2c1
InChI: InChI=1S/C12H15N3O2S/c1-3-6-18-8-4-5-9-10(7-8)14-11(13-9)15-12(16)17-2/h4-5,7H,3,6H2,1-2H3,(H2,13,14,15,16)
Instrument: TripleTOF 5600 SCIEX
Instrument type: LC-ESI-QTOF
Ms type: MS2
Ion mode: POSITIVE
Collision energy: 140
Fragmentation mode: CID
Ionization: ESI
Column name: Zorbax Eclipse Plus C18 2.1 mm x 150 mm, 3.5 um, Agilent
Retention time: 8.546 min
Precursor m/z: 266.0958
Precursor type: [M+H]+
m/z	relative intensity
39.0306	46
41.0344	28
51.0164	34
51.03	364
52.0246	345
53.0199	24
53.0452	15
56.9847	65
57.9927	59
60.0017	15
61.034	12
63.0137	18
64.044	18
65.0301	130
65.0428	37
66.0262	43
66.0369	56
67.0456	43
67.9752	71
68.9833	949
69.0117	127
69.9778	18
69.9904	108
70.9964	21
74.0189	18
75.0129	382
75.0323	18
76.0211	999
76.0574	18
77.0159	52
77.0282	283
77.0558	18
78.0215	15
78.0365	180
79.0443	34
80.055	12
80.9813	124
81.976	15
81.9895	270
82.984	102
83.9917	46
84.9908	24
88.019	18
90.0363	24
91.0307	12
91.0418	12
91.9716	21
92.0387	74
92.9805	401
93.9759	118
94.9961	105
96.0041	12
103.0297	40
104.0363	21
105.0436	62
108.9972	12
110.0055	15
117.9755	18
119.9894	52
122.0081	15
