Mass spectrum: Isorhamnetin; LC-ESI-QTOF; MS2; 60 V
Name: Isorhamnetin
Class: Pharmaceutical; Metabolite
Formula: C16H12O7
Exact mass: 316.0583
SMILES: COc1cc(ccc1O)C2=C(O)C(=O)c3c(O)cc(O)cc3O2
InChI: InChI=1S/C16H12O7/c1-22-11-4-7(2-3-9(11)18)16-15(21)14(20)13-10(19)5-8(17)6-12(13)23-16/h2-6,17-19,21H,1H3
Instrument: TripleTOF 5600 SCIEX
Instrument type: LC-ESI-QTOF
Ms type: MS2
Ion mode: NEGATIVE
Collision energy: 60
Fragmentation mode: CID
Ionization: ESI
Column name: Zorbax Eclipse Plus C18 2.1 mm x 150 mm, 3.5 um, Agilent
Retention time: 9.418 min
Precursor m/z: 315.051
Precursor type: [M-H]-
m/z	relative intensity
41.0033	87
65.003	702
83.013	472
91.0184	109
94.0052	109
95.0132	87
96.0197	54
107.0142	373
108.0219	999
109.0297	65
117.0354	87
119.0133	65
120.022	263
132.0219	54
133.029	76
135.01	285
136.0155	164
141.0355	54
143.0496	87
145.0304	120
147.0079	76
148.0171	658
151.0044	274
152.0158	65
153.037	65
154.0444	54
155.052	142
157.0313	87
158.0381	76
159.0466	87
161.0249	76
163.0045	867
164.0119	186
171.0445	340
173.0256	98
174.0345	87
175.0409	98
182.037	109
183.0453	406
185.0253	65
187.0416	241
189.0186	120
197.0255	54
198.0325	54
199.0411	439
201.0195	120
211.0401	175
215.036	263
227.0341	340
229.0126	76
242.0231	54
243.029	395
255.0298	548
271.0252	537
283.0246	65
299.018	76
