Mass spectrum: 2-p-Tolyl-1H-benzoimidazole; LC-ESI-QTOF; MS2; 80 V
Name: 2-p-Tolyl-1H-benzoimidazole
Class: Pharmaceutical
Formula: C14H12N2
Exact mass: 208.1
SMILES: CC1=CC=C(C=C1)C2=NC3=CC=CC=C3N2
InChI: InChI=1S/C14H12N2/c1-10-6-8-11(9-7-10)14-15-12-4-2-3-5-13(12)16-14/h2-9H,1H3,(H,15,16)
Instrument: TripleTOF 5600 SCIEX
Instrument type: LC-ESI-QTOF
Ms type: MS2
Ion mode: POSITIVE
Collision energy: 80
Fragmentation mode: CID
Ionization: ESI
Column name: Zorbax Eclipse Plus C18 2.1 mm x 150 mm, 3.5 um, Agilent
Retention time: 6.061 min
Precursor m/z: 209.1073
Precursor type: [M+H]+
m/z	relative intensity
52.0285	152
75.0273	99
77.0434	671
89.0415	861
90.0472	190
91.0558	686
92.052	449
102.0392	175
104.0511	99
113.039	137
114.0449	114
115.0541	213
116.05	99
118.0549	99
138.0464	175
139.0542	831
140.0503	549
151.0543	244
152.0605	289
164.0475	427
165.0579	228
166.0653	388
167.0748	175
178.0655	152
179.0719	160
191.0631	183
192.0661	587
193.0779	167
205.0758	999
206.0831	396
