Mass spectrum: Prednisolone; LC-ESI-QTOF; MS2; 40 V
Name: Prednisolone
Class: Pharmaceutical
Formula: C21H28O5
Exact mass: 360.1937
SMILES: C[C@]12C[C@H](O)[C@H]3[C@@H](CCC4=CC(=O)C=C[C@]34C)[C@@H]1CC[C@]2(O)C(=O)CO
InChI: InChI=1S/C21H28O5/c1-19-7-5-13(23)9-12(19)3-4-14-15-6-8-21(26,17(25)11-22)20(15,2)10-16(24)18(14)19/h5,7,9,14-16,18,22,24,26H,3-4,6,8,10-11H2,1-2H3/t14-,15-,16-,18+,19-,20-,21-/m0/s1
Instrument: TripleTOF 5600 SCIEX
Instrument type: LC-ESI-QTOF
Ms type: MS2
Ion mode: POSITIVE
Collision energy: 40
Fragmentation mode: CID
Ionization: ESI
Column name: Zorbax Eclipse Plus C18 2.1 mm x 150 mm, 3.5 um, Agilent
Retention time: 8.432 min
Precursor m/z: 361.201
Precursor type: [M+H]+
m/z	relative intensity
43.028	13
55.0602	10
65.0422	10
67.0581	26
77.0408	59
79.0558	41
81.0714	36
83.0508	15
91.0557	140
93.0706	86
95.0503	10
95.0862	39
97.0662	23
101.0595	15
103.0545	15
105.07	130
107.0494	26
107.0857	109
109.0637	18
109.1006	41
111.0812	20
115.0544	36
117.07	46
119.0859	169
121.0646	503
121.0996	23
123.0805	28
125.0597	18
127.0558	15
128.0612	52
129.0703	44
130.077	15
131.0484	13
131.0852	70
132.0573	33
133.0638	39
133.1007	46
135.0798	151
135.1062	13
137.0586	13
137.097	13
139.0748	18
141.0698	31
142.0757	15
143.0862	67
145.0637	88
145.1002	125
146.0736	18
147.0804	999
147.1187	15
149.0955	23
151.0778	15
152.0616	10
153.0699	23
154.078	15
155.0863	67
156.0926	13
157.0653	10
157.1019	23
158.0711	135
159.0814	135
159.1168	23
161.0952	109
163.0746	39
163.1114	15
165.0721	44
165.0917	31
166.0778	18
167.0862	20
169.064	26
169.0991	28
170.0711	18
171.0805	610
171.1151	18
172.0884	15
173.0953	432
175.1124	23
177.0907	26
178.0809	18
179.0856	28
180.097	20
181.0645	23
181.1005	15
182.0743	18
183.0793	23
184.0875	20
185.0961	86
187.0752	13
187.111	44
190.0786	36
191.0847	28
191.1062	18
192.0947	18
193.101	49
194.0693	20
194.1069	10
195.0775	57
195.114	31
196.0877	44
197.0951	130
198.1049	18
199.1111	80
201.1255	13
202.0786	20
203.0858	18
204.0913	26
205.1009	44
206.1101	13
207.08	20
207.1168	15
208.0882	104
209.095	146
209.1304	13
210.1033	57
211.11	119
212.1172	13
213.091	18
213.1263	62
216.0961	10
217.1003	13
218.0739	13
218.1085	10
219.0823	18
219.1163	28
220.0862	10
221.0963	93
221.1331	18
222.1046	54
223.1111	326
223.1457	10
224.1203	44
225.1266	91
226.1333	10
227.1039	15
227.1423	20
228.0927	10
229.0979	13
231.0845	20
231.1185	28
232.0871	23
233.0953	44
233.1337	20
234.1067	46
235.1122	62
235.1444	13
236.1196	33
237.1265	153
238.1363	18
239.1418	125
241.1572	26
242.1164	13
243.1165	18
245.0968	26
246.1055	26
247.1124	62
248.1203	54
249.1273	130
249.1636	57
250.1377	20
251.1445	224
255.1341	10
259.1112	57
259.1491	10
260.1191	39
261.1275	44
261.1613	15
262.1354	23
263.1434	70
264.1517	33
265.1293	13
265.1589	187
266.1653	185
267.1745	65
271.1481	18
273.1325	13
274.1341	86
276.1477	20
277.1561	99
279.1411	36
279.1733	133
281.1522	15
283.1691	26
285.1891	23
289.1583	203
292.1442	13
294.1628	23
295.17	36
297.1471	18
307.1681	138
325.1805	93
343.1909	213
