Mass spectrum: Flunixin; LC-ESI-QTOF; MS2; 120 V
Name: Flunixin
Class: Pharmaceutical
Formula: C14H11F3N2O2
Exact mass: 296.0773
SMILES: CC1=C(C=CC=C1NC2=C(C=CC=N2)C(=O)O)C(F)(F)F
InChI: InChI=1S/C14H11F3N2O2/c1-8-10(14(15,16)17)5-2-6-11(8)19-12-9(13(20)21)4-3-7-18-12/h2-7H,1H3,(H,18,19)(H,20,21)
Instrument: TripleTOF 5600 SCIEX
Instrument type: LC-ESI-QTOF
Ms type: MS2
Ion mode: POSITIVE
Collision energy: 120
Fragmentation mode: CID
Ionization: ESI
Column name: Zorbax Eclipse Plus C18 2.1 mm x 150 mm, 3.5 um, Agilent
Retention time: 11.023 min
Precursor m/z: 297.0845
Precursor type: [M+H]+
m/z	relative intensity
51.0339	157
57.0233	405
59.0355	50
60.0093	17
64.0372	13
65.0462	35
66.042	14
68.0144	11
69.0013	23
69.0184	22
73.0149	31
74.0211	293
75.006	16
75.0286	319
76.0233	51
76.0338	38
77.0434	298
78.0389	108
79.048	19
81.0185	120
82.0284	10
83.034	718
85.0102	54
86.0194	139
87.0271	201
88.0272	194
89.0428	299
90.0397	35
92.0084	46
92.0397	13
93.0164	157
93.051	13
94.023	28
95.033	41
97.0097	75
98.018	999
99.0258	448
100.0209	111
101.0229	19
101.0408	123
102.0376	68
103.0439	10
104.0519	28
105.0153	56
106.0219	80
106.0652	11
107.0314	201
108.0382	28
109.009	11
109.0469	191
110.0161	43
111.0218	99
112.0182	127
113.0395	347
114.0353	176
115.0474	32
116.0083	19
117.015	28
117.0601	14
118.0218	17
119.0302	28
120.0326	14
121.0099	14
122.0161	66
123.0186	127
124.0197	84
125.0237	47
125.0398	102
126.048	212
127.0544	221
128.0507	90
129.0437	23
130.0627	10
131.0299	198
132.0271	118
133.0454	43
137.0207	16
137.0394	68
138.0333	151
139.0441	124
140.0498	221
141.0103	22
141.0602	10
142.0173	16
142.0544	14
143.0276	62
144.0344	23
145.0279	32
146.0163	20
147.0125	72
148.0194	71
149.0212	19
150.0139	10
150.0339	35
151.0374	53
152.0499	151
153.0567	106
154.065	44
155.0299	62
155.0617	31
156.0248	29
156.0383	16
157.045	60
158.0412	182
159.0406	11
161.0202	29
162.028	86
163.0388	44
164.0496	59
165.0456	46
166.0521	65
168.0253	37
169.031	20
170.0209	14
170.0375	11
175.0318	23
176.0327	28
177.0462	13
179.0619	160
180.0221	19
180.0641	23
181.0296	14
182.0417	108
183.0308	10
184.0497	13
187.0253	11
188.0325	17
189.0404	25
193.0321	11
197.0514	13
200.0306	17
207.0352	13
210.0622	10
