Mass spectrum: Disperse brown 1; LC-ESI-QTOF; MS2; 110 V
Name: Disperse brown 1
Formula: C16H15Cl3N4O4
Exact mass: 432.0159
SMILES: C1=CC(=C(C=C1N(CCO)CCO)Cl)N=NC2=C(C=C(C=C2Cl)[N+](=O)[O-])Cl
InChI: InChI=1S/C16H15Cl3N4O4/c17-12-7-10(22(3-5-24)4-6-25)1-2-15(12)20-21-16-13(18)8-11(23(26)27)9-14(16)19/h1-2,7-9,24-25H,3-6H2
Instrument: TripleTOF 6600 SCIEX
Instrument type: LC-ESI-QTOF
Ms type: MS2
Ion mode: POSITIVE
Collision energy: 110
Fragmentation mode: CID
Ionization: ESI
Column name: Zorbax Eclipse Plus C18 2.1 mm x 150 mm, 3.5 um, Agilent
Retention time: 12.39 min
Precursor m/z: 433.0232
Precursor type: [M+H]+
m/z	relative intensity
45.0338	42
51.0223	64
63.0233	75
65.0394	53
72.9828	107
74.0148	333
75.0241	139
76.0179	139
77.0364	182
78.0341	64
80.9718	53
83.9761	118
89.0394	107
90.0335	150
91.0416	75
91.0537	64
92.0501	75
96.984	107
98.9998	85
103.0268	42
104.0474	268
105.0466	75
107.9749	236
108.9831	999
110.9976	42
111.9965	85
114.0083	75
116.0523	53
117.0533	225
117.9364	53
118.0538	150
119.0591	53
123.9963	322
125.0033	42
126.011	64
130.0658	53
138.0111	42
139.0061	42
140.0248	64
142.9447	64
143.9523	150
150.0481	107
152.0167	64
153.0224	53
177.0452	53
184.0046	42
213.0208	64
