Mass spectrum: 2-Ethyl-5-hydroxyhexyl-2-hydroxybenzoate; LC-ESI-QTOF; MS2; 40 V
Name: 2-Ethyl-5-hydroxyhexyl-2-hydroxybenzoate
Formula: C15H22O4
Exact mass: 266.1518
SMILES: Oc1ccccc1C(=O)OCC(CC)CCC(C)O
InChI: InChI=1S/C15H22O4/c1-3-12(9-8-11(2)16)10-19-15(18)13-6-4-5-7-14(13)17/h4-7,11-12,16-17H,3,8-10H2,1-2H3
Instrument: TripleTOF 5600 SCIEX
Instrument type: LC-ESI-QTOF
Ms type: MS2
Ion mode: POSITIVE
Collision energy: 40
Fragmentation mode: CID
Ionization: ESI
Column name: Zorbax Eclipse Plus C18 2.1 mm x 150 mm, 3.5 um, Agilent
Retention time: 12.884 min
Precursor m/z: 267.1591
Precursor type: [M+H]+
m/z	relative intensity
41.0381	50
55.0532	93
65.038	71
69.0697	632
93.0328	79
111.1175	143
121.0276	999
139.0374	186
