Mass spectrum: Triadimenol; LC-ESI-QTOF; MS2; 100 V
Name: Triadimenol
Class: Fungicide
Formula: C14H18ClN3O2
Exact mass: 295.1088
SMILES: CC(C)(C)C(C(N1C=NC=N1)OC2=CC=C(C=C2)Cl)O
InChI: InChI=1S/C14H18ClN3O2/c1-14(2,3)12(19)13(18-9-16-8-17-18)20-11-6-4-10(15)5-7-11/h4-9,12-13,19H,1-3H3
Instrument: TripleTOF 6600 SCIEX
Instrument type: LC-ESI-QTOF
Ms type: MS2
Ion mode: POSITIVE
Collision energy: 100
Fragmentation mode: CID
Ionization: ESI
Column name: Zorbax Eclipse Plus C18 2.1 mm x 150 mm, 3.5 um, Agilent
Retention time: 11.487 min
Precursor m/z: 296.116
Precursor type: [M+H]+
m/z	relative intensity
37.0074	10
38.0152	10
39.0232	60
41.039	43
42.0214	20
43.0199	126
43.0287	377
50.0148	11
51.0232	21
65.0397	13
70.0405	999
74.0148	91
75.0238	136
77.0384	13
84.9838	30
110.9992	21
115.0535	10
