Mass spectrum: Fenpropidin; LC-ESI-QTOF; MS2; 100 V
Name: Fenpropidin
Class: Fungicide
Formula: C19H31N
Exact mass: 273.2456
SMILES: CC(CC1=CC=C(C=C1)C(C)(C)C)CN2CCCCC2
InChI: InChI=1S/C19H31N/c1-16(15-20-12-6-5-7-13-20)14-17-8-10-18(11-9-17)19(2,3)4/h8-11,16H,5-7,12-15H2,1-4H3
Instrument: TripleTOF 6600 SCIEX
Instrument type: LC-ESI-QTOF
Ms type: MS2
Ion mode: POSITIVE
Collision energy: 100
Fragmentation mode: CID
Ionization: ESI
Column name: Zorbax Eclipse Plus C18 2.1 mm x 150 mm, 3.5 um, Agilent
Retention time: 9.471 min
Precursor m/z: 274.2529
Precursor type: [M+H]+
m/z	relative intensity
37.0075	24
38.0149	22
39.0231	132
41.0387	44
50.0149	12
51.0229	48
56.05	12
62.0144	10
63.0227	29
65.0386	203
77.0386	190
78.0459	75
79.0544	30
84.0807	23
89.0383	67
91.0542	999
102.0457	34
103.0538	77
104.0618	30
105.0694	27
115.0542	957
116.0617	116
117.0697	370
128.0613	30
129.071	15
131.0852	21
