Mass spectrum: 4-(Dimethylamino)azobenzene; LC-ESI-QTOF; MS2; 150 V
Name: 4-(Dimethylamino)azobenzene
Formula: C14H15N3
Exact mass: 225.1266
SMILES: CN(C)C1=CC=C(C=C1)N=NC2=CC=CC=C2
InChI: InChI=1S/C14H15N3/c1-17(2)14-10-8-13(9-11-14)16-15-12-6-4-3-5-7-12/h3-11H,1-2H3
Instrument: TripleTOF 6600 SCIEX
Instrument type: LC-ESI-QTOF
Ms type: MS2
Ion mode: POSITIVE
Collision energy: 150
Fragmentation mode: CID
Ionization: ESI
Column name: Zorbax Eclipse Plus C18 2.1 mm x 150 mm, 3.5 um, Agilent
Retention time: 15.513 min
Precursor m/z: 226.1339
Precursor type: [M+H]+
m/z	relative intensity
35.9984	22
37.0066	146
38.0143	99
39.0224	165
40.0173	11
41.025	11
42.0331	18
49.0064	191
50.0144	999
51.0222	509
52.0171	42
61.006	50
62.0136	88
63.0215	97
64.0175	20
73.0056	23
74.0133	83
75.0095	17
76.0169	11
77.0374	35
