Mass spectrum: Tetradecyl-trimethylammonium; LC-ESI-QTOF; MS2; 80 V
Name: Tetradecyl-trimethylammonium
Class: Herbicide
Formula: [C17H38N]+
Exact mass: 256.2999
SMILES: CCCCCCCCCCCCCC[N+](C)(C)C
InChI: InChI=1S/C17H38N/c1-5-6-7-8-9-10-11-12-13-14-15-16-17-18(2,3)4/h5-17H2,1-4H3/q+1
Instrument: TripleTOF 5600 SCIEX
Instrument type: LC-ESI-QTOF
Ms type: MS2
Ion mode: POSITIVE
Collision energy: 80
Fragmentation mode: CID
Ionization: ESI
Column name: Zorbax Eclipse Plus C18 2.1 mm x 150 mm, 3.5 um, Agilent
Retention time: 11.497 min
Precursor m/z: 256.2999
Precursor type: [M]+
m/z	relative intensity
44.0576	999
45.0655	321
57.0763	94
58.0698	543
60.0849	588
