Mass spectrum: 2-Benzylimidazole; LC-ESI-QTOF; MS2; 50 V
Name: 2-Benzylimidazole
Class: Pharmaceutical
Formula: C10H12N2
Exact mass: 160.1
SMILES: C1CN=C(N1)CC2=CC=CC=C2
InChI: InChI=1S/C10H12N2/c1-2-4-9(5-3-1)8-10-11-6-7-12-10/h1-5H,6-8H2,(H,11,12)
Instrument: TripleTOF 5600 SCIEX
Instrument type: LC-ESI-QTOF
Ms type: MS2
Ion mode: POSITIVE
Collision energy: 50
Fragmentation mode: CID
Ionization: ESI
Column name: Zorbax Eclipse Plus C18 2.1 mm x 150 mm, 3.5 um, Agilent
Retention time: 4.619 min
Precursor m/z: 161.1073
Precursor type: [M+H]+
m/z	relative intensity
39.0233	20
44.05	34
63.0235	16
65.039	338
77.0391	30
84.0682	12
89.0385	15
91.0549	999
103.0546	36
106.065	11
115.0548	11
116.0499	11
117.0589	20
130.0664	15
161.1076	11
