Mass spectrum: Ofloxacin; LC-ESI-QTOF; MS2; 110 V
Name: Ofloxacin
Class: Antimicrobial; Pharmaceutical
Formula: C18H20FN3O4
Exact mass: 361.1438
SMILES: CC1COC2=C3N1C=C(C(=O)C3=CC(=C2N4CCN(CC4)C)F)C(=O)O
InChI: InChI=1S/C18H20FN3O4/c1-10-9-26-17-14-11(16(23)12(18(24)25)8-22(10)14)7-13(19)15(17)21-5-3-20(2)4-6-21/h7-8,10H,3-6,9H2,1-2H3,(H,24,25)
Instrument: TripleTOF 5600 SCIEX
Instrument type: LC-ESI-QTOF
Ms type: MS2
Ion mode: POSITIVE
Collision energy: 110
Fragmentation mode: CID
Ionization: ESI
Column name: Zorbax Eclipse Plus C18 2.1 mm x 150 mm, 3.5 um, Agilent
Retention time: 5.185 min
Precursor m/z: 362.1511
Precursor type: [M+H]+
m/z	relative intensity
42.0462	287
51.034	136
58.0736	95
70.0307	68
72.0852	54
73.0176	54
74.0217	314
75.0278	930
76.0215	191
76.0349	95
77.0432	260
78.0384	177
80.0535	68
81.0176	205
82.0259	82
83.0342	273
87.0261	109
88.0208	136
89.0407	383
90.037	191
93.0155	191
94.0251	150
95.0317	738
96.0264	355
96.039	95
97.0113	109
97.0359	218
99.0107	68
99.0235	109
100.0208	437
101.0377	246
102.0359	506
103.0457	109
104.0511	328
107.0308	656
108.0282	191
109.0396	218
110.0425	95
113.0381	82
114.0352	273
115.0501	328
116.0522	205
117.0523	260
118.0272	82
118.0583	95
119.0247	95
120.0323	328
121.034	232
122.0414	999
123.0294	95
123.0454	205
125.0395	95
126.035	150
127.0449	109
128.0496	260
129.0463	260
130.0332	136
130.0647	95
132.0235	123
132.0435	54
133.0447	260
134.0413	260
135.0477	301
136.0237	68
137.0539	123
138.0378	82
140.0506	177
141.0493	164
142.0557	177
143.0571	54
144.0469	82
145.043	82
146.0375	191
147.0432	273
148.02	82
148.0558	218
149.0498	95
150.0354	191
151.0397	218
152.0347	136
153.0432	82
154.0387	68
154.0647	123
155.0404	54
155.0592	191
156.066	95
157.0399	109
158.0386	95
159.0502	109
160.0594	82
161.0493	95
164.0399	82
165.0452	205
166.058	68
168.0699	82
169.075	68
172.056	68
173.0574	54
178.0281	54
179.0246	68
189.0438	123
194.0417	68
205.0406	68
