Mass spectrum: Thiamethoxam; LC-ESI-QTOF; MS2; 150 V
Name: Thiamethoxam
Class: Insecticide
Formula: C8H10ClN5O3S
Exact mass: 291.0193
SMILES: CN1COCN(Cc2sc(Cl)nc2)/C1=N/[N+]([O-])=O
InChI: InChI=1S/C8H10ClN5O3S/c1-12-4-17-5-13(8(12)11-14(15)16)3-6-2-10-7(9)18-6/h2H,3-5H2,1H3/b11-8+
Instrument: TripleTOF 5600 SCIEX
Instrument type: LC-ESI-QTOF
Ms type: MS2
Ion mode: POSITIVE
Collision energy: 150
Fragmentation mode: CID
Ionization: ESI
Column name: Zorbax Eclipse Plus C18 2.1 mm x 150 mm, 3.5 um, Agilent
Retention time: 6.188 min
Precursor m/z: 292.0266
Precursor type: [M+H]+
m/z	relative intensity
68.9837	599
69.9795	999
78.9411	999
