Mass spectrum: Chlorpyrifos; LC-ESI-QTOF; MS2; 90 V
Name: Chlorpyrifos
Class: Insecticide
Formula: C9H11Cl3NO3PS
Exact mass: 348.9263
SMILES: CCO[P](=S)(OCC)Oc1nc(Cl)c(Cl)cc1Cl
InChI: InChI=1S/C9H11Cl3NO3PS/c1-3-14-17(18,15-4-2)16-9-7(11)5-6(10)8(12)13-9/h5H,3-4H2,1-2H3
Instrument: TripleTOF 5600 SCIEX
Instrument type: LC-ESI-QTOF
Ms type: MS2
Ion mode: POSITIVE
Collision energy: 90
Fragmentation mode: CID
Ionization: ESI
Column name: Zorbax Eclipse Plus C18 2.1 mm x 150 mm, 3.5 um, Agilent
Retention time: 16.34 min
Precursor m/z: 349.9336
Precursor type: [M+H]+
m/z	relative intensity
61.9836	19
64.9826	129
71.9788	15
78.9429	246
82.9465	10
83.9773	30
83.9863	10
96.9521	999
96.9889	12
106.9454	954
106.9788	14
108.9713	125
118.9442	85
133.9561	92
143.9398	218
150.9159	15
161.95	12
177.9273	14
179.9161	110
197.9276	15
