Mass spectrum: Gabapentin-lactam; LC-ESI-QTOF; MS2; 30 V
Name: Gabapentin-lactam
Formula: C9H15NO
Exact mass: 153.1154
SMILES: C1CCC2(CC1)CC(=O)NC2
InChI: InChI=1S/C9H15NO/c11-8-6-9(7-10-8)4-2-1-3-5-9/h1-7H2,(H,10,11)
Instrument: TripleTOF 5600 SCIEX
Instrument type: LC-ESI-QTOF
Ms type: MS2
Ion mode: POSITIVE
Collision energy: 30
Fragmentation mode: CID
Ionization: ESI
Column name: Zorbax Eclipse Plus C18 2.1 mm x 150 mm, 3.5 um, Agilent
Retention time: 7.593 min
Precursor m/z: 154.1227
Precursor type: [M+H]+
m/z	relative intensity
55.054	34
60.0441	27
67.0542	218
69.0698	37
72.044	49
77.0383	12
81.0686	14
91.0538	30
93.0697	88
95.0852	656
109.1004	45
112.1119	29
154.1227	999
