Mass spectrum: Fluxapyroxad; LC-ESI-QTOF; MS2; 100 V
Name: Fluxapyroxad
Class: Fungicide
Formula: C18H12F5N3O
Exact mass: 381.0901
SMILES: Cn1cc(c(n1)C(F)F)C(=O)Nc2ccccc2c3cc(c(c(c3)F)F)F
InChI: InChI=1S/C18H12F5N3O/c1-26-8-11(16(25-26)17(22)23)18(27)24-14-5-3-2-4-10(14)9-6-12(19)15(21)13(20)7-9/h2-8,17H,1H3,(H,24,27)
Instrument: TripleTOF 6600 SCIEX
Instrument type: LC-ESI-QTOF
Ms type: MS2
Ion mode: POSITIVE
Collision energy: 100
Fragmentation mode: CID
Ionization: ESI
Column name: Zorbax Eclipse Plus C18 2.1 mm x 150 mm, 3.5 um, Agilent
Retention time: 12.239 min
Precursor m/z: 382.0973
Precursor type: [M+H]+
m/z	relative intensity
42.0332	25
51.003	9
57.0126	25
75.0224	9
81.0115	11
83.0277	11
88.012	14
98.0125	18
109.0392	16
111.0221	18
114.0318	9
117.0126	28
122.0137	23
125.0185	18
131.0278	14
134.0143	14
135.0212	37
136.0194	11
138.0274	11
139.0286	18
141.013	58
142.02	11
146.0138	68
147.0213	84
151.0351	16
155.0284	39
156.0348	63
157.0436	75
159.0017	11
160.0099	16
161.0198	18
162.0271	39
165.0127	21
166.0141	18
167.0275	115
168.0359	98
169.0252	25
169.0433	11
171.0082	25
172.017	51
174.0333	16
175.0357	42
176.0298	25
179.0273	18
180.0176	70
181.0292	21
181.0438	16
182.0382	68
185.0191	133
186.0268	731
187.0348	166
188.0423	131
191.0271	39
192.0233	68
193.0279	63
193.0437	11
194.0426	25
195.0461	23
198.027	30
199.0341	124
200.0309	25
200.0445	21
201.0521	23
204.0174	185
205.0259	195
206.0334	999
207.0386	23
210.0272	9
211.0223	145
212.0313	70
213.0378	91
214.0457	16
215.0131	18
216.0172	11
217.025	131
218.0348	72
219.042	94
220.0365	14
222.0491	11
223.0347	101
224.0305	86
225.0495	131
226.0463	103
227.0508	11
230.0346	49
231.0284	206
232.0499	37
233.0326	23
233.0493	21
234.0505	14
235.0212	11
236.0377	14
237.037	23
238.0528	35
239.0535	30
240.0598	16
241.0277	18
242.0342	44
243.0408	239
244.0362	119
245.0462	51
249.0404	32
250.0444	75
251.0422	58
252.0495	32
255.0297	14
256.0434	30
257.043	21
258.0533	23
263.048	21
264.0604	25
265.0552	11
268.0358	35
270.0393	21
270.052	11
271.0498	16
272.0516	16
282.043	14
