Mass spectrum: Triclocarban; LC-ESI-QTOF; MS2; 60 V
Name: Triclocarban
Class: Antimicrobial; Personal_care_product
Formula: C13H9Cl3N2O
Exact mass: 313.978
SMILES: Clc1ccc(NC(=O)Nc2ccc(Cl)c(Cl)c2)cc1
InChI: InChI=1S/C13H9Cl3N2O/c14-8-1-3-9(4-2-8)17-13(19)18-10-5-6-11(15)12(16)7-10/h1-7H,(H2,17,18,19)
Instrument: TripleTOF 5600 SCIEX
Instrument type: LC-ESI-QTOF
Ms type: MS2
Ion mode: POSITIVE
Collision energy: 60
Fragmentation mode: CID
Ionization: ESI
Column name: Zorbax Eclipse Plus C18 2.1 mm x 150 mm, 3.5 um, Agilent
Retention time: 14.574 min
Precursor m/z: 314.9853
Precursor type: [M+H]+
m/z	relative intensity
65.0435	23
66.0505	18
75.026	10
91.0423	15
92.0507	40
93.0591	469
99.0005	82
100.0078	36
111.0002	26
125.0022	20
126.0103	104
127.0188	999
128.0263	31
132.961	55
144.9624	15
159.9702	72
161.9858	11
