Mass spectrum: Ritonavir; LC-ESI-QTOF; MS2; 30 V
Name: Ritonavir
Class: Pharmaceutical
Formula: C37H48N6O5S2
Exact mass: 720.3128
InChI: InChI=1S/C37H48N6O5S2/c1-24(2)33(42-36(46)43(5)20-29-22-49-35(40-29)25(3)4)34(45)39-28(16-26-12-8-6-9-13-26)18-32(44)31(17-27-14-10-7-11-15-27)41-37(47)48-21-30-19-38-23-50-30/h6-15,19,22-25,28,31-33,44H,16-18,20-21H2,1-5H3,(H,39,45)(H,41,47)(H,42,46)
Instrument: TripleTOF 6600 SCIEX
Instrument type: LC-ESI-QTOF
Ms type: CID
Ion mode: POSITIVE
Collision energy: 30
Ionization: ESI
Column name: Zorbax Eclipse Plus C18 2.1 mm x 150 mm, 3.5 um, Agilent
Retention time: 12.676 min
Precursor m/z: 721.3201
Precursor type: [M+H]+
m/z	relative intensity
140.0505	41
171.0932	177
197.0713	93
268.1457	551
296.1408	999
311.1698	11
365.1705	11
382.1918	25
408.1672	16
426.1817	371
507.2374	56
533.2166	29
551.2293	17
703.3023	9
703.3301	16
721.3168	90
