Mass spectrum: Cortisone; LC-ESI-QTOF; MS2; 70 V
Name: Cortisone
Class: Pharmaceutical
Formula: C21H28O5
Exact mass: 360.1937
SMILES: C[C@]12CCC(=O)C=C1CC[C@H]3[C@@H]4CC[C@](O)(C(=O)CO)[C@@]4(C)CC(=O)[C@H]23
InChI: InChI=1S/C21H28O5/c1-19-7-5-13(23)9-12(19)3-4-14-15-6-8-21(26,17(25)11-22)20(15,2)10-16(24)18(14)19/h9,14-15,18,22,26H,3-8,10-11H2,1-2H3/t14-,15-,18+,19-,20-,21-/m0/s1
Instrument: TripleTOF 5600 SCIEX
Instrument type: LC-ESI-QTOF
Ms type: MS2
Ion mode: POSITIVE
Collision energy: 70
Fragmentation mode: CID
Ionization: ESI
Column name: Zorbax Eclipse Plus C18 2.1 mm x 150 mm, 3.5 um, Agilent
Retention time: 8.396 min
Precursor m/z: 361.201
Precursor type: [M+H]+
m/z	relative intensity
43.0274	26
55.0247	22
65.0455	79
67.0598	115
69.0766	22
77.0436	630
78.0508	22
79.0583	404
81.0734	128
83.0525	182
83.0817	17
91.0581	999
91.0859	31
93.0736	328
95.0514	26
95.0882	57
97.0678	244
103.0567	128
104.0639	39
105.0726	754
105.1043	22
107.052	133
107.0879	168
109.0673	57
115.0569	301
116.0646	128
117.0719	288
117.0939	22
119.0514	17
119.0873	270
121.0673	439
121.1034	48
123.0828	48
127.0554	119
128.0643	399
129.0717	301
129.093	22
130.0809	195
131.0507	26
131.0883	168
132.0589	22
133.0678	155
133.103	48
135.0827	48
141.0713	204
142.08	146
143.0875	142
144.0572	26
144.0955	26
145.0674	71
145.1037	111
145.1174	31
146.0753	31
146.0891	22
147.082	275
148.0909	390
152.0638	44
153.0723	155
154.0813	93
155.0877	159
156.0956	48
157.0676	39
157.1034	75
158.0738	35
159.0825	75
159.1195	26
161.0986	66
163.1147	159
163.1385	17
165.0737	226
166.0795	93
167.0882	137
168.0958	62
169.1056	84
170.0769	35
170.1111	17
171.0847	39
171.1211	39
172.0903	22
173.0973	22
174.1066	62
178.0795	97
179.0886	150
180.0972	79
181.0692	26
181.1055	84
182.0748	17
183.0847	31
183.1211	48
185.0996	31
185.1358	44
189.0688	48
190.0786	44
191.0884	79
192.0943	44
193.1026	66
195.0856	31
195.123	57
196.0952	22
197.1027	22
199.1136	22
203.0898	35
204.0968	22
205.1026	35
206.1127	22
207.1196	44
209.1014	39
209.1361	31
210.1112	22
211.1183	39
215.0902	26
217.1071	26
219.0888	22
225.1316	93
226.136	39
227.1476	44
241.1591	26
243.1427	137
269.1568	31
