Mass spectrum: Isorhamnetin; LC-ESI-QTOF; MS2; 30 V
Name: Isorhamnetin
Class: Pharmaceutical; Metabolite
Formula: C16H12O7
Exact mass: 316.0583
SMILES: COc1cc(ccc1O)C2=C(O)C(=O)c3c(O)cc(O)cc3O2
InChI: InChI=1S/C16H12O7/c1-22-11-4-7(2-3-9(11)18)16-15(21)14(20)13-10(19)5-8(17)6-12(13)23-16/h2-6,17-19,21H,1H3
Instrument: TripleTOF 5600 SCIEX
Instrument type: LC-ESI-QTOF
Ms type: MS2
Ion mode: POSITIVE
Collision energy: 30
Fragmentation mode: CID
Ionization: ESI
Column name: Zorbax Eclipse Plus C18 2.1 mm x 150 mm, 3.5 um, Agilent
Retention time: 9.418 min
Precursor m/z: 317.0656
Precursor type: [M+H]+
m/z	relative intensity
153.0178	36
165.0183	10
228.0396	10
229.0501	28
246.051	17
257.0462	37
273.0373	19
274.0473	65
285.0398	109
302.0421	322
317.0664	999
