Mass spectrum: Oxymetazoline; LC-ESI-QTOF; MS2; 130 V
Name: Oxymetazoline
Class: Pharmaceutical
Formula: C16H24N2O
Exact mass: 260.1889
SMILES: Cc1cc(c(c(c1CC2=NCCN2)C)O)C(C)(C)C
InChI: InChI=1S/C16H24N2O/c1-10-8-13(16(3,4)5)15(19)11(2)12(10)9-14-17-6-7-18-14/h8,19H,6-7,9H2,1-5H3,(H,17,18)
Instrument: TripleTOF 5600 SCIEX
Instrument type: LC-ESI-QTOF
Ms type: MS2
Ion mode: POSITIVE
Collision energy: 130
Fragmentation mode: CID
Ionization: ESI
Column name: Zorbax Eclipse Plus C18 2.1 mm x 150 mm, 3.5 um, Agilent
Retention time: 7.429 min
Precursor m/z: 261.1961
Precursor type: [M+H]+
m/z	relative intensity
43.0262	11
54.0401	16
55.0476	13
63.0426	20
65.044	455
74.0176	55
74.0373	9
75.0254	71
76.0344	67
77.0426	999
77.082	16
78.0496	143
79.0574	62
86.0165	11
89.0403	242
90.0487	20
91.057	573
91.0853	20
93.0699	11
101.0409	27
102.0483	228
103.0544	138
104.0523	11
104.0639	13
105.0686	27
113.0411	9
114.045	18
115.0549	698
116.06	30
117.0689	67
118.0705	11
126.0472	74
127.0548	159
128.0627	263
128.1181	13
130.0652	25
131.0573	16
139.0519	32
140.0517	11
141.0703	39
144.0558	11
