Mass spectrum: Voriconazole-N-oxide; LC-ESI-QTOF; MS2; 150 V
Name: Voriconazole-N-oxide
Class: Metabolite; Pharmaceutical
Formula: C16H14F3N5O2
Exact mass: 365.11
SMILES: CC(C1=NC=[N+](C=C1F)[O-])C(CN2C=NC=N2)(C3=C(C=C(C=C3)F)F)O
InChI: InChI=1S/C16H14F3N5O2/c1-10(15-14(19)5-24(26)9-21-15)16(25,6-23-8-20-7-22-23)12-3-2-11(17)4-13(12)18/h2-5,7-10,25H,6H2,1H3
Instrument: TripleTOF 5600 SCIEX
Instrument type: LC-ESI-QTOF
Ms type: MS2
Ion mode: POSITIVE
Collision energy: 150
Fragmentation mode: CID
Ionization: ESI
Column name: Zorbax Eclipse Plus C18 2.1 mm x 150 mm, 3.5 um, Agilent
Retention time: 7.739 min
Precursor m/z: 366.1172
Precursor type: [M+H]+
m/z	relative intensity
51.0102	172
51.0285	206
52.0223	86
57.0188	447
70.012	103
70.0256	103
70.0446	292
71.019	137
75.0059	654
77.0196	155
77.0414	120
78.0367	103
81.015	654
83.0327	103
87.0278	86
96.037	68
97.0191	172
98.0413	189
101.0201	999
105.0438	86
107.03	499
113.0212	68
125.0513	344
127.0374	137
