Mass spectrum: 10,11-Dihydro-10,11-epoxycarbamazepine; LC-ESI-QTOF; MS2; 40 V
Name: 10,11-Dihydro-10,11-epoxycarbamazepine
Class: Metabolite; Pharmaceutical; Transformation_product-Metabolite
Formula: C15H12N2O2
Exact mass: 252.0899
SMILES: C1=CC=C2C(=C1)C3C(O3)C4=CC=CC=C4N2C(=O)N
InChI: InChI=1S/C15H12N2O2/c16-15(18)17-11-7-3-1-5-9(11)13-14(19-13)10-6-2-4-8-12(10)17/h1-8,13-14H,(H2,16,18)
Instrument: TripleTOF 5600 SCIEX
Instrument type: LC-ESI-QTOF
Ms type: MS2
Ion mode: POSITIVE
Collision energy: 40
Fragmentation mode: CID
Ionization: ESI
Column name: Zorbax Eclipse Plus C18 2.1 mm x 150 mm, 3.5 um, Agilent
Retention time: 7.593 min
Precursor m/z: 253.0972
Precursor type: [M+H]+
m/z	relative intensity
151.0535	17
152.0617	57
153.0702	14
165.0699	29
166.0659	10
167.0731	161
178.0654	29
179.0731	75
180.0805	999
181.0879	41
182.0964	234
192.0797	10
193.0889	21
208.0761	17
210.0914	132
236.0706	30
