Mass spectrum: 1,5-Naphthalenediamine; LC-ESI-QTOF; MS2; 70 V
Name: 1,5-Naphthalenediamine
Formula: C10H10N2
Exact mass: 158.0844
SMILES: C1=CC2=C(C=CC=C2N)C(=C1)N
InChI: InChI=1S/C10H10N2/c11-9-5-1-3-7-8(9)4-2-6-10(7)12/h1-6H,11-12H2
Instrument: TripleTOF X500R SCIEX
Instrument type: LC-ESI-QTOF
Ms type: MS2
Ion mode: POSITIVE
Collision energy: 70
Fragmentation mode: CID
Ionization: ESI
Column name: Zorbax Eclipse Plus C18 2.1 mm x 150 mm, 3.5 um, Agilent
Retention time: 2.752 min
Precursor m/z: 159.0917
Precursor type: [M+H]+
m/z	relative intensity
39.0228	217
51.0236	130
65.0412	173
75.0205	130
77.039	130
88.0285	86
89.0383	434
98.0164	130
102.0476	130
103.0545	217
113.0394	217
114.0483	130
115.0359	86
115.054	999
116.0559	217
130.0609	173
140.0475	43
