Mass spectrum: Tolnaftate; LC-ESI-QTOF; MS2; 40 V
Name: Tolnaftate
Class: Fungicide; Pharmaceutical
Formula: C19H17NOS
Exact mass: 307.1031
SMILES: CC1=CC(=CC=C1)N(C)C(=S)OC2=CC3=CC=CC=C3C=C2
InChI: InChI=1S/C19H17NOS/c1-14-6-5-9-17(12-14)20(2)19(22)21-18-11-10-15-7-3-4-8-16(15)13-18/h3-13H,1-2H3
Instrument: TripleTOF 5600 SCIEX
Instrument type: LC-ESI-QTOF
Ms type: MS2
Ion mode: POSITIVE
Collision energy: 40
Fragmentation mode: CID
Ionization: ESI
Column name: Zorbax Eclipse Plus C18 2.1 mm x 150 mm, 3.5 um, Agilent
Retention time: 15.53 min
Precursor m/z: 308.1104
Precursor type: [M+H]+
m/z	relative intensity
44.9796	17
65.038	67
77.0383	28
79.0546	37
91.0542	609
92.0628	37
93.069	59
106.0783	13
107.0492	37
118.0636	15
120.0812	999
121.0902	15
123.0261	260
133.0524	28
148.076	677
149.0294	207
152.0533	21
159.0278	28
164.053	782
165.0234	24
180.0469	85
