Mass spectrum: Sunitinib; LC-ESI-QTOF; MS2; 70 V
Name: Sunitinib
Class: Pharmaceutical
Formula: C22H27FN4O2
Exact mass: 398.2118
SMILES: CCN(CC)CCNC(=O)C1=C(NC(=C1C)C=C2C3=C(C=CC(=C3)F)NC2=O)C
InChI: InChI=1S/C22H27FN4O2/c1-5-27(6-2)10-9-24-22(29)20-13(3)19(25-14(20)4)12-17-16-11-15(23)7-8-18(16)26-21(17)28/h7-8,11-12,25H,5-6,9-10H2,1-4H3,(H,24,29)(H,26,28)
Instrument: TripleTOF 5600 SCIEX
Instrument type: LC-ESI-QTOF
Ms type: MS2
Ion mode: NEGATIVE
Collision energy: 70
Fragmentation mode: CID
Ionization: ESI
Column name: Zorbax Eclipse Plus C18 2.1 mm x 150 mm, 3.5 um, Agilent
Retention time: 6.516 min
Precursor m/z: 397.2045
Precursor type: [M-H]-
m/z	relative intensity
42.0033	384
94.0672	307
114.0349	51
134.0416	204
142.0281	76
149.0287	512
150.0366	256
159.0363	51
162.0369	230
174.0242	102
187.0305	128
188.0387	333
209.0494	51
211.0702	486
212.0739	794
222.0586	102
223.073	76
225.0842	179
225.0955	76
227.1013	153
233.0749	51
236.0736	102
237.0813	153
238.0561	281
239.0614	717
240.0697	204
252.0728	179
253.0781	999
254.0892	281
255.0928	461
267.0958	76
268.0909	51
281.0692	51
296.0826	358
310.1063	102
