Mass spectrum: 1-(2,6-Dichlorophenyl)-2-indolinone; LC-ESI-QTOF; MS2; 70 V
Name: 1-(2,6-Dichlorophenyl)-2-indolinone
Class: Pharmaceutical; Transformation_product; Diclofenac-lactam
Formula: C14H9Cl2NO
Exact mass: 277.0061
SMILES: C1C2=CC=CC=C2N(C1=O)C3=C(C=CC=C3Cl)Cl
InChI: InChI=1S/C14H9Cl2NO/c15-10-5-3-6-11(16)14(10)17-12-7-2-1-4-9(12)8-13(17)18/h1-7H,8H2
Instrument: TripleTOF 5600 SCIEX
Instrument type: LC-ESI-QTOF
Ms type: MS2
Ion mode: POSITIVE
Collision energy: 70
Fragmentation mode: CID
Ionization: ESI
Column name: Zorbax Eclipse Plus C18 2.1 mm x 150 mm, 3.5 um, Agilent
Retention time: 12.191 min
Precursor m/z: 278.0134
Precursor type: [M+H]+
m/z	relative intensity
74.0209	69
75.029	23
77.0443	630
78.0411	11
79.0595	195
89.0408	38
90.0507	23
99.0151	14
100.0215	93
101.0413	16
104.0527	32
105.0374	16
108.987	273
109.998	10
111.0015	11
125.0405	25
126.0486	10
127.0567	54
128.0512	35
135.9971	56
139.0554	13
140.0514	22
144.9609	130
149.0444	13
150.0468	136
151.0555	806
152.0624	424
153.0616	118
154.0681	29
164.0026	46
165.0608	23
166.0657	28
171.9716	28
172.9666	34
176.049	38
177.0583	440
178.0658	771
179.0739	999
180.0805	510
207.0649	136
208.075	43
213.0345	20
214.0419	728
