Mass spectrum: Budesonide; LC-ESI-QTOF; MS2; 80 V
Name: Budesonide
Class: Pharmaceutical
Formula: C25H34O6
Exact mass: 430.2355
SMILES: CCC[C@@H]1O[C@@H]2C[C@H]3[C@@H]4CCC5=CC(=O)C=C[C@]5(C)[C@H]4[C@@H](O)C[C@]3(C)[C@@]2(O1)C(=O)CO
InChI: InChI=1S/C25H34O6/c1-4-5-21-30-20-11-17-16-7-6-14-10-15(27)8-9-23(14,2)22(16)18(28)12-24(17,3)25(20,31-21)19(29)13-26/h8-10,16-18,20-22,26,28H,4-7,11-13H2,1-3H3/t16-,17-,18-,20+,21+,22+,23-,24-,25+/m0/s1
Instrument: TripleTOF 5600 SCIEX
Instrument type: LC-ESI-QTOF
Ms type: MS2
Ion mode: POSITIVE
Collision energy: 80
Fragmentation mode: CID
Ionization: ESI
Column name: Zorbax Eclipse Plus C18 2.1 mm x 150 mm, 3.5 um, Agilent
Retention time: 11.041 min
Precursor m/z: 431.2428
Precursor type: [M+H]+
m/z	relative intensity
65.042	71
77.0413	428
79.0563	231
81.0719	142
91.0555	999
93.0724	142
103.0564	196
105.0694	321
107.0487	214
107.0851	124
109.069	71
115.0542	445
116.0607	89
117.07	338
119.0845	499
121.0638	695
127.0523	231
128.0603	784
129.0684	463
130.0771	196
131.0487	231
132.0565	499
141.0695	285
142.0764	107
143.086	160
144.0595	107
145.0643	267
145.1003	89
147.0793	820
152.0607	142
153.0692	231
154.0772	89
155.0847	196
157.0645	267
157.1036	71
158.0719	820
158.0895	89
159.0811	267
165.0699	356
166.0797	124
167.0835	267
169.0645	178
169.0993	107
171.0795	499
173.0957	214
178.0765	535
179.0841	410
181.0634	428
181.103	124
182.0703	142
183.0778	107
184.085	107
185.0938	124
189.07	231
190.0763	107
191.0836	338
192.092	196
193.1021	267
194.0726	107
195.0797	517
196.0888	267
197.0955	142
202.0763	214
203.0836	178
205.0986	124
206.0707	71
207.0788	214
207.1193	89
208.0867	321
209.0943	285
210.1005	178
211.1111	124
215.0858	231
216.0882	89
217.0988	124
218.073	89
219.0808	178
220.0888	124
221.0971	178
222.1019	107
227.0917	71
229.0979	71
229.1078	89
231.081	107
232.0888	107
233.0943	196
234.1023	142
245.0979	107
246.1094	89
247.1151	107
