Mass spectrum: 5-Methyl-5-phenylhydantoin; LC-ESI-QTOF; MS2; 40 V
Name: 5-Methyl-5-phenylhydantoin
Formula: C10H10N2O2
Exact mass: 190.0742
SMILES: CC1(C(=O)NC(=O)N1)C2=CC=CC=C2
InChI: InChI=1S/C10H10N2O2/c1-10(7-5-3-2-4-6-7)8(13)11-9(14)12-10/h2-6H,1H3,(H2,11,12,13,14)
Instrument: TripleTOF 6600 SCIEX
Instrument type: LC-ESI-QTOF
Ms type: MS2
Ion mode: POSITIVE
Collision energy: 40
Fragmentation mode: CID
Ionization: ESI
Column name: Zorbax Eclipse Plus C18 2.1 mm x 150 mm, 3.5 um, Agilent
Retention time: 6.482 min
Precursor m/z: 191.0823
Precursor type: [M+H]+
m/z	relative intensity
42.0329	999
43.018	5
43.0414	4
51.0218	12
77.0368	217
79.0527	79
103.0525	392
104.0529	38
105.0453	7
120.0787	939
