Mass spectrum: Azoxystrobin; LC-ESI-QTOF; MS2; 100 V
Name: Azoxystrobin
Class: Fungicide
Formula: C22H17N3O5
Exact mass: 403.1168
SMILES: COC=C(C1=CC=CC=C1OC2=NC=NC(=C2)OC3=CC=CC=C3C#N)C(=O)OC
InChI: InChI=1S/C22H17N3O5/c1-27-13-17(22(26)28-2)16-8-4-6-10-19(16)30-21-11-20(24-14-25-21)29-18-9-5-3-7-15(18)12-23/h3-11,13-14H,1-2H3
Instrument: TripleTOF 6600 SCIEX
Instrument type: LC-ESI-QTOF
Ms type: MS2
Ion mode: POSITIVE
Collision energy: 100
Fragmentation mode: CID
Ionization: ESI
Column name: Zorbax Eclipse Plus C18 2.1 mm x 150 mm, 3.5 um, Agilent
Retention time: 12.114 min
Precursor m/z: 404.1241
Precursor type: [M+H]+
m/z	relative intensity
39.0218	17
49.0059	15
50.014	106
51.0218	293
52.0169	45
53.0015	53
61.0058	9
62.0138	31
63.0217	126
64.0286	17
65.0374	100
68.0114	21
68.9958	57
69.9913	13
74.0137	66
75.0213	305
76.0168	49
76.029	90
77.0374	999
78.0449	59
87.0216	15
88.0161	31
88.0289	27
89.0372	825
90.0321	25
90.0439	29
91.0398	63
91.0517	37
92.0234	15
92.0481	15
93.0318	21
99.0206	9
100.028	37
101.0367	197
102.0327	474
103.0397	76
103.0508	31
104.0243	43
104.0478	289
105.0322	112
105.0558	15
113.0367	11
114.0318	169
115.0399	78
115.0523	17
116.048	405
117.0322	21
117.0544	31
118.0266	11
118.039	23
119.0348	41
120.0426	57
126.0317	21
127.0406	143
128.0479	137
129.0428	173
130.0278	118
130.0373	303
131.0489	17
132.0427	19
133.0277	25
134.0583	17
140.0476	27
141.0426	23
142.0508	25
143.0352	19
143.0558	9
144.0428	638
145.0264	37
146.0213	15
151.0522	13
153.0428	15
154.0394	17
154.0503	21
155.0596	27
156.0427	224
163.0534	31
164.047	9
171.0526	43
172.0377	642
175.0545	19
176.0612	15
177.0549	15
181.037	37
182.0466	13
189.0554	15
190.0631	72
199.0477	19
200.046	11
201.055	21
202.064	11
203.0704	15
205.0748	9
215.0581	19
216.0672	53
217.0736	17
218.0589	17
229.0761	13
243.0807	19
245.0695	27
301.0884	11
