Mass spectrum: O-desmethyl-metoprolol; LC-ESI-QTOF; MS2; 70 V
Name: O-desmethyl-metoprolol
Class: Pharmaceutical; Metabolite; Transformation_product; Transformation_product-Metabolite
Formula: C14H23NO3
Exact mass: 253.1678
SMILES: CC(C)NCC(O)COc1ccc(CCO)cc1
InChI: InChI=1S/C14H23NO3/c1-11(2)15-9-13(17)10-18-14-5-3-12(4-6-14)7-8-16/h3-6,11,13,15-17H,7-10H2,1-2H3
Instrument: TripleTOF 5600 SCIEX
Instrument type: LC-ESI-QTOF
Ms type: MS2
Ion mode: POSITIVE
Collision energy: 70
Fragmentation mode: CID
Ionization: ESI
Column name: Zorbax Eclipse Plus C18 2.1 mm x 150 mm, 3.5 um, Agilent
Retention time: 5.112 min
Precursor m/z: 254.1751
Precursor type: [M+H]+
m/z	relative intensity
56.055	93
58.0705	34
65.0427	81
72.0838	20
74.063	24
77.0416	999
78.0487	19
79.0566	108
89.0404	19
91.056	425
93.072	18
102.0457	44
103.0544	212
105.069	37
107.0492	21
115.0542	187
116.0612	48
121.0641	11
127.0533	10
128.0613	30
131.0489	12
144.0553	16
