Mass spectrum: Clodinafop-Propargyl; LC-ESI-QTOF; MS2; 90 V
Name: Clodinafop-Propargyl
Class: Herbicide
Formula: C17H13ClFNO4
Exact mass: 349.0517
SMILES: CC(C(=O)OCC#C)OC1=CC=C(C=C1)OC2=C(C=C(C=N2)Cl)F
InChI: InChI=1S/C17H13ClFNO4/c1-3-8-22-17(21)11(2)23-13-4-6-14(7-5-13)24-16-15(19)9-12(18)10-20-16/h1,4-7,9-11H,8H2,2H3
Instrument: TripleTOF 6600 SCIEX
Instrument type: LC-ESI-QTOF
Ms type: MS2
Ion mode: POSITIVE
Collision energy: 90
Fragmentation mode: CID
Ionization: ESI
Column name: Zorbax Eclipse Plus C18 2.1 mm x 150 mm, 3.5 um, Agilent
Retention time: 13.951 min
Precursor m/z: 350.059
Precursor type: [M+H]+
m/z	relative intensity
39.0215	249
50.0136	181
51.0216	317
57.0114	204
62.0132	158
63.021	726
64.0294	227
65.0369	817
74.0131	272
75.0077	272
75.0213	681
76.0161	158
77.0367	817
81.0313	181
90.972	90
91.0522	703
92.024	113
94.0078	113
96.0228	113
101.0367	295
103.9794	158
106.0182	136
107.0267	136
108.0235	181
109.9765	999
129.0419	272
129.983	635
131.0276	454
131.0462	113
132.0352	385
133.0285	136
133.042	113
139.0382	272
149.0375	227
158.0379	840
159.0464	408
182.013	113
219.9904	90
238.0037	90
