Mass spectrum: Fluorescent brightener 363; LC-ESI-QTOF; MS2; 90 V
Name: Fluorescent brightener 363
Class: Pigment
Formula: [C19H19N2O4S]+
Exact mass: 371.106
SMILES: COC1=CC(OC(C2=[N+](C)C(C=C(S(=O)(C)=O)C=C3)=C3N2C)=C4)=C4C=C1
InChI: InChI=1S/C19H19N2O4S/c1-20-15-8-7-14(26(4,22)23)11-16(15)21(2)19(20)18-9-12-5-6-13(24-3)10-17(12)25-18/h5-11H,1-4H3/q+1
Instrument: TripleTOF 6600 SCIEX
Instrument type: LC-ESI-QTOF
Ms type: MS2
Ion mode: POSITIVE
Collision energy: 90
Fragmentation mode: CID
Ionization: ESI
Column name: Zorbax Eclipse Plus C18 2.1 mm x 150 mm, 3.5 um, Agilent
Retention time: 8.155 min
Precursor m/z: 371.106
Precursor type: [M]+
m/z	relative intensity
76.0297	86
77.0372	136
89.0376	62
91.0515	74
102.0443	49
104.0469	55
129.0438	68
131.0589	62
151.053	111
159.0416	55
164.0487	86
165.0568	105
169.0767	49
177.0582	62
178.0642	111
179.0636	124
180.0713	99
191.0611	111
192.0678	49
193.0758	62
194.0834	74
203.0616	62
204.0705	99
205.0751	999
206.0829	179
217.0753	55
218.0834	260
219.0914	831
220.0994	651
221.0454	74
233.0717	155
234.0747	105
247.0503	49
248.0933	49
261.0681	136
262.0717	161
277.096	74
