Mass spectrum: Erlotinib; LC-ESI-QTOF; MS2; 140 V
Name: Erlotinib
Class: Pharmaceutical
Formula: C22H23N3O4
Exact mass: 393.1689
SMILES: COCCOC1=C(C=C2C(=C1)C(=NC=N2)NC3=CC=CC(=C3)C#C)OCCOC
InChI: InChI=1S/C22H23N3O4/c1-4-16-6-5-7-17(12-16)25-22-18-13-20(28-10-8-26-2)21(29-11-9-27-3)14-19(18)23-15-24-22/h1,5-7,12-15H,8-11H2,2-3H3,(H,23,24,25)
Instrument: TripleTOF 5600 SCIEX
Instrument type: LC-ESI-QTOF
Ms type: MS2
Ion mode: NEGATIVE
Collision energy: 140
Fragmentation mode: CID
Ionization: ESI
Column name: Zorbax Eclipse Plus C18 2.1 mm x 150 mm, 3.5 um, Agilent
Retention time: 7.429 min
Precursor m/z: 392.1616
Precursor type: [M-H]-
m/z	relative intensity
41.0034	99
41.0136	99
50.0042	199
65.999	299
88.0195	99
89.0129	199
90.0341	99
105.0229	99
114.0331	199
115.0319	99
133.0156	99
139.0303	499
140.0299	199
141.0445	499
163.0312	299
164.0382	99
164.0491	299
165.0454	799
165.0586	99
188.0461	99
189.0446	999
190.0424	99
190.0512	99
191.063	199
214.0373	199
214.0443	99
216.058	399
244.0525	399
