Mass spectrum: Fluxapyroxad; LC-ESI-QTOF; MS2; 40 V
Name: Fluxapyroxad
Class: Fungicide
Formula: C18H12F5N3O
Exact mass: 381.0901
SMILES: Cn1cc(c(n1)C(F)F)C(=O)Nc2ccccc2c3cc(c(c(c3)F)F)F
InChI: InChI=1S/C18H12F5N3O/c1-26-8-11(16(25-26)17(22)23)18(27)24-14-5-3-2-4-10(14)9-6-12(19)15(21)13(20)7-9/h2-8,17H,1H3,(H,24,27)
Instrument: TripleTOF 6600 SCIEX
Instrument type: LC-ESI-QTOF
Ms type: MS2
Ion mode: POSITIVE
Collision energy: 40
Fragmentation mode: CID
Ionization: ESI
Column name: Zorbax Eclipse Plus C18 2.1 mm x 150 mm, 3.5 um, Agilent
Retention time: 12.239 min
Precursor m/z: 382.0973
Precursor type: [M+H]+
m/z	relative intensity
109.0387	35
129.0439	14
159.0355	143
187.0341	20
206.0331	80
207.0405	54
212.0286	16
226.0453	23
232.0358	154
234.0521	377
246.0514	41
253.0567	14
258.0515	14
259.0514	11
260.0305	44
260.0672	9
266.0761	12
267.0721	37
270.0514	19
271.0601	325
272.0555	14
273.0623	38
279.0601	42
284.0657	17
285.0623	22
286.0762	12
294.0832	31
298.0553	9
299.0742	15
300.0881	22
301.0577	15
314.0903	631
315.0732	16
322.078	43
324.0742	10
327.0616	10
340.0676	13
342.0855	999
362.091	38
