Mass spectrum: Fluconazole; LC-ESI-QTOF; MS2; 110 V
Name: Fluconazole
Class: Pharmaceutical
Formula: C13H12F2N6O
Exact mass: 306.1041
SMILES: OC(Cn1cncn1)(Cn2cncn2)c3ccc(F)cc3F
InChI: InChI=1S/C13H12F2N6O/c14-10-1-2-11(12(15)3-10)13(22,4-20-8-16-6-18-20)5-21-9-17-7-19-21/h1-3,6-9,22H,4-5H2
Instrument: TripleTOF 5600 SCIEX
Instrument type: LC-ESI-QTOF
Ms type: MS2
Ion mode: POSITIVE
Collision energy: 110
Fragmentation mode: CID
Ionization: ESI
Column name: Zorbax Eclipse Plus C18 2.1 mm x 150 mm, 3.5 um, Agilent
Retention time: 6.343 min
Precursor m/z: 307.1113
Precursor type: [M+H]+
m/z	relative intensity
43.0461	25
51.0091	50
51.0291	95
57.0182	120
69.019	38
70.0429	591
70.0624	38
73.0106	31
74.018	445
75.0089	89
75.0256	999
77.0401	25
81.0149	101
82.0421	63
93.014	159
95.0304	146
98.0153	559
99.0043	31
99.0231	585
101.0207	254
101.0374	114
105.0126	25
107.0289	184
113.0198	89
119.0294	114
120.0396	44
125.02	133
127.0343	139
131.0278	63
141.0223	31
151.0338	63
