Mass spectrum: Penconazol; LC-ESI-QTOF; MS2; 140 V
Name: Penconazol
Class: Fungicide
Formula: C13H15Cl2N3
Exact mass: 283.0643
SMILES: CCCC(CN1C=NC=N1)C2=C(C=C(C=C2)Cl)Cl
InChI: InChI=1S/C13H15Cl2N3/c1-2-3-10(7-18-9-16-8-17-18)12-5-4-11(14)6-13(12)15/h4-6,8-10H,2-3,7H2,1H3
Instrument: TripleTOF 6600 SCIEX
Instrument type: LC-ESI-QTOF
Ms type: MS2
Ion mode: POSITIVE
Collision energy: 140
Fragmentation mode: CID
Ionization: ESI
Column name: Zorbax Eclipse Plus C18 2.1 mm x 150 mm, 3.5 um, Agilent
Retention time: 12.845 min
Precursor m/z: 284.0716
Precursor type: [M+H]+
m/z	relative intensity
35.9995	21
37.0076	90
38.0153	86
39.0231	146
42.0213	48
43.0294	238
46.9683	196
48.9841	121
49.0068	43
50.0151	239
51.023	122
52.0304	11
59.9997	65
61.0075	469
62.0154	964
63.0232	999
70.0403	126
71.9759	44
72.9842	704
73.0051	30
74.0152	542
75.023	209
76.0305	56
77.0385	26
82.9445	106
83.9762	19
83.9991	10
84.9834	14
85.0073	47
86.0146	113
87.023	69
88.0303	41
89.0386	437
95.9764	12
96.9837	82
98.0158	41
99.0013	27
102.0459	19
106.9449	17
115.0538	11
122.9999	16
