Mass spectrum: Sertraline; LC-ESI-QTOF; MS2; 120 V
Name: Sertraline
Class: Pharmaceutical
Formula: C17H17Cl2N
Exact mass: 305.0738
SMILES: CN[C@H]1CC[C@H](c2c1cccc2)c3ccc(c(c3)Cl)Cl
InChI: InChI=1S/C17H17Cl2N/c1-20-17-9-7-12(13-4-2-3-5-14(13)17)11-6-8-15(18)16(19)10-11/h2-6,8,10,12,17,20H,7,9H2,1H3/t12-,17-/m0/s1
Instrument: TripleTOF 5600 SCIEX
Instrument type: LC-ESI-QTOF
Ms type: MS2
Ion mode: POSITIVE
Collision energy: 120
Fragmentation mode: CID
Ionization: ESI
Column name: Zorbax Eclipse Plus C18 2.1 mm x 150 mm, 3.5 um, Agilent
Retention time: 8.925 min
Precursor m/z: 306.0811
Precursor type: [M+H]+
m/z	relative intensity
48.9898	19
65.0412	34
72.9882	352
74.0186	13
75.0266	34
76.0341	21
77.0412	110
78.0494	39
82.9477	84
85.0109	14
86.0179	42
87.0247	44
88.0329	107
89.0412	999
91.0566	34
95.9789	13
96.9853	218
98.0158	24
99.0009	107
101.039	47
102.0471	192
106.9463	35
113.039	11
115.055	65
122.9999	226
124.0074	39
126.0466	71
127.055	216
128.0627	492
129.0727	9
132.9613	81
137.0388	11
139.0545	14
150.0475	47
151.0539	30
152.0624	19
158.9782	21
162.0468	22
163.0545	91
174.0453	16
175.056	14
176.0621	40
187.0546	104
188.0633	50
189.0697	96
200.0627	101
201.0692	70
202.0772	104
