Mass spectrum: Sulfapyridine; LC-ESI-QTOF; MS2; 20 V
Name: Sulfapyridine
Class: Antimicrobial; Pharmaceutical
Formula: C11H11N3O2S
Exact mass: 249.0572
SMILES: C1=CC=NC(=C1)NS(=O)(=O)C2=CC=C(C=C2)N
InChI: InChI=1S/C11H11N3O2S/c12-9-4-6-10(7-5-9)17(15,16)14-11-3-1-2-8-13-11/h1-8H,12H2,(H,13,14)
Instrument: TripleTOF 5600 SCIEX
Instrument type: LC-ESI-QTOF
Ms type: MS2
Ion mode: POSITIVE
Collision energy: 20
Fragmentation mode: CID
Ionization: ESI
Column name: Zorbax Eclipse Plus C18 2.1 mm x 150 mm, 3.5 um, Agilent
Retention time: 5.55 min
Precursor m/z: 250.0645
Precursor type: [M+H]+
m/z	relative intensity
92.0511	106
93.0577	12
94.0538	12
95.0619	114
108.0437	133
156.0089	612
157.0041	141
184.0837	360
186.1001	11
250.0591	999
