Mass spectrum: N-[4-(1H-benzimidazol-2-yl)phenyl]-N,N-dimethylamine; LC-ESI-QTOF; MS2; 130 V
Name: N-[4-(1H-benzimidazol-2-yl)phenyl]-N,N-dimethylamine
Class: Pharmaceutical
Formula: C15H15N3
Exact mass: 237.1266
SMILES: CN(C)C1=CC=C(C=C1)C2=NC3=CC=CC=C3N2
InChI: InChI=1S/C15H15N3/c1-18(2)12-9-7-11(8-10-12)15-16-13-5-3-4-6-14(13)17-15/h3-10H,1-2H3,(H,16,17)
Instrument: TripleTOF 5600 SCIEX
Instrument type: LC-ESI-QTOF
Ms type: MS2
Ion mode: POSITIVE
Collision energy: 130
Fragmentation mode: CID
Ionization: ESI
Column name: Zorbax Eclipse Plus C18 2.1 mm x 150 mm, 3.5 um, Agilent
Retention time: 6.517 min
Precursor m/z: 238.1339
Precursor type: [M+H]+
m/z	relative intensity
52.0285	205
64.0374	221
65.0287	19
65.0461	999
74.0202	292
75.0276	339
76.0239	232
77.0438	272
85.0112	19
86.0191	82
87.0265	181
88.0303	126
89.042	627
90.0364	75
91.0445	134
92.0527	98
98.0193	47
99.0248	39
100.0199	19
102.0361	153
104.05	23
111.0248	31
112.0228	47
113.0405	256
114.0365	75
115.0559	94
116.0482	35
118.054	27
126.0473	27
129.046	19
137.0396	209
138.0431	244
139.0539	379
140.0509	232
142.0538	23
143.0606	31
153.0459	31
163.0484	31
164.0494	568
165.0507	134
166.0654	82
167.0641	47
189.0457	23
190.0516	19
191.0627	106
192.0686	86
