Mass spectrum: 2-Propinyl-triphenylphosphonium; LC-ESI-QTOF; MS2; 140 V
Name: 2-Propinyl-triphenylphosphonium
Formula: [C21H18P]+
Exact mass: 301.1141
SMILES: C#CC[P+](C1=CC=CC=C1)(C2=CC=CC=C2)C3=CC=CC=C3
InChI: InChI=1S/C21H18P/c1-2-18-22(19-12-6-3-7-13-19,20-14-8-4-9-15-20)21-16-10-5-11-17-21/h1,3-17H,18H2/q+1
Instrument: TripleTOF 6600 SCIEX
Instrument type: LC-ESI-QTOF
Ms type: MS2
Ion mode: POSITIVE
Collision energy: 140
Fragmentation mode: CID
Ionization: ESI
Column name: Zorbax Eclipse Plus C18 2.1 mm x 150 mm, 3.5 um, Agilent
Retention time: 7.928 min
Precursor m/z: 301.1141
Precursor type: [M]+
m/z	relative intensity
39.022	180
49.0059	138
50.0135	631
51.0214	999
55.9787	112
56.9866	177
61.0051	119
62.013	240
63.0207	566
65.0362	151
67.9786	272
68.9861	180
74.0123	250
75.0198	109
76.0275	144
77.0357	463
78.9698	110
79.978	414
80.9854	453
86.0109	126
87.0191	151
89.0346	364
91.9769	175
98.0112	121
102.0426	151
102.9689	56
103.9774	126
104.9851	51
107.0008	575
113.0348	109
115.0509	278
126.0424	178
131.0015	81
137.0348	56
139.0515	171
144.0092	75
149.0355	51
150.0431	371
151.0508	286
152.0592	129
155.0007	51
157.0183	72
161.0357	78
162.0438	119
163.0512	380
176.0599	67
179.0022	76
180.0088	69
181.0175	129
187.0514	199
188.0587	50
189.0672	64
205.0174	122
