Mass spectrum: 16alpha-hydroxyestrone; LC-ESI-QTOF; MS2; 80 V
Name: 16alpha-hydroxyestrone
Class: Pharmaceutical; Metabolite
Formula: C18H22O3
Exact mass: 286.1569
SMILES: C[C@]12CC[C@@H]3[C@H](CCc4cc(O)ccc34)[C@H]1C[C@@H](O)C2=O
InChI: InChI=1S/C18H22O3/c1-18-7-6-13-12-5-3-11(19)8-10(12)2-4-14(13)15(18)9-16(20)17(18)21/h3,5,8,13-16,19-20H,2,4,6-7,9H2,1H3/t13-,14-,15+,16+,18-/m0/s1
Instrument: TripleTOF 5600 SCIEX
Instrument type: LC-ESI-QTOF
Ms type: MS2
Ion mode: POSITIVE
Collision energy: 80
Fragmentation mode: CID
Ionization: ESI
Column name: Zorbax Eclipse Plus C18 2.1 mm x 150 mm, 3.5 um, Agilent
Retention time: 8.67 min
Precursor m/z: 287.1642
Precursor type: [M+H]+
m/z	relative intensity
43.0272	31
53.0443	11
55.0241	22
55.0599	10
65.0436	74
67.0587	37
77.0427	696
78.0489	15
79.0578	242
81.0722	14
89.0406	61
91.0568	311
94.0427	32
101.0394	11
102.0471	30
103.0556	284
105.0711	298
107.05	222
115.0549	999
116.0627	267
117.0697	27
118.0405	12
126.0465	33
127.0549	361
128.0626	617
129.0698	127
131.0498	239
131.0837	14
132.0568	29
133.065	104
139.0542	47
141.0701	188
144.0575	426
145.0649	27
150.0464	11
151.0545	88
152.0627	327
153.07	145
154.0771	16
155.0853	20
157.0654	235
158.0718	17
159.0808	18
163.0546	20
164.0624	33
165.0707	436
166.0778	26
167.0851	21
168.0577	14
169.0655	44
170.072	12
171.0805	12
176.0624	69
177.0703	51
178.0783	147
179.0852	26
181.0652	177
182.0724	20
183.0805	27
189.0706	48
190.0784	15
191.0854	15
194.0722	34
195.0798	12
202.0782	40
203.086	11
205.0656	14
207.08	18
219.0796	10
