Mass spectrum: Fenoxycarb; LC-ESI-QTOF; MS2; 70 V
Name: Fenoxycarb
Class: Insecticide
Formula: C17H19NO4
Exact mass: 301.1314
SMILES: CCOC(=O)NCCOc1ccc(Oc2ccccc2)cc1
InChI: InChI=1S/C17H19NO4/c1-2-20-17(19)18-12-13-21-14-8-10-16(11-9-14)22-15-6-4-3-5-7-15/h3-11H,2,12-13H2,1H3,(H,18,19)
Instrument: TripleTOF 5600 SCIEX
Instrument type: LC-ESI-QTOF
Ms type: MS2
Ion mode: POSITIVE
Collision energy: 70
Fragmentation mode: CID
Ionization: ESI
Column name: Zorbax Eclipse Plus C18 2.1 mm x 150 mm, 3.5 um, Agilent
Retention time: 13.067 min
Precursor m/z: 302.1387
Precursor type: [M+H]+
m/z	relative intensity
42.0446	70
44.0596	310
65.0431	42
66.0505	50
70.0325	97
77.0416	355
78.0487	11
79.0564	20
81.036	45
88.0415	999
89.0395	31
90.0477	15
91.0557	186
92.0629	10
94.0425	96
102.046	10
103.0546	10
105.0333	44
107.049	33
109.0284	54
110.0359	22
115.0541	391
116.0698	53
118.0411	32
119.0485	18
120.0564	30
127.0541	73
128.0616	216
129.069	81
131.0487	19
139.0535	44
140.0587	13
141.0696	86
151.0538	24
152.0613	63
153.069	11
157.0638	66
158.072	16
164.0615	11
165.0694	83
168.0567	27
169.0652	13
176.0617	20
181.0652	12
186.0667	25
197.0588	11
