Mass spectrum: Sulfamethazine; LC-ESI-QTOF; MS2; 60 V
Name: Sulfamethazine
Class: Antimicrobial; Pharmaceutical
Formula: C12H14N4O2S
Exact mass: 278.0837
SMILES: CC1=CC(=NC(=N1)NS(=O)(=O)C2=CC=C(C=C2)N)C
InChI: InChI=1S/C12H14N4O2S/c1-8-7-9(2)15-12(14-8)16-19(17,18)11-5-3-10(13)4-6-11/h3-7H,13H2,1-2H3,(H,14,15,16)
Instrument: TripleTOF 5600 SCIEX
Instrument type: LC-ESI-QTOF
Ms type: MS2
Ion mode: POSITIVE
Collision energy: 60
Fragmentation mode: CID
Ionization: ESI
Column name: Zorbax Eclipse Plus C18 2.1 mm x 150 mm, 3.5 um, Agilent
Retention time: 6.115 min
Precursor m/z: 279.091
Precursor type: [M+H]+
m/z	relative intensity
42.0448	21
53.047	33
54.0431	26
65.0468	999
66.0416	111
67.0365	116
68.0573	40
77.0423	10
78.0417	19
80.0555	510
81.0503	22
82.0711	114
83.067	27
92.0542	922
93.0622	69
95.0651	139
96.0717	69
105.0494	13
107.0641	396
108.048	775
122.0753	16
123.0825	28
124.0896	739
154.0656	20
156.0145	12
196.0886	28
197.0865	30
198.0924	19
213.1208	15
