Mass spectrum: 2-Hydroxycarbamazepine; LC-ESI-QTOF; MS2; 150 V
Name: 2-Hydroxycarbamazepine
Class: Pharmaceutical; Metabolite
Formula: C15H12N2O2
Exact mass: 252.0899
SMILES: NC(=O)N1c2ccccc2C=Cc3cc(O)ccc13
InChI: InChI=1S/C15H12N2O2/c16-15(19)17-13-4-2-1-3-10(13)5-6-11-9-12(18)7-8-14(11)17/h1-9,18H,(H2,16,19)
Instrument: TripleTOF 5600 SCIEX
Instrument type: LC-ESI-QTOF
Ms type: MS2
Ion mode: POSITIVE
Collision energy: 150
Fragmentation mode: CID
Ionization: ESI
Column name: Zorbax Eclipse Plus C18 2.1 mm x 150 mm, 3.5 um, Agilent
Retention time: 7.476 min
Precursor m/z: 253.0972
Precursor type: [M+H]+
m/z	relative intensity
52.0348	33
60.0045	66
65.0423	66
73.0093	125
74.0178	999
75.0133	46
75.0253	482
76.0326	79
77.0402	310
85.009	264
86.0167	489
87.0241	324
88.0187	59
88.0319	72
89.039	284
97.0066	59
98.0153	502
99.01	52
99.0222	191
100.0282	46
101.04	52
102.0451	72
109.0081	72
110.0142	185
111.0209	52
113.0389	112
114.0366	33
122.0152	86
123.0213	66
124.0312	33
125.039	59
126.0443	105
137.0374	79
138.0418	52
149.0361	46
150.046	211
151.054	105
152.0605	72
161.0372	72
162.0469	79
163.0527	72
175.0425	39
176.0483	46
176.0581	26
177.0582	26
188.048	39
