Mass spectrum: Metrafenone; LC-ESI-QTOF; MS2; 130 V
Name: Metrafenone
Class: Fungicide
Formula: C19H21BrO5
Exact mass: 408.0572
SMILES: CC1=CC(=C(C(=C1C(=O)C2=C(C=CC(=C2C)Br)OC)OC)OC)OC
InChI: InChI=1S/C19H21BrO5/c1-10-9-14(23-4)18(24-5)19(25-6)15(10)17(21)16-11(2)12(20)7-8-13(16)22-3/h7-9H,1-6H3
Instrument: TripleTOF 6600 SCIEX
Instrument type: LC-ESI-QTOF
Ms type: MS2
Ion mode: POSITIVE
Collision energy: 130
Fragmentation mode: CID
Ionization: ESI
Column name: Zorbax Eclipse Plus C18 2.1 mm x 150 mm, 3.5 um, Agilent
Retention time: 15.123 min
Precursor m/z: 409.0645
Precursor type: [M+H]+
m/z	relative intensity
37.0115	26
38.0191	29
39.0271	141
40.0337	9
41.0424	34
49.0102	21
50.0187	198
51.0267	582
52.0347	139
53.0069	9
53.0426	26
55.0214	19
61.0108	34
62.0186	63
63.0266	251
64.034	56
65.0068	34
65.0426	231
66.0135	16
66.0505	69
67.0216	56
67.0576	19
69.0009	19
73.011	13
74.0175	79
75.0266	141
76.0341	191
77.0066	19
77.0422	999
78.0502	59
79.0574	49
80.0293	84
89.0422	922
90.0499	133
91.0579	299
93.0004	83
93.0371	13
94.0452	63
95.0526	18
105.0362	106
106.045	9
107.0514	28
108.023	53
115.0576	21
116.935	16
119.0532	11
121.0314	21
122.0383	19
123.0451	24
135.0459	13
139.0547	26
151.0551	19
152.0637	19
154.9505	336
163.0533	9
165.0717	9
168.9641	11
182.9488	138
183.9509	9
