Mass spectrum: Promethazine; LC-ESI-QTOF; MS2; 30 V
Name: Promethazine
Class: Pharmaceutical
Formula: C17H20N2S
Exact mass: 284.1347
SMILES: CC(CN1c2ccccc2Sc3c1cccc3)N(C)C
InChI: InChI=1S/C17H20N2S/c1-13(18(2)3)12-19-14-8-4-6-10-16(14)20-17-11-7-5-9-15(17)19/h4-11,13H,12H2,1-3H3
Instrument: TripleTOF 5600 SCIEX
Instrument type: LC-ESI-QTOF
Ms type: MS2
Ion mode: POSITIVE
Collision energy: 30
Fragmentation mode: CID
Ionization: ESI
Column name: Zorbax Eclipse Plus C18 2.1 mm x 150 mm, 3.5 um, Agilent
Retention time: 7.995 min
Precursor m/z: 285.142
Precursor type: [M+H]+
m/z	relative intensity
56.0569	21
71.0793	112
84.0849	20
86.1022	869
162.0402	37
198.0419	999
207.1071	19
225.0653	37
240.0895	221
285.148	10
