Mass spectrum: Flutamide; LC-ESI-QTOF; MS2; 70 V
Name: Flutamide
Class: Pharmaceutical
Formula: C11H11F3N2O3
Exact mass: 276.0722
SMILES: CC(C)C(=O)NC1=CC(=C(C=C1)[N+](=O)[O-])C(F)(F)F
InChI: InChI=1S/C11H11F3N2O3/c1-6(2)10(17)15-7-3-4-9(16(18)19)8(5-7)11(12,13)14/h3-6H,1-2H3,(H,15,17)
Instrument: TripleTOF 6600 SCIEX
Instrument type: LC-ESI-QTOF
Ms type: MS2
Ion mode: POSITIVE
Collision energy: 70
Fragmentation mode: CID
Ionization: ESI
Column name: Zorbax Eclipse Plus C18 2.1 mm x 150 mm, 3.5 um, Agilent
Retention time: 12.297 min
Precursor m/z: 277.0795
Precursor type: [M+H]+
m/z	relative intensity
37.0061	31
38.0023	31
38.0156	24
39.0226	304
40.0065	18
41.0382	999
43.054	912
53.0131	12
65.0385	62
75.0208	18
83.0282	37
84.0353	99
88.0116	49
91.0406	43
92.0486	37
95.0271	24
99.0037	12
100.0159	12
101.019	12
101.0444	18
102.0458	12
111.0472	409
113.0186	43
114.0256	316
115.033	24
120.02	12
122.039	37
125.0201	24
132.0131	12
133.0236	37
133.0374	12
134.0334	18
140.0282	80
141.0243	12
141.0375	43
142.0447	434
143.0068	24
145.0272	12
148.0367	18
160.0346	136
161.0421	80
192.0634	12
