Mass spectrum: Carbamazepine; LC-ESI-QTOF; MS2; 150 V
Name: Carbamazepine
Class: Pharmaceutical
Formula: C15H12N2O
Exact mass: 236.095
SMILES: NC(=O)N1c2ccccc2C=Cc3ccccc13
InChI: InChI=1S/C15H12N2O/c16-15(18)17-13-7-3-1-5-11(13)9-10-12-6-2-4-8-14(12)17/h1-10H,(H2,16,18)
Instrument: TripleTOF 5600 SCIEX
Instrument type: LC-ESI-QTOF
Ms type: MS2
Ion mode: POSITIVE
Collision energy: 150
Fragmentation mode: CID
Ionization: ESI
Column name: Zorbax Eclipse Plus C18 2.1 mm x 150 mm, 3.5 um, Agilent
Retention time: 8.87 min
Precursor m/z: 237.1022
Precursor type: [M+H]+
m/z	relative intensity
44.0263	31
60.0046	106
65.0432	56
73.0102	194
74.0183	999
75.0128	31
75.0265	289
76.0338	62
77.0419	37
84.0024	94
85.0108	320
86.0167	659
87.0239	295
88.0187	62
88.0322	31
89.0399	289
97.0078	125
98.016	615
99.0231	106
100.0252	43
107.9999	25
109.0064	182
110.0147	320
111.0226	157
112.0233	25
113.0382	119
114.0362	31
115.0554	50
121.0059	43
122.0159	163
123.0162	50
126.0448	37
134.0171	81
137.0379	69
138.0423	43
139.052	31
150.0456	37
161.0366	150
162.0484	175
163.0563	150
164.0543	31
188.0484	87
189.0519	50
