Mass spectrum: Iopromide; LC-ESI-QTOF; MS2; 120 V
Name: Iopromide
Class: Pharmaceutical
Formula: C18H24I3N3O8
Exact mass: 790.8698
SMILES: COCC(=O)Nc1c(I)c(C(=O)NCC(O)CO)c(I)c(c1I)C(=O)N(C)CC(O)CO
InChI: InChI=1S/C18H24I3N3O8/c1-24(4-9(28)6-26)18(31)12-13(19)11(17(30)22-3-8(27)5-25)14(20)16(15(12)21)23-10(29)7-32-2/h8-9,25-28H,3-7H2,1-2H3,(H,22,30)(H,23,29)
Instrument: TripleTOF 5600 SCIEX
Instrument type: LC-ESI-QTOF
Ms type: MS2
Ion mode: POSITIVE
Collision energy: 120
Fragmentation mode: CID
Ionization: ESI
Column name: Zorbax Eclipse Plus C18 2.1 mm x 150 mm, 3.5 um, Agilent
Retention time: 4.895 min
Precursor m/z: 791.877
Precursor type: [M+H]+
m/z	relative intensity
88.019	68
89.0258	127
100.0186	68
101.0255	117
101.9998	58
102.0345	48
103.0391	48
113.9959	58
116.012	88
116.036	48
117.0206	538
126.9052	39
128.0127	68
129.0187	48
130.0525	48
141.9916	215
144.0073	58
145.0146	156
152.9202	68
158.0205	78
159.0301	39
159.0569	68
171.0215	48
172.0014	146
172.0272	78
173.0099	176
174.0221	39
176.9225	48
177.9129	88
188.0337	48
200.9061	68
203.93	78
212.9042	39
215.9307	68
226.9243	117
227.9275	127
228.9193	39
240.905	39
242.9158	78
243.9235	215
255.9235	264
269.9413	58
271.9186	411
282.9166	88
298.9091	58
298.933	58
299.9146	999
312.953	48
313.9332	78
327.8124	68
339.8103	68
354.8409	78
381.8239	39
423.7893	39
423.813	58
