Mass spectrum: Dienogest Impurity G; LC-ESI-QTOF; MS2; 40 V
Name: Dienogest Impurity G
Class: Pharmaceutical
Formula: C20H23NO2
Exact mass: 309.1729
SMILES: CC12CC=C3C(C1CCC2(CC#N)O)CCC4=C3C=CC(=C4)O
InChI: InChI=1S/C20H23NO2/c1-19-8-6-16-15-5-3-14(22)12-13(15)2-4-17(16)18(19)7-9-20(19,23)10-11-21/h3,5-6,12,17-18,22-23H,2,4,7-10H2,1H3
Instrument: TripleTOF 6600 SCIEX
Instrument type: LC-ESI-QTOF
Ms type: MS2
Ion mode: POSITIVE
Collision energy: 40
Fragmentation mode: CID
Ionization: ESI
Column name: Zorbax Eclipse Plus C18 2.1 mm x 150 mm, 3.5 um, Agilent
Retention time: 9.956 min
Precursor m/z: 310.1802
Precursor type: [M+H]+
m/z	relative intensity
67.0535	12
77.0376	27
79.0533	46
81.069	28
91.0536	94
93.0691	30
95.0839	26
97.0638	31
103.0534	13
105.0687	149
107.0479	44
107.0845	31
108.0806	30
109.0633	13
115.0531	28
116.0601	13
117.0683	16
119.0849	42
120.0794	12
121.0643	27
122.097	9
123.0797	55
127.0535	13
128.0603	19
129.0683	27
130.0698	11
131.0487	41
131.0844	107
132.0565	11
132.0794	34
133.0638	573
134.0963	12
141.0686	75
143.083	16
144.0566	126
145.064	61
145.0986	13
146.0954	56
147.0798	77
148.1101	11
155.0591	11
157.0641	509
158.0707	13
159.0799	999
160.0791	23
161.0944	12
161.1195	16
165.0692	15
169.0741	39
171.0795	41
173.0949	35
174.0921	15
175.073	12
181.0647	19
182.0703	13
183.08	34
185.0947	20
193.1	13
194.0715	13
195.0796	42
196.0881	20
197.0942	26
198.101	34
207.0796	19
208.0886	13
209.0967	63
210.1031	20
211.1102	31
212.1145	22
221.0943	13
223.1099	34
225.1276	12
227.1445	11
233.0968	17
234.1023	22
236.1182	22
237.1272	45
241.1231	19
245.0951	19
247.1127	11
249.1252	15
251.142	83
252.1516	37
260.1181	20
264.1364	11
265.1593	11
269.1499	11
275.1456	19
292.1695	22
310.179	12
