Mass spectrum: Imazamox; LC-ESI-QTOF; MS2; 30 V
Name: Imazamox
Class: Herbicide
Formula: C15H19N3O4
Exact mass: 305.1376
SMILES: CC(C)C1(C(=O)NC(=N1)C2=C(C=C(C=N2)COC)C(=O)O)C
InChI: InChI=1S/C15H19N3O4/c1-8(2)15(3)14(21)17-12(18-15)11-10(13(19)20)5-9(6-16-11)7-22-4/h5-6,8H,7H2,1-4H3,(H,19,20)(H,17,18,21)
Instrument: TripleTOF 6600 SCIEX
Instrument type: LC-ESI-QTOF
Ms type: MS2
Ion mode: POSITIVE
Collision energy: 30
Fragmentation mode: CID
Ionization: ESI
Column name: Zorbax Eclipse Plus C18 2.1 mm x 150 mm, 3.5 um, Agilent
Retention time: 6.853 min
Precursor m/z: 306.1448
Precursor type: [M+H]+
m/z	relative intensity
69.0687	124
86.0948	216
149.0688	40
163.0481	54
175.0487	15
191.0797	40
192.0747	122
193.0595	496
217.132	112
218.091	137
219.1104	29
220.105	25
235.0933	21
243.1115	92
245.077	12
246.0865	595
260.1381	173
261.1229	999
263.0883	18
264.0969	409
278.1488	144
288.1327	14
306.1443	535
