Mass spectrum: Demeclocycline; LC-ESI-QTOF; MS2; 80 V
Name: Demeclocycline
Class: Antimicrobial; Pharmaceutical
Formula: C21H21ClN2O8
Exact mass: 464.0986
SMILES: CN(C)C1C2CC3C(C4=C(C=CC(=C4C(=C3C(=O)C2(C(=C(C1=O)C(=O)N)O)O)O)O)Cl)O
InChI: InChI=1S/C21H21ClN2O8/c1-24(2)14-7-5-6-10(16(27)12-9(25)4-3-8(22)11(12)15(6)26)18(29)21(7,32)19(30)13(17(14)28)20(23)31/h3-4,6-7,14-15,25-27,30,32H,5H2,1-2H3,(H2,23,31)
Instrument: TripleTOF 5600 SCIEX
Instrument type: LC-ESI-QTOF
Ms type: MS2
Ion mode: POSITIVE
Collision energy: 80
Fragmentation mode: CID
Ionization: ESI
Column name: Zorbax Eclipse Plus C18 2.1 mm x 150 mm, 3.5 um, Agilent
Retention time: 5.787 min
Precursor m/z: 465.1059
Precursor type: [M+H]+
m/z	relative intensity
70.0716	139
98.0624	599
139.0568	119
141.0742	119
152.0607	739
164.0634	119
165.0672	119
166.0484	159
168.058	819
169.0665	159
170.0687	79
173.0174	119
176.0646	99
179.0481	99
180.0552	199
181.0609	99
182.07	99
185.019	119
187.0319	519
192.052	219
194.0787	99
196.0502	439
197.06	439
198.0681	959
199.031	319
210.0608	279
213.006	159
213.0524	99
215.022	619
220.0478	99
221.0586	139
222.0668	139
224.0445	259
226.0636	939
227.0216	199
231.019	999
238.0646	159
239.0239	159
242.0599	99
243.0108	139
243.0235	219
245.0335	99
250.0612	199
252.0362	399
255.026	219
259.0164	239
261.0302	939
267.0169	99
271.0137	279
278.06	119
287.0046	99
289.0268	99
313.0306	179
