Mass spectrum: 4-Methoxycinnamaldehyde; LC-ESI-QTOF; MS2; 100 V
Name: 4-Methoxycinnamaldehyde
Formula: C10H10O2
Exact mass: 162.0681
SMILES: COC1=CC=C(C=C1)C=CC=O
InChI: InChI=1S/C10H10O2/c1-12-10-6-4-9(5-7-10)3-2-8-11/h2-8H,1H3
Instrument: TripleTOF 6600 SCIEX
Instrument type: LC-ESI-QTOF
Ms type: MS2
Ion mode: POSITIVE
Collision energy: 100
Fragmentation mode: CID
Ionization: ESI
Column name: Zorbax Eclipse Plus C18 2.1 mm x 150 mm, 3.5 um, Agilent
Retention time: 9.471 min
Precursor m/z: 163.0754
Precursor type: [M+H]+
m/z	relative intensity
37.0075	374
38.0162	196
39.0233	999
40.0269	107
49.0078	107
50.0154	677
51.0221	553
52.0282	89
61.0067	160
62.0154	338
63.0235	374
64.0263	89
65.0388	196
74.0141	196
75.0226	89
