Mass spectrum: 2-(2-Methoxyphenyl)-1H-Benzimidazole; LC-ESI-QTOF; MS2; 90 V
Name: 2-(2-Methoxyphenyl)-1H-Benzimidazole
Class: Pharmaceutical
Formula: C14H12N2O
Exact mass: 224.095
SMILES: COc1ccccc1c2[nH]c3ccccc3n2
InChI: InChI=1S/C14H12N2O/c1-17-13-9-5-2-6-10(13)14-15-11-7-3-4-8-12(11)16-14/h2-9H,1H3,(H,15,16)
Instrument: TripleTOF 5600 SCIEX
Instrument type: LC-ESI-QTOF
Ms type: MS2
Ion mode: POSITIVE
Collision energy: 90
Fragmentation mode: CID
Ionization: ESI
Column name: Zorbax Eclipse Plus C18 2.1 mm x 150 mm, 3.5 um, Agilent
Retention time: 6.225 min
Precursor m/z: 225.1022
Precursor type: [M+H]+
m/z	relative intensity
51.0289	214
52.0248	20
52.0367	14
64.0342	50
64.0568	14
65.0301	14
65.0437	999
66.0371	16
74.018	50
74.0395	10
75.0124	12
75.0258	181
76.0204	38
76.034	232
77.0419	791
77.0881	14
78.0364	42
78.0485	26
87.0261	10
88.0307	12
89.0415	38
90.0363	55
91.0428	146
92.0509	303
99.0231	12
101.0391	97
102.0347	381
103.0426	464
104.0504	85
105.0438	14
113.038	14
114.0332	16
114.0466	14
115.041	20
115.0525	20
116.0497	38
117.0574	16
118.0514	48
119.06	32
125.037	36
126.0466	93
127.0538	205
128.049	279
129.0453	154
129.0564	132
130.0404	46
130.0635	42
131.0595	108
132.0702	14
140.0485	36
141.0617	14
142.0516	50
143.0597	167
151.0423	10
152.0476	73
153.0564	136
154.0643	161
155.06	240
156.0666	53
156.0844	16
164.0506	12
167.0679	12
168.0685	32
169.0777	22
179.0596	258
180.0667	159
181.0753	234
