Mass spectrum: O-desmethyl-metoprolol; LC-ESI-QTOF; MS2; 80 V
Name: O-desmethyl-metoprolol
Class: Pharmaceutical; Metabolite; Transformation_product; Transformation_product-Metabolite
Formula: C14H23NO3
Exact mass: 253.1678
SMILES: CC(C)NCC(O)COc1ccc(CCO)cc1
InChI: InChI=1S/C14H23NO3/c1-11(2)15-9-13(17)10-18-14-5-3-12(4-6-14)7-8-16/h3-6,11,13,15-17H,7-10H2,1-2H3
Instrument: TripleTOF 5600 SCIEX
Instrument type: LC-ESI-QTOF
Ms type: MS2
Ion mode: POSITIVE
Collision energy: 80
Fragmentation mode: CID
Ionization: ESI
Column name: Zorbax Eclipse Plus C18 2.1 mm x 150 mm, 3.5 um, Agilent
Retention time: 5.112 min
Precursor m/z: 254.1751
Precursor type: [M+H]+
m/z	relative intensity
56.0562	82
58.0724	30
65.0438	113
72.0862	15
74.0642	12
77.0419	999
78.049	21
79.0571	63
89.0405	30
91.056	295
102.0466	48
103.0546	110
105.0699	13
107.0496	11
115.0543	167
116.0622	13
127.0533	10
128.0599	22
