Mass spectrum: Indoxacarb; LC-ESI-QTOF; MS2; 50 V
Name: Indoxacarb
Class: Insecticide
Formula: C22H17ClF3N3O7
Exact mass: 527.0707
SMILES: COC(=O)[C@]12Cc3cc(ccc3C1=NN(CO2)C(=O)N(c4ccc(cc4)OC(F)(F)F)C(=O)OC)Cl
InChI: InChI=1S/C22H17ClF3N3O7/c1-33-18(30)21-10-12-9-13(23)3-8-16(12)17(21)27-28(11-35-21)19(31)29(20(32)34-2)14-4-6-15(7-5-14)36-22(24,25)26/h3-9H,10-11H2,1-2H3/t21-/m0/s1
Instrument: TripleTOF 5600 SCIEX
Instrument type: LC-ESI-QTOF
Ms type: MS2
Ion mode: POSITIVE
Collision energy: 50
Fragmentation mode: CID
Ionization: ESI
Column name: Zorbax Eclipse Plus C18 2.1 mm x 150 mm, 3.5 um, Agilent
Retention time: 15.019 min
Precursor m/z: 528.078
Precursor type: [M+H]+
m/z	relative intensity
56.0205	97
59.0189	26
75.0474	14
77.0421	11
81.0174	20
104.0509	67
115.0546	10
123.0004	13
126.0391	11
127.0448	34
128.0627	29
132.0454	131
134.0247	51
137.0162	22
141.0586	10
142.0649	18
149.0162	48
150.0118	711
155.0612	48
160.0514	27
161.0161	31
162.0117	381
163.0314	48
164.0269	55
165.0342	17
167.0267	77
174.9995	39
176.0255	37
177.0333	67
179.0266	84
189.0222	180
190.0075	459
192.021	17
195.0221	166
203.0199	999
204.0096	70
207.0229	115
214.0749	10
215.0434	25
216.027	11
217.0177	210
218.0434	413
219.0336	305
223.0167	68
230.9967	36
249.0436	37
263.0227	23
390.025	11
