Mass spectrum: Inabenfide; LC-ESI-QTOF; MS2; 40 V
Name: Inabenfide
Formula: C19H15ClN2O2
Exact mass: 338.0822
SMILES: C1=CC=C(C=C1)C(C2=C(C=CC(=C2)Cl)NC(=O)C3=CC=NC=C3)O
InChI: InChI=1S/C19H15ClN2O2/c20-15-6-7-17(22-19(24)14-8-10-21-11-9-14)16(12-15)18(23)13-4-2-1-3-5-13/h1-12,18,23H,(H,22,24)
Instrument: TripleTOF 6600 SCIEX
Instrument type: LC-ESI-QTOF
Ms type: MS2
Ion mode: POSITIVE
Collision energy: 40
Fragmentation mode: CID
Ionization: ESI
Column name: Zorbax Eclipse Plus C18 2.1 mm x 150 mm, 3.5 um, Agilent
Retention time: 10.231 min
Precursor m/z: 339.0895
Precursor type: [M+H]+
m/z	relative intensity
79.0407	155
80.0487	747
108.043	20
166.0043	17
167.0717	19
168.0802	20
169.0872	56
179.072	13
181.0751	23
200.0255	11
207.0669	34
208.0626	14
214.0414	216
215.0366	76
216.044	29
231.1022	10
241.0874	22
242.0359	18
243.0319	23
243.103	31
244.0393	198
251.0491	13
253.0636	14
256.0997	15
257.1063	68
258.114	106
264.0565	16
266.0735	29
268.0996	22
269.0826	10
276.0571	32
277.0655	13
278.0719	38
279.0801	38
285.1025	40
286.1103	86
291.0676	20
292.0759	66
293.0837	118
294.0654	14
303.0671	13
305.0594	11
320.0708	19
320.1008	10
321.0797	999
