Mass spectrum: Etrimfos; LC-ESI-QTOF; MS2; 60 V
Name: Etrimfos
Class: Insecticide
Formula: C10H17N2O4PS
Exact mass: 292.0647
SMILES: CCC1=NC(=CC(=N1)OP(=S)(OC)OC)OCC
InChI: InChI=1S/C10H17N2O4PS/c1-5-8-11-9(15-6-2)7-10(12-8)16-17(18,13-3)14-4/h7H,5-6H2,1-4H3
Instrument: TripleTOF 6600 SCIEX
Instrument type: LC-ESI-QTOF
Ms type: MS2
Ion mode: POSITIVE
Collision energy: 60
Fragmentation mode: CID
Ionization: ESI
Column name: Zorbax Eclipse Plus C18 2.1 mm x 150 mm, 3.5 um, Agilent
Retention time: 14.241 min
Precursor m/z: 293.072
Precursor type: [M+H]+
m/z	relative intensity
40.0177	12
44.979	306
45.9859	13
46.993	885
56.0489	210
62.0177	68
62.9981	23
64.9773	15
68.0123	235
70.0647	29
78.9935	999
93.0085	71
94.004	44
100.0379	25
109.0037	357
109.9817	17
110.9653	364
123.0544	12
124.981	680
127.0139	48
134.9646	19
142.9914	36
