Mass spectrum: Butylphosphonic acid; LC-ESI-QTOF; MS2; 30 V
Name: Butylphosphonic acid
Formula: C4H11O3P
Exact mass: 138.0446
SMILES: CCCCP(=O)(O)O
InChI: InChI=1S/C4H11O3P/c1-2-3-4-8(5,6)7/h2-4H2,1H3,(H2,5,6,7)
Instrument: TripleTOF 5600 SCIEX
Instrument type: LC-ESI-QTOF
Ms type: MS2
Ion mode: POSITIVE
Collision energy: 30
Fragmentation mode: CID
Ionization: ESI
Column name: Zorbax Eclipse Plus C18 2.1 mm x 150 mm, 3.5 um, Agilent
Retention time: 4.77 min
Precursor m/z: 139.0519
Precursor type: [M+H]+
m/z	relative intensity
37.0075	21
38.0139	43
39.0228	282
41.0388	651
42.0349	21
46.9691	65
53.0371	21
55.0544	999
57.0699	803
60.9889	43
64.9786	955
66.9941	65
80.9742	43
81.9836	65
82.9897	238
85.0188	65
86.9989	21
93.0103	108
95.9984	86
103.0321	21
111.019	43
111.0259	21
120.9517	152
121.0411	738
123.0197	43
139.0495	173
