Mass spectrum: Citric acid; LC-ESI-QTOF; MS2; 60 V
Name: Citric acid
Formula: C6H8O7
Exact mass: 192.027
SMILES: OC(CC(O)(C(O)=O)CC(O)=O)=O
InChI: InChI=1S/C6H8O7/c7-3(8)1-6(13,5(11)12)2-4(9)10/h13H,1-2H2,(H,7,8)(H,9,10)(H,11,12)
Instrument: TripleTOF 5600 SCIEX
Instrument type: LC-ESI-QTOF
Ms type: MS2
Ion mode: NEGATIVE
Collision energy: 60
Fragmentation mode: CID
Ionization: ESI
Column name: Zorbax Eclipse Plus C18 2.1 mm x 150 mm, 3.5 um, Agilent
Retention time: 2.078 min
Precursor m/z: 191.0197
Precursor type: [M-H]-
m/z	relative intensity
41.0032	432
43.0191	178
57.0343	670
59.0139	119
67.0179	164
85.0297	342
87.0087	999
111.008	89
