Mass spectrum: Candesartan; LC-ESI-QTOF; MS2; 40 V
Name: Candesartan
Class: Pharmaceutical
Formula: C24H20N6O3
Exact mass: 440.1597
SMILES: CCOc1nc2cccc(C(O)=O)c2n1Cc3ccc(cc3)c4ccccc4c5n[nH]nn5
InChI: InChI=1S/C24H20N6O3/c1-2-33-24-25-20-9-5-8-19(23(31)32)21(20)30(24)14-15-10-12-16(13-11-15)17-6-3-4-7-18(17)22-26-28-29-27-22/h3-13H,2,14H2,1H3,(H,31,32)(H,26,27,28,29)
Instrument: TripleTOF 5600 SCIEX
Instrument type: LC-ESI-QTOF
Ms type: MS2
Ion mode: POSITIVE
Collision energy: 40
Fragmentation mode: CID
Ionization: ESI
Column name: Zorbax Eclipse Plus C18 2.1 mm x 150 mm, 3.5 um, Agilent
Retention time: 10.001 min
Precursor m/z: 441.167
Precursor type: [M+H]+
m/z	relative intensity
140.0492	22
147.055	10
151.0534	12
152.0617	63
153.0694	112
161.0343	113
163.0527	24
164.0635	10
165.07	279
166.075	22
167.0845	89
173.0351	37
177.0636	55
178.0773	282
179.077	71
180.0811	371
189.066	97
190.0654	414
191.0424	16
191.0735	174
192.0805	999
193.0884	237
194.096	378
203.0733	11
205.0762	136
206.0839	285
207.0922	911
208.1119	121
217.0874	37
218.0964	112
219.0918	85
220.0989	122
233.0705	17
233.1082	50
234.1157	173
235.1219	545
262.1117	14
263.1298	513
281.107	13
282.0923	11
282.1099	10
295.0921	10
297.1043	12
307.0883	11
308.0943	12
308.1193	61
309.1029	155
310.1113	52
321.0962	26
322.0975	34
324.1135	52
334.1008	22
335.0995	11
336.0955	12
337.0987	100
338.1062	344
339.117	15
348.1027	31
349.1071	218
