Mass spectrum: Triadimefon; LC-ESI-QTOF; MS2; 140 V
Name: Triadimefon
Class: Fungicide; Transformation_product
Formula: C14H16ClN3O2
Exact mass: 293.0931
SMILES: CC(C)(C)C(=O)C(N1C=NC=N1)OC2=CC=C(C=C2)Cl
InChI: InChI=1S/C14H16ClN3O2/c1-14(2,3)12(19)13(18-9-16-8-17-18)20-11-6-4-10(15)5-7-11/h4-9,13H,1-3H3
Instrument: TripleTOF 5600 SCIEX
Instrument type: LC-ESI-QTOF
Ms type: MS2
Ion mode: POSITIVE
Collision energy: 140
Fragmentation mode: CID
Ionization: ESI
Column name: Zorbax Eclipse Plus C18 2.1 mm x 150 mm, 3.5 um, Agilent
Retention time: 12.319 min
Precursor m/z: 294.1004
Precursor type: [M+H]+
m/z	relative intensity
36	13
37.0074	64
38.0151	45
39.023	278
41.0388	128
43.0177	10
43.0296	18
46.9686	16
48.9841	26
49.0071	26
50.0152	158
51.0231	83
55.054	18
57.0704	133
60.9837	18
61.0058	13
62.0148	40
63.0236	64
65.0386	50
70.0401	83
72.9839	214
73.0075	96
74.0156	999
75.0233	404
76.0301	16
77.0394	29
84.9844	69
89.0378	16
91.054	16
99.0009	16
