Mass spectrum: Celiprolol; LC-ESI-QTOF; MS2; 80 V
Name: Celiprolol
Class: Pharmaceutical
Formula: C20H33N3O4
Exact mass: 379.2471
SMILES: CCN(CC)C(=O)NC1=CC(=C(C=C1)OCC(CNC(C)(C)C)O)C(=O)C
InChI: InChI=1S/C20H33N3O4/c1-7-23(8-2)19(26)22-15-9-10-18(17(11-15)14(3)24)27-13-16(25)12-21-20(4,5)6/h9-11,16,21,25H,7-8,12-13H2,1-6H3,(H,22,26)
Instrument: TripleTOF 5600 SCIEX
Instrument type: LC-ESI-QTOF
Ms type: MS2
Ion mode: POSITIVE
Collision energy: 80
Fragmentation mode: CID
Ionization: ESI
Column name: Zorbax Eclipse Plus C18 2.1 mm x 150 mm, 3.5 um, Agilent
Retention time: 6.532 min
Precursor m/z: 380.2544
Precursor type: [M+H]+
m/z	relative intensity
43.0247	54
44.0221	175
44.057	27
56.0564	999
57.0382	12
57.0754	201
65.042	42
72.0483	411
72.0718	16
74.0635	587
74.0996	313
77.0418	181
80.0147	10
90.0359	19
91.0562	40
92.0511	136
100.0765	64
102.0358	21
103.0543	67
104.05	84
105.0342	39
105.069	13
106.0288	22
106.0658	15
108.0463	25
115.0545	70
116.0502	37
117.0574	13
118.0659	13
120.0444	156
120.0806	33
127.0541	13
128.049	61
130.0649	111
131.05	18
132.0447	261
133.0517	24
134.0597	15
136.04	15
142.0622	10
144.0456	21
146.0592	31
148.0397	521
148.0771	18
150.0543	64
158.0603	19
161.0492	18
162.0185	43
172.0395	30
186.0556	115
