Mass spectrum: 1-(2,6-Dichlorophenyl)-2-indolinone; LC-ESI-QTOF; MS2; 80 V
Name: 1-(2,6-Dichlorophenyl)-2-indolinone
Class: Pharmaceutical; Transformation_product; Diclofenac-lactam
Formula: C14H9Cl2NO
Exact mass: 277.0061
SMILES: C1C2=CC=CC=C2N(C1=O)C3=C(C=CC=C3Cl)Cl
InChI: InChI=1S/C14H9Cl2NO/c15-10-5-3-6-11(16)14(10)17-12-7-2-1-4-9(12)8-13(17)18/h1-7H,8H2
Instrument: TripleTOF 5600 SCIEX
Instrument type: LC-ESI-QTOF
Ms type: MS2
Ion mode: POSITIVE
Collision energy: 80
Fragmentation mode: CID
Ionization: ESI
Column name: Zorbax Eclipse Plus C18 2.1 mm x 150 mm, 3.5 um, Agilent
Retention time: 12.191 min
Precursor m/z: 278.0134
Precursor type: [M+H]+
m/z	relative intensity
50.025	19
63.0294	15
72.9922	10
74.0211	160
75.0288	61
77.0444	731
78.0364	15
78.0485	19
79.0581	160
89.0421	54
90.0513	21
99.0196	28
100.0221	107
101.0406	35
102.0339	10
102.0473	19
104.0536	32
105.0347	17
108.9864	281
109.9956	17
111.0012	13
115.0608	10
125.0405	74
126.0468	52
127.0567	107
128.052	83
135.9966	28
139.0558	26
140.0503	57
144.9623	70
149.0396	43
150.0481	408
151.0554	999
152.062	663
153.0603	127
154.0658	32
164.003	13
164.0451	15
172.967	10
175.042	10
176.0508	74
177.0575	641
178.0657	957
179.0729	799
180.0817	241
206.0595	10
207.0676	76
213.0302	15
214.0423	208
