Mass spectrum: Torasemide; LC-ESI-QTOF; MS2; 80 V
Name: Torasemide
Class: Pharmaceutical
Formula: C16H20N4O3S
Exact mass: 348.1256
SMILES: CC(C)NC(=O)N[S](=O)(=O)c1cnccc1Nc2cccc(C)c2
InChI: InChI=1S/C16H20N4O3S/c1-11(2)18-16(21)20-24(22,23)15-10-17-8-7-14(15)19-13-6-4-5-12(3)9-13/h4-11H,1-3H3,(H,17,19)(H2,18,20,21)
Instrument: TripleTOF 5600 SCIEX
Instrument type: LC-ESI-QTOF
Ms type: MS2
Ion mode: POSITIVE
Collision energy: 80
Fragmentation mode: CID
Ionization: ESI
Column name: Zorbax Eclipse Plus C18 2.1 mm x 150 mm, 3.5 um, Agilent
Retention time: 7.633 min
Precursor m/z: 349.1329
Precursor type: [M+H]+
m/z	relative intensity
67.0453	13
77.0405	12
81.0462	14
89.0396	22
90.0468	21
98.0058	10
113.0374	16
114.046	117
115.0411	35
115.0524	44
116.0498	15
117.057	93
125.0162	12
127.0535	46
128.0573	130
129.0691	32
137.0154	12
140.0491	196
141.0568	194
142.0515	44
154.0644	66
155.0621	30
156.0688	31
166.0515	15
167.0595	83
168.0679	999
169.0751	29
175.0316	13
180.0679	13
181.0755	485
182.0829	157
183.091	253
184.0622	10
197.0693	12
201.0466	21
