Mass spectrum: Erlotinib; LC-ESI-QTOF; MS2; 120 V
Name: Erlotinib
Class: Pharmaceutical
Formula: C22H23N3O4
Exact mass: 393.1689
SMILES: COCCOC1=C(C=C2C(=C1)C(=NC=N2)NC3=CC=CC(=C3)C#C)OCCOC
InChI: InChI=1S/C22H23N3O4/c1-4-16-6-5-7-17(12-16)25-22-18-13-20(28-10-8-26-2)21(29-11-9-27-3)14-19(18)23-15-24-22/h1,5-7,12-15H,8-11H2,2-3H3,(H,23,24,25)
Instrument: TripleTOF 5600 SCIEX
Instrument type: LC-ESI-QTOF
Ms type: MS2
Ion mode: POSITIVE
Collision energy: 120
Fragmentation mode: CID
Ionization: ESI
Column name: Zorbax Eclipse Plus C18 2.1 mm x 150 mm, 3.5 um, Agilent
Retention time: 7.429 min
Precursor m/z: 394.1761
Precursor type: [M+H]+
m/z	relative intensity
39.0229	13
49.008	9
50.0151	53
51.0232	180
52.0179	32
53.0387	19
55.0179	46
59.0491	32
61.007	13
62.0148	13
63.0224	39
65.039	54
66.0332	26
67.0408	12
68.0492	18
73.0071	29
74.0149	295
75.023	999
76.018	58
77.0265	88
77.0379	67
78.0336	93
79.0172	51
80.013	36
81.0336	41
87.0234	19
88.018	93
89.0385	167
90.0346	11
90.0457	36
91.0542	60
93.045	40
96.0445	23
97.028	18
98.0151	16
99.0221	58
100.0179	15
101.0384	320
102.034	18
102.0454	19
103.0282	12
104.015	11
104.037	71
105.0446	30
106.0285	60
108.0202	43
113.0385	43
114.0376	46
115.0298	16
115.0533	36
116.0488	48
117.057	53
121.0399	46
123.0223	33
125.0388	100
126.0452	85
127.0503	90
128.049	50
129.0444	37
133.042	9
135.0314	20
137.0375	34
138.0427	51
139.0534	117
140.05	138
141.057	19
142.0546	12
149.0388	165
150.0453	291
151.0536	229
152.0501	209
153.0564	99
154.0642	37
155.0605	34
161.0362	53
162.0452	43
163.0415	29
163.0537	37
164.0496	222
165.0534	123
166.0653	83
167.0662	47
168.0687	12
174.0351	18
175.0425	111
176.0493	339
177.0566	229
178.0632	99
179.0606	83
180.0693	12
186.0321	18
187.0459	18
188.0493	90
189.0507	32
190.0542	47
190.0689	16
191.06	128
192.0674	239
193.0752	88
201.0507	18
202.0518	68
203.0605	303
204.0603	100
205.0758	55
206.0694	16
213.0447	36
214.0513	12
215.0592	19
216.0657	23
217.0634	43
218.0715	55
219.0792	20
220.0859	25
221.0719	12
228.0521	16
229.0596	18
230.0718	146
231.0775	43
246.067	55
247.0763	13
