Mass spectrum: Ethylparaben; LC-ESI-QTOF; MS2; 40 V
Name: Ethylparaben
Class: Antimicrobial; Food_additive; Personal_care_product; Industrial_process
Formula: C9H10O3
Exact mass: 166.063
SMILES: CCOC(=O)C1=CC=C(C=C1)O
InChI: InChI=1S/C9H10O3/c1-2-12-9(11)7-3-5-8(10)6-4-7/h3-6,10H,2H2,1H3
Instrument: TripleTOF 5600 SCIEX
Instrument type: LC-ESI-QTOF
Ms type: MS2
Ion mode: POSITIVE
Collision energy: 40
Fragmentation mode: CID
Ionization: ESI
Column name: Zorbax Eclipse Plus C18 2.1 mm x 150 mm, 3.5 um, Agilent
Retention time: 8.834 min
Precursor m/z: 167.0703
Precursor type: [M+H]+
m/z	relative intensity
65.0448	380
67.0608	27
77.0432	999
93.037	407
95.0515	297
121.0293	462
