Mass spectrum: Trospium; LC-ESI-QTOF; MS2; 130 V
Name: Trospium
Class: Pharmaceutical
Formula: [C25H30NO3]+
Exact mass: 392.222
SMILES: C1CC[N+]2(C1)C3CCC2CC(C3)OC(=O)C(C4=CC=CC=C4)(C5=CC=CC=C5)O
InChI: InChI=1S/C25H30NO3/c27-24(25(28,19-9-3-1-4-10-19)20-11-5-2-6-12-20)29-23-17-21-13-14-22(18-23)26(21)15-7-8-16-26/h1-6,9-12,21-23,28H,7-8,13-18H2/q+1
Instrument: TripleTOF 6600 SCIEX
Instrument type: LC-ESI-QTOF
Ms type: MS2
Ion mode: POSITIVE
Collision energy: 130
Fragmentation mode: CID
Ionization: ESI
Column name: Zorbax Eclipse Plus C18 2.1 mm x 150 mm, 3.5 um, Agilent
Retention time: 7.411 min
Precursor m/z: 392.222
Precursor type: [M]+
m/z	relative intensity
39.0224	151
41.0379	158
50.0138	68
51.0216	295
54.0326	264
55.0525	98
56.0476	113
65.0367	234
67.0521	204
68.0476	272
69.0552	552
70.0623	196
72.0781	83
77.0357	999
79.0507	98
80.0461	234
82.0617	75
91.0502	446
93.0533	68
93.0683	60
94.061	143
96.077	885
97.0845	295
108.0766	105
120.0771	90
122.0946	52
