Mass spectrum: Omeprazole sulfide 5-carboxylic acid; LC-ESI-QTOF; MS2; 100 V
Name: Omeprazole sulfide 5-carboxylic acid
Class: Metabolite; Pharmaceutical
Formula: C17H17N3O4S
Exact mass: 359.094
SMILES: CC1=C(C(=CN=C1CSC2=NC3=C(N2)C=C(C=C3)OC)C(=O)O)OC
InChI: InChI=1S/C17H17N3O4S/c1-9-14(18-7-11(16(21)22)15(9)24-3)8-25-17-19-12-5-4-10(23-2)6-13(12)20-17/h4-7H,8H2,1-3H3,(H,19,20)(H,21,22)
Instrument: TripleTOF 5600 SCIEX
Instrument type: LC-ESI-QTOF
Ms type: MS2
Ion mode: POSITIVE
Collision energy: 100
Fragmentation mode: CID
Ionization: ESI
Column name: Zorbax Eclipse Plus C18 2.1 mm x 150 mm, 3.5 um, Agilent
Retention time: 5.75 min
Precursor m/z: 360.1013
Precursor type: [M+H]+
m/z	relative intensity
42.0441	17
42.0492	12
43.0298	59
50.026	14
51.0319	46
52.0276	11
52.0397	51
53.0118	22
63.0277	27
64.0398	11
65.0456	125
66.0472	86
67.0494	16
67.0594	25
68.9854	28
77.0435	154
78.0397	118
79.0234	17
79.0478	441
80.0192	40
80.0546	171
82.9997	36
85.016	33
89.041	17
90.0372	36
91.0466	36
92.0527	141
93.0489	195
94.0674	38
94.9988	12
96.0068	27
97.0144	138
104.0533	35
105.0467	83
106.0614	999
107.076	183
108.0463	35
108.0828	44
109.0126	28
110.0076	99
110.9923	12
118.0324	20
118.0568	19
119.0389	11
119.0632	22
120.0473	16
122.009	28
122.061	24
123.0156	33
124.0232	36
133.0419	22
134.0095	27
134.0487	348
136.0238	35
136.0789	19
137.0184	424
138.0254	16
147.0571	12
149.0724	28
150.0013	16
150.054	14
151.0077	14
152.017	77
152.0701	17
155.0619	12
165.0115	147
166.0497	11
167.0594	22
169.0749	12
177.9977	17
180.01	19
194.0719	40
208.0821	14
222.0687	19
