Mass spectrum: Iomeprol; LC-ESI-QTOF; MS2; 120 V
Name: Iomeprol
Class: Pharmaceutical
Formula: C17H22I3N3O8
Exact mass: 776.8541
SMILES: CN(C(=O)CO)c1c(I)c(C(=O)NCC(O)CO)c(I)c(C(=O)NCC(O)CO)c1I
InChI: InChI=1S/C17H22I3N3O8/c1-23(9(29)6-26)15-13(19)10(16(30)21-2-7(27)4-24)12(18)11(14(15)20)17(31)22-3-8(28)5-25/h7-8,24-28H,2-6H2,1H3,(H,21,30)(H,22,31)
Instrument: TripleTOF 5600 SCIEX
Instrument type: LC-ESI-QTOF
Ms type: MS2
Ion mode: POSITIVE
Collision energy: 120
Fragmentation mode: CID
Ionization: ESI
Column name: Zorbax Eclipse Plus C18 2.1 mm x 150 mm, 3.5 um, Agilent
Retention time: 4.596 min
Precursor m/z: 777.8614
Precursor type: [M+H]+
m/z	relative intensity
90.0352	16
91.0434	46
92.0509	19
103.041	29
104.0485	23
105.0564	16
106.0285	13
108.0438	16
116.0518	16
118.0282	59
119.0366	73
120.0439	29
131.0369	46
132.0437	69
133.053	19
136.0386	29
146.0239	73
146.0435	23
147.0313	26
148.0393	46
149.0469	29
160.0397	56
161.0469	316
162.0546	43
163.0614	19
164.032	13
174.0168	16
175.046	29
176.0352	16
177.0419	149
177.9127	16
178.0483	13
188.9187	29
204.9156	13
205.0234	16
205.059	26
217.9456	43
231.0759	13
231.9233	26
245.9396	63
247.0744	29
257.9414	183
258.9484	13
261.0853	13
270.9475	23
273.9358	79
275.9549	29
277.0788	16
286.9412	16
287.9515	999
300.954	19
301.9306	13
303.9523	26
331.9427	26
