Mass spectrum: Pyroxsulam; LC-ESI-QTOF; MS2; 40 V
Name: Pyroxsulam
Class: Herbicide
Formula: C14H13F3N6O5S
Exact mass: 434.062
SMILES: COC1=CC(=NC2=NC(=NN12)NS(=O)(=O)C3=C(C=CN=C3OC)C(F)(F)F)OC
InChI: InChI=1S/C14H13F3N6O5S/c1-26-8-6-9(27-2)23-13(19-8)20-12(21-23)22-29(24,25)10-7(14(15,16)17)4-5-18-11(10)28-3/h4-6H,1-3H3,(H,21,22)
Instrument: TripleTOF 6600 SCIEX
Instrument type: LC-ESI-QTOF
Ms type: MS2
Ion mode: NEGATIVE
Collision energy: 40
Fragmentation mode: CID
Ionization: ESI
Column name: Zorbax Eclipse Plus C18 2.1 mm x 150 mm, 3.5 um, Agilent
Retention time: 9.651 min
Precursor m/z: 433.0547
Precursor type: [M-H]-
m/z	relative intensity
65.9973	17
66.0081	72
68.9945	120
81.0229	11
93.0066	9
108.0241	17
111.0672	33
116.0141	29
123.0187	132
128.0318	429
133.0237	23
135.007	13
135.031	21
136.0213	269
146.0222	632
147.0203	17
149.0081	25
150.0296	68
156.0268	813
162.0412	191
163.0273	29
164.033	120
165.041	148
174.0188	23
176.0334	704
177.0045	27
178.0479	13
179.0567	807
180.0505	85
186.021	15
193.0571	62
201.0143	17
208.9774	9
216.0382	156
225.0204	21
227.021	40
230.0436	76
237.0388	17
238.0203	23
239.039	15
240.0361	37
245.0714	21
251.0143	83
252.0266	66
253.0197	11
253.0443	66
254.0482	13
254.064	27
255.0711	17
265.0346	40
267.0483	212
268.0418	17
270.0557	62
283.0428	115
285.0696	308
286.0624	21
291.0229	79
291.0485	27
292.0342	189
293.0357	31
295.0404	19
296.0398	39
297.0584	11
299.0461	11
299.0676	11
303.044	11
304.0454	9
307.0582	554
308.0184	15
311.0439	13
314.0602	31
316.9956	11
317.018	21
322.0424	21
323.0491	999
327.991	9
329.0856	232
334.0124	11
338.0753	91
339.0759	46
339.0989	19
349.0355	66
354.0704	83
354.9906	19
369.0859	19
369.1112	17
386.9941	21
387.0164	40
433.0476	347
