Mass spectrum: Dimoxystrobin; LC-ESI-QTOF; MS2; 140 V
Name: Dimoxystrobin
Class: Fungicide
Formula: C19H22N2O3
Exact mass: 326.163
SMILES: CC1=CC(=C(C=C1)C)OCC2=CC=CC=C2C(=NOC)C(=O)NC
InChI: InChI=1S/C19H22N2O3/c1-13-9-10-14(2)17(11-13)24-12-15-7-5-6-8-16(15)18(21-23-4)19(22)20-3/h5-11H,12H2,1-4H3,(H,20,22)
Instrument: TripleTOF 6600 SCIEX
Instrument type: LC-ESI-QTOF
Ms type: MS2
Ion mode: POSITIVE
Collision energy: 140
Fragmentation mode: CID
Ionization: ESI
Column name: Zorbax Eclipse Plus C18 2.1 mm x 150 mm, 3.5 um, Agilent
Retention time: 13.184 min
Precursor m/z: 327.1703
Precursor type: [M+H]+
m/z	relative intensity
36.0003	18
37.0081	85
38.0157	58
39.0237	239
41.0392	10
49.0079	19
50.0156	82
51.0236	86
58.0293	150
60.0	25
61.0081	215
62.016	433
63.0239	999
64.0191	172
64.0307	23
65.039	45
74.0158	35
75.0119	15
75.0232	34
76.0198	16
76.0316	17
77.0391	49
86.0173	15
87.0102	15
87.0239	11
88.0201	36
89.0389	417
90.0339	24
90.0466	22
91.0552	10
102.0457	11
114.0345	12
115.0551	21
126.0483	12
139.0544	21
150.047	36
151.0543	36
152.0625	24
163.055	39
164.0597	11
165.0712	15
176.0617	24
190.0662	12
