Mass spectrum: Metaflumizone; LC-ESI-QTOF; MS2; 100 V
Name: Metaflumizone
Class: Insecticide; Pharmaceutical
Formula: C24H16F6N4O2
Exact mass: 506.1177
SMILES: C1=CC(=CC(=C1)C(F)(F)F)C(=NNC(=O)NC2=CC=C(C=C2)OC(F)(F)F)CC3=CC=C(C=C3)C#N
InChI: InChI=1S/C24H16F6N4O2/c25-23(26,27)18-3-1-2-17(13-18)21(12-15-4-6-16(14-31)7-5-15)33-34-22(35)32-19-8-10-20(11-9-19)36-24(28,29)30/h1-11,13H,12H2,(H2,32,34,35)
Instrument: TripleTOF 6600 SCIEX
Instrument type: LC-ESI-QTOF
Ms type: MS2
Ion mode: NEGATIVE
Collision energy: 100
Fragmentation mode: CID
Ionization: ESI
Column name: Zorbax Eclipse Plus C18 2.1 mm x 150 mm, 3.5 um, Agilent
Retention time: 15.496 min
Precursor m/z: 505.1105
Precursor type: [M-H]-
m/z	relative intensity
41.9975	34
66.0345	15
84.9886	49
90.0328	30
97.0069	34
102.0334	134
115.0294	315
116.037	46
116.0488	92
117.045	553
126.0328	26
127.03	15
137.0206	30
139.0283	30
141.0453	999
145.026	26
165.0478	15
169.0259	30
198.0339	26
212.0484	38
214.0645	19
215.0614	103
218.0407	34
225.0458	222
232.0562	15
242.0702	23
244.0436	26
245.0518	138
258.0525	26
264.0488	53
265.0606	19
285.0637	968
