Mass spectrum: Isopentyltriphenylphosphonium; LC-ESI-QTOF; MS2; 110 V
Name: Isopentyltriphenylphosphonium
Class: Industrial_process
Formula: [C23H26P]+
Exact mass: 333.1767
SMILES: CC(C)CC[P+](C1=CC=CC=C1)(C2=CC=CC=C2)C3=CC=CC=C3
InChI: InChI=1S/C23H26P/c1-20(2)18-19-24(21-12-6-3-7-13-21,22-14-8-4-9-15-22)23-16-10-5-11-17-23/h3-17,20H,18-19H2,1-2H3/q+1
Instrument: TripleTOF 6600 SCIEX
Instrument type: LC-ESI-QTOF
Ms type: MS2
Ion mode: POSITIVE
Collision energy: 110
Fragmentation mode: CID
Ionization: ESI
Column name: Zorbax Eclipse Plus C18 2.1 mm x 150 mm, 3.5 um, Agilent
Retention time: 9.314 min
Precursor m/z: 333.1767
Precursor type: [M]+
m/z	relative intensity
80.9854	58
89.0346	61
107.0007	451
115.0505	263
126.043	65
133.0163	79
139.051	214
151.051	153
152.0593	999
157.0174	466
181.0169	185
183.033	593
257.0483	76
