Mass spectrum: Atenolol acid; LC-ESI-QTOF; MS2; 90 V
Name: Atenolol acid
Class: Pharmaceutical; Transformation_product-Metabolite
Formula: C14H21NO4
Exact mass: 267.1471
SMILES: CC(C)NCC(COC1=CC=C(C=C1)CC(=O)O)O
InChI: InChI=1S/C14H21NO4/c1-10(2)15-8-12(16)9-19-13-5-3-11(4-6-13)7-14(17)18/h3-6,10,12,15-16H,7-9H2,1-2H3,(H,17,18)
Instrument: TripleTOF 5600 SCIEX
Instrument type: LC-ESI-QTOF
Ms type: MS2
Ion mode: POSITIVE
Collision energy: 90
Fragmentation mode: CID
Ionization: ESI
Column name: Zorbax Eclipse Plus C18 2.1 mm x 150 mm, 3.5 um, Agilent
Retention time: 4.893 min
Precursor m/z: 268.1543
Precursor type: [M+H]+
m/z	relative intensity
39.0233	42
41.0385	52
43.0543	22
50.0155	19
51.0231	140
56.0496	84
58.0663	26
61.0076	13
62.0143	19
63.0233	107
65.0392	169
72.0813	13
74.0612	16
77.039	999
78.0469	32
79.0544	114
89.0393	284
91.0543	297
94.0404	19
102.0444	13
103.0587	13
107.0506	58
115.0543	297
116.0617	16
