Mass spectrum: Tetrahydroharman-3-carboxylic acid; LC-ESI-QTOF; MS2; 70 V
Name: Tetrahydroharman-3-carboxylic acid
Formula: C13H14N2O2
Exact mass: 230.1055
SMILES: CC1C2=C(CC(N1)C(=O)O)C3=CC=CC=C3N2
InChI: InChI=1S/C13H14N2O2/c1-7-12-9(6-11(14-7)13(16)17)8-4-2-3-5-10(8)15-12/h2-5,7,11,14-15H,6H2,1H3,(H,16,17)
Instrument: TripleTOF 6600 SCIEX
Instrument type: LC-ESI-QTOF
Ms type: MS2
Ion mode: POSITIVE
Collision energy: 70
Fragmentation mode: CID
Ionization: ESI
Column name: Zorbax Eclipse Plus C18 2.1 mm x 150 mm, 3.5 um, Agilent
Retention time: 5.62 min
Precursor m/z: 231.1128
Precursor type: [M+H]+
m/z	relative intensity
51.0228	30
63.0217	14
65.0376	54
74.0146	12
75.022	29
77.0379	342
89.0376	251
90.0461	185
91.0536	209
101.0373	74
102.0457	73
103.0537	94
114.0465	16
115.0534	999
116.048	32
116.0613	146
117.0568	384
118.063	13
126.0449	20
127.0532	91
128.05	586
129.043	38
129.0685	57
130.0645	262
139.052	65
140.0479	49
140.0595	13
141.0562	28
142.0642	299
143.0719	441
154.0637	91
155.06	37
156.0795	162
157.0866	12
166.0627	135
167.0719	383
168.0806	62
