Mass spectrum: Fluconazole; LC-ESI-QTOF; MS2; 60 V
Name: Fluconazole
Class: Pharmaceutical
Formula: C13H12F2N6O
Exact mass: 306.1041
SMILES: OC(Cn1cncn1)(Cn2cncn2)c3ccc(F)cc3F
InChI: InChI=1S/C13H12F2N6O/c14-10-1-2-11(12(15)3-10)13(22,4-20-8-16-6-18-20)5-21-9-17-7-19-21/h1-3,6-9,22H,4-5H2
Instrument: TripleTOF 5600 SCIEX
Instrument type: LC-ESI-QTOF
Ms type: MS2
Ion mode: POSITIVE
Collision energy: 60
Fragmentation mode: CID
Ionization: ESI
Column name: Zorbax Eclipse Plus C18 2.1 mm x 150 mm, 3.5 um, Agilent
Retention time: 6.343 min
Precursor m/z: 307.1113
Precursor type: [M+H]+
m/z	relative intensity
55.0225	24
70.0439	592
74.02	17
75.0257	221
82.0428	42
95.0299	46
98.0157	28
99.0237	132
101.0199	39
101.04	888
107.0296	46
113.0193	60
115.0368	35
119.0295	510
120.0395	21
121.0453	485
125.0382	32
126.0347	42
127.036	999
129.0457	178
139.0357	777
141.0154	135
141.0511	189
145.0436	28
146.0407	46
147.0356	189
149.0463	17
151.036	938
153.0431	35
164.0456	14
166.0471	49
169.0463	67
173.0512	74
193.0566	24
200.0655	17
