Mass spectrum: Fluazifop; LC-ESI-QTOF; MS2; 60 V
Name: Fluazifop
Class: Herbicide; Transformation_product
Formula: C15H12F3NO4
Exact mass: 327.0718
SMILES: CC(C(=O)O)Oc1ccc(cc1)Oc2ccc(cn2)C(F)(F)F
InChI: InChI=1S/C15H12F3NO4/c1-9(14(20)21)22-11-3-5-12(6-4-11)23-13-7-2-10(8-19-13)15(16,17)18/h2-9H,1H3,(H,20,21)
Instrument: TripleTOF 6600 SCIEX
Instrument type: LC-ESI-QTOF
Ms type: MS2
Ion mode: POSITIVE
Collision energy: 60
Fragmentation mode: CID
Ionization: ESI
Column name: Zorbax Eclipse Plus C18 2.1 mm x 150 mm, 3.5 um, Agilent
Retention time: 11.668 min
Precursor m/z: 328.0791
Precursor type: [M+H]+
m/z	relative intensity
39.0232	48
51.0236	14
53.0394	10
55.0179	22
62.0154	10
63.0231	57
64.0311	53
65.0391	656
74.0157	12
75.0044	41
75.0231	60
77.0393	51
78.0338	28
81.0333	23
91.0543	577
92.0255	75
93.0335	87
94.0412	59
97.0329	16
99.0043	29
100.0121	23
103.0547	40
105.0377	12
107.0136	17
109.029	27
110.0361	36
114.046	28
115.054	11
116.0484	11
117.0569	18
119.0362	10
119.0494	27
120.0184	16
120.044	29
121.0321	41
121.0645	11
126.0147	155
127.0225	186
128.0492	21
129.0576	10
130.0653	109
131.049	230
132.0432	16
133.0465	56
135.0287	12
140.0489	79
141.0571	353
142.0417	25
143.0289	24
146.0212	517
147.029	621
148.0365	16
150.0344	15
151.0347	54
152.0431	41
156.0815	10
157.0511	18
158.0414	11
158.0599	191
159.048	48
160.0374	17
160.0562	15
163.0348	44
164.031	234
166.0654	12
167.0721	30
168.025	10
168.0445	118
169.0516	79
170.0394	50
170.0599	11
171.0442	11
172.0348	30
177.0562	25
178.046	35
179.0544	24
180.0375	101
181.0449	16
182.0343	12
183.0407	33
184.0363	38
185.0447	92
186.0535	23
187.0415	28
188.0492	75
189.0386	22
190.046	171
191.0428	17
196.0535	14
197.0433	10
198.0331	12
198.0522	243
199.0362	27
199.0593	24
200.0372	41
201.0422	18
206.0392	38
207.0482	53
208.0571	40
209.0443	96
210.0519	67
211.0603	48
212.0314	14
212.0674	21
214.0464	10
216.0598	14
218.0406	227
225.0415	16
226.0476	139
227.0549	401
234.0357	61
235.0604	37
236.0321	33
236.0661	11
237.039	24
238.0468	686
254.0419	999
256.0558	49
