Mass spectrum: Oxytetracycline; LC-ESI-QTOF; MS2; 60 V
Name: Oxytetracycline
Class: Pharmaceutical
Formula: C22H24N2O9
Exact mass: 460.1482
SMILES: CC1(C2C(C3C(C(=O)C(=C(C3(C(=O)C2=C(C4=C1C=CC=C4O)O)O)O)C(=O)N)N(C)C)O)O
InChI: InChI=1S/C22H24N2O9/c1-21(32)7-5-4-6-8(25)9(7)15(26)10-12(21)17(28)13-14(24(2)3)16(27)11(20(23)31)19(30)22(13,33)18(10)29/h4-6,12-14,17,25-26,28,30,32-33H,1-3H3,(H2,23,31)/t12-,13-,14+,17+,21-,22+/m1/s1
Instrument: TripleTOF 5600 SCIEX
Instrument type: LC-ESI-QTOF
Ms type: MS2
Ion mode: NEGATIVE
Collision energy: 60
Fragmentation mode: CID
Ionization: ESI
Column name: Zorbax Eclipse Plus C18 2.1 mm x 150 mm, 3.5 um, Agilent
Retention time: 5.586 min
Precursor m/z: 459.1409
Precursor type: [M-H]-
m/z	relative intensity
79.0192	63
84.0086	63
87.0097	63
92.0274	63
95.0142	50
96.9937	63
97.0292	50
108.0226	63
111.0072	113
124.0175	101
124.9872	113
125.0234	50
126.0578	63
134.0265	63
135.0089	75
135.045	821
137.025	75
138.0331	63
139.0154	139
144.0605	50
145.0289	75
149.0201	50
150.0199	88
151.0016	50
151.0279	88
154.0367	63
157.0697	63
158.0377	63
159.0475	101
161.0251	354
162.0261	151
163.0075	88
163.0338	316
164.0082	177
164.0367	50
171.044	113
172.0523	379
173.0268	101
173.0595	632
174.0321	214
178.0135	88
179.051	50
181.0398	88
183.0842	88
185.0604	88
187.0376	227
188.0449	101
189.0557	75
191.0378	75
193.0623	75
195.0428	101
196.0527	151
197.0624	202
199.0739	164
200.0463	101
201.0546	379
203.0388	164
203.0727	50
209.0605	189
210.0712	126
211.0402	75
211.0771	278
213.0584	75
215.0679	88
221.0558	75
222.0693	75
223.0772	126
224.0485	202
225.0572	252
225.0948	139
227.0359	101
227.0709	139
233.0533	63
235.0404	252
235.0724	88
237.0561	164
237.0848	50
238.0591	113
239.071	252
240.051	164
243.0675	113
245.0415	88
248.0467	88
249.0526	139
251.0332	63
251.0703	63
252.0399	113
252.08	75
253.0505	999
254.0579	139
255.0638	164
256.0364	139
256.0481	75
263.0668	88
264.0743	75
265.0559	101
267.0657	328
271.0606	189
277.0501	101
279.0616	101
289.055	63
289.0712	113
290.0543	75
291.0649	75
292.0463	63
317.053	50
319.0623	50
374.1275	88
