Mass spectrum: Fingolimod; LC-ESI-QTOF; MS2; 110 V
Name: Fingolimod
Class: Pharmaceutical
Formula: C19H33NO2
Exact mass: 307.2511
SMILES: CCCCCCCCC1=CC=C(C=C1)CCC(CO)(CO)N
InChI: InChI=1S/C19H33NO2/c1-2-3-4-5-6-7-8-17-9-11-18(12-10-17)13-14-19(20,15-21)16-22/h9-12,21-22H,2-8,13-16,20H2,1H3
Instrument: TripleTOF 6600 SCIEX
Instrument type: LC-ESI-QTOF
Ms type: MS2
Ion mode: POSITIVE
Collision energy: 110
Fragmentation mode: CID
Ionization: ESI
Column name: Zorbax Eclipse Plus C18 2.1 mm x 150 mm, 3.5 um, Agilent
Retention time: 10.17 min
Precursor m/z: 308.2584
Precursor type: [M+H]+
m/z	relative intensity
37.0068	111
38.014	97
39.0223	596
41.0379	277
43.0532	69
50.0142	166
51.0222	555
63.0221	166
65.0375	790
76.0308	69
77.0373	999
78.0456	208
79.0517	124
89.0371	180
91.0525	763
102.045	263
103.0521	194
115.0521	943
126.0432	152
127.0525	291
128.0603	568
129.0655	83
141.0671	166
152.0599	97
153.0687	55
155.0577	124
