Mass spectrum: Terbutrynesulfoxide; LC-ESI-QTOF; MS2; 100 V
Name: Terbutrynesulfoxide
Class: Transformation_product; Herbicide; Pesticide; Transformation_product-Metabolite
Formula: C10H19N5OS
Exact mass: 257.131
SMILES: CCNC1=NC(=NC(=N1)S(=O)C)NC(C)(C)C
InChI: InChI=1S/C10H19N5OS/c1-6-11-7-12-8(15-10(2,3)4)14-9(13-7)17(5)16/h6H2,1-5H3,(H2,11,12,13,14,15)
Instrument: TripleTOF 5600 SCIEX
Instrument type: LC-ESI-QTOF
Ms type: MS2
Ion mode: POSITIVE
Collision energy: 100
Fragmentation mode: CID
Ionization: ESI
Column name: Zorbax Eclipse Plus C18 2.1 mm x 150 mm, 3.5 um, Agilent
Retention time: 8.816 min
Precursor m/z: 258.1383
Precursor type: [M+H]+
m/z	relative intensity
41.0272	37
42.0362	37
42.0484	11
43.0421	375
44.0518	28
44.0625	17
47.0041	13
53.0218	37
54.0433	11
55.0379	40
56.0472	23
57.9823	61
59.0573	13
67.037	32
68.0314	999
69.015	429
69.043	93
70.047	44
71.0669	22
71.9962	27
84.0607	17
84.9908	300
86.0416	17
94.043	23
96.0575	13
111.0685	15
112.064	10
