Mass spectrum: Thiabendazole; LC-ESI-QTOF; MS2; 90 V
Name: Thiabendazole
Class: Fungicide; Pharmaceutical
Formula: C10H7N3S
Exact mass: 201.0361
SMILES: [nH]1c2ccccc2nc1c3cscn3
InChI: InChI=1S/C10H7N3S/c1-2-4-8-7(3-1)12-10(13-8)9-5-14-6-11-9/h1-6H,(H,12,13)
Instrument: TripleTOF 5600 SCIEX
Instrument type: LC-ESI-QTOF
Ms type: MS2
Ion mode: POSITIVE
Collision energy: 90
Fragmentation mode: CID
Ionization: ESI
Column name: Zorbax Eclipse Plus C18 2.1 mm x 150 mm, 3.5 um, Agilent
Retention time: 5.203 min
Precursor m/z: 202.0433
Precursor type: [M+H]+
m/z	relative intensity
51.0307	310
52.0262	46
56.9846	51
62.0312	25
63.0517	46
64.0349	62
65.0435	999
66.0379	20
68.9824	36
74.0188	67
75.0267	51
76.0211	56
76.0376	46
77.0415	460
78.0372	36
89.0413	20
90.0352	56
91.0435	124
92.0524	62
102.0362	41
103.0437	31
104.0506	56
114.0333	31
115.0437	36
