Mass spectrum: Fluroxypyr; LC-ESI-QTOF; MS2; 120 V
Name: Fluroxypyr
Class: Herbicide
Formula: C7H5Cl2FN2O3
Exact mass: 253.9661
SMILES: C(C(=O)O)OC1=NC(=C(C(=C1Cl)N)Cl)F
InChI: InChI=1S/C7H5Cl2FN2O3/c8-3-5(11)4(9)7(12-6(3)10)15-1-2(13)14/h1H2,(H2,11,12)(H,13,14)
Instrument: TripleTOF 6600 SCIEX
Instrument type: LC-ESI-QTOF
Ms type: MS2
Ion mode: POSITIVE
Collision energy: 120
Fragmentation mode: CID
Ionization: ESI
Column name: Zorbax Eclipse Plus C18 2.1 mm x 150 mm, 3.5 um, Agilent
Retention time: 8.859 min
Precursor m/z: 254.9734
Precursor type: [M+H]+
m/z	relative intensity
30.9981	171
37.0072	78
46.0091	78
46.9675	171
48.9837	93
51.0107	124
53.0136	109
54.9978	140
56.0066	202
57.0152	78
60.9868	109
61.9791	109
62.0008	78
63.0092	93
64.0172	93
65.9662	78
66.9741	483
70.0082	639
70.9672	234
71.9755	343
73.9783	93
77.0127	593
81.0017	93
82.0088	187
82.9448	62
83.0163	78
85.9788	483
89.9666	999
90.9741	639
96.9708	109
98.9857	62
100.9351	78
101.9658	62
105.9354	62
105.9847	78
106.9451	124
124.9354	437
