Mass spectrum: Dienogest Impurity G; LC-ESI-QTOF; MS2; 120 V
Name: Dienogest Impurity G
Class: Pharmaceutical
Formula: C20H23NO2
Exact mass: 309.1729
SMILES: CC12CC=C3C(C1CCC2(CC#N)O)CCC4=C3C=CC(=C4)O
InChI: InChI=1S/C20H23NO2/c1-19-8-6-16-15-5-3-14(22)12-13(15)2-4-17(16)18(19)7-9-20(19,23)10-11-21/h3,5-6,12,17-18,22-23H,2,4,7-10H2,1H3
Instrument: TripleTOF 6600 SCIEX
Instrument type: LC-ESI-QTOF
Ms type: MS2
Ion mode: POSITIVE
Collision energy: 120
Fragmentation mode: CID
Ionization: ESI
Column name: Zorbax Eclipse Plus C18 2.1 mm x 150 mm, 3.5 um, Agilent
Retention time: 9.956 min
Precursor m/z: 310.1802
Precursor type: [M+H]+
m/z	relative intensity
39.0219	164
41.0377	35
49.0063	42
50.0144	142
51.0221	463
53.0369	49
55.0166	35
61.0056	35
62.0146	49
63.0216	156
65.0375	249
66.0453	35
74.0148	35
75.0221	78
76.0289	35
77.0375	777
78.0444	78
79.0525	92
89.037	328
91.0529	135
94.0406	42
102.0449	128
103.0525	149
105.0439	28
107.0498	42
114.0439	28
115.0525	999
116.0604	28
126.0445	99
127.0526	121
128.0601	185
131.0479	49
139.0534	92
150.0442	71
151.0521	114
152.0597	164
163.0529	64
164.06	78
165.0683	121
176.0619	42
178.0761	35
181.0625	35
187.0536	35
189.0686	78
202.0726	49
