Mass spectrum: 4-(Dimethylamino)azobenzene; LC-ESI-QTOF; MS2; 60 V
Name: 4-(Dimethylamino)azobenzene
Formula: C14H15N3
Exact mass: 225.1266
SMILES: CN(C)C1=CC=C(C=C1)N=NC2=CC=CC=C2
InChI: InChI=1S/C14H15N3/c1-17(2)14-10-8-13(9-11-14)16-15-12-6-4-3-5-7-12/h3-11H,1-2H3
Instrument: TripleTOF 6600 SCIEX
Instrument type: LC-ESI-QTOF
Ms type: MS2
Ion mode: POSITIVE
Collision energy: 60
Fragmentation mode: CID
Ionization: ESI
Column name: Zorbax Eclipse Plus C18 2.1 mm x 150 mm, 3.5 um, Agilent
Retention time: 15.513 min
Precursor m/z: 226.1339
Precursor type: [M+H]+
m/z	relative intensity
39.0221	16
42.033	14
50.0145	41
51.0224	344
65.0377	175
66.033	18
67.0401	12
68.0483	31
77.0379	999
78.0332	60
79.053	89
80.0482	15
90.0323	12
91.0472	53
92.0484	177
93.0451	73
103.0524	26
104.0481	56
105.0546	84
106.0637	76
116.0483	13
118.054	105
119.0594	75
120.0799	367
132.0659	19
133.0746	141
