Mass spectrum: Ciprofloxacin; LC-ESI-QTOF; MS2; 50 V
Name: Ciprofloxacin
Class: Pharmaceutical
Formula: C17H18FN3O3
Exact mass: 331.1332
SMILES: C1CC1N2C=C(C(=O)C3=CC(=C(C=C32)N4CCNCC4)F)C(=O)O
InChI: InChI=1S/C17H18FN3O3/c18-13-7-11-14(8-15(13)20-5-3-19-4-6-20)21(10-1-2-10)9-12(16(11)22)17(23)24/h7-10,19H,1-6H2,(H,23,24)
Instrument: TripleTOF 6600 SCIEX
Instrument type: LC-ESI-QTOF
Ms type: MS2
Ion mode: POSITIVE
Collision energy: 50
Fragmentation mode: CID
Ionization: ESI
Column name: Zorbax Eclipse Plus C18 2.1 mm x 150 mm, 3.5 um, Agilent
Retention time: 5.497 min
Precursor m/z: 332.1405
Precursor type: [M+H]+
m/z	relative intensity
136.0569	26
148.056	26
162.0371	17
163.0435	17
163.0683	11
172.0578	14
174.0691	35
175.0653	23
176.0495	17
176.0743	35
184.0614	11
185.0678	11
187.0661	11
188.0415	20
189.0457	65
189.0822	23
191.0622	35
201.0557	20
201.0797	29
202.0649	29
203.0628	155
204.0708	47
205.0783	62
215.0622	23
218.0519	14
225.0956	14
231.0576	999
231.0916	14
245.1092	53
294.1251	32
314.133	62
