Mass spectrum: 5-Methyl-1H-benzotriazole; LC-ESI-QTOF; MS2; 60 V
Name: 5-Methyl-1H-benzotriazole
Class: Industrial_process
Formula: C7H7N3
Exact mass: 133.064
SMILES: Cc1ccc2n[nH]nc2c1
InChI: InChI=1S/C7H7N3/c1-5-2-3-6-7(4-5)9-10-8-6/h2-4H,1H3,(H,8,9,10)
Instrument: TripleTOF 5600 SCIEX
Instrument type: LC-ESI-QTOF
Ms type: MS2
Ion mode: POSITIVE
Collision energy: 60
Fragmentation mode: CID
Ionization: ESI
Column name: Zorbax Eclipse Plus C18 2.1 mm x 150 mm, 3.5 um, Agilent
Retention time: 7.021 min
Precursor m/z: 134.0713
Precursor type: [M+H]+
m/z	relative intensity
52.0233	33
52.036	18
53.0437	48
64.0341	52
65.0292	31
65.0412	31
66.0374	20
67.0448	31
74.0186	16
77.0411	999
78.0363	20
78.0477	42
80.0525	14
91.0421	35
104.0484	29
