Mass spectrum: Tetrahydroharman-3-carboxylic acid; LC-ESI-QTOF; MS2; 40 V
Name: Tetrahydroharman-3-carboxylic acid
Formula: C13H14N2O2
Exact mass: 230.1055
SMILES: CC1C2=C(CC(N1)C(=O)O)C3=CC=CC=C3N2
InChI: InChI=1S/C13H14N2O2/c1-7-12-9(6-11(14-7)13(16)17)8-4-2-3-5-10(8)15-12/h2-5,7,11,14-15H,6H2,1H3,(H,16,17)
Instrument: TripleTOF 6600 SCIEX
Instrument type: LC-ESI-QTOF
Ms type: MS2
Ion mode: POSITIVE
Collision energy: 40
Fragmentation mode: CID
Ionization: ESI
Column name: Zorbax Eclipse Plus C18 2.1 mm x 150 mm, 3.5 um, Agilent
Retention time: 5.62 min
Precursor m/z: 231.1128
Precursor type: [M+H]+
m/z	relative intensity
74.0231	49
77.0376	17
91.0531	49
103.053	13
115.0532	103
116.0615	29
117.0565	110
118.0638	109
127.0535	21
128.0488	70
129.0681	28
130.0643	285
131.0836	21
141.0687	23
142.0638	57
143.0721	999
144.0798	63
146.0587	50
154.0636	117
155.072	13
156.0797	210
157.0877	80
158.0952	624
167.0718	164
168.0797	317
169.0863	32
