Mass spectrum: Icaridin acid; LC-ESI-QTOF; MS2; 110 V
Name: Icaridin acid
Formula: C12H21NO4
Exact mass: 243.1471
SMILES: CCC(C)OC(=O)N1CCCCC1CC(O)=O
InChI: InChI=1S/C12H21NO4/c1-3-9(2)17-12(16)13-7-5-4-6-10(13)8-11(14)15/h9-10H,3-8H2,1-2H3,(H,14,15)
Instrument: TripleTOF 6600 SCIEX
Instrument type: LC-ESI-QTOF
Ms type: MS2
Ion mode: POSITIVE
Collision energy: 110
Fragmentation mode: CID
Ionization: ESI
Column name: Zorbax Eclipse Plus C18 2.1 mm x 150 mm, 3.5 um, Agilent
Retention time: 9.741 min
Precursor m/z: 244.1543
Precursor type: [M+H]+
m/z	relative intensity
30.0318	142
35.9972	39
37.0056	265
38.0004	83
38.0128	201
39.0209	999
40.0033	29
41.0362	314
42.0316	221
43.0164	49
43.0392	68
44.9946	49
51.0199	34
52.0026	29
53.0103	34
53.0355	59
54.0311	132
55.0515	108
56.0471	669
65.0357	73
67.0397	29
67.0511	59
68.0476	147
69.055	68
77.0353	44
84.0789	137
