Mass spectrum: Quinoline; LC-ESI-QTOF; MS2; 60 V
Name: Quinoline
Formula: C9H7N
Exact mass: 129.0578
SMILES: C1=CC=C2C(=C1)C=CC=N2
InChI: InChI=1S/C9H7N/c1-2-6-9-8(4-1)5-3-7-10-9/h1-7H
Instrument: TripleTOF X500R SCIEX
Instrument type: LC-ESI-QTOF
Ms type: MS2
Ion mode: POSITIVE
Collision energy: 60
Fragmentation mode: CID
Ionization: ESI
Column name: Zorbax Eclipse Plus C18 2.1 mm x 150 mm, 3.5 um, Agilent
Retention time: 4.58 min
Precursor m/z: 130.0651
Precursor type: [M+H]+
m/z	relative intensity
37.0073	11
39.0227	28
49.0072	32
50.0147	695
51.0223	892
52.0301	14
53.0385	11
62.0151	50
63.0231	87
74.0152	86
75.0229	147
76.0308	58
77.0379	999
78.038	16
101.0388	31
102.0461	153
103.0546	89
128.0501	25
130.0647	53
