Mass spectrum: Flurtamone; LC-ESI-QTOF; MS2; 40 V
Name: Flurtamone
Class: Herbicide
Formula: C18H14F3NO2
Exact mass: 333.0977
SMILES: CNC1=C(C(=O)C(O1)C2=CC=CC=C2)C3=CC(=CC=C3)C(F)(F)F
InChI: InChI=1S/C18H14F3NO2/c1-22-17-14(12-8-5-9-13(10-12)18(19,20)21)15(23)16(24-17)11-6-3-2-4-7-11/h2-10,16,22H,1H3
Instrument: TripleTOF 6600 SCIEX
Instrument type: LC-ESI-QTOF
Ms type: MS2
Ion mode: POSITIVE
Collision energy: 40
Fragmentation mode: CID
Ionization: ESI
Column name: Zorbax Eclipse Plus C18 2.1 mm x 150 mm, 3.5 um, Agilent
Retention time: 11.864 min
Precursor m/z: 334.105
Precursor type: [M+H]+
m/z	relative intensity
58.0288	31
77.0385	37
103.0543	21
105.0339	199
120.0809	52
171.0421	22
178.0789	359
197.022	18
207.0617	65
209.0767	18
225.017	31
227.0682	287
229.0833	11
246.0668	16
247.076	999
257.0787	38
275.0698	124
277.0852	19
286.1054	11
288.1011	15
303.0648	97
306.1119	79
334.1072	163
