Mass spectrum: Progesterone; LC-ESI-QTOF; MS2; 120 V
Name: Progesterone
Class: Pharmaceutical
Formula: C21H30O2
Exact mass: 314.2246
SMILES: CC(=O)[C@H]1CC[C@H]2[C@@H]3CCC4=CC(=O)CC[C@]4(C)[C@H]3CC[C@]12C
InChI: InChI=1S/C21H30O2/c1-13(22)17-6-7-18-16-5-4-14-12-15(23)8-10-20(14,2)19(16)9-11-21(17,18)3/h12,16-19H,4-11H2,1-3H3/t16-,17+,18-,19-,20-,21+/m0/s1
Instrument: TripleTOF 5600 SCIEX
Instrument type: LC-ESI-QTOF
Ms type: MS2
Ion mode: POSITIVE
Collision energy: 120
Fragmentation mode: CID
Ionization: ESI
Column name: Zorbax Eclipse Plus C18 2.1 mm x 150 mm, 3.5 um, Agilent
Retention time: 13.796 min
Precursor m/z: 315.2319
Precursor type: [M+H]+
m/z	relative intensity
43.0267	515
43.0453	46
53.0441	124
55.0232	78
55.0587	46
65.0432	241
66.0485	39
67.0569	124
69.0724	31
77.0421	999
79.0565	468
81.071	46
83.0501	39
89.0415	46
91.0556	468
94.0417	46
97.0652	218
102.0466	39
103.0542	93
105.0723	54
107.0496	101
109.0639	124
115.0543	319
117.0725	31
127.0552	85
128.0622	210
141.0705	46
152.0615	54
