Mass spectrum: Carebastine; LC-ESI-QTOF; MS2; 110 V
Name: Carebastine
Class: Pharmaceutical
Formula: C32H37NO4
Exact mass: 499.2723
SMILES: CC(C)(C1=CC=C(C=C1)C(=O)CCCN2CCC(CC2)OC(C3=CC=CC=C3)C4=CC=CC=C4)C(=O)O
InChI: InChI=1S/C32H37NO4/c1-32(2,31(35)36)27-17-15-24(16-18-27)29(34)14-9-21-33-22-19-28(20-23-33)37-30(25-10-5-3-6-11-25)26-12-7-4-8-13-26/h3-8,10-13,15-18,28,30H,9,14,19-23H2,1-2H3,(H,35,36)
Instrument: TripleTOF 6600 SCIEX
Instrument type: LC-ESI-QTOF
Ms type: MS2
Ion mode: POSITIVE
Collision energy: 110
Fragmentation mode: CID
Ionization: ESI
Column name: Zorbax Eclipse Plus C18 2.1 mm x 150 mm, 3.5 um, Agilent
Retention time: 10.045 min
Precursor m/z: 500.2796
Precursor type: [M+H]+
m/z	relative intensity
65.0383	30
77.0382	46
78.0463	15
79.0538	17
89.0382	18
90.0461	43
91.0541	250
102.046	18
103.054	73
107.0488	19
115.0545	366
116.0618	21
117.0699	282
118.0777	316
121.0281	26
126.0461	11
127.0545	10
128.0618	69
131.0494	58
132.0934	13
139.0539	22
141.0697	46
145.0647	10
146.0724	61
150.0462	15
151.054	82
152.0625	724
163.0539	21
164.0621	57
165.0705	999
166.0781	91
167.0856	24
173.0954	13
191.0711	44
