Mass spectrum: Icaridin acid; LC-ESI-QTOF; MS2; 150 V
Name: Icaridin acid
Formula: C12H21NO4
Exact mass: 243.1471
SMILES: CCC(C)OC(=O)N1CCCCC1CC(O)=O
InChI: InChI=1S/C12H21NO4/c1-3-9(2)17-12(16)13-7-5-4-6-10(13)8-11(14)15/h9-10H,3-8H2,1-2H3,(H,14,15)
Instrument: TripleTOF 6600 SCIEX
Instrument type: LC-ESI-QTOF
Ms type: MS2
Ion mode: POSITIVE
Collision energy: 150
Fragmentation mode: CID
Ionization: ESI
Column name: Zorbax Eclipse Plus C18 2.1 mm x 150 mm, 3.5 um, Agilent
Retention time: 9.741 min
Precursor m/z: 244.1543
Precursor type: [M+H]+
m/z	relative intensity
30.0315	90
35.9977	102
37.0053	541
38.0001	144
38.0127	433
39.0205	999
41.0233	36
41.0358	102
42.0319	174
43.0161	30
43.0397	30
44.9947	102
52.0039	36
53.0104	30
54.0311	66
56.0472	48
68.0472	42
