Mass spectrum: Oseltamivir; LC-ESI-QTOF; MS2; 60 V
Name: Oseltamivir
Class: Pharmaceutical
Formula: C16H28N2O4
Exact mass: 312.2049
SMILES: CCC(CC)O[C@@H]1C=C(C[C@@H]([C@H]1/N=C(\C)/O)N)C(=O)OCC
InChI: InChI=1S/C16H28N2O4/c1-5-12(6-2)22-14-9-11(16(20)21-7-3)8-13(17)15(14)18-10(4)19/h9,12-15H,5-8,17H2,1-4H3,(H,18,19)/t13-,14+,15+/m0/s1
Instrument: TripleTOF 5600 SCIEX
Instrument type: LC-ESI-QTOF
Ms type: MS2
Ion mode: POSITIVE
Collision energy: 60
Fragmentation mode: CID
Ionization: ESI
Column name: Zorbax Eclipse Plus C18 2.1 mm x 150 mm, 3.5 um, Agilent
Retention time: 6.973 min
Precursor m/z: 313.2122
Precursor type: [M+H]+
m/z	relative intensity
43.0257	13
65.043	382
66.0495	23
67.0577	146
68.0527	30
77.0417	292
79.0563	10
80.052	137
82.0674	101
83.0507	26
92.0514	669
93.0358	249
93.057	186
94.0665	644
95.0492	26
106.065	11
108.0441	25
108.0667	19
109.0524	14
109.0762	154
110.06	62
111.0426	15
119.0601	67
120.045	999
121.0273	12
133.0772	13
134.061	16
137.0701	133
138.0548	209
138.0894	16
162.0537	15
166.0861	102
