Mass spectrum: Flutamide; LC-ESI-QTOF; MS2; 60 V
Name: Flutamide
Class: Pharmaceutical
Formula: C11H11F3N2O3
Exact mass: 276.0722
SMILES: CC(C)C(=O)NC1=CC(=C(C=C1)[N+](=O)[O-])C(F)(F)F
InChI: InChI=1S/C11H11F3N2O3/c1-6(2)10(17)15-7-3-4-9(16(18)19)8(5-7)11(12,13)14/h3-6H,1-2H3,(H,15,17)
Instrument: TripleTOF 6600 SCIEX
Instrument type: LC-ESI-QTOF
Ms type: MS2
Ion mode: POSITIVE
Collision energy: 60
Fragmentation mode: CID
Ionization: ESI
Column name: Zorbax Eclipse Plus C18 2.1 mm x 150 mm, 3.5 um, Agilent
Retention time: 12.297 min
Precursor m/z: 277.0795
Precursor type: [M+H]+
m/z	relative intensity
37.0064	16
38.0138	16
39.0223	212
41.0378	701
43.0542	999
64.0316	12
65.0379	24
66.0317	12
80.0498	12
83.0275	8
84.0359	32
88.0105	12
91.0418	16
91.0547	16
95.0276	16
111.0469	346
114.0268	207
115.0361	12
122.039	16
134.0307	12
140.0289	36
141.0366	57
142.0452	293
143.0086	8
145.0245	32
160.0343	114
161.0428	175
192.0692	12
