Mass spectrum: Chloroquine; LC-ESI-QTOF; MS2; 60 V
Name: Chloroquine
Class: Pharmaceutical
Formula: C18H26ClN3
Exact mass: 319.1815
SMILES: CCN(CC)CCCC(C)NC1=C2C=CC(=CC2=NC=C1)Cl
InChI: InChI=1S/C18H26ClN3/c1-4-22(5-2)12-6-7-14(3)21-17-10-11-20-18-13-15(19)8-9-16(17)18/h8-11,13-14H,4-7,12H2,1-3H3,(H,20,21)
Instrument: TripleTOF 6600 SCIEX
Instrument type: LC-ESI-QTOF
Ms type: MS2
Ion mode: POSITIVE
Collision energy: 60
Fragmentation mode: CID
Ionization: ESI
Column name: Zorbax Eclipse Plus C18 2.1 mm x 150 mm, 3.5 um, Agilent
Retention time: 4.84 min
Precursor m/z: 320.1888
Precursor type: [M+H]+
m/z	relative intensity
39.0231	25
41.0387	84
58.0652	73
69.0696	73
72.0803	12
74.0965	43
84.0798	10
86.0965	481
98.0961	113
112.1121	17
116.049	35
117.057	44
128.0495	25
129.0568	66
138.0098	17
142.1587	41
143.0601	39
144.0686	202
151.0182	26
155.06	72
156.0682	223
162.0103	63
163.0186	134
164.0266	74
168.0684	12
169.0755	13
177.0341	44
178.0296	97
179.0373	999
190.0298	30
191.0371	487
203.0373	84
205.0531	190
247.0989	51
