Mass spectrum: Etrimfos; LC-ESI-QTOF; MS2; 140 V
Name: Etrimfos
Class: Insecticide
Formula: C10H17N2O4PS
Exact mass: 292.0647
SMILES: CCC1=NC(=CC(=N1)OP(=S)(OC)OC)OCC
InChI: InChI=1S/C10H17N2O4PS/c1-5-8-11-9(15-6-2)7-10(12-8)16-17(18,13-3)14-4/h7H,5-6H2,1-4H3
Instrument: TripleTOF 6600 SCIEX
Instrument type: LC-ESI-QTOF
Ms type: MS2
Ion mode: POSITIVE
Collision energy: 140
Fragmentation mode: CID
Ionization: ESI
Column name: Zorbax Eclipse Plus C18 2.1 mm x 150 mm, 3.5 um, Agilent
Retention time: 14.241 min
Precursor m/z: 293.072
Precursor type: [M+H]+
m/z	relative intensity
31.9709	11
38.0025	17
40.0175	73
41.0019	10
41.0249	12
43.9706	47
44.9789	999
45.9746	12
45.9862	50
46.9681	457
46.9916	81
48.9828	12
56.978	15
62.9438	106
62.9981	13
68.0116	43
68.9962	19
78.938	11
