Mass spectrum: 2H,2H,3H,3H-Perfluorodecanoic acid; LC-ESI-QTOF; MS2; 70 V
Name: 2H,2H,3H,3H-Perfluorodecanoic acid
Formula: C10H5F15O2
Exact mass: 442.005
SMILES: C(CC(C(C(C(C(C(C(F)(F)F)(F)F)(F)F)(F)F)(F)F)(F)F)(F)F)C(=O)O
InChI: InChI=1S/C10H5F15O2/c11-4(12,2-1-3(26)27)5(13,14)6(15,16)7(17,18)8(19,20)9(21,22)10(23,24)25/h1-2H2,(H,26,27)
Instrument: TripleTOF 6600 SCIEX
Instrument type: LC-ESI-QTOF
Ms type: MS2
Ion mode: NEGATIVE
Collision energy: 70
Fragmentation mode: CID
Ionization: ESI
Column name: Zorbax Eclipse Plus C18 2.1 mm x 150 mm, 3.5 um, Agilent
Retention time: 14.147 min
Precursor m/z: 440.9977
Precursor type: [M-H]-
m/z	relative intensity
39.0034	199
62.9867	74
92.9923	212
97.9948	274
116.9932	199
147.9906	574
166.9908	124
192.9873	87
197.9884	412
216.986	487
242.9832	299
247.9819	149
266.9827	999
316.9786	499
