Mass spectrum: Tributyltetradecylphosphonium; LC-ESI-QTOF; MS2; 140 V
Name: Tributyltetradecylphosphonium
Formula: [C26H56P]+
Exact mass: 399.4114
SMILES: CCCCCCCCCCCCCC[P+](CCCC)(CCCC)CCCC
InChI: InChI=1S/C26H56P/c1-5-9-13-14-15-16-17-18-19-20-21-22-26-27(23-10-6-2,24-11-7-3)25-12-8-4/h5-26H2,1-4H3/q+1
Instrument: TripleTOF 5600 SCIEX
Instrument type: LC-ESI-QTOF
Ms type: MS2
Ion mode: POSITIVE
Collision energy: 140
Fragmentation mode: CID
Ionization: ESI
Column name: Zorbax Eclipse Plus C18 2.1 mm x 150 mm, 3.5 um, Agilent
Retention time: 14.891 min
Precursor m/z: 399.4114
Precursor type: [M]+
m/z	relative intensity
39.0235	114
41.0391	138
43.9815	186
44.9895	356
45.9971	325
47.005	207
56.9891	645
59.0048	740
61.0202	999
62.028	399
73.0197	114
75.0352	470
76.0431	499
