Mass spectrum: Sulfadoxine; LC-ESI-QTOF; MS2; 40 V
Name: Sulfadoxine
Class: Pharmaceutical
Formula: C12H14N4O4S
Exact mass: 310.0736
SMILES: COc1ncnc(N[S](=O)(=O)c2ccc(N)cc2)c1OC
InChI: InChI=1S/C12H14N4O4S/c1-19-10-11(14-7-15-12(10)20-2)16-21(17,18)9-5-3-8(13)4-6-9/h3-7H,13H2,1-2H3,(H,14,15,16)
Instrument: TripleTOF 5600 SCIEX
Instrument type: LC-ESI-QTOF
Ms type: MS2
Ion mode: POSITIVE
Collision energy: 40
Fragmentation mode: CID
Ionization: ESI
Column name: Zorbax Eclipse Plus C18 2.1 mm x 150 mm, 3.5 um, Agilent
Retention time: 7.083 min
Precursor m/z: 311.0809
Precursor type: [M+H]+
m/z	relative intensity
45.0532	19
65.0426	199
68.0171	13
80.0515	71
85.0411	21
92.0509	999
93.058	29
95.0523	13
96.0079	13
108.0445	915
108.074	13
109.0642	25
110.0213	15
112.0494	43
113.0345	59
123.0407	23
124.0206	25
124.0497	11
126.0647	25
126.0768	11
127.0501	9
132.0551	15
133.0627	9
138.0284	55
140.016	15
140.0447	381
141.0528	165
154.0603	399
155.0688	33
156.0111	613
156.0769	287
157.0633	17
160.0481	11
184.0726	13
201.0775	43
212.0693	59
218.0236	13
229.0699	11
230.0801	57
245.1029	113
311.0812	229
