Mass spectrum: Chloridazon; LC-ESI-QTOF; MS2; 40 V
Name: Chloridazon
Class: Herbicide
Formula: C10H8ClN3O
Exact mass: 221.0356
SMILES: C1=CC=C(C=C1)N2C(=O)C(=C(C=N2)N)Cl
InChI: InChI=1S/C10H8ClN3O/c11-9-8(12)6-13-14(10(9)15)7-4-2-1-3-5-7/h1-6H,12H2
Instrument: TripleTOF 6600 SCIEX
Instrument type: LC-ESI-QTOF
Ms type: MS2
Ion mode: POSITIVE
Collision energy: 40
Fragmentation mode: CID
Ionization: ESI
Column name: Zorbax Eclipse Plus C18 2.1 mm x 150 mm, 3.5 um, Agilent
Retention time: 6.924 min
Precursor m/z: 222.0429
Precursor type: [M+H]+
m/z	relative intensity
39.0233	24
50.0151	28
51.0229	129
52.0184	11
55.029	56
63.9951	34
65.0388	593
66.0216	71
66.0458	12
73.9793	28
74.9883	11
75.9948	28
77.039	999
83.0235	24
87.9943	123
92.0496	636
93.057	109
94.065	149
100.99	173
101.9732	15
102.0454	11
103.054	24
104.0494	537
105.0446	33
114.0334	14
115.0532	11
116.0484	12
116.9973	35
119.0601	22
122.9991	18
128.9849	166
130.0649	77
131.0593	41
132.0442	25
142.0518	20
146.0115	254
149.0141	31
150.0101	47
158.0603	20
159.0563	25
177.0202	11
186.0664	27
193.0282	77
205.0154	14
222.0428	641
