Mass spectrum: Ranitidine-S-oxide; LC-ESI-QTOF; MS2; 20 V
Name: Ranitidine-S-oxide
Class: Pharmaceutical; Transformation_product; Transformation_product-Metabolite
Formula: C13H22N4O4S
Exact mass: 330.1362
SMILES: CNC(=C[N+](=O)[O-])NCCS(=O)Cc1ccc(o1)CN(C)C
InChI: InChI=1S/C13H22N4O4S/c1-14-13(9-17(18)19)15-6-7-22(20)10-12-5-4-11(21-12)8-16(2)3/h4-5,9,14-15H,6-8,10H2,1-3H3
Instrument: TripleTOF 5600 SCIEX
Instrument type: LC-ESI-QTOF
Ms type: MS2
Ion mode: POSITIVE
Collision energy: 20
Fragmentation mode: CID
Ionization: ESI
Column name: Zorbax Eclipse Plus C18 2.1 mm x 150 mm, 3.5 um, Agilent
Retention time: 2.941 min
Precursor m/z: 331.1435
Precursor type: [M+H]+
m/z	relative intensity
58.0714	12
94.0434	38
95.0483	12
96.0562	10
110.0965	126
130.0552	40
138.0916	999
139.0989	146
143.0157	30
156.1017	110
176.0483	81
188.0743	126
192.0443	97
193.0486	20
222.0817	61
331.1448	719
