Mass spectrum: Clopidogrel; LC-ESI-QTOF; MS2; 120 V
Name: Clopidogrel
Class: Pharmaceutical
Formula: C16H16ClNO2S
Exact mass: 321.059
SMILES: COC(=O)C(c1ccccc1Cl)N2CCc3c(ccs3)C2
InChI: InChI=1S/C16H16ClNO2S/c1-20-16(19)15(12-4-2-3-5-13(12)17)18-8-6-14-11(10-18)7-9-21-14/h2-5,7,9,15H,6,8,10H2,1H3
Instrument: TripleTOF 5600 SCIEX
Instrument type: LC-ESI-QTOF
Ms type: MS2
Ion mode: POSITIVE
Collision energy: 120
Fragmentation mode: CID
Ionization: ESI
Column name: Zorbax Eclipse Plus C18 2.1 mm x 150 mm, 3.5 um, Agilent
Retention time: 12.465 min
Precursor m/z: 322.0663
Precursor type: [M+H]+
m/z	relative intensity
45.0398	20
51.0299	337
65.0425	236
72.9868	85
74.0186	158
75.0264	469
76.0347	28
77.042	469
84.9857	41
89.0409	434
90.0484	160
91.0557	180
99.0005	188
105.0335	50
111.0005	999
112.0072	116
112.0217	11
117.057	24
125.0146	168
133.0296	25
138.9956	427
