Mass spectrum: Mirtazapine; LC-ESI-QTOF; MS2; 100 V
Name: Mirtazapine
Class: Pharmaceutical
Formula: C17H19N3
Exact mass: 265.1579
SMILES: CN1CCN2C(C1)C3=CC=CC=C3CC4=C2N=CC=C4
InChI: InChI=1S/C17H19N3/c1-19-9-10-20-16(12-19)15-7-3-2-5-13(15)11-14-6-4-8-18-17(14)20/h2-8,16H,9-12H2,1H3
Instrument: TripleTOF 5600 SCIEX
Instrument type: LC-ESI-QTOF
Ms type: MS2
Ion mode: POSITIVE
Collision energy: 100
Fragmentation mode: CID
Ionization: ESI
Column name: Zorbax Eclipse Plus C18 2.1 mm x 150 mm, 3.5 um, Agilent
Retention time: 5.459 min
Precursor m/z: 266.1652
Precursor type: [M+H]+
m/z	relative intensity
42.0473	48
44.0614	21
56.0574	26
58.074	32
64.0373	37
65.0449	358
66.0385	21
67.0465	13
70.0714	13
72.0868	45
74.02	51
75.0303	61
76.0371	45
77.043	333
78.0398	137
79.0437	16
79.0514	16
80.0536	29
86.0198	18
87.0255	26
88.0371	32
89.0423	312
90.0382	24
90.0482	48
91.0546	177
92.0526	99
93.0583	13
98.019	18
99.0254	37
101.0403	78
102.0475	107
103.0553	129
104.0554	35
113.0403	148
114.0465	102
115.0559	473
116.0502	53
117.0575	56
118.051	21
119.0601	21
123.0208	13
124.0249	10
124.0377	10
125.04	88
126.0469	201
127.0545	175
128.0585	145
129.0554	45
130.0647	129
131.061	35
137.0372	29
138.0464	99
139.0547	999
140.0513	541
141.0612	80
142.0548	13
142.0678	10
149.038	45
150.0472	414
151.0539	387
152.0615	568
153.056	123
154.0668	32
155.062	16
162.0465	13
163.0552	247
164.0512	312
165.0592	220
166.0654	713
167.0745	298
168.0755	99
175.0394	24
176.0488	37
176.0609	29
177.0568	148
178.064	99
179.0651	137
180.0798	64
187.0511	18
188.0551	37
189.0616	48
190.0646	161
191.0631	185
192.0682	729
193.0761	376
194.0843	91
205.0793	80
216.0728	29
217.0779	32
218.0871	43
