Mass spectrum: N,N`-diphenyl-p-phenylenediamine; LC-ESI-QTOF; MS2; 130 V
Name: N,N`-diphenyl-p-phenylenediamine
Class: Industrial_process
Formula: C18H16N2
Exact mass: 260.1313
SMILES: N(c1ccccc1)c2ccc(Nc3ccccc3)cc2
InChI: InChI=1S/C18H16N2/c1-3-7-15(8-4-1)19-17-11-13-18(14-12-17)20-16-9-5-2-6-10-16/h1-14,19-20H
Instrument: TripleTOF 5600 SCIEX
Instrument type: LC-ESI-QTOF
Ms type: MS2
Ion mode: POSITIVE
Collision energy: 130
Fragmentation mode: CID
Ionization: ESI
Column name: Zorbax Eclipse Plus C18 2.1 mm x 150 mm, 3.5 um, Agilent
Retention time: 14.544 min
Precursor m/z: 261.1386
Precursor type: [M+H]+
m/z	relative intensity
52.0242	42
52.0332	120
54.0391	63
64.0314	63
65.0424	325
66.0508	120
74.0179	262
75.0274	418
76.0316	198
77.0412	793
78.0468	233
79.0499	49
80.0528	999
85.0101	49
86.0167	99
87.0246	198
88.0304	191
89.0401	651
90.0442	170
93.0572	35
98.0173	77
99.0219	42
101.0383	106
102.0474	198
103.0514	77
107.0585	42
113.0386	297
114.0423	184
115.054	240
116.0548	77
126.0465	148
127.0542	283
128.0597	340
129.0635	63
130.0632	35
137.0373	92
138.0469	106
139.0537	474
140.051	304
141.0532	63
153.0605	42
154.0644	63
165.0554	35
166.0659	92
