Mass spectrum: 1-(3,4-Dichlorophenyl)urea; LC-ESI-QTOF; MS2; 40 V
Name: 1-(3,4-Dichlorophenyl)urea
Class: Herbicide; Transformation_product
Formula: C7H6Cl2N2O
Exact mass: 203.9857
SMILES: C1=CC(=C(C=C1NC(=O)N)Cl)Cl
InChI: InChI=1S/C7H6Cl2N2O/c8-5-2-1-4(3-6(5)9)11-7(10)12/h1-3H,(H3,10,11,12)
Instrument: TripleTOF 5600 SCIEX
Instrument type: LC-ESI-QTOF
Ms type: CID
Ion mode: NEGATIVE
Collision energy: 40
Ionization: ESI
Column name: Zorbax Eclipse Plus C18 2.1 mm x 150 mm, 3.5 um, Agilent
Retention time: 8.797 min
Precursor m/z: 202.9784
Precursor type: [M-H]-
m/z	relative intensity
34.9687	439
41.9978	399
123.9955	319
159.9729	999
