Mass spectrum: Hostavin VSU P; LC-ESI-QTOF; MS2; 80 V
Name: Hostavin VSU P
Formula: C18H20N2O3
Exact mass: 312.1474
SMILES: CCC1=CC=CC=C1NC(=O)C(=O)NC2=CC=CC=C2OCC
InChI: InChI=1S/C18H20N2O3/c1-3-13-9-5-6-10-14(13)19-17(21)18(22)20-15-11-7-8-12-16(15)23-4-2/h5-12H,3-4H2,1-2H3,(H,19,21)(H,20,22)
Instrument: TripleTOF 5600 SCIEX
Instrument type: LC-ESI-QTOF
Ms type: MS2
Ion mode: POSITIVE
Collision energy: 80
Fragmentation mode: CID
Ionization: ESI
Column name: Zorbax Eclipse Plus C18 2.1 mm x 150 mm, 3.5 um, Agilent
Retention time: 15.402 min
Precursor m/z: 313.1547
Precursor type: [M+H]+
m/z	relative intensity
65.0381	508
77.038	885
79.0549	169
80.0495	999
90.0326	94
91.0541	301
92.0497	301
93.032	113
93.0579	226
94.0632	188
103.0532	471
105.0689	94
106.0642	94
108.0439	226
109.0525	433
110.0607	113
118.065	150
119.073	113
120.0807	226
130.0656	772
136.0388	546
