Mass spectrum: Etoricoxib; LC-ESI-QTOF; MS2; 80 V
Name: Etoricoxib
Class: Pharmaceutical
Formula: C18H15ClN2O2S
Exact mass: 358.0543
SMILES: CC1=NC=C(C=C1)C2=NC=C(C=C2C3=CC=C(C=C3)S(=O)(=O)C)Cl
InChI: InChI=1S/C18H15ClN2O2S/c1-12-3-4-14(10-20-12)18-17(9-15(19)11-21-18)13-5-7-16(8-6-13)24(2,22)23/h3-11H,1-2H3
Instrument: TripleTOF 5600 SCIEX
Instrument type: LC-ESI-QTOF
Ms type: MS2
Ion mode: POSITIVE
Collision energy: 80
Fragmentation mode: CID
Ionization: ESI
Column name: Zorbax Eclipse Plus C18 2.1 mm x 150 mm, 3.5 um, Agilent
Retention time: 6.991 min
Precursor m/z: 359.0616
Precursor type: [M+H]+
m/z	relative intensity
93.0599	11
149.0375	10
150.0467	15
151.0493	33
152.0578	34
153.0563	18
163.0532	21
164.0535	23
165.0658	16
166.0647	38
167.0729	34
174.0471	16
175.0541	97
176.0589	118
177.0565	73
178.0623	18
187.0164	12
187.0525	10
188.0243	12
188.0597	35
189.0682	154
190.0661	75
191.0707	45
192.0673	20
193.0763	40
194.0828	34
200.0484	97
201.056	223
202.0637	300
203.0715	433
204.0794	53
205.0741	12
212.0281	10
213.022	71
214.0639	134
215.0708	126
216.0793	577
217.0863	388
218.0831	89
224.026	16
225.0333	33
226.0553	68
227.062	193
228.0662	197
229.0687	505
230.0812	22
236.0252	48
237.0325	129
238.0399	326
239.0369	31
240.0424	19
240.0637	12
241.0735	80
242.0821	418
243.0904	999
244.0986	535
249.0296	10
250.04	179
251.0474	273
252.0525	203
253.0523	56
262.0385	55
263.0364	534
264.0425	130
265.0492	26
276.0423	112
277.0516	337
278.0598	370
279.0662	496
