Mass spectrum: Iprovalicarb; LC-ESI-QTOF; MS2; 70 V
Name: Iprovalicarb
Class: Fungicide
Formula: C18H28N2O3
Exact mass: 320.21
SMILES: CC1=CC=C(C=C1)C(C)NC(=O)C(C(C)C)NC(=O)OC(C)C
InChI: InChI=1S/C18H28N2O3/c1-11(2)16(20-18(22)23-12(3)4)17(21)19-14(6)15-9-7-13(5)8-10-15/h7-12,14,16H,1-6H3,(H,19,21)(H,20,22)
Instrument: TripleTOF 6600 SCIEX
Instrument type: LC-ESI-QTOF
Ms type: MS2
Ion mode: POSITIVE
Collision energy: 70
Fragmentation mode: CID
Ionization: ESI
Column name: Zorbax Eclipse Plus C18 2.1 mm x 150 mm, 3.5 um, Agilent
Retention time: 11.936 min
Precursor m/z: 321.2173
Precursor type: [M+H]+
m/z	relative intensity
39.023	15
41.039	22
51.0229	26
55.0542	72
57.0567	11
65.0386	120
72.0805	50
77.0388	285
78.0463	71
79.0547	44
91.0545	999
93.0697	48
98.06	20
102.0467	15
103.0545	224
104.0623	175
115.0538	135
116.0631	13
117.0699	344
119.0855	287
