Mass spectrum: 2,2`-Dihydroxy-4,4`-dimethoxybenzophenone; LC-ESI-QTOF; MS2; 80 V
Name: 2,2`-Dihydroxy-4,4`-dimethoxybenzophenone
Class: Industrial_process; Personal_care_product
Formula: C15H14O5
Exact mass: 274.0841
SMILES: COc1ccc(c(O)c1)C(=O)c2ccc(OC)cc2O
InChI: InChI=1S/C15H14O5/c1-19-9-3-5-11(13(16)7-9)15(18)12-6-4-10(20-2)8-14(12)17/h3-8,16-17H,1-2H3
Instrument: TripleTOF 5600 SCIEX
Instrument type: LC-ESI-QTOF
Ms type: MS2
Ion mode: POSITIVE
Collision energy: 80
Fragmentation mode: CID
Ionization: ESI
Column name: Zorbax Eclipse Plus C18 2.1 mm x 150 mm, 3.5 um, Agilent
Retention time: 12.683 min
Precursor m/z: 275.0914
Precursor type: [M+H]+
m/z	relative intensity
52.0368	835
53.01	61
55.0239	88
65.0427	808
67.0575	115
68.9999	237
77.0408	67
79.0203	67
80.0282	801
89.0406	61
95.0497	815
102.0484	47
107.0127	27
108.0203	999
115.0541	183
126.0484	40
127.0546	74
136.0163	33
139.0543	47
151.0386	231
