Mass spectrum: Bisoprolol; LC-ESI-QTOF; MS2; 80 V
Name: Bisoprolol
Class: Pharmaceutical
Formula: C18H31NO4
Exact mass: 325.2253
SMILES: CC(C)NCC(COC1=CC=C(C=C1)COCCOC(C)C)O
InChI: InChI=1S/C18H31NO4/c1-14(2)19-11-17(20)13-23-18-7-5-16(6-8-18)12-21-9-10-22-15(3)4/h5-8,14-15,17,19-20H,9-13H2,1-4H3
Instrument: TripleTOF 6600 SCIEX
Instrument type: LC-ESI-QTOF
Ms type: MS2
Ion mode: POSITIVE
Collision energy: 80
Fragmentation mode: CID
Ionization: ESI
Column name: Zorbax Eclipse Plus C18 2.1 mm x 150 mm, 3.5 um, Agilent
Retention time: 7.01 min
Precursor m/z: 326.2326
Precursor type: [M+H]+
m/z	relative intensity
30.0336	165
37.0073	28
38.0016	14
38.0155	31
39.0222	153
41.0382	264
42.0329	17
43.0174	23
43.0538	141
44.0486	46
45.033	295
51.0223	58
55.0169	22
56.0489	503
57.0323	16
58.0639	71
59.9995	14
61.0054	53
62.0143	116
63.022	545
65.0381	246
72.0789	19
74.059	195
77.0377	881
78.0448	56
79.0531	267
81.0307	13
84.0821	11
89.0376	999
90.0458	16
91.0528	489
95.0475	11
103.0527	50
104.0606	11
105.0415	22
105.068	52
107.0479	942
115.0534	122
116.0615	10
117.0657	13
121.0645	34
127.0522	10
128.0612	14
133.0682	13
