Mass spectrum: Dodecyltrimethylammonium; LC-ESI-QTOF; MS2; 110 V
Name: Dodecyltrimethylammonium
Formula: [C15H34N]+
Exact mass: 228.2686
SMILES: CCCCCCCCCCCC[N+](C)(C)C
InChI: InChI=1S/C15H34N/c1-5-6-7-8-9-10-11-12-13-14-15-16(2,3)4/h5-15H2,1-4H3/q+1
Instrument: TripleTOF 5600 SCIEX
Instrument type: LC-ESI-QTOF
Ms type: MS2
Ion mode: POSITIVE
Collision energy: 110
Fragmentation mode: CID
Ionization: ESI
Column name: Zorbax Eclipse Plus C18 2.1 mm x 150 mm, 3.5 um, Agilent
Retention time: 10.001 min
Precursor m/z: 228.2686
Precursor type: [M]+
m/z	relative intensity
37.0076	60
39.0229	264
41.0384	219
42.0339	272
43.041	83
43.0535	98
44.0494	824
45.0569	136
58.0644	999
60.0802	158
