Mass spectrum: Fluoxetine; LC-ESI-QTOF; MS2; 90 V
Name: Fluoxetine
Class: Pharmaceutical
Formula: C17H18F3NO
Exact mass: 309.134
SMILES: CNCCC(C1=CC=CC=C1)OC2=CC=C(C=C2)C(F)(F)F
InChI: InChI=1S/C17H18F3NO/c1-21-12-11-16(13-5-3-2-4-6-13)22-15-9-7-14(8-10-15)17(18,19)20/h2-10,16,21H,11-12H2,1H3
Instrument: TripleTOF 5600 SCIEX
Instrument type: LC-ESI-QTOF
Ms type: MS2
Ion mode: POSITIVE
Collision energy: 90
Fragmentation mode: CID
Ionization: ESI
Column name: Zorbax Eclipse Plus C18 2.1 mm x 150 mm, 3.5 um, Agilent
Retention time: 8.469 min
Precursor m/z: 310.1413
Precursor type: [M+H]+
m/z	relative intensity
42.0349	38
44.0492	999
91.0534	85
115.0536	57
117.0696	76
