Mass spectrum: Amantadine; LC-ESI-QTOF; MS2; 60 V
Name: Amantadine
Class: Pharmaceutical
Formula: C10H17N
Exact mass: 151.1361
SMILES: C1C2CC3CC1CC(C2)(C3)N
InChI: InChI=1S/C10H17N/c11-10-4-7-1-8(5-10)3-9(2-7)6-10/h7-9H,1-6,11H2
Instrument: TripleTOF 5600 SCIEX
Instrument type: LC-ESI-QTOF
Ms type: MS2
Ion mode: POSITIVE
Collision energy: 60
Fragmentation mode: CID
Ionization: ESI
Column name: Zorbax Eclipse Plus C18 2.1 mm x 150 mm, 3.5 um, Agilent
Retention time: 5.148 min
Precursor m/z: 152.1434
Precursor type: [M+H]+
m/z	relative intensity
39.0224	28
41.0383	57
50.015	42
51.0228	161
53.0382	30
55.0541	36
65.0386	132
66.0474	9
67.0537	115
69.0706	11
77.039	999
78.0452	42
79.0545	406
81.0698	111
91.0544	390
93.0699	92
103.0549	13
105.0707	44
107.0848	26
135.1139	15
