Mass spectrum: Dicloxacillin; LC-ESI-QTOF; MS2; 40 V
Name: Dicloxacillin
Formula: C19H17Cl2N3O5S
Exact mass: 469.0266
SMILES: CC1=C(C(=NO1)C2=C(C=CC=C2Cl)Cl)C(=O)NC3C4N(C3=O)C(C(S4)(C)C)C(=O)O
InChI: InChI=1S/C19H17Cl2N3O5S/c1-7-10(12(23-29-7)11-8(20)5-4-6-9(11)21)15(25)22-13-16(26)24-14(18(27)28)19(2,3)30-17(13)24/h4-6,13-14,17H,1-3H3,(H,22,25)(H,27,28)
Instrument: TripleTOF 6600 SCIEX
Instrument type: LC-ESI-QTOF
Ms type: MS2
Ion mode: POSITIVE
Collision energy: 40
Fragmentation mode: CID
Ionization: ESI
Column name: Zorbax Eclipse Plus C18 2.1 mm x 150 mm, 3.5 um, Agilent
Retention time: 11.23 min
Precursor m/z: 470.0339
Precursor type: [M+H]+
m/z	relative intensity
87.0183	25
114.0268	519
142.0196	32
160.0285	999
170.9607	15
172.9506	10
183.9544	32
195.9544	85
197.9699	398
211.9477	668
213.9633	90
224.9791	22
237.9608	17
239.9771	350
253.954	40
255.9701	199
266.9874	25
268.9638	22
310.9713	290
