Mass spectrum: Dimethachlor ESA; LC-ESI-QTOF; MS2; 50 V
Name: Dimethachlor ESA
Class: Transformation_product; Herbicide
Formula: C13H19NO5S
Exact mass: 301.0984
SMILES: Cc1cccc(c1N(CCOC)C(=O)CS(=O)(=O)O)C
InChI: InChI=1S/C13H19NO5S/c1-10-5-4-6-11(2)13(10)14(7-8-19-3)12(15)9-20(16,17)18/h4-6H,7-9H2,1-3H3,(H,16,17,18)
Instrument: TripleTOF 6600 SCIEX
Instrument type: LC-ESI-QTOF
Ms type: MS2
Ion mode: POSITIVE
Collision energy: 50
Fragmentation mode: CID
Ionization: ESI
Column name: Zorbax Eclipse Plus C18 2.1 mm x 150 mm, 3.5 um, Agilent
Retention time: 6.763 min
Precursor m/z: 302.1057
Precursor type: [M+H]+
m/z	relative intensity
68.0498	34
79.0539	20
105.0696	123
117.0564	75
118.0646	37
130.0651	20
131.0722	171
132.0805	999
133.0894	17
144.0795	44
146.0963	425
147.1037	72
148.1118	58
158.0955	51
174.0906	521
