Mass spectrum: Omeprazole sulfide 5-carboxylic acid; LC-ESI-QTOF; MS2; 60 V
Name: Omeprazole sulfide 5-carboxylic acid
Class: Metabolite; Pharmaceutical
Formula: C17H17N3O4S
Exact mass: 359.094
SMILES: CC1=C(C(=CN=C1CSC2=NC3=C(N2)C=C(C=C3)OC)C(=O)O)OC
InChI: InChI=1S/C17H17N3O4S/c1-9-14(18-7-11(16(21)22)15(9)24-3)8-25-17-19-12-5-4-10(23-2)6-13(12)20-17/h4-7H,8H2,1-3H3,(H,19,20)(H,21,22)
Instrument: TripleTOF 5600 SCIEX
Instrument type: LC-ESI-QTOF
Ms type: MS2
Ion mode: POSITIVE
Collision energy: 60
Fragmentation mode: CID
Ionization: ESI
Column name: Zorbax Eclipse Plus C18 2.1 mm x 150 mm, 3.5 um, Agilent
Retention time: 5.75 min
Precursor m/z: 360.1013
Precursor type: [M+H]+
m/z	relative intensity
43.029	43
65.045	27
66.0531	15
67.0596	37
77.0429	28
78.0393	23
79.0227	12
79.0472	63
79.0589	28
80.0539	118
85.0127	33
90.0425	14
92.053	71
93.0442	11
93.0601	12
94.0698	37
97.014	106
104.053	23
105.0575	15
106.064	506
107.0759	729
108.0475	54
108.0836	33
109.0127	25
110.0084	38
110.9927	27
112.0246	87
117.0474	10
118.0315	17
119.0621	10
120.0465	64
122.0067	11
122.0619	323
123.0158	18
123.0683	33
124.0233	165
132.0458	23
133.0419	14
134.0064	50
134.0489	999
135.0698	115
136.0229	230
136.077	54
137.0179	174
137.0824	11
146.0511	10
147.055	35
148.0401	86
148.0627	23
149.072	827
150.0557	164
151.0085	12
151.0621	14
152.0173	344
152.0713	37
153.0252	37
161.0705	20
162.0797	95
165.0124	600
166.0191	17
166.0309	51
166.0525	20
167.0578	11
168.0517	30
177.9936	44
180.0126	820
180.0672	27
181.0197	12
181.0432	25
182.0252	10
192.0642	11
194.0718	20
210.0185	23
210.1045	63
212.0383	331
222.0643	40
223.0748	41
224.0825	24
225.0889	24
236.0839	12
237.0907	87
238.0974	105
251.0692	30
252.0769	38
252.1199	17
253.0856	38
253.1187	10
265.0843	18
266.0933	34
268.1025	17
269.0722	21
282.0705	10
284.102	69
298.1148	14
312.0986	43
