Mass spectrum: Rifaximin; LC-ESI-QTOF; MS2; 50 V
Name: Rifaximin
Class: Pharmaceutical
Formula: C43H51N3O11
Exact mass: 785.3524
SMILES: CC1C=CC=C(C(=O)NC2=C(C3=C(C4=C(C(=C3O)C)OC(C4=O)(OC=CC(C(C(C(C(C(C1O)C)O)C)OC(=O)C)C)OC)C)C5=C2N6C=CC(=CC6=N5)C)O)C
InChI: InChI=1S/C43H51N3O11/c1-19-14-16-46-28(18-19)44-32-29-30-37(50)25(7)40-31(29)41(52)43(9,57-40)55-17-15-27(54-10)22(4)39(56-26(8)47)24(6)36(49)23(5)35(48)20(2)12-11-13-21(3)42(53)45-33(34(32)46)38(30)51/h11-18,20,22-24,27,35-36,39,48-51H,1-10H3,(H,45,53)
Instrument: TripleTOF 6600 SCIEX
Instrument type: LC-ESI-QTOF
Ms type: MS2
Ion mode: POSITIVE
Collision energy: 50
Fragmentation mode: CID
Ionization: ESI
Column name: Zorbax Eclipse Plus C18 2.1 mm x 150 mm, 3.5 um, Agilent
Retention time: 11.765 min
Precursor m/z: 786.3597
Precursor type: [M+H]+
m/z	relative intensity
43.0172	26
65.0374	11
67.0531	32
69.0326	16
69.0691	24
77.0376	20
79.0533	32
81.069	45
83.0482	20
83.084	15
85.0638	26
91.0534	49
93.0684	113
95.0483	122
95.0845	326
97.0276	11
97.0638	94
97.0997	16
99.0437	11
103.0527	11
105.0688	71
107.0847	275
109.064	149
109.1002	94
111.0431	16
111.0794	71
113.0584	22
117.0688	18
119.0844	105
121.0638	75
121.1002	111
123.0794	470
123.1153	24
125.0585	20
125.0952	88
129.0686	11
130.0773	15
131.0844	41
133.0636	41
133.1	100
135.0792	198
135.1155	111
137.0598	26
137.0952	107
137.1308	39
139.0744	47
139.1113	24
141.0663	9
141.0892	13
143.0844	28
145.1001	169
147.0796	37
147.1167	175
149.0595	16
149.095	43
149.1314	30
151.0747	999
151.1093	28
153.0898	190
155.1046	15
157.1006	69
158.1077	11
159.0799	18
159.1164	101
160.0886	11
161.0951	213
161.1313	30
163.1111	732
165.0889	11
165.1263	69
170.1094	15
171.1152	56
173.0949	166
173.1319	100
174.1034	13
174.1415	15
175.1114	198
175.1469	41
177.0907	69
177.1259	52
179.1057	219
180.0938	11
181.1215	39
183.1165	32
185.0944	20
185.1325	69
186.1027	15
187.112	28
187.1462	41
189.0911	33
189.1261	30
189.1644	9
191.1063	364
191.1414	24
193.1214	83
195.1166	33
197.0938	11
197.1317	32
198.1395	13
199.1112	43
199.1472	20
201.1263	137
203.1053	26
203.1431	79
205.1242	11
209.1173	60
209.1301	30
211.1126	20
211.1438	28
213.1269	64
215.1064	13
215.1424	28
217.1211	49
217.1586	26
219.1372	92
221.1291	18
221.1543	22
223.1108	20
223.1491	16
225.1256	13
225.1634	30
227.1421	30
227.178	26
229.122	9
231.1379	105
235.1485	26
236.1556	11
237.1277	35
237.162	11
241.12	15
241.16	15
241.1971	11
246.1381	16
249.1491	26
251.1797	50
253.1587	30
255.1377	15
255.1742	16
257.1566	13
261.1637	28
264.1492	18
269.1881	45
271.1692	43
279.1743	64
297.1855	98
315.1963	86
346.0935	26
347.1036	156
348.1102	33
349.1194	11
357.2065	22
360.0971	37
361.1073	183
362.1146	708
363.0995	11
363.1204	54
372.0931	11
388.0944	39
388.1157	13
389.1007	9
399.1278	13
400.131	9
406.1413	11
414.1492	15
426.1467	18
448.1639	11
454.1396	9
456.1553	37
464.1631	9
465.1677	56
466.1778	117
467.1848	26
468.1911	15
478.1765	11
482.1727	22
483.1801	15
484.1841	49
494.1717	73
495.1796	37
496.1927	35
506.2095	26
512.1832	69
524.2247	41
534.2083	18
538.1971	26
552.2133	16
553.2256	20
571.2295	13
622.2953	24
623.3113	13
630.2994	15
640.2811	28
658.2914	134
676.3051	370
677.3043	11
682.3151	13
690.3233	56
694.3154	183
700.3116	11
708.3315	137
709.3345	16
710.3229	20
718.3187	177
736.3279	934
737.3309	39
750.3423	43
754.3369	579
755.3387	24
768.3519	243
786.3666	28
