Mass spectrum: Tepraloxydim; LC-ESI-QTOF; MS2; 70 V
Name: Tepraloxydim
Class: Herbicide
Formula: C17H24ClNO4
Exact mass: 341.1394
SMILES: CCC(=NOCC=CCl)C1=C(CC(CC1=O)C2CCOCC2)O
InChI: InChI=1S/C17H24ClNO4/c1-2-14(19-23-7-3-6-18)17-15(20)10-13(11-16(17)21)12-4-8-22-9-5-12/h3,6,12-13,20H,2,4-5,7-11H2,1H3
Instrument: TripleTOF 6600 SCIEX
Instrument type: LC-ESI-QTOF
Ms type: MS2
Ion mode: NEGATIVE
Collision energy: 70
Fragmentation mode: CID
Ionization: ESI
Column name: Zorbax Eclipse Plus C18 2.1 mm x 150 mm, 3.5 um, Agilent
Retention time: 12.248 min
Precursor m/z: 340.1321
Precursor type: [M-H]-
m/z	relative intensity
34.9675	222
41.0015	41
65.9959	634
66.0321	18
67.0164	10
82.0257	26
90.0318	10
92.0477	28
108.0187	10
108.0424	13
109.0265	115
120.0062	306
120.042	20
134.0223	999
135.0286	57
162.0522	10
178.0838	68
220.0937	534
