Mass spectrum: Cortisone; LC-ESI-QTOF; MS2; 80 V
Name: Cortisone
Class: Pharmaceutical
Formula: C21H28O5
Exact mass: 360.1937
SMILES: C[C@]12CCC(=O)C=C1CC[C@H]3[C@@H]4CC[C@](O)(C(=O)CO)[C@@]4(C)CC(=O)[C@H]23
InChI: InChI=1S/C21H28O5/c1-19-7-5-13(23)9-12(19)3-4-14-15-6-8-21(26,17(25)11-22)20(15,2)10-16(24)18(14)19/h9,14-15,18,22,26H,3-8,10-11H2,1-2H3/t14-,15-,18+,19-,20-,21-/m0/s1
Instrument: TripleTOF 5600 SCIEX
Instrument type: LC-ESI-QTOF
Ms type: MS2
Ion mode: POSITIVE
Collision energy: 80
Fragmentation mode: CID
Ionization: ESI
Column name: Zorbax Eclipse Plus C18 2.1 mm x 150 mm, 3.5 um, Agilent
Retention time: 8.396 min
Precursor m/z: 361.201
Precursor type: [M+H]+
m/z	relative intensity
43.0305	48
55.0268	35
65.0444	88
67.0602	96
69.0749	17
74.0227	17
77.0434	770
79.0579	418
81.0738	123
83.0526	61
91.0578	999
91.0842	30
93.0731	184
95.051	17
95.0898	48
97.0677	154
102.0477	17
103.0565	198
104.066	39
105.0725	624
105.1011	17
107.0505	110
107.0874	83
109.0672	35
115.0562	422
115.078	22
116.0641	83
117.0723	246
119.0511	17
119.0875	127
120.0602	30
121.0675	246
121.1033	17
123.0808	17
127.0564	171
128.0645	510
129.0712	343
129.1025	17
130.0806	132
131.0508	30
131.0875	136
132.0583	22
133.0671	167
133.1014	30
135.0822	22
141.0724	259
142.081	105
143.0887	105
144.06	30
145.0663	48
145.1036	88
146.0745	22
147.0828	246
148.0908	268
152.0667	88
153.072	180
154.0795	66
155.0878	140
156.0937	30
157.0695	44
157.1046	35
158.0756	22
159.0817	35
161.0987	35
163.1168	74
165.0725	281
166.0801	96
167.0899	110
168.0954	30
169.0696	30
169.1031	74
170.11	22
171.0869	17
172.09	17
173.0988	26
174.1078	30
178.0805	118
179.0889	136
180.094	22
181.0693	22
181.1035	70
182.1093	17
183.0856	26
183.1197	35
185.0983	17
189.0747	30
190.0823	35
191.0897	66
192.0945	30
193.1039	35
194.0759	22
194.1114	30
195.0833	22
195.1201	39
199.1126	17
202.0792	22
203.0909	39
204.0986	22
205.1053	48
206.1072	22
207.0828	17
211.1161	30
217.101	22
223.1141	22
225.1315	52
226.1373	30
240.1501	22
243.1421	52
