Mass spectrum: Coumaphos; LC-ESI-QTOF; MS2; 110 V
Name: Coumaphos
Class: Insecticide
Formula: C14H16ClO5PS
Exact mass: 362.0145
SMILES: CCOP(=S)(OCC)OC1=CC2=C(C=C1)C(=C(C(=O)O2)Cl)C
InChI: InChI=1S/C14H16ClO5PS/c1-4-17-21(22,18-5-2)20-10-6-7-11-9(3)13(15)14(16)19-12(11)8-10/h6-8H,4-5H2,1-3H3
Instrument: TripleTOF 6600 SCIEX
Instrument type: LC-ESI-QTOF
Ms type: MS2
Ion mode: POSITIVE
Collision energy: 110
Fragmentation mode: CID
Ionization: ESI
Column name: Zorbax Eclipse Plus C18 2.1 mm x 150 mm, 3.5 um, Agilent
Retention time: 14.049 min
Precursor m/z: 363.0218
Precursor type: [M+H]+
m/z	relative intensity
37.0062	13
39.0227	55
41.0378	13
43.017	18
44.9788	52
46.9673	148
49.0066	15
50.0141	76
51.0222	253
52.0302	21
53.0032	10
55.0173	13
61.0054	13
62.014	39
62.962	50
63.0222	118
64.0305	26
64.9777	251
65.0377	401
68.9783	129
68.9959	44
70.9946	26
72.983	31
74.0147	79
75.0221	214
76.0299	132
77.0379	774
78.0455	52
78.9392	296
79.0533	21
80.9727	58
84.9728	13
86.0135	13
87.0213	18
88.0296	31
89.0376	362
90.045	124
91.0535	999
92.0239	13
92.9781	18
94.0413	13
94.9934	21
96.9496	311
98.9986	26
101.0377	111
102.0455	599
103.0532	438
104.0622	21
105.0324	37
105.0427	26
108.0012	52
109.0094	21
110.999	26
113.0377	60
114.0456	66
115.0531	359
118.0405	47
118.993	23
119.048	148
120.0018	10
120.056	42
121.0113	129
125.0147	47
126.0233	10
129.032	15
129.0432	44
130.04	42
131.0484	391
132.0579	10
133.0098	50
134.0176	208
135.0251	121
136.0078	18
137.0132	37
145.009	76
147.0255	39
147.0429	354
148.0493	26
149.013	66
163.0205	174
165.0088	111
168.9858	15
178.9706	21
181.0047	29
182.012	31
196.9839	10
