Mass spectrum: Ambroxol; LC-ESI-QTOF; MS2; 80 V
Name: Ambroxol
Class: Pharmaceutical
Formula: C13H18Br2N2O
Exact mass: 375.9786
SMILES: Nc1c(Br)cc(Br)cc1CNC2CCC(O)CC2
InChI: InChI=1S/C13H18Br2N2O/c14-9-5-8(13(16)12(15)6-9)7-17-10-1-3-11(18)4-2-10/h5-6,10-11,17-18H,1-4,7,16H2
Instrument: TripleTOF 5600 SCIEX
Instrument type: LC-ESI-QTOF
Ms type: MS2
Ion mode: POSITIVE
Collision energy: 80
Fragmentation mode: CID
Ionization: ESI
Column name: Zorbax Eclipse Plus C18 2.1 mm x 150 mm, 3.5 um, Agilent
Retention time: 6.498 min
Precursor m/z: 376.9859
Precursor type: [M+H]+
m/z	relative intensity
51.0274	14
75.0263	13
76.0326	28
77.0416	305
78.036	58
79.0575	27
81.0718	72
102.0344	29
103.0426	83
104.05	999
154.949	37
155.9561	120
181.9594	402
182.9668	591
234.8746	9
261.8848	310
